=
 OpenBabel11062418053D

 63 67  0  0  1  0  0  0  0  0999 V2000
  187.0750  177.1230  137.0530 C   0  0  2  0  0  3  0  0  0  0  0  0
  186.5070  176.7400  135.7310 C   0  0  0  0  0  3  0  0  0  0  0  0
  183.9780  177.1560  135.2490 C   0  0  0  0  0  3  0  0  0  0  0  0
  185.2430  176.9380  135.4760 C   0  0  0  0  0  0  0  0  0  0  0  0
  182.9730  176.1130  135.5890 C   0  0  0  0  0  2  0  0  0  0  0  0
  182.7010  176.0690  137.3850 S   0  0  0  0  0  0  0  0  0  0  0  0
  180.8940  176.2500  137.2100 C   0  0  2  0  0  3  0  0  0  0  0  0
  179.2150  177.4220  138.4340 O   0  0  0  0  0  1  0  0  0  0  0  0
  180.3970  177.6180  137.7140 C   0  0  2  0  0  0  0  0  0  0  0  0
  180.0750  178.4710  136.4880 C   0  0  0  0  0  1  0  0  0  0  0  0
  181.4040  178.1860  138.5500 O   0  0  0  0  0  0  0  0  0  0  0  0
  180.9560  179.1670  139.4780 C   0  0  0  0  0  3  0  0  0  0  0  0
  181.1670  180.6180  139.0730 C   0  0  0  0  0  1  0  0  0  0  0  0
  181.3740  178.8820  140.9100 C   0  0  0  0  0  1  0  0  0  0  0  0
  180.2120  175.0870  137.9230 C   0  0  0  0  0  2  0  0  0  0  0  0
  180.4650  173.8930  137.2450 O   0  0  0  0  0  0  0  0  0  0  0  0
  179.7690  172.9270  137.9650 C   0  0  0  0  0  2  0  0  0  0  0  0
  180.4920  171.7340  137.9740 O   0  0  0  0  0  1  0  0  0  0  0  0
  187.8460  175.9580  137.6440 C   0  0  0  0  0  2  0  0  0  0  0  0
  188.3320  175.0220  136.5490 C   0  0  0  0  0  2  0  0  0  0  0  0
  189.4250  174.2380  137.0100 O   0  0  0  0  0  0  0  0  0  0  0  0
  192.9940  175.7910  136.0350 S   0  0  0  0  0  0  0  0  0  0  0  0
  192.9890  174.7080  137.5020 C   0  0  1  0  0  3  0  0  0  0  0  0
  191.2140  175.5380  135.7830 C   0  0  0  0  0  2  0  0  0  0  0  0
  191.6370  174.2340  137.7150 N   0  0  0  0  0  0  0  0  0  0  0  0
  190.7510  174.6460  136.8790 C   0  0  0  0  0  0  0  0  0  0  0  0
  195.6700  172.1130  137.5940 N   0  0  0  0  0  2  0  0  0  0  0  0
  193.7500  172.4480  136.3770 C   0  0  0  0  0  0  0  0  0  0  0  0
  195.0190  173.3140  138.0010 C   0  0  0  0  0  0  0  0  0  0  0  0
  192.7850  172.3090  135.5820 O   0  0  0  0  0  0  0  0  0  0  0  0
  194.3810  170.1430  136.9830 C   0  0  0  0  0  1  0  0  0  0  0  0
  195.5620  174.1930  139.0680 C   0  0  0  0  0  1  0  0  0  0  0  0
  193.9130  173.5470  137.3150 C   0  0  0  0  0  0  0  0  0  0  0  0
  194.8860  171.4990  136.5270 C   0  0  2  0  0  3  0  0  0  0  0  0
  186.0330  177.5020  137.9480 O   0  0  0  0  0  0  0  0  0  0  0  0
  187.4090  178.8340  139.2410 O   0  0  0  0  0  0  0  0  0  0  0  0
  186.2530  178.3930  139.0080 C   0  0  0  0  0  0  0  0  0  0  0  0
  184.5610  179.9890  139.4660 O   0  0  0  0  0  1  0  0  0  0  0  0
  185.1280  178.7940  139.9130 C   0  0  2  0  0  3  0  0  0  0  0  0
  185.5660  178.8560  141.3830 C   0  0  2  0  0  3  0  0  0  0  0  0
  186.9790  178.3340  141.5050 C   0  0  0  0  0  1  0  0  0  0  0  0
  184.6630  178.1050  142.3620 C   0  0  0  0  0  2  0  0  0  0  0  0
  184.2190  178.9620  143.5440 C   0  0  2  0  0  3  0  0  0  0  0  0
  184.8520  180.3320  143.4740 C   0  0  0  0  0  1  0  0  0  0  0  0
  184.6000  178.2680  144.8350 C   0  0  0  0  0  2  0  0  0  0  0  0
  185.8290  177.3940  144.6390 C   0  0  0  0  0  2  0  0  0  0  0  0
  186.7740  177.5630  145.7830 C   0  0  0  0  0  0  0  0  0  0  0  0
  187.3040  178.5240  147.9390 C   0  0  0  0  0  3  0  0  0  0  0  0
  188.9610  177.1890  146.7710 C   0  0  0  0  0  0  0  0  0  0  0  0
  186.4040  178.3370  146.8890 C   0  0  0  0  0  3  0  0  0  0  0  0
  188.0540  176.9930  145.7220 C   0  0  0  0  0  3  0  0  0  0  0  0
  188.5750  177.9500  147.8790 C   0  0  0  0  0  3  0  0  0  0  0  0
  190.2740  176.6260  146.7320 N   0  0  0  0  0  2  0  0  0  0  0  0
  189.9350  176.3390  141.9980 C   0  0  0  0  0  1  0  0  0  0  0  0
  192.0590  176.0800  145.1530 C   0  0  0  0  0  2  0  0  0  0  0  0
  191.8960  178.8860  144.1440 C   0  0  0  0  0  2  0  0  0  0  0  0
  190.6940  178.1110  143.6210 C   0  0  1  0  0  0  0  0  0  0  0  0
  191.0310  176.7460  142.9670 C   0  0  1  0  0  0  0  0  0  0  0  0
  190.8430  178.3690  145.1220 C   0  0  1  0  0  3  0  0  0  0  0  0
  191.3720  177.1860  145.9550 C   0  0  1  0  0  3  0  0  0  0  0  0
  191.1620  175.6400  144.0070 C   0  0  0  0  0  2  0  0  0  0  0  0
  192.2180  176.8400  142.2660 F   0  0  0  0  0  0  0  0  0  0  0  0
  189.7830  178.9480  142.9700 O   0  0  0  0  0  1  0  0  0  0  0  0
  1  2  1  6  0  0  0
  1 19  1  0  0  0  0
  1 35  1  0  0  0  0
  3  4  2  0  0  0  0
  3  5  1  0  0  0  0
  4  2  2  0  0  0  0
  5  6  1  0  0  0  0
  7  6  1  0  0  0  0
  7  9  1  0  0  0  0
  7 15  1  1  0  0  0
  9 10  1  6  0  0  0
  9  8  1  0  0  0  0
  9 11  1  0  0  0  0
 11 12  1  0  0  0  0
 12 14  1  0  0  0  0
 13 12  1  0  0  0  0
 16 15  1  0  0  0  0
 16 17  1  0  0  0  0
 17 18  1  0  0  0  0
 20 21  1  0  0  0  0
 20 19  1  0  0  0  0
 22 23  1  0  0  0  0
 23 33  1  6  0  0  0
 23 25  1  0  0  0  0
 24 22  1  0  0  0  0
 24 26  1  0  0  0  0
 26 21  1  0  0  0  0
 26 25  2  0  0  0  0
 27 29  1  0  0  0  0
 28 34  1  0  0  0  0
 28 33  1  0  0  0  0
 29 32  1  0  0  0  0
 30 28  2  0  0  0  0
 33 29  2  0  0  0  0
 34 31  1  1  0  0  0
 34 27  1  0  0  0  0
 35 37  1  0  0  0  0
 37 36  2  0  0  0  0
 37 39  1  0  0  0  0
 39 38  1  6  0  0  0
 39 40  1  0  0  0  0
 40 41  1  6  0  0  0
 40 42  1  0  0  0  0
 42 43  1  0  0  0  0
 43 44  1  6  0  0  0
 43 45  1  0  0  0  0
 46 45  1  0  0  0  0
 46 47  1  0  0  0  0
 47 50  1  0  0  0  0
 49 52  2  0  0  0  0
 50 48  2  0  0  0  0
 51 47  2  0  0  0  0
 51 49  1  0  0  0  0
 52 48  1  0  0  0  0
 53 49  1  0  0  0  0
 55 60  1  0  0  0  0
 57 63  1  6  0  0  0
 57 56  1  0  0  0  0
 57 59  1  0  0  0  0
 58 54  1  6  0  0  0
 58 57  1  0  0  0  0
 58 61  1  0  0  0  0
 59 56  1  6  0  0  0
 59 60  1  0  0  0  0
 60 53  1  6  0  0  0
 61 55  1  0  0  0  0
 62 58  1  0  0  0  0
M  END
>  <MODEL>
1

>  <REMARK>
 VINA RESULT:      -6.9      0.000      0.000
  Name = 
  26 active torsions:
  status: ('A' for Active; 'I' for Inactive)
    1  A    between atoms: C_1  and  C_20
    2  A    between atoms: C_4  and  C_21
    3  A    between atoms: C_4  and  S_22
    4  A    between atoms: C_4  and  C_53
    5  A    between atoms: C_5  and  C_35
    6  A    between atoms: C_6  and  C_16
    7  A    between atoms: C_6  and  C_27
    8  A    between atoms: C_11  and  C_46
    9  A    between atoms: C_12  and  S_22
   10  A    between atoms: C_12  and  C_38
   11  A    between atoms: C_13  and  C_25
   12  A    between atoms: C_13  and  C_27
   13  A    between atoms: C_16  and  C_17
   14  A    between atoms: C_17  and  C_20
   15  A    between atoms: C_21  and  O_32
   16  A    between atoms: N_23  and  C_26
   17  A    between atoms: N_23  and  C_48
   18  A    between atoms: C_25  and  O_37
   19  A    between atoms: O_29  and  C_42
   20  A    between atoms: O_29  and  C_55
   21  A    between atoms: O_32  and  C_33
   22  A    between atoms: C_35  and  O_37
   23  A    between atoms: C_35  and  C_51
   24  A    between atoms: C_42  and  C_51
   25  A    between atoms: C_52  and  O_54
   26  A    between atoms: C_53  and  O_54
                            x       y       z     vdW  Elec       q    Type
                         _______ _______ _______ _____ _____    ______ ____

>  <TORSDO>
F 26

$$$$
=
 OpenBabel11062418053D

 63 67  0  0  1  0  0  0  0  0999 V2000
  190.3610  176.6640  140.0810 C   0  0  2  0  0  3  0  0  0  0  0  0
  191.7570  176.9270  139.6380 C   0  0  0  0  0  3  0  0  0  0  0  0
  192.5020  176.2110  137.2430 C   0  0  0  0  0  3  0  0  0  0  0  0
  192.1460  176.5710  138.4440 C   0  0  0  0  0  0  0  0  0  0  0  0
  193.0570  174.8500  137.0110 C   0  0  0  0  0  2  0  0  0  0  0  0
  194.7630  174.7560  137.6270 S   0  0  0  0  0  0  0  0  0  0  0  0
  195.3820  174.0170  136.0780 C   0  0  2  0  0  3  0  0  0  0  0  0
  197.1560  173.3480  137.5250 O   0  0  0  0  0  1  0  0  0  0  0  0
  196.5160  173.0060  136.3300 C   0  0  2  0  0  0  0  0  0  0  0  0
  197.5220  173.1500  135.1900 C   0  0  0  0  0  1  0  0  0  0  0  0
  195.9470  171.7020  136.4220 O   0  0  0  0  0  0  0  0  0  0  0  0
  196.4120  170.8990  137.5020 C   0  0  0  0  0  3  0  0  0  0  0  0
  197.7520  170.2100  137.2960 C   0  0  0  0  0  1  0  0  0  0  0  0
  195.3490  169.9770  138.0720 C   0  0  0  0  0  1  0  0  0  0  0  0
  195.8020  175.1380  135.1340 C   0  0  0  0  0  2  0  0  0  0  0  0
  196.4080  176.1710  135.8520 O   0  0  0  0  0  0  0  0  0  0  0  0
  196.3840  177.2610  134.9880 C   0  0  0  0  0  2  0  0  0  0  0  0
  195.4760  178.2120  135.4550 O   0  0  0  0  0  1  0  0  0  0  0  0
  189.5410  177.9370  139.9960 C   0  0  0  0  0  2  0  0  0  0  0  0
  188.4830  177.8270  138.9090 C   0  0  0  0  0  2  0  0  0  0  0  0
  188.6380  176.6150  138.1810 O   0  0  0  0  0  0  0  0  0  0  0  0
  186.2640  176.4910  134.9500 S   0  0  0  0  0  0  0  0  0  0  0  0
  187.1960  174.9620  135.2920 C   0  0  1  0  0  3  0  0  0  0  0  0
  186.9740  177.3080  136.4070 C   0  0  0  0  0  2  0  0  0  0  0  0
  187.9960  175.1720  136.4810 N   0  0  0  0  0  0  0  0  0  0  0  0
  187.9030  176.3290  137.0330 C   0  0  0  0  0  0  0  0  0  0  0  0
  185.5030  171.6680  135.7510 N   0  0  0  0  0  2  0  0  0  0  0  0
  184.8400  173.8670  135.7440 C   0  0  0  0  0  0  0  0  0  0  0  0
  186.6150  172.5270  135.5170 C   0  0  0  0  0  0  0  0  0  0  0  0
  184.1650  174.9260  135.8360 O   0  0  0  0  0  0  0  0  0  0  0  0
  183.7400  172.3040  137.3010 C   0  0  0  0  0  1  0  0  0  0  0  0
  187.9920  172.0110  135.3050 C   0  0  0  0  0  1  0  0  0  0  0  0
  186.2720  173.8040  135.4960 C   0  0  0  0  0  0  0  0  0  0  0  0
  184.3060  172.4880  135.9050 C   0  0  2  0  0  3  0  0  0  0  0  0
  190.3490  176.1850  141.4230 O   0  0  0  0  0  0  0  0  0  0  0  0
  191.7510  176.9260  143.1030 O   0  0  0  0  0  0  0  0  0  0  0  0
  190.6430  177.0170  142.5110 C   0  0  0  0  0  0  0  0  0  0  0  0
  190.2510  178.9660  143.8020 O   0  0  0  0  0  1  0  0  0  0  0  0
  189.6250  177.9900  143.0240 C   0  0  2  0  0  3  0  0  0  0  0  0
  188.4770  177.2870  143.7630 C   0  0  2  0  0  3  0  0  0  0  0  0
  188.4580  175.8250  143.3770 C   0  0  0  0  0  1  0  0  0  0  0  0
  187.0900  177.8890  143.5310 C   0  0  0  0  0  2  0  0  0  0  0  0
  186.4660  178.4580  144.8030 C   0  0  2  0  0  3  0  0  0  0  0  0
  186.7840  177.5780  145.9890 C   0  0  0  0  0  1  0  0  0  0  0  0
  184.9680  178.5710  144.6150 C   0  0  0  0  0  2  0  0  0  0  0  0
  184.6290  179.0090  143.1980 C   0  0  0  0  0  2  0  0  0  0  0  0
  183.1660  178.8510  142.9420 C   0  0  0  0  0  0  0  0  0  0  0  0
  180.8870  178.8280  143.7540 C   0  0  0  0  0  3  0  0  0  0  0  0
  181.3490  178.2860  141.4340 C   0  0  0  0  0  0  0  0  0  0  0  0
  182.2500  179.0150  143.9880 C   0  0  0  0  0  3  0  0  0  0  0  0
  182.7160  178.4820  141.6670 C   0  0  0  0  0  3  0  0  0  0  0  0
  180.4410  178.4680  142.4820 C   0  0  0  0  0  3  0  0  0  0  0  0
  180.8630  177.9030  140.1450 N   0  0  0  0  0  2  0  0  0  0  0  0
  182.4170  177.9540  135.6520 C   0  0  0  0  0  1  0  0  0  0  0  0
  181.1950  179.8600  138.7180 C   0  0  0  0  0  2  0  0  0  0  0  0
  178.9310  178.8940  137.0280 C   0  0  0  0  0  2  0  0  0  0  0  0
  180.1500  178.0260  136.7480 C   0  0  1  0  0  0  0  0  0  0  0  0
  181.4570  178.8090  136.4590 C   0  0  1  0  0  0  0  0  0  0  0  0
  179.4910  177.9970  138.1290 C   0  0  1  0  0  3  0  0  0  0  0  0
  180.1980  178.8170  139.2260 C   0  0  1  0  0  3  0  0  0  0  0  0
  182.1680  179.2150  137.7440 C   0  0  0  0  0  2  0  0  0  0  0  0
  181.1710  179.9480  135.7290 F   0  0  0  0  0  0  0  0  0  0  0  0
  179.8340  176.9410  135.9260 O   0  0  0  0  0  1  0  0  0  0  0  0
  1  2  1  1  0  0  0
  1 35  1  0  0  0  0
  3  4  2  0  0  0  0
  4  2  2  0  0  0  0
  5  3  1  0  0  0  0
  5  6  1  0  0  0  0
  7 15  1  6  0  0  0
  7  9  1  0  0  0  0
  7  6  1  0  0  0  0
  9 10  1  6  0  0  0
  9 11  1  0  0  0  0
  9  8  1  0  0  0  0
 11 12  1  0  0  0  0
 12 14  1  0  0  0  0
 13 12  1  0  0  0  0
 15 16  1  0  0  0  0
 17 18  1  0  0  0  0
 17 16  1  0  0  0  0
 19  1  1  0  0  0  0
 20 19  1  0  0  0  0
 21 20  1  0  0  0  0
 22 23  1  0  0  0  0
 22 24  1  0  0  0  0
 23 33  1  1  0  0  0
 23 25  1  0  0  0  0
 24 26  1  0  0  0  0
 25 26  2  0  0  0  0
 26 21  1  0  0  0  0
 27 34  1  0  0  0  0
 28 30  2  0  0  0  0
 28 34  1  0  0  0  0
 29 27  1  0  0  0  0
 32 29  1  0  0  0  0
 33 29  2  0  0  0  0
 33 28  1  0  0  0  0
 34 31  1  1  0  0  0
 35 37  1  0  0  0  0
 37 39  1  0  0  0  0
 37 36  2  0  0  0  0
 39 40  1  0  0  0  0
 39 38  1  1  0  0  0
 40 41  1  6  0  0  0
 42 40  1  0  0  0  0
 42 43  1  0  0  0  0
 43 44  1  1  0  0  0
 45 43  1  0  0  0  0
 46 45  1  0  0  0  0
 47 46  1  0  0  0  0
 47 50  1  0  0  0  0
 48 50  2  0  0  0  0
 49 51  1  0  0  0  0
 49 52  2  0  0  0  0
 51 47  2  0  0  0  0
 52 48  1  0  0  0  0
 53 49  1  0  0  0  0
 55 60  1  0  0  0  0
 57 63  1  6  0  0  0
 57 56  1  0  0  0  0
 57 59  1  0  0  0  0
 58 54  1  6  0  0  0
 58 57  1  0  0  0  0
 58 61  1  0  0  0  0
 59 56  1  6  0  0  0
 59 60  1  0  0  0  0
 60 53  1  1  0  0  0
 61 55  1  0  0  0  0
 62 58  1  0  0  0  0
M  END
>  <MODEL>
2

>  <REMARK>
 VINA RESULT:      -6.1      3.515     10.659
  Name = 
  26 active torsions:
  status: ('A' for Active; 'I' for Inactive)
    1  A    between atoms: C_1  and  C_20
    2  A    between atoms: C_4  and  C_21
    3  A    between atoms: C_4  and  S_22
    4  A    between atoms: C_4  and  C_53
    5  A    between atoms: C_5  and  C_35
    6  A    between atoms: C_6  and  C_16
    7  A    between atoms: C_6  and  C_27
    8  A    between atoms: C_11  and  C_46
    9  A    between atoms: C_12  and  S_22
   10  A    between atoms: C_12  and  C_38
   11  A    between atoms: C_13  and  C_25
   12  A    between atoms: C_13  and  C_27
   13  A    between atoms: C_16  and  C_17
   14  A    between atoms: C_17  and  C_20
   15  A    between atoms: C_21  and  O_32
   16  A    between atoms: N_23  and  C_26
   17  A    between atoms: N_23  and  C_48
   18  A    between atoms: C_25  and  O_37
   19  A    between atoms: O_29  and  C_42
   20  A    between atoms: O_29  and  C_55
   21  A    between atoms: O_32  and  C_33
   22  A    between atoms: C_35  and  O_37
   23  A    between atoms: C_35  and  C_51
   24  A    between atoms: C_42  and  C_51
   25  A    between atoms: C_52  and  O_54
   26  A    between atoms: C_53  and  O_54
                            x       y       z     vdW  Elec       q    Type
                         _______ _______ _______ _____ _____    ______ ____

>  <TORSDO>
F 26

$$$$
=
 OpenBabel11062418053D

 63 67  0  0  1  0  0  0  0  0999 V2000
  185.7170  178.5280  141.9790 C   0  0  2  0  0  3  0  0  0  0  0  0
  184.7790  179.0150  140.9290 C   0  0  0  0  0  3  0  0  0  0  0  0
  182.5830  177.6920  140.4540 C   0  0  0  0  0  3  0  0  0  0  0  0
  183.6780  178.3620  140.6780 C   0  0  0  0  0  0  0  0  0  0  0  0
  182.5770  176.5910  139.4540 C   0  0  0  0  0  2  0  0  0  0  0  0
  181.0600  175.6050  139.6160 S   0  0  0  0  0  0  0  0  0  0  0  0
  180.7750  175.5730  137.8150 C   0  0  2  0  0  3  0  0  0  0  0  0
  179.8350  174.2190  136.0920 O   0  0  0  0  0  1  0  0  0  0  0  0
  180.5550  174.1430  137.2870 C   0  0  2  0  0  0  0  0  0  0  0  0
  179.7030  173.4000  138.3140 C   0  0  0  0  0  1  0  0  0  0  0  0
  181.8290  173.5410  137.0670 O   0  0  0  0  0  0  0  0  0  0  0  0
  181.9960  172.8860  135.8140 C   0  0  0  0  0  3  0  0  0  0  0  0
  181.7380  171.3880  135.8020 C   0  0  0  0  0  1  0  0  0  0  0  0
  183.2730  173.2770  135.0920 C   0  0  0  0  0  1  0  0  0  0  0  0
  181.9380  176.2750  137.1220 C   0  0  0  0  0  2  0  0  0  0  0  0
  181.5850  176.6150  135.8140 O   0  0  0  0  0  0  0  0  0  0  0  0
  182.6140  177.4430  135.3770 C   0  0  0  0  0  2  0  0  0  0  0  0
  183.5590  177.5950  136.3910 O   0  0  0  0  0  1  0  0  0  0  0  0
  185.2880  179.0480  143.3380 C   0  0  0  0  0  2  0  0  0  0  0  0
  185.4190  177.9640  144.3960 C   0  0  0  0  0  2  0  0  0  0  0  0
  185.6230  178.5410  145.6800 O   0  0  0  0  0  0  0  0  0  0  0  0
  188.5340  178.1930  148.4190 S   0  0  0  0  0  0  0  0  0  0  0  0
  188.6580  177.0540  146.9990 C   0  0  1  0  0  3  0  0  0  0  0  0
  187.0260  178.9460  147.7450 C   0  0  0  0  0  2  0  0  0  0  0  0
  187.5420  177.3090  146.1120 N   0  0  0  0  0  0  0  0  0  0  0  0
  186.7240  178.2320  146.4760 C   0  0  0  0  0  0  0  0  0  0  0  0
  192.1420  177.0580  145.6600 N   0  0  0  0  0  0  0  0  0  0  0  0
  190.1580  178.0600  145.0780 C   0  0  0  0  0  0  0  0  0  0  0  0
  191.1050  176.6830  146.5630 C   0  0  0  0  0  0  0  0  0  0  0  0
  189.2670  178.7170  144.4790 O   0  0  0  0  0  0  0  0  0  0  0  0
  191.6890  177.3340  143.2870 C   0  0  0  0  0  1  0  0  0  0  0  0
  191.3380  175.7710  147.7110 C   0  0  0  0  0  1  0  0  0  0  0  0
  189.9470  177.2480  146.2660 C   0  0  2  0  0  3  0  0  0  0  0  0
  191.5830  177.9650  144.6620 C   0  0  2  0  0  3  0  0  0  0  0  0
  187.0430  178.9690  141.7020 O   0  0  0  0  0  0  0  0  0  0  0  0
  188.6730  177.3370  141.8380 O   0  0  0  0  0  0  0  0  0  0  0  0
  188.0000  178.1250  141.1220 C   0  0  0  0  0  0  0  0  0  0  0  0
  187.1570  178.6720  138.9750 O   0  0  0  0  0  1  0  0  0  0  0  0
  188.2780  178.1850  139.6510 C   0  0  2  0  0  3  0  0  0  0  0  0
  188.7640  176.8370  139.1010 C   0  0  2  0  0  3  0  0  0  0  0  0
  190.2280  176.9450  138.7390 C   0  0  0  0  0  1  0  0  0  0  0  0
  187.9830  176.3060  137.8970 C   0  0  0  0  0  2  0  0  0  0  0  0
  188.7280  176.4820  136.5770 C   0  0  2  0  0  3  0  0  0  0  0  0
  188.2660  177.7350  135.8700 C   0  0  0  0  0  1  0  0  0  0  0  0
  188.4930  175.2650  135.7070 C   0  0  0  0  0  2  0  0  0  0  0  0
  189.5310  175.1820  134.5980 C   0  0  0  0  0  2  0  0  0  0  0  0
  190.6240  174.2390  134.9820 C   0  0  0  0  0  0  0  0  0  0  0  0
  191.4660  171.9810  135.1940 C   0  0  0  0  0  3  0  0  0  0  0  0
  192.8000  173.8470  135.9860 C   0  0  0  0  0  0  0  0  0  0  0  0
  190.4590  172.8620  134.7980 C   0  0  0  0  0  3  0  0  0  0  0  0
  191.7930  174.7310  135.5810 C   0  0  0  0  0  3  0  0  0  0  0  0
  192.6310  172.4740  135.7830 C   0  0  0  0  0  3  0  0  0  0  0  0
  193.9990  174.3200  136.6050 N   0  0  0  0  0  2  0  0  0  0  0  0
  198.3990  174.8560  134.8850 C   0  0  0  0  0  1  0  0  0  0  0  0
  195.5900  172.5520  136.0360 C   0  0  0  0  0  2  0  0  0  0  0  0
  197.2830  173.4720  138.3160 C   0  0  0  0  0  2  0  0  0  0  0  0
  197.4220  174.4710  137.1750 C   0  0  1  0  0  0  0  0  0  0  0  0
  197.7230  173.8420  135.7900 C   0  0  1  0  0  0  0  0  0  0  0  0
  196.0770  174.3030  137.8850 C   0  0  1  0  0  3  0  0  0  0  0  0
  195.0310  173.4450  137.1450 C   0  0  1  0  0  3  0  0  0  0  0  0
  196.4510  173.3770  135.0930 C   0  0  0  0  0  2  0  0  0  0  0  0
  198.5700  172.7600  135.9390 F   0  0  0  0  0  0  0  0  0  0  0  0
  198.1510  175.5990  137.5610 O   0  0  0  0  0  1  0  0  0  0  0  0
  1  2  1  6  0  0  0
  1 19  1  0  0  0  0
  3  4  2  0  0  0  0
  4  2  2  0  0  0  0
  5  6  1  0  0  0  0
  5  3  1  0  0  0  0
  7 15  1  6  0  0  0
  7  6  1  0  0  0  0
  8  9  1  0  0  0  0
  9  7  1  0  0  0  0
  9 10  1  1  0  0  0
 11  9  1  0  0  0  0
 12 11  1  0  0  0  0
 13 12  1  0  0  0  0
 14 12  1  0  0  0  0
 16 15  1  0  0  0  0
 17 16  1  0  0  0  0
 17 18  1  0  0  0  0
 19 20  1  0  0  0  0
 20 21  1  0  0  0  0
 21 26  1  0  0  0  0
 23 25  1  6  0  0  0
 23 22  1  0  0  0  0
 24 22  1  0  0  0  0
 25 26  2  0  0  0  0
 26 24  1  0  0  0  0
 27 29  2  0  0  0  0
 29 32  1  0  0  0  0
 30 28  2  0  0  0  0
 33 28  1  6  0  0  0
 33 29  1  0  0  0  0
 33 23  1  0  0  0  0
 34 31  1  6  0  0  0
 34 28  1  0  0  0  0
 34 27  1  0  0  0  0
 35  1  1  0  0  0  0
 37 35  1  0  0  0  0
 37 36  2  0  0  0  0
 39 38  1  6  0  0  0
 39 37  1  0  0  0  0
 40 41  1  6  0  0  0
 40 39  1  0  0  0  0
 42 40  1  0  0  0  0
 43 44  1  6  0  0  0
 43 42  1  0  0  0  0
 45 43  1  0  0  0  0
 46 47  1  0  0  0  0
 46 45  1  0  0  0  0
 47 51  1  0  0  0  0
 48 52  2  0  0  0  0
 49 53  1  0  0  0  0
 50 47  2  0  0  0  0
 50 48  1  0  0  0  0
 51 49  2  0  0  0  0
 52 49  1  0  0  0  0
 55 60  1  0  0  0  0
 57 63  1  1  0  0  0
 57 59  1  0  0  0  0
 57 56  1  0  0  0  0
 58 54  1  6  0  0  0
 58 62  1  0  0  0  0
 58 57  1  0  0  0  0
 59 56  1  1  0  0  0
 60 53  1  6  0  0  0
 60 59  1  0  0  0  0
 61 58  1  0  0  0  0
 61 55  1  0  0  0  0
M  END
>  <MODEL>
3

>  <REMARK>
 VINA RESULT:      -5.9      2.986      8.940
  Name = 
  26 active torsions:
  status: ('A' for Active; 'I' for Inactive)
    1  A    between atoms: C_1  and  C_20
    2  A    between atoms: C_4  and  C_21
    3  A    between atoms: C_4  and  S_22
    4  A    between atoms: C_4  and  C_53
    5  A    between atoms: C_5  and  C_35
    6  A    between atoms: C_6  and  C_16
    7  A    between atoms: C_6  and  C_27
    8  A    between atoms: C_11  and  C_46
    9  A    between atoms: C_12  and  S_22
   10  A    between atoms: C_12  and  C_38
   11  A    between atoms: C_13  and  C_25
   12  A    between atoms: C_13  and  C_27
   13  A    between atoms: C_16  and  C_17
   14  A    between atoms: C_17  and  C_20
   15  A    between atoms: C_21  and  O_32
   16  A    between atoms: N_23  and  C_26
   17  A    between atoms: N_23  and  C_48
   18  A    between atoms: C_25  and  O_37
   19  A    between atoms: O_29  and  C_42
   20  A    between atoms: O_29  and  C_55
   21  A    between atoms: O_32  and  C_33
   22  A    between atoms: C_35  and  O_37
   23  A    between atoms: C_35  and  C_51
   24  A    between atoms: C_42  and  C_51
   25  A    between atoms: C_52  and  O_54
   26  A    between atoms: C_53  and  O_54
                            x       y       z     vdW  Elec       q    Type
                         _______ _______ _______ _____ _____    ______ ____

>  <TORSDO>
F 26

$$$$
=
 OpenBabel11062418053D

 63 67  0  0  1  0  0  0  0  0999 V2000
  190.4330  176.8680  140.3960 C   0  0  2  0  0  3  0  0  0  0  0  0
  191.7990  177.3790  140.0970 C   0  0  0  0  0  3  0  0  0  0  0  0
  193.0010  176.6290  137.9070 C   0  0  0  0  0  3  0  0  0  0  0  0
  192.4140  177.0100  139.0070 C   0  0  0  0  0  0  0  0  0  0  0  0
  193.8400  175.4000  137.9000 C   0  0  0  0  0  2  0  0  0  0  0  0
  194.3420  174.9940  136.2020 S   0  0  0  0  0  0  0  0  0  0  0  0
  194.3160  173.1990  136.5230 C   0  0  2  0  0  3  0  0  0  0  0  0
  195.7080  172.9950  134.5980 O   0  0  0  0  0  1  0  0  0  0  0  0
  195.5160  172.4770  135.8820 C   0  0  2  0  0  0  0  0  0  0  0  0
  195.1480  171.0000  135.7520 C   0  0  0  0  0  1  0  0  0  0  0  0
  196.6670  172.7050  136.6920 O   0  0  0  0  0  0  0  0  0  0  0  0
  197.8450  173.0970  135.9960 C   0  0  0  0  0  3  0  0  0  0  0  0
  198.8800  172.0060  135.7630 C   0  0  0  0  0  1  0  0  0  0  0  0
  198.4490  174.3920  136.5090 C   0  0  0  0  0  1  0  0  0  0  0  0
  192.9800  172.6350  136.0510 C   0  0  0  0  0  2  0  0  0  0  0  0
  191.9260  173.3210  136.6590 O   0  0  0  0  0  0  0  0  0  0  0  0
  190.8790  173.2360  135.7470 C   0  0  0  0  0  2  0  0  0  0  0  0
  191.2000  173.9530  134.5940 O   0  0  0  0  0  1  0  0  0  0  0  0
  189.4580  178.0250  140.5020 C   0  0  0  0  0  2  0  0  0  0  0  0
  188.5300  178.0620  139.2980 C   0  0  0  0  0  2  0  0  0  0  0  0
  189.0570  177.2760  138.2360 O   0  0  0  0  0  0  0  0  0  0  0  0
  186.6630  176.6810  135.0710 S   0  0  0  0  0  0  0  0  0  0  0  0
  187.3240  175.1680  135.8460 C   0  0  1  0  0  3  0  0  0  0  0  0
  187.5180  177.7310  136.2810 C   0  0  0  0  0  2  0  0  0  0  0  0
  188.1600  175.5550  136.9630 N   0  0  0  0  0  0  0  0  0  0  0  0
  188.2720  176.8180  137.1800 C   0  0  0  0  0  0  0  0  0  0  0  0
  184.2620  173.5800  137.2720 N   0  0  0  0  0  2  0  0  0  0  0  0
  186.1050  172.8450  136.1130 C   0  0  0  0  0  0  0  0  0  0  0  0
  185.1380  174.6650  136.9790 C   0  0  0  0  0  0  0  0  0  0  0  0
  186.9320  172.1350  135.4840 O   0  0  0  0  0  0  0  0  0  0  0  0
  183.9240  171.7830  135.6680 C   0  0  0  0  0  1  0  0  0  0  0  0
  184.8490  176.0600  137.3990 C   0  0  0  0  0  1  0  0  0  0  0  0
  186.2170  174.2800  136.3190 C   0  0  0  0  0  0  0  0  0  0  0  0
  184.8440  172.3550  136.7320 C   0  0  2  0  0  3  0  0  0  0  0  0
  190.4340  176.1380  141.6190 O   0  0  0  0  0  0  0  0  0  0  0  0
  191.6220  176.4270  143.5800 O   0  0  0  0  0  0  0  0  0  0  0  0
  190.6480  176.7630  142.8560 C   0  0  0  0  0  0  0  0  0  0  0  0
  190.3470  178.6580  144.2460 O   0  0  0  0  0  1  0  0  0  0  0  0
  189.6910  177.7990  143.3630 C   0  0  2  0  0  3  0  0  0  0  0  0
  188.4290  177.1700  143.9700 C   0  0  2  0  0  3  0  0  0  0  0  0
  188.2050  175.8070  143.3550 C   0  0  0  0  0  1  0  0  0  0  0  0
  187.1550  178.0040  143.8300 C   0  0  0  0  0  2  0  0  0  0  0  0
  186.4480  178.2430  145.1600 C   0  0  2  0  0  3  0  0  0  0  0  0
  186.6200  177.0530  146.0750 C   0  0  0  0  0  1  0  0  0  0  0  0
  184.9780  178.5050  144.9040 C   0  0  0  0  0  2  0  0  0  0  0  0
  184.7370  178.8600  143.4450 C   0  0  0  0  0  2  0  0  0  0  0  0
  183.2780  178.7920  143.1290 C   0  0  0  0  0  0  0  0  0  0  0  0
  180.9750  178.7380  143.8670 C   0  0  0  0  0  3  0  0  0  0  0  0
  181.4940  178.5040  141.5070 C   0  0  0  0  0  0  0  0  0  0  0  0
  182.3350  178.8420  144.1620 C   0  0  0  0  0  3  0  0  0  0  0  0
  182.8580  178.6170  141.8030 C   0  0  0  0  0  3  0  0  0  0  0  0
  180.5590  178.5720  142.5450 C   0  0  0  0  0  3  0  0  0  0  0  0
  181.0380  178.3190  140.1650 N   0  0  0  0  0  2  0  0  0  0  0  0
  179.0580  175.1720  137.2010 C   0  0  0  0  0  1  0  0  0  0  0  0
  182.0680  176.2980  139.2520 C   0  0  0  0  0  2  0  0  0  0  0  0
  182.0020  177.5930  136.5630 C   0  0  0  0  0  2  0  0  0  0  0  0
  180.5890  177.1530  136.9240 C   0  0  1  0  0  0  0  0  0  0  0  0
  180.4680  175.6900  137.4220 C   0  0  1  0  0  0  0  0  0  0  0  0
  181.2810  178.2490  137.7380 C   0  0  1  0  0  3  0  0  0  0  0  0
  181.8760  177.8060  139.0890 C   0  0  1  0  0  3  0  0  0  0  0  0
  180.7760  175.5720  138.9090 C   0  0  0  0  0  2  0  0  0  0  0  0
  181.3430  174.8810  136.7210 F   0  0  0  0  0  0  0  0  0  0  0  0
  179.6510  177.6160  135.9980 O   0  0  0  0  0  1  0  0  0  0  0  0
  1  2  1  1  0  0  0
  1 19  1  0  0  0  0
  1 35  1  0  0  0  0
  3  4  2  0  0  0  0
  4  2  2  0  0  0  0
  5  3  1  0  0  0  0
  6  7  1  0  0  0  0
  6  5  1  0  0  0  0
  7 15  1  6  0  0  0
  8  9  1  0  0  0  0
  9 10  1  6  0  0  0
  9  7  1  0  0  0  0
  9 11  1  0  0  0  0
 12 14  1  0  0  0  0
 12 11  1  0  0  0  0
 13 12  1  0  0  0  0
 15 16  1  0  0  0  0
 17 16  1  0  0  0  0
 18 17  1  0  0  0  0
 20 19  1  0  0  0  0
 21 20  1  0  0  0  0
 22 23  1  0  0  0  0
 22 24  1  0  0  0  0
 23 33  1  1  0  0  0
 23 25  1  0  0  0  0
 24 26  1  0  0  0  0
 25 26  2  0  0  0  0
 26 21  1  0  0  0  0
 28 33  1  0  0  0  0
 28 34  1  0  0  0  0
 29 27  1  0  0  0  0
 29 32  1  0  0  0  0
 30 28  2  0  0  0  0
 33 29  2  0  0  0  0
 34 31  1  6  0  0  0
 34 27  1  0  0  0  0
 35 37  1  0  0  0  0
 37 39  1  0  0  0  0
 37 36  2  0  0  0  0
 39 40  1  0  0  0  0
 39 38  1  1  0  0  0
 40 41  1  6  0  0  0
 42 40  1  0  0  0  0
 42 43  1  0  0  0  0
 43 44  1  1  0  0  0
 45 43  1  0  0  0  0
 46 45  1  0  0  0  0
 47 46  1  0  0  0  0
 47 50  1  0  0  0  0
 48 50  2  0  0  0  0
 49 51  1  0  0  0  0
 49 52  2  0  0  0  0
 51 47  2  0  0  0  0
 52 48  1  0  0  0  0
 53 49  1  0  0  0  0
 56 57  1  0  0  0  0
 57 63  1  6  0  0  0
 57 58  1  0  0  0  0
 57 59  1  0  0  0  0
 58 54  1  6  0  0  0
 58 61  1  0  0  0  0
 59 56  1  6  0  0  0
 59 60  1  0  0  0  0
 60 55  1  0  0  0  0
 60 53  1  1  0  0  0
 61 55  1  0  0  0  0
 62 58  1  0  0  0  0
M  END
>  <MODEL>
4

>  <REMARK>
 VINA RESULT:      -5.9      3.259     10.147
  Name = 
  26 active torsions:
  status: ('A' for Active; 'I' for Inactive)
    1  A    between atoms: C_1  and  C_20
    2  A    between atoms: C_4  and  C_21
    3  A    between atoms: C_4  and  S_22
    4  A    between atoms: C_4  and  C_53
    5  A    between atoms: C_5  and  C_35
    6  A    between atoms: C_6  and  C_16
    7  A    between atoms: C_6  and  C_27
    8  A    between atoms: C_11  and  C_46
    9  A    between atoms: C_12  and  S_22
   10  A    between atoms: C_12  and  C_38
   11  A    between atoms: C_13  and  C_25
   12  A    between atoms: C_13  and  C_27
   13  A    between atoms: C_16  and  C_17
   14  A    between atoms: C_17  and  C_20
   15  A    between atoms: C_21  and  O_32
   16  A    between atoms: N_23  and  C_26
   17  A    between atoms: N_23  and  C_48
   18  A    between atoms: C_25  and  O_37
   19  A    between atoms: O_29  and  C_42
   20  A    between atoms: O_29  and  C_55
   21  A    between atoms: O_32  and  C_33
   22  A    between atoms: C_35  and  O_37
   23  A    between atoms: C_35  and  C_51
   24  A    between atoms: C_42  and  C_51
   25  A    between atoms: C_52  and  O_54
   26  A    between atoms: C_53  and  O_54
                            x       y       z     vdW  Elec       q    Type
                         _______ _______ _______ _____ _____    ______ ____

>  <TORSDO>
F 26

$$$$
=
 OpenBabel11062418053D

 63 67  0  0  1  0  0  0  0  0999 V2000
  188.7280  177.7280  138.1150 C   0  0  2  0  0  3  0  0  0  0  0  0
  188.9610  177.7900  136.6460 C   0  0  0  0  0  3  0  0  0  0  0  0
  187.1130  176.9400  135.0150 C   0  0  0  0  0  3  0  0  0  0  0  0
  188.0470  177.3650  135.8170 C   0  0  0  0  0  0  0  0  0  0  0  0
  187.0870  175.5130  134.5960 C   0  0  0  0  0  2  0  0  0  0  0  0
  187.2490  174.4320  136.0470 S   0  0  0  0  0  0  0  0  0  0  0  0
  185.9700  173.2770  135.4470 C   0  0  2  0  0  3  0  0  0  0  0  0
  185.6530  172.8170  137.7650 O   0  0  0  0  0  1  0  0  0  0  0  0
  184.9660  172.8980  136.5510 C   0  0  2  0  0  0  0  0  0  0  0  0
  184.4160  171.5130  136.2170 C   0  0  0  0  0  1  0  0  0  0  0  0
  183.9600  173.9070  136.6130 O   0  0  0  0  0  0  0  0  0  0  0  0
  183.1230  174.0180  135.4670 C   0  0  0  0  0  3  0  0  0  0  0  0
  183.3400  175.2440  134.5940 C   0  0  0  0  0  1  0  0  0  0  0  0
  181.6580  173.7450  135.7590 C   0  0  0  0  0  1  0  0  0  0  0  0
  186.6560  172.0560  134.8430 C   0  0  0  0  0  2  0  0  0  0  0  0
  187.0300  171.1660  135.8510 O   0  0  0  0  0  0  0  0  0  0  0  0
  188.0430  170.3990  135.2850 C   0  0  0  0  0  2  0  0  0  0  0  0
  189.1160  171.2200  134.9370 O   0  0  0  0  0  1  0  0  0  0  0  0
  189.8150  176.9020  138.7780 C   0  0  0  0  0  2  0  0  0  0  0  0
  190.5610  176.0660  137.7500 C   0  0  0  0  0  2  0  0  0  0  0  0
  191.8850  175.7950  138.1920 O   0  0  0  0  0  0  0  0  0  0  0  0
  194.4740  175.5870  135.1330 S   0  0  0  0  0  0  0  0  0  0  0  0
  195.1670  175.1840  136.7710 C   0  0  1  0  0  3  0  0  0  0  0  0
  192.8290  175.8740  135.8470 C   0  0  0  0  0  2  0  0  0  0  0  0
  194.1120  175.3050  137.7550 N   0  0  0  0  0  0  0  0  0  0  0  0
  192.9570  175.6560  137.3120 C   0  0  0  0  0  0  0  0  0  0  0  0
  197.1920  172.0580  137.0130 N   0  0  0  0  0  2  0  0  0  0  0  0
  194.9960  172.5610  136.5590 C   0  0  0  0  0  0  0  0  0  0  0  0
  196.9790  173.4660  137.0570 C   0  0  0  0  0  0  0  0  0  0  0  0
  193.7640  172.4800  136.3160 O   0  0  0  0  0  0  0  0  0  0  0  0
  195.5030  170.5160  137.8390 C   0  0  0  0  0  1  0  0  0  0  0  0
  198.0700  174.4290  137.3530 C   0  0  0  0  0  1  0  0  0  0  0  0
  195.7270  173.7970  136.7910 C   0  0  0  0  0  0  0  0  0  0  0  0
  195.9270  171.4070  136.6870 C   0  0  2  0  0  3  0  0  0  0  0  0
  187.4580  177.1440  138.3910 O   0  0  0  0  0  0  0  0  0  0  0  0
  186.5310  178.8960  139.5780 O   0  0  0  0  0  0  0  0  0  0  0  0
  186.3630  177.9130  138.8090 C   0  0  0  0  0  0  0  0  0  0  0  0
  185.0020  176.8800  137.1670 O   0  0  0  0  0  1  0  0  0  0  0  0
  184.9710  177.5460  138.3930 C   0  0  2  0  0  3  0  0  0  0  0  0
  184.0320  178.7610  138.3870 C   0  0  2  0  0  3  0  0  0  0  0  0
  184.6030  179.8360  139.2840 C   0  0  0  0  0  1  0  0  0  0  0  0
  182.5900  178.4690  138.8020 C   0  0  0  0  0  2  0  0  0  0  0  0
  182.4500  177.1880  139.6190 C   0  0  2  0  0  3  0  0  0  0  0  0
  181.6450  176.1590  138.8590 C   0  0  0  0  0  1  0  0  0  0  0  0
  181.7850  177.5090  140.9410 C   0  0  0  0  0  2  0  0  0  0  0  0
  182.2450  178.8600  141.4660 C   0  0  0  0  0  2  0  0  0  0  0  0
  183.2280  178.6770  142.5760 C   0  0  0  0  0  0  0  0  0  0  0  0
  183.7820  178.8040  144.9270 C   0  0  0  0  0  3  0  0  0  0  0  0
  185.4860  178.1770  143.3170 C   0  0  0  0  0  0  0  0  0  0  0  0
  182.8500  178.9370  143.8980 C   0  0  0  0  0  3  0  0  0  0  0  0
  184.5480  178.3030  142.2850 C   0  0  0  0  0  3  0  0  0  0  0  0
  185.0930  178.4230  144.6360 C   0  0  0  0  0  3  0  0  0  0  0  0
  186.8390  177.8020  143.0490 N   0  0  0  0  0  2  0  0  0  0  0  0
  191.4870  177.6500  142.0560 C   0  0  0  0  0  1  0  0  0  0  0  0
  188.3570  175.9120  143.3650 C   0  0  0  0  0  2  0  0  0  0  0  0
  189.7300  177.4910  145.4950 C   0  0  0  0  0  2  0  0  0  0  0  0
  190.1280  178.0570  144.1380 C   0  0  1  0  0  0  0  0  0  0  0  0
  190.5970  177.0030  143.1030 C   0  0  1  0  0  0  0  0  0  0  0  0
  188.6770  178.1600  144.6140 C   0  0  1  0  0  3  0  0  0  0  0  0
  187.7000  177.1300  144.0140 C   0  0  1  0  0  3  0  0  0  0  0  0
  189.4210  176.3630  142.3760 C   0  0  0  0  0  2  0  0  0  0  0  0
  191.3220  176.0110  143.7370 F   0  0  0  0  0  0  0  0  0  0  0  0
  190.8710  179.2340  144.2670 O   0  0  0  0  0  1  0  0  0  0  0  0
  1  2  1  6  0  0  0
  1 35  1  0  0  0  0
  1 19  1  0  0  0  0
  3  4  2  0  0  0  0
  4  2  2  0  0  0  0
  5  3  1  0  0  0  0
  5  6  1  0  0  0  0
  7 15  1  1  0  0  0
  7  6  1  0  0  0  0
  7  9  1  0  0  0  0
  9 10  1  6  0  0  0
  9 11  1  0  0  0  0
  9  8  1  0  0  0  0
 12 14  1  0  0  0  0
 12 11  1  0  0  0  0
 13 12  1  0  0  0  0
 15 16  1  0  0  0  0
 17 16  1  0  0  0  0
 18 17  1  0  0  0  0
 20 21  1  0  0  0  0
 20 19  1  0  0  0  0
 22 24  1  0  0  0  0
 22 23  1  0  0  0  0
 23 33  1  6  0  0  0
 23 25  1  0  0  0  0
 24 26  1  0  0  0  0
 26 25  2  0  0  0  0
 26 21  1  0  0  0  0
 27 29  1  0  0  0  0
 28 34  1  0  0  0  0
 28 33  1  0  0  0  0
 29 32  1  0  0  0  0
 30 28  2  0  0  0  0
 33 29  2  0  0  0  0
 34 27  1  0  0  0  0
 34 31  1  1  0  0  0
 35 37  1  0  0  0  0
 37 36  2  0  0  0  0
 39 38  1  6  0  0  0
 39 37  1  0  0  0  0
 40 39  1  0  0  0  0
 40 42  1  0  0  0  0
 40 41  1  1  0  0  0
 42 43  1  0  0  0  0
 43 44  1  6  0  0  0
 43 45  1  0  0  0  0
 45 46  1  0  0  0  0
 46 47  1  0  0  0  0
 47 50  1  0  0  0  0
 49 52  2  0  0  0  0
 50 48  2  0  0  0  0
 51 47  2  0  0  0  0
 51 49  1  0  0  0  0
 52 48  1  0  0  0  0
 53 49  1  0  0  0  0
 55 60  1  0  0  0  0
 57 63  1  1  0  0  0
 57 59  1  0  0  0  0
 57 56  1  0  0  0  0
 58 54  1  6  0  0  0
 58 62  1  0  0  0  0
 58 57  1  0  0  0  0
 59 56  1  1  0  0  0
 60 53  1  6  0  0  0
 60 59  1  0  0  0  0
 61 58  1  0  0  0  0
 61 55  1  0  0  0  0
M  END
>  <MODEL>
5

>  <REMARK>
 VINA RESULT:      -5.8      2.347      4.435
  Name = 
  26 active torsions:
  status: ('A' for Active; 'I' for Inactive)
    1  A    between atoms: C_1  and  C_20
    2  A    between atoms: C_4  and  C_21
    3  A    between atoms: C_4  and  S_22
    4  A    between atoms: C_4  and  C_53
    5  A    between atoms: C_5  and  C_35
    6  A    between atoms: C_6  and  C_16
    7  A    between atoms: C_6  and  C_27
    8  A    between atoms: C_11  and  C_46
    9  A    between atoms: C_12  and  S_22
   10  A    between atoms: C_12  and  C_38
   11  A    between atoms: C_13  and  C_25
   12  A    between atoms: C_13  and  C_27
   13  A    between atoms: C_16  and  C_17
   14  A    between atoms: C_17  and  C_20
   15  A    between atoms: C_21  and  O_32
   16  A    between atoms: N_23  and  C_26
   17  A    between atoms: N_23  and  C_48
   18  A    between atoms: C_25  and  O_37
   19  A    between atoms: O_29  and  C_42
   20  A    between atoms: O_29  and  C_55
   21  A    between atoms: O_32  and  C_33
   22  A    between atoms: C_35  and  O_37
   23  A    between atoms: C_35  and  C_51
   24  A    between atoms: C_42  and  C_51
   25  A    between atoms: C_52  and  O_54
   26  A    between atoms: C_53  and  O_54
                            x       y       z     vdW  Elec       q    Type
                         _______ _______ _______ _____ _____    ______ ____

>  <TORSDO>
F 26

$$$$
=
 OpenBabel11062418053D

 63 67  0  0  1  0  0  0  0  0999 V2000
  190.6900  176.8940  140.7520 C   0  0  2  0  0  3  0  0  0  0  0  0
  192.0530  177.3790  140.4000 C   0  0  0  0  0  3  0  0  0  0  0  0
  193.1220  176.6730  138.1280 C   0  0  0  0  0  3  0  0  0  0  0  0
  192.6030  177.0310  139.2690 C   0  0  0  0  0  0  0  0  0  0  0  0
  193.9250  175.4230  138.0390 C   0  0  0  0  0  2  0  0  0  0  0  0
  194.2460  175.0090  136.2990 S   0  0  0  0  0  0  0  0  0  0  0  0
  193.8620  173.2430  136.5510 C   0  0  2  0  0  3  0  0  0  0  0  0
  196.1950  172.7890  136.7370 O   0  0  0  0  0  1  0  0  0  0  0  0
  195.0260  172.3300  136.1250 C   0  0  2  0  0  0  0  0  0  0  0  0
  195.1900  172.4700  134.6130 C   0  0  0  0  0  1  0  0  0  0  0  0
  194.7320  170.9980  136.5420 O   0  0  0  0  0  0  0  0  0  0  0  0
  195.6820  170.4000  137.4170 C   0  0  0  0  0  3  0  0  0  0  0  0
  196.8270  169.6510  136.7530 C   0  0  0  0  0  1  0  0  0  0  0  0
  195.0480  169.6280  138.5610 C   0  0  0  0  0  1  0  0  0  0  0  0
  192.5660  172.9140  135.8170 C   0  0  0  0  0  2  0  0  0  0  0  0
  191.6910  173.9990  135.8750 O   0  0  0  0  0  0  0  0  0  0  0  0
  191.1540  174.0860  134.5940 C   0  0  0  0  0  2  0  0  0  0  0  0
  189.8960  174.6840  134.6490 O   0  0  0  0  0  1  0  0  0  0  0  0
  189.7200  178.0590  140.7960 C   0  0  0  0  0  2  0  0  0  0  0  0
  188.5860  177.8550  139.8050 C   0  0  0  0  0  2  0  0  0  0  0  0
  189.0080  177.0360  138.7220 O   0  0  0  0  0  0  0  0  0  0  0  0
  186.7730  177.0360  135.3900 S   0  0  0  0  0  0  0  0  0  0  0  0
  186.9300  175.4220  136.2240 C   0  0  1  0  0  3  0  0  0  0  0  0
  187.7990  177.8430  136.6530 C   0  0  0  0  0  2  0  0  0  0  0  0
  187.7600  175.5950  137.3990 N   0  0  0  0  0  0  0  0  0  0  0  0
  188.2030  176.7820  137.6130 C   0  0  0  0  0  0  0  0  0  0  0  0
  183.9660  173.5080  137.4410 N   0  0  0  0  0  2  0  0  0  0  0  0
  184.3140  175.5810  136.5130 C   0  0  0  0  0  0  0  0  0  0  0  0
  185.3490  173.7090  137.1640 C   0  0  0  0  0  0  0  0  0  0  0  0
  184.1550  176.7500  136.0770 O   0  0  0  0  0  0  0  0  0  0  0  0
  182.5760  175.3330  138.2450 C   0  0  0  0  0  1  0  0  0  0  0  0
  186.3790  172.6780  137.4510 C   0  0  0  0  0  1  0  0  0  0  0  0
  185.5900  174.8900  136.6200 C   0  0  0  0  0  0  0  0  0  0  0  0
  183.2320  174.7010  137.0320 C   0  0  2  0  0  3  0  0  0  0  0  0
  190.7070  176.2460  142.0200 O   0  0  0  0  0  0  0  0  0  0  0  0
  191.5600  176.7500  144.1080 O   0  0  0  0  0  0  0  0  0  0  0  0
  190.6910  176.9670  143.2230 C   0  0  0  0  0  0  0  0  0  0  0  0
  190.0930  178.9730  144.3350 O   0  0  0  0  0  1  0  0  0  0  0  0
  189.6080  177.9660  143.4980 C   0  0  2  0  0  3  0  0  0  0  0  0
  188.3350  177.3020  144.0410 C   0  0  2  0  0  3  0  0  0  0  0  0
  188.1880  175.9290  143.4260 C   0  0  0  0  0  1  0  0  0  0  0  0
  187.0460  178.0950  143.8230 C   0  0  0  0  0  2  0  0  0  0  0  0
  186.3420  178.4610  145.1270 C   0  0  2  0  0  3  0  0  0  0  0  0
  185.9420  177.2160  145.8820 C   0  0  0  0  0  1  0  0  0  0  0  0
  185.1240  179.3060  144.8150 C   0  0  0  0  0  2  0  0  0  0  0  0
  184.6450  179.0640  143.3930 C   0  0  0  0  0  2  0  0  0  0  0  0
  183.1590  178.9160  143.3650 C   0  0  0  0  0  0  0  0  0  0  0  0
  181.0650  178.5620  144.5240 C   0  0  0  0  0  3  0  0  0  0  0  0
  181.0950  178.7080  142.1020 C   0  0  0  0  0  0  0  0  0  0  0  0
  182.4490  178.7390  144.5580 C   0  0  0  0  0  3  0  0  0  0  0  0
  182.4820  178.8950  142.1360 C   0  0  0  0  0  3  0  0  0  0  0  0
  180.3930  178.5490  143.3010 C   0  0  0  0  0  3  0  0  0  0  0  0
  180.3800  178.6760  140.8640 N   0  0  0  0  0  2  0  0  0  0  0  0
  180.7220  182.2560  137.7540 C   0  0  0  0  0  1  0  0  0  0  0  0
  179.9860  178.5820  138.4520 C   0  0  0  0  0  2  0  0  0  0  0  0
  182.9030  179.0800  138.0510 C   0  0  0  0  0  2  0  0  0  0  0  0
  182.2430  180.3840  138.4800 C   0  0  1  0  0  0  0  0  0  0  0  0
  180.9640  180.7590  137.6880 C   0  0  1  0  0  0  0  0  0  0  0  0
  182.2990  179.2000  139.4480 C   0  0  1  0  0  3  0  0  0  0  0  0
  181.0010  178.3790  139.5790 C   0  0  1  0  0  3  0  0  0  0  0  0
  179.7280  180.0670  138.2500 C   0  0  0  0  0  2  0  0  0  0  0  0
  181.1100  180.4000  136.3610 F   0  0  0  0  0  0  0  0  0  0  0  0
  183.1860  181.3850  138.7240 O   0  0  0  0  0  1  0  0  0  0  0  0
  1  2  1  1  0  0  0
  1 19  1  0  0  0  0
  1 35  1  0  0  0  0
  3  4  2  0  0  0  0
  4  2  2  0  0  0  0
  5  3  1  0  0  0  0
  6  7  1  0  0  0  0
  6  5  1  0  0  0  0
  7 15  1  6  0  0  0
  9 10  1  6  0  0  0
  9 11  1  0  0  0  0
  9  7  1  0  0  0  0
  9  8  1  0  0  0  0
 11 12  1  0  0  0  0
 12 14  1  0  0  0  0
 13 12  1  0  0  0  0
 15 16  1  0  0  0  0
 17 18  1  0  0  0  0
 17 16  1  0  0  0  0
 20 19  1  0  0  0  0
 21 20  1  0  0  0  0
 22 23  1  0  0  0  0
 22 24  1  0  0  0  0
 23 33  1  1  0  0  0
 23 25  1  0  0  0  0
 24 26  1  0  0  0  0
 25 26  2  0  0  0  0
 26 21  1  0  0  0  0
 28 33  1  0  0  0  0
 28 34  1  0  0  0  0
 29 27  1  0  0  0  0
 29 32  1  0  0  0  0
 30 28  2  0  0  0  0
 33 29  2  0  0  0  0
 34 27  1  0  0  0  0
 34 31  1  1  0  0  0
 35 37  1  0  0  0  0
 37 39  1  0  0  0  0
 37 36  2  0  0  0  0
 39 40  1  0  0  0  0
 39 38  1  1  0  0  0
 40 41  1  6  0  0  0
 42 40  1  0  0  0  0
 42 43  1  0  0  0  0
 43 44  1  6  0  0  0
 45 43  1  0  0  0  0
 46 45  1  0  0  0  0
 47 46  1  0  0  0  0
 47 50  1  0  0  0  0
 48 50  2  0  0  0  0
 49 51  1  0  0  0  0
 49 52  2  0  0  0  0
 51 47  2  0  0  0  0
 52 48  1  0  0  0  0
 53 49  1  0  0  0  0
 55 60  1  0  0  0  0
 56 57  1  0  0  0  0
 57 63  1  1  0  0  0
 57 59  1  0  0  0  0
 58 54  1  1  0  0  0
 58 61  1  0  0  0  0
 58 57  1  0  0  0  0
 59 56  1  6  0  0  0
 59 60  1  0  0  0  0
 60 53  1  1  0  0  0
 61 55  1  0  0  0  0
 62 58  1  0  0  0  0
M  END
>  <MODEL>
6

>  <REMARK>
 VINA RESULT:      -5.5      3.313     10.088
  Name = 
  26 active torsions:
  status: ('A' for Active; 'I' for Inactive)
    1  A    between atoms: C_1  and  C_20
    2  A    between atoms: C_4  and  C_21
    3  A    between atoms: C_4  and  S_22
    4  A    between atoms: C_4  and  C_53
    5  A    between atoms: C_5  and  C_35
    6  A    between atoms: C_6  and  C_16
    7  A    between atoms: C_6  and  C_27
    8  A    between atoms: C_11  and  C_46
    9  A    between atoms: C_12  and  S_22
   10  A    between atoms: C_12  and  C_38
   11  A    between atoms: C_13  and  C_25
   12  A    between atoms: C_13  and  C_27
   13  A    between atoms: C_16  and  C_17
   14  A    between atoms: C_17  and  C_20
   15  A    between atoms: C_21  and  O_32
   16  A    between atoms: N_23  and  C_26
   17  A    between atoms: N_23  and  C_48
   18  A    between atoms: C_25  and  O_37
   19  A    between atoms: O_29  and  C_42
   20  A    between atoms: O_29  and  C_55
   21  A    between atoms: O_32  and  C_33
   22  A    between atoms: C_35  and  O_37
   23  A    between atoms: C_35  and  C_51
   24  A    between atoms: C_42  and  C_51
   25  A    between atoms: C_52  and  O_54
   26  A    between atoms: C_53  and  O_54
                            x       y       z     vdW  Elec       q    Type
                         _______ _______ _______ _____ _____    ______ ____

>  <TORSDO>
F 26

$$$$
=
 OpenBabel11062418053D

 63 67  0  0  1  0  0  0  0  0999 V2000
  189.3480  177.8270  138.7980 C   0  0  2  0  0  3  0  0  0  0  0  0
  189.4780  178.3360  137.4060 C   0  0  0  0  0  3  0  0  0  0  0  0
  187.3570  178.5130  135.8980 C   0  0  0  0  0  3  0  0  0  0  0  0
  188.4260  178.4270  136.6380 C   0  0  0  0  0  0  0  0  0  0  0  0
  186.9380  177.3560  135.0620 C   0  0  0  0  0  2  0  0  0  0  0  0
  186.9330  175.8350  136.0560 S   0  0  0  0  0  0  0  0  0  0  0  0
  185.5290  175.1240  135.1330 C   0  0  2  0  0  3  0  0  0  0  0  0
  183.6620  176.3430  135.9800 O   0  0  0  0  0  1  0  0  0  0  0  0
  184.2450  175.0720  135.9810 C   0  0  2  0  0  0  0  0  0  0  0  0
  184.6520  174.7330  137.4130 C   0  0  0  0  0  1  0  0  0  0  0  0
  183.3590  174.1160  135.4020 O   0  0  0  0  0  0  0  0  0  0  0  0
  182.3880  173.5600  136.2820 C   0  0  0  0  0  3  0  0  0  0  0  0
  182.4780  172.0600  136.5180 C   0  0  0  0  0  1  0  0  0  0  0  0
  180.9740  174.0360  136.0000 C   0  0  0  0  0  1  0  0  0  0  0  0
  185.9330  173.7510  134.6060 C   0  0  0  0  0  2  0  0  0  0  0  0
  186.8880  173.1750  135.4460 O   0  0  0  0  0  0  0  0  0  0  0  0
  186.2230  172.1190  136.0610 C   0  0  0  0  0  2  0  0  0  0  0  0
  186.5110  170.9290  135.3940 O   0  0  0  0  0  1  0  0  0  0  0  0
  190.2710  176.6400  139.0050 C   0  0  0  0  0  2  0  0  0  0  0  0
  191.3490  176.6020  137.9340 C   0  0  0  0  0  2  0  0  0  0  0  0
  192.1170  175.4100  138.0400 O   0  0  0  0  0  0  0  0  0  0  0  0
  193.8350  173.2780  135.1070 S   0  0  0  0  0  0  0  0  0  0  0  0
  194.4110  175.0020  135.2590 C   0  0  1  0  0  3  0  0  0  0  0  0
  192.7020  173.4820  136.5110 C   0  0  0  0  0  2  0  0  0  0  0  0
  193.6990  175.6260  136.3550 N   0  0  0  0  0  0  0  0  0  0  0  0
  192.8450  174.8880  136.9720 C   0  0  0  0  0  0  0  0  0  0  0  0
  198.0360  175.8180  135.6170 N   0  0  0  0  0  2  0  0  0  0  0  0
  196.6990  174.0210  136.1300 C   0  0  0  0  0  0  0  0  0  0  0  0
  196.6850  176.0720  135.2400 C   0  0  0  0  0  0  0  0  0  0  0  0
  196.2700  172.9190  136.5600 O   0  0  0  0  0  0  0  0  0  0  0  0
  198.5530  174.5920  137.6520 C   0  0  0  0  0  1  0  0  0  0  0  0
  196.2610  177.3430  134.5990 C   0  0  0  0  0  1  0  0  0  0  0  0
  195.8840  175.0550  135.5110 C   0  0  0  0  0  0  0  0  0  0  0  0
  198.1110  174.4840  136.2040 C   0  0  2  0  0  3  0  0  0  0  0  0
  188.0040  177.4300  139.0570 O   0  0  0  0  0  0  0  0  0  0  0  0
  187.6750  178.7280  140.9400 O   0  0  0  0  0  0  0  0  0  0  0  0
  187.1800  178.1350  139.9460 C   0  0  0  0  0  0  0  0  0  0  0  0
  185.3820  177.9330  138.4150 O   0  0  0  0  0  1  0  0  0  0  0  0
  185.6930  178.1470  139.7590 C   0  0  2  0  0  3  0  0  0  0  0  0
  185.0530  179.4240  140.3220 C   0  0  2  0  0  3  0  0  0  0  0  0
  185.8830  179.9290  141.4810 C   0  0  0  0  0  1  0  0  0  0  0  0
  183.5980  179.2780  140.7690 C   0  0  0  0  0  2  0  0  0  0  0  0
  183.2610  177.8730  141.2600 C   0  0  2  0  0  3  0  0  0  0  0  0
  182.4230  177.1410  140.2370 C   0  0  0  0  0  1  0  0  0  0  0  0
  182.5220  177.9700  142.5780 C   0  0  0  0  0  2  0  0  0  0  0  0
  183.0200  179.1520  143.3950 C   0  0  0  0  0  2  0  0  0  0  0  0
  184.1920  178.7490  144.2280 C   0  0  0  0  0  0  0  0  0  0  0  0
  185.2660  178.5750  146.3890 C   0  0  0  0  0  3  0  0  0  0  0  0
  186.4720  177.9280  144.3850 C   0  0  0  0  0  0  0  0  0  0  0  0
  184.1540  178.9150  145.6170 C   0  0  0  0  0  3  0  0  0  0  0  0
  185.3530  178.2610  143.6110 C   0  0  0  0  0  3  0  0  0  0  0  0
  186.4180  178.0820  145.7730 C   0  0  0  0  0  3  0  0  0  0  0  0
  187.6710  177.4350  143.7820 N   0  0  0  0  0  2  0  0  0  0  0  0
  192.0680  177.6040  141.9820 C   0  0  0  0  0  1  0  0  0  0  0  0
  189.2860  175.6030  143.6490 C   0  0  0  0  0  2  0  0  0  0  0  0
  190.9620  177.0610  145.6440 C   0  0  0  0  0  2  0  0  0  0  0  0
  191.0900  177.7620  144.2980 C   0  0  1  0  0  0  0  0  0  0  0  0
  191.4030  176.8260  143.1020 C   0  0  1  0  0  0  0  0  0  0  0  0
  189.7460  177.7490  145.0280 C   0  0  1  0  0  3  0  0  0  0  0  0
  188.7130  176.7270  144.5140 C   0  0  1  0  0  3  0  0  0  0  0  0
  190.1390  176.1910  142.5360 C   0  0  0  0  0  2  0  0  0  0  0  0
  192.2640  175.8210  143.5040 F   0  0  0  0  0  0  0  0  0  0  0  0
  191.8030  178.9590  144.4040 O   0  0  0  0  0  1  0  0  0  0  0  0
  1  2  1  6  0  0  0
  1 19  1  0  0  0  0
  1 35  1  0  0  0  0
  3  4  2  0  0  0  0
  4  2  2  0  0  0  0
  5  3  1  0  0  0  0
  5  6  1  0  0  0  0
  7 15  1  1  0  0  0
  7  9  1  0  0  0  0
  7  6  1  0  0  0  0
  8  9  1  0  0  0  0
  9 10  1  1  0  0  0
 11  9  1  0  0  0  0
 11 12  1  0  0  0  0
 12 13  1  0  0  0  0
 14 12  1  0  0  0  0
 15 16  1  0  0  0  0
 16 17  1  0  0  0  0
 18 17  1  0  0  0  0
 20 21  1  0  0  0  0
 20 19  1  0  0  0  0
 22 23  1  0  0  0  0
 22 24  1  0  0  0  0
 23 33  1  1  0  0  0
 23 25  1  0  0  0  0
 24 26  1  0  0  0  0
 25 26  2  0  0  0  0
 26 21  1  0  0  0  0
 27 34  1  0  0  0  0
 28 34  1  0  0  0  0
 28 30  2  0  0  0  0
 29 33  2  0  0  0  0
 29 27  1  0  0  0  0
 32 29  1  0  0  0  0
 33 28  1  0  0  0  0
 34 31  1  1  0  0  0
 35 37  1  0  0  0  0
 37 36  2  0  0  0  0
 39 38  1  6  0  0  0
 39 37  1  0  0  0  0
 39 40  1  0  0  0  0
 40 42  1  0  0  0  0
 40 41  1  1  0  0  0
 42 43  1  0  0  0  0
 43 44  1  6  0  0  0
 43 45  1  0  0  0  0
 45 46  1  0  0  0  0
 46 47  1  0  0  0  0
 47 50  1  0  0  0  0
 49 52  2  0  0  0  0
 50 48  2  0  0  0  0
 51 47  2  0  0  0  0
 51 49  1  0  0  0  0
 52 48  1  0  0  0  0
 53 49  1  0  0  0  0
 55 60  1  0  0  0  0
 57 63  1  1  0  0  0
 57 59  1  0  0  0  0
 57 56  1  0  0  0  0
 58 54  1  6  0  0  0
 58 62  1  0  0  0  0
 58 57  1  0  0  0  0
 59 56  1  1  0  0  0
 60 53  1  6  0  0  0
 60 59  1  0  0  0  0
 61 58  1  0  0  0  0
 61 55  1  0  0  0  0
M  END
>  <MODEL>
7

>  <REMARK>
 VINA RESULT:      -5.0      2.516      4.021
  Name = 
  26 active torsions:
  status: ('A' for Active; 'I' for Inactive)
    1  A    between atoms: C_1  and  C_20
    2  A    between atoms: C_4  and  C_21
    3  A    between atoms: C_4  and  S_22
    4  A    between atoms: C_4  and  C_53
    5  A    between atoms: C_5  and  C_35
    6  A    between atoms: C_6  and  C_16
    7  A    between atoms: C_6  and  C_27
    8  A    between atoms: C_11  and  C_46
    9  A    between atoms: C_12  and  S_22
   10  A    between atoms: C_12  and  C_38
   11  A    between atoms: C_13  and  C_25
   12  A    between atoms: C_13  and  C_27
   13  A    between atoms: C_16  and  C_17
   14  A    between atoms: C_17  and  C_20
   15  A    between atoms: C_21  and  O_32
   16  A    between atoms: N_23  and  C_26
   17  A    between atoms: N_23  and  C_48
   18  A    between atoms: C_25  and  O_37
   19  A    between atoms: O_29  and  C_42
   20  A    between atoms: O_29  and  C_55
   21  A    between atoms: O_32  and  C_33
   22  A    between atoms: C_35  and  O_37
   23  A    between atoms: C_35  and  C_51
   24  A    between atoms: C_42  and  C_51
   25  A    between atoms: C_52  and  O_54
   26  A    between atoms: C_53  and  O_54
                            x       y       z     vdW  Elec       q    Type
                         _______ _______ _______ _____ _____    ______ ____

>  <TORSDO>
F 26

$$$$
=
 OpenBabel11062418053D

 63 67  0  0  1  0  0  0  0  0999 V2000
  188.1540  177.1200  137.1250 C   0  0  2  0  0  3  0  0  0  0  0  0
  187.6990  176.6030  135.8050 C   0  0  0  0  0  3  0  0  0  0  0  0
  185.3330  177.2480  134.9190 C   0  0  0  0  0  3  0  0  0  0  0  0
  186.5160  176.9140  135.3500 C   0  0  0  0  0  0  0  0  0  0  0  0
  184.1540  176.4070  135.2610 C   0  0  0  0  0  2  0  0  0  0  0  0
  183.5220  176.8530  136.9040 S   0  0  0  0  0  0  0  0  0  0  0  0
  182.3330  175.4700  136.9260 C   0  0  2  0  0  3  0  0  0  0  0  0
  181.8840  175.6260  139.2630 O   0  0  0  0  0  1  0  0  0  0  0  0
  181.2570  175.6460  138.0140 C   0  0  2  0  0  0  0  0  0  0  0  0
  180.3160  174.4460  137.9300 C   0  0  0  0  0  1  0  0  0  0  0  0
  180.6020  176.8950  137.8040 O   0  0  0  0  0  0  0  0  0  0  0  0
  180.7240  177.8440  138.8580 C   0  0  0  0  0  3  0  0  0  0  0  0
  179.7530  177.6850  140.0180 C   0  0  0  0  0  1  0  0  0  0  0  0
  180.8430  179.2770  138.3730 C   0  0  0  0  0  1  0  0  0  0  0  0
  183.1030  174.1620  137.0780 C   0  0  0  0  0  2  0  0  0  0  0  0
  183.9840  173.9950  136.0080 O   0  0  0  0  0  0  0  0  0  0  0  0
  185.0500  173.2770  136.5400 C   0  0  0  0  0  2  0  0  0  0  0  0
  185.6660  174.0230  137.5450 O   0  0  0  0  0  1  0  0  0  0  0  0
  188.6550  175.9760  137.9850 C   0  0  0  0  0  2  0  0  0  0  0  0
  190.1370  176.1350  138.2860 C   0  0  0  0  0  2  0  0  0  0  0  0
  190.8300  176.6250  137.1440 O   0  0  0  0  0  0  0  0  0  0  0  0
  192.7290  174.0190  134.7570 S   0  0  0  0  0  0  0  0  0  0  0  0
  193.8090  175.1600  135.6830 C   0  0  1  0  0  3  0  0  0  0  0  0
  191.2420  174.7440  135.5050 C   0  0  0  0  0  2  0  0  0  0  0  0
  192.9740  176.0250  136.4900 N   0  0  0  0  0  0  0  0  0  0  0  0
  191.7050  175.8360  136.4010 C   0  0  0  0  0  0  0  0  0  0  0  0
  196.2980  172.8720  137.2660 N   0  0  0  0  0  2  0  0  0  0  0  0
  195.1040  174.7160  137.9370 C   0  0  0  0  0  0  0  0  0  0  0  0
  195.4720  173.3490  136.2070 C   0  0  0  0  0  0  0  0  0  0  0  0
  194.6520  175.6870  138.5980 O   0  0  0  0  0  0  0  0  0  0  0  0
  197.4020  174.4200  138.7800 C   0  0  0  0  0  1  0  0  0  0  0  0
  195.4250  172.6950  134.8740 C   0  0  0  0  0  1  0  0  0  0  0  0
  194.7600  174.4060  136.5580 C   0  0  0  0  0  0  0  0  0  0  0  0
  196.0990  173.7260  138.4310 C   0  0  2  0  0  3  0  0  0  0  0  0
  187.0840  177.7800  137.7940 O   0  0  0  0  0  0  0  0  0  0  0  0
  188.3520  178.5550  139.5630 O   0  0  0  0  0  0  0  0  0  0  0  0
  187.2160  178.2710  139.1010 C   0  0  0  0  0  0  0  0  0  0  0  0
  185.0370  179.1740  139.3410 O   0  0  0  0  0  1  0  0  0  0  0  0
  186.0160  178.4150  139.9860 C   0  0  2  0  0  3  0  0  0  0  0  0
  186.3830  178.9700  141.3690 C   0  0  2  0  0  3  0  0  0  0  0  0
  187.8220  179.4360  141.3530 C   0  0  0  0  0  1  0  0  0  0  0  0
  186.1790  178.0000  142.5340 C   0  0  0  0  0  2  0  0  0  0  0  0
  185.0530  178.4230  143.4740 C   0  0  2  0  0  3  0  0  0  0  0  0
  184.4320  179.7200  143.0080 C   0  0  0  0  0  1  0  0  0  0  0  0
  185.6050  178.5750  144.8760 C   0  0  0  0  0  2  0  0  0  0  0  0
  186.0590  177.2340  145.4290 C   0  0  0  0  0  2  0  0  0  0  0  0
  187.1730  177.4260  146.4060 C   0  0  0  0  0  0  0  0  0  0  0  0
  188.0530  178.4680  148.4040 C   0  0  0  0  0  3  0  0  0  0  0  0
  189.4780  177.0320  147.0630 C   0  0  0  0  0  0  0  0  0  0  0  0
  186.9970  178.2600  147.5150 C   0  0  0  0  0  3  0  0  0  0  0  0
  188.4150  176.8170  146.1770 C   0  0  0  0  0  3  0  0  0  0  0  0
  189.2850  177.8540  148.1780 C   0  0  0  0  0  3  0  0  0  0  0  0
  190.7560  176.4290  146.8510 N   0  0  0  0  0  2  0  0  0  0  0  0
  189.3430  176.4200  142.3110 C   0  0  0  0  0  1  0  0  0  0  0  0
  192.0640  175.7570  144.8970 C   0  0  0  0  0  2  0  0  0  0  0  0
  192.0340  178.6090  144.0140 C   0  0  0  0  0  2  0  0  0  0  0  0
  190.6580  178.0080  143.7590 C   0  0  1  0  0  0  0  0  0  0  0  0
  190.6690  176.6470  143.0160 C   0  0  1  0  0  0  0  0  0  0  0  0
  191.1680  178.1720  145.1930 C   0  0  1  0  0  3  0  0  0  0  0  0
  191.7170  176.8950  145.8580 C   0  0  1  0  0  3  0  0  0  0  0  0
  190.8870  175.4820  143.9740 C   0  0  0  0  0  2  0  0  0  0  0  0
  191.6730  176.6370  142.0660 F   0  0  0  0  0  0  0  0  0  0  0  0
  189.7390  178.9770  143.3500 O   0  0  0  0  0  1  0  0  0  0  0  0
  1  2  1  6  0  0  0
  1 35  1  0  0  0  0
  1 19  1  0  0  0  0
  3  5  1  0  0  0  0
  3  4  2  0  0  0  0
  4  2  2  0  0  0  0
  5  6  1  0  0  0  0
  6  7  1  0  0  0  0
  7 15  1  1  0  0  0
  7  9  1  0  0  0  0
  9 10  1  6  0  0  0
  9  8  1  0  0  0  0
 11  9  1  0  0  0  0
 11 12  1  0  0  0  0
 12 13  1  0  0  0  0
 14 12  1  0  0  0  0
 16 17  1  0  0  0  0
 16 15  1  0  0  0  0
 17 18  1  0  0  0  0
 19 20  1  0  0  0  0
 21 20  1  0  0  0  0
 22 24  1  0  0  0  0
 22 23  1  0  0  0  0
 23 25  1  0  0  0  0
 23 33  1  1  0  0  0
 24 26  1  0  0  0  0
 26 25  2  0  0  0  0
 26 21  1  0  0  0  0
 27 34  1  0  0  0  0
 28 34  1  0  0  0  0
 28 30  2  0  0  0  0
 29 33  2  0  0  0  0
 29 27  1  0  0  0  0
 32 29  1  0  0  0  0
 33 28  1  0  0  0  0
 34 31  1  6  0  0  0
 35 37  1  0  0  0  0
 37 36  2  0  0  0  0
 37 39  1  0  0  0  0
 39 38  1  6  0  0  0
 39 40  1  0  0  0  0
 40 41  1  6  0  0  0
 40 42  1  0  0  0  0
 42 43  1  0  0  0  0
 43 44  1  6  0  0  0
 43 45  1  0  0  0  0
 45 46  1  0  0  0  0
 46 47  1  0  0  0  0
 47 50  1  0  0  0  0
 49 52  2  0  0  0  0
 50 48  2  0  0  0  0
 51 47  2  0  0  0  0
 51 49  1  0  0  0  0
 52 48  1  0  0  0  0
 53 49  1  0  0  0  0
 55 60  1  0  0  0  0
 57 63  1  6  0  0  0
 57 56  1  0  0  0  0
 57 59  1  0  0  0  0
 58 54  1  6  0  0  0
 58 57  1  0  0  0  0
 58 61  1  0  0  0  0
 59 56  1  6  0  0  0
 59 60  1  0  0  0  0
 60 53  1  1  0  0  0
 61 55  1  0  0  0  0
 62 58  1  0  0  0  0
M  END
>  <MODEL>
8

>  <REMARK>
 VINA RESULT:      -4.9      1.599      2.219
  Name = 
  26 active torsions:
  status: ('A' for Active; 'I' for Inactive)
    1  A    between atoms: C_1  and  C_20
    2  A    between atoms: C_4  and  C_21
    3  A    between atoms: C_4  and  S_22
    4  A    between atoms: C_4  and  C_53
    5  A    between atoms: C_5  and  C_35
    6  A    between atoms: C_6  and  C_16
    7  A    between atoms: C_6  and  C_27
    8  A    between atoms: C_11  and  C_46
    9  A    between atoms: C_12  and  S_22
   10  A    between atoms: C_12  and  C_38
   11  A    between atoms: C_13  and  C_25
   12  A    between atoms: C_13  and  C_27
   13  A    between atoms: C_16  and  C_17
   14  A    between atoms: C_17  and  C_20
   15  A    between atoms: C_21  and  O_32
   16  A    between atoms: N_23  and  C_26
   17  A    between atoms: N_23  and  C_48
   18  A    between atoms: C_25  and  O_37
   19  A    between atoms: O_29  and  C_42
   20  A    between atoms: O_29  and  C_55
   21  A    between atoms: O_32  and  C_33
   22  A    between atoms: C_35  and  O_37
   23  A    between atoms: C_35  and  C_51
   24  A    between atoms: C_42  and  C_51
   25  A    between atoms: C_52  and  O_54
   26  A    between atoms: C_53  and  O_54
                            x       y       z     vdW  Elec       q    Type
                         _______ _______ _______ _____ _____    ______ ____

>  <TORSDO>
F 26

$$$$
=
 OpenBabel11062418053D

 63 67  0  0  1  0  0  0  0  0999 V2000
  188.2760  175.4470  136.9870 C   0  0  2  0  0  3  0  0  0  0  0  0
  188.0540  173.9780  136.8950 C   0  0  0  0  0  3  0  0  0  0  0  0
  187.0110  172.9700  134.7270 C   0  0  0  0  0  3  0  0  0  0  0  0
  187.5300  173.4590  135.8180 C   0  0  0  0  0  0  0  0  0  0  0  0
  185.5340  172.8480  134.5980 C   0  0  0  0  0  2  0  0  0  0  0  0
  184.9870  171.2190  135.1880 S   0  0  0  0  0  0  0  0  0  0  0  0
  183.2660  171.7780  135.4230 C   0  0  2  0  0  3  0  0  0  0  0  0
  183.7060  174.0790  135.8700 O   0  0  0  0  0  1  0  0  0  0  0  0
  183.1630  172.9260  136.4440 C   0  0  2  0  0  0  0  0  0  0  0  0
  184.0170  172.5450  137.6520 C   0  0  0  0  0  1  0  0  0  0  0  0
  181.7880  173.1260  136.7640 O   0  0  0  0  0  0  0  0  0  0  0  0
  181.2620  174.4130  136.4580 C   0  0  0  0  0  3  0  0  0  0  0  0
  180.7750  175.2360  137.6400 C   0  0  0  0  0  1  0  0  0  0  0  0
  180.2890  174.4080  135.2930 C   0  0  0  0  0  1  0  0  0  0  0  0
  182.4090  170.5780  135.8110 C   0  0  0  0  0  2  0  0  0  0  0  0
  181.7270  170.0920  134.6940 O   0  0  0  0  0  0  0  0  0  0  0  0
  180.4070  169.9680  135.1150 C   0  0  0  0  0  2  0  0  0  0  0  0
  180.3330  170.1580  136.4950 O   0  0  0  0  0  1  0  0  0  0  0  0
  189.5380  175.7320  137.7810 C   0  0  0  0  0  2  0  0  0  0  0  0
  190.7310  175.0100  137.1760 C   0  0  0  0  0  2  0  0  0  0  0  0
  191.9430  175.4750  137.7550 O   0  0  0  0  0  0  0  0  0  0  0  0
  194.9210  176.1710  135.1580 S   0  0  0  0  0  0  0  0  0  0  0  0
  195.4000  175.2770  136.6730 C   0  0  1  0  0  3  0  0  0  0  0  0
  193.1890  176.2510  135.6960 C   0  0  0  0  0  2  0  0  0  0  0  0
  194.2200  175.1080  137.4950 N   0  0  0  0  0  0  0  0  0  0  0  0
  193.1260  175.5950  137.0280 C   0  0  0  0  0  0  0  0  0  0  0  0
  197.4490  172.3390  135.6230 N   0  0  0  0  0  0  0  0  0  0  0  0
  195.3950  172.6410  136.6070 C   0  0  0  0  0  0  0  0  0  0  0  0
  197.1700  173.7260  135.7900 C   0  0  0  0  0  0  0  0  0  0  0  0
  194.2850  172.4490  137.1680 O   0  0  0  0  0  0  0  0  0  0  0  0
  196.7740  170.7210  137.3080 C   0  0  0  0  0  1  0  0  0  0  0  0
  198.1150  174.7880  135.3590 C   0  0  0  0  0  1  0  0  0  0  0  0
  195.9900  173.9420  136.3450 C   0  0  2  0  0  3  0  0  0  0  0  0
  196.3190  171.5730  136.1380 C   0  0  2  0  0  3  0  0  0  0  0  0
  187.1680  176.0770  137.6230 O   0  0  0  0  0  0  0  0  0  0  0  0
  186.8960  178.3340  137.2080 O   0  0  0  0  0  0  0  0  0  0  0  0
  186.4890  177.1540  137.0360 C   0  0  0  0  0  0  0  0  0  0  0  0
  185.2180  177.7800  135.1350 O   0  0  0  0  0  1  0  0  0  0  0  0
  185.2400  176.9270  136.2400 C   0  0  2  0  0  3  0  0  0  0  0  0
  183.9770  177.0420  137.1060 C   0  0  2  0  0  3  0  0  0  0  0  0
  182.9230  177.8190  136.3480 C   0  0  0  0  0  1  0  0  0  0  0  0
  184.1860  177.6810  138.4790 C   0  0  0  0  0  2  0  0  0  0  0  0
  183.3830  178.9650  138.6700 C   0  0  2  0  0  3  0  0  0  0  0  0
  184.2920  180.1710  138.6310 C   0  0  0  0  0  1  0  0  0  0  0  0
  182.6470  178.8990  139.9920 C   0  0  0  0  0  2  0  0  0  0  0  0
  183.0970  177.6970  140.8060 C   0  0  0  0  0  2  0  0  0  0  0  0
  183.6800  178.1400  142.1080 C   0  0  0  0  0  0  0  0  0  0  0  0
  183.4660  179.3330  144.2010 C   0  0  0  0  0  3  0  0  0  0  0  0
  185.5860  178.3140  143.6020 C   0  0  0  0  0  0  0  0  0  0  0  0
  182.9060  178.8870  143.0040 C   0  0  0  0  0  3  0  0  0  0  0  0
  185.0210  177.8590  142.4040 C   0  0  0  0  0  3  0  0  0  0  0  0
  184.7990  179.0450  144.4980 C   0  0  0  0  0  3  0  0  0  0  0  0
  186.9520  178.0470  143.9280 N   0  0  0  0  0  2  0  0  0  0  0  0
  191.6230  178.6190  144.6050 C   0  0  0  0  0  1  0  0  0  0  0  0
  188.6890  178.1770  142.2120 C   0  0  0  0  0  2  0  0  0  0  0  0
  189.7290  175.5580  143.1990 C   0  0  0  0  0  2  0  0  0  0  0  0
  190.1170  176.6420  144.1970 C   0  0  1  0  0  0  0  0  0  0  0  0
  190.7750  177.8990  143.5730 C   0  0  1  0  0  0  0  0  0  0  0  0
  188.6430  176.2880  143.9860 C   0  0  1  0  0  3  0  0  0  0  0  0
  187.8440  177.2540  143.0910 C   0  0  1  0  0  3  0  0  0  0  0  0
  189.7330  178.8860  143.0610 C   0  0  0  0  0  2  0  0  0  0  0  0
  191.5920  177.5290  142.5200 F   0  0  0  0  0  0  0  0  0  0  0  0
  190.6900  176.1000  145.3510 O   0  0  0  0  0  1  0  0  0  0  0  0
  1  2  1  1  0  0  0
  1 35  1  0  0  0  0
  1 19  1  0  0  0  0
  3  4  2  0  0  0  0
  4  2  2  0  0  0  0
  5  3  1  0  0  0  0
  5  6  1  0  0  0  0
  6  7  1  0  0  0  0
  7 15  1  1  0  0  0
  7  9  1  0  0  0  0
  8  9  1  0  0  0  0
  9 11  1  0  0  0  0
  9 10  1  1  0  0  0
 12 11  1  0  0  0  0
 12 13  1  0  0  0  0
 14 12  1  0  0  0  0
 16 17  1  0  0  0  0
 16 15  1  0  0  0  0
 17 18  1  0  0  0  0
 20 21  1  0  0  0  0
 20 19  1  0  0  0  0
 22 24  1  0  0  0  0
 23 22  1  6  0  0  0
 23 25  1  0  0  0  0
 24 26  1  0  0  0  0
 26 25  2  0  0  0  0
 26 21  1  0  0  0  0
 27 29  2  0  0  0  0
 27 34  1  0  0  0  0
 28 30  2  0  0  0  0
 32 29  1  0  0  0  0
 33 29  1  1  0  0  0
 33 28  1  0  0  0  0
 33 23  1  0  0  0  0
 34 28  1  0  0  0  0
 34 31  1  1  0  0  0
 37 36  2  0  0  0  0
 37 35  1  0  0  0  0
 39 38  1  6  0  0  0
 39 37  1  0  0  0  0
 39 40  1  0  0  0  0
 40 41  1  6  0  0  0
 40 42  1  0  0  0  0
 42 43  1  0  0  0  0
 43 44  1  1  0  0  0
 43 45  1  0  0  0  0
 45 46  1  0  0  0  0
 46 47  1  0  0  0  0
 47 51  2  0  0  0  0
 47 50  1  0  0  0  0
 48 52  1  0  0  0  0
 49 53  1  0  0  0  0
 49 52  2  0  0  0  0
 50 48  2  0  0  0  0
 51 49  1  0  0  0  0
 55 61  1  0  0  0  0
 55 60  1  0  0  0  0
 56 57  1  0  0  0  0
 57 63  1  1  0  0  0
 58 57  1  0  0  0  0
 58 54  1  1  0  0  0
 59 56  1  6  0  0  0
 59 57  1  0  0  0  0
 60 53  1  1  0  0  0
 60 59  1  0  0  0  0
 61 58  1  0  0  0  0
 62 58  1  0  0  0  0
M  END
>  <MODEL>
9

>  <REMARK>
 VINA RESULT:      -4.7      2.467      4.207
  Name = 
  26 active torsions:
  status: ('A' for Active; 'I' for Inactive)
    1  A    between atoms: C_1  and  C_20
    2  A    between atoms: C_4  and  C_21
    3  A    between atoms: C_4  and  S_22
    4  A    between atoms: C_4  and  C_53
    5  A    between atoms: C_5  and  C_35
    6  A    between atoms: C_6  and  C_16
    7  A    between atoms: C_6  and  C_27
    8  A    between atoms: C_11  and  C_46
    9  A    between atoms: C_12  and  S_22
   10  A    between atoms: C_12  and  C_38
   11  A    between atoms: C_13  and  C_25
   12  A    between atoms: C_13  and  C_27
   13  A    between atoms: C_16  and  C_17
   14  A    between atoms: C_17  and  C_20
   15  A    between atoms: C_21  and  O_32
   16  A    between atoms: N_23  and  C_26
   17  A    between atoms: N_23  and  C_48
   18  A    between atoms: C_25  and  O_37
   19  A    between atoms: O_29  and  C_42
   20  A    between atoms: O_29  and  C_55
   21  A    between atoms: O_32  and  C_33
   22  A    between atoms: C_35  and  O_37
   23  A    between atoms: C_35  and  C_51
   24  A    between atoms: C_42  and  C_51
   25  A    between atoms: C_52  and  O_54
   26  A    between atoms: C_53  and  O_54
                            x       y       z     vdW  Elec       q    Type
                         _______ _______ _______ _____ _____    ______ ____

>  <TORSDO>
F 26

$$$$
