=
 OpenBabel11062414233D

 45 51  0  0  1  0  0  0  0  0999 V2000
  181.3840  176.6940  139.6080 C   0  0  0  0  0  2  0  0  0  0  0  0
  184.3180  178.8230  145.4660 C   0  0  0  0  0  3  0  0  0  0  0  0
  182.4590  178.2790  140.8370 C   0  0  2  0  0  0  0  0  0  0  0  0
  186.0350  179.0110  141.9990 C   0  0  0  0  0  2  0  0  0  0  0  0
  181.2130  179.1730  140.7720 C   0  0  0  0  0  2  0  0  0  0  0  0
  183.7330  179.0320  141.1380 C   0  0  2  0  0  3  0  0  0  0  0  0
  179.1450  177.2900  139.0740 O   0  0  0  0  0  1  0  0  0  0  0  0
  185.5390  178.7640  143.4120 C   0  0  0  0  0  0  0  0  0  0  0  0
  180.4670  177.6770  138.8520 C   0  0  1  0  0  0  0  0  0  0  0  0
  185.5050  177.9860  145.5490 N   0  0  0  0  0  0  0  0  0  0  0  0
  185.1050  178.4380  140.9190 C   0  0  0  0  0  2  0  0  0  0  0  0
  180.6390  179.1200  139.3590 C   0  0  0  0  0  2  0  0  0  0  0  0
  184.2880  179.3630  144.0320 C   0  0  1  0  0  3  0  0  0  0  0  0
  182.9390  178.9740  143.3670 C   0  0  0  0  0  2  0  0  0  0  0  0
  186.1660  178.0130  144.2980 C   0  0  0  0  0  0  0  0  0  0  0  0
  182.6420  177.2690  139.8690 O   0  0  0  0  0  0  0  0  0  0  0  0
  183.1490  178.0650  142.1670 C   0  0  1  0  0  3  0  0  0  0  0  0
  187.4550  177.2960  144.0530 C   0  0  0  0  0  2  0  0  0  0  0  0
  189.6800  177.0280  145.1730 C   0  0  0  0  0  3  0  0  0  0  0  0
  188.0070  178.0360  148.9160 N   0  0  0  0  0  1  0  0  0  0  0  0
  190.4860  177.0470  146.3170 C   0  0  0  0  0  0  0  0  0  0  0  0
  187.7640  177.6690  146.5120 C   0  0  0  0  0  3  0  0  0  0  0  0
  191.8730  176.7430  146.2170 N   0  0  0  0  0  1  0  0  0  0  0  0
  188.5690  177.6900  147.6550 C   0  0  0  0  0  0  0  0  0  0  0  0
  189.9290  177.3820  147.5570 C   0  0  0  0  0  3  0  0  0  0  0  0
  188.3200  177.3440  145.2680 C   0  0  0  0  0  0  0  0  0  0  0  0
  180.7310  177.6250  137.3390 C   0  0  0  0  0  2  0  0  0  0  0  0
  180.2350  175.3820  136.7190 O   0  0  0  0  0  0  0  0  0  0  0  0
  181.1260  176.2640  136.8410 C   0  0  0  0  0  0  0  0  0  0  0  0
  183.6140  176.7310  136.8440 N   0  0  0  0  0  0  0  0  0  0  0  0
  182.9610  174.8610  135.8320 C   0  0  2  0  0  3  0  0  0  0  0  0
  182.1590  173.2980  135.6000 S   0  0  0  0  0  0  0  0  0  0  0  0
  183.3770  171.1420  136.7820 C   0  0  0  0  0  1  0  0  0  0  0  0
  183.3110  172.6520  136.8560 C   0  0  1  0  0  3  0  0  0  0  0  0
  184.9940  173.3720  136.6610 S   0  0  0  0  0  0  0  0  0  0  0  0
  184.4320  174.8850  135.8080 C   0  0  2  0  0  3  0  0  0  0  0  0
  182.5140  175.9340  136.4580 C   0  0  0  0  0  0  0  0  0  0  0  0
  184.8310  176.0880  136.5570 N   0  0  0  0  0  0  0  0  0  0  0  0
  185.5600  176.9560  135.6450 C   0  0  0  0  0  2  0  0  0  0  0  0
  186.8860  177.0880  136.0710 O   0  0  0  0  0  0  0  0  0  0  0  0
  186.8510  178.0900  137.0460 C   0  0  0  0  0  2  0  0  0  0  0  0
  188.5330  178.2590  138.9330 C   0  0  0  0  0  0  0  0  0  0  0  0
  189.0410  177.7310  140.1520 N   0  0  0  0  0  1  0  0  0  0  0  0
  189.0490  179.2990  138.4400 O   0  0  0  0  0  0  0  0  0  0  0  0
  187.4440  177.6040  138.2830 N   0  0  0  0  0  2  0  0  0  0  0  0
  1 16  1  0  0  0  0
  2 10  2  0  0  0  0
  3  5  1  6  0  0  0
  3  6  1  0  0  0  0
  3 17  1  0  0  0  0
  4  8  1  0  0  0  0
  6 11  1  6  0  0  0
  6 17  1  0  0  0  0
  8 13  1  0  0  0  0
  8 15  2  0  0  0  0
  9  7  1  1  0  0  0
  9 12  1  0  0  0  0
  9  1  1  0  0  0  0
 11  4  1  0  0  0  0
 12  5  1  0  0  0  0
 13 14  1  6  0  0  0
 13  2  1  0  0  0  0
 15 10  1  0  0  0  0
 16  3  1  0  0  0  0
 17 14  1  1  0  0  0
 18 15  1  0  0  0  0
 18 26  1  0  0  0  0
 19 26  2  0  0  0  0
 19 21  1  0  0  0  0
 21 25  2  0  0  0  0
 22 24  2  0  0  0  0
 23 21  1  0  0  0  0
 24 20  1  0  0  0  0
 25 24  1  0  0  0  0
 26 22  1  0  0  0  0
 27  9  1  0  0  0  0
 28 29  2  0  0  0  0
 29 27  1  0  0  0  0
 31 32  1  1  0  0  0
 31 37  1  0  0  0  0
 32 34  1  0  0  0  0
 34 33  1  6  0  0  0
 35 34  1  0  0  0  0
 36 31  1  0  0  0  0
 36 38  1  0  0  0  0
 36 35  1  1  0  0  0
 37 29  1  0  0  0  0
 37 30  2  0  0  0  0
 38 30  1  0  0  0  0
 39 40  1  0  0  0  0
 39 38  1  0  0  0  0
 40 41  1  0  0  0  0
 41 45  1  0  0  0  0
 42 43  1  0  0  0  0
 44 42  2  0  0  0  0
 45 42  1  0  0  0  0
M  END
>  <MODEL>
1

>  <REMARK>
 VINA RESULT:      -9.3      0.000      0.000
  Name = 
  9 active torsions:
  status: ('A' for Active; 'I' for Inactive)
    1  A    between atoms: C_7  and  C_36
    2  A    between atoms: C_7  and  C_40
    3  A    between atoms: C_15  and  N_28
    4  A    between atoms: C_15  and  O_43
    5  A    between atoms: C_21  and  O_43
    6  A    between atoms: C_21  and  N_44
    7  A    between atoms: C_24  and  C_39
    8  A    between atoms: C_31  and  C_39
    9  A    between atoms: C_31  and  C_42
                            x       y       z     vdW  Elec       q    Type
                         _______ _______ _______ _____ _____    ______ ____

>  <TORSDO>
F 9

$$$$
=
 OpenBabel11062414233D

 45 51  0  0  1  0  0  0  0  0999 V2000
  182.3550  176.9040  138.8270 C   0  0  0  0  0  2  0  0  0  0  0  0
  184.5590  178.6970  145.1040 C   0  0  0  0  0  3  0  0  0  0  0  0
  183.3350  178.3880  140.2460 C   0  0  2  0  0  0  0  0  0  0  0  0
  186.7500  178.8710  141.9140 C   0  0  0  0  0  2  0  0  0  0  0  0
  182.1640  179.3570  140.0410 C   0  0  0  0  0  2  0  0  0  0  0  0
  184.5950  179.0540  140.7460 C   0  0  2  0  0  3  0  0  0  0  0  0
  180.2500  177.6490  138.0110 O   0  0  0  0  0  1  0  0  0  0  0  0
  186.0490  178.6170  143.2360 C   0  0  0  0  0  0  0  0  0  0  0  0
  181.6100  177.9600  137.9860 C   0  0  1  0  0  0  0  0  0  0  0  0
  185.6740  177.7870  145.3200 N   0  0  0  0  0  0  0  0  0  0  0  0
  185.9490  178.3840  140.6980 C   0  0  0  0  0  2  0  0  0  0  0  0
  181.7900  179.3770  138.5620 C   0  0  0  0  0  2  0  0  0  0  0  0
  184.7600  179.2750  143.6990 C   0  0  1  0  0  3  0  0  0  0  0  0
  183.4970  178.9860  142.8410 C   0  0  0  0  0  2  0  0  0  0  0  0
  186.5030  177.8060  144.1740 C   0  0  0  0  0  0  0  0  0  0  0  0
  183.5940  177.3950  139.2790 O   0  0  0  0  0  0  0  0  0  0  0  0
  183.8200  178.0980  141.6510 C   0  0  1  0  0  3  0  0  0  0  0  0
  187.7710  177.0190  144.0840 C   0  0  0  0  0  2  0  0  0  0  0  0
  187.9290  177.5900  146.5180 C   0  0  0  0  0  3  0  0  0  0  0  0
  192.0470  176.6570  146.5500 N   0  0  0  0  0  1  0  0  0  0  0  0
  188.6690  177.7280  147.6980 C   0  0  0  0  0  0  0  0  0  0  0  0
  189.9220  176.8400  145.3580 C   0  0  0  0  0  3  0  0  0  0  0  0
  188.0310  178.1680  148.8920 N   0  0  0  0  0  1  0  0  0  0  0  0
  190.6610  176.9780  146.5370 C   0  0  0  0  0  0  0  0  0  0  0  0
  190.0340  177.4190  147.7060 C   0  0  0  0  0  3  0  0  0  0  0  0
  188.5530  177.1400  145.3480 C   0  0  0  0  0  0  0  0  0  0  0  0
  182.0790  177.9320  136.5240 C   0  0  0  0  0  2  0  0  0  0  0  0
  182.2600  175.6400  135.9120 O   0  0  0  0  0  0  0  0  0  0  0  0
  182.8750  176.7100  136.1670 C   0  0  0  0  0  0  0  0  0  0  0  0
  185.1390  177.6740  136.7570 N   0  0  0  0  0  0  0  0  0  0  0  0
  185.1430  175.8570  135.4750 C   0  0  2  0  0  3  0  0  0  0  0  0
  184.7810  174.2050  134.9440 S   0  0  0  0  0  0  0  0  0  0  0  0
  186.2020  172.2120  136.1830 C   0  0  0  0  0  1  0  0  0  0  0  0
  185.7800  173.6540  136.3660 C   0  0  1  0  0  3  0  0  0  0  0  0
  187.2590  174.7240  136.6060 S   0  0  0  0  0  0  0  0  0  0  0  0
  186.5450  176.1850  135.7780 C   0  0  2  0  0  3  0  0  0  0  0  0
  184.3480  176.7240  136.0740 C   0  0  0  0  0  0  0  0  0  0  0  0
  186.5030  177.3390  136.6930 N   0  0  0  0  0  0  0  0  0  0  0  0
  187.1790  178.4480  136.0380 C   0  0  0  0  0  2  0  0  0  0  0  0
  187.7850  179.2680  136.9970 O   0  0  0  0  0  0  0  0  0  0  0  0
  188.9970  178.6380  137.2930 C   0  0  0  0  0  2  0  0  0  0  0  0
  189.7000  177.4960  139.4430 C   0  0  0  0  0  0  0  0  0  0  0  0
  189.9140  177.5850  140.8460 N   0  0  0  0  0  1  0  0  0  0  0  0
  189.9360  176.4120  138.8430 O   0  0  0  0  0  0  0  0  0  0  0  0
  189.2210  178.6360  138.7310 N   0  0  0  0  0  2  0  0  0  0  0  0
  1 16  1  0  0  0  0
  2 10  2  0  0  0  0
  3  5  1  6  0  0  0
  3  6  1  0  0  0  0
  3 17  1  0  0  0  0
  4  8  1  0  0  0  0
  6 11  1  6  0  0  0
  6 17  1  0  0  0  0
  8 13  1  0  0  0  0
  8 15  2  0  0  0  0
  9  7  1  1  0  0  0
  9 12  1  0  0  0  0
  9  1  1  0  0  0  0
 11  4  1  0  0  0  0
 12  5  1  0  0  0  0
 13 14  1  6  0  0  0
 13  2  1  0  0  0  0
 15 10  1  0  0  0  0
 16  3  1  0  0  0  0
 17 14  1  1  0  0  0
 18 15  1  0  0  0  0
 18 26  1  0  0  0  0
 19 21  1  0  0  0  0
 21 25  2  0  0  0  0
 21 23  1  0  0  0  0
 22 24  2  0  0  0  0
 24 20  1  0  0  0  0
 24 25  1  0  0  0  0
 26 22  1  0  0  0  0
 26 19  2  0  0  0  0
 27  9  1  0  0  0  0
 28 29  2  0  0  0  0
 29 27  1  0  0  0  0
 31 32  1  1  0  0  0
 31 36  1  0  0  0  0
 31 37  1  0  0  0  0
 32 34  1  0  0  0  0
 34 33  1  6  0  0  0
 34 35  1  0  0  0  0
 36 35  1  1  0  0  0
 36 38  1  0  0  0  0
 37 29  1  0  0  0  0
 37 30  2  0  0  0  0
 38 30  1  0  0  0  0
 39 38  1  0  0  0  0
 39 40  1  0  0  0  0
 40 41  1  0  0  0  0
 41 45  1  0  0  0  0
 42 43  1  0  0  0  0
 44 42  2  0  0  0  0
 45 42  1  0  0  0  0
M  END
>  <MODEL>
2

>  <REMARK>
 VINA RESULT:      -9.3      1.394      2.049
  Name = 
  9 active torsions:
  status: ('A' for Active; 'I' for Inactive)
    1  A    between atoms: C_7  and  C_36
    2  A    between atoms: C_7  and  C_40
    3  A    between atoms: C_15  and  N_28
    4  A    between atoms: C_15  and  O_43
    5  A    between atoms: C_21  and  O_43
    6  A    between atoms: C_21  and  N_44
    7  A    between atoms: C_24  and  C_39
    8  A    between atoms: C_31  and  C_39
    9  A    between atoms: C_31  and  C_42
                            x       y       z     vdW  Elec       q    Type
                         _______ _______ _______ _____ _____    ______ ____

>  <TORSDO>
F 9

$$$$
=
 OpenBabel11062414233D

 45 51  0  0  1  0  0  0  0  0999 V2000
  184.3400  179.0150  142.2690 C   0  0  0  0  0  2  0  0  0  0  0  0
  180.8780  178.9050  136.3140 C   0  0  0  0  0  2  0  0  0  0  0  0
  182.5840  178.3250  140.9980 C   0  0  2  0  0  0  0  0  0  0  0  0
  181.9240  175.7250  138.2620 C   0  0  0  0  0  2  0  0  0  0  0  0
  181.6230  179.1100  141.9000 C   0  0  0  0  0  2  0  0  0  0  0  0
  181.9160  177.2210  140.2130 C   0  0  2  0  0  3  0  0  0  0  0  0
  183.6960  180.4740  144.0320 O   0  0  0  0  0  1  0  0  0  0  0  0
  181.6810  176.8940  137.3240 C   0  0  2  0  0  3  0  0  0  0  0  0
  183.5370  179.1650  143.5770 C   0  0  1  0  0  0  0  0  0  0  0  0
  181.7740  178.1640  135.4400 N   0  0  0  0  0  0  0  0  0  0  0  0
  182.6920  176.1160  139.5340 C   0  0  0  0  0  2  0  0  0  0  0  0
  182.0360  178.9100  143.3550 C   0  0  0  0  0  2  0  0  0  0  0  0
  180.7940  178.0930  137.6100 C   0  0  1  0  0  3  0  0  0  0  0  0
  181.2180  178.9900  138.8050 C   0  0  0  0  0  2  0  0  0  0  0  0
  182.1950  176.9920  136.1120 C   0  0  0  0  0  0  0  0  0  0  0  0
  183.8520  177.9500  141.4900 O   0  0  0  0  0  0  0  0  0  0  0  0
  182.4620  178.4540  139.4940 C   0  0  1  0  0  3  0  0  0  0  0  0
  183.0860  175.9750  135.4740 C   0  0  0  0  0  2  0  0  0  0  0  0
  185.1930  174.8870  136.2840 C   0  0  0  0  0  3  0  0  0  0  0  0
  186.8650  178.6480  137.2270 N   0  0  0  0  0  1  0  0  0  0  0  0
  186.4750  174.9630  136.8390 C   0  0  0  0  0  0  0  0  0  0  0  0
  185.0160  177.3040  136.3620 C   0  0  0  0  0  3  0  0  0  0  0  0
  187.2230  173.7750  137.0710 N   0  0  0  0  0  1  0  0  0  0  0  0
  186.2970  177.3800  136.9150 C   0  0  0  0  0  0  0  0  0  0  0  0
  187.0270  176.2120  137.1510 C   0  0  0  0  0  3  0  0  0  0  0  0
  184.4640  176.0570  136.0400 C   0  0  0  0  0  0  0  0  0  0  0  0
  184.0690  178.2160  144.6620 C   0  0  0  0  0  2  0  0  0  0  0  0
  185.4030  179.6360  146.0280 O   0  0  0  0  0  0  0  0  0  0  0  0
  185.3830  178.6450  145.2500 C   0  0  0  0  0  0  0  0  0  0  0  0
  187.2780  177.9690  143.7140 N   0  0  0  0  0  0  0  0  0  0  0  0
  187.4110  177.2620  145.8190 C   0  0  2  0  0  3  0  0  0  0  0  0
  187.4330  177.3300  147.5900 S   0  0  0  0  0  0  0  0  0  0  0  0
  189.7530  178.2590  148.7230 C   0  0  0  0  0  1  0  0  0  0  0  0
  188.9850  178.2700  147.4180 C   0  0  1  0  0  3  0  0  0  0  0  0
  190.0320  177.6010  146.0600 S   0  0  0  0  0  0  0  0  0  0  0  0
  188.6480  176.8500  145.1360 C   0  0  2  0  0  3  0  0  0  0  0  0
  186.6440  177.9270  144.9760 C   0  0  0  0  0  0  0  0  0  0  0  0
  188.5640  177.4040  143.7740 N   0  0  0  0  0  0  0  0  0  0  0  0
  188.5780  176.2890  142.8410 C   0  0  0  0  0  2  0  0  0  0  0  0
  189.8980  175.9620  142.5100 O   0  0  0  0  0  0  0  0  0  0  0  0
  190.4490  177.1490  142.0200 C   0  0  0  0  0  2  0  0  0  0  0  0
  189.8800  177.6180  139.5950 C   0  0  0  0  0  0  0  0  0  0  0  0
  190.2200  177.4690  138.2220 N   0  0  0  0  0  1  0  0  0  0  0  0
  188.8500  178.2710  139.9170 O   0  0  0  0  0  0  0  0  0  0  0  0
  190.7110  177.0260  140.5930 N   0  0  0  0  0  2  0  0  0  0  0  0
  1  9  1  0  0  0  0
  3 16  1  0  0  0  0
  3  5  1  1  0  0  0
  4 11  1  0  0  0  0
  5 12  1  0  0  0  0
  6 11  1  6  0  0  0
  6  3  1  0  0  0  0
  8 13  1  0  0  0  0
  8  4  1  6  0  0  0
  9  7  1  1  0  0  0
  9 27  1  0  0  0  0
 10 15  2  0  0  0  0
 10  2  1  0  0  0  0
 12  9  1  0  0  0  0
 13  2  1  6  0  0  0
 13 14  1  0  0  0  0
 15  8  1  0  0  0  0
 16  1  1  0  0  0  0
 17 14  1  1  0  0  0
 17  6  1  0  0  0  0
 17  3  1  0  0  0  0
 18 26  1  0  0  0  0
 18 15  1  0  0  0  0
 19 21  1  0  0  0  0
 21 23  1  0  0  0  0
 21 25  2  0  0  0  0
 22 24  2  0  0  0  0
 24 25  1  0  0  0  0
 24 20  1  0  0  0  0
 26 19  2  0  0  0  0
 26 22  1  0  0  0  0
 27 29  1  0  0  0  0
 29 28  2  0  0  0  0
 30 38  1  0  0  0  0
 30 37  2  0  0  0  0
 31 37  1  6  0  0  0
 31 32  1  0  0  0  0
 34 32  1  0  0  0  0
 34 33  1  1  0  0  0
 35 34  1  0  0  0  0
 36 31  1  0  0  0  0
 36 35  1  1  0  0  0
 37 29  1  0  0  0  0
 38 36  1  0  0  0  0
 39 38  1  0  0  0  0
 40 39  1  0  0  0  0
 41 40  1  0  0  0  0
 42 44  2  0  0  0  0
 42 45  1  0  0  0  0
 43 42  1  0  0  0  0
 45 41  1  0  0  0  0
M  END
>  <MODEL>
3

>  <REMARK>
 VINA RESULT:      -8.9      3.529      8.567
  Name = 
  9 active torsions:
  status: ('A' for Active; 'I' for Inactive)
    1  A    between atoms: C_7  and  C_36
    2  A    between atoms: C_7  and  C_40
    3  A    between atoms: C_15  and  N_28
    4  A    between atoms: C_15  and  O_43
    5  A    between atoms: C_21  and  O_43
    6  A    between atoms: C_21  and  N_44
    7  A    between atoms: C_24  and  C_39
    8  A    between atoms: C_31  and  C_39
    9  A    between atoms: C_31  and  C_42
                            x       y       z     vdW  Elec       q    Type
                         _______ _______ _______ _____ _____    ______ ____

>  <TORSDO>
F 9

$$$$
=
 OpenBabel11062414233D

 45 51  0  0  1  0  0  0  0  0999 V2000
  188.2510  177.6910  138.4920 C   0  0  0  0  0  2  0  0  0  0  0  0
  191.7790  179.1100  144.2370 C   0  0  0  0  0  3  0  0  0  0  0  0
  189.8850  177.2040  139.9980 C   0  0  2  0  0  0  0  0  0  0  0  0
  190.1360  175.6800  143.5040 C   0  0  0  0  0  2  0  0  0  0  0  0
  190.9500  177.4340  138.9170 C   0  0  0  0  0  2  0  0  0  0  0  0
  190.3640  176.3540  141.1510 C   0  0  2  0  0  3  0  0  0  0  0  0
  189.1040  178.2870  136.3540 O   0  0  0  0  0  1  0  0  0  0  0  0
  190.6060  177.0450  143.9740 C   0  0  0  0  0  0  0  0  0  0  0  0
  189.0360  177.2210  137.2500 C   0  0  1  0  0  0  0  0  0  0  0  0
  190.7860  178.8990  145.2780 N   0  0  0  0  0  0  0  0  0  0  0  0
  189.4200  175.7190  142.1450 C   0  0  0  0  0  2  0  0  0  0  0  0
  190.4740  176.8030  137.6120 C   0  0  0  0  0  2  0  0  0  0  0  0
  191.6860  177.8870  143.3180 C   0  0  1  0  0  3  0  0  0  0  0  0
  191.4010  178.3580  141.8660 C   0  0  0  0  0  2  0  0  0  0  0  0
  190.1470  177.6570  145.0500 C   0  0  0  0  0  0  0  0  0  0  0  0
  188.5600  176.9060  139.6180 O   0  0  0  0  0  0  0  0  0  0  0  0
  190.0650  177.8380  141.3610 C   0  0  1  0  0  3  0  0  0  0  0  0
  189.1040  177.1070  145.9700 C   0  0  0  0  0  2  0  0  0  0  0  0
  186.7860  177.8730  146.5300 C   0  0  0  0  0  3  0  0  0  0  0  0
  185.8140  178.1870  142.4330 N   0  0  0  0  0  1  0  0  0  0  0  0
  185.5040  178.2820  146.1440 C   0  0  0  0  0  0  0  0  0  0  0  0
  187.4200  177.6650  144.1990 C   0  0  0  0  0  3  0  0  0  0  0  0
  184.5320  178.6070  147.1310 N   0  0  0  0  0  1  0  0  0  0  0  0
  186.1410  178.0740  143.8140 C   0  0  0  0  0  0  0  0  0  0  0  0
  185.1840  178.3840  144.7850 C   0  0  0  0  0  3  0  0  0  0  0  0
  187.7470  177.5690  145.5590 C   0  0  0  0  0  0  0  0  0  0  0  0
  188.3180  176.0560  136.5520 C   0  0  0  0  0  2  0  0  0  0  0  0
  186.6020  177.2230  135.3890 O   0  0  0  0  0  0  0  0  0  0  0  0
  186.8760  176.3350  136.2390 C   0  0  0  0  0  0  0  0  0  0  0  0
  184.4930  176.1500  137.0720 N   0  0  0  0  0  0  0  0  0  0  0  0
  185.7380  174.3120  137.2210 C   0  0  2  0  0  3  0  0  0  0  0  0
  186.8070  172.9920  136.7160 S   0  0  0  0  0  0  0  0  0  0  0  0
  185.6190  170.9640  135.3010 C   0  0  0  0  0  1  0  0  0  0  0  0
  185.4160  172.4120  135.6920 C   0  0  1  0  0  3  0  0  0  0  0  0
  183.8070  172.6160  136.5620 S   0  0  0  0  0  0  0  0  0  0  0  0
  184.3770  173.9600  137.6570 C   0  0  2  0  0  3  0  0  0  0  0  0
  185.7710  175.5830  136.8670 C   0  0  0  0  0  0  0  0  0  0  0  0
  183.5630  175.1720  137.4680 N   0  0  0  0  0  0  0  0  0  0  0  0
  183.0580  175.5750  138.7710 C   0  0  0  0  0  2  0  0  0  0  0  0
  181.9720  176.4420  138.6130 O   0  0  0  0  0  0  0  0  0  0  0  0
  181.9440  177.2010  139.7860 C   0  0  0  0  0  2  0  0  0  0  0  0
  183.4470  179.1700  139.2510 C   0  0  0  0  0  0  0  0  0  0  0  0
  184.6820  179.8430  139.4660 N   0  0  0  0  0  1  0  0  0  0  0  0
  182.5950  179.6650  138.4640 O   0  0  0  0  0  0  0  0  0  0  0  0
  183.1880  177.9420  139.9310 N   0  0  0  0  0  2  0  0  0  0  0  0
  1 16  1  0  0  0  0
  2 10  2  0  0  0  0
  3  5  1  6  0  0  0
  3  6  1  0  0  0  0
  3 17  1  0  0  0  0
  4  8  1  0  0  0  0
  6 17  1  0  0  0  0
  6 11  1  1  0  0  0
  8 15  2  0  0  0  0
  9  7  1  6  0  0  0
  9 12  1  0  0  0  0
  9  1  1  0  0  0  0
 11  4  1  0  0  0  0
 12  5  1  0  0  0  0
 13 14  1  6  0  0  0
 13  8  1  0  0  0  0
 13  2  1  0  0  0  0
 15 10  1  0  0  0  0
 15 18  1  0  0  0  0
 16  3  1  0  0  0  0
 17 14  1  6  0  0  0
 20 24  1  0  0  0  0
 21 19  1  0  0  0  0
 21 23  1  0  0  0  0
 22 26  1  0  0  0  0
 24 22  2  0  0  0  0
 24 25  1  0  0  0  0
 25 21  2  0  0  0  0
 26 18  1  0  0  0  0
 26 19  2  0  0  0  0
 27  9  1  0  0  0  0
 28 29  2  0  0  0  0
 29 27  1  0  0  0  0
 29 37  1  0  0  0  0
 30 38  1  0  0  0  0
 31 32  1  6  0  0  0
 31 36  1  0  0  0  0
 34 33  1  1  0  0  0
 34 35  1  0  0  0  0
 34 32  1  0  0  0  0
 36 35  1  6  0  0  0
 37 30  2  0  0  0  0
 37 31  1  0  0  0  0
 38 36  1  0  0  0  0
 38 39  1  0  0  0  0
 40 39  1  0  0  0  0
 40 41  1  0  0  0  0
 41 45  1  0  0  0  0
 42 43  1  0  0  0  0
 42 45  1  0  0  0  0
 44 42  2  0  0  0  0
M  END
>  <MODEL>
4

>  <REMARK>
 VINA RESULT:      -8.6      2.215      5.890
  Name = 
  9 active torsions:
  status: ('A' for Active; 'I' for Inactive)
    1  A    between atoms: C_7  and  C_36
    2  A    between atoms: C_7  and  C_40
    3  A    between atoms: C_15  and  N_28
    4  A    between atoms: C_15  and  O_43
    5  A    between atoms: C_21  and  O_43
    6  A    between atoms: C_21  and  N_44
    7  A    between atoms: C_24  and  C_39
    8  A    between atoms: C_31  and  C_39
    9  A    between atoms: C_31  and  C_42
                            x       y       z     vdW  Elec       q    Type
                         _______ _______ _______ _____ _____    ______ ____

>  <TORSDO>
F 9

$$$$
=
 OpenBabel11062414233D

 45 51  0  0  1  0  0  0  0  0999 V2000
  181.0650  177.2820  140.3580 C   0  0  0  0  0  2  0  0  0  0  0  0
  184.8710  178.6930  145.9240 C   0  0  0  0  0  3  0  0  0  0  0  0
  182.5290  178.6070  141.4860 C   0  0  2  0  0  0  0  0  0  0  0  0
  186.2700  178.6210  142.3130 C   0  0  0  0  0  2  0  0  0  0  0  0
  181.4780  179.7230  141.5390 C   0  0  0  0  0  2  0  0  0  0  0  0
  183.9460  179.0980  141.6700 C   0  0  2  0  0  3  0  0  0  0  0  0
  178.9420  178.3040  140.0350 O   0  0  0  0  0  1  0  0  0  0  0  0
  185.8660  178.4440  143.7650 C   0  0  0  0  0  0  0  0  0  0  0  0
  180.2880  178.4370  139.6930 C   0  0  1  0  0  0  0  0  0  0  0  0
  185.8780  177.6430  145.8930 N   0  0  0  0  0  0  0  0  0  0  0  0
  185.1540  178.2580  141.3220 C   0  0  0  0  0  2  0  0  0  0  0  0
  180.7790  179.8100  140.1860 C   0  0  0  0  0  2  0  0  0  0  0  0
  184.8150  179.2580  144.5000 C   0  0  1  0  0  3  0  0  0  0  0  0
  183.3620  179.1460  143.9620 C   0  0  0  0  0  2  0  0  0  0  0  0
  186.4160  177.5690  144.5870 C   0  0  0  0  0  0  0  0  0  0  0  0
  182.4270  177.6010  140.5030 O   0  0  0  0  0  0  0  0  0  0  0  0
  183.2840  178.2390  142.7460 C   0  0  1  0  0  3  0  0  0  0  0  0
  187.5160  176.6250  144.2220 C   0  0  0  0  0  2  0  0  0  0  0  0
  189.3840  176.7170  145.8880 C   0  0  0  0  0  3  0  0  0  0  0  0
  191.4170  179.6010  143.5670 N   0  0  0  0  0  1  0  0  0  0  0  0
  190.6080  177.2340  146.3290 C   0  0  0  0  0  0  0  0  0  0  0  0
  189.5040  178.1190  143.9130 C   0  0  0  0  0  3  0  0  0  0  0  0
  191.1770  176.7770  147.5500 N   0  0  0  0  0  1  0  0  0  0  0  0
  190.7270  178.6340  144.3520 C   0  0  0  0  0  0  0  0  0  0  0  0
  191.2800  178.1900  145.5580 C   0  0  0  0  0  3  0  0  0  0  0  0
  188.8330  177.1550  144.6770 C   0  0  0  0  0  0  0  0  0  0  0  0
  180.3990  178.3660  138.1620 C   0  0  0  0  0  2  0  0  0  0  0  0
  181.9250  180.1150  137.6370 O   0  0  0  0  0  0  0  0  0  0  0  0
  181.7070  178.8740  137.6260 C   0  0  0  0  0  0  0  0  0  0  0  0
  184.0170  177.8450  137.7490 N   0  0  0  0  0  0  0  0  0  0  0  0
  182.6860  177.0970  136.1310 C   0  0  2  0  0  3  0  0  0  0  0  0
  181.2450  176.4180  135.3540 S   0  0  0  0  0  0  0  0  0  0  0  0
  180.9020  173.7090  135.6290 C   0  0  0  0  0  1  0  0  0  0  0  0
  181.6250  174.8810  136.2580 C   0  0  1  0  0  3  0  0  0  0  0  0
  183.4370  174.5580  136.3060 S   0  0  0  0  0  0  0  0  0  0  0  0
  183.9250  176.3030  136.0860 C   0  0  2  0  0  3  0  0  0  0  0  0
  182.7590  177.9700  137.1190 C   0  0  0  0  0  0  0  0  0  0  0  0
  184.7450  176.7660  137.2180 N   0  0  0  0  0  0  0  0  0  0  0  0
  185.9770  177.3170  136.6760 C   0  0  0  0  0  2  0  0  0  0  0  0
  187.0450  177.0250  137.5320 O   0  0  0  0  0  0  0  0  0  0  0  0
  187.7570  178.2240  137.6390 C   0  0  0  0  0  2  0  0  0  0  0  0
  189.5190  177.4070  139.2660 C   0  0  0  0  0  0  0  0  0  0  0  0
  190.1550  177.5460  140.5310 N   0  0  0  0  0  1  0  0  0  0  0  0
  189.9060  176.5120  138.4670 O   0  0  0  0  0  0  0  0  0  0  0  0
  188.4470  178.2830  138.9180 N   0  0  0  0  0  2  0  0  0  0  0  0
  1 16  1  0  0  0  0
  3  5  1  1  0  0  0
  3  6  1  0  0  0  0
  3 17  1  0  0  0  0
  4  8  1  0  0  0  0
  6 11  1  6  0  0  0
  6 17  1  0  0  0  0
  8 13  1  0  0  0  0
  8 15  2  0  0  0  0
  9  7  1  1  0  0  0
  9 12  1  0  0  0  0
  9  1  1  0  0  0  0
 10  2  2  0  0  0  0
 11  4  1  0  0  0  0
 12  5  1  0  0  0  0
 13 14  1  6  0  0  0
 13  2  1  0  0  0  0
 15 10  1  0  0  0  0
 16  3  1  0  0  0  0
 17 14  1  1  0  0  0
 18 15  1  0  0  0  0
 18 26  1  0  0  0  0
 19 21  1  0  0  0  0
 20 24  1  0  0  0  0
 21 23  1  0  0  0  0
 22 24  2  0  0  0  0
 22 26  1  0  0  0  0
 24 25  1  0  0  0  0
 25 21  2  0  0  0  0
 26 19  2  0  0  0  0
 27  9  1  0  0  0  0
 29 28  2  0  0  0  0
 29 27  1  0  0  0  0
 31 32  1  1  0  0  0
 31 37  1  0  0  0  0
 32 34  1  0  0  0  0
 34 33  1  6  0  0  0
 34 35  1  0  0  0  0
 36 31  1  0  0  0  0
 36 35  1  1  0  0  0
 36 38  1  0  0  0  0
 37 29  1  0  0  0  0
 37 30  2  0  0  0  0
 38 30  1  0  0  0  0
 39 38  1  0  0  0  0
 39 40  1  0  0  0  0
 40 41  1  0  0  0  0
 41 45  1  0  0  0  0
 42 43  1  0  0  0  0
 44 42  2  0  0  0  0
 45 42  1  0  0  0  0
M  END
>  <MODEL>
5

>  <REMARK>
 VINA RESULT:      -8.3      1.635      2.091
  Name = 
  9 active torsions:
  status: ('A' for Active; 'I' for Inactive)
    1  A    between atoms: C_7  and  C_36
    2  A    between atoms: C_7  and  C_40
    3  A    between atoms: C_15  and  N_28
    4  A    between atoms: C_15  and  O_43
    5  A    between atoms: C_21  and  O_43
    6  A    between atoms: C_21  and  N_44
    7  A    between atoms: C_24  and  C_39
    8  A    between atoms: C_31  and  C_39
    9  A    between atoms: C_31  and  C_42
                            x       y       z     vdW  Elec       q    Type
                         _______ _______ _______ _____ _____    ______ ____

>  <TORSDO>
F 9

$$$$
=
 OpenBabel11062414233D

 45 51  0  0  1  0  0  0  0  0999 V2000
  185.2500  175.5980  137.5870 C   0  0  0  0  0  2  0  0  0  0  0  0
  179.3070  176.4340  140.9690 C   0  0  0  0  0  3  0  0  0  0  0  0
  183.1540  176.4660  137.7460 C   0  0  2  0  0  0  0  0  0  0  0  0
  181.4230  179.3590  139.5660 C   0  0  0  0  0  2  0  0  0  0  0  0
  182.7110  175.6160  136.5480 C   0  0  0  0  0  2  0  0  0  0  0  0
  182.2710  177.6650  138.0000 C   0  0  2  0  0  3  0  0  0  0  0  0
  185.4580  173.9770  135.8600 O   0  0  0  0  0  1  0  0  0  0  0  0
  180.6570  178.3040  140.3440 C   0  0  0  0  0  0  0  0  0  0  0  0
  185.1950  175.3310  136.0690 C   0  0  1  0  0  0  0  0  0  0  0  0
  179.7040  177.2400  142.1130 N   0  0  0  0  0  0  0  0  0  0  0  0
  182.6890  178.8150  138.8870 C   0  0  0  0  0  2  0  0  0  0  0  0
  183.8060  175.6480  135.4870 C   0  0  0  0  0  2  0  0  0  0  0  0
  179.9400  177.1060  139.7460 C   0  0  1  0  0  3  0  0  0  0  0  0
  180.8320  176.0750  139.0000 C   0  0  0  0  0  2  0  0  0  0  0  0
  180.4910  178.3220  141.6530 C   0  0  0  0  0  0  0  0  0  0  0  0
  184.5230  176.7530  137.9290 O   0  0  0  0  0  0  0  0  0  0  0  0
  182.2910  176.5010  138.9890 C   0  0  1  0  0  3  0  0  0  0  0  0
  181.0230  179.3770  142.5700 C   0  0  0  0  0  2  0  0  0  0  0  0
  182.6390  178.9870  144.4430 C   0  0  0  0  0  3  0  0  0  0  0  0
  185.7150  178.0640  141.7010 N   0  0  0  0  0  1  0  0  0  0  0  0
  183.9180  178.6630  144.9090 C   0  0  0  0  0  0  0  0  0  0  0  0
  183.4020  178.7080  142.1590 C   0  0  0  0  0  3  0  0  0  0  0  0
  184.1800  178.6280  146.3080 N   0  0  0  0  0  1  0  0  0  0  0  0
  184.6790  178.3830  142.6240 C   0  0  0  0  0  0  0  0  0  0  0  0
  184.9370  178.3580  143.9980 C   0  0  0  0  0  3  0  0  0  0  0  0
  182.3780  179.0050  143.0680 C   0  0  0  0  0  0  0  0  0  0  0  0
  186.2670  176.1440  135.3270 C   0  0  0  0  0  2  0  0  0  0  0  0
  188.0170  174.6060  134.8450 O   0  0  0  0  0  0  0  0  0  0  0  0
  187.6610  175.6160  135.5090 C   0  0  0  0  0  0  0  0  0  0  0  0
  188.3660  176.4870  137.7790 N   0  0  0  0  0  0  0  0  0  0  0  0
  189.8870  176.6020  136.1600 C   0  0  2  0  0  3  0  0  0  0  0  0
  190.9390  176.0710  134.8350 S   0  0  0  0  0  0  0  0  0  0  0  0
  193.1740  174.6620  135.5740 C   0  0  0  0  0  1  0  0  0  0  0  0
  191.8070  175.0650  136.0840 C   0  0  1  0  0  3  0  0  0  0  0  0
  191.9630  175.9640  137.6830 S   0  0  0  0  0  0  0  0  0  0  0  0
  190.5300  177.0590  137.4020 C   0  0  2  0  0  3  0  0  0  0  0  0
  188.6380  176.2570  136.4120 C   0  0  0  0  0  0  0  0  0  0  0  0
  189.5250  176.8910  138.4650 N   0  0  0  0  0  0  0  0  0  0  0  0
  189.2470  178.2050  139.0230 C   0  0  0  0  0  2  0  0  0  0  0  0
  188.5740  178.0710  140.2420 O   0  0  0  0  0  0  0  0  0  0  0  0
  189.5120  177.5030  141.1090 C   0  0  0  0  0  2  0  0  0  0  0  0
  188.6660  177.1730  143.4750 C   0  0  0  0  0  0  0  0  0  0  0  0
  188.5020  177.7000  144.7860 N   0  0  0  0  0  1  0  0  0  0  0  0
  188.2640  176.0060  143.2170 O   0  0  0  0  0  0  0  0  0  0  0  0
  189.2850  177.9720  142.4680 N   0  0  0  0  0  2  0  0  0  0  0  0
  1 16  1  0  0  0  0
  2 10  2  0  0  0  0
  3  5  1  6  0  0  0
  3 16  1  0  0  0  0
  3  6  1  0  0  0  0
  3 17  1  0  0  0  0
  4  8  1  0  0  0  0
  6 11  1  1  0  0  0
  6 17  1  0  0  0  0
  8 15  2  0  0  0  0
  9  7  1  6  0  0  0
  9  1  1  0  0  0  0
 11  4  1  0  0  0  0
 12  9  1  0  0  0  0
 12  5  1  0  0  0  0
 13 14  1  1  0  0  0
 13  8  1  0  0  0  0
 13  2  1  0  0  0  0
 15 10  1  0  0  0  0
 15 18  1  0  0  0  0
 17 14  1  6  0  0  0
 18 26  1  0  0  0  0
 19 21  1  0  0  0  0
 20 24  1  0  0  0  0
 21 23  1  0  0  0  0
 22 24  2  0  0  0  0
 22 26  1  0  0  0  0
 24 25  1  0  0  0  0
 25 21  2  0  0  0  0
 26 19  2  0  0  0  0
 27 29  1  0  0  0  0
 27  9  1  0  0  0  0
 28 29  2  0  0  0  0
 29 37  1  0  0  0  0
 30 38  1  0  0  0  0
 31 32  1  1  0  0  0
 31 37  1  0  0  0  0
 31 36  1  0  0  0  0
 32 34  1  0  0  0  0
 34 33  1  6  0  0  0
 34 35  1  0  0  0  0
 36 35  1  1  0  0  0
 36 38  1  0  0  0  0
 37 30  2  0  0  0  0
 38 39  1  0  0  0  0
 39 40  1  0  0  0  0
 40 41  1  0  0  0  0
 41 45  1  0  0  0  0
 42 43  1  0  0  0  0
 44 42  2  0  0  0  0
 45 42  1  0  0  0  0
M  END
>  <MODEL>
6

>  <REMARK>
 VINA RESULT:      -8.3      3.041      6.285
  Name = 
  9 active torsions:
  status: ('A' for Active; 'I' for Inactive)
    1  A    between atoms: C_7  and  C_36
    2  A    between atoms: C_7  and  C_40
    3  A    between atoms: C_15  and  N_28
    4  A    between atoms: C_15  and  O_43
    5  A    between atoms: C_21  and  O_43
    6  A    between atoms: C_21  and  N_44
    7  A    between atoms: C_24  and  C_39
    8  A    between atoms: C_31  and  C_39
    9  A    between atoms: C_31  and  C_42
                            x       y       z     vdW  Elec       q    Type
                         _______ _______ _______ _____ _____    ______ ____

>  <TORSDO>
F 9

$$$$
=
 OpenBabel11062414233D

 45 51  0  0  1  0  0  0  0  0999 V2000
  188.0570  178.0770  138.6950 C   0  0  0  0  0  2  0  0  0  0  0  0
  191.9880  178.8840  144.2950 C   0  0  0  0  0  3  0  0  0  0  0  0
  189.7000  177.3610  140.0960 C   0  0  2  0  0  0  0  0  0  0  0  0
  189.9530  175.6780  143.5290 C   0  0  0  0  0  2  0  0  0  0  0  0
  190.7300  177.5200  138.9700 C   0  0  0  0  0  2  0  0  0  0  0  0
  190.1390  176.4190  141.1930 C   0  0  2  0  0  3  0  0  0  0  0  0
  188.8660  178.6660  136.5380 O   0  0  0  0  0  1  0  0  0  0  0  0
  190.5890  176.9660  144.0220 C   0  0  0  0  0  0  0  0  0  0  0  0
  188.7270  177.5770  137.3990 C   0  0  1  0  0  0  0  0  0  0  0  0
  191.0280  178.7360  145.3790 N   0  0  0  0  0  0  0  0  0  0  0  0
  189.1810  175.8470  142.2120 C   0  0  0  0  0  2  0  0  0  0  0  0
  190.1270  176.9970  137.6700 C   0  0  0  0  0  2  0  0  0  0  0  0
  191.7200  177.7150  143.3410 C   0  0  1  0  0  3  0  0  0  0  0  0
  191.4180  178.2720  141.9220 C   0  0  0  0  0  2  0  0  0  0  0  0
  190.2500  177.5790  145.1410 C   0  0  0  0  0  0  0  0  0  0  0  0
  188.3340  177.2190  139.7750 O   0  0  0  0  0  0  0  0  0  0  0  0
  190.0120  177.9160  141.4690 C   0  0  1  0  0  3  0  0  0  0  0  0
  189.1990  177.1060  146.0930 C   0  0  0  0  0  2  0  0  0  0  0  0
  187.5810  177.6930  144.2730 C   0  0  0  0  0  3  0  0  0  0  0  0
  184.5730  178.5400  147.1130 N   0  0  0  0  0  1  0  0  0  0  0  0
  186.3200  178.1260  143.8480 C   0  0  0  0  0  0  0  0  0  0  0  0
  186.8500  177.8300  146.5810 C   0  0  0  0  0  3  0  0  0  0  0  0
  186.0450  178.2650  142.4590 N   0  0  0  0  0  1  0  0  0  0  0  0
  185.5900  178.2610  146.1560 C   0  0  0  0  0  0  0  0  0  0  0  0
  185.3240  178.4060  144.7920 C   0  0  0  0  0  3  0  0  0  0  0  0
  187.8470  177.5390  145.6390 C   0  0  0  0  0  0  0  0  0  0  0  0
  187.8560  176.5240  136.6990 C   0  0  0  0  0  2  0  0  0  0  0  0
  186.3290  177.8030  135.3970 O   0  0  0  0  0  0  0  0  0  0  0  0
  186.4740  177.0070  136.3640 C   0  0  0  0  0  0  0  0  0  0  0  0
  184.3690  177.4680  137.6920 N   0  0  0  0  0  0  0  0  0  0  0  0
  184.8110  175.3330  137.2480 C   0  0  2  0  0  3  0  0  0  0  0  0
  185.1920  173.8830  136.3020 S   0  0  0  0  0  0  0  0  0  0  0  0
  183.1050  172.7870  134.9000 C   0  0  0  0  0  1  0  0  0  0  0  0
  183.5420  174.0800  135.5540 C   0  0  1  0  0  3  0  0  0  0  0  0
  182.2960  174.6170  136.7980 S   0  0  0  0  0  0  0  0  0  0  0  0
  183.5070  175.3810  137.9300 C   0  0  2  0  0  3  0  0  0  0  0  0
  185.2780  176.5600  137.1040 C   0  0  0  0  0  0  0  0  0  0  0  0
  183.2080  176.8090  138.1330 N   0  0  0  0  0  0  0  0  0  0  0  0
  183.1110  177.0410  139.5650 C   0  0  0  0  0  2  0  0  0  0  0  0
  182.9250  178.4050  139.8140 O   0  0  0  0  0  0  0  0  0  0  0  0
  181.5480  178.6100  139.6820 C   0  0  0  0  0  2  0  0  0  0  0  0
  180.3280  178.6100  141.9030 C   0  0  0  0  0  0  0  0  0  0  0  0
  179.6240  177.8750  142.8970 N   0  0  0  0  0  1  0  0  0  0  0  0
  180.4950  179.8520  142.0460 O   0  0  0  0  0  0  0  0  0  0  0  0
  180.8370  177.9310  140.7550 N   0  0  0  0  0  2  0  0  0  0  0  0
  1 16  1  0  0  0  0
  2 10  2  0  0  0  0
  3  5  1  6  0  0  0
  3  6  1  0  0  0  0
  3 17  1  0  0  0  0
  4  8  1  0  0  0  0
  6 17  1  0  0  0  0
  6 11  1  1  0  0  0
  8 15  2  0  0  0  0
  9  7  1  6  0  0  0
  9 12  1  0  0  0  0
  9  1  1  0  0  0  0
 11  4  1  0  0  0  0
 12  5  1  0  0  0  0
 13 14  1  6  0  0  0
 13  8  1  0  0  0  0
 13  2  1  0  0  0  0
 15 10  1  0  0  0  0
 15 18  1  0  0  0  0
 16  3  1  0  0  0  0
 17 14  1  6  0  0  0
 19 26  1  0  0  0  0
 21 19  2  0  0  0  0
 21 25  1  0  0  0  0
 23 21  1  0  0  0  0
 24 22  1  0  0  0  0
 24 20  1  0  0  0  0
 25 24  2  0  0  0  0
 26 18  1  0  0  0  0
 26 22  2  0  0  0  0
 27  9  1  0  0  0  0
 28 29  2  0  0  0  0
 29 27  1  0  0  0  0
 29 37  1  0  0  0  0
 30 38  1  0  0  0  0
 31 32  1  6  0  0  0
 31 36  1  0  0  0  0
 34 33  1  1  0  0  0
 34 32  1  0  0  0  0
 34 35  1  0  0  0  0
 36 35  1  6  0  0  0
 36 38  1  0  0  0  0
 37 31  1  0  0  0  0
 37 30  2  0  0  0  0
 38 39  1  0  0  0  0
 39 40  1  0  0  0  0
 41 40  1  0  0  0  0
 41 45  1  0  0  0  0
 42 44  2  0  0  0  0
 42 43  1  0  0  0  0
 45 42  1  0  0  0  0
M  END
>  <MODEL>
7

>  <REMARK>
 VINA RESULT:      -8.3      2.304      6.048
  Name = 
  9 active torsions:
  status: ('A' for Active; 'I' for Inactive)
    1  A    between atoms: C_7  and  C_36
    2  A    between atoms: C_7  and  C_40
    3  A    between atoms: C_15  and  N_28
    4  A    between atoms: C_15  and  O_43
    5  A    between atoms: C_21  and  O_43
    6  A    between atoms: C_21  and  N_44
    7  A    between atoms: C_24  and  C_39
    8  A    between atoms: C_31  and  C_39
    9  A    between atoms: C_31  and  C_42
                            x       y       z     vdW  Elec       q    Type
                         _______ _______ _______ _____ _____    ______ ____

>  <TORSDO>
F 9

$$$$
=
 OpenBabel11062414233D

 45 51  0  0  1  0  0  0  0  0999 V2000
  187.0510  174.1590  137.2180 C   0  0  0  0  0  2  0  0  0  0  0  0
  180.5170  175.2840  139.0890 C   0  0  0  0  0  3  0  0  0  0  0  0
  184.9030  174.7140  136.7170 C   0  0  2  0  0  0  0  0  0  0  0  0
  182.6320  177.7840  137.0200 C   0  0  0  0  0  2  0  0  0  0  0  0
  184.7680  173.4360  135.8780 C   0  0  0  0  0  2  0  0  0  0  0  0
  183.8970  175.7830  136.3600 C   0  0  2  0  0  3  0  0  0  0  0  0
  187.7160  172.0740  136.2870 O   0  0  0  0  0  1  0  0  0  0  0  0
  181.8140  176.9790  138.0140 C   0  0  0  0  0  0  0  0  0  0  0  0
  187.3130  173.3600  135.9250 C   0  0  1  0  0  0  0  0  0  0  0  0
  180.6210  176.4950  139.8880 N   0  0  0  0  0  0  0  0  0  0  0  0
  184.0440  177.2220  136.7980 C   0  0  0  0  0  2  0  0  0  0  0  0
  186.0430  173.2430  135.0620 C   0  0  0  0  0  2  0  0  0  0  0  0
  181.3220  175.5570  137.8140 C   0  0  1  0  0  3  0  0  0  0  0  0
  182.4190  174.4670  137.6580 C   0  0  0  0  0  2  0  0  0  0  0  0
  181.3960  177.4420  139.1780 C   0  0  0  0  0  0  0  0  0  0  0  0
  186.1840  175.2410  136.9820 O   0  0  0  0  0  0  0  0  0  0  0  0
  183.8140  175.0670  137.7080 C   0  0  1  0  0  3  0  0  0  0  0  0
  181.6550  178.8210  139.6950 C   0  0  0  0  0  2  0  0  0  0  0  0
  182.4400  178.7180  142.0720 C   0  0  0  0  0  3  0  0  0  0  0  0
  186.4680  179.0060  140.8360 N   0  0  0  0  0  1  0  0  0  0  0  0
  183.4660  178.7270  143.0240 C   0  0  0  0  0  0  0  0  0  0  0  0
  184.0850  178.9080  140.3000 C   0  0  0  0  0  3  0  0  0  0  0  0
  183.1530  178.6230  144.4090 N   0  0  0  0  0  1  0  0  0  0  0  0
  185.1090  178.9160  141.2520 C   0  0  0  0  0  0  0  0  0  0  0  0
  184.8000  178.8230  142.6120 C   0  0  0  0  0  3  0  0  0  0  0  0
  182.7490  178.8020  140.7080 C   0  0  0  0  0  0  0  0  0  0  0  0
  188.4420  173.9990  135.1010 C   0  0  0  0  0  2  0  0  0  0  0  0
  190.1810  172.3780  135.0120 O   0  0  0  0  0  0  0  0  0  0  0  0
  189.8110  173.4960  135.4600 C   0  0  0  0  0  0  0  0  0  0  0  0
  190.5220  174.5220  137.6620 N   0  0  0  0  0  0  0  0  0  0  0  0
  191.9320  174.7610  135.9580 C   0  0  2  0  0  3  0  0  0  0  0  0
  192.9710  174.3140  134.5940 S   0  0  0  0  0  0  0  0  0  0  0  0
  195.3940  173.2060  135.2470 C   0  0  0  0  0  1  0  0  0  0  0  0
  194.0170  173.4620  135.8200 C   0  0  1  0  0  3  0  0  0  0  0  0
  194.1460  174.4270  137.3820 S   0  0  0  0  0  0  0  0  0  0  0  0
  192.5790  175.3330  137.1500 C   0  0  2  0  0  3  0  0  0  0  0  0
  190.7490  174.2790  136.2890 C   0  0  0  0  0  0  0  0  0  0  0  0
  191.6580  175.0840  138.2710 N   0  0  0  0  0  0  0  0  0  0  0  0
  191.2520  176.3740  138.8070 C   0  0  0  0  0  2  0  0  0  0  0  0
  190.2720  176.1940  139.7890 O   0  0  0  0  0  0  0  0  0  0  0  0
  189.4880  177.3500  139.7280 C   0  0  0  0  0  2  0  0  0  0  0  0
  188.4560  178.4090  137.6700 C   0  0  0  0  0  0  0  0  0  0  0  0
  187.6050  178.2740  136.5380 N   0  0  0  0  0  1  0  0  0  0  0  0
  189.0550  179.4990  137.8750 O   0  0  0  0  0  0  0  0  0  0  0  0
  188.6200  177.3050  138.5600 N   0  0  0  0  0  2  0  0  0  0  0  0
  2 10  2  0  0  0  0
  3  5  1  6  0  0  0
  3 16  1  0  0  0  0
  3 17  1  0  0  0  0
  4  8  1  0  0  0  0
  6  3  1  0  0  0  0
  6 11  1  1  0  0  0
  6 17  1  0  0  0  0
  8 15  2  0  0  0  0
  9  7  1  1  0  0  0
  9  1  1  0  0  0  0
 11  4  1  0  0  0  0
 12  5  1  0  0  0  0
 12  9  1  0  0  0  0
 13 14  1  1  0  0  0
 13  8  1  0  0  0  0
 13  2  1  0  0  0  0
 15 18  1  0  0  0  0
 15 10  1  0  0  0  0
 16  1  1  0  0  0  0
 17 14  1  6  0  0  0
 18 26  1  0  0  0  0
 19 21  1  0  0  0  0
 20 24  1  0  0  0  0
 21 23  1  0  0  0  0
 22 26  1  0  0  0  0
 22 24  2  0  0  0  0
 24 25  1  0  0  0  0
 25 21  2  0  0  0  0
 26 19  2  0  0  0  0
 27 29  1  0  0  0  0
 27  9  1  0  0  0  0
 28 29  2  0  0  0  0
 29 37  1  0  0  0  0
 30 38  1  0  0  0  0
 31 32  1  1  0  0  0
 31 37  1  0  0  0  0
 31 36  1  0  0  0  0
 32 34  1  0  0  0  0
 34 33  1  6  0  0  0
 34 35  1  0  0  0  0
 36 35  1  1  0  0  0
 36 38  1  0  0  0  0
 37 30  2  0  0  0  0
 38 39  1  0  0  0  0
 39 40  1  0  0  0  0
 41 40  1  0  0  0  0
 42 44  2  0  0  0  0
 42 45  1  0  0  0  0
 43 42  1  0  0  0  0
 45 41  1  0  0  0  0
M  END
>  <MODEL>
8

>  <REMARK>
 VINA RESULT:      -8.2      4.057      7.624
  Name = 
  9 active torsions:
  status: ('A' for Active; 'I' for Inactive)
    1  A    between atoms: C_7  and  C_36
    2  A    between atoms: C_7  and  C_40
    3  A    between atoms: C_15  and  N_28
    4  A    between atoms: C_15  and  O_43
    5  A    between atoms: C_21  and  O_43
    6  A    between atoms: C_21  and  N_44
    7  A    between atoms: C_24  and  C_39
    8  A    between atoms: C_31  and  C_39
    9  A    between atoms: C_31  and  C_42
                            x       y       z     vdW  Elec       q    Type
                         _______ _______ _______ _____ _____    ______ ____

>  <TORSDO>
F 9

$$$$
=
 OpenBabel11062414233D

 45 51  0  0  1  0  0  0  0  0999 V2000
  186.8190  174.6770  137.2190 C   0  0  0  0  0  2  0  0  0  0  0  0
  180.3920  175.4970  139.5600 C   0  0  0  0  0  3  0  0  0  0  0  0
  184.6310  175.2070  136.8900 C   0  0  2  0  0  0  0  0  0  0  0  0
  182.3160  178.1880  137.5450 C   0  0  0  0  0  2  0  0  0  0  0  0
  184.4730  173.9860  135.9740 C   0  0  0  0  0  2  0  0  0  0  0  0
  183.5810  176.2710  136.6710 C   0  0  2  0  0  3  0  0  0  0  0  0
  187.4700  172.6790  136.1050 O   0  0  0  0  0  1  0  0  0  0  0  0
  181.5800  177.2960  138.5290 C   0  0  0  0  0  0  0  0  0  0  0  0
  187.0170  173.9760  135.8590 C   0  0  1  0  0  0  0  0  0  0  0  0
  180.5190  176.6540  140.4340 N   0  0  0  0  0  0  0  0  0  0  0  0
  183.7230  177.6800  137.1980 C   0  0  0  0  0  2  0  0  0  0  0  0
  185.6980  173.8840  135.0700 C   0  0  0  0  0  2  0  0  0  0  0  0
  181.1090  175.8770  138.2600 C   0  0  1  0  0  3  0  0  0  0  0  0
  182.2180  174.8310  137.9630 C   0  0  0  0  0  2  0  0  0  0  0  0
  181.2260  177.6660  139.7450 C   0  0  0  0  0  0  0  0  0  0  0  0
  185.9140  175.7490  137.1120 O   0  0  0  0  0  0  0  0  0  0  0  0
  183.6000  175.4630  137.9680 C   0  0  1  0  0  3  0  0  0  0  0  0
  181.4870  179.0130  140.3400 C   0  0  0  0  0  2  0  0  0  0  0  0
  182.4930  178.9300  142.6320 C   0  0  0  0  0  3  0  0  0  0  0  0
  186.3910  178.9890  141.0080 N   0  0  0  0  0  1  0  0  0  0  0  0
  183.6060  178.9120  143.4820 C   0  0  0  0  0  0  0  0  0  0  0  0
  183.9650  178.9950  140.7070 C   0  0  0  0  0  3  0  0  0  0  0  0
  183.4250  178.8580  144.8920 N   0  0  0  0  0  1  0  0  0  0  0  0
  185.0760  178.9760  141.5550 C   0  0  0  0  0  0  0  0  0  0  0  0
  184.8970  178.9320  142.9410 C   0  0  0  0  0  3  0  0  0  0  0  0
  182.6720  178.9660  141.2440 C   0  0  0  0  0  0  0  0  0  0  0  0
  188.0770  174.6990  135.0150 C   0  0  0  0  0  2  0  0  0  0  0  0
  189.9930  173.3130  134.7480 O   0  0  0  0  0  0  0  0  0  0  0  0
  189.4870  174.3010  135.3440 C   0  0  0  0  0  0  0  0  0  0  0  0
  190.0420  175.0330  137.7030 N   0  0  0  0  0  0  0  0  0  0  0  0
  191.4300  175.7150  136.1040 C   0  0  2  0  0  3  0  0  0  0  0  0
  192.5310  175.6230  134.7170 S   0  0  0  0  0  0  0  0  0  0  0  0
  195.0660  174.7240  135.2590 C   0  0  0  0  0  1  0  0  0  0  0  0
  193.6610  174.7150  135.8230 C   0  0  1  0  0  3  0  0  0  0  0  0
  193.6530  175.4210  137.5230 S   0  0  0  0  0  0  0  0  0  0  0  0
  191.9890  176.1590  137.3910 C   0  0  2  0  0  3  0  0  0  0  0  0
  190.3120  175.0460  136.3160 C   0  0  0  0  0  0  0  0  0  0  0  0
  191.0930  175.6210  138.4290 N   0  0  0  0  0  0  0  0  0  0  0  0
  190.5260  176.7490  139.1520 C   0  0  0  0  0  2  0  0  0  0  0  0
  190.6180  176.5250  140.5300 O   0  0  0  0  0  0  0  0  0  0  0  0
  189.4670  177.1100  141.0660 C   0  0  0  0  0  2  0  0  0  0  0  0
  188.8670  176.8000  143.5090 C   0  0  0  0  0  0  0  0  0  0  0  0
  189.1380  177.1130  144.8700 N   0  0  0  0  0  1  0  0  0  0  0  0
  187.9300  176.0060  143.2240 O   0  0  0  0  0  0  0  0  0  0  0  0
  189.6620  177.3920  142.4800 N   0  0  0  0  0  2  0  0  0  0  0  0
  2 10  2  0  0  0  0
  3  5  1  6  0  0  0
  3 16  1  0  0  0  0
  3 17  1  0  0  0  0
  4  8  1  0  0  0  0
  6  3  1  0  0  0  0
  6 11  1  1  0  0  0
  6 17  1  0  0  0  0
  8 15  2  0  0  0  0
  9  7  1  1  0  0  0
  9  1  1  0  0  0  0
 11  4  1  0  0  0  0
 12  9  1  0  0  0  0
 12  5  1  0  0  0  0
 13 14  1  1  0  0  0
 13  8  1  0  0  0  0
 13  2  1  0  0  0  0
 15 18  1  0  0  0  0
 15 10  1  0  0  0  0
 16  1  1  0  0  0  0
 17 14  1  6  0  0  0
 18 26  1  0  0  0  0
 19 21  1  0  0  0  0
 20 24  1  0  0  0  0
 21 23  1  0  0  0  0
 22 26  1  0  0  0  0
 22 24  2  0  0  0  0
 24 25  1  0  0  0  0
 25 21  2  0  0  0  0
 26 19  2  0  0  0  0
 27 29  1  0  0  0  0
 27  9  1  0  0  0  0
 28 29  2  0  0  0  0
 29 37  1  0  0  0  0
 30 38  1  0  0  0  0
 31 32  1  1  0  0  0
 31 37  1  0  0  0  0
 31 36  1  0  0  0  0
 32 34  1  0  0  0  0
 34 33  1  6  0  0  0
 34 35  1  0  0  0  0
 36 35  1  1  0  0  0
 36 38  1  0  0  0  0
 37 30  2  0  0  0  0
 38 39  1  0  0  0  0
 39 40  1  0  0  0  0
 40 41  1  0  0  0  0
 41 45  1  0  0  0  0
 42 43  1  0  0  0  0
 44 42  2  0  0  0  0
 45 42  1  0  0  0  0
M  END
>  <MODEL>
9

>  <REMARK>
 VINA RESULT:      -8.2      3.649      7.449
  Name = 
  9 active torsions:
  status: ('A' for Active; 'I' for Inactive)
    1  A    between atoms: C_7  and  C_36
    2  A    between atoms: C_7  and  C_40
    3  A    between atoms: C_15  and  N_28
    4  A    between atoms: C_15  and  O_43
    5  A    between atoms: C_21  and  O_43
    6  A    between atoms: C_21  and  N_44
    7  A    between atoms: C_24  and  C_39
    8  A    between atoms: C_31  and  C_39
    9  A    between atoms: C_31  and  C_42
                            x       y       z     vdW  Elec       q    Type
                         _______ _______ _______ _____ _____    ______ ____

>  <TORSDO>
F 9

$$$$
