=
 OpenBabel11062413273D

 30 34  0  0  1  0  0  0  0  0999 V2000
  185.7960  178.5030  140.7470 C   0  0  0  0  0  0  0  0  0  0  0  0
  187.9700  178.2640  139.8160 C   0  0  0  0  0  3  0  0  0  0  0  0
  186.6130  178.4900  139.6340 C   0  0  0  0  0  0  0  0  0  0  0  0
  181.2680  179.4250  142.3110 C   0  0  0  0  0  3  0  0  0  0  0  0
  182.9100  178.5880  143.9290 C   0  0  0  0  0  3  0  0  0  0  0  0
  187.1870  177.2860  144.4840 C   0  0  0  0  0  3  0  0  0  0  0  0
  181.6150  179.0610  143.6140 C   0  0  0  0  0  3  0  0  0  0  0  0
  182.2090  179.2990  141.3050 C   0  0  0  0  0  3  0  0  0  0  0  0
  187.6290  177.9060  142.2100 C   0  0  0  0  0  0  0  0  0  0  0  0
  188.4540  177.9470  141.0640 C   0  0  0  0  0  3  0  0  0  0  0  0
  185.8350  177.5850  144.3330 C   0  0  0  0  0  3  0  0  0  0  0  0
  184.3910  178.7650  140.5530 O   0  0  0  0  0  0  0  0  0  0  0  0
  188.1430  177.5200  143.4590 C   0  0  0  0  0  0  0  0  0  0  0  0
  185.3380  178.1090  143.1220 C   0  0  0  0  0  0  0  0  0  0  0  0
  186.2450  178.2340  142.0330 C   0  0  0  0  0  0  0  0  0  0  0  0
  183.8710  178.4910  142.8810 C   0  0  0  0  0  0  0  0  0  0  0  0
  183.5020  178.8370  141.5920 C   0  0  0  0  0  0  0  0  0  0  0  0
  186.0410  178.6270  138.3710 O   0  0  0  0  0  0  0  0  0  0  0  0
  186.8200  178.9000  137.2620 O   0  0  0  0  0  1  0  0  0  0  0  0
  189.8520  175.8730  143.1670 O   0  0  0  0  0  1  0  0  0  0  0  0
  189.4530  177.0040  143.7450 C   0  0  2  0  0  3  0  0  0  0  0  0
  190.4820  177.5710  144.6970 C   0  0  0  0  0  0  0  0  0  0  0  0
  191.6960  178.1160  144.0500 C   0  0  0  0  0  2  0  0  0  0  0  0
  190.7350  179.1120  144.5850 C   0  0  0  0  0  2  0  0  0  0  0  0
  191.7970  176.3050  146.4220 C   0  0  0  0  0  1  0  0  0  0  0  0
  190.6690  177.2850  146.2240 C   0  0  2  0  0  3  0  0  0  0  0  0
  189.4560  176.7120  146.8990 N   0  0  0  0  0  2  0  0  0  0  0  0
  188.7840  177.4090  148.0610 C   0  0  0  0  0  3  0  0  0  0  0  0
  189.7460  178.4880  148.5600 C   0  0  0  0  0  1  0  0  0  0  0  0
  187.4540  178.0620  147.6980 C   0  0  0  0  0  1  0  0  0  0  0  0
  1 15  1  0  0  0  0
  2 10  2  0  0  0  0
  3  2  1  0  0  0  0
  3  1  2  0  0  0  0
  4  7  1  0  0  0  0
  7  5  2  0  0  0  0
  8 17  1  0  0  0  0
  8  4  2  0  0  0  0
  9 13  1  0  0  0  0
 10  9  1  0  0  0  0
 11  6  1  0  0  0  0
 12  1  1  0  0  0  0
 12 17  1  0  0  0  0
 13 21  1  0  0  0  0
 13  6  2  0  0  0  0
 14 11  2  0  0  0  0
 15  9  2  0  0  0  0
 15 14  1  0  0  0  0
 16 14  1  0  0  0  0
 16  5  1  0  0  0  0
 17 16  2  0  0  0  0
 18  3  1  0  0  0  0
 19 18  1  0  0  0  0
 21 20  1  1  0  0  0
 21 22  1  0  0  0  0
 22 26  1  0  0  0  0
 23 24  1  0  0  0  0
 23 22  1  0  0  0  0
 24 22  1  0  0  0  0
 26 25  1  6  0  0  0
 26 27  1  0  0  0  0
 27 28  1  0  0  0  0
 28 29  1  0  0  0  0
 30 28  1  0  0  0  0
M  END
>  <MODEL>
1

>  <REMARK>
 VINA RESULT:      -8.7      0.000      0.000
  Name = 
  6 active torsions:
  status: ('A' for Active; 'I' for Inactive)
    1  A    between atoms: C_3  and  C_15
    2  A    between atoms: C_3  and  C_29
    3  A    between atoms: C_5  and  O_11
    4  A    between atoms: C_9  and  N_24
    5  A    between atoms: C_15  and  N_24
    6  A    between atoms: C_22  and  C_29
                            x       y       z     vdW  Elec       q    Type
                         _______ _______ _______ _____ _____    ______ ____

>  <TORSDO>
F 6

$$$$
=
 OpenBabel11062413273D

 30 34  0  0  1  0  0  0  0  0999 V2000
  188.4270  177.8420  142.6390 C   0  0  0  0  0  0  0  0  0  0  0  0
  188.4720  177.9420  140.2650 C   0  0  0  0  0  3  0  0  0  0  0  0
  189.1550  177.8210  141.4660 C   0  0  0  0  0  0  0  0  0  0  0  0
  188.7020  177.2170  147.4690 C   0  0  0  0  0  3  0  0  0  0  0  0
  186.5500  177.8910  146.5030 C   0  0  0  0  0  3  0  0  0  0  0  0
  184.3840  178.8610  142.6740 C   0  0  0  0  0  3  0  0  0  0  0  0
  187.3460  177.5230  147.6130 C   0  0  0  0  0  3  0  0  0  0  0  0
  189.2790  177.2980  146.2140 C   0  0  0  0  0  3  0  0  0  0  0  0
  186.3600  178.2660  141.4530 C   0  0  0  0  0  0  0  0  0  0  0  0
  187.1200  178.1920  140.2640 C   0  0  0  0  0  3  0  0  0  0  0  0
  185.0410  178.6660  143.8870 C   0  0  0  0  0  3  0  0  0  0  0  0
  189.1400  177.6880  143.8830 O   0  0  0  0  0  0  0  0  0  0  0  0
  184.9920  178.5830  141.4210 C   0  0  0  0  0  0  0  0  0  0  0  0
  186.3740  178.2100  143.9260 C   0  0  0  0  0  0  0  0  0  0  0  0
  187.0540  178.0440  142.6870 C   0  0  0  0  0  0  0  0  0  0  0  0
  187.1610  177.9430  145.2170 C   0  0  0  0  0  0  0  0  0  0  0  0
  188.5110  177.6560  145.0980 C   0  0  0  0  0  0  0  0  0  0  0  0
  190.5450  177.7570  141.5320 O   0  0  0  0  0  0  0  0  0  0  0  0
  191.2940  177.3880  140.4300 O   0  0  0  0  0  1  0  0  0  0  0  0
  184.5690  180.0850  139.6090 O   0  0  0  0  0  1  0  0  0  0  0  0
  184.2150  178.9930  140.2830 C   0  0  2  0  0  3  0  0  0  0  0  0
  182.9570  178.3520  139.7430 C   0  0  0  0  0  0  0  0  0  0  0  0
  183.1600  177.4790  138.5650 C   0  0  0  0  0  2  0  0  0  0  0  0
  182.8900  176.7910  139.8520 C   0  0  0  0  0  2  0  0  0  0  0  0
  181.0790  179.7630  138.8550 C   0  0  0  0  0  1  0  0  0  0  0  0
  181.4690  178.7910  139.9400 C   0  0  2  0  0  3  0  0  0  0  0  0
  181.1890  179.4570  141.2570 N   0  0  0  0  0  2  0  0  0  0  0  0
  180.1800  178.9000  142.2350 C   0  0  0  0  0  3  0  0  0  0  0  0
  179.6930  177.5630  141.6740 C   0  0  0  0  0  1  0  0  0  0  0  0
  180.7430  178.6730  143.6340 C   0  0  0  0  0  1  0  0  0  0  0  0
  1 15  1  0  0  0  0
  1 12  1  0  0  0  0
  2  3  1  0  0  0  0
  3 18  1  0  0  0  0
  3  1  2  0  0  0  0
  4  7  1  0  0  0  0
  5  7  2  0  0  0  0
  6 11  1  0  0  0  0
  8  4  2  0  0  0  0
  9 15  2  0  0  0  0
 10  2  2  0  0  0  0
 10  9  1  0  0  0  0
 11 14  2  0  0  0  0
 12 17  1  0  0  0  0
 13  9  1  0  0  0  0
 13  6  2  0  0  0  0
 14 16  1  0  0  0  0
 15 14  1  0  0  0  0
 16  5  1  0  0  0  0
 17 16  2  0  0  0  0
 17  8  1  0  0  0  0
 19 18  1  0  0  0  0
 21 20  1  1  0  0  0
 21 13  1  0  0  0  0
 22 24  1  0  0  0  0
 22 26  1  0  0  0  0
 22 21  1  0  0  0  0
 23 22  1  0  0  0  0
 23 24  1  0  0  0  0
 26 25  1  6  0  0  0
 26 27  1  0  0  0  0
 27 28  1  0  0  0  0
 28 30  1  0  0  0  0
 29 28  1  0  0  0  0
M  END
>  <MODEL>
2

>  <REMARK>
 VINA RESULT:      -8.7      2.531      7.225
  Name = 
  6 active torsions:
  status: ('A' for Active; 'I' for Inactive)
    1  A    between atoms: C_3  and  C_15
    2  A    between atoms: C_3  and  C_29
    3  A    between atoms: C_5  and  O_11
    4  A    between atoms: C_9  and  N_24
    5  A    between atoms: C_15  and  N_24
    6  A    between atoms: C_22  and  C_29
                            x       y       z     vdW  Elec       q    Type
                         _______ _______ _______ _____ _____    ______ ____

>  <TORSDO>
F 6

$$$$
=
 OpenBabel11062413273D

 30 34  0  0  1  0  0  0  0  0999 V2000
  186.0580  178.4000  142.1080 C   0  0  0  0  0  0  0  0  0  0  0  0
  184.9270  178.7410  140.0460 C   0  0  0  0  0  3  0  0  0  0  0  0
  186.1170  178.5700  140.7380 C   0  0  0  0  0  0  0  0  0  0  0  0
  188.6950  177.3290  146.0700 C   0  0  0  0  0  3  0  0  0  0  0  0
  186.3230  177.8770  146.3640 C   0  0  0  0  0  3  0  0  0  0  0  0
  182.5190  179.0030  144.2280 C   0  0  0  0  0  3  0  0  0  0  0  0
  187.5750  177.4820  146.8900 C   0  0  0  0  0  3  0  0  0  0  0  0
  188.5780  177.5910  144.7160 C   0  0  0  0  0  3  0  0  0  0  0  0
  183.6610  178.7330  142.1360 C   0  0  0  0  0  0  0  0  0  0  0  0
  183.7410  178.8540  140.7310 C   0  0  0  0  0  3  0  0  0  0  0  0
  183.6940  178.7550  144.9340 C   0  0  0  0  0  3  0  0  0  0  0  0
  187.2960  178.1960  142.8190 O   0  0  0  0  0  0  0  0  0  0  0  0
  182.4430  178.9130  142.8120 C   0  0  0  0  0  0  0  0  0  0  0  0
  184.8900  178.4320  144.2620 C   0  0  0  0  0  0  0  0  0  0  0  0
  184.8800  178.4590  142.8400 C   0  0  0  0  0  0  0  0  0  0  0  0
  186.2200  178.1170  144.9640 C   0  0  0  0  0  0  0  0  0  0  0  0
  187.3470  177.9810  144.1700 C   0  0  0  0  0  0  0  0  0  0  0  0
  187.3610  178.6390  140.1170 O   0  0  0  0  0  0  0  0  0  0  0  0
  187.4700  178.6270  138.7380 O   0  0  0  0  0  1  0  0  0  0  0  0
  180.5310  180.3490  142.8480 O   0  0  0  0  0  1  0  0  0  0  0  0
  181.1920  179.3550  142.2590 C   0  0  2  0  0  3  0  0  0  0  0  0
  180.4590  178.7890  141.0630 C   0  0  0  0  0  0  0  0  0  0  0  0
  180.4660  177.3120  140.9710 C   0  0  0  0  0  2  0  0  0  0  0  0
  179.1860  177.9360  141.3890 C   0  0  0  0  0  2  0  0  0  0  0  0
  180.8890  178.8920  138.5920 C   0  0  0  0  0  1  0  0  0  0  0  0
  180.0870  179.4930  139.7170 C   0  0  2  0  0  3  0  0  0  0  0  0
  180.3380  180.9740  139.7030 N   0  0  0  0  0  2  0  0  0  0  0  0
  179.9860  181.8330  138.5090 C   0  0  0  0  0  3  0  0  0  0  0  0
  178.9550  182.8610  138.9770 C   0  0  0  0  0  1  0  0  0  0  0  0
  181.1800  182.5680  137.9100 C   0  0  0  0  0  1  0  0  0  0  0  0
  1 12  1  0  0  0  0
  1 15  1  0  0  0  0
  2 10  2  0  0  0  0
  2  3  1  0  0  0  0
  3  1  2  0  0  0  0
  4  7  1  0  0  0  0
  5  7  2  0  0  0  0
  6 11  1  0  0  0  0
  8  4  2  0  0  0  0
  9 13  1  0  0  0  0
  9 15  2  0  0  0  0
 10  9  1  0  0  0  0
 12 17  1  0  0  0  0
 13  6  2  0  0  0  0
 14 11  2  0  0  0  0
 14 16  1  0  0  0  0
 15 14  1  0  0  0  0
 16  5  1  0  0  0  0
 17  8  1  0  0  0  0
 17 16  2  0  0  0  0
 18  3  1  0  0  0  0
 19 18  1  0  0  0  0
 21 13  1  0  0  0  0
 21 20  1  1  0  0  0
 22 24  1  0  0  0  0
 22 21  1  0  0  0  0
 23 22  1  0  0  0  0
 23 24  1  0  0  0  0
 26 25  1  6  0  0  0
 26 22  1  0  0  0  0
 27 26  1  0  0  0  0
 28 29  1  0  0  0  0
 28 27  1  0  0  0  0
 30 28  1  0  0  0  0
M  END
>  <MODEL>
3

>  <REMARK>
 VINA RESULT:      -8.6      3.256      8.209
  Name = 
  6 active torsions:
  status: ('A' for Active; 'I' for Inactive)
    1  A    between atoms: C_3  and  C_15
    2  A    between atoms: C_3  and  C_29
    3  A    between atoms: C_5  and  O_11
    4  A    between atoms: C_9  and  N_24
    5  A    between atoms: C_15  and  N_24
    6  A    between atoms: C_22  and  C_29
                            x       y       z     vdW  Elec       q    Type
                         _______ _______ _______ _____ _____    ______ ____

>  <TORSDO>
F 6

$$$$
=
 OpenBabel11062413273D

 30 34  0  0  1  0  0  0  0  0999 V2000
  187.3580  177.9740  143.2450 C   0  0  0  0  0  0  0  0  0  0  0  0
  185.8460  178.7110  141.5660 C   0  0  0  0  0  3  0  0  0  0  0  0
  186.0730  178.3250  142.8790 C   0  0  0  0  0  0  0  0  0  0  0  0
  190.2090  176.8250  147.0340 C   0  0  0  0  0  3  0  0  0  0  0  0
  191.1860  176.7760  144.7840 C   0  0  0  0  0  3  0  0  0  0  0  0
  190.3680  177.4590  140.4070 C   0  0  0  0  0  3  0  0  0  0  0  0
  191.3050  176.6400  146.1870 C   0  0  0  0  0  3  0  0  0  0  0  0
  188.9770  177.1280  146.4810 C   0  0  0  0  0  3  0  0  0  0  0  0
  188.1680  178.2240  140.9790 C   0  0  0  0  0  0  0  0  0  0  0  0
  186.8580  178.6270  140.6380 C   0  0  0  0  0  3  0  0  0  0  0  0
  190.6340  177.1410  141.7370 C   0  0  0  0  0  3  0  0  0  0  0  0
  187.5930  177.6000  144.6180 O   0  0  0  0  0  0  0  0  0  0  0  0
  189.1640  178.0920  139.9970 C   0  0  0  0  0  0  0  0  0  0  0  0
  189.6900  177.4050  142.7500 C   0  0  0  0  0  0  0  0  0  0  0  0
  188.4230  177.9200  142.3560 C   0  0  0  0  0  0  0  0  0  0  0  0
  189.9130  177.1130  144.2400 C   0  0  0  0  0  0  0  0  0  0  0  0
  188.8340  177.2720  145.0940 C   0  0  0  0  0  0  0  0  0  0  0  0
  185.0470  178.2080  143.8130 O   0  0  0  0  0  0  0  0  0  0  0  0
  184.2750  179.3010  144.1630 O   0  0  0  0  0  1  0  0  0  0  0  0
  189.0550  179.3940  137.9940 O   0  0  0  0  0  1  0  0  0  0  0  0
  189.0080  178.1960  138.5720 C   0  0  2  0  0  3  0  0  0  0  0  0
  188.7360  177.0800  137.5880 C   0  0  0  0  0  0  0  0  0  0  0  0
  187.4230  176.4170  137.7460 C   0  0  0  0  0  2  0  0  0  0  0  0
  187.5590  177.3310  136.5860 C   0  0  0  0  0  2  0  0  0  0  0  0
  189.7520  174.8140  137.2190 C   0  0  0  0  0  1  0  0  0  0  0  0
  189.7550  176.2450  136.7460 C   0  0  2  0  0  3  0  0  0  0  0  0
  191.1730  176.7370  136.8240 N   0  0  0  0  0  2  0  0  0  0  0  0
  192.3140  175.8260  137.2140 C   0  0  0  0  0  3  0  0  0  0  0  0
  193.1850  175.6300  135.9730 C   0  0  0  0  0  1  0  0  0  0  0  0
  193.1800  176.3780  138.3420 C   0  0  0  0  0  1  0  0  0  0  0  0
  1 12  1  0  0  0  0
  2  3  2  0  0  0  0
  3  1  1  0  0  0  0
  3 18  1  0  0  0  0
  5  7  1  0  0  0  0
  6 11  1  0  0  0  0
  7  4  2  0  0  0  0
  8  4  1  0  0  0  0
  9 15  1  0  0  0  0
 10  9  2  0  0  0  0
 10  2  1  0  0  0  0
 11 14  2  0  0  0  0
 12 17  1  0  0  0  0
 13  6  2  0  0  0  0
 13  9  1  0  0  0  0
 14 16  1  0  0  0  0
 15 14  1  0  0  0  0
 15  1  2  0  0  0  0
 16  5  2  0  0  0  0
 16 17  1  0  0  0  0
 17  8  2  0  0  0  0
 18 19  1  0  0  0  0
 21 20  1  1  0  0  0
 21 13  1  0  0  0  0
 22 23  1  0  0  0  0
 22 21  1  0  0  0  0
 24 22  1  0  0  0  0
 24 23  1  0  0  0  0
 26 27  1  0  0  0  0
 26 25  1  1  0  0  0
 26 22  1  0  0  0  0
 27 28  1  0  0  0  0
 28 30  1  0  0  0  0
 29 28  1  0  0  0  0
M  END
>  <MODEL>
4

>  <REMARK>
 VINA RESULT:      -8.3      3.415      7.463
  Name = 
  6 active torsions:
  status: ('A' for Active; 'I' for Inactive)
    1  A    between atoms: C_3  and  C_15
    2  A    between atoms: C_3  and  C_29
    3  A    between atoms: C_5  and  O_11
    4  A    between atoms: C_9  and  N_24
    5  A    between atoms: C_15  and  N_24
    6  A    between atoms: C_22  and  C_29
                            x       y       z     vdW  Elec       q    Type
                         _______ _______ _______ _____ _____    ______ ____

>  <TORSDO>
F 6

$$$$
=
 OpenBabel11062413273D

 30 34  0  0  1  0  0  0  0  0999 V2000
  187.1670  178.2710  140.2680 C   0  0  0  0  0  0  0  0  0  0  0  0
  186.7160  178.2530  142.6020 C   0  0  0  0  0  3  0  0  0  0  0  0
  186.3380  178.6160  141.3170 C   0  0  0  0  0  0  0  0  0  0  0  0
  187.5530  178.1790  135.4060 C   0  0  0  0  0  3  0  0  0  0  0  0
  189.4680  177.4240  136.7400 C   0  0  0  0  0  3  0  0  0  0  0  0
  190.9920  176.7490  140.9260 C   0  0  0  0  0  3  0  0  0  0  0  0
  188.8420  177.6460  135.4910 C   0  0  0  0  0  3  0  0  0  0  0  0
  186.8860  178.5140  136.5710 C   0  0  0  0  0  3  0  0  0  0  0  0
  188.8290  177.3510  141.7680 C   0  0  0  0  0  0  0  0  0  0  0  0
  187.9420  177.6700  142.8200 C   0  0  0  0  0  3  0  0  0  0  0  0
  190.5960  177.0360  139.6210 C   0  0  0  0  0  3  0  0  0  0  0  0
  186.7550  178.6270  138.9330 O   0  0  0  0  0  0  0  0  0  0  0  0
  190.0990  176.8100  142.0280 C   0  0  0  0  0  0  0  0  0  0  0  0
  189.2770  177.4430  139.3360 C   0  0  0  0  0  0  0  0  0  0  0  0
  188.3930  177.6390  140.4330 C   0  0  0  0  0  0  0  0  0  0  0  0
  188.7520  177.7520  137.9270 C   0  0  0  0  0  0  0  0  0  0  0  0
  187.4830  178.2990  137.8210 C   0  0  0  0  0  0  0  0  0  0  0  0
  185.1990  179.3760  141.0590 O   0  0  0  0  0  0  0  0  0  0  0  0
  183.9350  178.8620  141.2820 O   0  0  0  0  0  1  0  0  0  0  0  0
  191.1860  175.4290  143.6500 O   0  0  0  0  0  1  0  0  0  0  0  0
  190.7280  176.6310  143.3080 C   0  0  2  0  0  3  0  0  0  0  0  0
  190.9110  177.6610  144.4000 C   0  0  0  0  0  0  0  0  0  0  0  0
  192.0550  178.5790  144.2050 C   0  0  0  0  0  2  0  0  0  0  0  0
  190.7080  179.1520  143.9680 C   0  0  0  0  0  2  0  0  0  0  0  0
  191.2630  176.7530  146.7150 C   0  0  0  0  0  1  0  0  0  0  0  0
  190.3800  177.6370  145.8710 C   0  0  2  0  0  3  0  0  0  0  0  0
  188.9740  177.1280  146.0130 N   0  0  0  0  0  2  0  0  0  0  0  0
  187.9260  177.8860  146.7970 C   0  0  0  0  0  3  0  0  0  0  0  0
  186.5620  177.5030  146.2200 C   0  0  0  0  0  1  0  0  0  0  0  0
  187.9350  177.5770  148.2910 C   0  0  0  0  0  1  0  0  0  0  0  0
  1 15  2  0  0  0  0
  1  3  1  0  0  0  0
  2 10  1  0  0  0  0
  3  2  2  0  0  0  0
  4  7  2  0  0  0  0
  4  8  1  0  0  0  0
  5 16  2  0  0  0  0
  6 13  2  0  0  0  0
  7  5  1  0  0  0  0
  8 17  2  0  0  0  0
  9 13  1  0  0  0  0
  9 10  2  0  0  0  0
 11  6  1  0  0  0  0
 12  1  1  0  0  0  0
 13 21  1  0  0  0  0
 14 11  2  0  0  0  0
 14 15  1  0  0  0  0
 15  9  1  0  0  0  0
 16 14  1  0  0  0  0
 17 16  1  0  0  0  0
 17 12  1  0  0  0  0
 18 19  1  0  0  0  0
 18  3  1  0  0  0  0
 21 20  1  1  0  0  0
 21 22  1  0  0  0  0
 22 26  1  0  0  0  0
 23 22  1  0  0  0  0
 24 23  1  0  0  0  0
 24 22  1  0  0  0  0
 26 27  1  0  0  0  0
 26 25  1  1  0  0  0
 27 28  1  0  0  0  0
 28 30  1  0  0  0  0
 29 28  1  0  0  0  0
M  END
>  <MODEL>
5

>  <REMARK>
 VINA RESULT:      -8.3      2.136      4.598
  Name = 
  6 active torsions:
  status: ('A' for Active; 'I' for Inactive)
    1  A    between atoms: C_3  and  C_15
    2  A    between atoms: C_3  and  C_29
    3  A    between atoms: C_5  and  O_11
    4  A    between atoms: C_9  and  N_24
    5  A    between atoms: C_15  and  N_24
    6  A    between atoms: C_22  and  C_29
                            x       y       z     vdW  Elec       q    Type
                         _______ _______ _______ _____ _____    ______ ____

>  <TORSDO>
F 6

$$$$
=
 OpenBabel11062413273D

 30 34  0  0  1  0  0  0  0  0999 V2000
  189.2370  177.1890  144.7350 C   0  0  0  0  0  0  0  0  0  0  0  0
  191.4210  176.4430  144.1700 C   0  0  0  0  0  3  0  0  0  0  0  0
  190.4850  176.7610  145.1420 C   0  0  0  0  0  0  0  0  0  0  0  0
  184.7490  178.3170  146.2810 C   0  0  0  0  0  3  0  0  0  0  0  0
  185.2610  178.5860  143.8970 C   0  0  0  0  0  3  0  0  0  0  0  0
  188.4480  178.1190  140.7470 C   0  0  0  0  0  3  0  0  0  0  0  0
  184.3540  178.6420  144.9810 C   0  0  0  0  0  3  0  0  0  0  0  0
  186.0640  177.9540  146.5120 C   0  0  0  0  0  3  0  0  0  0  0  0
  189.8860  177.1470  142.4040 C   0  0  0  0  0  0  0  0  0  0  0  0
  191.1380  176.6640  142.8430 C   0  0  0  0  0  3  0  0  0  0  0  0
  187.4680  178.3710  141.7050 C   0  0  0  0  0  3  0  0  0  0  0  0
  188.2590  177.4920  145.7510 O   0  0  0  0  0  0  0  0  0  0  0  0
  189.6480  177.4200  141.0460 C   0  0  0  0  0  0  0  0  0  0  0  0
  187.6420  177.9700  143.0450 C   0  0  0  0  0  0  0  0  0  0  0  0
  188.8880  177.3830  143.4050 C   0  0  0  0  0  0  0  0  0  0  0  0
  186.6030  178.1850  144.1550 C   0  0  0  0  0  0  0  0  0  0  0  0
  186.9820  177.8870  145.4540 C   0  0  0  0  0  0  0  0  0  0  0  0
  190.7820  176.7380  146.5030 O   0  0  0  0  0  0  0  0  0  0  0  0
  192.0620  176.4630  146.9480 O   0  0  0  0  0  1  0  0  0  0  0  0
  191.8360  177.8440  140.1770 O   0  0  0  0  0  1  0  0  0  0  0  0
  190.6000  177.3940  139.9690 C   0  0  2  0  0  3  0  0  0  0  0  0
  190.3700  176.9470  138.5430 C   0  0  0  0  0  0  0  0  0  0  0  0
  191.5760  176.4460  137.8460 C   0  0  0  0  0  2  0  0  0  0  0  0
  190.5870  175.4220  138.2660 C   0  0  0  0  0  2  0  0  0  0  0  0
  189.0600  178.8280  137.5170 C   0  0  0  0  0  1  0  0  0  0  0  0
  189.2060  177.3290  137.5710 C   0  0  2  0  0  3  0  0  0  0  0  0
  187.8680  176.7640  137.9560 N   0  0  0  0  0  2  0  0  0  0  0  0
  187.0160  175.9890  136.9750 C   0  0  0  0  0  3  0  0  0  0  0  0
  185.9120  176.9300  136.4910 C   0  0  0  0  0  1  0  0  0  0  0  0
  187.7900  175.4730  135.7660 C   0  0  0  0  0  1  0  0  0  0  0  0
  1  3  1  0  0  0  0
  1 12  1  0  0  0  0
  2  3  2  0  0  0  0
  3 18  1  0  0  0  0
  4  8  1  0  0  0  0
  5 16  2  0  0  0  0
  5  7  1  0  0  0  0
  6 13  2  0  0  0  0
  6 11  1  0  0  0  0
  7  4  2  0  0  0  0
  9 10  2  0  0  0  0
  9 15  1  0  0  0  0
 10  2  1  0  0  0  0
 11 14  2  0  0  0  0
 13  9  1  0  0  0  0
 14 15  1  0  0  0  0
 14 16  1  0  0  0  0
 15  1  2  0  0  0  0
 16 17  1  0  0  0  0
 17 12  1  0  0  0  0
 17  8  2  0  0  0  0
 18 19  1  0  0  0  0
 21 20  1  6  0  0  0
 21 13  1  0  0  0  0
 22 21  1  0  0  0  0
 23 24  1  0  0  0  0
 23 22  1  0  0  0  0
 24 22  1  0  0  0  0
 26 25  1  1  0  0  0
 26 27  1  0  0  0  0
 26 22  1  0  0  0  0
 28 27  1  0  0  0  0
 29 28  1  0  0  0  0
 30 28  1  0  0  0  0
M  END
>  <MODEL>
6

>  <REMARK>
 VINA RESULT:      -8.3      3.304      6.893
  Name = 
  6 active torsions:
  status: ('A' for Active; 'I' for Inactive)
    1  A    between atoms: C_3  and  C_15
    2  A    between atoms: C_3  and  C_29
    3  A    between atoms: C_5  and  O_11
    4  A    between atoms: C_9  and  N_24
    5  A    between atoms: C_15  and  N_24
    6  A    between atoms: C_22  and  C_29
                            x       y       z     vdW  Elec       q    Type
                         _______ _______ _______ _____ _____    ______ ____

>  <TORSDO>
F 6

$$$$
=
 OpenBabel11062413273D

 30 34  0  0  1  0  0  0  0  0999 V2000
  185.8830  178.3590  144.4030 C   0  0  0  0  0  0  0  0  0  0  0  0
  183.6340  179.0890  144.1720 C   0  0  0  0  0  3  0  0  0  0  0  0
  184.6510  178.6000  144.9780 C   0  0  0  0  0  0  0  0  0  0  0  0
  190.5150  177.1550  145.3500 C   0  0  0  0  0  3  0  0  0  0  0  0
  189.8430  177.4430  143.0090 C   0  0  0  0  0  3  0  0  0  0  0  0
  186.4170  178.4710  140.2690 C   0  0  0  0  0  3  0  0  0  0  0  0
  190.8290  177.1790  143.9890 C   0  0  0  0  0  3  0  0  0  0  0  0
  189.2070  177.3740  145.7430 C   0  0  0  0  0  3  0  0  0  0  0  0
  185.0650  178.9250  142.1970 C   0  0  0  0  0  0  0  0  0  0  0  0
  183.8280  179.2130  142.8160 C   0  0  0  0  0  3  0  0  0  0  0  0
  187.4740  178.0510  141.0740 C   0  0  0  0  0  3  0  0  0  0  0  0
  186.9450  177.8760  145.2520 O   0  0  0  0  0  0  0  0  0  0  0  0
  185.2130  179.0040  140.8020 C   0  0  0  0  0  0  0  0  0  0  0  0
  187.3820  178.1050  142.4800 C   0  0  0  0  0  0  0  0  0  0  0  0
  186.1420  178.5130  143.0470 C   0  0  0  0  0  0  0  0  0  0  0  0
  188.5070  177.6900  143.4380 C   0  0  0  0  0  0  0  0  0  0  0  0
  188.2120  177.6410  144.7910 C   0  0  0  0  0  0  0  0  0  0  0  0
  184.4540  178.2760  146.3180 O   0  0  0  0  0  0  0  0  0  0  0  0
  185.0810  178.9900  147.3230 O   0  0  0  0  0  1  0  0  0  0  0  0
  184.1830  180.3710  139.1320 O   0  0  0  0  0  1  0  0  0  0  0  0
  184.1850  179.2340  139.8240 C   0  0  2  0  0  3  0  0  0  0  0  0
  183.0160  178.3370  139.4850 C   0  0  0  0  0  0  0  0  0  0  0  0
  183.3580  177.1490  138.6710 C   0  0  0  0  0  2  0  0  0  0  0  0
  183.0600  176.9000  140.1030 C   0  0  0  0  0  2  0  0  0  0  0  0
  181.0950  179.1950  138.1140 C   0  0  0  0  0  1  0  0  0  0  0  0
  181.4900  178.6780  139.4740 C   0  0  2  0  0  3  0  0  0  0  0  0
  181.0790  179.7140  140.4810 N   0  0  0  0  0  2  0  0  0  0  0  0
  179.9160  179.4960  141.4220 C   0  0  0  0  0  3  0  0  0  0  0  0
  179.6030  177.9990  141.4190 C   0  0  0  0  0  1  0  0  0  0  0  0
  180.1950  179.9390  142.8550 C   0  0  0  0  0  1  0  0  0  0  0  0
  1  3  1  0  0  0  0
  1 12  1  0  0  0  0
  2  3  2  0  0  0  0
  3 18  1  0  0  0  0
  4  8  1  0  0  0  0
  5 16  2  0  0  0  0
  5  7  1  0  0  0  0
  6 13  2  0  0  0  0
  6 11  1  0  0  0  0
  7  4  2  0  0  0  0
  9 10  2  0  0  0  0
  9 15  1  0  0  0  0
 10  2  1  0  0  0  0
 11 14  2  0  0  0  0
 13  9  1  0  0  0  0
 14 15  1  0  0  0  0
 14 16  1  0  0  0  0
 15  1  2  0  0  0  0
 16 17  1  0  0  0  0
 17 12  1  0  0  0  0
 17  8  2  0  0  0  0
 18 19  1  0  0  0  0
 21 20  1  1  0  0  0
 21 13  1  0  0  0  0
 22 21  1  0  0  0  0
 22 24  1  0  0  0  0
 23 22  1  0  0  0  0
 23 24  1  0  0  0  0
 26 25  1  6  0  0  0
 26 22  1  0  0  0  0
 26 27  1  0  0  0  0
 27 28  1  0  0  0  0
 28 30  1  0  0  0  0
 29 28  1  0  0  0  0
M  END
>  <MODEL>
7

>  <REMARK>
 VINA RESULT:      -8.3      3.103      8.021
  Name = 
  6 active torsions:
  status: ('A' for Active; 'I' for Inactive)
    1  A    between atoms: C_3  and  C_15
    2  A    between atoms: C_3  and  C_29
    3  A    between atoms: C_5  and  O_11
    4  A    between atoms: C_9  and  N_24
    5  A    between atoms: C_15  and  N_24
    6  A    between atoms: C_22  and  C_29
                            x       y       z     vdW  Elec       q    Type
                         _______ _______ _______ _____ _____    ______ ____

>  <TORSDO>
F 6

$$$$
=
 OpenBabel11062413273D

 30 34  0  0  1  0  0  0  0  0999 V2000
  188.7580  177.4080  143.5610 C   0  0  0  0  0  0  0  0  0  0  0  0
  190.6580  176.8100  142.2650 C   0  0  0  0  0  3  0  0  0  0  0  0
  190.0750  176.9960  143.5100 C   0  0  0  0  0  0  0  0  0  0  0  0
  184.9820  178.2000  146.5470 C   0  0  0  0  0  3  0  0  0  0  0  0
  184.7100  178.7140  144.1640 C   0  0  0  0  0  3  0  0  0  0  0  0
  186.7390  178.6790  140.1410 C   0  0  0  0  0  3  0  0  0  0  0  0
  184.1920  178.6300  145.4770 C   0  0  0  0  0  3  0  0  0  0  0  0
  186.3060  177.8700  146.3140 C   0  0  0  0  0  3  0  0  0  0  0  0
  188.6360  177.6150  141.1530 C   0  0  0  0  0  0  0  0  0  0  0  0
  189.9680  177.1440  141.1240 C   0  0  0  0  0  3  0  0  0  0  0  0
  186.1110  178.8000  141.3790 C   0  0  0  0  0  3  0  0  0  0  0  0
  188.1500  177.5740  144.8580 O   0  0  0  0  0  0  0  0  0  0  0  0
  187.9790  178.0050  139.9740 C   0  0  0  0  0  0  0  0  0  0  0  0
  186.7040  178.2800  142.5480 C   0  0  0  0  0  0  0  0  0  0  0  0
  188.0040  177.7140  142.4360 C   0  0  0  0  0  0  0  0  0  0  0  0
  186.0680  178.3460  143.9440 C   0  0  0  0  0  0  0  0  0  0  0  0
  186.8410  177.9420  145.0200 C   0  0  0  0  0  0  0  0  0  0  0  0
  190.7880  176.8550  144.6980 O   0  0  0  0  0  0  0  0  0  0  0  0
  191.6740  177.8310  145.1170 O   0  0  0  0  0  1  0  0  0  0  0  0
  189.0590  179.2830  138.2660 O   0  0  0  0  0  1  0  0  0  0  0  0
  188.5400  178.1210  138.6560 C   0  0  2  0  0  3  0  0  0  0  0  0
  188.5870  177.0650  137.5750 C   0  0  0  0  0  0  0  0  0  0  0  0
  189.9440  176.7300  137.0900 C   0  0  0  0  0  2  0  0  0  0  0  0
  189.2950  175.7240  137.9660 C   0  0  0  0  0  2  0  0  0  0  0  0
  187.2490  177.6400  135.5300 C   0  0  0  0  0  1  0  0  0  0  0  0
  187.4500  176.6030  136.6050 C   0  0  2  0  0  3  0  0  0  0  0  0
  186.1200  176.3850  137.2690 N   0  0  0  0  0  2  0  0  0  0  0  0
  184.8770  177.1240  136.8290 C   0  0  0  0  0  3  0  0  0  0  0  0
  184.0140  176.1360  136.0430 C   0  0  0  0  0  1  0  0  0  0  0  0
  184.0560  177.6840  137.9860 C   0  0  0  0  0  1  0  0  0  0  0  0
  1 12  1  0  0  0  0
  2  3  2  0  0  0  0
  3  1  1  0  0  0  0
  3 18  1  0  0  0  0
  5  7  1  0  0  0  0
  6 11  1  0  0  0  0
  7  4  2  0  0  0  0
  8  4  1  0  0  0  0
  9 15  1  0  0  0  0
 10  9  2  0  0  0  0
 10  2  1  0  0  0  0
 11 14  2  0  0  0  0
 12 17  1  0  0  0  0
 13  6  2  0  0  0  0
 13  9  1  0  0  0  0
 14 16  1  0  0  0  0
 15 14  1  0  0  0  0
 15  1  2  0  0  0  0
 16  5  2  0  0  0  0
 16 17  1  0  0  0  0
 17  8  2  0  0  0  0
 18 19  1  0  0  0  0
 21 20  1  6  0  0  0
 21 13  1  0  0  0  0
 22 24  1  0  0  0  0
 22 21  1  0  0  0  0
 23 22  1  0  0  0  0
 23 24  1  0  0  0  0
 26 25  1  6  0  0  0
 26 27  1  0  0  0  0
 26 22  1  0  0  0  0
 28 27  1  0  0  0  0
 28 30  1  0  0  0  0
 29 28  1  0  0  0  0
M  END
>  <MODEL>
8

>  <REMARK>
 VINA RESULT:      -8.2      3.017      6.939
  Name = 
  6 active torsions:
  status: ('A' for Active; 'I' for Inactive)
    1  A    between atoms: C_3  and  C_15
    2  A    between atoms: C_3  and  C_29
    3  A    between atoms: C_5  and  O_11
    4  A    between atoms: C_9  and  N_24
    5  A    between atoms: C_15  and  N_24
    6  A    between atoms: C_22  and  C_29
                            x       y       z     vdW  Elec       q    Type
                         _______ _______ _______ _____ _____    ______ ____

>  <TORSDO>
F 6

$$$$
=
 OpenBabel11062413273D

 30 34  0  0  1  0  0  0  0  0999 V2000
  187.3630  177.9300  143.1950 C   0  0  0  0  0  0  0  0  0  0  0  0
  185.7750  178.6660  141.5870 C   0  0  0  0  0  3  0  0  0  0  0  0
  186.0580  178.2570  142.8820 C   0  0  0  0  0  0  0  0  0  0  0  0
  190.3740  176.7690  146.8540 C   0  0  0  0  0  3  0  0  0  0  0  0
  191.2710  176.7930  144.5710 C   0  0  0  0  0  3  0  0  0  0  0  0
  190.2810  177.5510  140.2410 C   0  0  0  0  0  3  0  0  0  0  0  0
  191.4440  176.6290  145.9650 C   0  0  0  0  0  3  0  0  0  0  0  0
  189.1170  177.0540  146.3520 C   0  0  0  0  0  3  0  0  0  0  0  0
  188.0860  178.2500  140.9070 C   0  0  0  0  0  0  0  0  0  0  0  0
  186.7550  178.6280  140.6230 C   0  0  0  0  0  3  0  0  0  0  0  0
  190.6020  177.2110  141.5540 C   0  0  0  0  0  3  0  0  0  0  0  0
  187.6560  177.5320  144.5500 O   0  0  0  0  0  0  0  0  0  0  0  0
  189.0490  178.1630  139.8880 C   0  0  0  0  0  0  0  0  0  0  0  0
  189.6890  177.4300  142.6050 C   0  0  0  0  0  0  0  0  0  0  0  0
  188.3970  177.9210  142.2670 C   0  0  0  0  0  0  0  0  0  0  0  0
  189.9720  177.1100  144.0790 C   0  0  0  0  0  0  0  0  0  0  0  0
  188.9210  177.2240  144.9740 C   0  0  0  0  0  0  0  0  0  0  0  0
  185.0690  178.0950  143.8490 O   0  0  0  0  0  0  0  0  0  0  0  0
  184.6880  179.1470  144.6620 O   0  0  0  0  0  1  0  0  0  0  0  0
  189.0540  179.4690  137.8850 O   0  0  0  0  0  1  0  0  0  0  0  0
  188.8390  178.2940  138.4730 C   0  0  2  0  0  3  0  0  0  0  0  0
  188.3360  177.2410  137.5110 C   0  0  0  0  0  0  0  0  0  0  0  0
  189.3870  176.3710  136.9370 C   0  0  0  0  0  2  0  0  0  0  0  0
  188.5210  175.7560  137.9730 C   0  0  0  0  0  2  0  0  0  0  0  0
  187.1810  177.8820  135.3760 C   0  0  0  0  0  1  0  0  0  0  0  0
  186.9940  177.2050  136.7090 C   0  0  2  0  0  3  0  0  0  0  0  0
  185.8440  177.8840  137.3970 N   0  0  0  0  0  2  0  0  0  0  0  0
  184.4590  177.2770  137.4230 C   0  0  0  0  0  3  0  0  0  0  0  0
  184.6180  175.7700  137.2180 C   0  0  0  0  0  1  0  0  0  0  0  0
  183.7080  177.5210  138.7280 C   0  0  0  0  0  1  0  0  0  0  0  0
  1 12  1  0  0  0  0
  2  3  2  0  0  0  0
  3  1  1  0  0  0  0
  3 18  1  0  0  0  0
  5  7  1  0  0  0  0
  6 11  1  0  0  0  0
  7  4  2  0  0  0  0
  8  4  1  0  0  0  0
  9 15  1  0  0  0  0
 10  9  2  0  0  0  0
 10  2  1  0  0  0  0
 11 14  2  0  0  0  0
 12 17  1  0  0  0  0
 13  6  2  0  0  0  0
 13  9  1  0  0  0  0
 14 16  1  0  0  0  0
 15 14  1  0  0  0  0
 15  1  2  0  0  0  0
 16  5  2  0  0  0  0
 16 17  1  0  0  0  0
 17  8  2  0  0  0  0
 18 19  1  0  0  0  0
 21 20  1  1  0  0  0
 21 13  1  0  0  0  0
 22 24  1  0  0  0  0
 22 21  1  0  0  0  0
 23 22  1  0  0  0  0
 23 24  1  0  0  0  0
 26 25  1  6  0  0  0
 26 27  1  0  0  0  0
 26 22  1  0  0  0  0
 27 28  1  0  0  0  0
 28 30  1  0  0  0  0
 29 28  1  0  0  0  0
M  END
>  <MODEL>
9

>  <REMARK>
 VINA RESULT:      -8.1      3.010      7.513
  Name = 
  6 active torsions:
  status: ('A' for Active; 'I' for Inactive)
    1  A    between atoms: C_3  and  C_15
    2  A    between atoms: C_3  and  C_29
    3  A    between atoms: C_5  and  O_11
    4  A    between atoms: C_9  and  N_24
    5  A    between atoms: C_15  and  N_24
    6  A    between atoms: C_22  and  C_29
                            x       y       z     vdW  Elec       q    Type
                         _______ _______ _______ _____ _____    ______ ____

>  <TORSDO>
F 6

$$$$
