=
 OpenBabel11062416123D

 67 73  0  0  1  0  0  0  0  0999 V2000
  186.3490  177.6370  135.2390 C   0  0  0  0  0  0  0  0  0  0  0  0
  185.0720  177.7650  134.7120 C   0  0  0  0  0  3  0  0  0  0  0  0
  184.8890  176.8740  136.6900 N   0  0  0  0  0  0  0  0  0  0  0  0
  186.2030  177.0400  136.4630 C   0  0  0  0  0  3  0  0  0  0  0  0
  184.2040  177.2930  135.6330 N   0  0  0  0  0  0  0  0  0  0  0  0
  180.5500  176.6140  136.4210 C   0  0  0  0  0  2  0  0  0  0  0  0
  184.4090  178.2030  139.0890 O   0  0  0  0  0  0  0  0  0  0  0  0
  182.0720  178.5730  139.2940 C   0  0  1  0  0  0  0  0  0  0  0  0
  180.5300  174.2130  136.3870 O   0  0  0  0  0  1  0  0  0  0  0  0
  182.2530  177.1590  139.0280 C   0  0  2  0  0  3  0  0  0  0  0  0
  179.9010  178.9340  136.8560 C   0  0  0  0  0  1  0  0  0  0  0  0
  183.4660  179.1020  139.6330 C   0  0  1  0  0  3  0  0  0  0  0  0
  181.2300  175.3240  136.8720 C   0  0  1  0  0  3  0  0  0  0  0  0
  183.3930  174.9450  137.3940 C   0  0  1  0  0  3  0  0  0  0  0  0
  184.2900  176.1210  137.8170 C   0  0  2  0  0  3  0  0  0  0  0  0
  180.5770  177.7190  137.4790 C   0  0  2  0  0  3  0  0  0  0  0  0
  183.7750  176.9470  139.0390 C   0  0  1  0  0  3  0  0  0  0  0  0
  182.5330  175.3230  136.3490 O   0  0  0  0  0  0  0  0  0  0  0  0
  181.9510  178.0560  137.8920 N   0  0  1  0  0  0  0  0  0  0  0  0
  183.8010  179.2480  141.1250 C   0  0  1  0  0  3  0  0  0  0  0  0
  181.9650  178.4230  144.2400 F   0  0  0  0  0  0  0  0  0  0  0  0
  185.3190  178.2640  142.7260 C   0  0  0  0  0  0  0  0  0  0  0  0
  182.6750  178.9590  142.0870 C   0  0  0  0  0  3  0  0  0  0  0  0
  185.0930  178.6600  141.5130 N   0  0  0  0  0  0  0  0  0  0  0  0
  182.9600  178.5660  143.3240 C   0  0  0  0  0  0  0  0  0  0  0  0
  186.5430  177.7670  143.0540 F   0  0  0  0  0  0  0  0  0  0  0  0
  184.2880  178.2450  143.6770 O   0  0  0  0  0  0  0  0  0  0  0  0
  180.2380  178.7130  141.1160 C   0  0  0  0  0  1  0  0  0  0  0  0
  180.7780  179.2460  139.7940 C   0  0  0  0  0  3  0  0  0  0  0  0
  180.9560  180.7570  139.8760 C   0  0  0  0  0  1  0  0  0  0  0  0
  184.2790  173.8140  136.9130 C   0  0  0  0  0  2  0  0  0  0  0  0
  184.4360  173.8430  135.4050 C   0  0  0  0  0  2  0  0  0  0  0  0
  184.0070  172.4910  134.8370 C   0  0  1  0  0  3  0  0  0  0  0  0
  184.8120  171.3610  135.4560 C   0  0  0  0  0  1  0  0  0  0  0  0
  182.4910  172.2710  134.9670 C   0  0  0  0  0  2  0  0  0  0  0  0
  182.0660  170.8070  135.0500 C   0  0  0  0  0  2  0  0  0  0  0  0
  180.7060  170.6640  135.6590 C   0  0  0  0  0  3  0  0  0  0  0  0
  180.5120  171.1450  136.8900 C   0  0  0  0  0  2  0  0  0  0  0  0
  187.6900  177.9040  134.5990 C   0  0  0  0  0  2  0  0  0  0  0  0
  188.9090  178.0390  135.5200 C   0  0  1  0  0  3  0  0  0  0  0  0
  188.6960  177.5730  136.8880 N   0  0  0  0  0  2  0  0  0  0  0  0
  188.6170  178.7420  137.7540 C   0  0  0  0  0  1  0  0  0  0  0  0
  190.1680  177.5560  134.9160 N   0  0  0  0  0  2  0  0  0  0  0  0
  190.4180  176.1520  135.2230 C   0  0  2  0  0  3  0  0  0  0  0  0
  191.7500  175.7310  134.6340 C   0  0  0  0  0  1  0  0  0  0  0  0
  188.9370  174.0320  135.2400 C   0  0  0  0  0  0  0  0  0  0  0  0
  189.3410  175.3070  134.7120 N   0  0  0  0  0  2  0  0  0  0  0  0
  188.1060  173.3470  134.5940 O   0  0  0  0  0  0  0  0  0  0  0  0
  189.4760  173.5130  136.5520 C   0  0  0  0  0  2  0  0  0  0  0  0
  190.0700  174.6640  137.3720 C   0  0  0  0  0  2  0  0  0  0  0  0
  191.6060  174.6270  137.3720 C   0  0  0  0  0  2  0  0  0  0  0  0
  192.2900  175.5140  138.4050 C   0  0  0  0  0  2  0  0  0  0  0  0
  191.4190  176.7000  138.7900 C   0  0  0  0  0  2  0  0  0  0  0  0
  191.9170  177.3050  140.0850 C   0  0  0  0  0  2  0  0  0  0  0  0
  190.2360  178.5580  141.3270 C   0  0  0  0  0  2  0  0  0  0  0  0
  190.8040  177.3650  141.0640 C   0  0  0  0  0  0  0  0  0  0  0  0
  190.0590  176.1410  141.4620 C   0  0  0  0  0  2  0  0  0  0  0  0
  190.9960  176.9350  143.6070 C   0  0  1  0  0  3  0  0  0  0  0  0
  191.1110  175.4160  143.5920 C   0  0  0  0  0  2  0  0  0  0  0  0
  189.9020  176.0840  142.9750 C   0  0  2  0  0  3  0  0  0  0  0  0
  191.2770  176.7880  146.1190 C   0  0  0  0  0  2  0  0  0  0  0  0
  190.5660  177.5390  144.9630 C   0  0  0  0  0  0  0  0  0  0  0  0
  189.2140  176.8340  147.5160 C   0  0  0  0  0  2  0  0  0  0  0  0
  189.0510  177.3000  145.0680 C   0  0  0  0  0  2  0  0  0  0  0  0
  190.7080  177.1460  147.4900 C   0  0  0  0  0  2  0  0  0  0  0  0
  190.8460  179.0500  145.0810 C   0  0  0  0  0  1  0  0  0  0  0  0
  188.4950  177.6520  146.4430 C   0  0  0  0  0  2  0  0  0  0  0  0
  1  4  2  0  0  0  0
  2  1  1  0  0  0  0
  2  5  2  0  0  0  0
  3 15  1  0  0  0  0
  4  3  1  0  0  0  0
  5  3  1  0  0  0  0
  6 13  1  0  0  0  0
  6 16  1  0  0  0  0
  7 12  1  0  0  0  0
  8 12  1  0  0  0  0
  8 29  1  1  0  0  0
  9 13  1  0  0  0  0
 10 17  1  0  0  0  0
 10  8  1  0  0  0  0
 11 16  1  0  0  0  0
 12 20  1  0  0  0  0
 14 15  1  0  0  0  0
 15 17  1  0  0  0  0
 16 19  1  0  0  0  0
 17  7  1  0  0  0  0
 18 13  1  0  0  0  0
 18 14  1  0  0  0  0
 19 10  1  0  0  0  0
 19  8  1  0  0  0  0
 20 24  1  0  0  0  0
 20 23  1  0  0  0  0
 22 26  1  0  0  0  0
 22 27  1  0  0  0  0
 23 25  2  0  0  0  0
 24 22  2  0  0  0  0
 25 27  1  0  0  0  0
 25 21  1  0  0  0  0
 29 30  1  0  0  0  0
 29 28  1  0  0  0  0
 31 14  1  0  0  0  0
 32 31  1  0  0  0  0
 33 35  1  0  0  0  0
 33 32  1  0  0  0  0
 33 34  1  0  0  0  0
 35 36  1  0  0  0  0
 36 37  1  0  0  0  0
 37 38  2  0  0  0  0
 39  1  1  0  0  0  0
 39 40  1  0  0  0  0
 40 41  1  0  0  0  0
 41 42  1  0  0  0  0
 43 44  1  0  0  0  0
 43 40  1  0  0  0  0
 45 44  1  0  0  0  0
 46 49  1  0  0  0  0
 47 44  1  0  0  0  0
 47 46  1  0  0  0  0
 48 46  2  0  0  0  0
 49 50  1  0  0  0  0
 51 50  1  0  0  0  0
 51 52  1  0  0  0  0
 52 53  1  0  0  0  0
 53 54  1  0  0  0  0
 54 56  1  0  0  0  0
 56 55  2  0  0  0  0
 56 57  1  0  0  0  0
 57 60  1  0  0  0  0
 58 62  1  0  0  0  0
 59 58  1  0  0  0  0
 60 59  1  0  0  0  0
 60 58  1  0  0  0  0
 61 65  1  0  0  0  0
 62 64  1  0  0  0  0
 62 66  1  0  0  0  0
 62 61  1  0  0  0  0
 64 67  1  0  0  0  0
 65 63  1  0  0  0  0
 67 63  1  0  0  0  0
M  END
>  <MODEL>
1

>  <REMARK>
 VINA RESULT:      -5.3      0.000      0.000
  Name = 
  25 active torsions:
  status: ('A' for Active; 'I' for Inactive)
    1  A    between atoms: C_1  and  C_5
    2  A    between atoms: C_1  and  C_47
    3  A    between atoms: C_2  and  C_5
    4  A    between atoms: C_2  and  C_62
    5  A    between atoms: C_3  and  C_54
    6  A    between atoms: C_6  and  C_28
    7  A    between atoms: C_8  and  C_25
    8  A    between atoms: C_12  and  C_31
    9  A    between atoms: C_12  and  C_51
   10  A    between atoms: C_13  and  C_24
   11  A    between atoms: C_17  and  C_19
   12  A    between atoms: C_21  and  C_62
   13  A    between atoms: C_24  and  C_35
   14  A    between atoms: N_27  and  C_35
   15  A    between atoms: C_29  and  C_45
   16  A    between atoms: C_29  and  C_51
   17  A    between atoms: C_31  and  C_56
   18  A    between atoms: C_35  and  N_57
   19  A    between atoms: C_38  and  C_67
   20  A    between atoms: C_39  and  C_47
   21  A    between atoms: C_41  and  N_44
   22  A    between atoms: C_41  and  N_57
   23  A    between atoms: C_45  and  C_67
   24  A    between atoms: N_49  and  C_58
   25  A    between atoms: C_54  and  C_56
                            x       y       z     vdW  Elec       q    Type
                         _______ _______ _______ _____ _____    ______ ____

>  <TORSDO>
F 25

$$$$
=
 OpenBabel11062416123D

 67 73  0  0  1  0  0  0  0  0999 V2000
  183.2870  177.9240  140.6810 C   0  0  0  0  0  0  0  0  0  0  0  0
  182.2510  178.8160  140.4500 C   0  0  0  0  0  3  0  0  0  0  0  0
  182.8950  178.0290  138.5240 N   0  0  0  0  0  0  0  0  0  0  0  0
  183.6950  177.4780  139.4520 C   0  0  0  0  0  3  0  0  0  0  0  0
  182.0340  178.8490  139.1170 N   0  0  0  0  0  0  0  0  0  0  0  0
  180.3670  175.0060  136.6690 C   0  0  0  0  0  2  0  0  0  0  0  0
  185.0070  176.5190  137.5180 O   0  0  0  0  0  0  0  0  0  0  0  0
  184.1300  174.5140  136.5950 C   0  0  1  0  0  0  0  0  0  0  0  0
  179.2590  176.5760  135.2310 O   0  0  0  0  0  1  0  0  0  0  0  0
  183.3960  175.6110  135.9950 C   0  0  2  0  0  3  0  0  0  0  0  0
  181.3920  172.9440  137.5040 C   0  0  0  0  0  1  0  0  0  0  0  0
  185.3270  175.1630  137.2920 C   0  0  1  0  0  3  0  0  0  0  0  0
  180.4690  176.3080  135.8820 C   0  0  1  0  0  3  0  0  0  0  0  0
  181.7880  178.1060  136.2390 C   0  0  1  0  0  3  0  0  0  0  0  0
  183.0810  177.9490  137.0570 C   0  0  2  0  0  3  0  0  0  0  0  0
  181.6520  174.1750  136.6440 C   0  0  2  0  0  3  0  0  0  0  0  0
  184.0850  176.8810  136.5180 C   0  0  1  0  0  3  0  0  0  0  0  0
  180.7490  177.3380  136.7940 O   0  0  0  0  0  0  0  0  0  0  0  0
  182.8070  174.9260  137.1660 N   0  0  1  0  0  0  0  0  0  0  0  0
  186.6600  175.1430  136.5280 C   0  0  1  0  0  3  0  0  0  0  0  0
  188.5250  177.7000  134.5950 F   0  0  0  0  0  0  0  0  0  0  0  0
  189.0160  174.9890  137.0400 C   0  0  0  0  0  0  0  0  0  0  0  0
  186.9680  176.3690  135.7040 C   0  0  0  0  0  3  0  0  0  0  0  0
  187.7980  174.6430  137.3160 N   0  0  0  0  0  0  0  0  0  0  0  0
  188.2340  176.6740  135.4390 C   0  0  0  0  0  0  0  0  0  0  0  0
  190.0430  174.4680  137.7650 F   0  0  0  0  0  0  0  0  0  0  0  0
  189.2800  175.9700  136.0720 O   0  0  0  0  0  0  0  0  0  0  0  0
  184.1180  172.8700  134.5950 C   0  0  0  0  0  1  0  0  0  0  0  0
  184.1390  173.0510  136.1090 C   0  0  0  0  0  3  0  0  0  0  0  0
  185.3160  172.2930  136.7080 C   0  0  0  0  0  1  0  0  0  0  0  0
  181.3800  179.5660  136.2590 C   0  0  0  0  0  2  0  0  0  0  0  0
  180.4170  179.8510  137.3940 C   0  0  0  0  0  2  0  0  0  0  0  0
  179.9250  181.2920  137.2750 C   0  0  1  0  0  3  0  0  0  0  0  0
  180.0830  182.0320  138.5930 C   0  0  0  0  0  1  0  0  0  0  0  0
  180.5950  182.0300  136.1040 C   0  0  0  0  0  2  0  0  0  0  0  0
  180.8210  183.5220  136.3380 C   0  0  0  0  0  2  0  0  0  0  0  0
  179.6680  184.3360  135.8410 C   0  0  0  0  0  3  0  0  0  0  0  0
  178.9310  183.8420  134.8420 C   0  0  0  0  0  2  0  0  0  0  0  0
  184.0050  177.5890  141.9670 C   0  0  0  0  0  2  0  0  0  0  0  0
  185.2120  178.4510  142.3580 C   0  0  1  0  0  3  0  0  0  0  0  0
  184.8760  179.7120  143.0160 N   0  0  0  0  0  2  0  0  0  0  0  0
  183.5720  179.5550  143.6470 C   0  0  0  0  0  1  0  0  0  0  0  0
  186.2900  177.6970  143.0310 N   0  0  0  0  0  2  0  0  0  0  0  0
  187.5860  177.9130  142.3980 C   0  0  2  0  0  3  0  0  0  0  0  0
  188.3550  178.9740  143.1590 C   0  0  0  0  0  1  0  0  0  0  0  0
  188.4050  178.1620  139.9570 C   0  0  0  0  0  0  0  0  0  0  0  0
  187.4240  178.3030  140.9990 N   0  0  0  0  0  2  0  0  0  0  0  0
  188.1820  178.6950  138.8420 O   0  0  0  0  0  0  0  0  0  0  0  0
  189.6790  177.3820  140.1720 C   0  0  0  0  0  2  0  0  0  0  0  0
  190.0790  177.4180  141.6520 C   0  0  0  0  0  2  0  0  0  0  0  0
  190.1470  176.0060  142.2550 C   0  0  0  0  0  2  0  0  0  0  0  0
  191.4860  175.6120  142.8670 C   0  0  0  0  0  2  0  0  0  0  0  0
  191.7780  176.4040  144.1320 C   0  0  0  0  0  2  0  0  0  0  0  0
  191.9780  175.4570  145.2970 C   0  0  0  0  0  2  0  0  0  0  0  0
  192.5670  175.8370  147.6300 C   0  0  0  0  0  2  0  0  0  0  0  0
  191.8180  176.1990  146.5710 C   0  0  0  0  0  0  0  0  0  0  0  0
  191.1640  177.5340  146.6100 C   0  0  0  0  0  2  0  0  0  0  0  0
  189.0350  177.2000  147.8200 C   0  0  1  0  0  3  0  0  0  0  0  0
  189.2200  176.0130  146.8830 C   0  0  0  0  0  2  0  0  0  0  0  0
  189.6580  177.3930  146.4430 C   0  0  2  0  0  3  0  0  0  0  0  0
  186.8090  177.3370  146.6210 C   0  0  0  0  0  2  0  0  0  0  0  0
  187.5910  177.7460  147.8970 C   0  0  0  0  0  0  0  0  0  0  0  0
  185.6990  179.5650  146.4990 C   0  0  0  0  0  2  0  0  0  0  0  0
  187.7220  179.2780  147.9340 C   0  0  0  0  0  2  0  0  0  0  0  0
  185.4680  178.0570  146.4980 C   0  0  0  0  0  2  0  0  0  0  0  0
  186.8200  177.2770  149.1460 C   0  0  0  0  0  1  0  0  0  0  0  0
  186.3790  179.9860  147.8020 C   0  0  0  0  0  2  0  0  0  0  0  0
  1 39  1  0  0  0  0
  2  1  1  0  0  0  0
  3  5  1  0  0  0  0
  3  4  1  0  0  0  0
  4  1  2  0  0  0  0
  5  2  2  0  0  0  0
  8 29  1  6  0  0  0
  8 19  1  0  0  0  0
  8 12  1  0  0  0  0
  9 13  1  0  0  0  0
 10 17  1  0  0  0  0
 10  8  1  0  0  0  0
 10 19  1  0  0  0  0
 12  7  1  0  0  0  0
 13  6  1  0  0  0  0
 13 18  1  0  0  0  0
 14 31  1  0  0  0  0
 14 18  1  0  0  0  0
 14 15  1  0  0  0  0
 15  3  1  0  0  0  0
 16  6  1  0  0  0  0
 16 19  1  0  0  0  0
 16 11  1  0  0  0  0
 17 15  1  0  0  0  0
 17  7  1  0  0  0  0
 20 12  1  0  0  0  0
 20 24  1  0  0  0  0
 21 25  1  0  0  0  0
 22 24  2  0  0  0  0
 22 26  1  0  0  0  0
 23 20  1  0  0  0  0
 25 23  2  0  0  0  0
 25 27  1  0  0  0  0
 27 22  1  0  0  0  0
 28 29  1  0  0  0  0
 29 30  1  0  0  0  0
 31 32  1  0  0  0  0
 33 32  1  0  0  0  0
 33 34  1  0  0  0  0
 35 36  1  0  0  0  0
 35 33  1  0  0  0  0
 37 36  1  0  0  0  0
 38 37  2  0  0  0  0
 39 40  1  0  0  0  0
 40 41  1  0  0  0  0
 40 43  1  0  0  0  0
 41 42  1  0  0  0  0
 44 43  1  0  0  0  0
 44 45  1  0  0  0  0
 46 49  1  0  0  0  0
 46 47  1  0  0  0  0
 47 44  1  0  0  0  0
 48 46  2  0  0  0  0
 49 50  1  0  0  0  0
 50 51  1  0  0  0  0
 51 52  1  0  0  0  0
 52 53  1  0  0  0  0
 53 54  1  0  0  0  0
 54 56  1  0  0  0  0
 56 57  1  0  0  0  0
 56 55  2  0  0  0  0
 58 62  1  0  0  0  0
 59 58  1  0  0  0  0
 60 57  1  0  0  0  0
 60 59  1  0  0  0  0
 60 58  1  0  0  0  0
 61 62  1  0  0  0  0
 62 64  1  0  0  0  0
 62 66  1  0  0  0  0
 63 67  1  0  0  0  0
 65 63  1  0  0  0  0
 65 61  1  0  0  0  0
 67 64  1  0  0  0  0
M  END
>  <MODEL>
2

>  <REMARK>
 VINA RESULT:      -5.0      2.637      6.917
  Name = 
  25 active torsions:
  status: ('A' for Active; 'I' for Inactive)
    1  A    between atoms: C_1  and  C_5
    2  A    between atoms: C_1  and  C_47
    3  A    between atoms: C_2  and  C_5
    4  A    between atoms: C_2  and  C_62
    5  A    between atoms: C_3  and  C_54
    6  A    between atoms: C_6  and  C_28
    7  A    between atoms: C_8  and  C_25
    8  A    between atoms: C_12  and  C_31
    9  A    between atoms: C_12  and  C_51
   10  A    between atoms: C_13  and  C_24
   11  A    between atoms: C_17  and  C_19
   12  A    between atoms: C_21  and  C_62
   13  A    between atoms: C_24  and  C_35
   14  A    between atoms: N_27  and  C_35
   15  A    between atoms: C_29  and  C_45
   16  A    between atoms: C_29  and  C_51
   17  A    between atoms: C_31  and  C_56
   18  A    between atoms: C_35  and  N_57
   19  A    between atoms: C_38  and  C_67
   20  A    between atoms: C_39  and  C_47
   21  A    between atoms: C_41  and  N_44
   22  A    between atoms: C_41  and  N_57
   23  A    between atoms: C_45  and  C_67
   24  A    between atoms: N_49  and  C_58
   25  A    between atoms: C_54  and  C_56
                            x       y       z     vdW  Elec       q    Type
                         _______ _______ _______ _____ _____    ______ ____

>  <TORSDO>
F 25

$$$$
=
 OpenBabel11062416123D

 67 73  0  0  1  0  0  0  0  0999 V2000
  191.3900  177.5010  140.9090 C   0  0  0  0  0  0  0  0  0  0  0  0
  192.5090  177.7540  140.1280 C   0  0  0  0  0  3  0  0  0  0  0  0
  191.4170  176.1080  139.2130 N   0  0  0  0  0  0  0  0  0  0  0  0
  190.7480  176.4390  140.3300 C   0  0  0  0  0  3  0  0  0  0  0  0
  192.4870  176.8850  139.0940 N   0  0  0  0  0  0  0  0  0  0  0  0
  191.7350  176.9600  134.9540 C   0  0  0  0  0  2  0  0  0  0  0  0
  188.7860  175.4120  138.6200 O   0  0  0  0  0  0  0  0  0  0  0  0
  188.3480  175.9720  136.3540 C   0  0  1  0  0  0  0  0  0  0  0  0
  193.4820  175.3530  134.5940 O   0  0  0  0  0  1  0  0  0  0  0  0
  189.5510  175.1620  136.3640 C   0  0  2  0  0  3  0  0  0  0  0  0
  189.7580  178.3600  134.5940 C   0  0  0  0  0  1  0  0  0  0  0  0
  187.7500  175.8240  137.7540 C   0  0  1  0  0  3  0  0  0  0  0  0
  192.3560  175.6320  135.3770 C   0  0  1  0  0  3  0  0  0  0  0  0
  192.2920  174.5860  137.3760 C   0  0  1  0  0  3  0  0  0  0  0  0
  191.1650  174.9160  138.3700 C   0  0  2  0  0  3  0  0  0  0  0  0
  190.2050  176.9610  135.0010 C   0  0  2  0  0  3  0  0  0  0  0  0
  189.7150  174.7150  137.8250 C   0  0  1  0  0  3  0  0  0  0  0  0
  192.7370  175.7480  136.7230 O   0  0  0  0  0  0  0  0  0  0  0  0
  189.6930  176.6330  136.3430 N   0  0  1  0  0  0  0  0  0  0  0  0
  186.6110  174.8040  137.9090 C   0  0  1  0  0  3  0  0  0  0  0  0
  182.9680  174.9360  137.2270 F   0  0  0  0  0  0  0  0  0  0  0  0
  185.9020  172.7370  136.8790 C   0  0  0  0  0  0  0  0  0  0  0  0
  185.2150  175.3360  137.6910 C   0  0  0  0  0  3  0  0  0  0  0  0
  186.8710  173.5070  137.2650 N   0  0  0  0  0  0  0  0  0  0  0  0
  184.2550  174.5020  137.3060 C   0  0  0  0  0  0  0  0  0  0  0  0
  186.1860  171.5250  136.3290 F   0  0  0  0  0  0  0  0  0  0  0  0
  184.5720  173.1810  136.9270 O   0  0  0  0  0  0  0  0  0  0  0  0
  186.6100  175.2060  134.5950 C   0  0  0  0  0  1  0  0  0  0  0  0
  187.5010  176.3280  135.1170 C   0  0  0  0  0  3  0  0  0  0  0  0
  186.6670  177.5750  135.3780 C   0  0  0  0  0  1  0  0  0  0  0  0
  193.4500  173.9840  138.1460 C   0  0  0  0  0  2  0  0  0  0  0  0
  194.7020  174.8270  138.0010 C   0  0  0  0  0  2  0  0  0  0  0  0
  195.7160  174.0650  137.1490 C   0  0  1  0  0  3  0  0  0  0  0  0
  197.0310  174.8200  137.0620 C   0  0  0  0  0  1  0  0  0  0  0  0
  195.9000  172.6190  137.6370 C   0  0  0  0  0  2  0  0  0  0  0  0
  196.6720  171.7170  136.6770 C   0  0  0  0  0  2  0  0  0  0  0  0
  195.8780  171.4210  135.4430 C   0  0  0  0  0  3  0  0  0  0  0  0
  194.7090  170.7890  135.5820 C   0  0  0  0  0  2  0  0  0  0  0  0
  190.9820  178.0980  142.2340 C   0  0  0  0  0  2  0  0  0  0  0  0
  190.4150  177.1530  143.3010 C   0  0  1  0  0  3  0  0  0  0  0  0
  189.3760  176.2440  142.8210 N   0  0  0  0  0  2  0  0  0  0  0  0
  188.0830  176.8090  143.1820 C   0  0  0  0  0  1  0  0  0  0  0  0
  191.4500  176.4930  144.1230 N   0  0  0  0  0  2  0  0  0  0  0  0
  191.2170  176.6850  145.5510 C   0  0  2  0  0  3  0  0  0  0  0  0
  192.2980  175.9760  146.3430 C   0  0  0  0  0  1  0  0  0  0  0  0
  188.8980  176.9220  146.6700 C   0  0  0  0  0  0  0  0  0  0  0  0
  189.8960  176.1930  145.9340 N   0  0  0  0  0  2  0  0  0  0  0  0
  187.8760  176.3110  147.0690 O   0  0  0  0  0  0  0  0  0  0  0  0
  189.0480  178.3970  146.9580 C   0  0  0  0  0  2  0  0  0  0  0  0
  187.9010  178.8800  147.8540 C   0  0  0  0  0  2  0  0  0  0  0  0
  186.5590  178.2530  147.4450 C   0  0  0  0  0  2  0  0  0  0  0  0
  185.4870  179.2300  146.9770 C   0  0  0  0  0  2  0  0  0  0  0  0
  184.6400  178.6390  145.8610 C   0  0  0  0  0  2  0  0  0  0  0  0
  185.3070  178.8860  144.5240 C   0  0  0  0  0  2  0  0  0  0  0  0
  183.1000  179.0620  143.5080 C   0  0  0  0  0  2  0  0  0  0  0  0
  184.3540  178.5760  143.4310 C   0  0  0  0  0  0  0  0  0  0  0  0
  184.8280  178.0920  142.1080 C   0  0  0  0  0  2  0  0  0  0  0  0
  183.5460  177.8710  140.0070 C   0  0  1  0  0  3  0  0  0  0  0  0
  184.8500  178.5840  139.6730 C   0  0  0  0  0  2  0  0  0  0  0  0
  184.1530  178.8680  140.9850 C   0  0  2  0  0  3  0  0  0  0  0  0
  182.4450  179.9680  139.1100 C   0  0  0  0  0  2  0  0  0  0  0  0
  182.2980  178.4340  139.2890 C   0  0  0  0  0  0  0  0  0  0  0  0
  180.0430  180.3360  139.6600 C   0  0  0  0  0  2  0  0  0  0  0  0
  181.1110  178.1510  140.2240 C   0  0  0  0  0  2  0  0  0  0  0  0
  181.1490  180.6330  138.6520 C   0  0  0  0  0  2  0  0  0  0  0  0
  182.0260  177.7790  137.9200 C   0  0  0  0  0  1  0  0  0  0  0  0
  179.8250  178.8260  139.7630 C   0  0  0  0  0  2  0  0  0  0  0  0
  1 39  1  0  0  0  0
  2  1  1  0  0  0  0
  3  4  1  0  0  0  0
  4  1  2  0  0  0  0
  5  3  1  0  0  0  0
  5  2  2  0  0  0  0
  6 16  1  0  0  0  0
  6 13  1  0  0  0  0
  8 29  1  6  0  0  0
  8 10  1  0  0  0  0
  8 12  1  0  0  0  0
  9 13  1  0  0  0  0
 10 17  1  0  0  0  0
 11 16  1  0  0  0  0
 12 20  1  0  0  0  0
 12  7  1  0  0  0  0
 13 18  1  0  0  0  0
 14 31  1  0  0  0  0
 14 15  1  0  0  0  0
 15  3  1  0  0  0  0
 16 19  1  0  0  0  0
 17 15  1  0  0  0  0
 17  7  1  0  0  0  0
 18 14  1  0  0  0  0
 19  8  1  0  0  0  0
 19 10  1  0  0  0  0
 21 25  1  0  0  0  0
 22 27  1  0  0  0  0
 22 24  2  0  0  0  0
 23 20  1  0  0  0  0
 24 20  1  0  0  0  0
 25 23  2  0  0  0  0
 26 22  1  0  0  0  0
 27 25  1  0  0  0  0
 28 29  1  0  0  0  0
 29 30  1  0  0  0  0
 32 31  1  0  0  0  0
 33 35  1  0  0  0  0
 33 32  1  0  0  0  0
 34 33  1  0  0  0  0
 36 35  1  0  0  0  0
 37 38  2  0  0  0  0
 37 36  1  0  0  0  0
 39 40  1  0  0  0  0
 40 43  1  0  0  0  0
 41 42  1  0  0  0  0
 41 40  1  0  0  0  0
 43 44  1  0  0  0  0
 44 47  1  0  0  0  0
 44 45  1  0  0  0  0
 46 49  1  0  0  0  0
 46 48  2  0  0  0  0
 47 46  1  0  0  0  0
 49 50  1  0  0  0  0
 51 50  1  0  0  0  0
 52 51  1  0  0  0  0
 53 52  1  0  0  0  0
 54 53  1  0  0  0  0
 56 55  2  0  0  0  0
 56 54  1  0  0  0  0
 57 56  1  0  0  0  0
 58 60  1  0  0  0  0
 59 58  1  0  0  0  0
 59 60  1  0  0  0  0
 60 57  1  0  0  0  0
 61 62  1  0  0  0  0
 62 58  1  0  0  0  0
 62 64  1  0  0  0  0
 63 67  1  0  0  0  0
 65 61  1  0  0  0  0
 65 63  1  0  0  0  0
 66 62  1  0  0  0  0
 67 64  1  0  0  0  0
M  END
>  <MODEL>
3

>  <REMARK>
 VINA RESULT:      -4.7      3.257      9.773
  Name = 
  25 active torsions:
  status: ('A' for Active; 'I' for Inactive)
    1  A    between atoms: C_1  and  C_5
    2  A    between atoms: C_1  and  C_47
    3  A    between atoms: C_2  and  C_5
    4  A    between atoms: C_2  and  C_62
    5  A    between atoms: C_3  and  C_54
    6  A    between atoms: C_6  and  C_28
    7  A    between atoms: C_8  and  C_25
    8  A    between atoms: C_12  and  C_31
    9  A    between atoms: C_12  and  C_51
   10  A    between atoms: C_13  and  C_24
   11  A    between atoms: C_17  and  C_19
   12  A    between atoms: C_21  and  C_62
   13  A    between atoms: C_24  and  C_35
   14  A    between atoms: N_27  and  C_35
   15  A    between atoms: C_29  and  C_45
   16  A    between atoms: C_29  and  C_51
   17  A    between atoms: C_31  and  C_56
   18  A    between atoms: C_35  and  N_57
   19  A    between atoms: C_38  and  C_67
   20  A    between atoms: C_39  and  C_47
   21  A    between atoms: C_41  and  N_44
   22  A    between atoms: C_41  and  N_57
   23  A    between atoms: C_45  and  C_67
   24  A    between atoms: N_49  and  C_58
   25  A    between atoms: C_54  and  C_56
                            x       y       z     vdW  Elec       q    Type
                         _______ _______ _______ _____ _____    ______ ____

>  <TORSDO>
F 25

$$$$
=
 OpenBabel11062416123D

 67 73  0  0  1  0  0  0  0  0999 V2000
  189.6990  176.7000  141.0100 C   0  0  0  0  0  0  0  0  0  0  0  0
  189.6500  175.4390  140.4350 C   0  0  0  0  0  3  0  0  0  0  0  0
  190.5150  176.8040  138.9750 N   0  0  0  0  0  0  0  0  0  0  0  0
  190.2100  177.5400  140.0570 C   0  0  0  0  0  3  0  0  0  0  0  0
  190.1650  175.5400  139.1900 N   0  0  0  0  0  0  0  0  0  0  0  0
  189.2940  174.2430  135.6700 C   0  0  0  0  0  2  0  0  0  0  0  0
  193.1030  176.2830  138.0910 O   0  0  0  0  0  0  0  0  0  0  0  0
  193.0020  174.6410  136.3790 C   0  0  1  0  0  0  0  0  0  0  0  0
  188.0110  175.9630  134.5940 O   0  0  0  0  0  1  0  0  0  0  0  0
  192.0810  175.6970  136.0060 C   0  0  2  0  0  3  0  0  0  0  0  0
  190.7350  172.2930  136.0150 C   0  0  0  0  0  1  0  0  0  0  0  0
  193.8360  175.2180  137.5230 C   0  0  1  0  0  3  0  0  0  0  0  0
  189.1320  175.7360  135.4020 C   0  0  1  0  0  3  0  0  0  0  0  0
  189.7980  177.5010  136.6400 C   0  0  1  0  0  3  0  0  0  0  0  0
  190.9390  177.3290  137.6570 C   0  0  2  0  0  3  0  0  0  0  0  0
  190.7530  173.7830  135.6960 C   0  0  2  0  0  3  0  0  0  0  0  0
  192.2820  176.7900  137.0670 C   0  0  1  0  0  3  0  0  0  0  0  0
  188.9560  176.3760  136.6390 O   0  0  0  0  0  0  0  0  0  0  0  0
  191.5450  174.5100  136.7040 N   0  0  1  0  0  0  0  0  0  0  0  0
  195.2180  175.7780  137.1510 C   0  0  1  0  0  3  0  0  0  0  0  0
  198.3420  174.2230  135.8990 F   0  0  0  0  0  0  0  0  0  0  0  0
  196.1840  177.1700  135.4290 C   0  0  0  0  0  0  0  0  0  0  0  0
  196.2880  174.7550  136.8590 C   0  0  0  0  0  3  0  0  0  0  0  0
  195.1770  176.9000  136.1990 N   0  0  0  0  0  0  0  0  0  0  0  0
  197.3060  175.0860  136.0710 C   0  0  0  0  0  0  0  0  0  0  0  0
  196.1220  178.2430  134.5950 F   0  0  0  0  0  0  0  0  0  0  0  0
  197.2910  176.3110  135.3700 O   0  0  0  0  0  0  0  0  0  0  0  0
  194.7150  173.8700  134.5970 C   0  0  0  0  0  1  0  0  0  0  0  0
  193.5110  173.5120  135.4610 C   0  0  0  0  0  3  0  0  0  0  0  0
  193.8050  172.2550  136.2690 C   0  0  0  0  0  1  0  0  0  0  0  0
  188.9850  178.7190  137.0320 C   0  0  0  0  0  2  0  0  0  0  0  0
  187.6150  178.6960  136.3840 C   0  0  0  0  0  2  0  0  0  0  0  0
  186.6540  177.9240  137.2860 C   0  0  1  0  0  3  0  0  0  0  0  0
  186.7870  178.3720  138.7320 C   0  0  0  0  0  1  0  0  0  0  0  0
  185.2050  178.0020  136.7780 C   0  0  0  0  0  2  0  0  0  0  0  0
  184.4800  176.6600  136.7140 C   0  0  0  0  0  2  0  0  0  0  0  0
  184.3490  176.1720  135.3060 C   0  0  0  0  0  3  0  0  0  0  0  0
  184.7910  174.9430  135.0200 C   0  0  0  0  0  2  0  0  0  0  0  0
  189.1580  177.1790  142.3360 C   0  0  0  0  0  2  0  0  0  0  0  0
  190.1200  177.2180  143.5300 C   0  0  1  0  0  3  0  0  0  0  0  0
  191.5070  176.8870  143.2090 N   0  0  0  0  0  2  0  0  0  0  0  0
  191.8130  175.5970  143.8110 C   0  0  0  0  0  1  0  0  0  0  0  0
  189.9750  178.4220  144.3730 N   0  0  0  0  0  2  0  0  0  0  0  0
  188.9910  178.2320  145.4330 C   0  0  2  0  0  3  0  0  0  0  0  0
  189.6840  177.7510  146.6920 C   0  0  0  0  0  1  0  0  0  0  0  0
  186.6180  177.2090  145.5350 C   0  0  0  0  0  0  0  0  0  0  0  0
  187.9590  177.2830  145.0220 N   0  0  0  0  0  2  0  0  0  0  0  0
  185.8980  176.2350  145.2050 O   0  0  0  0  0  0  0  0  0  0  0  0
  186.0590  178.2780  146.4440 C   0  0  0  0  0  2  0  0  0  0  0  0
  185.4990  179.4390  145.6130 C   0  0  0  0  0  2  0  0  0  0  0  0
  184.3600  178.9780  144.6900 C   0  0  0  0  0  2  0  0  0  0  0  0
  182.9660  178.9850  145.3060 C   0  0  0  0  0  2  0  0  0  0  0  0
  181.8950  179.2750  144.2660 C   0  0  0  0  0  2  0  0  0  0  0  0
  182.0910  178.3770  143.0630 C   0  0  0  0  0  2  0  0  0  0  0  0
  179.9320  179.0220  142.1380 C   0  0  0  0  0  2  0  0  0  0  0  0
  181.2550  178.8650  141.9390 C   0  0  0  0  0  0  0  0  0  0  0  0
  181.8620  179.5350  140.7590 C   0  0  0  0  0  2  0  0  0  0  0  0
  181.9490  177.3650  139.5800 C   0  0  1  0  0  3  0  0  0  0  0  0
  182.7200  178.3740  138.7380 C   0  0  0  0  0  2  0  0  0  0  0  0
  181.4740  178.8080  139.4790 C   0  0  2  0  0  3  0  0  0  0  0  0
  181.8240  175.0640  138.5300 C   0  0  0  0  0  2  0  0  0  0  0  0
  181.0590  176.3920  138.7730 C   0  0  0  0  0  0  0  0  0  0  0  0
  180.9530  174.9040  136.2010 C   0  0  0  0  0  2  0  0  0  0  0  0
  180.8050  177.0780  137.4210 C   0  0  0  0  0  2  0  0  0  0  0  0
  181.1220  174.1580  137.5210 C   0  0  0  0  0  2  0  0  0  0  0  0
  179.7060  176.0900  139.4470 C   0  0  0  0  0  1  0  0  0  0  0  0
  180.1120  176.1620  136.4190 C   0  0  0  0  0  2  0  0  0  0  0  0
  1 39  1  0  0  0  0
  2  1  1  0  0  0  0
  3  5  1  0  0  0  0
  3  4  1  0  0  0  0
  4  1  2  0  0  0  0
  5  2  2  0  0  0  0
  6 16  1  0  0  0  0
  8 29  1  6  0  0  0
  8 19  1  0  0  0  0
  8 12  1  0  0  0  0
  9 13  1  0  0  0  0
 10  8  1  0  0  0  0
 10 19  1  0  0  0  0
 10 17  1  0  0  0  0
 12  7  1  0  0  0  0
 13  6  1  0  0  0  0
 13 18  1  0  0  0  0
 14 31  1  0  0  0  0
 14 15  1  0  0  0  0
 15  3  1  0  0  0  0
 16 11  1  0  0  0  0
 16 19  1  0  0  0  0
 17 15  1  0  0  0  0
 17  7  1  0  0  0  0
 18 14  1  0  0  0  0
 20 12  1  0  0  0  0
 21 25  1  0  0  0  0
 22 24  2  0  0  0  0
 23 20  1  0  0  0  0
 24 20  1  0  0  0  0
 25 23  2  0  0  0  0
 26 22  1  0  0  0  0
 27 22  1  0  0  0  0
 27 25  1  0  0  0  0
 28 29  1  0  0  0  0
 29 30  1  0  0  0  0
 32 31  1  0  0  0  0
 32 33  1  0  0  0  0
 33 34  1  0  0  0  0
 35 33  1  0  0  0  0
 36 35  1  0  0  0  0
 37 36  1  0  0  0  0
 38 37  2  0  0  0  0
 39 40  1  0  0  0  0
 40 43  1  0  0  0  0
 41 40  1  0  0  0  0
 41 42  1  0  0  0  0
 43 44  1  0  0  0  0
 44 45  1  0  0  0  0
 46 49  1  0  0  0  0
 47 44  1  0  0  0  0
 47 46  1  0  0  0  0
 48 46  2  0  0  0  0
 50 49  1  0  0  0  0
 51 52  1  0  0  0  0
 51 50  1  0  0  0  0
 53 52  1  0  0  0  0
 54 53  1  0  0  0  0
 56 55  2  0  0  0  0
 56 54  1  0  0  0  0
 57 56  1  0  0  0  0
 59 60  1  0  0  0  0
 59 58  1  0  0  0  0
 60 58  1  0  0  0  0
 60 57  1  0  0  0  0
 61 62  1  0  0  0  0
 62 66  1  0  0  0  0
 62 58  1  0  0  0  0
 63 67  1  0  0  0  0
 63 65  1  0  0  0  0
 64 62  1  0  0  0  0
 65 61  1  0  0  0  0
 67 64  1  0  0  0  0
M  END
>  <MODEL>
4

>  <REMARK>
 VINA RESULT:      -4.0      3.847     10.738
  Name = 
  25 active torsions:
  status: ('A' for Active; 'I' for Inactive)
    1  A    between atoms: C_1  and  C_5
    2  A    between atoms: C_1  and  C_47
    3  A    between atoms: C_2  and  C_5
    4  A    between atoms: C_2  and  C_62
    5  A    between atoms: C_3  and  C_54
    6  A    between atoms: C_6  and  C_28
    7  A    between atoms: C_8  and  C_25
    8  A    between atoms: C_12  and  C_31
    9  A    between atoms: C_12  and  C_51
   10  A    between atoms: C_13  and  C_24
   11  A    between atoms: C_17  and  C_19
   12  A    between atoms: C_21  and  C_62
   13  A    between atoms: C_24  and  C_35
   14  A    between atoms: N_27  and  C_35
   15  A    between atoms: C_29  and  C_45
   16  A    between atoms: C_29  and  C_51
   17  A    between atoms: C_31  and  C_56
   18  A    between atoms: C_35  and  N_57
   19  A    between atoms: C_38  and  C_67
   20  A    between atoms: C_39  and  C_47
   21  A    between atoms: C_41  and  N_44
   22  A    between atoms: C_41  and  N_57
   23  A    between atoms: C_45  and  C_67
   24  A    between atoms: N_49  and  C_58
   25  A    between atoms: C_54  and  C_56
                            x       y       z     vdW  Elec       q    Type
                         _______ _______ _______ _____ _____    ______ ____

>  <TORSDO>
F 25

$$$$
=
 OpenBabel11062416123D

 67 73  0  0  1  0  0  0  0  0999 V2000
  189.9130  176.6790  141.1180 C   0  0  0  0  0  0  0  0  0  0  0  0
  189.6340  175.4600  140.5170 C   0  0  0  0  0  3  0  0  0  0  0  0
  190.7470  176.6690  139.0880 N   0  0  0  0  0  0  0  0  0  0  0  0
  190.5780  177.4280  140.1830 C   0  0  0  0  0  3  0  0  0  0  0  0
  190.1670  175.4890  139.2760 N   0  0  0  0  0  0  0  0  0  0  0  0
  189.5950  174.0640  135.7930 C   0  0  0  0  0  2  0  0  0  0  0  0
  193.3540  176.0010  138.3720 O   0  0  0  0  0  0  0  0  0  0  0  0
  193.2720  174.3120  136.7050 C   0  0  1  0  0  0  0  0  0  0  0  0
  188.4600  175.8060  134.5940 O   0  0  0  0  0  1  0  0  0  0  0  0
  192.4250  175.3980  136.2480 C   0  0  2  0  0  3  0  0  0  0  0  0
  190.9190  172.0610  136.2770 C   0  0  0  0  0  1  0  0  0  0  0  0
  194.0660  174.8860  137.8780 C   0  0  1  0  0  3  0  0  0  0  0  0
  189.5200  175.5530  135.4720 C   0  0  1  0  0  3  0  0  0  0  0  0
  190.1990  177.3250  136.6960 C   0  0  1  0  0  3  0  0  0  0  0  0
  191.2710  177.1320  137.7820 C   0  0  2  0  0  3  0  0  0  0  0  0
  191.0270  173.5380  135.9170 C   0  0  2  0  0  3  0  0  0  0  0  0
  192.6170  176.5130  137.2870 C   0  0  1  0  0  3  0  0  0  0  0  0
  189.3050  176.2400  136.6770 O   0  0  0  0  0  0  0  0  0  0  0  0
  191.7940  174.2590  136.9480 N   0  0  1  0  0  0  0  0  0  0  0  0
  195.4920  175.3700  137.5720 C   0  0  1  0  0  3  0  0  0  0  0  0
  198.7570  173.6380  137.2690 F   0  0  0  0  0  0  0  0  0  0  0  0
  196.7150  176.2670  135.6920 C   0  0  0  0  0  0  0  0  0  0  0  0
  196.5870  174.3430  137.7340 C   0  0  0  0  0  3  0  0  0  0  0  0
  195.6030  176.1840  136.3510 N   0  0  0  0  0  0  0  0  0  0  0  0
  197.7130  174.4790  137.0430 C   0  0  0  0  0  0  0  0  0  0  0  0
  196.7870  177.0670  134.5940 F   0  0  0  0  0  0  0  0  0  0  0  0
  197.8130  175.4630  136.0360 O   0  0  0  0  0  0  0  0  0  0  0  0
  194.5480  173.5220  134.5950 C   0  0  0  0  0  1  0  0  0  0  0  0
  193.7770  173.1320  135.8510 C   0  0  0  0  0  3  0  0  0  0  0  0
  194.6090  172.1760  136.6960 C   0  0  0  0  0  1  0  0  0  0  0  0
  189.4240  178.5900  137.0040 C   0  0  0  0  0  2  0  0  0  0  0  0
  188.4190  178.3610  138.1150 C   0  0  0  0  0  2  0  0  0  0  0  0
  187.0500  178.8570  137.6520 C   0  0  1  0  0  3  0  0  0  0  0  0
  187.1550  179.5860  136.3240 C   0  0  0  0  0  1  0  0  0  0  0  0
  186.0130  177.7220  137.6180 C   0  0  0  0  0  2  0  0  0  0  0  0
  185.8870  177.0160  136.2700 C   0  0  0  0  0  2  0  0  0  0  0  0
  185.5700  175.5630  136.4380 C   0  0  0  0  0  3  0  0  0  0  0  0
  186.3090  174.8510  137.2930 C   0  0  0  0  0  2  0  0  0  0  0  0
  189.4620  177.2230  142.4520 C   0  0  0  0  0  2  0  0  0  0  0  0
  190.5420  177.5950  143.4760 C   0  0  1  0  0  3  0  0  0  0  0  0
  191.8480  177.9060  142.9010 N   0  0  0  0  0  2  0  0  0  0  0  0
  192.4860  176.6510  142.5300 C   0  0  0  0  0  1  0  0  0  0  0  0
  190.0910  178.5700  144.4900 N   0  0  0  0  0  2  0  0  0  0  0  0
  189.0610  178.0140  145.3620 C   0  0  2  0  0  3  0  0  0  0  0  0
  189.6580  176.9140  146.2180 C   0  0  0  0  0  1  0  0  0  0  0  0
  186.5420  177.6530  144.8990 C   0  0  0  0  0  0  0  0  0  0  0  0
  187.9370  177.5020  144.5820 N   0  0  0  0  0  2  0  0  0  0  0  0
  185.6980  177.0170  144.2220 O   0  0  0  0  0  0  0  0  0  0  0  0
  186.0790  178.5640  146.0100 C   0  0  0  0  0  2  0  0  0  0  0  0
  185.3870  179.8010  145.4260 C   0  0  0  0  0  2  0  0  0  0  0  0
  184.5630  179.4530  144.1760 C   0  0  0  0  0  2  0  0  0  0  0  0
  183.1260  179.0130  144.4320 C   0  0  0  0  0  2  0  0  0  0  0  0
  182.2760  179.1210  143.1760 C   0  0  0  0  0  2  0  0  0  0  0  0
  180.8470  178.7300  143.4880 C   0  0  0  0  0  2  0  0  0  0  0  0
  179.2780  177.6850  141.9450 C   0  0  0  0  0  2  0  0  0  0  0  0
  180.0430  178.7520  142.2410 C   0  0  0  0  0  0  0  0  0  0  0  0
  179.7610  180.0260  141.5280 C   0  0  0  0  0  2  0  0  0  0  0  0
  179.6380  180.8090  139.1870 C   0  0  1  0  0  3  0  0  0  0  0  0
  179.7240  179.2880  139.1560 C   0  0  0  0  0  2  0  0  0  0  0  0
  180.5000  180.0640  140.1980 C   0  0  2  0  0  3  0  0  0  0  0  0
  179.9990  182.9970  137.9650 C   0  0  0  0  0  2  0  0  0  0  0  0
  180.4790  181.5280  138.1080 C   0  0  0  0  0  0  0  0  0  0  0  0
  180.2370  182.9080  135.4860 C   0  0  0  0  0  2  0  0  0  0  0  0
  180.2050  180.7810  136.7930 C   0  0  0  0  0  2  0  0  0  0  0  0
  180.5970  183.6930  136.7440 C   0  0  0  0  0  2  0  0  0  0  0  0
  181.9940  181.5070  138.3920 C   0  0  0  0  0  1  0  0  0  0  0  0
  180.7970  181.4890  135.5800 C   0  0  0  0  0  2  0  0  0  0  0  0
  1 39  1  0  0  0  0
  2  1  1  0  0  0  0
  3  5  1  0  0  0  0
  3  4  1  0  0  0  0
  4  1  2  0  0  0  0
  5  2  2  0  0  0  0
  6 16  1  0  0  0  0
  8 29  1  6  0  0  0
  8 19  1  0  0  0  0
  8 12  1  0  0  0  0
  9 13  1  0  0  0  0
 10  8  1  0  0  0  0
 10 19  1  0  0  0  0
 10 17  1  0  0  0  0
 12  7  1  0  0  0  0
 13  6  1  0  0  0  0
 13 18  1  0  0  0  0
 14 31  1  0  0  0  0
 14 15  1  0  0  0  0
 15  3  1  0  0  0  0
 16 11  1  0  0  0  0
 16 19  1  0  0  0  0
 17 15  1  0  0  0  0
 17  7  1  0  0  0  0
 18 14  1  0  0  0  0
 20 23  1  0  0  0  0
 20 12  1  0  0  0  0
 22 27  1  0  0  0  0
 22 24  2  0  0  0  0
 24 20  1  0  0  0  0
 25 21  1  0  0  0  0
 25 23  2  0  0  0  0
 26 22  1  0  0  0  0
 27 25  1  0  0  0  0
 28 29  1  0  0  0  0
 29 30  1  0  0  0  0
 31 32  1  0  0  0  0
 33 32  1  0  0  0  0
 34 33  1  0  0  0  0
 35 33  1  0  0  0  0
 36 37  1  0  0  0  0
 36 35  1  0  0  0  0
 37 38  2  0  0  0  0
 39 40  1  0  0  0  0
 40 43  1  0  0  0  0
 41 40  1  0  0  0  0
 42 41  1  0  0  0  0
 43 44  1  0  0  0  0
 44 45  1  0  0  0  0
 46 49  1  0  0  0  0
 47 46  1  0  0  0  0
 47 44  1  0  0  0  0
 48 46  2  0  0  0  0
 50 49  1  0  0  0  0
 51 52  1  0  0  0  0
 51 50  1  0  0  0  0
 53 54  1  0  0  0  0
 53 52  1  0  0  0  0
 55 56  2  0  0  0  0
 56 54  1  0  0  0  0
 57 56  1  0  0  0  0
 58 60  1  0  0  0  0
 59 58  1  0  0  0  0
 59 60  1  0  0  0  0
 60 57  1  0  0  0  0
 61 62  1  0  0  0  0
 62 66  1  0  0  0  0
 62 58  1  0  0  0  0
 63 67  1  0  0  0  0
 63 65  1  0  0  0  0
 64 62  1  0  0  0  0
 65 61  1  0  0  0  0
 67 64  1  0  0  0  0
M  END
>  <MODEL>
5

>  <REMARK>
 VINA RESULT:      -3.7      4.264     11.184
  Name = 
  25 active torsions:
  status: ('A' for Active; 'I' for Inactive)
    1  A    between atoms: C_1  and  C_5
    2  A    between atoms: C_1  and  C_47
    3  A    between atoms: C_2  and  C_5
    4  A    between atoms: C_2  and  C_62
    5  A    between atoms: C_3  and  C_54
    6  A    between atoms: C_6  and  C_28
    7  A    between atoms: C_8  and  C_25
    8  A    between atoms: C_12  and  C_31
    9  A    between atoms: C_12  and  C_51
   10  A    between atoms: C_13  and  C_24
   11  A    between atoms: C_17  and  C_19
   12  A    between atoms: C_21  and  C_62
   13  A    between atoms: C_24  and  C_35
   14  A    between atoms: N_27  and  C_35
   15  A    between atoms: C_29  and  C_45
   16  A    between atoms: C_29  and  C_51
   17  A    between atoms: C_31  and  C_56
   18  A    between atoms: C_35  and  N_57
   19  A    between atoms: C_38  and  C_67
   20  A    between atoms: C_39  and  C_47
   21  A    between atoms: C_41  and  N_44
   22  A    between atoms: C_41  and  N_57
   23  A    between atoms: C_45  and  C_67
   24  A    between atoms: N_49  and  C_58
   25  A    between atoms: C_54  and  C_56
                            x       y       z     vdW  Elec       q    Type
                         _______ _______ _______ _____ _____    ______ ____

>  <TORSDO>
F 25

$$$$
=
 OpenBabel11062416123D

 67 73  0  0  1  0  0  0  0  0999 V2000
  186.4360  178.2390  138.2260 C   0  0  0  0  0  0  0  0  0  0  0  0
  185.4690  179.2310  138.1510 C   0  0  0  0  0  3  0  0  0  0  0  0
  184.4610  177.3490  138.5810 N   0  0  0  0  0  0  0  0  0  0  0  0
  185.7690  177.0650  138.4580 C   0  0  0  0  0  3  0  0  0  0  0  0
  184.2720  178.6490  138.3810 N   0  0  0  0  0  0  0  0  0  0  0  0
  182.0970  177.1100  134.9310 C   0  0  0  0  0  2  0  0  0  0  0  0
  182.0670  178.1110  139.7820 O   0  0  0  0  0  0  0  0  0  0  0  0
  180.4300  178.4030  138.0870 C   0  0  1  0  0  0  0  0  0  0  0  0
  182.5480  174.7770  134.5940 O   0  0  0  0  0  1  0  0  0  0  0  0
  181.0030  177.0850  137.8970 C   0  0  2  0  0  3  0  0  0  0  0  0
  180.9450  179.2710  134.9610 C   0  0  0  0  0  1  0  0  0  0  0  0
  180.9130  178.8590  139.4640 C   0  0  1  0  0  3  0  0  0  0  0  0
  182.3920  175.7610  135.5770 C   0  0  1  0  0  3  0  0  0  0  0  0
  183.3620  175.2980  137.5630 C   0  0  1  0  0  3  0  0  0  0  0  0
  183.3620  176.3610  138.6740 C   0  0  2  0  0  3  0  0  0  0  0  0
  181.0910  177.9550  135.7160 C   0  0  2  0  0  3  0  0  0  0  0  0
  181.9530  176.8910  139.0900 C   0  0  1  0  0  3  0  0  0  0  0  0
  183.5850  175.8880  136.3070 O   0  0  0  0  0  0  0  0  0  0  0  0
  181.5380  178.2070  137.0970 N   0  0  1  0  0  0  0  0  0  0  0  0
  179.9300  178.6750  140.6320 C   0  0  1  0  0  3  0  0  0  0  0  0
  179.5570  176.0880  143.2620 F   0  0  0  0  0  0  0  0  0  0  0  0
  179.4440  179.7340  142.7490 C   0  0  0  0  0  0  0  0  0  0  0  0
  180.0120  177.3580  141.3630 C   0  0  0  0  0  3  0  0  0  0  0  0
  179.8150  179.8490  141.5120 N   0  0  0  0  0  0  0  0  0  0  0  0
  179.6100  177.2900  142.6280 C   0  0  0  0  0  0  0  0  0  0  0  0
  179.3070  180.8490  143.5150 F   0  0  0  0  0  0  0  0  0  0  0  0
  179.2850  178.4680  143.3330 O   0  0  0  0  0  0  0  0  0  0  0  0
  179.0390  180.4540  137.3360 C   0  0  0  0  0  1  0  0  0  0  0  0
  179.1380  178.9360  137.4360 C   0  0  0  0  0  3  0  0  0  0  0  0
  178.9320  178.3100  136.0630 C   0  0  0  0  0  1  0  0  0  0  0  0
  184.4770  174.3100  137.8430 C   0  0  0  0  0  2  0  0  0  0  0  0
  183.9250  172.9250  138.1200 C   0  0  0  0  0  2  0  0  0  0  0  0
  184.4440  171.9630  137.0530 C   0  0  1  0  0  3  0  0  0  0  0  0
  183.4600  170.8290  136.8170 C   0  0  0  0  0  1  0  0  0  0  0  0
  184.8160  172.6960  135.7540 C   0  0  0  0  0  2  0  0  0  0  0  0
  185.6850  171.8880  134.7940 C   0  0  0  0  0  2  0  0  0  0  0  0
  187.0190  171.5710  135.3930 C   0  0  0  0  0  3  0  0  0  0  0  0
  187.7520  170.6080  134.8260 C   0  0  0  0  0  2  0  0  0  0  0  0
  187.9180  178.3110  137.9450 C   0  0  0  0  0  2  0  0  0  0  0  0
  188.5990  177.0610  137.3720 C   0  0  1  0  0  3  0  0  0  0  0  0
  188.3160  176.8030  135.9620 N   0  0  0  0  0  2  0  0  0  0  0  0
  187.5870  175.5450  135.8740 C   0  0  0  0  0  1  0  0  0  0  0  0
  190.0300  176.9500  137.7220 N   0  0  0  0  0  2  0  0  0  0  0  0
  190.2670  177.1950  139.1410 C   0  0  2  0  0  3  0  0  0  0  0  0
  191.2550  176.1780  139.6760 C   0  0  0  0  0  1  0  0  0  0  0  0
  188.8270  177.5480  141.2600 C   0  0  0  0  0  0  0  0  0  0  0  0
  189.0160  177.1390  139.8950 N   0  0  0  0  0  2  0  0  0  0  0  0
  187.7360  177.2850  141.8230 O   0  0  0  0  0  0  0  0  0  0  0  0
  189.9000  178.2910  142.0190 C   0  0  0  0  0  2  0  0  0  0  0  0
  191.0870  177.3620  142.3040 C   0  0  0  0  0  2  0  0  0  0  0  0
  190.8840  176.5640  143.6010 C   0  0  0  0  0  2  0  0  0  0  0  0
  190.1570  177.2980  144.7220 C   0  0  0  0  0  2  0  0  0  0  0  0
  190.9160  177.2040  146.0370 C   0  0  0  0  0  2  0  0  0  0  0  0
  190.1310  177.8920  147.1340 C   0  0  0  0  0  2  0  0  0  0  0  0
  188.8540  175.9880  147.9610 C   0  0  0  0  0  2  0  0  0  0  0  0
  188.8440  177.1840  147.3400 C   0  0  0  0  0  0  0  0  0  0  0  0
  187.5440  177.8990  147.2380 C   0  0  0  0  0  2  0  0  0  0  0  0
  185.6860  177.8440  145.6100 C   0  0  1  0  0  3  0  0  0  0  0  0
  186.7190  176.8180  145.1600 C   0  0  0  0  0  2  0  0  0  0  0  0
  187.1740  178.1220  145.7790 C   0  0  2  0  0  3  0  0  0  0  0  0
  183.6710  178.0800  144.0950 C   0  0  0  0  0  2  0  0  0  0  0  0
  185.0560  178.6730  144.4680 C   0  0  0  0  0  0  0  0  0  0  0  0
  184.0900  178.4420  141.6650 C   0  0  0  0  0  2  0  0  0  0  0  0
  186.0040  178.5240  143.2670 C   0  0  0  0  0  2  0  0  0  0  0  0
  183.1050  178.6750  142.8080 C   0  0  0  0  0  2  0  0  0  0  0  0
  184.9020  180.1690  144.8050 C   0  0  0  0  0  1  0  0  0  0  0  0
  185.4250  179.1130  141.9850 C   0  0  0  0  0  2  0  0  0  0  0  0
  1  4  2  0  0  0  0
  2  1  1  0  0  0  0
  2  5  2  0  0  0  0
  3 15  1  0  0  0  0
  4  3  1  0  0  0  0
  5  3  1  0  0  0  0
  6 13  1  0  0  0  0
  6 16  1  0  0  0  0
  8 29  1  6  0  0  0
  8 12  1  0  0  0  0
  9 13  1  0  0  0  0
 10  8  1  0  0  0  0
 10 17  1  0  0  0  0
 11 16  1  0  0  0  0
 12  7  1  0  0  0  0
 12 20  1  0  0  0  0
 13 18  1  0  0  0  0
 14 31  1  0  0  0  0
 14 15  1  0  0  0  0
 15 17  1  0  0  0  0
 16 19  1  0  0  0  0
 17  7  1  0  0  0  0
 18 14  1  0  0  0  0
 19 10  1  0  0  0  0
 19  8  1  0  0  0  0
 20 23  1  0  0  0  0
 20 24  1  0  0  0  0
 22 27  1  0  0  0  0
 22 26  1  0  0  0  0
 23 25  2  0  0  0  0
 24 22  2  0  0  0  0
 25 21  1  0  0  0  0
 25 27  1  0  0  0  0
 28 29  1  0  0  0  0
 30 29  1  0  0  0  0
 31 32  1  0  0  0  0
 33 32  1  0  0  0  0
 34 33  1  0  0  0  0
 35 33  1  0  0  0  0
 36 37  1  0  0  0  0
 36 35  1  0  0  0  0
 38 37  2  0  0  0  0
 39  1  1  0  0  0  0
 40 43  1  0  0  0  0
 40 39  1  0  0  0  0
 41 40  1  0  0  0  0
 42 41  1  0  0  0  0
 43 44  1  0  0  0  0
 44 45  1  0  0  0  0
 44 47  1  0  0  0  0
 46 48  2  0  0  0  0
 46 49  1  0  0  0  0
 47 46  1  0  0  0  0
 49 50  1  0  0  0  0
 50 51  1  0  0  0  0
 51 52  1  0  0  0  0
 52 53  1  0  0  0  0
 53 54  1  0  0  0  0
 54 56  1  0  0  0  0
 56 55  2  0  0  0  0
 57 56  1  0  0  0  0
 58 60  1  0  0  0  0
 59 58  1  0  0  0  0
 59 60  1  0  0  0  0
 60 57  1  0  0  0  0
 61 62  1  0  0  0  0
 62 66  1  0  0  0  0
 62 58  1  0  0  0  0
 63 67  1  0  0  0  0
 63 65  1  0  0  0  0
 64 62  1  0  0  0  0
 65 61  1  0  0  0  0
 67 64  1  0  0  0  0
M  END
>  <MODEL>
6

>  <REMARK>
 VINA RESULT:      -3.4      2.220      4.787
  Name = 
  25 active torsions:
  status: ('A' for Active; 'I' for Inactive)
    1  A    between atoms: C_1  and  C_5
    2  A    between atoms: C_1  and  C_47
    3  A    between atoms: C_2  and  C_5
    4  A    between atoms: C_2  and  C_62
    5  A    between atoms: C_3  and  C_54
    6  A    between atoms: C_6  and  C_28
    7  A    between atoms: C_8  and  C_25
    8  A    between atoms: C_12  and  C_31
    9  A    between atoms: C_12  and  C_51
   10  A    between atoms: C_13  and  C_24
   11  A    between atoms: C_17  and  C_19
   12  A    between atoms: C_21  and  C_62
   13  A    between atoms: C_24  and  C_35
   14  A    between atoms: N_27  and  C_35
   15  A    between atoms: C_29  and  C_45
   16  A    between atoms: C_29  and  C_51
   17  A    between atoms: C_31  and  C_56
   18  A    between atoms: C_35  and  N_57
   19  A    between atoms: C_38  and  C_67
   20  A    between atoms: C_39  and  C_47
   21  A    between atoms: C_41  and  N_44
   22  A    between atoms: C_41  and  N_57
   23  A    between atoms: C_45  and  C_67
   24  A    between atoms: N_49  and  C_58
   25  A    between atoms: C_54  and  C_56
                            x       y       z     vdW  Elec       q    Type
                         _______ _______ _______ _____ _____    ______ ____

>  <TORSDO>
F 25

$$$$
=
 OpenBabel11062416123D

 67 73  0  0  1  0  0  0  0  0999 V2000
  186.6520  177.8960  137.5130 C   0  0  0  0  0  0  0  0  0  0  0  0
  186.3240  177.4200  136.2520 C   0  0  0  0  0  3  0  0  0  0  0  0
  184.6950  176.9060  137.6030 N   0  0  0  0  0  0  0  0  0  0  0  0
  185.6290  177.5240  138.3450 C   0  0  0  0  0  3  0  0  0  0  0  0
  185.1140  176.8250  136.3460 N   0  0  0  0  0  0  0  0  0  0  0  0
  181.1860  177.4630  135.0840 C   0  0  0  0  0  2  0  0  0  0  0  0
  183.1600  178.1320  139.5770 O   0  0  0  0  0  0  0  0  0  0  0  0
  181.1430  178.9080  138.5930 C   0  0  1  0  0  0  0  0  0  0  0  0
  180.9050  175.1150  134.6700 O   0  0  0  0  0  1  0  0  0  0  0  0
  181.2710  177.5070  138.2430 C   0  0  2  0  0  3  0  0  0  0  0  0
  180.6840  179.8280  135.4740 C   0  0  0  0  0  1  0  0  0  0  0  0
  182.1870  179.1490  139.6840 C   0  0  1  0  0  3  0  0  0  0  0  0
  181.3600  176.0430  135.6140 C   0  0  1  0  0  3  0  0  0  0  0  0
  182.8400  175.2400  137.1170 C   0  0  1  0  0  3  0  0  0  0  0  0
  183.5000  176.2000  138.1210 C   0  0  2  0  0  3  0  0  0  0  0  0
  180.7700  178.4690  136.1590 C   0  0  2  0  0  3  0  0  0  0  0  0
  182.5110  177.0190  139.0100 C   0  0  1  0  0  3  0  0  0  0  0  0
  182.7280  175.8400  135.8510 O   0  0  0  0  0  0  0  0  0  0  0  0
  181.7340  178.5200  137.2720 N   0  0  1  0  0  0  0  0  0  0  0  0
  181.6810  179.1280  141.1360 C   0  0  1  0  0  3  0  0  0  0  0  0
  178.9780  180.9370  142.9160 F   0  0  0  0  0  0  0  0  0  0  0  0
  180.5170  177.6050  142.6060 C   0  0  0  0  0  0  0  0  0  0  0  0
  180.6610  180.1800  141.4950 C   0  0  0  0  0  3  0  0  0  0  0  0
  181.3680  177.7830  141.6450 N   0  0  0  0  0  0  0  0  0  0  0  0
  179.8180  179.9530  142.4960 C   0  0  0  0  0  0  0  0  0  0  0  0
  180.2890  176.3490  143.0780 F   0  0  0  0  0  0  0  0  0  0  0  0
  179.7530  178.6760  143.0940 O   0  0  0  0  0  0  0  0  0  0  0  0
  178.9890  179.8400  139.6870 C   0  0  0  0  0  1  0  0  0  0  0  0
  179.8740  179.7700  138.4470 C   0  0  0  0  0  3  0  0  0  0  0  0
  180.2300  181.1760  137.9830 C   0  0  0  0  0  1  0  0  0  0  0  0
  183.7050  174.0010  136.9960 C   0  0  0  0  0  2  0  0  0  0  0  0
  183.6390  173.4210  135.5970 C   0  0  0  0  0  2  0  0  0  0  0  0
  184.1400  171.9780  135.6360 C   0  0  1  0  0  3  0  0  0  0  0  0
  185.4220  171.8690  136.4450 C   0  0  0  0  0  1  0  0  0  0  0  0
  183.0520  171.0090  136.1270 C   0  0  0  0  0  2  0  0  0  0  0  0
  181.7090  171.1460  135.4130 C   0  0  0  0  0  2  0  0  0  0  0  0
  181.0130  169.8270  135.2930 C   0  0  0  0  0  3  0  0  0  0  0  0
  179.8070  169.6970  135.8540 C   0  0  0  0  0  2  0  0  0  0  0  0
  187.9280  178.5390  138.0010 C   0  0  0  0  0  2  0  0  0  0  0  0
  188.4320  178.1590  139.3990 C   0  0  1  0  0  3  0  0  0  0  0  0
  187.4550  178.3370  140.4710 N   0  0  0  0  0  2  0  0  0  0  0  0
  188.1610  178.2490  141.7420 C   0  0  0  0  0  1  0  0  0  0  0  0
  189.1370  176.8620  139.4460 N   0  0  0  0  0  2  0  0  0  0  0  0
  190.0000  176.6670  138.2850 C   0  0  2  0  0  3  0  0  0  0  0  0
  189.8430  175.2530  137.7650 C   0  0  0  0  0  1  0  0  0  0  0  0
  191.9450  177.0490  139.9480 C   0  0  0  0  0  0  0  0  0  0  0  0
  191.3960  176.9370  138.6230 N   0  0  0  0  0  2  0  0  0  0  0  0
  193.1280  177.4480  140.0790 O   0  0  0  0  0  0  0  0  0  0  0  0
  191.1370  176.6860  141.1710 C   0  0  0  0  0  2  0  0  0  0  0  0
  192.0290  175.9920  142.2070 C   0  0  0  0  0  2  0  0  0  0  0  0
  191.3040  175.8110  143.5490 C   0  0  0  0  0  2  0  0  0  0  0  0
  192.2020  175.6970  144.7760 C   0  0  0  0  0  2  0  0  0  0  0  0
  191.8890  176.7760  145.8010 C   0  0  0  0  0  2  0  0  0  0  0  0
  191.6100  178.0870  145.0970 C   0  0  0  0  0  2  0  0  0  0  0  0
  189.4580  179.0940  144.5570 C   0  0  0  0  0  2  0  0  0  0  0  0
  190.2760  178.5920  145.5030 C   0  0  0  0  0  0  0  0  0  0  0  0
  189.6750  178.2210  146.8110 C   0  0  0  0  0  2  0  0  0  0  0  0
  187.2490  178.6920  146.7400 C   0  0  1  0  0  3  0  0  0  0  0  0
  187.4910  177.7090  147.8790 C   0  0  0  0  0  2  0  0  0  0  0  0
  188.3010  177.5980  146.6060 C   0  0  2  0  0  3  0  0  0  0  0  0
  186.3670  177.5290  144.6710 C   0  0  0  0  0  2  0  0  0  0  0  0
  185.9880  178.4060  145.8940 C   0  0  0  0  0  0  0  0  0  0  0  0
  184.8460  178.8230  143.1800 C   0  0  0  0  0  2  0  0  0  0  0  0
  185.4970  179.7750  145.3950 C   0  0  0  0  0  2  0  0  0  0  0  0
  185.2360  177.4250  143.6510 C   0  0  0  0  0  2  0  0  0  0  0  0
  184.8550  177.7240  146.6860 C   0  0  0  0  0  1  0  0  0  0  0  0
  184.3750  179.6590  144.3700 C   0  0  0  0  0  2  0  0  0  0  0  0
  1 39  1  0  0  0  0
  1  4  2  0  0  0  0
  2  5  2  0  0  0  0
  2  1  1  0  0  0  0
  3 15  1  0  0  0  0
  3  4  1  0  0  0  0
  5  3  1  0  0  0  0
  6 13  1  0  0  0  0
  6 16  1  0  0  0  0
  7 12  1  0  0  0  0
  8 29  1  1  0  0  0
  8 12  1  0  0  0  0
  9 13  1  0  0  0  0
 10  8  1  0  0  0  0
 10 17  1  0  0  0  0
 11 16  1  0  0  0  0
 12 20  1  0  0  0  0
 13 18  1  0  0  0  0
 14 15  1  0  0  0  0
 15 17  1  0  0  0  0
 16 19  1  0  0  0  0
 17  7  1  0  0  0  0
 18 14  1  0  0  0  0
 19 10  1  0  0  0  0
 19  8  1  0  0  0  0
 20 23  1  0  0  0  0
 20 24  1  0  0  0  0
 22 26  1  0  0  0  0
 22 27  1  0  0  0  0
 23 25  2  0  0  0  0
 24 22  2  0  0  0  0
 25 21  1  0  0  0  0
 25 27  1  0  0  0  0
 29 28  1  0  0  0  0
 30 29  1  0  0  0  0
 31 14  1  0  0  0  0
 32 33  1  0  0  0  0
 32 31  1  0  0  0  0
 33 35  1  0  0  0  0
 33 34  1  0  0  0  0
 36 35  1  0  0  0  0
 37 36  1  0  0  0  0
 37 38  2  0  0  0  0
 39 40  1  0  0  0  0
 40 43  1  0  0  0  0
 40 41  1  0  0  0  0
 41 42  1  0  0  0  0
 44 47  1  0  0  0  0
 44 43  1  0  0  0  0
 45 44  1  0  0  0  0
 46 48  2  0  0  0  0
 46 49  1  0  0  0  0
 47 46  1  0  0  0  0
 49 50  1  0  0  0  0
 50 51  1  0  0  0  0
 51 52  1  0  0  0  0
 52 53  1  0  0  0  0
 54 56  1  0  0  0  0
 54 53  1  0  0  0  0
 55 56  2  0  0  0  0
 56 57  1  0  0  0  0
 58 59  1  0  0  0  0
 60 58  1  0  0  0  0
 60 57  1  0  0  0  0
 60 59  1  0  0  0  0
 61 62  1  0  0  0  0
 62 66  1  0  0  0  0
 62 58  1  0  0  0  0
 63 65  1  0  0  0  0
 63 67  1  0  0  0  0
 64 62  1  0  0  0  0
 65 61  1  0  0  0  0
 67 64  1  0  0  0  0
M  END
>  <MODEL>
7

>  <REMARK>
 VINA RESULT:      -3.3      2.077      3.922
  Name = 
  25 active torsions:
  status: ('A' for Active; 'I' for Inactive)
    1  A    between atoms: C_1  and  C_5
    2  A    between atoms: C_1  and  C_47
    3  A    between atoms: C_2  and  C_5
    4  A    between atoms: C_2  and  C_62
    5  A    between atoms: C_3  and  C_54
    6  A    between atoms: C_6  and  C_28
    7  A    between atoms: C_8  and  C_25
    8  A    between atoms: C_12  and  C_31
    9  A    between atoms: C_12  and  C_51
   10  A    between atoms: C_13  and  C_24
   11  A    between atoms: C_17  and  C_19
   12  A    between atoms: C_21  and  C_62
   13  A    between atoms: C_24  and  C_35
   14  A    between atoms: N_27  and  C_35
   15  A    between atoms: C_29  and  C_45
   16  A    between atoms: C_29  and  C_51
   17  A    between atoms: C_31  and  C_56
   18  A    between atoms: C_35  and  N_57
   19  A    between atoms: C_38  and  C_67
   20  A    between atoms: C_39  and  C_47
   21  A    between atoms: C_41  and  N_44
   22  A    between atoms: C_41  and  N_57
   23  A    between atoms: C_45  and  C_67
   24  A    between atoms: N_49  and  C_58
   25  A    between atoms: C_54  and  C_56
                            x       y       z     vdW  Elec       q    Type
                         _______ _______ _______ _____ _____    ______ ____

>  <TORSDO>
F 25

$$$$
=
 OpenBabel11062416123D

 67 73  0  0  1  0  0  0  0  0999 V2000
  186.3170  177.9850  135.2090 C   0  0  0  0  0  0  0  0  0  0  0  0
  185.0810  177.8480  134.5940 C   0  0  0  0  0  3  0  0  0  0  0  0
  184.9020  177.0830  136.6240 N   0  0  0  0  0  0  0  0  0  0  0  0
  186.1810  177.4610  136.4680 C   0  0  0  0  0  3  0  0  0  0  0  0
  184.2380  177.2990  135.4940 N   0  0  0  0  0  0  0  0  0  0  0  0
  180.6680  176.1670  136.1690 C   0  0  0  0  0  2  0  0  0  0  0  0
  184.0980  178.4700  138.9010 O   0  0  0  0  0  0  0  0  0  0  0  0
  181.7240  178.5020  138.9690 C   0  0  1  0  0  0  0  0  0  0  0  0
  180.9970  173.7930  136.2970 O   0  0  0  0  0  1  0  0  0  0  0  0
  182.1230  177.1170  138.8090 C   0  0  2  0  0  3  0  0  0  0  0  0
  179.6660  178.3890  136.4120 C   0  0  0  0  0  1  0  0  0  0  0  0
  183.0050  179.2510  139.3370 C   0  0  1  0  0  3  0  0  0  0  0  0
  181.5010  175.0230  136.7380 C   0  0  1  0  0  3  0  0  0  0  0  0
  183.6620  175.0010  137.3870 C   0  0  1  0  0  3  0  0  0  0  0  0
  184.3540  176.3200  137.7700 C   0  0  2  0  0  3  0  0  0  0  0  0
  180.4740  177.3270  137.1490 C   0  0  2  0  0  3  0  0  0  0  0  0
  183.6570  177.1330  138.9070 C   0  0  1  0  0  3  0  0  0  0  0  0
  182.8170  175.1830  136.2790 O   0  0  0  0  0  0  0  0  0  0  0  0
  181.7590  177.8880  137.6020 N   0  0  1  0  0  0  0  0  0  0  0  0
  183.2310  179.5360  140.8300 C   0  0  1  0  0  3  0  0  0  0  0  0
  181.5370  178.3900  143.9240 F   0  0  0  0  0  0  0  0  0  0  0  0
  184.8810  179.0340  142.5210 C   0  0  0  0  0  0  0  0  0  0  0  0
  182.1750  179.0060  141.7700 C   0  0  0  0  0  3  0  0  0  0  0  0
  184.6130  179.3120  141.2840 N   0  0  0  0  0  0  0  0  0  0  0  0
  182.5000  178.7460  143.0320 C   0  0  0  0  0  0  0  0  0  0  0  0
  186.1760  178.8790  142.9090 F   0  0  0  0  0  0  0  0  0  0  0  0
  183.8500  178.7900  143.4410 O   0  0  0  0  0  0  0  0  0  0  0  0
  179.6390  178.2240  140.4790 C   0  0  0  0  0  1  0  0  0  0  0  0
  180.3210  179.0050  139.3600 C   0  0  0  0  0  3  0  0  0  0  0  0
  180.3590  180.4870  139.7100 C   0  0  0  0  0  1  0  0  0  0  0  0
  184.7290  173.9860  137.0270 C   0  0  0  0  0  2  0  0  0  0  0  0
  184.3590  173.2250  135.7690 C   0  0  0  0  0  2  0  0  0  0  0  0
  184.5610  171.7310  136.0180 C   0  0  1  0  0  3  0  0  0  0  0  0
  183.9380  170.9050  134.9050 C   0  0  0  0  0  1  0  0  0  0  0  0
  186.0410  171.3850  136.2470 C   0  0  0  0  0  2  0  0  0  0  0  0
  186.7200  170.6810  135.0740 C   0  0  0  0  0  2  0  0  0  0  0  0
  188.0700  171.2610  134.7910 C   0  0  0  0  0  3  0  0  0  0  0  0
  189.1000  170.4200  134.6490 C   0  0  0  0  0  2  0  0  0  0  0  0
  187.6380  178.4360  134.6340 C   0  0  0  0  0  2  0  0  0  0  0  0
  188.7740  178.7540  135.6150 C   0  0  1  0  0  3  0  0  0  0  0  0
  188.5280  178.3330  136.9920 N   0  0  0  0  0  2  0  0  0  0  0  0
  189.2640  179.2290  137.8740 C   0  0  0  0  0  1  0  0  0  0  0  0
  190.1150  178.3890  135.1120 N   0  0  0  0  0  2  0  0  0  0  0  0
  190.4980  177.0380  135.5080 C   0  0  2  0  0  3  0  0  0  0  0  0
  191.8010  176.6600  134.8320 C   0  0  0  0  0  1  0  0  0  0  0  0
  189.1470  174.8640  135.8790 C   0  0  0  0  0  0  0  0  0  0  0  0
  189.4490  176.0780  135.1700 N   0  0  0  0  0  2  0  0  0  0  0  0
  188.3270  174.0590  135.3740 O   0  0  0  0  0  0  0  0  0  0  0  0
  189.7800  174.5500  137.2140 C   0  0  0  0  0  2  0  0  0  0  0  0
  189.5860  175.7230  138.1810 C   0  0  0  0  0  2  0  0  0  0  0  0
  190.8490  176.5910  138.2800 C   0  0  0  0  0  2  0  0  0  0  0  0
  191.6830  176.4040  139.5420 C   0  0  0  0  0  2  0  0  0  0  0  0
  190.8310  176.5080  140.7970 C   0  0  0  0  0  2  0  0  0  0  0  0
  191.6850  176.9610  141.9620 C   0  0  0  0  0  2  0  0  0  0  0  0
  189.6470  176.9720  143.2960 C   0  0  0  0  0  2  0  0  0  0  0  0
  190.9650  176.7050  143.2340 C   0  0  0  0  0  0  0  0  0  0  0  0
  191.5440  175.8280  144.2860 C   0  0  0  0  0  2  0  0  0  0  0  0
  190.1450  177.4050  145.5750 C   0  0  1  0  0  3  0  0  0  0  0  0
  191.4450  177.2110  146.3460 C   0  0  0  0  0  2  0  0  0  0  0  0
  190.8260  176.0430  145.6100 C   0  0  2  0  0  3  0  0  0  0  0  0
  187.6550  177.8660  145.5810 C   0  0  0  0  0  2  0  0  0  0  0  0
  188.8720  177.4530  146.4510 C   0  0  0  0  0  0  0  0  0  0  0  0
  186.7530  179.3100  147.4010 C   0  0  0  0  0  2  0  0  0  0  0  0
  189.1270  178.5420  147.5050 C   0  0  0  0  0  2  0  0  0  0  0  0
  186.4200  178.1920  146.4180 C   0  0  0  0  0  2  0  0  0  0  0  0
  188.5660  176.1220  147.1660 C   0  0  0  0  0  1  0  0  0  0  0  0
  187.8860  178.8660  148.3280 C   0  0  0  0  0  2  0  0  0  0  0  0
  1  4  2  0  0  0  0
  2  1  1  0  0  0  0
  2  5  2  0  0  0  0
  3 15  1  0  0  0  0
  4  3  1  0  0  0  0
  5  3  1  0  0  0  0
  6 13  1  0  0  0  0
  6 16  1  0  0  0  0
  7 17  1  0  0  0  0
  7 12  1  0  0  0  0
  8 12  1  0  0  0  0
  8 29  1  1  0  0  0
  9 13  1  0  0  0  0
 10 17  1  0  0  0  0
 10  8  1  0  0  0  0
 11 16  1  0  0  0  0
 12 20  1  0  0  0  0
 14 15  1  0  0  0  0
 15 17  1  0  0  0  0
 16 19  1  0  0  0  0
 18 13  1  0  0  0  0
 18 14  1  0  0  0  0
 19 10  1  0  0  0  0
 19  8  1  0  0  0  0
 20 24  1  0  0  0  0
 20 23  1  0  0  0  0
 22 26  1  0  0  0  0
 22 27  1  0  0  0  0
 23 25  2  0  0  0  0
 24 22  2  0  0  0  0
 25 27  1  0  0  0  0
 25 21  1  0  0  0  0
 29 30  1  0  0  0  0
 29 28  1  0  0  0  0
 31 14  1  0  0  0  0
 32 33  1  0  0  0  0
 32 31  1  0  0  0  0
 33 35  1  0  0  0  0
 34 33  1  0  0  0  0
 36 35  1  0  0  0  0
 37 36  1  0  0  0  0
 38 37  2  0  0  0  0
 39  1  1  0  0  0  0
 39 40  1  0  0  0  0
 40 41  1  0  0  0  0
 41 42  1  0  0  0  0
 43 44  1  0  0  0  0
 43 40  1  0  0  0  0
 45 44  1  0  0  0  0
 46 49  1  0  0  0  0
 47 44  1  0  0  0  0
 47 46  1  0  0  0  0
 48 46  2  0  0  0  0
 49 50  1  0  0  0  0
 50 51  1  0  0  0  0
 51 52  1  0  0  0  0
 52 53  1  0  0  0  0
 53 54  1  0  0  0  0
 54 56  1  0  0  0  0
 56 55  2  0  0  0  0
 56 57  1  0  0  0  0
 57 60  1  0  0  0  0
 58 60  1  0  0  0  0
 58 59  1  0  0  0  0
 58 62  1  0  0  0  0
 60 59  1  0  0  0  0
 61 65  1  0  0  0  0
 61 62  1  0  0  0  0
 62 66  1  0  0  0  0
 62 64  1  0  0  0  0
 63 67  1  0  0  0  0
 64 67  1  0  0  0  0
 65 63  1  0  0  0  0
M  END
>  <MODEL>
8

>  <REMARK>
 VINA RESULT:      -3.2      1.106      2.260
  Name = 
  25 active torsions:
  status: ('A' for Active; 'I' for Inactive)
    1  A    between atoms: C_1  and  C_5
    2  A    between atoms: C_1  and  C_47
    3  A    between atoms: C_2  and  C_5
    4  A    between atoms: C_2  and  C_62
    5  A    between atoms: C_3  and  C_54
    6  A    between atoms: C_6  and  C_28
    7  A    between atoms: C_8  and  C_25
    8  A    between atoms: C_12  and  C_31
    9  A    between atoms: C_12  and  C_51
   10  A    between atoms: C_13  and  C_24
   11  A    between atoms: C_17  and  C_19
   12  A    between atoms: C_21  and  C_62
   13  A    between atoms: C_24  and  C_35
   14  A    between atoms: N_27  and  C_35
   15  A    between atoms: C_29  and  C_45
   16  A    between atoms: C_29  and  C_51
   17  A    between atoms: C_31  and  C_56
   18  A    between atoms: C_35  and  N_57
   19  A    between atoms: C_38  and  C_67
   20  A    between atoms: C_39  and  C_47
   21  A    between atoms: C_41  and  N_44
   22  A    between atoms: C_41  and  N_57
   23  A    between atoms: C_45  and  C_67
   24  A    between atoms: N_49  and  C_58
   25  A    between atoms: C_54  and  C_56
                            x       y       z     vdW  Elec       q    Type
                         _______ _______ _______ _____ _____    ______ ____

>  <TORSDO>
F 25

$$$$
=
 OpenBabel11062416123D

 67 73  0  0  1  0  0  0  0  0999 V2000
  186.5840  178.1320  137.5800 C   0  0  0  0  0  0  0  0  0  0  0  0
  186.3060  177.6210  136.3200 C   0  0  0  0  0  3  0  0  0  0  0  0
  184.6310  177.1310  137.6220 N   0  0  0  0  0  0  0  0  0  0  0  0
  185.5330  177.7740  138.3820 C   0  0  0  0  0  3  0  0  0  0  0  0
  185.0980  177.0210  136.3840 N   0  0  0  0  0  0  0  0  0  0  0  0
  181.2420  177.5190  134.9140 C   0  0  0  0  0  2  0  0  0  0  0  0
  182.9850  178.4190  139.4620 O   0  0  0  0  0  0  0  0  0  0  0  0
  181.0090  179.1190  138.3480 C   0  0  1  0  0  0  0  0  0  0  0  0
  181.0140  175.1510  134.5940 O   0  0  0  0  0  1  0  0  0  0  0  0
  181.1720  177.7050  138.0690 C   0  0  2  0  0  3  0  0  0  0  0  0
  180.6900  179.8910  135.1720 C   0  0  0  0  0  1  0  0  0  0  0  0
  181.9940  179.4250  139.4760 C   0  0  1  0  0  3  0  0  0  0  0  0
  181.4090  176.1270  135.5160 C   0  0  1  0  0  3  0  0  0  0  0  0
  182.8250  175.4160  137.1240 C   0  0  1  0  0  3  0  0  0  0  0  0
  183.4220  176.4300  138.1140 C   0  0  2  0  0  3  0  0  0  0  0  0
  180.7600  178.5660  135.9210 C   0  0  2  0  0  3  0  0  0  0  0  0
  182.3800  177.2730  138.9150 C   0  0  1  0  0  3  0  0  0  0  0  0
  182.7670  175.9560  135.8280 O   0  0  0  0  0  0  0  0  0  0  0  0
  181.6690  178.6820  137.0760 N   0  0  1  0  0  0  0  0  0  0  0  0
  181.4190  179.4610  140.9010 C   0  0  1  0  0  3  0  0  0  0  0  0
  179.3390  177.1020  142.8660 F   0  0  0  0  0  0  0  0  0  0  0  0
  182.2420  179.3490  143.1690 C   0  0  0  0  0  0  0  0  0  0  0  0
  180.4480  178.3590  141.2490 C   0  0  0  0  0  3  0  0  0  0  0  0
  182.4160  179.7410  141.9460 N   0  0  0  0  0  0  0  0  0  0  0  0
  180.2980  178.0020  142.5200 C   0  0  0  0  0  0  0  0  0  0  0  0
  183.1670  179.6680  144.1150 F   0  0  0  0  0  0  0  0  0  0  0  0
  181.1660  178.5150  143.5080 O   0  0  0  0  0  0  0  0  0  0  0  0
  178.9320  180.2970  139.3510 C   0  0  0  0  0  1  0  0  0  0  0  0
  179.7360  179.9530  138.1020 C   0  0  0  0  0  3  0  0  0  0  0  0
  180.0680  181.2240  137.3310 C   0  0  0  0  0  1  0  0  0  0  0  0
  183.7120  174.1870  137.1010 C   0  0  0  0  0  2  0  0  0  0  0  0
  184.4740  174.0840  135.7950 C   0  0  0  0  0  2  0  0  0  0  0  0
  184.6390  172.6090  135.4330 C   0  0  1  0  0  3  0  0  0  0  0  0
  183.3910  172.0730  134.7530 C   0  0  0  0  0  1  0  0  0  0  0  0
  185.9100  172.3630  134.6040 C   0  0  0  0  0  2  0  0  0  0  0  0
  187.1260  171.9260  135.4180 C   0  0  0  0  0  2  0  0  0  0  0  0
  188.3860  172.0150  134.6160 C   0  0  0  0  0  3  0  0  0  0  0  0
  189.5080  171.5180  135.1460 C   0  0  0  0  0  2  0  0  0  0  0  0
  187.8370  178.7970  138.0980 C   0  0  0  0  0  2  0  0  0  0  0  0
  188.2840  178.4670  139.5280 C   0  0  1  0  0  3  0  0  0  0  0  0
  187.2220  178.5330  140.5300 N   0  0  0  0  0  2  0  0  0  0  0  0
  187.5780  177.6360  141.6210 C   0  0  0  0  0  1  0  0  0  0  0  0
  189.1200  177.2530  139.6250 N   0  0  0  0  0  2  0  0  0  0  0  0
  190.0100  177.1100  138.4790 C   0  0  2  0  0  3  0  0  0  0  0  0
  189.8900  175.7090  137.9120 C   0  0  0  0  0  1  0  0  0  0  0  0
  191.9130  177.4720  140.1930 C   0  0  0  0  0  0  0  0  0  0  0  0
  191.3940  177.3930  138.8540 N   0  0  0  0  0  2  0  0  0  0  0  0
  193.0860  177.8880  140.3620 O   0  0  0  0  0  0  0  0  0  0  0  0
  191.0870  177.0560  141.3870 C   0  0  0  0  0  2  0  0  0  0  0  0
  191.8630  176.0460  142.2400 C   0  0  0  0  0  2  0  0  0  0  0  0
  191.1020  175.6880  143.5260 C   0  0  0  0  0  2  0  0  0  0  0  0
  191.9450  175.1010  144.6520 C   0  0  0  0  0  2  0  0  0  0  0  0
  191.8220  175.9190  145.9290 C   0  0  0  0  0  2  0  0  0  0  0  0
  191.9650  177.3920  145.6100 C   0  0  0  0  0  2  0  0  0  0  0  0
  190.2010  179.0540  145.3560 C   0  0  0  0  0  2  0  0  0  0  0  0
  190.7910  178.1290  146.1380 C   0  0  0  0  0  0  0  0  0  0  0  0
  190.0280  177.6270  147.3110 C   0  0  0  0  0  2  0  0  0  0  0  0
  187.6240  178.1880  147.4370 C   0  0  1  0  0  3  0  0  0  0  0  0
  187.8130  176.8340  148.1090 C   0  0  0  0  0  2  0  0  0  0  0  0
  188.6330  177.1880  146.8880 C   0  0  2  0  0  3  0  0  0  0  0  0
  186.2570  177.0580  145.6310 C   0  0  0  0  0  2  0  0  0  0  0  0
  186.3620  178.3020  146.5520 C   0  0  0  0  0  0  0  0  0  0  0  0
  185.5040  178.4540  143.7090 C   0  0  0  0  0  2  0  0  0  0  0  0
  186.5710  179.5520  145.6820 C   0  0  0  0  0  2  0  0  0  0  0  0
  185.1920  177.2180  144.5480 C   0  0  0  0  0  2  0  0  0  0  0  0
  185.0570  178.4600  147.3560 C   0  0  0  0  0  1  0  0  0  0  0  0
  185.5080  179.6970  144.5980 C   0  0  0  0  0  2  0  0  0  0  0  0
  1 39  1  0  0  0  0
  1  4  2  0  0  0  0
  2  5  2  0  0  0  0
  2  1  1  0  0  0  0
  3 15  1  0  0  0  0
  3  4  1  0  0  0  0
  5  3  1  0  0  0  0
  6 13  1  0  0  0  0
  6 16  1  0  0  0  0
  7 12  1  0  0  0  0
  8 29  1  6  0  0  0
  8 12  1  0  0  0  0
  9 13  1  0  0  0  0
 10  8  1  0  0  0  0
 10 17  1  0  0  0  0
 11 16  1  0  0  0  0
 12 20  1  0  0  0  0
 13 18  1  0  0  0  0
 14 15  1  0  0  0  0
 15 17  1  0  0  0  0
 16 19  1  0  0  0  0
 17  7  1  0  0  0  0
 18 14  1  0  0  0  0
 19 10  1  0  0  0  0
 19  8  1  0  0  0  0
 20 23  1  0  0  0  0
 20 24  1  0  0  0  0
 22 27  1  0  0  0  0
 22 26  1  0  0  0  0
 23 25  2  0  0  0  0
 24 22  2  0  0  0  0
 25 21  1  0  0  0  0
 25 27  1  0  0  0  0
 29 28  1  0  0  0  0
 30 29  1  0  0  0  0
 31 14  1  0  0  0  0
 32 31  1  0  0  0  0
 33 32  1  0  0  0  0
 34 33  1  0  0  0  0
 35 36  1  0  0  0  0
 35 33  1  0  0  0  0
 37 38  2  0  0  0  0
 37 36  1  0  0  0  0
 39 40  1  0  0  0  0
 40 43  1  0  0  0  0
 40 41  1  0  0  0  0
 41 42  1  0  0  0  0
 44 47  1  0  0  0  0
 44 43  1  0  0  0  0
 45 44  1  0  0  0  0
 46 48  2  0  0  0  0
 46 49  1  0  0  0  0
 47 46  1  0  0  0  0
 49 50  1  0  0  0  0
 50 51  1  0  0  0  0
 51 52  1  0  0  0  0
 52 53  1  0  0  0  0
 54 53  1  0  0  0  0
 54 56  1  0  0  0  0
 55 56  2  0  0  0  0
 56 57  1  0  0  0  0
 58 59  1  0  0  0  0
 60 57  1  0  0  0  0
 60 58  1  0  0  0  0
 60 59  1  0  0  0  0
 61 62  1  0  0  0  0
 62 66  1  0  0  0  0
 62 58  1  0  0  0  0
 63 65  1  0  0  0  0
 63 67  1  0  0  0  0
 64 62  1  0  0  0  0
 65 61  1  0  0  0  0
 67 64  1  0  0  0  0
M  END
>  <MODEL>
9

>  <REMARK>
 VINA RESULT:      -2.6      2.041      4.172
  Name = 
  25 active torsions:
  status: ('A' for Active; 'I' for Inactive)
    1  A    between atoms: C_1  and  C_5
    2  A    between atoms: C_1  and  C_47
    3  A    between atoms: C_2  and  C_5
    4  A    between atoms: C_2  and  C_62
    5  A    between atoms: C_3  and  C_54
    6  A    between atoms: C_6  and  C_28
    7  A    between atoms: C_8  and  C_25
    8  A    between atoms: C_12  and  C_31
    9  A    between atoms: C_12  and  C_51
   10  A    between atoms: C_13  and  C_24
   11  A    between atoms: C_17  and  C_19
   12  A    between atoms: C_21  and  C_62
   13  A    between atoms: C_24  and  C_35
   14  A    between atoms: N_27  and  C_35
   15  A    between atoms: C_29  and  C_45
   16  A    between atoms: C_29  and  C_51
   17  A    between atoms: C_31  and  C_56
   18  A    between atoms: C_35  and  N_57
   19  A    between atoms: C_38  and  C_67
   20  A    between atoms: C_39  and  C_47
   21  A    between atoms: C_41  and  N_44
   22  A    between atoms: C_41  and  N_57
   23  A    between atoms: C_45  and  C_67
   24  A    between atoms: N_49  and  C_58
   25  A    between atoms: C_54  and  C_56
                            x       y       z     vdW  Elec       q    Type
                         _______ _______ _______ _____ _____    ______ ____

>  <TORSDO>
F 25

$$$$
