=
 OpenBabel11062417193D

 60 66  0  0  1  0  0  0  0  0999 V2000
  189.5610  175.2990  137.7470 C   0  0  0  0  0  2  0  0  0  0  0  0
  187.3880  178.1750  141.5300 C   0  0  1  0  0  3  0  0  0  0  0  0
  186.9320  179.4490  142.2210 C   0  0  0  0  0  2  0  0  0  0  0  0
  191.7140  174.7210  136.9950 O   0  0  0  0  0  0  0  0  0  0  0  0
  187.5050  178.3820  140.0020 C   0  0  1  0  0  3  0  0  0  0  0  0
  188.8600  178.0120  139.4550 C   0  0  0  0  0  3  0  0  0  0  0  0
  184.7110  178.8420  141.3940 O   0  0  0  0  0  0  0  0  0  0  0  0
  188.3240  176.6320  135.9530 O   0  0  0  0  0  0  0  0  0  0  0  0
  184.9450  179.5840  140.3230 O   0  0  0  0  0  0  0  0  0  0  0  0
  190.7560  175.4720  136.8810 C   0  0  0  0  0  0  0  0  0  0  0  0
  190.7980  176.5960  135.9050 C   0  0  0  0  0  2  0  0  0  0  0  0
  185.0700  178.6980  139.2320 C   0  0  1  0  0  3  0  0  0  0  0  0
  189.4900  178.1690  134.5940 C   0  0  0  0  0  1  0  0  0  0  0  0
  186.5180  177.2070  137.9020 C   0  0  0  0  0  2  0  0  0  0  0  0
  186.2700  177.7280  139.3170 C   0  0  1  0  0  3  0  0  0  0  0  0
  185.4180  179.4440  142.4470 C   0  0  0  0  0  2  0  0  0  0  0  0
  187.0880  175.7910  137.9250 C   0  0  0  0  0  2  0  0  0  0  0  0
  189.5070  177.4280  135.9150 C   0  0  1  0  0  0  0  0  0  0  0  0
  189.2160  178.2800  138.2280 C   0  0  0  0  0  0  0  0  0  0  0  0
  188.2760  175.6220  136.9670 C   0  0  2  0  0  3  0  0  0  0  0  0
  189.5280  178.5030  136.9800 C   0  0  0  0  0  3  0  0  0  0  0  0
  188.4190  176.1000  142.2340 O   0  0  0  0  0  1  0  0  0  0  0  0
  188.5310  177.4920  142.2870 C   0  0  2  0  0  3  0  0  0  0  0  0
  188.5580  177.9350  143.6370 O   0  0  0  0  0  0  0  0  0  0  0  0
  189.7480  178.1780  144.3160 C   0  0  0  0  0  0  0  0  0  0  0  0
  190.4040  179.2400  144.1140 O   0  0  0  0  0  0  0  0  0  0  0  0
  190.2610  177.1610  145.3000 C   0  0  2  0  0  0  0  0  0  0  0  0
  191.7430  177.1840  145.6590 C   0  0  1  0  0  3  0  0  0  0  0  0
  191.9670  176.6430  146.9230 O   0  0  0  0  0  1  0  0  0  0  0  0
  191.2030  176.1010  144.7410 C   0  0  2  0  0  3  0  0  0  0  0  0
  191.5930  176.3800  143.4350 O   0  0  0  0  0  1  0  0  0  0  0  0
  189.3770  176.6260  146.2560 O   0  0  0  0  0  0  0  0  0  0  0  0
  188.6840  177.6940  146.8480 C   0  0  2  0  0  3  0  0  0  0  0  0
  188.0390  178.3550  149.0680 O   0  0  0  0  0  1  0  0  0  0  0  0
  189.1020  177.8820  148.3030 C   0  0  0  0  0  2  0  0  0  0  0  0
  187.1780  177.4990  146.7130 C   0  0  0  0  0  2  0  0  0  0  0  0
  186.5040  178.7180  146.8500 O   0  0  0  0  0  0  0  0  0  0  0  0
  185.1560  178.3740  146.9580 C   0  0  0  0  0  2  0  0  0  0  0  0
  184.4580  178.6490  145.6410 C   0  0  0  0  0  1  0  0  0  0  0  0
  183.7650  177.9450  138.9600 C   0  0  0  0  0  2  0  0  0  0  0  0
  182.8980  178.6910  137.9560 C   0  0  2  0  0  3  0  0  0  0  0  0
  182.7690  180.1480  138.3760 C   0  0  0  0  0  1  0  0  0  0  0  0
  181.5360  177.9900  137.7570 C   0  0  2  0  0  3  0  0  0  0  0  0
  179.3390  177.0450  141.6510 C   0  0  0  0  0  3  0  0  0  0  0  0
  180.8380  179.0880  141.2280 C   0  0  0  0  0  3  0  0  0  0  0  0
  180.3410  178.5190  138.5720 C   0  0  2  0  0  0  0  0  0  0  0  0
  179.7300  177.6480  139.4830 C   0  0  0  0  0  0  0  0  0  0  0  0
  180.1710  178.1590  142.1060 C   0  0  0  0  0  3  0  0  0  0  0  0
  179.4060  179.5210  137.9300 C   0  0  0  0  0  1  0  0  0  0  0  0
  180.5650  178.7690  139.9360 C   0  0  0  0  0  0  0  0  0  0  0  0
  179.0850  176.7380  140.2680 C   0  0  0  0  0  3  0  0  0  0  0  0
  181.5940  176.4600  137.6640 C   0  0  0  0  0  2  0  0  0  0  0  0
  181.6810  175.9530  136.2210 C   0  0  1  0  0  3  0  0  0  0  0  0
  183.1280  175.9230  135.7210 C   0  0  0  0  0  2  0  0  0  0  0  0
  181.8270  173.4810  136.7920 C   0  0  2  0  0  3  0  0  0  0  0  0
  181.2160  172.2460  136.5410 O   0  0  0  0  0  1  0  0  0  0  0  0
  181.0220  174.5730  136.0790 C   0  0  0  0  0  2  0  0  0  0  0  0
  183.9360  174.8320  136.4290 C   0  0  0  0  0  2  0  0  0  0  0  0
  183.2770  173.4630  136.2800 C   0  0  1  0  0  3  0  0  0  0  0  0
  184.0970  172.4430  137.0490 C   0  0  0  0  0  1  0  0  0  0  0  0
  2  3  1  0  0  0  0
  2 23  1  1  0  0  0
  3 16  1  0  0  0  0
  5  6  1  6  0  0  0
  5  2  1  0  0  0  0
  7 16  1  0  0  0  0
  8 20  1  0  0  0  0
  9  7  1  0  0  0  0
 10  4  2  0  0  0  0
 10  1  1  0  0  0  0
 11 18  1  0  0  0  0
 11 10  1  0  0  0  0
 12 40  1  1  0  0  0
 12 15  1  0  0  0  0
 12  9  1  0  0  0  0
 14 17  1  0  0  0  0
 15 14  1  6  0  0  0
 15  5  1  0  0  0  0
 18 13  1  6  0  0  0
 18  8  1  0  0  0  0
 18 21  1  0  0  0  0
 19  6  2  0  0  0  0
 20  1  1  1  0  0  0
 20 17  1  0  0  0  0
 21 19  2  0  0  0  0
 23 22  1  1  0  0  0
 23 24  1  0  0  0  0
 24 25  1  0  0  0  0
 26 25  2  0  0  0  0
 27 25  1  6  0  0  0
 27 28  1  0  0  0  0
 27 32  1  0  0  0  0
 28 29  1  1  0  0  0
 30 31  1  6  0  0  0
 30 27  1  0  0  0  0
 30 28  1  0  0  0  0
 32 33  1  0  0  0  0
 33 36  1  1  0  0  0
 33 35  1  0  0  0  0
 35 34  1  0  0  0  0
 36 37  1  0  0  0  0
 37 38  1  0  0  0  0
 39 38  1  0  0  0  0
 41 42  1  1  0  0  0
 41 40  1  0  0  0  0
 43 52  1  1  0  0  0
 43 41  1  0  0  0  0
 43 46  1  0  0  0  0
 44 48  1  0  0  0  0
 45 48  2  0  0  0  0
 46 49  1  6  0  0  0
 46 47  1  0  0  0  0
 46 50  1  0  0  0  0
 47 50  2  0  0  0  0
 47 51  1  0  0  0  0
 50 45  1  0  0  0  0
 51 44  2  0  0  0  0
 53 52  1  1  0  0  0
 54 53  1  0  0  0  0
 54 58  1  0  0  0  0
 55 56  1  6  0  0  0
 57 53  1  0  0  0  0
 57 55  1  0  0  0  0
 59 58  1  0  0  0  0
 59 55  1  0  0  0  0
 59 60  1  1  0  0  0
M  END
>  <MODEL>
1

>  <REMARK>
 VINA RESULT:      -6.7      0.000      0.000
  Name = 
  16 active torsions:
  status: ('A' for Active; 'I' for Inactive)
    1  A    between atoms: C_2  and  O_52
    2  A    between atoms: C_4  and  C_19
    3  A    between atoms: C_5  and  C_48
    4  A    between atoms: C_7  and  C_11
    5  A    between atoms: C_7  and  O_27
    6  A    between atoms: C_11  and  O_45
    7  A    between atoms: C_14  and  C_20
    8  A    between atoms: C_14  and  C_32
    9  A    between atoms: C_19  and  C_23
   10  A    between atoms: C_20  and  C_23
   11  A    between atoms: C_23  and  C_26
   12  A    between atoms: O_27  and  C_48
   13  A    between atoms: C_29  and  C_39
   14  A    between atoms: C_29  and  O_52
   15  A    between atoms: C_39  and  O_45
   16  A    between atoms: C_39  and  C_47
                            x       y       z     vdW  Elec       q    Type
                         _______ _______ _______ _____ _____    ______ ____

>  <TORSDO>
F 16

$$$$
=
 OpenBabel11062417193D

 60 66  0  0  1  0  0  0  0  0999 V2000
  190.4660  178.9870  142.5930 C   0  0  0  0  0  2  0  0  0  0  0  0
  191.3150  176.1280  138.3020 C   0  0  1  0  0  3  0  0  0  0  0  0
  191.2530  174.8940  137.4170 C   0  0  0  0  0  2  0  0  0  0  0  0
  191.3420  179.1980  144.7660 O   0  0  0  0  0  0  0  0  0  0  0  0
  190.1790  176.1190  139.3510 C   0  0  1  0  0  3  0  0  0  0  0  0
  190.6760  176.2690  140.7650 C   0  0  0  0  0  3  0  0  0  0  0  0
  189.4280  176.0660  136.2860 O   0  0  0  0  0  0  0  0  0  0  0  0
  188.0330  178.2120  142.6890 O   0  0  0  0  0  0  0  0  0  0  0  0
  188.5780  175.4500  137.0930 O   0  0  0  0  0  0  0  0  0  0  0  0
  190.4930  178.6900  144.0480 C   0  0  0  0  0  0  0  0  0  0  0  0
  189.5060  177.7320  144.6200 C   0  0  0  0  0  2  0  0  0  0  0  0
  188.0430  176.4360  137.9500 C   0  0  1  0  0  3  0  0  0  0  0  0
  187.3390  176.6710  144.3360 C   0  0  0  0  0  1  0  0  0  0  0  0
  188.2750  177.7600  140.0190 C   0  0  0  0  0  2  0  0  0  0  0  0
  189.0700  177.1090  138.8880 C   0  0  1  0  0  3  0  0  0  0  0  0
  190.5070  175.1860  136.1120 C   0  0  0  0  0  2  0  0  0  0  0  0
  188.9820  179.0070  140.5460 C   0  0  0  0  0  2  0  0  0  0  0  0
  188.5290  177.1980  143.5620 C   0  0  1  0  0  0  0  0  0  0  0  0
  189.8980  176.1080  141.8010 C   0  0  0  0  0  0  0  0  0  0  0  0
  189.0180  179.0550  142.0800 C   0  0  2  0  0  3  0  0  0  0  0  0
  189.0880  176.0030  142.8190 C   0  0  0  0  0  3  0  0  0  0  0  0
  192.7820  177.5160  139.6390 O   0  0  0  0  0  1  0  0  0  0  0  0
  192.7480  176.4400  138.7460 C   0  0  2  0  0  3  0  0  0  0  0  0
  193.5630  176.7110  137.6150 O   0  0  0  0  0  0  0  0  0  0  0  0
  194.1560  175.6980  136.8670 C   0  0  0  0  0  0  0  0  0  0  0  0
  194.0910  175.7020  135.6040 O   0  0  0  0  0  0  0  0  0  0  0  0
  194.8820  174.5830  137.5720 C   0  0  2  0  0  0  0  0  0  0  0  0
  195.9000  174.9480  138.6460 C   0  0  1  0  0  3  0  0  0  0  0  0
  196.0500  173.9190  139.5730 O   0  0  0  0  0  1  0  0  0  0  0  0
  196.3740  174.4660  137.2860 C   0  0  2  0  0  3  0  0  0  0  0  0
  196.8590  175.5540  136.5650 O   0  0  0  0  0  1  0  0  0  0  0  0
  194.2660  173.3210  137.6730 O   0  0  0  0  0  0  0  0  0  0  0  0
  194.8820  172.4660  136.7450 C   0  0  2  0  0  3  0  0  0  0  0  0
  192.6560  172.1700  135.8860 O   0  0  0  0  0  1  0  0  0  0  0  0
  193.9970  172.2540  135.5210 C   0  0  0  0  0  2  0  0  0  0  0  0
  195.2640  171.1440  137.4030 C   0  0  0  0  0  2  0  0  0  0  0  0
  196.6320  171.1140  137.6990 O   0  0  0  0  0  0  0  0  0  0  0  0
  197.0510  169.8350  137.3300 C   0  0  0  0  0  2  0  0  0  0  0  0
  197.3220  169.8030  135.8390 C   0  0  0  0  0  1  0  0  0  0  0  0
  187.2280  177.4770  137.1790 C   0  0  0  0  0  2  0  0  0  0  0  0
  186.1060  176.8220  136.3870 C   0  0  2  0  0  3  0  0  0  0  0  0
  185.7460  177.6950  135.1940 C   0  0  0  0  0  1  0  0  0  0  0  0
  184.8970  176.4920  137.2900 C   0  0  2  0  0  3  0  0  0  0  0  0
  185.5610  172.5500  135.0750 C   0  0  0  0  0  3  0  0  0  0  0  0
  185.5050  172.8500  137.6270 C   0  0  0  0  0  3  0  0  0  0  0  0
  184.1470  175.1750  137.0150 C   0  0  2  0  0  0  0  0  0  0  0  0
  184.5370  174.4150  135.9060 C   0  0  0  0  0  0  0  0  0  0  0  0
  185.8670  172.1170  136.4390 C   0  0  0  0  0  3  0  0  0  0  0  0
  182.6730  175.0910  137.3520 C   0  0  0  0  0  1  0  0  0  0  0  0
  184.8400  173.9830  137.2770 C   0  0  0  0  0  0  0  0  0  0  0  0
  184.8620  173.7650  134.7520 C   0  0  0  0  0  3  0  0  0  0  0  0
  183.9750  177.6760  137.6090 C   0  0  0  0  0  2  0  0  0  0  0  0
  184.1460  178.1950  139.0400 C   0  0  1  0  0  3  0  0  0  0  0  0
  184.0130  179.7190  139.1060 C   0  0  0  0  0  2  0  0  0  0  0  0
  181.7100  177.9540  139.7250 C   0  0  2  0  0  3  0  0  0  0  0  0
  180.8810  177.3670  140.6910 O   0  0  0  0  0  1  0  0  0  0  0  0
  183.1530  177.5160  139.9960 C   0  0  0  0  0  2  0  0  0  0  0  0
  182.5720  180.1610  138.8380 C   0  0  0  0  0  2  0  0  0  0  0  0
  181.5920  179.4850  139.7950 C   0  0  1  0  0  3  0  0  0  0  0  0
  180.1840  179.9250  139.4380 C   0  0  0  0  0  1  0  0  0  0  0  0
  1 10  1  0  0  0  0
  2 23  1  1  0  0  0
  2  5  1  0  0  0  0
  3  2  1  0  0  0  0
  5  6  1  1  0  0  0
  6 19  2  0  0  0  0
  7  9  1  0  0  0  0
  8 18  1  0  0  0  0
  9 12  1  0  0  0  0
 10 11  1  0  0  0  0
 10  4  2  0  0  0  0
 12 40  1  6  0  0  0
 12 15  1  0  0  0  0
 14 17  1  0  0  0  0
 15  5  1  0  0  0  0
 15 14  1  1  0  0  0
 16  7  1  0  0  0  0
 16  3  1  0  0  0  0
 18 13  1  1  0  0  0
 18 11  1  0  0  0  0
 19 21  2  0  0  0  0
 20 17  1  6  0  0  0
 20  1  1  0  0  0  0
 20  8  1  0  0  0  0
 21 18  1  0  0  0  0
 23 22  1  1  0  0  0
 24 23  1  0  0  0  0
 25 24  1  0  0  0  0
 26 25  2  0  0  0  0
 27 25  1  6  0  0  0
 27 32  1  0  0  0  0
 27 28  1  0  0  0  0
 28 29  1  1  0  0  0
 30 31  1  6  0  0  0
 30 27  1  0  0  0  0
 30 28  1  0  0  0  0
 33 35  1  6  0  0  0
 33 36  1  0  0  0  0
 33 32  1  0  0  0  0
 35 34  1  0  0  0  0
 36 37  1  0  0  0  0
 38 37  1  0  0  0  0
 39 38  1  0  0  0  0
 41 42  1  6  0  0  0
 41 40  1  0  0  0  0
 41 43  1  0  0  0  0
 43 52  1  6  0  0  0
 44 48  1  0  0  0  0
 46 50  1  0  0  0  0
 46 43  1  0  0  0  0
 46 49  1  1  0  0  0
 47 46  1  0  0  0  0
 47 50  2  0  0  0  0
 48 45  2  0  0  0  0
 50 45  1  0  0  0  0
 51 44  2  0  0  0  0
 51 47  1  0  0  0  0
 53 52  1  6  0  0  0
 53 54  1  0  0  0  0
 53 57  1  0  0  0  0
 55 59  1  0  0  0  0
 55 57  1  0  0  0  0
 55 56  1  1  0  0  0
 58 54  1  0  0  0  0
 58 59  1  0  0  0  0
 59 60  1  6  0  0  0
M  END
>  <MODEL>
2

>  <REMARK>
 VINA RESULT:      -6.1      3.153      8.481
  Name = 
  16 active torsions:
  status: ('A' for Active; 'I' for Inactive)
    1  A    between atoms: C_2  and  O_52
    2  A    between atoms: C_4  and  C_19
    3  A    between atoms: C_5  and  C_48
    4  A    between atoms: C_7  and  C_11
    5  A    between atoms: C_7  and  O_27
    6  A    between atoms: C_11  and  O_45
    7  A    between atoms: C_14  and  C_20
    8  A    between atoms: C_14  and  C_32
    9  A    between atoms: C_19  and  C_23
   10  A    between atoms: C_20  and  C_23
   11  A    between atoms: C_23  and  C_26
   12  A    between atoms: O_27  and  C_48
   13  A    between atoms: C_29  and  C_39
   14  A    between atoms: C_29  and  O_52
   15  A    between atoms: C_39  and  O_45
   16  A    between atoms: C_39  and  C_47
                            x       y       z     vdW  Elec       q    Type
                         _______ _______ _______ _____ _____    ______ ____

>  <TORSDO>
F 16

$$$$
=
 OpenBabel11062417193D

 60 66  0  0  1  0  0  0  0  0999 V2000
  190.4610  178.9590  142.6680 C   0  0  0  0  0  2  0  0  0  0  0  0
  191.3360  176.1510  138.3500 C   0  0  1  0  0  3  0  0  0  0  0  0
  191.2750  174.9290  137.4480 C   0  0  0  0  0  2  0  0  0  0  0  0
  191.3150  179.1350  144.8540 O   0  0  0  0  0  0  0  0  0  0  0  0
  190.1890  176.1360  139.3860 C   0  0  1  0  0  3  0  0  0  0  0  0
  190.6710  176.2640  140.8080 C   0  0  0  0  0  3  0  0  0  0  0  0
  189.4710  176.1300  136.3130 O   0  0  0  0  0  0  0  0  0  0  0  0
  188.0220  178.2010  142.7280 O   0  0  0  0  0  0  0  0  0  0  0  0
  188.6080  175.5100  137.1020 O   0  0  0  0  0  0  0  0  0  0  0  0
  190.4700  178.6430  144.1200 C   0  0  0  0  0  0  0  0  0  0  0  0
  189.4700  177.6850  144.6680 C   0  0  0  0  0  2  0  0  0  0  0  0
  188.0710  176.4880  137.9660 C   0  0  1  0  0  3  0  0  0  0  0  0
  187.2980  176.6440  144.3460 C   0  0  0  0  0  1  0  0  0  0  0  0
  188.2900  177.7830  140.0550 C   0  0  0  0  0  2  0  0  0  0  0  0
  189.0930  177.1410  138.9240 C   0  0  1  0  0  3  0  0  0  0  0  0
  190.5460  175.2440  136.1390 C   0  0  0  0  0  2  0  0  0  0  0  0
  189.0000  179.0170  140.6060 C   0  0  0  0  0  2  0  0  0  0  0  0
  188.5000  177.1720  143.5930 C   0  0  1  0  0  0  0  0  0  0  0  0
  189.8800  176.0950  141.8330 C   0  0  0  0  0  0  0  0  0  0  0  0
  189.0190  179.0450  142.1410 C   0  0  2  0  0  3  0  0  0  0  0  0
  189.0580  175.9830  142.8400 C   0  0  0  0  0  3  0  0  0  0  0  0
  192.7900  177.4480  139.7880 O   0  0  0  0  0  1  0  0  0  0  0  0
  192.7660  176.4470  138.8140 C   0  0  2  0  0  3  0  0  0  0  0  0
  193.5740  176.8170  137.7060 O   0  0  0  0  0  0  0  0  0  0  0  0
  194.1190  175.8760  136.8350 C   0  0  0  0  0  0  0  0  0  0  0  0
  194.1020  176.0650  135.5850 O   0  0  0  0  0  0  0  0  0  0  0  0
  194.7310  174.6190  137.3920 C   0  0  2  0  0  0  0  0  0  0  0  0
  195.7550  174.7470  138.5130 C   0  0  1  0  0  3  0  0  0  0  0  0
  195.7970  173.5960  139.2960 O   0  0  0  0  0  1  0  0  0  0  0  0
  196.2130  174.4100  137.1050 C   0  0  2  0  0  3  0  0  0  0  0  0
  196.8040  175.5360  136.5400 O   0  0  0  0  0  1  0  0  0  0  0  0
  194.0070  173.4130  137.3180 O   0  0  0  0  0  0  0  0  0  0  0  0
  194.4000  172.7460  136.1460 C   0  0  2  0  0  3  0  0  0  0  0  0
  192.1730  172.1040  135.5030 O   0  0  0  0  0  1  0  0  0  0  0  0
  193.3040  172.8030  135.0870 C   0  0  0  0  0  2  0  0  0  0  0  0
  194.8120  171.3110  136.4580 C   0  0  0  0  0  2  0  0  0  0  0  0
  196.2020  171.1650  136.3790 O   0  0  0  0  0  0  0  0  0  0  0  0
  196.5510  170.4280  137.5110 C   0  0  0  0  0  2  0  0  0  0  0  0
  195.2980  169.8670  138.1550 C   0  0  0  0  0  1  0  0  0  0  0  0
  187.2730  177.5450  137.2000 C   0  0  0  0  0  2  0  0  0  0  0  0
  186.4510  176.9150  136.0850 C   0  0  2  0  0  3  0  0  0  0  0  0
  186.2520  177.9240  134.9640 C   0  0  0  0  0  1  0  0  0  0  0  0
  185.1270  176.3280  136.6220 C   0  0  2  0  0  3  0  0  0  0  0  0
  180.7620  177.0030  137.7960 C   0  0  0  0  0  3  0  0  0  0  0  0
  182.5500  175.8610  139.2470 C   0  0  0  0  0  3  0  0  0  0  0  0
  184.3080  177.2010  137.5910 C   0  0  2  0  0  0  0  0  0  0  0  0
  182.9540  177.4120  137.3030 C   0  0  0  0  0  0  0  0  0  0  0  0
  181.1770  176.1320  138.8960 C   0  0  0  0  0  3  0  0  0  0  0  0
  184.9930  178.3570  138.2890 C   0  0  0  0  0  1  0  0  0  0  0  0
  183.3760  176.5400  138.4080 C   0  0  0  0  0  0  0  0  0  0  0  0
  181.6750  177.6950  136.9250 C   0  0  0  0  0  3  0  0  0  0  0  0
  185.1790  174.8460  137.0160 C   0  0  0  0  0  2  0  0  0  0  0  0
  184.8890  173.9070  135.8410 C   0  0  1  0  0  3  0  0  0  0  0  0
  184.8090  172.4470  136.2940 C   0  0  0  0  0  2  0  0  0  0  0  0
  182.3550  174.0800  135.9550 C   0  0  2  0  0  3  0  0  0  0  0  0
  181.2290  174.3960  135.1840 O   0  0  0  0  0  1  0  0  0  0  0  0
  183.6070  174.3240  135.1050 C   0  0  0  0  0  2  0  0  0  0  0  0
  183.5590  172.1980  137.1430 C   0  0  0  0  0  2  0  0  0  0  0  0
  182.2900  172.6100  136.4020 C   0  0  1  0  0  3  0  0  0  0  0  0
  181.1000  172.3880  137.3180 C   0  0  0  0  0  1  0  0  0  0  0  0
  1 10  1  0  0  0  0
  2 23  1  1  0  0  0
  2  5  1  0  0  0  0
  3  2  1  0  0  0  0
  5  6  1  1  0  0  0
  6 19  2  0  0  0  0
  7  9  1  0  0  0  0
  8 18  1  0  0  0  0
  9 12  1  0  0  0  0
 10 11  1  0  0  0  0
 10  4  2  0  0  0  0
 12 40  1  6  0  0  0
 12 15  1  0  0  0  0
 14 17  1  0  0  0  0
 15  5  1  0  0  0  0
 15 14  1  1  0  0  0
 16  7  1  0  0  0  0
 16  3  1  0  0  0  0
 18 13  1  1  0  0  0
 18 11  1  0  0  0  0
 19 21  2  0  0  0  0
 20 17  1  6  0  0  0
 20  1  1  0  0  0  0
 20  8  1  0  0  0  0
 21 18  1  0  0  0  0
 23 22  1  1  0  0  0
 24 23  1  0  0  0  0
 25 24  1  0  0  0  0
 26 25  2  0  0  0  0
 27 25  1  6  0  0  0
 27 28  1  0  0  0  0
 28 29  1  1  0  0  0
 30 31  1  6  0  0  0
 30 27  1  0  0  0  0
 30 28  1  0  0  0  0
 32 27  1  0  0  0  0
 33 35  1  6  0  0  0
 33 36  1  0  0  0  0
 33 32  1  0  0  0  0
 35 34  1  0  0  0  0
 37 36  1  0  0  0  0
 37 38  1  0  0  0  0
 38 39  1  0  0  0  0
 41 42  1  6  0  0  0
 41 43  1  0  0  0  0
 41 40  1  0  0  0  0
 43 52  1  1  0  0  0
 43 46  1  0  0  0  0
 44 48  1  0  0  0  0
 46 49  1  1  0  0  0
 46 50  1  0  0  0  0
 47 46  1  0  0  0  0
 47 50  2  0  0  0  0
 48 45  2  0  0  0  0
 50 45  1  0  0  0  0
 51 47  1  0  0  0  0
 51 44  2  0  0  0  0
 53 54  1  0  0  0  0
 53 52  1  1  0  0  0
 54 58  1  0  0  0  0
 55 56  1  6  0  0  0
 55 59  1  0  0  0  0
 57 53  1  0  0  0  0
 57 55  1  0  0  0  0
 59 58  1  0  0  0  0
 59 60  1  1  0  0  0
M  END
>  <MODEL>
3

>  <REMARK>
 VINA RESULT:      -5.6      2.938      7.817
  Name = 
  16 active torsions:
  status: ('A' for Active; 'I' for Inactive)
    1  A    between atoms: C_2  and  O_52
    2  A    between atoms: C_4  and  C_19
    3  A    between atoms: C_5  and  C_48
    4  A    between atoms: C_7  and  C_11
    5  A    between atoms: C_7  and  O_27
    6  A    between atoms: C_11  and  O_45
    7  A    between atoms: C_14  and  C_20
    8  A    between atoms: C_14  and  C_32
    9  A    between atoms: C_19  and  C_23
   10  A    between atoms: C_20  and  C_23
   11  A    between atoms: C_23  and  C_26
   12  A    between atoms: O_27  and  C_48
   13  A    between atoms: C_29  and  C_39
   14  A    between atoms: C_29  and  O_52
   15  A    between atoms: C_39  and  O_45
   16  A    between atoms: C_39  and  C_47
                            x       y       z     vdW  Elec       q    Type
                         _______ _______ _______ _____ _____    ______ ____

>  <TORSDO>
F 16

$$$$
=
 OpenBabel11062417193D

 60 66  0  0  1  0  0  0  0  0999 V2000
  188.5120  177.0030  144.6700 C   0  0  0  0  0  2  0  0  0  0  0  0
  186.2980  178.4170  140.1530 C   0  0  1  0  0  3  0  0  0  0  0  0
  186.1320  179.2280  138.8790 C   0  0  0  0  0  2  0  0  0  0  0  0
  188.6050  177.7610  146.8960 O   0  0  0  0  0  0  0  0  0  0  0  0
  187.7610  178.4600  140.6540 C   0  0  1  0  0  3  0  0  0  0  0  0
  187.8850  178.9220  142.0830 C   0  0  0  0  0  3  0  0  0  0  0  0
  187.1640  177.3010  137.7800 O   0  0  0  0  0  0  0  0  0  0  0  0
  190.8370  177.0750  143.6120 O   0  0  0  0  0  0  0  0  0  0  0  0
  188.3400  177.8920  137.9250 O   0  0  0  0  0  0  0  0  0  0  0  0
  189.1310  177.7550  145.7920 C   0  0  0  0  0  0  0  0  0  0  0  0
  190.3740  178.5410  145.5510 C   0  0  0  0  0  2  0  0  0  0  0  0
  189.0620  177.1350  138.8730 C   0  0  1  0  0  3  0  0  0  0  0  0
  192.3340  178.8200  144.1440 C   0  0  0  0  0  1  0  0  0  0  0  0
  189.5580  176.6760  141.2460 C   0  0  0  0  0  2  0  0  0  0  0  0
  188.4480  177.1110  140.2910 C   0  0  1  0  0  3  0  0  0  0  0  0
  186.2240  178.3340  137.6390 C   0  0  0  0  0  2  0  0  0  0  0  0
  188.9920  175.9120  142.4410 C   0  0  0  0  0  2  0  0  0  0  0  0
  190.8760  178.4130  144.1060 C   0  0  1  0  0  0  0  0  0  0  0  0
  189.0380  179.1950  142.6320 C   0  0  0  0  0  0  0  0  0  0  0  0
  189.5950  176.3800  143.7730 C   0  0  2  0  0  3  0  0  0  0  0  0
  190.2050  179.4030  143.1780 C   0  0  0  0  0  3  0  0  0  0  0  0
  184.7660  177.4890  141.7840 O   0  0  0  0  0  1  0  0  0  0  0  0
  185.1560  178.6690  141.1430 C   0  0  2  0  0  3  0  0  0  0  0  0
  184.0490  179.2560  140.4740 O   0  0  0  0  0  0  0  0  0  0  0  0
  182.9010  178.5340  140.1600 C   0  0  0  0  0  0  0  0  0  0  0  0
  182.9760  177.3200  139.8110 O   0  0  0  0  0  0  0  0  0  0  0  0
  181.5570  179.2070  140.2340 C   0  0  2  0  0  0  0  0  0  0  0  0
  180.4920  178.8120  139.2170 C   0  0  1  0  0  3  0  0  0  0  0  0
  179.2100  179.0330  139.7140 O   0  0  0  0  0  1  0  0  0  0  0  0
  181.2110  180.1430  139.0810 C   0  0  2  0  0  3  0  0  0  0  0  0
  182.1290  180.0570  138.0390 O   0  0  0  0  0  1  0  0  0  0  0  0
  181.1100  179.7100  141.4710 O   0  0  0  0  0  0  0  0  0  0  0  0
  181.2930  178.7060  142.4350 C   0  0  2  0  0  3  0  0  0  0  0  0
  179.9040  177.6320  144.0790 O   0  0  0  0  0  1  0  0  0  0  0  0
  179.9820  177.9840  142.7340 C   0  0  0  0  0  2  0  0  0  0  0  0
  181.9220  179.2820  143.6980 C   0  0  0  0  0  2  0  0  0  0  0  0
  182.9570  178.4590  144.1580 O   0  0  0  0  0  0  0  0  0  0  0  0
  183.7920  179.3050  144.8890 C   0  0  0  0  0  2  0  0  0  0  0  0
  185.1520  178.6560  145.0520 C   0  0  0  0  0  1  0  0  0  0  0  0
  189.3500  175.7190  138.3680 C   0  0  0  0  0  2  0  0  0  0  0  0
  190.8370  175.5140  138.1190 C   0  0  2  0  0  3  0  0  0  0  0  0
  191.5740  176.8290  138.3190 C   0  0  0  0  0  1  0  0  0  0  0  0
  191.0940  174.8730  136.7370 C   0  0  2  0  0  3  0  0  0  0  0  0
  188.7920  171.2310  135.2110 C   0  0  0  0  0  3  0  0  0  0  0  0
  187.9660  172.8970  136.9840 C   0  0  0  0  0  3  0  0  0  0  0  0
  189.8650  174.5600  135.8620 C   0  0  2  0  0  0  0  0  0  0  0  0
  189.7790  173.2900  135.2790 C   0  0  0  0  0  0  0  0  0  0  0  0
  187.9280  171.6140  136.3280 C   0  0  0  0  0  3  0  0  0  0  0  0
  189.2480  175.6750  135.0450 C   0  0  0  0  0  1  0  0  0  0  0  0
  188.9120  173.6790  136.4000 C   0  0  0  0  0  0  0  0  0  0  0  0
  189.7900  172.0900  134.6300 C   0  0  0  0  0  3  0  0  0  0  0  0
  192.1680  173.7780  136.7110 C   0  0  0  0  0  2  0  0  0  0  0  0
  193.5590  174.3170  136.3640 C   0  0  1  0  0  3  0  0  0  0  0  0
  194.4070  174.5350  137.6200 C   0  0  0  0  0  2  0  0  0  0  0  0
  194.6630  172.0540  136.0130 C   0  0  2  0  0  3  0  0  0  0  0  0
  195.3910  171.3090  135.0770 O   0  0  0  0  0  1  0  0  0  0  0  0
  194.2780  173.3920  135.3710 C   0  0  0  0  0  2  0  0  0  0  0  0
  194.7960  173.2020  138.2640 C   0  0  0  0  0  2  0  0  0  0  0  0
  195.5140  172.2900  137.2720 C   0  0  1  0  0  3  0  0  0  0  0  0
  195.8200  170.9710  137.9580 C   0  0  0  0  0  1  0  0  0  0  0  0
  1 10  1  0  0  0  0
  2  5  1  0  0  0  0
  2 23  1  1  0  0  0
  3  2  1  0  0  0  0
  5  6  1  1  0  0  0
  6 19  2  0  0  0  0
  7  9  1  0  0  0  0
  8 20  1  0  0  0  0
  8 18  1  0  0  0  0
  9 12  1  0  0  0  0
 10  4  2  0  0  0  0
 11 10  1  0  0  0  0
 12 40  1  6  0  0  0
 12 15  1  0  0  0  0
 14 17  1  0  0  0  0
 15  5  1  0  0  0  0
 15 14  1  1  0  0  0
 16  7  1  0  0  0  0
 16  3  1  0  0  0  0
 18 13  1  1  0  0  0
 18 11  1  0  0  0  0
 19 21  2  0  0  0  0
 20 17  1  6  0  0  0
 20  1  1  0  0  0  0
 21 18  1  0  0  0  0
 23 22  1  6  0  0  0
 24 23  1  0  0  0  0
 25 24  1  0  0  0  0
 26 25  2  0  0  0  0
 27 25  1  6  0  0  0
 27 32  1  0  0  0  0
 28 29  1  1  0  0  0
 28 27  1  0  0  0  0
 30 31  1  6  0  0  0
 30 28  1  0  0  0  0
 30 27  1  0  0  0  0
 32 33  1  0  0  0  0
 33 35  1  1  0  0  0
 33 36  1  0  0  0  0
 35 34  1  0  0  0  0
 36 37  1  0  0  0  0
 37 38  1  0  0  0  0
 38 39  1  0  0  0  0
 41 42  1  6  0  0  0
 41 40  1  0  0  0  0
 43 52  1  1  0  0  0
 43 41  1  0  0  0  0
 44 48  1  0  0  0  0
 46 49  1  6  0  0  0
 46 50  1  0  0  0  0
 46 43  1  0  0  0  0
 47 46  1  0  0  0  0
 47 50  2  0  0  0  0
 48 45  2  0  0  0  0
 50 45  1  0  0  0  0
 51 44  2  0  0  0  0
 51 47  1  0  0  0  0
 53 52  1  1  0  0  0
 53 54  1  0  0  0  0
 54 58  1  0  0  0  0
 55 56  1  6  0  0  0
 55 59  1  0  0  0  0
 57 55  1  0  0  0  0
 57 53  1  0  0  0  0
 59 60  1  1  0  0  0
 59 58  1  0  0  0  0
M  END
>  <MODEL>
4

>  <REMARK>
 VINA RESULT:      -4.9      2.838      9.132
  Name = 
  16 active torsions:
  status: ('A' for Active; 'I' for Inactive)
    1  A    between atoms: C_2  and  O_52
    2  A    between atoms: C_4  and  C_19
    3  A    between atoms: C_5  and  C_48
    4  A    between atoms: C_7  and  C_11
    5  A    between atoms: C_7  and  O_27
    6  A    between atoms: C_11  and  O_45
    7  A    between atoms: C_14  and  C_20
    8  A    between atoms: C_14  and  C_32
    9  A    between atoms: C_19  and  C_23
   10  A    between atoms: C_20  and  C_23
   11  A    between atoms: C_23  and  C_26
   12  A    between atoms: O_27  and  C_48
   13  A    between atoms: C_29  and  C_39
   14  A    between atoms: C_29  and  O_52
   15  A    between atoms: C_39  and  O_45
   16  A    between atoms: C_39  and  C_47
                            x       y       z     vdW  Elec       q    Type
                         _______ _______ _______ _____ _____    ______ ____

>  <TORSDO>
F 16

$$$$
=
 OpenBabel11062417193D

 60 66  0  0  1  0  0  0  0  0999 V2000
  190.6890  178.6750  143.1720 C   0  0  0  0  0  2  0  0  0  0  0  0
  190.4690  176.4020  138.4720 C   0  0  1  0  0  3  0  0  0  0  0  0
  190.0730  175.3460  137.4540 C   0  0  0  0  0  2  0  0  0  0  0  0
  191.8420  178.4020  145.2040 O   0  0  0  0  0  0  0  0  0  0  0  0
  189.4850  176.4240  139.6650 C   0  0  1  0  0  3  0  0  0  0  0  0
  190.1670  176.2710  141.0000 C   0  0  0  0  0  3  0  0  0  0  0  0
  188.3770  176.9670  136.7600 O   0  0  0  0  0  0  0  0  0  0  0  0
  188.1830  178.3130  143.5200 O   0  0  0  0  0  0  0  0  0  0  0  0
  187.5300  176.3860  137.5960 O   0  0  0  0  0  0  0  0  0  0  0  0
  190.8330  178.1590  144.5580 C   0  0  0  0  0  0  0  0  0  0  0  0
  189.7600  177.3040  145.1390 C   0  0  0  0  0  2  0  0  0  0  0  0
  187.2940  177.3050  138.6410 C   0  0  1  0  0  3  0  0  0  0  0  0
  187.4150  176.6780  145.0380 C   0  0  0  0  0  1  0  0  0  0  0  0
  188.0150  178.2400  140.8080 C   0  0  0  0  0  2  0  0  0  0  0  0
  188.5340  177.6450  139.4990 C   0  0  1  0  0  3  0  0  0  0  0  0
  189.2440  175.9550  136.3200 C   0  0  0  0  0  2  0  0  0  0  0  0
  189.0000  179.2560  141.3820 C   0  0  0  0  0  2  0  0  0  0  0  0
  188.5810  177.1090  144.1740 C   0  0  1  0  0  0  0  0  0  0  0  0
  189.5020  176.0870  142.1080 C   0  0  0  0  0  0  0  0  0  0  0  0
  189.2270  179.0620  142.8880 C   0  0  2  0  0  3  0  0  0  0  0  0
  188.8140  175.9650  143.2100 C   0  0  0  0  0  3  0  0  0  0  0  0
  192.3720  177.5350  139.4520 O   0  0  0  0  0  1  0  0  0  0  0  0
  191.9780  176.3990  138.7400 C   0  0  2  0  0  3  0  0  0  0  0  0
  192.6930  176.3100  137.5160 O   0  0  0  0  0  0  0  0  0  0  0  0
  193.4890  175.2130  137.1980 C   0  0  0  0  0  0  0  0  0  0  0  0
  193.0990  174.0360  137.4500 O   0  0  0  0  0  0  0  0  0  0  0  0
  194.8290  175.4320  136.5500 C   0  0  2  0  0  0  0  0  0  0  0  0
  194.9150  176.3980  135.3730 C   0  0  1  0  0  3  0  0  0  0  0  0
  196.1930  176.9400  135.2540 O   0  0  0  0  0  1  0  0  0  0  0  0
  194.9840  174.9000  135.1310 C   0  0  2  0  0  3  0  0  0  0  0  0
  193.7730  174.4730  134.5940 O   0  0  0  0  0  1  0  0  0  0  0  0
  195.9980  175.2430  137.3120 O   0  0  0  0  0  0  0  0  0  0  0  0
  196.4940  173.9600  137.0300 C   0  0  2  0  0  3  0  0  0  0  0  0
  195.9080  173.6960  139.3480 O   0  0  0  0  0  1  0  0  0  0  0  0
  196.2210  172.9990  138.1830 C   0  0  0  0  0  2  0  0  0  0  0  0
  197.9770  174.0200  136.6820 C   0  0  0  0  0  2  0  0  0  0  0  0
  198.4420  172.7670  136.2660 O   0  0  0  0  0  0  0  0  0  0  0  0
  198.0570  172.6660  134.9290 C   0  0  0  0  0  2  0  0  0  0  0  0
  197.7690  171.2160  134.5940 C   0  0  0  0  0  1  0  0  0  0  0  0
  186.6020  178.5730  138.1370 C   0  0  0  0  0  2  0  0  0  0  0  0
  185.2670  178.7870  138.8350 C   0  0  2  0  0  3  0  0  0  0  0  0
  185.3160  178.1780  140.2290 C   0  0  0  0  0  1  0  0  0  0  0  0
  184.0930  178.2620  137.9790 C   0  0  2  0  0  3  0  0  0  0  0  0
  179.7100  177.2340  137.1910 C   0  0  0  0  0  3  0  0  0  0  0  0
  180.8880  177.1460  139.4730 C   0  0  0  0  0  3  0  0  0  0  0  0
  182.6950  178.8460  138.2610 C   0  0  2  0  0  0  0  0  0  0  0  0
  181.6350  178.4370  137.4430 C   0  0  0  0  0  0  0  0  0  0  0  0
  179.8210  176.7750  138.5760 C   0  0  0  0  0  3  0  0  0  0  0  0
  182.5880  180.2660  138.7730 C   0  0  0  0  0  1  0  0  0  0  0  0
  181.7500  177.9800  138.8340 C   0  0  0  0  0  0  0  0  0  0  0  0
  180.6540  178.1120  136.5520 C   0  0  0  0  0  3  0  0  0  0  0  0
  184.0920  176.7490  137.7250 C   0  0  0  0  0  2  0  0  0  0  0  0
  183.7010  176.3870  136.2890 C   0  0  1  0  0  3  0  0  0  0  0  0
  184.9330  176.1420  135.4140 C   0  0  0  0  0  2  0  0  0  0  0  0
  183.4770  173.8850  136.6750 C   0  0  2  0  0  3  0  0  0  0  0  0
  182.5810  172.8160  136.5370 O   0  0  0  0  0  1  0  0  0  0  0  0
  182.7590  175.1740  136.2630 C   0  0  0  0  0  2  0  0  0  0  0  0
  185.6530  174.8530  135.8210 C   0  0  0  0  0  2  0  0  0  0  0  0
  184.7110  173.6520  135.7880 C   0  0  1  0  0  3  0  0  0  0  0  0
  185.4730  172.4240  136.2540 C   0  0  0  0  0  1  0  0  0  0  0  0
  1 10  1  0  0  0  0
  2 23  1  1  0  0  0
  2  5  1  0  0  0  0
  3  2  1  0  0  0  0
  5  6  1  1  0  0  0
  6 19  2  0  0  0  0
  7  9  1  0  0  0  0
  8 18  1  0  0  0  0
  9 12  1  0  0  0  0
 10 11  1  0  0  0  0
 10  4  2  0  0  0  0
 12 40  1  6  0  0  0
 12 15  1  0  0  0  0
 14 17  1  0  0  0  0
 15  5  1  0  0  0  0
 15 14  1  1  0  0  0
 16  7  1  0  0  0  0
 16  3  1  0  0  0  0
 18 13  1  1  0  0  0
 18 11  1  0  0  0  0
 19 21  2  0  0  0  0
 20 17  1  6  0  0  0
 20  1  1  0  0  0  0
 20  8  1  0  0  0  0
 21 18  1  0  0  0  0
 23 22  1  6  0  0  0
 24 23  1  0  0  0  0
 25 26  2  0  0  0  0
 25 24  1  0  0  0  0
 27 25  1  1  0  0  0
 27 32  1  0  0  0  0
 28 29  1  1  0  0  0
 28 27  1  0  0  0  0
 30 31  1  6  0  0  0
 30 28  1  0  0  0  0
 30 27  1  0  0  0  0
 33 36  1  1  0  0  0
 33 32  1  0  0  0  0
 33 35  1  0  0  0  0
 35 34  1  0  0  0  0
 37 36  1  0  0  0  0
 38 37  1  0  0  0  0
 39 38  1  0  0  0  0
 40 41  1  0  0  0  0
 41 42  1  1  0  0  0
 43 52  1  1  0  0  0
 43 46  1  0  0  0  0
 43 41  1  0  0  0  0
 44 48  1  0  0  0  0
 46 49  1  1  0  0  0
 46 50  1  0  0  0  0
 47 46  1  0  0  0  0
 47 50  2  0  0  0  0
 48 45  2  0  0  0  0
 50 45  1  0  0  0  0
 51 44  2  0  0  0  0
 51 47  1  0  0  0  0
 53 52  1  1  0  0  0
 54 58  1  0  0  0  0
 54 53  1  0  0  0  0
 55 56  1  6  0  0  0
 57 53  1  0  0  0  0
 57 55  1  0  0  0  0
 59 58  1  0  0  0  0
 59 60  1  1  0  0  0
 59 55  1  0  0  0  0
M  END
>  <MODEL>
5

>  <REMARK>
 VINA RESULT:      -4.9      3.073      7.906
  Name = 
  16 active torsions:
  status: ('A' for Active; 'I' for Inactive)
    1  A    between atoms: C_2  and  O_52
    2  A    between atoms: C_4  and  C_19
    3  A    between atoms: C_5  and  C_48
    4  A    between atoms: C_7  and  C_11
    5  A    between atoms: C_7  and  O_27
    6  A    between atoms: C_11  and  O_45
    7  A    between atoms: C_14  and  C_20
    8  A    between atoms: C_14  and  C_32
    9  A    between atoms: C_19  and  C_23
   10  A    between atoms: C_20  and  C_23
   11  A    between atoms: C_23  and  C_26
   12  A    between atoms: O_27  and  C_48
   13  A    between atoms: C_29  and  C_39
   14  A    between atoms: C_29  and  O_52
   15  A    between atoms: C_39  and  O_45
   16  A    between atoms: C_39  and  C_47
                            x       y       z     vdW  Elec       q    Type
                         _______ _______ _______ _____ _____    ______ ____

>  <TORSDO>
F 16

$$$$
=
 OpenBabel11062417193D

 60 66  0  0  1  0  0  0  0  0999 V2000
  188.1940  176.9850  144.3360 C   0  0  0  0  0  2  0  0  0  0  0  0
  186.8150  178.3750  139.4910 C   0  0  1  0  0  3  0  0  0  0  0  0
  186.8780  179.1780  138.2020 C   0  0  0  0  0  2  0  0  0  0  0  0
  187.8940  177.7550  146.5380 O   0  0  0  0  0  0  0  0  0  0  0  0
  188.1660  178.4190  140.2420 C   0  0  1  0  0  3  0  0  0  0  0  0
  188.0380  178.8890  141.6680 C   0  0  0  0  0  3  0  0  0  0  0  0
  188.0840  177.2430  137.3140 O   0  0  0  0  0  0  0  0  0  0  0  0
  190.6690  177.0470  143.7040 O   0  0  0  0  0  0  0  0  0  0  0  0
  189.2170  177.8330  137.6610 O   0  0  0  0  0  0  0  0  0  0  0  0
  188.6070  177.7420  145.5450 C   0  0  0  0  0  0  0  0  0  0  0  0
  189.8740  178.5250  145.5230 C   0  0  0  0  0  2  0  0  0  0  0  0
  189.7590  177.0810  138.7250 C   0  0  1  0  0  3  0  0  0  0  0  0
  192.0530  178.7930  144.4820 C   0  0  0  0  0  1  0  0  0  0  0  0
  189.8270  176.6360  141.1520 C   0  0  0  0  0  2  0  0  0  0  0  0
  188.9040  177.0670  140.0130 C   0  0  1  0  0  3  0  0  0  0  0  0
  187.1860  178.2770  137.0040 C   0  0  0  0  0  2  0  0  0  0  0  0
  189.0570  175.8790  142.2320 C   0  0  0  0  0  2  0  0  0  0  0  0
  190.6240  178.3880  144.1890 C   0  0  1  0  0  0  0  0  0  0  0  0
  189.0760  179.1640  142.4100 C   0  0  0  0  0  0  0  0  0  0  0  0
  189.4160  176.3550  143.6470 C   0  0  2  0  0  3  0  0  0  0  0  0
  190.1300  179.3730  143.1520 C   0  0  0  0  0  3  0  0  0  0  0  0
  185.4510  177.8610  141.4250 O   0  0  0  0  0  1  0  0  0  0  0  0
  185.5170  178.6340  140.2620 C   0  0  2  0  0  3  0  0  0  0  0  0
  184.3940  178.3740  139.4320 O   0  0  0  0  0  0  0  0  0  0  0  0
  183.3590  179.2910  139.2710 C   0  0  0  0  0  0  0  0  0  0  0  0
  183.6050  180.5170  139.0800 O   0  0  0  0  0  0  0  0  0  0  0  0
  181.9320  178.8170  139.3280 C   0  0  2  0  0  0  0  0  0  0  0  0
  180.9140  179.6740  140.0720 C   0  0  1  0  0  3  0  0  0  0  0  0
  179.6250  179.4680  139.5840 O   0  0  0  0  0  1  0  0  0  0  0  0
  181.4220  178.3880  140.6990 C   0  0  2  0  0  3  0  0  0  0  0  0
  182.3170  178.7040  141.7160 O   0  0  0  0  0  1  0  0  0  0  0  0
  181.4440  177.9850  138.3020 O   0  0  0  0  0  0  0  0  0  0  0  0
  181.9030  178.4970  137.0780 C   0  0  2  0  0  3  0  0  0  0  0  0
  181.1530  180.7340  136.6090 O   0  0  0  0  0  1  0  0  0  0  0  0
  180.8500  179.3870  136.4250 C   0  0  0  0  0  2  0  0  0  0  0  0
  182.3420  177.3680  136.1530 C   0  0  0  0  0  2  0  0  0  0  0  0
  182.9280  176.3270  136.8830 O   0  0  0  0  0  0  0  0  0  0  0  0
  184.1580  176.1010  136.2640 C   0  0  0  0  0  2  0  0  0  0  0  0
  185.0050  175.1980  137.1380 C   0  0  0  0  0  1  0  0  0  0  0  0
  190.1270  175.6620  138.2870 C   0  0  0  0  0  2  0  0  0  0  0  0
  191.5630  175.5950  137.7870 C   0  0  2  0  0  3  0  0  0  0  0  0
  191.7620  176.6080  136.6700 C   0  0  0  0  0  1  0  0  0  0  0  0
  191.9530  174.1560  137.3840 C   0  0  2  0  0  3  0  0  0  0  0  0
  195.9410  171.9920  137.9360 C   0  0  0  0  0  3  0  0  0  0  0  0
  194.1070  171.3590  136.2510 C   0  0  0  0  0  3  0  0  0  0  0  0
  193.2840  173.9670  136.6320 C   0  0  2  0  0  0  0  0  0  0  0  0
  194.4110  173.5930  137.3750 C   0  0  0  0  0  0  0  0  0  0  0  0
  195.2750  171.0480  137.0380 C   0  0  0  0  0  3  0  0  0  0  0  0
  193.5790  174.8480  135.4370 C   0  0  0  0  0  1  0  0  0  0  0  0
  193.7410  172.6490  136.4700 C   0  0  0  0  0  0  0  0  0  0  0  0
  195.5100  173.3490  138.1450 C   0  0  0  0  0  3  0  0  0  0  0  0
  190.8070  173.2940  136.8390 C   0  0  0  0  0  2  0  0  0  0  0  0
  190.7250  173.3090  135.3100 C   0  0  1  0  0  3  0  0  0  0  0  0
  190.2760  171.9540  134.7560 C   0  0  0  0  0  2  0  0  0  0  0  0
  188.3360  174.1640  135.1580 C   0  0  2  0  0  3  0  0  0  0  0  0
  187.5560  175.1830  134.5980 O   0  0  0  0  0  1  0  0  0  0  0  0
  189.8050  174.4360  134.8170 C   0  0  0  0  0  2  0  0  0  0  0  0
  188.8080  171.6780  135.0930 C   0  0  0  0  0  2  0  0  0  0  0  0
  187.9000  172.8000  134.5960 C   0  0  1  0  0  3  0  0  0  0  0  0
  186.4730  172.4900  135.0100 C   0  0  0  0  0  1  0  0  0  0  0  0
  1 10  1  0  0  0  0
  2  5  1  0  0  0  0
  2 23  1  1  0  0  0
  3  2  1  0  0  0  0
  5  6  1  1  0  0  0
  6 19  2  0  0  0  0
  7  9  1  0  0  0  0
  8 18  1  0  0  0  0
  9 12  1  0  0  0  0
 10  4  2  0  0  0  0
 11 10  1  0  0  0  0
 12 40  1  6  0  0  0
 12 15  1  0  0  0  0
 14 17  1  0  0  0  0
 15  5  1  0  0  0  0
 15 14  1  1  0  0  0
 16  7  1  0  0  0  0
 16  3  1  0  0  0  0
 18 13  1  1  0  0  0
 18 11  1  0  0  0  0
 19 21  2  0  0  0  0
 20 17  1  6  0  0  0
 20  8  1  0  0  0  0
 20  1  1  0  0  0  0
 21 18  1  0  0  0  0
 23 22  1  1  0  0  0
 24 23  1  0  0  0  0
 25 27  1  0  0  0  0
 25 24  1  0  0  0  0
 26 25  2  0  0  0  0
 27 32  1  6  0  0  0
 27 28  1  0  0  0  0
 27 30  1  0  0  0  0
 28 29  1  6  0  0  0
 28 30  1  0  0  0  0
 30 31  1  1  0  0  0
 33 36  1  6  0  0  0
 33 32  1  0  0  0  0
 35 34  1  0  0  0  0
 35 33  1  0  0  0  0
 36 37  1  0  0  0  0
 38 37  1  0  0  0  0
 38 39  1  0  0  0  0
 41 42  1  6  0  0  0
 41 40  1  0  0  0  0
 43 52  1  6  0  0  0
 43 41  1  0  0  0  0
 44 51  1  0  0  0  0
 45 50  2  0  0  0  0
 45 48  1  0  0  0  0
 46 49  1  6  0  0  0
 46 47  1  0  0  0  0
 46 43  1  0  0  0  0
 47 51  2  0  0  0  0
 48 44  2  0  0  0  0
 50 46  1  0  0  0  0
 50 47  1  0  0  0  0
 53 52  1  1  0  0  0
 54 58  1  0  0  0  0
 54 53  1  0  0  0  0
 55 56  1  6  0  0  0
 57 55  1  0  0  0  0
 57 53  1  0  0  0  0
 59 60  1  1  0  0  0
 59 58  1  0  0  0  0
 59 55  1  0  0  0  0
M  END
>  <MODEL>
6

>  <REMARK>
 VINA RESULT:      -4.7      2.790      9.851
  Name = 
  16 active torsions:
  status: ('A' for Active; 'I' for Inactive)
    1  A    between atoms: C_2  and  O_52
    2  A    between atoms: C_4  and  C_19
    3  A    between atoms: C_5  and  C_48
    4  A    between atoms: C_7  and  C_11
    5  A    between atoms: C_7  and  O_27
    6  A    between atoms: C_11  and  O_45
    7  A    between atoms: C_14  and  C_20
    8  A    between atoms: C_14  and  C_32
    9  A    between atoms: C_19  and  C_23
   10  A    between atoms: C_20  and  C_23
   11  A    between atoms: C_23  and  C_26
   12  A    between atoms: O_27  and  C_48
   13  A    between atoms: C_29  and  C_39
   14  A    between atoms: C_29  and  O_52
   15  A    between atoms: C_39  and  O_45
   16  A    between atoms: C_39  and  C_47
                            x       y       z     vdW  Elec       q    Type
                         _______ _______ _______ _____ _____    ______ ____

>  <TORSDO>
F 16

$$$$
=
 OpenBabel11062417193D

 60 66  0  0  1  0  0  0  0  0999 V2000
  188.9100  176.5680  144.8360 C   0  0  0  0  0  2  0  0  0  0  0  0
  185.6380  178.4990  141.2480 C   0  0  1  0  0  3  0  0  0  0  0  0
  185.1280  179.5010  140.2260 C   0  0  0  0  0  2  0  0  0  0  0  0
  189.4390  176.9170  147.1010 O   0  0  0  0  0  0  0  0  0  0  0  0
  187.1670  178.6260  141.4380 C   0  0  1  0  0  3  0  0  0  0  0  0
  187.5720  178.8340  142.8750 C   0  0  0  0  0  3  0  0  0  0  0  0
  186.0350  177.9420  138.5730 O   0  0  0  0  0  0  0  0  0  0  0  0
  190.9260  177.1090  143.3610 O   0  0  0  0  0  0  0  0  0  0  0  0
  187.1640  178.6340  138.5910 O   0  0  0  0  0  0  0  0  0  0  0  0
  189.7040  177.1740  145.9360 C   0  0  0  0  0  0  0  0  0  0  0  0
  190.7950  178.1340  145.6110 C   0  0  0  0  0  2  0  0  0  0  0  0
  188.1360  177.8100  139.1970 C   0  0  1  0  0  3  0  0  0  0  0  0
  192.3630  178.8950  143.9180 C   0  0  0  0  0  1  0  0  0  0  0  0
  189.1850  176.9930  141.2760 C   0  0  0  0  0  2  0  0  0  0  0  0
  187.8590  177.4580  140.6760 C   0  0  1  0  0  3  0  0  0  0  0  0
  185.0100  178.8630  138.8390 C   0  0  0  0  0  2  0  0  0  0  0  0
  188.9620  175.9630  142.3810 C   0  0  0  0  0  2  0  0  0  0  0  0
  190.9700  178.3300  144.0970 C   0  0  1  0  0  0  0  0  0  0  0  0
  188.7940  179.1400  143.2200 C   0  0  0  0  0  0  0  0  0  0  0  0
  189.8100  176.2520  143.6290 C   0  0  2  0  0  3  0  0  0  0  0  0
  190.0340  179.3840  143.5460 C   0  0  0  0  0  3  0  0  0  0  0  0
  185.1300  177.4130  143.3530 O   0  0  0  0  0  1  0  0  0  0  0  0
  184.7300  178.4290  142.4810 C   0  0  2  0  0  3  0  0  0  0  0  0
  183.3800  178.2360  142.0840 O   0  0  0  0  0  0  0  0  0  0  0  0
  182.3130  178.7940  142.7830 C   0  0  0  0  0  0  0  0  0  0  0  0
  182.3190  178.8390  144.0460 O   0  0  0  0  0  0  0  0  0  0  0  0
  181.1370  179.3470  142.0230 C   0  0  2  0  0  0  0  0  0  0  0  0
  180.1020  180.1660  142.7860 C   0  0  1  0  0  3  0  0  0  0  0  0
  179.4410  181.0590  141.9450 O   0  0  0  0  0  1  0  0  0  0  0  0
  179.7770  178.7450  142.3580 C   0  0  2  0  0  3  0  0  0  0  0  0
  179.8300  177.9140  143.4730 O   0  0  0  0  0  1  0  0  0  0  0  0
  181.2710  179.6050  140.6450 O   0  0  0  0  0  0  0  0  0  0  0  0
  180.5850  178.5970  139.9490 C   0  0  2  0  0  3  0  0  0  0  0  0
  180.9110  176.3590  139.1290 O   0  0  0  0  0  1  0  0  0  0  0  0
  181.5540  177.5710  139.3690 C   0  0  0  0  0  2  0  0  0  0  0  0
  179.6900  179.2010  138.8720 C   0  0  0  0  0  2  0  0  0  0  0  0
  180.4060  179.4050  137.6870 O   0  0  0  0  0  0  0  0  0  0  0  0
  180.0490  180.6860  137.2660 C   0  0  0  0  0  2  0  0  0  0  0  0
  181.0480  181.6920  137.8040 C   0  0  0  0  0  1  0  0  0  0  0  0
  188.4130  176.5540  138.3690 C   0  0  0  0  0  2  0  0  0  0  0  0
  189.7270  176.6720  137.6100 C   0  0  2  0  0  3  0  0  0  0  0  0
  189.5280  177.5380  136.3760 C   0  0  0  0  0  1  0  0  0  0  0  0
  190.3220  175.2820  137.2930 C   0  0  2  0  0  3  0  0  0  0  0  0
  194.6540  173.8940  137.7360 C   0  0  0  0  0  3  0  0  0  0  0  0
  192.8610  172.7810  136.2690 C   0  0  0  0  0  3  0  0  0  0  0  0
  191.6170  175.2400  136.4610 C   0  0  2  0  0  0  0  0  0  0  0  0
  192.8360  175.1430  137.1450 C   0  0  0  0  0  0  0  0  0  0  0  0
  194.1100  172.7590  136.9880 C   0  0  0  0  0  3  0  0  0  0  0  0
  191.6790  176.0220  135.1670 C   0  0  0  0  0  1  0  0  0  0  0  0
  192.2870  174.0070  136.3910 C   0  0  0  0  0  0  0  0  0  0  0  0
  194.0050  175.1730  137.8460 C   0  0  0  0  0  3  0  0  0  0  0  0
  189.3010  174.2050  136.9050 C   0  0  0  0  0  2  0  0  0  0  0  0
  188.9690  174.2100  135.4100 C   0  0  1  0  0  3  0  0  0  0  0  0
  189.1400  172.8200  134.7910 C   0  0  0  0  0  2  0  0  0  0  0  0
  186.4760  173.7870  135.6680 C   0  0  2  0  0  3  0  0  0  0  0  0
  185.2210  174.3060  135.3220 O   0  0  0  0  0  1  0  0  0  0  0  0
  187.5530  174.7520  135.1600 C   0  0  0  0  0  2  0  0  0  0  0  0
  188.0640  171.8540  135.2940 C   0  0  0  0  0  2  0  0  0  0  0  0
  186.6610  172.3970  135.0370 C   0  0  1  0  0  3  0  0  0  0  0  0
  185.6500  171.4190  135.6080 C   0  0  0  0  0  1  0  0  0  0  0  0
  1 10  1  0  0  0  0
  2  5  1  0  0  0  0
  2 23  1  1  0  0  0
  3  2  1  0  0  0  0
  5  6  1  1  0  0  0
  6 19  2  0  0  0  0
  7  9  1  0  0  0  0
  7 16  1  0  0  0  0
  8 20  1  0  0  0  0
  8 18  1  0  0  0  0
  9 12  1  0  0  0  0
 10  4  2  0  0  0  0
 11 10  1  0  0  0  0
 12 40  1  6  0  0  0
 12 15  1  0  0  0  0
 14 17  1  0  0  0  0
 15 14  1  1  0  0  0
 15  5  1  0  0  0  0
 16  3  1  0  0  0  0
 18 13  1  6  0  0  0
 18 11  1  0  0  0  0
 19 21  2  0  0  0  0
 20 17  1  6  0  0  0
 20  1  1  0  0  0  0
 21 18  1  0  0  0  0
 23 22  1  1  0  0  0
 24 23  1  0  0  0  0
 24 25  1  0  0  0  0
 25 26  2  0  0  0  0
 27 32  1  6  0  0  0
 27 30  1  0  0  0  0
 27 25  1  0  0  0  0
 27 28  1  0  0  0  0
 28 29  1  6  0  0  0
 30 28  1  0  0  0  0
 30 31  1  1  0  0  0
 33 36  1  6  0  0  0
 33 32  1  0  0  0  0
 34 35  1  0  0  0  0
 35 33  1  0  0  0  0
 37 36  1  0  0  0  0
 38 37  1  0  0  0  0
 38 39  1  0  0  0  0
 41 42  1  6  0  0  0
 41 40  1  0  0  0  0
 43 52  1  6  0  0  0
 43 41  1  0  0  0  0
 44 51  1  0  0  0  0
 45 50  2  0  0  0  0
 45 48  1  0  0  0  0
 46 49  1  6  0  0  0
 46 47  1  0  0  0  0
 46 43  1  0  0  0  0
 47 51  2  0  0  0  0
 48 44  2  0  0  0  0
 50 46  1  0  0  0  0
 50 47  1  0  0  0  0
 53 52  1  1  0  0  0
 54 58  1  0  0  0  0
 54 53  1  0  0  0  0
 55 56  1  6  0  0  0
 57 53  1  0  0  0  0
 57 55  1  0  0  0  0
 59 58  1  0  0  0  0
 59 60  1  1  0  0  0
 59 55  1  0  0  0  0
M  END
>  <MODEL>
7

>  <REMARK>
 VINA RESULT:      -4.6      2.518      8.967
  Name = 
  16 active torsions:
  status: ('A' for Active; 'I' for Inactive)
    1  A    between atoms: C_2  and  O_52
    2  A    between atoms: C_4  and  C_19
    3  A    between atoms: C_5  and  C_48
    4  A    between atoms: C_7  and  C_11
    5  A    between atoms: C_7  and  O_27
    6  A    between atoms: C_11  and  O_45
    7  A    between atoms: C_14  and  C_20
    8  A    between atoms: C_14  and  C_32
    9  A    between atoms: C_19  and  C_23
   10  A    between atoms: C_20  and  C_23
   11  A    between atoms: C_23  and  C_26
   12  A    between atoms: O_27  and  C_48
   13  A    between atoms: C_29  and  C_39
   14  A    between atoms: C_29  and  O_52
   15  A    between atoms: C_39  and  O_45
   16  A    between atoms: C_39  and  C_47
                            x       y       z     vdW  Elec       q    Type
                         _______ _______ _______ _____ _____    ______ ____

>  <TORSDO>
F 16

$$$$
=
 OpenBabel11062417193D

 60 66  0  0  1  0  0  0  0  0999 V2000
  190.8670  178.7690  142.9020 C   0  0  0  0  0  2  0  0  0  0  0  0
  190.9270  176.0810  138.4210 C   0  0  1  0  0  3  0  0  0  0  0  0
  190.6000  174.9310  137.4840 C   0  0  0  0  0  2  0  0  0  0  0  0
  191.9160  178.7020  145.0060 O   0  0  0  0  0  0  0  0  0  0  0  0
  189.8820  176.1910  139.5560 C   0  0  1  0  0  3  0  0  0  0  0  0
  190.4950  176.1710  140.9320 C   0  0  0  0  0  3  0  0  0  0  0  0
  188.9180  176.4490  136.5620 O   0  0  0  0  0  0  0  0  0  0  0  0
  188.3520  178.3920  143.1530 O   0  0  0  0  0  0  0  0  0  0  0  0
  188.0370  175.9290  137.4030 O   0  0  0  0  0  0  0  0  0  0  0  0
  190.9460  178.3830  144.3340 C   0  0  0  0  0  0  0  0  0  0  0  0
  189.8580  177.5630  144.9350 C   0  0  0  0  0  2  0  0  0  0  0  0
  187.7340  176.9330  138.3470 C   0  0  1  0  0  3  0  0  0  0  0  0
  187.5300  176.8840  144.7720 C   0  0  0  0  0  1  0  0  0  0  0  0
  188.3270  178.0730  140.4540 C   0  0  0  0  0  2  0  0  0  0  0  0
  188.9220  177.3730  139.2320 C   0  0  1  0  0  3  0  0  0  0  0  0
  189.8230  175.4190  136.2590 C   0  0  0  0  0  2  0  0  0  0  0  0
  189.2660  179.1550  140.9830 C   0  0  0  0  0  2  0  0  0  0  0  0
  188.7330  177.2590  143.9330 C   0  0  1  0  0  0  0  0  0  0  0  0
  189.7760  176.0740  142.0170 C   0  0  0  0  0  0  0  0  0  0  0  0
  189.4170  179.1010  142.5100 C   0  0  2  0  0  3  0  0  0  0  0  0
  189.0330  176.0380  143.0900 C   0  0  0  0  0  3  0  0  0  0  0  0
  192.7290  177.2570  139.5330 O   0  0  0  0  0  1  0  0  0  0  0  0
  192.4190  176.1310  138.7650 C   0  0  2  0  0  3  0  0  0  0  0  0
  193.1970  176.1150  137.5760 O   0  0  0  0  0  0  0  0  0  0  0  0
  193.9470  175.0070  137.1930 C   0  0  0  0  0  0  0  0  0  0  0  0
  193.5040  173.8350  137.3650 O   0  0  0  0  0  0  0  0  0  0  0  0
  195.3020  175.2080  136.5700 C   0  0  2  0  0  0  0  0  0  0  0  0
  195.4090  176.1120  135.3470 C   0  0  1  0  0  3  0  0  0  0  0  0
  196.6840  176.6620  135.2330 O   0  0  0  0  0  1  0  0  0  0  0  0
  195.5010  174.6040  135.1850 C   0  0  2  0  0  3  0  0  0  0  0  0
  194.3090  174.1360  134.6400 O   0  0  0  0  0  1  0  0  0  0  0  0
  196.4520  175.0730  137.3720 O   0  0  0  0  0  0  0  0  0  0  0  0
  196.1780  174.1120  138.3590 C   0  0  2  0  0  3  0  0  0  0  0  0
  197.7680  175.5030  139.5100 O   0  0  0  0  0  1  0  0  0  0  0  0
  196.8300  174.4870  139.6860 C   0  0  0  0  0  2  0  0  0  0  0  0
  196.6040  172.7250  137.8920 C   0  0  0  0  0  2  0  0  0  0  0  0
  197.9490  172.7220  137.5040 O   0  0  0  0  0  0  0  0  0  0  0  0
  197.9780  171.9980  136.3110 C   0  0  0  0  0  2  0  0  0  0  0  0
  199.1610  171.0520  136.3230 C   0  0  0  0  0  1  0  0  0  0  0  0
  187.0510  178.1380  137.6960 C   0  0  0  0  0  2  0  0  0  0  0  0
  185.7030  178.4220  138.3420 C   0  0  2  0  0  3  0  0  0  0  0  0
  185.8840  178.6090  139.8410 C   0  0  0  0  0  1  0  0  0  0  0  0
  184.6640  177.3360  137.9820 C   0  0  2  0  0  3  0  0  0  0  0  0
  183.8510  173.3080  135.9820 C   0  0  0  0  0  3  0  0  0  0  0  0
  182.4870  175.4590  135.6400 C   0  0  0  0  0  3  0  0  0  0  0  0
  184.7700  176.6910  136.5870 C   0  0  2  0  0  0  0  0  0  0  0  0
  184.8450  175.2950  136.5120 C   0  0  0  0  0  0  0  0  0  0  0  0
  182.6410  174.0260  135.5820 C   0  0  0  0  0  3  0  0  0  0  0  0
  185.5260  177.4240  135.4990 C   0  0  0  0  0  1  0  0  0  0  0  0
  183.6320  176.0200  136.1100 C   0  0  0  0  0  0  0  0  0  0  0  0
  185.0390  173.9450  136.4850 C   0  0  0  0  0  3  0  0  0  0  0  0
  183.2250  177.6350  138.4190 C   0  0  0  0  0  2  0  0  0  0  0  0
  182.8590  176.9780  139.7530 C   0  0  1  0  0  3  0  0  0  0  0  0
  182.6970  178.0160  140.8660 C   0  0  0  0  0  2  0  0  0  0  0  0
  180.3430  176.9760  139.3910 C   0  0  2  0  0  3  0  0  0  0  0  0
  179.2260  176.1310  139.3690 O   0  0  0  0  0  1  0  0  0  0  0  0
  181.5930  176.1190  139.6160 C   0  0  0  0  0  2  0  0  0  0  0  0
  181.4480  178.8740  140.6460 C   0  0  0  0  0  2  0  0  0  0  0  0
  180.1940  178.0130  140.5160 C   0  0  1  0  0  3  0  0  0  0  0  0
  179.0080  178.9200  140.2460 C   0  0  0  0  0  1  0  0  0  0  0  0
  1 10  1  0  0  0  0
  2 23  1  1  0  0  0
  2  5  1  0  0  0  0
  3  2  1  0  0  0  0
  5  6  1  1  0  0  0
  6 19  2  0  0  0  0
  7  9  1  0  0  0  0
  8 18  1  0  0  0  0
  9 12  1  0  0  0  0
 10 11  1  0  0  0  0
 10  4  2  0  0  0  0
 12 40  1  6  0  0  0
 12 15  1  0  0  0  0
 14 17  1  0  0  0  0
 15  5  1  0  0  0  0
 15 14  1  1  0  0  0
 16  7  1  0  0  0  0
 16  3  1  0  0  0  0
 18 13  1  1  0  0  0
 18 11  1  0  0  0  0
 19 21  2  0  0  0  0
 20 17  1  6  0  0  0
 20  1  1  0  0  0  0
 20  8  1  0  0  0  0
 21 18  1  0  0  0  0
 23 22  1  6  0  0  0
 24 23  1  0  0  0  0
 25 26  2  0  0  0  0
 25 24  1  0  0  0  0
 27 25  1  1  0  0  0
 27 32  1  0  0  0  0
 28 29  1  1  0  0  0
 28 27  1  0  0  0  0
 30 31  1  6  0  0  0
 30 28  1  0  0  0  0
 30 27  1  0  0  0  0
 32 33  1  0  0  0  0
 33 36  1  6  0  0  0
 33 35  1  0  0  0  0
 34 35  1  0  0  0  0
 37 36  1  0  0  0  0
 38 39  1  0  0  0  0
 38 37  1  0  0  0  0
 40 41  1  0  0  0  0
 41 42  1  1  0  0  0
 43 41  1  0  0  0  0
 43 52  1  6  0  0  0
 44 51  1  0  0  0  0
 45 50  2  0  0  0  0
 46 49  1  6  0  0  0
 46 43  1  0  0  0  0
 47 46  1  0  0  0  0
 48 45  1  0  0  0  0
 48 44  2  0  0  0  0
 50 47  1  0  0  0  0
 50 46  1  0  0  0  0
 51 47  2  0  0  0  0
 53 52  1  6  0  0  0
 53 54  1  0  0  0  0
 55 56  1  1  0  0  0
 55 57  1  0  0  0  0
 55 59  1  0  0  0  0
 57 53  1  0  0  0  0
 58 54  1  0  0  0  0
 59 60  1  6  0  0  0
 59 58  1  0  0  0  0
M  END
>  <MODEL>
8

>  <REMARK>
 VINA RESULT:      -4.2      3.311      8.391
  Name = 
  16 active torsions:
  status: ('A' for Active; 'I' for Inactive)
    1  A    between atoms: C_2  and  O_52
    2  A    between atoms: C_4  and  C_19
    3  A    between atoms: C_5  and  C_48
    4  A    between atoms: C_7  and  C_11
    5  A    between atoms: C_7  and  O_27
    6  A    between atoms: C_11  and  O_45
    7  A    between atoms: C_14  and  C_20
    8  A    between atoms: C_14  and  C_32
    9  A    between atoms: C_19  and  C_23
   10  A    between atoms: C_20  and  C_23
   11  A    between atoms: C_23  and  C_26
   12  A    between atoms: O_27  and  C_48
   13  A    between atoms: C_29  and  C_39
   14  A    between atoms: C_29  and  O_52
   15  A    between atoms: C_39  and  O_45
   16  A    between atoms: C_39  and  C_47
                            x       y       z     vdW  Elec       q    Type
                         _______ _______ _______ _____ _____    ______ ____

>  <TORSDO>
F 16

$$$$
=
 OpenBabel11062417193D

 60 66  0  0  1  0  0  0  0  0999 V2000
  187.9330  176.7660  143.8700 C   0  0  0  0  0  2  0  0  0  0  0  0
  187.2170  178.2470  138.9100 C   0  0  1  0  0  3  0  0  0  0  0  0
  187.4610  179.0650  137.6530 C   0  0  0  0  0  2  0  0  0  0  0  0
  187.3660  177.5140  146.0270 O   0  0  0  0  0  0  0  0  0  0  0  0
  188.4610  178.2530  139.8290 C   0  0  1  0  0  3  0  0  0  0  0  0
  188.1580  178.7080  141.2340 C   0  0  0  0  0  3  0  0  0  0  0  0
  188.7350  177.1180  136.8980 O   0  0  0  0  0  0  0  0  0  0  0  0
  190.4700  176.7870  143.5630 O   0  0  0  0  0  0  0  0  0  0  0  0
  189.8250  177.6810  137.3970 O   0  0  0  0  0  0  0  0  0  0  0  0
  188.2000  177.5000  145.1340 C   0  0  0  0  0  0  0  0  0  0  0  0
  189.4740  178.2570  145.2880 C   0  0  0  0  0  2  0  0  0  0  0  0
  190.2110  176.9040  138.5100 C   0  0  1  0  0  3  0  0  0  0  0  0
  191.7740  178.4940  144.5400 C   0  0  0  0  0  1  0  0  0  0  0  0
  189.9570  176.4260  140.9180 C   0  0  0  0  0  2  0  0  0  0  0  0
  189.1960  176.8900  139.6770 C   0  0  1  0  0  3  0  0  0  0  0  0
  187.9040  178.1740  136.4900 C   0  0  0  0  0  2  0  0  0  0  0  0
  189.0400  175.6710  141.8780 C   0  0  0  0  0  2  0  0  0  0  0  0
  190.3870  178.1220  144.0600 C   0  0  1  0  0  0  0  0  0  0  0  0
  189.0970  178.9520  142.1080 C   0  0  0  0  0  0  0  0  0  0  0  0
  189.2220  176.1210  143.3350 C   0  0  2  0  0  3  0  0  0  0  0  0
  190.0490  179.1300  142.9830 C   0  0  0  0  0  3  0  0  0  0  0  0
  185.7640  178.1020  140.8420 O   0  0  0  0  0  1  0  0  0  0  0  0
  185.8350  178.5230  139.5110 C   0  0  2  0  0  3  0  0  0  0  0  0
  184.8290  177.8850  138.7380 O   0  0  0  0  0  0  0  0  0  0  0  0
  183.5500  177.6450  139.2340 C   0  0  0  0  0  0  0  0  0  0  0  0
  183.3520  176.7540  140.1090 O   0  0  0  0  0  0  0  0  0  0  0  0
  182.3910  178.4550  138.7190 C   0  0  2  0  0  0  0  0  0  0  0  0
  182.4590  179.9730  138.8370 C   0  0  1  0  0  3  0  0  0  0  0  0
  181.6780  180.5930  137.8650 O   0  0  0  0  0  1  0  0  0  0  0  0
  181.5590  179.1810  139.7690 C   0  0  2  0  0  3  0  0  0  0  0  0
  182.1460  179.1320  141.0300 O   0  0  0  0  0  1  0  0  0  0  0  0
  181.5900  177.9260  137.6880 O   0  0  0  0  0  0  0  0  0  0  0  0
  182.3620  176.9930  136.9780 C   0  0  2  0  0  3  0  0  0  0  0  0
  181.8370  178.5390  135.2110 O   0  0  0  0  0  1  0  0  0  0  0  0
  182.6980  177.5080  135.5810 C   0  0  0  0  0  2  0  0  0  0  0  0
  181.6600  175.6410  136.9290 C   0  0  0  0  0  2  0  0  0  0  0  0
  182.4090  174.6680  137.6010 O   0  0  0  0  0  0  0  0  0  0  0  0
  183.6610  174.6870  136.9850 C   0  0  0  0  0  2  0  0  0  0  0  0
  184.5430  173.6180  137.5990 C   0  0  0  0  0  1  0  0  0  0  0  0
  190.6060  175.4830  138.1020 C   0  0  0  0  0  2  0  0  0  0  0  0
  192.1190  175.3160  138.0830 C   0  0  2  0  0  3  0  0  0  0  0  0
  192.7820  176.6210  138.4980 C   0  0  0  0  0  1  0  0  0  0  0  0
  192.6110  174.7870  136.7180 C   0  0  2  0  0  3  0  0  0  0  0  0
  188.2100  173.5800  136.4720 C   0  0  0  0  0  3  0  0  0  0  0  0
  189.5620  174.7210  134.6090 C   0  0  0  0  0  3  0  0  0  0  0  0
  191.7330  173.7400  136.0060 C   0  0  2  0  0  0  0  0  0  0  0  0
  190.4870  173.4360  136.5680 C   0  0  0  0  0  0  0  0  0  0  0  0
  188.3170  174.3620  135.2400 C   0  0  0  0  0  3  0  0  0  0  0  0
  192.4060  172.5860  135.2950 C   0  0  0  0  0  1  0  0  0  0  0  0
  190.5990  174.2180  135.3300 C   0  0  0  0  0  0  0  0  0  0  0  0
  189.3380  173.0760  137.2090 C   0  0  0  0  0  3  0  0  0  0  0  0
  194.1150  174.4960  136.6310 C   0  0  0  0  0  2  0  0  0  0  0  0
  194.6540  173.7690  137.8660 C   0  0  1  0  0  3  0  0  0  0  0  0
  195.1050  172.3450  137.5280 C   0  0  0  0  0  2  0  0  0  0  0  0
  197.0530  174.5800  137.6530 C   0  0  2  0  0  3  0  0  0  0  0  0
  198.0680  175.2410  138.3580 O   0  0  0  0  0  1  0  0  0  0  0  0
  195.7920  174.5640  138.5230 C   0  0  0  0  0  2  0  0  0  0  0  0
  196.3670  172.3560  136.6610 C   0  0  0  0  0  2  0  0  0  0  0  0
  197.4940  173.1440  137.3230 C   0  0  1  0  0  3  0  0  0  0  0  0
  198.6900  173.1600  136.3880 C   0  0  0  0  0  1  0  0  0  0  0  0
  1 10  1  0  0  0  0
  2 23  1  1  0  0  0
  2  5  1  0  0  0  0
  3  2  1  0  0  0  0
  5  6  1  1  0  0  0
  6 19  2  0  0  0  0
  7  9  1  0  0  0  0
  8 18  1  0  0  0  0
  9 12  1  0  0  0  0
 10 11  1  0  0  0  0
 10  4  2  0  0  0  0
 12 40  1  6  0  0  0
 12 15  1  0  0  0  0
 14 17  1  0  0  0  0
 15  5  1  0  0  0  0
 15 14  1  1  0  0  0
 16  7  1  0  0  0  0
 16  3  1  0  0  0  0
 18 13  1  1  0  0  0
 18 11  1  0  0  0  0
 19 21  2  0  0  0  0
 20 17  1  6  0  0  0
 20  8  1  0  0  0  0
 20  1  1  0  0  0  0
 21 18  1  0  0  0  0
 23 22  1  1  0  0  0
 24 25  1  0  0  0  0
 24 23  1  0  0  0  0
 25 26  2  0  0  0  0
 27 32  1  6  0  0  0
 27 28  1  0  0  0  0
 27 25  1  0  0  0  0
 27 30  1  0  0  0  0
 28 29  1  6  0  0  0
 28 30  1  0  0  0  0
 30 31  1  1  0  0  0
 33 35  1  6  0  0  0
 33 32  1  0  0  0  0
 34 35  1  0  0  0  0
 36 33  1  0  0  0  0
 36 37  1  0  0  0  0
 38 39  1  0  0  0  0
 38 37  1  0  0  0  0
 41 40  1  0  0  0  0
 41 42  1  6  0  0  0
 43 52  1  1  0  0  0
 43 41  1  0  0  0  0
 44 51  1  0  0  0  0
 45 48  1  0  0  0  0
 45 50  2  0  0  0  0
 46 49  1  6  0  0  0
 46 47  1  0  0  0  0
 46 43  1  0  0  0  0
 47 51  2  0  0  0  0
 48 44  2  0  0  0  0
 50 46  1  0  0  0  0
 50 47  1  0  0  0  0
 53 52  1  6  0  0  0
 53 57  1  0  0  0  0
 54 53  1  0  0  0  0
 55 56  1  1  0  0  0
 55 57  1  0  0  0  0
 58 59  1  0  0  0  0
 58 54  1  0  0  0  0
 59 60  1  6  0  0  0
 59 55  1  0  0  0  0
M  END
>  <MODEL>
9

>  <REMARK>
 VINA RESULT:      -4.1      3.076     10.274
  Name = 
  16 active torsions:
  status: ('A' for Active; 'I' for Inactive)
    1  A    between atoms: C_2  and  O_52
    2  A    between atoms: C_4  and  C_19
    3  A    between atoms: C_5  and  C_48
    4  A    between atoms: C_7  and  C_11
    5  A    between atoms: C_7  and  O_27
    6  A    between atoms: C_11  and  O_45
    7  A    between atoms: C_14  and  C_20
    8  A    between atoms: C_14  and  C_32
    9  A    between atoms: C_19  and  C_23
   10  A    between atoms: C_20  and  C_23
   11  A    between atoms: C_23  and  C_26
   12  A    between atoms: O_27  and  C_48
   13  A    between atoms: C_29  and  C_39
   14  A    between atoms: C_29  and  O_52
   15  A    between atoms: C_39  and  O_45
   16  A    between atoms: C_39  and  C_47
                            x       y       z     vdW  Elec       q    Type
                         _______ _______ _______ _____ _____    ______ ____

>  <TORSDO>
F 16

$$$$
