=
 OpenBabel11062416143D

 44 48  0  0  1  0  0  0  0  0999 V2000
  180.6110  178.7910  140.9150 C   0  0  2  0  0  3  0  0  0  0  0  0
  180.0780  179.9580  141.7640 C   0  0  0  0  0  2  0  0  0  0  0  0
  179.9120  179.6450  143.2600 C   0  0  0  0  0  2  0  0  0  0  0  0
  180.0510  176.3020  139.1550 C   0  0  2  0  0  3  0  0  0  0  0  0
  182.7780  179.3580  142.1590 C   0  0  0  0  0  2  0  0  0  0  0  0
  181.1930  176.9490  138.2990 C   0  0  2  0  0  0  0  0  0  0  0  0
  182.8470  175.8580  139.7660 O   0  0  0  0  0  1  0  0  0  0  0  0
  182.5540  177.0190  139.0420 C   0  0  2  0  0  3  0  0  0  0  0  0
  180.9500  178.6710  143.8270 C   0  0  0  0  0  2  0  0  0  0  0  0
  182.8520  178.2970  139.8510 C   0  0  1  0  0  3  0  0  0  0  0  0
  179.6430  177.6070  140.9380 C   0  0  0  0  0  2  0  0  0  0  0  0
  182.4000  179.1200  143.6290 C   0  0  1  0  0  3  0  0  0  0  0  0
  180.2810  176.4300  140.5340 O   0  0  0  0  0  0  0  0  0  0  0  0
  180.7930  178.2520  137.9850 O   0  0  0  0  0  1  0  0  0  0  0  0
  182.0840  178.3890  141.1860 C   0  0  2  0  0  3  0  0  0  0  0  0
  182.2420  175.0570  135.3860 C   0  0  0  0  0  0  0  0  0  0  0  0
  180.6090  176.3490  135.9130 N   0  0  0  0  0  0  0  0  0  0  0  0
  181.4110  176.2180  136.9920 C   0  0  0  0  0  0  0  0  0  0  0  0
  182.4950  175.4020  136.6970 C   0  0  0  0  0  2  0  0  0  0  0  0
  181.1180  175.6300  134.9280 N   0  0  0  0  0  0  0  0  0  0  0  0
  183.0720  174.2180  134.5940 N   0  0  0  0  0  1  0  0  0  0  0  0
  179.1640  174.1170  139.8820 O   0  0  0  0  0  0  0  0  0  0  0  0
  179.6760  174.8520  138.7990 C   0  0  1  0  0  0  0  0  0  0  0  0
  180.2580  172.5690  138.6100 F   0  0  0  0  0  0  0  0  0  0  0  0
  178.9310  174.6230  137.6390 O   0  0  0  0  0  1  0  0  0  0  0  0
  180.4210  173.7090  139.3770 C   0  0  2  0  0  3  0  0  0  0  0  0
  184.2340  178.3840  140.0550 O   0  0  0  0  0  0  0  0  0  0  0  0
  184.7170  179.0910  138.9530 C   0  0  0  0  0  2  0  0  0  0  0  0
  185.7880  178.3050  138.2850 C   0  0  0  0  0  0  0  0  0  0  0  0
  186.9570  178.3090  138.7520 O   0  0  0  0  0  1  0  0  0  0  0  0
  185.5070  177.5990  137.1220 O   0  0  0  0  0  0  0  0  0  0  0  0
  183.3200  178.0780  144.2400 C   0  0  0  0  0  2  0  0  0  0  0  0
  184.7200  178.6450  144.4150 C   0  0  0  0  0  2  0  0  0  0  0  0
  185.2880  178.2500  145.7680 C   0  0  0  0  0  2  0  0  0  0  0  0
  190.1040  175.7950  142.6900 C   0  0  0  0  0  1  0  0  0  0  0  0
  187.0450  177.6280  144.1540 C   0  0  0  0  0  2  0  0  0  0  0  0
  187.7160  178.2670  146.5140 C   0  0  2  0  0  3  0  0  0  0  0  0
  186.6500  177.5780  145.6300 C   0  0  1  0  0  3  0  0  0  0  0  0
  188.7210  176.2830  142.9810 C   0  0  0  0  0  3  0  0  0  0  0  0
  189.1030  177.6510  146.2890 C   0  0  0  0  0  2  0  0  0  0  0  0
  188.4480  177.1490  143.9610 C   0  0  0  0  0  0  0  0  0  0  0  0
  189.5180  177.7480  144.8260 C   0  0  0  0  0  2  0  0  0  0  0  0
  187.3740  178.2190  147.9780 C   0  0  0  0  0  3  0  0  0  0  0  0
  188.3100  178.1400  148.9260 C   0  0  0  0  0  2  0  0  0  0  0  0
  1 11  1  1  0  0  0
  1 15  1  0  0  0  0
  1  2  1  0  0  0  0
  2  3  1  0  0  0  0
  3  9  1  0  0  0  0
  4 13  1  1  0  0  0
  5 12  1  0  0  0  0
  6 14  1  6  0  0  0
  6  8  1  0  0  0  0
  6  4  1  0  0  0  0
  8  7  1  1  0  0  0
  8 10  1  0  0  0  0
 10 27  1  1  0  0  0
 10 15  1  0  0  0  0
 12  9  1  0  0  0  0
 12 32  1  6  0  0  0
 13 11  1  0  0  0  0
 15  5  1  1  0  0  0
 16 19  1  0  0  0  0
 17 18  2  0  0  0  0
 18  6  1  0  0  0  0
 19 18  1  0  0  0  0
 20 16  2  0  0  0  0
 20 17  1  0  0  0  0
 21 16  1  0  0  0  0
 23 25  1  6  0  0  0
 23  4  1  0  0  0  0
 23 26  1  0  0  0  0
 23 22  1  0  0  0  0
 26 24  1  6  0  0  0
 26 22  1  0  0  0  0
 28 27  1  0  0  0  0
 29 30  1  0  0  0  0
 29 28  1  0  0  0  0
 31 29  2  0  0  0  0
 32 33  1  0  0  0  0
 33 34  1  0  0  0  0
 35 39  1  0  0  0  0
 36 38  1  0  0  0  0
 37 43  1  1  0  0  0
 38 34  1  6  0  0  0
 38 37  1  0  0  0  0
 39 41  2  0  0  0  0
 40 37  1  0  0  0  0
 41 36  1  0  0  0  0
 41 42  1  0  0  0  0
 42 40  1  0  0  0  0
 43 44  2  0  0  0  0
M  END
>  <MODEL>
1

>  <REMARK>
 VINA RESULT:      -8.0      0.000      0.000
  Name = 
  10 active torsions:
  status: ('A' for Active; 'I' for Inactive)
    1  A    between atoms: O_9  and  C_31
    2  A    between atoms: O_9  and  C_43
    3  A    between atoms: C_10  and  C_16
    4  A    between atoms: C_11  and  C_12
    5  A    between atoms: C_13  and  C_26
    6  A    between atoms: C_13  and  C_27
    7  A    between atoms: C_14  and  C_20
    8  A    between atoms: C_19  and  C_26
    9  A    between atoms: C_25  and  C_43
   10  A    between atoms: C_27  and  C_34
                            x       y       z     vdW  Elec       q    Type
                         _______ _______ _______ _____ _____    ______ ____

>  <TORSDO>
F 10

$$$$
=
 OpenBabel11062416143D

 44 48  0  0  1  0  0  0  0  0999 V2000
  187.4080  177.3300  136.4120 C   0  0  2  0  0  3  0  0  0  0  0  0
  188.4270  178.4310  136.0690 C   0  0  0  0  0  2  0  0  0  0  0  0
  188.9920  179.1890  137.2810 C   0  0  0  0  0  2  0  0  0  0  0  0
  184.4650  176.4710  136.8670 C   0  0  2  0  0  3  0  0  0  0  0  0
  189.5200  176.1510  137.2600 C   0  0  0  0  0  2  0  0  0  0  0  0
  184.9510  175.2340  136.0360 C   0  0  2  0  0  0  0  0  0  0  0  0
  185.8310  174.2410  138.1140 O   0  0  0  0  0  1  0  0  0  0  0  0
  186.0630  174.4140  136.7440 C   0  0  2  0  0  3  0  0  0  0  0  0
  189.1470  178.3420  138.5480 C   0  0  0  0  0  2  0  0  0  0  0  0
  187.5240  174.8040  136.4480 C   0  0  1  0  0  3  0  0  0  0  0  0
  186.1690  177.9190  137.0870 C   0  0  0  0  0  2  0  0  0  0  0  0
  190.0190  177.0980  138.3630 C   0  0  1  0  0  3  0  0  0  0  0  0
  185.4460  176.9300  137.7610 O   0  0  0  0  0  0  0  0  0  0  0  0
  185.4610  175.7170  134.8260 O   0  0  0  0  0  1  0  0  0  0  0  0
  187.9850  176.0960  137.1530 C   0  0  2  0  0  3  0  0  0  0  0  0
  182.4640  172.6210  135.6400 C   0  0  0  0  0  0  0  0  0  0  0  0
  183.0100  174.4340  134.6260 N   0  0  0  0  0  0  0  0  0  0  0  0
  183.8160  174.2910  135.7000 C   0  0  0  0  0  0  0  0  0  0  0  0
  183.5130  173.1210  136.3830 C   0  0  0  0  0  2  0  0  0  0  0  0
  182.1750  173.4100  134.5940 N   0  0  0  0  0  0  0  0  0  0  0  0
  181.7770  171.4090  135.9200 N   0  0  0  0  0  1  0  0  0  0  0  0
  182.9940  177.0890  138.7490 O   0  0  0  0  0  0  0  0  0  0  0  0
  183.1090  176.3170  137.5800 C   0  0  1  0  0  0  0  0  0  0  0  0
  181.7370  175.2300  139.1660 F   0  0  0  0  0  0  0  0  0  0  0  0
  181.9430  176.3890  136.8140 O   0  0  0  0  0  1  0  0  0  0  0  0
  183.0190  175.6840  138.9160 C   0  0  2  0  0  3  0  0  0  0  0  0
  188.3500  173.7230  136.7810 O   0  0  0  0  0  0  0  0  0  0  0  0
  188.3370  172.8990  135.6540 C   0  0  0  0  0  2  0  0  0  0  0  0
  189.7320  172.6310  135.2160 C   0  0  0  0  0  0  0  0  0  0  0  0
  190.5560  173.5780  135.1230 O   0  0  0  0  0  1  0  0  0  0  0  0
  190.1150  171.3410  134.8700 O   0  0  0  0  0  0  0  0  0  0  0  0
  190.0990  176.3580  139.6860 C   0  0  0  0  0  2  0  0  0  0  0  0
  189.4420  177.1710  140.7890 C   0  0  0  0  0  2  0  0  0  0  0  0
  189.6770  176.5190  142.1420 C   0  0  0  0  0  2  0  0  0  0  0  0
  185.1440  178.6480  145.8320 C   0  0  0  0  0  1  0  0  0  0  0  0
  187.6480  176.8760  143.4980 C   0  0  0  0  0  2  0  0  0  0  0  0
  189.9200  177.2200  144.5710 C   0  0  2  0  0  3  0  0  0  0  0  0
  189.0850  177.3500  143.2760 C   0  0  1  0  0  3  0  0  0  0  0  0
  185.8260  178.0340  144.6520 C   0  0  0  0  0  3  0  0  0  0  0  0
  189.2590  177.9740  145.7330 C   0  0  0  0  0  2  0  0  0  0  0  0
  187.0570  177.5180  144.7120 C   0  0  0  0  0  0  0  0  0  0  0  0
  187.8450  177.4650  145.9870 C   0  0  0  0  0  2  0  0  0  0  0  0
  191.3350  177.6970  144.3990 C   0  0  0  0  0  3  0  0  0  0  0  0
  191.6270  178.9530  144.0500 C   0  0  0  0  0  2  0  0  0  0  0  0
  1  2  1  1  0  0  0
  1 11  1  0  0  0  0
  1 15  1  0  0  0  0
  2  3  1  0  0  0  0
  3  9  1  0  0  0  0
  4 23  1  0  0  0  0
  4 13  1  1  0  0  0
  5 12  1  0  0  0  0
  6 14  1  6  0  0  0
  6  8  1  0  0  0  0
  6  4  1  0  0  0  0
  8  7  1  1  0  0  0
 10  8  1  0  0  0  0
 10 27  1  1  0  0  0
 10 15  1  0  0  0  0
 11 13  1  0  0  0  0
 12  9  1  0  0  0  0
 12 32  1  1  0  0  0
 15  5  1  6  0  0  0
 16 21  1  0  0  0  0
 16 19  1  0  0  0  0
 17 18  2  0  0  0  0
 18  6  1  0  0  0  0
 18 19  1  0  0  0  0
 20 17  1  0  0  0  0
 20 16  2  0  0  0  0
 22 26  1  0  0  0  0
 23 25  1  6  0  0  0
 23 22  1  0  0  0  0
 23 26  1  0  0  0  0
 26 24  1  6  0  0  0
 28 27  1  0  0  0  0
 29 28  1  0  0  0  0
 30 29  1  0  0  0  0
 31 29  2  0  0  0  0
 32 33  1  0  0  0  0
 33 34  1  0  0  0  0
 36 41  1  0  0  0  0
 37 43  1  6  0  0  0
 37 40  1  0  0  0  0
 38 34  1  6  0  0  0
 38 36  1  0  0  0  0
 38 37  1  0  0  0  0
 39 41  2  0  0  0  0
 39 35  1  0  0  0  0
 40 42  1  0  0  0  0
 41 42  1  0  0  0  0
 44 43  2  0  0  0  0
M  END
>  <MODEL>
2

>  <REMARK>
 VINA RESULT:      -7.5      3.288      5.985
  Name = 
  10 active torsions:
  status: ('A' for Active; 'I' for Inactive)
    1  A    between atoms: O_9  and  C_31
    2  A    between atoms: O_9  and  C_43
    3  A    between atoms: C_10  and  C_16
    4  A    between atoms: C_11  and  C_12
    5  A    between atoms: C_13  and  C_26
    6  A    between atoms: C_13  and  C_27
    7  A    between atoms: C_14  and  C_20
    8  A    between atoms: C_19  and  C_26
    9  A    between atoms: C_25  and  C_43
   10  A    between atoms: C_27  and  C_34
                            x       y       z     vdW  Elec       q    Type
                         _______ _______ _______ _____ _____    ______ ____

>  <TORSDO>
F 10

$$$$
=
 OpenBabel11062416143D

 44 48  0  0  1  0  0  0  0  0999 V2000
  180.0530  178.6830  140.9880 C   0  0  2  0  0  3  0  0  0  0  0  0
  179.4210  179.7650  141.8810 C   0  0  0  0  0  2  0  0  0  0  0  0
  179.3740  179.4210  143.3790 C   0  0  0  0  0  2  0  0  0  0  0  0
  179.7230  176.1580  139.2210 C   0  0  2  0  0  3  0  0  0  0  0  0
  182.1930  179.5110  142.1300 C   0  0  0  0  0  2  0  0  0  0  0  0
  180.7290  176.9530  138.3190 C   0  0  2  0  0  0  0  0  0  0  0  0
  182.5810  176.0690  139.6840 O   0  0  0  0  0  1  0  0  0  0  0  0
  182.1070  177.1900  138.9930 C   0  0  2  0  0  3  0  0  0  0  0  0
  180.5550  178.5820  143.8770 C   0  0  0  0  0  2  0  0  0  0  0  0
  182.2810  178.4880  139.8060 C   0  0  1  0  0  3  0  0  0  0  0  0
  179.2470  177.3850  141.0420 C   0  0  0  0  0  2  0  0  0  0  0  0
  181.9240  179.2140  143.6140 C   0  0  1  0  0  3  0  0  0  0  0  0
  180.0070  176.3020  140.5890 O   0  0  0  0  0  0  0  0  0  0  0  0
  180.1510  178.1970  138.0450 O   0  0  0  0  0  1  0  0  0  0  0  0
  181.5780  178.4700  141.1790 C   0  0  2  0  0  3  0  0  0  0  0  0
  181.7290  175.0140  135.4200 C   0  0  0  0  0  0  0  0  0  0  0  0
  180.4350  176.6800  135.8220 N   0  0  0  0  0  0  0  0  0  0  0  0
  180.9700  176.2670  136.9910 C   0  0  0  0  0  0  0  0  0  0  0  0
  181.8300  175.1980  136.7830 C   0  0  0  0  0  2  0  0  0  0  0  0
  180.8980  175.9050  134.8570 N   0  0  0  0  0  0  0  0  0  0  0  0
  182.4300  174.0230  134.6810 N   0  0  0  0  0  1  0  0  0  0  0  0
  178.9520  173.9150  139.8990 O   0  0  0  0  0  0  0  0  0  0  0  0
  179.5180  174.6750  138.8620 C   0  0  1  0  0  0  0  0  0  0  0  0
  180.3120  172.4510  138.7970 F   0  0  0  0  0  0  0  0  0  0  0  0
  178.9310  174.3640  137.6330 O   0  0  0  0  0  1  0  0  0  0  0  0
  180.2880  173.6120  139.5480 C   0  0  2  0  0  3  0  0  0  0  0  0
  183.6490  178.7490  139.9420 O   0  0  0  0  0  0  0  0  0  0  0  0
  184.1050  178.9700  138.6410 C   0  0  0  0  0  2  0  0  0  0  0  0
  185.4150  178.2930  138.4480 C   0  0  0  0  0  0  0  0  0  0  0  0
  186.4090  178.6370  139.1390 O   0  0  0  0  0  1  0  0  0  0  0  0
  185.5510  177.3090  137.4780 O   0  0  0  0  0  0  0  0  0  0  0  0
  183.0000  178.2930  144.1620 C   0  0  0  0  0  2  0  0  0  0  0  0
  184.3780  178.8890  143.9260 C   0  0  0  0  0  2  0  0  0  0  0  0
  185.3840  177.7930  143.6140 C   0  0  0  0  0  2  0  0  0  0  0  0
  189.0150  178.4340  148.6240 C   0  0  0  0  0  1  0  0  0  0  0  0
  186.4450  177.7290  145.8390 C   0  0  0  0  0  2  0  0  0  0  0  0
  187.8200  177.1010  143.8040 C   0  0  2  0  0  3  0  0  0  0  0  0
  186.6980  178.0090  144.3570 C   0  0  1  0  0  3  0  0  0  0  0  0
  187.7900  178.4090  147.7680 C   0  0  0  0  0  3  0  0  0  0  0  0
  189.1080  177.2490  144.6260 C   0  0  0  0  0  2  0  0  0  0  0  0
  187.7250  177.7450  146.6110 C   0  0  0  0  0  0  0  0  0  0  0  0
  188.8660  176.9190  146.0940 C   0  0  0  0  0  2  0  0  0  0  0  0
  188.1150  177.3620  142.3520 C   0  0  0  0  0  3  0  0  0  0  0  0
  189.2110  178.0130  141.9530 C   0  0  0  0  0  2  0  0  0  0  0  0
  1 11  1  1  0  0  0
  1 15  1  0  0  0  0
  1  2  1  0  0  0  0
  2  3  1  0  0  0  0
  3  9  1  0  0  0  0
  4 13  1  1  0  0  0
  5 12  1  0  0  0  0
  6 14  1  6  0  0  0
  6  8  1  0  0  0  0
  6  4  1  0  0  0  0
  8  7  1  1  0  0  0
  8 10  1  0  0  0  0
 10 27  1  1  0  0  0
 10 15  1  0  0  0  0
 12  9  1  0  0  0  0
 12 32  1  6  0  0  0
 13 11  1  0  0  0  0
 15  5  1  1  0  0  0
 16 19  1  0  0  0  0
 17 18  2  0  0  0  0
 18  6  1  0  0  0  0
 19 18  1  0  0  0  0
 20 16  2  0  0  0  0
 20 17  1  0  0  0  0
 21 16  1  0  0  0  0
 23 25  1  6  0  0  0
 23  4  1  0  0  0  0
 23 26  1  0  0  0  0
 23 22  1  0  0  0  0
 26 24  1  6  0  0  0
 26 22  1  0  0  0  0
 28 27  1  0  0  0  0
 29 28  1  0  0  0  0
 29 30  1  0  0  0  0
 31 29  2  0  0  0  0
 33 32  1  0  0  0  0
 34 33  1  0  0  0  0
 36 41  1  0  0  0  0
 37 43  1  6  0  0  0
 37 38  1  0  0  0  0
 37 40  1  0  0  0  0
 38 34  1  6  0  0  0
 38 36  1  0  0  0  0
 39 35  1  0  0  0  0
 40 42  1  0  0  0  0
 41 39  2  0  0  0  0
 42 41  1  0  0  0  0
 44 43  2  0  0  0  0
M  END
>  <MODEL>
3

>  <REMARK>
 VINA RESULT:      -7.5      0.698      2.103
  Name = 
  10 active torsions:
  status: ('A' for Active; 'I' for Inactive)
    1  A    between atoms: O_9  and  C_31
    2  A    between atoms: O_9  and  C_43
    3  A    between atoms: C_10  and  C_16
    4  A    between atoms: C_11  and  C_12
    5  A    between atoms: C_13  and  C_26
    6  A    between atoms: C_13  and  C_27
    7  A    between atoms: C_14  and  C_20
    8  A    between atoms: C_19  and  C_26
    9  A    between atoms: C_25  and  C_43
   10  A    between atoms: C_27  and  C_34
                            x       y       z     vdW  Elec       q    Type
                         _______ _______ _______ _____ _____    ______ ____

>  <TORSDO>
F 10

$$$$
=
 OpenBabel11062416143D

 44 48  0  0  1  0  0  0  0  0999 V2000
  186.3480  177.0990  135.5170 C   0  0  2  0  0  3  0  0  0  0  0  0
  185.1430  177.6730  134.7520 C   0  0  0  0  0  2  0  0  0  0  0  0
  183.7960  177.0090  135.0760 C   0  0  0  0  0  2  0  0  0  0  0  0
  188.6900  175.0740  135.6680 C   0  0  2  0  0  3  0  0  0  0  0  0
  185.2290  178.3280  137.4670 C   0  0  0  0  0  2  0  0  0  0  0  0
  189.4350  176.3430  136.2080 C   0  0  2  0  0  0  0  0  0  0  0  0
  188.5340  175.8610  138.4520 O   0  0  0  0  0  1  0  0  0  0  0  0
  188.8520  176.8780  137.5440 C   0  0  2  0  0  3  0  0  0  0  0  0
  183.6520  176.5330  136.5250 C   0  0  0  0  0  2  0  0  0  0  0  0
  187.7400  177.9410  137.4530 C   0  0  1  0  0  3  0  0  0  0  0  0
  186.5710  175.6270  135.1680 C   0  0  0  0  0  2  0  0  0  0  0  0
  183.8610  177.6340  137.5670 C   0  0  1  0  0  3  0  0  0  0  0  0
  187.3660  174.9970  136.1300 O   0  0  0  0  0  0  0  0  0  0  0  0
  189.3100  177.3450  135.2390 O   0  0  0  0  0  1  0  0  0  0  0  0
  186.3640  177.3800  137.0420 C   0  0  2  0  0  3  0  0  0  0  0  0
  192.8760  175.8690  137.2570 C   0  0  0  0  0  0  0  0  0  0  0  0
  191.8030  175.9780  135.4000 N   0  0  0  0  0  0  0  0  0  0  0  0
  190.9140  176.0940  136.4100 C   0  0  0  0  0  0  0  0  0  0  0  0
  191.5620  176.0470  137.6360 C   0  0  0  0  0  2  0  0  0  0  0  0
  193.0080  175.8330  135.9220 N   0  0  0  0  0  0  0  0  0  0  0  0
  193.9720  175.7600  138.1550 N   0  0  0  0  0  1  0  0  0  0  0  0
  190.4260  173.4880  134.9220 O   0  0  0  0  0  0  0  0  0  0  0  0
  189.4140  173.7290  135.8660 C   0  0  1  0  0  0  0  0  0  0  0  0
  189.6050  171.4170  135.4180 F   0  0  0  0  0  0  0  0  0  0  0  0
  189.8330  173.3820  137.1520 O   0  0  0  0  0  1  0  0  0  0  0  0
  189.2920  172.6450  134.8640 C   0  0  2  0  0  3  0  0  0  0  0  0
  187.6660  178.6140  138.6790 O   0  0  0  0  0  0  0  0  0  0  0  0
  188.9760  178.6300  139.1610 C   0  0  0  0  0  2  0  0  0  0  0  0
  188.9760  178.3310  140.6180 C   0  0  0  0  0  0  0  0  0  0  0  0
  188.1430  178.8940  141.3750 O   0  0  0  0  0  1  0  0  0  0  0  0
  189.9220  177.4630  141.1480 O   0  0  0  0  0  0  0  0  0  0  0  0
  183.6820  177.0360  138.9510 C   0  0  0  0  0  2  0  0  0  0  0  0
  184.1190  178.0280  140.0180 C   0  0  0  0  0  2  0  0  0  0  0  0
  182.9810  178.2990  140.9880 C   0  0  0  0  0  2  0  0  0  0  0  0
  187.1020  177.5310  145.5840 C   0  0  0  0  0  1  0  0  0  0  0  0
  184.9590  178.2430  142.4600 C   0  0  0  0  0  2  0  0  0  0  0  0
  182.7950  179.2280  143.3450 C   0  0  2  0  0  3  0  0  0  0  0  0
  183.4320  178.1490  142.4370 C   0  0  1  0  0  3  0  0  0  0  0  0
  186.5010  177.5130  144.2150 C   0  0  0  0  0  3  0  0  0  0  0  0
  183.3360  179.1340  144.7780 C   0  0  0  0  0  2  0  0  0  0  0  0
  185.4680  178.2850  143.8650 C   0  0  0  0  0  0  0  0  0  0  0  0
  184.8530  179.2790  144.8050 C   0  0  0  0  0  2  0  0  0  0  0  0
  181.2940  179.1540  143.3660 C   0  0  0  0  0  3  0  0  0  0  0  0
  180.6380  178.1020  143.8620 C   0  0  0  0  0  2  0  0  0  0  0  0
  1  2  1  1  0  0  0
  1 15  1  0  0  0  0
  2  3  1  0  0  0  0
  3  9  1  0  0  0  0
  4 23  1  0  0  0  0
  4 13  1  1  0  0  0
  4  6  1  0  0  0  0
  5 12  1  0  0  0  0
  6 14  1  6  0  0  0
  6 18  1  0  0  0  0
  6  8  1  0  0  0  0
  8  7  1  6  0  0  0
  9 12  1  0  0  0  0
 10  8  1  0  0  0  0
 10 27  1  1  0  0  0
 11  1  1  0  0  0  0
 11 13  1  0  0  0  0
 12 32  1  1  0  0  0
 15 10  1  0  0  0  0
 15  5  1  6  0  0  0
 16 19  1  0  0  0  0
 16 21  1  0  0  0  0
 17 20  1  0  0  0  0
 17 18  2  0  0  0  0
 18 19  1  0  0  0  0
 20 16  2  0  0  0  0
 22 23  1  0  0  0  0
 23 25  1  1  0  0  0
 26 22  1  0  0  0  0
 26 24  1  1  0  0  0
 26 23  1  0  0  0  0
 27 28  1  0  0  0  0
 28 29  1  0  0  0  0
 29 31  2  0  0  0  0
 29 30  1  0  0  0  0
 32 33  1  0  0  0  0
 33 34  1  0  0  0  0
 36 41  1  0  0  0  0
 37 43  1  1  0  0  0
 37 40  1  0  0  0  0
 38 34  1  6  0  0  0
 38 36  1  0  0  0  0
 38 37  1  0  0  0  0
 39 35  1  0  0  0  0
 40 42  1  0  0  0  0
 41 39  2  0  0  0  0
 41 42  1  0  0  0  0
 43 44  2  0  0  0  0
M  END
>  <MODEL>
4

>  <REMARK>
 VINA RESULT:      -7.4      4.550      7.771
  Name = 
  10 active torsions:
  status: ('A' for Active; 'I' for Inactive)
    1  A    between atoms: O_9  and  C_31
    2  A    between atoms: O_9  and  C_43
    3  A    between atoms: C_10  and  C_16
    4  A    between atoms: C_11  and  C_12
    5  A    between atoms: C_13  and  C_26
    6  A    between atoms: C_13  and  C_27
    7  A    between atoms: C_14  and  C_20
    8  A    between atoms: C_19  and  C_26
    9  A    between atoms: C_25  and  C_43
   10  A    between atoms: C_27  and  C_34
                            x       y       z     vdW  Elec       q    Type
                         _______ _______ _______ _____ _____    ______ ____

>  <TORSDO>
F 10

$$$$
=
 OpenBabel11062416143D

 44 48  0  0  1  0  0  0  0  0999 V2000
  185.6690  178.6460  138.6420 C   0  0  2  0  0  3  0  0  0  0  0  0
  184.5370  179.6400  138.9550 C   0  0  0  0  0  2  0  0  0  0  0  0
  183.4130  179.0810  139.8420 C   0  0  0  0  0  2  0  0  0  0  0  0
  186.8640  176.4610  136.7970 C   0  0  2  0  0  3  0  0  0  0  0  0
  186.2250  179.0720  141.1080 C   0  0  0  0  0  2  0  0  0  0  0  0
  188.1720  177.2760  137.0830 C   0  0  2  0  0  0  0  0  0  0  0  0
  188.4450  176.0140  139.1830 O   0  0  0  0  0  1  0  0  0  0  0  0
  188.5890  177.2680  138.5780 C   0  0  2  0  0  3  0  0  0  0  0  0
  183.8740  178.0620  140.8890 C   0  0  0  0  0  2  0  0  0  0  0  0
  188.0480  178.4050  139.4670 C   0  0  1  0  0  3  0  0  0  0  0  0
  185.1440  177.4430  137.8580 C   0  0  0  0  0  2  0  0  0  0  0  0
  184.9600  178.5840  141.8320 C   0  0  1  0  0  3  0  0  0  0  0  0
  186.0370  176.3690  137.9280 O   0  0  0  0  0  0  0  0  0  0  0  0
  187.9320  178.5990  136.6980 O   0  0  0  0  0  1  0  0  0  0  0  0
  186.5610  178.2530  139.8490 C   0  0  2  0  0  3  0  0  0  0  0  0
  191.1940  175.8760  135.6410 C   0  0  0  0  0  0  0  0  0  0  0  0
  189.5800  177.1330  134.9870 N   0  0  0  0  0  0  0  0  0  0  0  0
  189.3460  176.7760  136.2680 C   0  0  0  0  0  0  0  0  0  0  0  0
  190.3720  175.9730  136.7450 C   0  0  0  0  0  2  0  0  0  0  0  0
  190.7130  176.5740  134.6010 N   0  0  0  0  0  0  0  0  0  0  0  0
  192.4140  175.1490  135.6000 N   0  0  0  0  0  1  0  0  0  0  0  0
  187.4460  175.1330  134.8010 O   0  0  0  0  0  0  0  0  0  0  0  0
  187.0570  175.0770  136.1500 C   0  0  1  0  0  0  0  0  0  0  0  0
  186.1900  173.2330  134.9540 F   0  0  0  0  0  0  0  0  0  0  0  0
  187.7910  174.1140  136.8460 O   0  0  0  0  0  1  0  0  0  0  0  0
  186.1590  174.6110  135.0680 C   0  0  2  0  0  3  0  0  0  0  0  0
  188.8550  178.5020  140.6070 O   0  0  0  0  0  0  0  0  0  0  0  0
  189.9470  177.6730  140.3470 C   0  0  0  0  0  2  0  0  0  0  0  0
  190.5450  177.2160  141.6300 C   0  0  0  0  0  0  0  0  0  0  0  0
  191.4060  177.9270  142.2110 O   0  0  0  0  0  1  0  0  0  0  0  0
  190.1830  175.9870  142.1660 O   0  0  0  0  0  0  0  0  0  0  0  0
  185.3180  177.4870  142.8190 C   0  0  0  0  0  2  0  0  0  0  0  0
  186.8130  177.4860  143.0920 C   0  0  0  0  0  2  0  0  0  0  0  0
  187.1320  178.3450  144.3040 C   0  0  0  0  0  2  0  0  0  0  0  0
  192.0550  175.8330  147.1590 C   0  0  0  0  0  1  0  0  0  0  0  0
  189.3530  177.7730  145.2110 C   0  0  0  0  0  2  0  0  0  0  0  0
  187.3860  177.9570  146.8010 C   0  0  2  0  0  3  0  0  0  0  0  0
  187.8500  177.5440  145.3850 C   0  0  1  0  0  3  0  0  0  0  0  0
  191.2060  176.4330  146.0850 C   0  0  0  0  0  3  0  0  0  0  0  0
  188.1890  177.2220  147.8830 C   0  0  0  0  0  2  0  0  0  0  0  0
  190.1180  177.1650  146.3430 C   0  0  0  0  0  0  0  0  0  0  0  0
  189.6820  177.4920  147.7400 C   0  0  0  0  0  2  0  0  0  0  0  0
  185.9160  177.7270  147.0200 C   0  0  0  0  0  3  0  0  0  0  0  0
  184.9930  178.6210  146.6550 C   0  0  0  0  0  2  0  0  0  0  0  0
  1 11  1  1  0  0  0
  1  2  1  0  0  0  0
  1 15  1  0  0  0  0
  2  3  1  0  0  0  0
  3  9  1  0  0  0  0
  4  6  1  0  0  0  0
  4 13  1  1  0  0  0
  5 12  1  0  0  0  0
  6 14  1  6  0  0  0
  6  8  1  0  0  0  0
  8  7  1  1  0  0  0
  8 10  1  0  0  0  0
  9 12  1  0  0  0  0
 10 15  1  0  0  0  0
 10 27  1  1  0  0  0
 11 13  1  0  0  0  0
 12 32  1  1  0  0  0
 15  5  1  1  0  0  0
 16 19  1  0  0  0  0
 17 18  2  0  0  0  0
 18 19  1  0  0  0  0
 18  6  1  0  0  0  0
 20 17  1  0  0  0  0
 20 16  2  0  0  0  0
 21 16  1  0  0  0  0
 22 26  1  0  0  0  0
 22 23  1  0  0  0  0
 23  4  1  0  0  0  0
 23 25  1  1  0  0  0
 26 24  1  1  0  0  0
 26 23  1  0  0  0  0
 28 27  1  0  0  0  0
 28 29  1  0  0  0  0
 29 31  2  0  0  0  0
 29 30  1  0  0  0  0
 32 33  1  0  0  0  0
 33 34  1  0  0  0  0
 36 38  1  0  0  0  0
 36 41  1  0  0  0  0
 37 43  1  6  0  0  0
 37 40  1  0  0  0  0
 38 34  1  6  0  0  0
 38 37  1  0  0  0  0
 39 41  2  0  0  0  0
 39 35  1  0  0  0  0
 41 42  1  0  0  0  0
 42 40  1  0  0  0  0
 44 43  2  0  0  0  0
M  END
>  <MODEL>
5

>  <REMARK>
 VINA RESULT:      -7.1      4.127      5.958
  Name = 
  10 active torsions:
  status: ('A' for Active; 'I' for Inactive)
    1  A    between atoms: O_9  and  C_31
    2  A    between atoms: O_9  and  C_43
    3  A    between atoms: C_10  and  C_16
    4  A    between atoms: C_11  and  C_12
    5  A    between atoms: C_13  and  C_26
    6  A    between atoms: C_13  and  C_27
    7  A    between atoms: C_14  and  C_20
    8  A    between atoms: C_19  and  C_26
    9  A    between atoms: C_25  and  C_43
   10  A    between atoms: C_27  and  C_34
                            x       y       z     vdW  Elec       q    Type
                         _______ _______ _______ _____ _____    ______ ____

>  <TORSDO>
F 10

$$$$
=
 OpenBabel11062416143D

 44 48  0  0  1  0  0  0  0  0999 V2000
  184.2010  179.0810  141.4780 C   0  0  2  0  0  3  0  0  0  0  0  0
  184.5310  179.7560  142.8200 C   0  0  0  0  0  2  0  0  0  0  0  0
  185.0010  178.7990  143.9280 C   0  0  0  0  0  2  0  0  0  0  0  0
  182.1240  177.7390  139.6090 C   0  0  2  0  0  3  0  0  0  0  0  0
  186.7520  178.8450  141.3890 C   0  0  0  0  0  2  0  0  0  0  0  0
  182.8670  178.6230  138.5480 C   0  0  2  0  0  0  0  0  0  0  0  0
  184.5750  176.8580  138.3400 O   0  0  0  0  0  1  0  0  0  0  0  0
  184.3600  178.2410  138.3640 C   0  0  2  0  0  3  0  0  0  0  0  0
  185.8150  177.6000  143.4310 C   0  0  0  0  0  2  0  0  0  0  0  0
  185.3890  178.9720  139.2480 C   0  0  1  0  0  3  0  0  0  0  0  0
  183.0420  178.0950  141.6290 C   0  0  0  0  0  2  0  0  0  0  0  0
  187.0580  177.9810  142.6230 C   0  0  1  0  0  3  0  0  0  0  0  0
  183.0050  177.1950  140.5580 O   0  0  0  0  0  0  0  0  0  0  0  0
  182.8010  179.9490  138.9900 O   0  0  0  0  0  1  0  0  0  0  0  0
  185.4150  178.4910  140.7130 C   0  0  2  0  0  3  0  0  0  0  0  0
  180.8630  178.8480  135.5320 C   0  0  0  0  0  0  0  0  0  0  0  0
  182.5350  177.6900  136.2210 N   0  0  0  0  0  0  0  0  0  0  0  0
  182.1990  178.5670  137.1910 C   0  0  0  0  0  0  0  0  0  0  0  0
  181.1080  179.3310  136.8000 C   0  0  0  0  0  2  0  0  0  0  0  0
  181.7170  177.8680  135.1990 N   0  0  0  0  0  0  0  0  0  0  0  0
  179.8220  179.3030  134.6770 N   0  0  0  0  0  1  0  0  0  0  0  0
  181.2120  175.4540  139.7840 O   0  0  0  0  0  0  0  0  0  0  0  0
  181.1900  176.6510  139.0490 C   0  0  1  0  0  0  0  0  0  0  0  0
  180.8170  174.7960  137.6340 F   0  0  0  0  0  0  0  0  0  0  0  0
  179.8830  177.0080  138.7080 O   0  0  0  0  0  1  0  0  0  0  0  0
  181.7370  175.4010  138.4710 C   0  0  2  0  0  3  0  0  0  0  0  0
  186.6510  178.8530  138.6540 O   0  0  0  0  0  0  0  0  0  0  0  0
  186.3950  178.4720  137.3350 C   0  0  0  0  0  2  0  0  0  0  0  0
  187.5860  177.7800  136.7740 C   0  0  0  0  0  0  0  0  0  0  0  0
  187.5570  177.3330  135.5970 O   0  0  0  0  0  0  0  0  0  0  0  0
  188.7140  177.5910  137.5610 O   0  0  0  0  0  1  0  0  0  0  0  0
  187.7740  176.7110  142.2020 C   0  0  0  0  0  2  0  0  0  0  0  0
  188.6160  176.1720  143.3480 C   0  0  0  0  0  2  0  0  0  0  0  0
  189.2680  177.3140  144.1100 C   0  0  0  0  0  2  0  0  0  0  0  0
  192.9600  175.6410  148.8290 C   0  0  0  0  0  1  0  0  0  0  0  0
  191.1120  176.9350  145.7030 C   0  0  0  0  0  2  0  0  0  0  0  0
  188.9170  177.8690  146.5640 C   0  0  2  0  0  3  0  0  0  0  0  0
  189.5900  176.9170  145.5470 C   0  0  1  0  0  3  0  0  0  0  0  0
  192.4750  175.8660  147.4330 C   0  0  0  0  0  3  0  0  0  0  0  0
  189.3320  177.5260  148.0010 C   0  0  0  0  0  2  0  0  0  0  0  0
  191.5030  176.7310  147.1320 C   0  0  0  0  0  0  0  0  0  0  0  0
  190.8450  177.5940  148.1690 C   0  0  0  0  0  2  0  0  0  0  0  0
  187.4170  177.8640  146.4570 C   0  0  0  0  0  3  0  0  0  0  0  0
  186.6350  178.4450  147.3700 C   0  0  0  0  0  2  0  0  0  0  0  0
  1 11  1  1  0  0  0
  1  2  1  0  0  0  0
  2  3  1  0  0  0  0
  4 13  1  6  0  0  0
  5 12  1  0  0  0  0
  6 14  1  1  0  0  0
  6  4  1  0  0  0  0
  8  7  1  1  0  0  0
  8  6  1  0  0  0  0
  8 10  1  0  0  0  0
  9  3  1  0  0  0  0
 10 27  1  6  0  0  0
 10 15  1  0  0  0  0
 12 32  1  6  0  0  0
 12  9  1  0  0  0  0
 13 11  1  0  0  0  0
 15  5  1  1  0  0  0
 15  1  1  0  0  0  0
 16 19  1  0  0  0  0
 17 18  2  0  0  0  0
 18  6  1  0  0  0  0
 19 18  1  0  0  0  0
 20 16  2  0  0  0  0
 20 17  1  0  0  0  0
 21 16  1  0  0  0  0
 23 25  1  6  0  0  0
 23  4  1  0  0  0  0
 23 22  1  0  0  0  0
 26 24  1  6  0  0  0
 26 23  1  0  0  0  0
 26 22  1  0  0  0  0
 28 27  1  0  0  0  0
 29 28  1  0  0  0  0
 29 31  1  0  0  0  0
 30 29  2  0  0  0  0
 32 33  1  0  0  0  0
 33 34  1  0  0  0  0
 36 41  1  0  0  0  0
 37 43  1  1  0  0  0
 37 40  1  0  0  0  0
 38 34  1  6  0  0  0
 38 36  1  0  0  0  0
 38 37  1  0  0  0  0
 39 35  1  0  0  0  0
 40 42  1  0  0  0  0
 41 39  2  0  0  0  0
 41 42  1  0  0  0  0
 43 44  2  0  0  0  0
M  END
>  <MODEL>
6

>  <REMARK>
 VINA RESULT:      -7.0      2.045      3.624
  Name = 
  10 active torsions:
  status: ('A' for Active; 'I' for Inactive)
    1  A    between atoms: O_9  and  C_31
    2  A    between atoms: O_9  and  C_43
    3  A    between atoms: C_10  and  C_16
    4  A    between atoms: C_11  and  C_12
    5  A    between atoms: C_13  and  C_26
    6  A    between atoms: C_13  and  C_27
    7  A    between atoms: C_14  and  C_20
    8  A    between atoms: C_19  and  C_26
    9  A    between atoms: C_25  and  C_43
   10  A    between atoms: C_27  and  C_34
                            x       y       z     vdW  Elec       q    Type
                         _______ _______ _______ _____ _____    ______ ____

>  <TORSDO>
F 10

$$$$
=
 OpenBabel11062416143D

 44 48  0  0  1  0  0  0  0  0999 V2000
  181.8730  178.0920  137.2910 C   0  0  2  0  0  3  0  0  0  0  0  0
  181.5800  179.5960  137.1510 C   0  0  0  0  0  2  0  0  0  0  0  0
  181.0750  180.2780  138.4320 C   0  0  0  0  0  2  0  0  0  0  0  0
  180.8960  175.1570  137.0930 C   0  0  2  0  0  3  0  0  0  0  0  0
  183.8640  178.9790  138.6380 C   0  0  0  0  0  2  0  0  0  0  0  0
  182.3100  174.9840  136.4380 C   0  0  2  0  0  0  0  0  0  0  0  0
  183.2800  174.7790  138.6950 O   0  0  0  0  0  1  0  0  0  0  0  0
  183.4800  175.2940  137.4090 C   0  0  2  0  0  3  0  0  0  0  0  0
  181.6570  179.7080  139.7300 C   0  0  0  0  0  2  0  0  0  0  0  0
  184.0070  176.7420  137.4400 C   0  0  1  0  0  3  0  0  0  0  0  0
  180.6040  177.3150  137.6450 C   0  0  0  0  0  2  0  0  0  0  0  0
  183.1860  179.7340  139.7920 C   0  0  1  0  0  3  0  0  0  0  0  0
  180.9150  176.0570  138.1710 O   0  0  0  0  0  0  0  0  0  0  0  0
  182.3820  175.8730  135.3610 O   0  0  0  0  0  1  0  0  0  0  0  0
  183.0870  177.7300  138.1860 C   0  0  2  0  0  3  0  0  0  0  0  0
  183.3190  171.6570  135.4000 C   0  0  0  0  0  0  0  0  0  0  0  0
  181.7470  173.0400  134.9220 N   0  0  0  0  0  0  0  0  0  0  0  0
  182.5160  173.5900  135.8860 C   0  0  0  0  0  0  0  0  0  0  0  0
  183.5610  172.7390  136.2200 C   0  0  0  0  0  2  0  0  0  0  0  0
  182.2370  171.8490  134.6280 N   0  0  0  0  0  0  0  0  0  0  0  0
  184.1190  170.4840  135.3480 N   0  0  0  0  0  1  0  0  0  0  0  0
  179.8510  173.7760  138.8500 O   0  0  0  0  0  0  0  0  0  0  0  0
  180.1680  173.8580  137.4840 C   0  0  1  0  0  0  0  0  0  0  0  0
  180.2270  171.6140  138.2220 F   0  0  0  0  0  0  0  0  0  0  0  0
  179.0970  173.4330  136.6930 O   0  0  0  0  0  1  0  0  0  0  0  0
  180.8130  172.8590  138.3670 C   0  0  2  0  0  3  0  0  0  0  0  0
  185.2940  176.7370  137.9900 O   0  0  0  0  0  0  0  0  0  0  0  0
  186.1420  176.4490  136.9190 C   0  0  0  0  0  2  0  0  0  0  0  0
  187.1980  177.4920  136.8230 C   0  0  0  0  0  0  0  0  0  0  0  0
  188.1810  177.3240  136.0550 O   0  0  0  0  0  0  0  0  0  0  0  0
  187.1210  178.6320  137.6120 O   0  0  0  0  0  1  0  0  0  0  0  0
  183.6300  179.1560  141.1230 C   0  0  0  0  0  2  0  0  0  0  0  0
  185.1460  179.1800  141.2330 C   0  0  0  0  0  2  0  0  0  0  0  0
  185.6530  177.8960  141.8700 C   0  0  0  0  0  2  0  0  0  0  0  0
  187.6460  178.1000  147.7590 C   0  0  0  0  0  1  0  0  0  0  0  0
  186.1000  177.5530  144.2710 C   0  0  0  0  0  2  0  0  0  0  0  0
  188.0530  177.6240  142.6550 C   0  0  2  0  0  3  0  0  0  0  0  0
  186.6500  178.1810  142.9890 C   0  0  1  0  0  3  0  0  0  0  0  0
  186.7180  178.0400  146.5880 C   0  0  0  0  0  3  0  0  0  0  0  0
  189.0200  177.8220  143.8300 C   0  0  0  0  0  2  0  0  0  0  0  0
  187.1030  177.6340  145.3760 C   0  0  0  0  0  0  0  0  0  0  0  0
  188.4960  177.1520  145.0940 C   0  0  0  0  0  2  0  0  0  0  0  0
  188.6380  178.2330  141.4110 C   0  0  0  0  0  3  0  0  0  0  0  0
  188.9110  177.5090  140.3230 C   0  0  0  0  0  2  0  0  0  0  0  0
  1  2  1  1  0  0  0
  1 11  1  0  0  0  0
  1 15  1  0  0  0  0
  2  3  1  0  0  0  0
  3  9  1  0  0  0  0
  4 23  1  0  0  0  0
  4 13  1  1  0  0  0
  5 12  1  0  0  0  0
  6 14  1  6  0  0  0
  6  4  1  0  0  0  0
  6  8  1  0  0  0  0
  8 10  1  0  0  0  0
  8  7  1  1  0  0  0
  9 12  1  0  0  0  0
 10 27  1  1  0  0  0
 10 15  1  0  0  0  0
 11 13  1  0  0  0  0
 12 32  1  1  0  0  0
 15  5  1  6  0  0  0
 16 19  1  0  0  0  0
 17 18  2  0  0  0  0
 18 19  1  0  0  0  0
 18  6  1  0  0  0  0
 20 17  1  0  0  0  0
 20 16  2  0  0  0  0
 21 16  1  0  0  0  0
 23 25  1  6  0  0  0
 23 26  1  0  0  0  0
 23 22  1  0  0  0  0
 26 24  1  6  0  0  0
 26 22  1  0  0  0  0
 28 27  1  0  0  0  0
 29 28  1  0  0  0  0
 29 31  1  0  0  0  0
 30 29  2  0  0  0  0
 32 33  1  0  0  0  0
 33 34  1  0  0  0  0
 36 41  1  0  0  0  0
 37 43  1  6  0  0  0
 37 38  1  0  0  0  0
 37 40  1  0  0  0  0
 38 34  1  6  0  0  0
 38 36  1  0  0  0  0
 39 35  1  0  0  0  0
 40 42  1  0  0  0  0
 41 39  2  0  0  0  0
 42 41  1  0  0  0  0
 44 43  2  0  0  0  0
M  END
>  <MODEL>
7

>  <REMARK>
 VINA RESULT:      -6.3      2.001      3.574
  Name = 
  10 active torsions:
  status: ('A' for Active; 'I' for Inactive)
    1  A    between atoms: O_9  and  C_31
    2  A    between atoms: O_9  and  C_43
    3  A    between atoms: C_10  and  C_16
    4  A    between atoms: C_11  and  C_12
    5  A    between atoms: C_13  and  C_26
    6  A    between atoms: C_13  and  C_27
    7  A    between atoms: C_14  and  C_20
    8  A    between atoms: C_19  and  C_26
    9  A    between atoms: C_25  and  C_43
   10  A    between atoms: C_27  and  C_34
                            x       y       z     vdW  Elec       q    Type
                         _______ _______ _______ _____ _____    ______ ____

>  <TORSDO>
F 10

$$$$
=
 OpenBabel11062416143D

 44 48  0  0  1  0  0  0  0  0999 V2000
  184.0810  176.6140  137.4680 C   0  0  2  0  0  3  0  0  0  0  0  0
  184.8650  175.4110  136.9160 C   0  0  0  0  0  2  0  0  0  0  0  0
  185.6900  175.7020  135.6520 C   0  0  0  0  0  2  0  0  0  0  0  0
  181.4730  178.2880  137.5450 C   0  0  2  0  0  3  0  0  0  0  0  0
  186.4360  177.3760  138.1320 C   0  0  0  0  0  2  0  0  0  0  0  0
  181.7990  178.2800  139.0780 C   0  0  2  0  0  0  0  0  0  0  0  0
  183.3170  180.1890  138.7190 O   0  0  0  0  0  1  0  0  0  0  0  0
  183.1310  178.9970  139.4290 C   0  0  2  0  0  3  0  0  0  0  0  0
  186.2710  177.1170  135.5820 C   0  0  0  0  0  2  0  0  0  0  0  0
  184.4080  178.1360  139.4610 C   0  0  1  0  0  3  0  0  0  0  0  0
  183.0440  177.1060  136.4570 C   0  0  0  0  0  2  0  0  0  0  0  0
  187.1520  177.4890  136.7770 C   0  0  1  0  0  3  0  0  0  0  0  0
  182.6290  178.4070  136.7560 O   0  0  0  0  0  0  0  0  0  0  0  0
  181.8990  176.9430  139.4770 O   0  0  0  0  0  1  0  0  0  0  0  0
  184.9450  177.7540  138.0670 C   0  0  2  0  0  3  0  0  0  0  0  0
  179.5000  180.2760  141.0520 C   0  0  0  0  0  0  0  0  0  0  0  0
  179.6700  178.2240  140.4420 N   0  0  0  0  0  0  0  0  0  0  0  0
  180.6960  178.9140  139.8990 C   0  0  0  0  0  0  0  0  0  0  0  0
  180.6410  180.2480  140.2780 C   0  0  0  0  0  3  0  0  0  0  0  0
  178.9320  179.0640  141.1460 N   0  0  0  0  0  2  0  0  0  0  0  0
  178.9860  181.4330  141.6980 N   0  0  0  0  0  1  0  0  0  0  0  0
  180.5940  179.7750  135.7830 O   0  0  0  0  0  0  0  0  0  0  0  0
  180.3970  179.2890  137.0870 C   0  0  1  0  0  0  0  0  0  0  0  0
  179.6070  181.5070  136.8940 F   0  0  0  0  0  0  0  0  0  0  0  0
  179.0550  178.9680  137.3050 O   0  0  0  0  0  1  0  0  0  0  0  0
  180.7350  180.7090  136.8360 C   0  0  2  0  0  3  0  0  0  0  0  0
  185.3800  178.8090  140.2110 O   0  0  0  0  0  0  0  0  0  0  0  0
  184.7050  179.2760  141.3400 C   0  0  0  0  0  2  0  0  0  0  0  0
  185.0930  178.4660  142.5260 C   0  0  0  0  0  0  0  0  0  0  0  0
  186.2580  177.9990  142.6150 O   0  0  0  0  0  0  0  0  0  0  0  0
  184.1560  178.1900  143.5130 O   0  0  0  0  0  1  0  0  0  0  0  0
  187.6700  178.9030  136.5800 C   0  0  0  0  0  2  0  0  0  0  0  0
  188.9540  179.1120  137.3660 C   0  0  0  0  0  2  0  0  0  0  0  0
  189.5470  177.7750  137.7790 C   0  0  0  0  0  2  0  0  0  0  0  0
  189.8500  178.3870  143.9620 C   0  0  0  0  0  1  0  0  0  0  0  0
  189.1670  177.7890  140.2160 C   0  0  0  0  0  2  0  0  0  0  0  0
  191.2910  176.7400  139.3090 C   0  0  2  0  0  3  0  0  0  0  0  0
  190.2440  177.8650  139.1320 C   0  0  1  0  0  3  0  0  0  0  0  0
  189.3230  178.4590  142.5650 C   0  0  0  0  0  3  0  0  0  0  0  0
  191.9100  176.7760  140.7120 C   0  0  0  0  0  2  0  0  0  0  0  0
  189.7840  177.6910  141.5740 C   0  0  0  0  0  0  0  0  0  0  0  0
  190.8410  176.6480  141.7910 C   0  0  0  0  0  2  0  0  0  0  0  0
  192.3800  176.7940  138.2740 C   0  0  0  0  0  3  0  0  0  0  0  0
  193.0580  175.7080  137.8950 C   0  0  0  0  0  2  0  0  0  0  0  0
  1 11  1  6  0  0  0
  1 15  1  0  0  0  0
  2  1  1  0  0  0  0
  3  2  1  0  0  0  0
  4 13  1  6  0  0  0
  4  6  1  0  0  0  0
  6  8  1  0  0  0  0
  6 14  1  1  0  0  0
  6 18  1  0  0  0  0
  8  7  1  6  0  0  0
  8 10  1  0  0  0  0
  9  3  1  0  0  0  0
  9 12  1  0  0  0  0
 10 27  1  6  0  0  0
 11 13  1  0  0  0  0
 12 32  1  6  0  0  0
 12  5  1  0  0  0  0
 15  5  1  1  0  0  0
 15 10  1  0  0  0  0
 16 20  1  0  0  0  0
 16 21  1  0  0  0  0
 17 20  1  0  0  0  0
 18 19  1  0  0  0  0
 18 17  2  0  0  0  0
 19 16  2  0  0  0  0
 22 26  1  0  0  0  0
 22 23  1  0  0  0  0
 23 25  1  1  0  0  0
 23  4  1  0  0  0  0
 26 24  1  6  0  0  0
 26 23  1  0  0  0  0
 27 28  1  0  0  0  0
 28 29  1  0  0  0  0
 29 30  2  0  0  0  0
 29 31  1  0  0  0  0
 32 33  1  0  0  0  0
 33 34  1  0  0  0  0
 36 41  1  0  0  0  0
 37 43  1  6  0  0  0
 37 40  1  0  0  0  0
 38 34  1  6  0  0  0
 38 37  1  0  0  0  0
 38 36  1  0  0  0  0
 39 35  1  0  0  0  0
 40 42  1  0  0  0  0
 41 42  1  0  0  0  0
 41 39  2  0  0  0  0
 44 43  2  0  0  0  0
M  END
>  <MODEL>
8

>  <REMARK>
 VINA RESULT:      -6.0      3.355      6.533
  Name = 
  10 active torsions:
  status: ('A' for Active; 'I' for Inactive)
    1  A    between atoms: O_9  and  C_31
    2  A    between atoms: O_9  and  C_43
    3  A    between atoms: C_10  and  C_16
    4  A    between atoms: C_11  and  C_12
    5  A    between atoms: C_13  and  C_26
    6  A    between atoms: C_13  and  C_27
    7  A    between atoms: C_14  and  C_20
    8  A    between atoms: C_19  and  C_26
    9  A    between atoms: C_25  and  C_43
   10  A    between atoms: C_27  and  C_34
                            x       y       z     vdW  Elec       q    Type
                         _______ _______ _______ _____ _____    ______ ____

>  <TORSDO>
F 10

$$$$
=
 OpenBabel11062416143D

 44 48  0  0  1  0  0  0  0  0999 V2000
  189.0940  178.3850  139.6570 C   0  0  2  0  0  3  0  0  0  0  0  0
  189.3970  179.0070  138.2830 C   0  0  0  0  0  2  0  0  0  0  0  0
  189.3330  178.0250  137.1020 C   0  0  0  0  0  2  0  0  0  0  0  0
  190.1080  177.0060  142.2410 C   0  0  2  0  0  3  0  0  0  0  0  0
  186.7160  178.3380  138.7020 C   0  0  0  0  0  2  0  0  0  0  0  0
  189.0810  177.9990  142.8860 C   0  0  2  0  0  0  0  0  0  0  0  0
  187.2870  176.3750  142.4170 O   0  0  0  0  0  1  0  0  0  0  0  0
  187.6150  177.7350  142.4530 C   0  0  2  0  0  3  0  0  0  0  0  0
  188.2860  176.9170  137.2490 C   0  0  0  0  0  2  0  0  0  0  0  0
  187.1000  178.4880  141.2100 C   0  0  1  0  0  3  0  0  0  0  0  0
  190.1230  177.3120  140.0150 C   0  0  0  0  0  2  0  0  0  0  0  0
  186.8610  177.4310  137.4710 C   0  0  1  0  0  3  0  0  0  0  0  0
  189.6440  176.4740  141.0270 O   0  0  0  0  0  0  0  0  0  0  0  0
  189.4370  179.2900  142.4810 O   0  0  0  0  0  1  0  0  0  0  0  0
  187.6270  177.9280  139.8730 C   0  0  2  0  0  3  0  0  0  0  0  0
  188.6640  177.7140  146.4790 C   0  0  0  0  0  0  0  0  0  0  0  0
  190.0910  178.5840  145.1300 N   0  0  0  0  0  0  0  0  0  0  0  0
  189.1350  177.9720  144.3990 C   0  0  0  0  0  0  0  0  0  0  0  0
  188.1760  177.4050  145.2270 C   0  0  0  0  0  3  0  0  0  0  0  0
  189.8040  178.4200  146.4090 N   0  0  0  0  0  2  0  0  0  0  0  0
  188.0390  177.3580  147.7050 N   0  0  0  0  0  1  0  0  0  0  0  0
  191.0170  176.3340  144.4340 O   0  0  0  0  0  0  0  0  0  0  0  0
  190.6360  175.8870  143.1580 C   0  0  1  0  0  0  0  0  0  0  0  0
  192.4280  174.5950  143.9950 F   0  0  0  0  0  0  0  0  0  0  0  0
  189.9100  174.6960  143.2390 O   0  0  0  0  0  1  0  0  0  0  0  0
  192.0520  175.8630  143.5920 C   0  0  2  0  0  3  0  0  0  0  0  0
  185.7000  178.4920  141.2390 O   0  0  0  0  0  0  0  0  0  0  0  0
  185.3640  179.3780  142.2650 C   0  0  0  0  0  2  0  0  0  0  0  0
  184.3150  178.7700  143.1270 C   0  0  0  0  0  0  0  0  0  0  0  0
  183.1280  178.6960  142.7150 O   0  0  0  0  0  0  0  0  0  0  0  0
  184.6380  178.3220  144.4000 O   0  0  0  0  0  1  0  0  0  0  0  0
  185.9270  176.2400  137.5900 C   0  0  0  0  0  2  0  0  0  0  0  0
  184.8800  176.2750  136.4880 C   0  0  0  0  0  2  0  0  0  0  0  0
  183.9920  177.4990  136.6380 C   0  0  0  0  0  2  0  0  0  0  0  0
  179.4120  173.9540  138.9090 C   0  0  0  0  0  1  0  0  0  0  0  0
  182.5340  175.6850  137.4540 C   0  0  0  0  0  2  0  0  0  0  0  0
  182.9310  177.7030  138.9370 C   0  0  2  0  0  3  0  0  0  0  0  0
  182.7600  177.1970  137.4850 C   0  0  1  0  0  3  0  0  0  0  0  0
  180.5000  174.4400  138.0060 C   0  0  0  0  0  3  0  0  0  0  0  0
  181.7330  177.3020  139.8070 C   0  0  0  0  0  2  0  0  0  0  0  0
  181.4510  175.2880  138.4050 C   0  0  0  0  0  0  0  0  0  0  0  0
  181.5400  175.7900  139.8170 C   0  0  0  0  0  2  0  0  0  0  0  0
  183.1350  179.1910  139.0120 C   0  0  0  0  0  3  0  0  0  0  0  0
  182.1680  180.0590  138.7030 C   0  0  0  0  0  2  0  0  0  0  0  0
  1  2  1  6  0  0  0
  1 15  1  0  0  0  0
  1 11  1  0  0  0  0
  3  9  1  0  0  0  0
  3  2  1  0  0  0  0
  4 13  1  6  0  0  0
  4  6  1  0  0  0  0
  4 23  1  0  0  0  0
  6 14  1  6  0  0  0
  6 18  1  0  0  0  0
  8  7  1  6  0  0  0
  8  6  1  0  0  0  0
  9 12  1  0  0  0  0
 10 27  1  6  0  0  0
 10  8  1  0  0  0  0
 11 13  1  0  0  0  0
 12 32  1  1  0  0  0
 12  5  1  0  0  0  0
 15  5  1  6  0  0  0
 15 10  1  0  0  0  0
 16 21  1  0  0  0  0
 17 20  1  0  0  0  0
 18 17  2  0  0  0  0
 18 19  1  0  0  0  0
 19 16  2  0  0  0  0
 20 16  1  0  0  0  0
 23 25  1  6  0  0  0
 23 26  1  0  0  0  0
 23 22  1  0  0  0  0
 26 24  1  1  0  0  0
 26 22  1  0  0  0  0
 27 28  1  0  0  0  0
 28 29  1  0  0  0  0
 29 31  1  0  0  0  0
 30 29  2  0  0  0  0
 33 34  1  0  0  0  0
 33 32  1  0  0  0  0
 36 38  1  0  0  0  0
 36 41  1  0  0  0  0
 37 43  1  6  0  0  0
 37 40  1  0  0  0  0
 38 34  1  6  0  0  0
 38 37  1  0  0  0  0
 39 41  2  0  0  0  0
 39 35  1  0  0  0  0
 40 42  1  0  0  0  0
 41 42  1  0  0  0  0
 44 43  2  0  0  0  0
M  END
>  <MODEL>
9

>  <REMARK>
 VINA RESULT:      -5.8      4.937      9.778
  Name = 
  10 active torsions:
  status: ('A' for Active; 'I' for Inactive)
    1  A    between atoms: O_9  and  C_31
    2  A    between atoms: O_9  and  C_43
    3  A    between atoms: C_10  and  C_16
    4  A    between atoms: C_11  and  C_12
    5  A    between atoms: C_13  and  C_26
    6  A    between atoms: C_13  and  C_27
    7  A    between atoms: C_14  and  C_20
    8  A    between atoms: C_19  and  C_26
    9  A    between atoms: C_25  and  C_43
   10  A    between atoms: C_27  and  C_34
                            x       y       z     vdW  Elec       q    Type
                         _______ _______ _______ _____ _____    ______ ____

>  <TORSDO>
F 10

$$$$
