=
 OpenBabel11062418113D

 25 27  0  0  0  0  0  0  0  0999 V2000
  187.5400  177.2150  146.4560 C   0  0  0  0  0  3  0  0  0  0  0  0
  188.9270  177.1350  146.3740 C   0  0  0  0  0  0  0  0  0  0  0  0
  191.0220  176.6650  147.4180 N   0  0  0  0  0  0  0  0  0  0  0  0
  189.5870  177.3940  145.1520 C   0  0  0  0  0  0  0  0  0  0  0  0
  191.6840  176.8860  146.2520 C   0  0  0  0  0  3  0  0  0  0  0  0
  190.9800  177.2490  145.1030 C   0  0  0  0  0  3  0  0  0  0  0  0
  186.7950  177.5390  145.3250 C   0  0  0  0  0  3  0  0  0  0  0  0
  188.8320  177.7540  144.0080 C   0  0  0  0  0  0  0  0  0  0  0  0
  189.6700  176.7780  147.5010 C   0  0  0  0  0  3  0  0  0  0  0  0
  187.4200  177.8040  144.0990 C   0  0  0  0  0  0  0  0  0  0  0  0
  187.1170  178.1360  141.7730 O   0  0  0  0  0  0  0  0  0  0  0  0
  186.5790  178.1150  142.9150 C   0  0  0  0  0  0  0  0  0  0  0  0
  182.3770  178.9510  143.1840 C   0  0  0  0  0  3  0  0  0  0  0  0
  182.9360  178.5370  141.9730 C   0  0  0  0  0  3  0  0  0  0  0  0
  184.3040  178.2610  141.8930 C   0  0  0  0  0  3  0  0  0  0  0  0
  185.1260  178.3900  143.0240 C   0  0  0  0  0  0  0  0  0  0  0  0
  183.1860  179.0920  144.3150 C   0  0  0  0  0  3  0  0  0  0  0  0
  184.5530  178.8160  144.2340 C   0  0  0  0  0  3  0  0  0  0  0  0
  189.4600  178.0620  142.7520 N   0  0  0  0  0  2  0  0  0  0  0  0
  191.8460  177.3400  141.8440 O   0  0  0  0  0  0  0  0  0  0  0  0
  190.3960  176.9440  141.8150 S   0  0  0  0  0  0  0  0  0  0  0  0
  190.2380  175.5550  142.3690 O   0  0  0  0  0  0  0  0  0  0  0  0
  190.8030  176.4750  139.2980 F   0  0  0  0  0  0  0  0  0  0  0  0
  189.5500  178.2920  139.7670 F   0  0  0  0  0  0  0  0  0  0  0  0
  189.8270  176.9880  140.1310 C   0  0  0  0  0  3  0  0  0  0  0  0
  2  1  1  0  0  0  0
  2  9  1  0  0  0  0
  3  9  2  0  0  0  0
  4  2  2  0  0  0  0
  5  3  1  0  0  0  0
  6  4  1  0  0  0  0
  6  5  2  0  0  0  0
  7  1  2  0  0  0  0
  8 10  2  0  0  0  0
  8  4  1  0  0  0  0
 10  7  1  0  0  0  0
 11 12  2  0  0  0  0
 12 16  1  0  0  0  0
 12 10  1  0  0  0  0
 13 17  1  0  0  0  0
 14 13  2  0  0  0  0
 15 14  1  0  0  0  0
 15 16  2  0  0  0  0
 16 18  1  0  0  0  0
 18 17  2  0  0  0  0
 19  8  1  0  0  0  0
 21 20  2  0  0  0  0
 21 22  2  0  0  0  0
 21 19  1  0  0  0  0
 23 25  1  0  0  0  0
 24 25  1  0  0  0  0
 25 21  1  0  0  0  0
M  END
>  <MODEL>
1

>  <REMARK>
 VINA RESULT:      -9.4      0.000      0.000
  Name = 
  5 active torsions:
  status: ('A' for Active; 'I' for Inactive)
    1  A    between atoms: C_13  and  C_25
    2  A    between atoms: S_14  and  C_15
    3  A    between atoms: S_14  and  N_17
    4  A    between atoms: N_17  and  C_19
    5  A    between atoms: C_21  and  C_25
                            x       y       z     vdW  Elec       q    Type
                         _______ _______ _______ _____ _____    ______ ____

>  <TORSDO>
F 5

$$$$
=
 OpenBabel11062418113D

 25 27  0  0  0  0  0  0  0  0999 V2000
  186.0540  178.9480  146.7490 C   0  0  0  0  0  3  0  0  0  0  0  0
  187.2540  178.2660  146.9230 C   0  0  0  0  0  0  0  0  0  0  0  0
  188.9910  177.5020  148.3720 N   0  0  0  0  0  0  0  0  0  0  0  0
  187.8760  177.6230  145.8280 C   0  0  0  0  0  0  0  0  0  0  0  0
  189.6030  176.8560  147.3440 C   0  0  0  0  0  3  0  0  0  0  0  0
  189.0550  176.9030  146.0610 C   0  0  0  0  0  3  0  0  0  0  0  0
  185.4550  178.9900  145.4920 C   0  0  0  0  0  3  0  0  0  0  0  0
  187.2830  177.6920  144.5430 C   0  0  0  0  0  0  0  0  0  0  0  0
  187.8370  178.1970  148.1890 C   0  0  0  0  0  3  0  0  0  0  0  0
  186.0480  178.3660  144.3860 C   0  0  0  0  0  0  0  0  0  0  0  0
  186.0380  178.3310  142.0180 O   0  0  0  0  0  0  0  0  0  0  0  0
  185.3530  178.4140  143.0750 C   0  0  0  0  0  0  0  0  0  0  0  0
  181.0970  178.8330  142.7070 C   0  0  0  0  0  3  0  0  0  0  0  0
  181.8840  178.6280  141.5720 C   0  0  0  0  0  3  0  0  0  0  0  0
  183.2690  178.4870  141.6980 C   0  0  0  0  0  3  0  0  0  0  0  0
  183.8800  178.5420  142.9610 C   0  0  0  0  0  0  0  0  0  0  0  0
  181.6930  178.9000  143.9680 C   0  0  0  0  0  3  0  0  0  0  0  0
  183.0780  178.7580  144.0940 C   0  0  0  0  0  3  0  0  0  0  0  0
  187.8960  177.0870  143.3920 N   0  0  0  0  0  2  0  0  0  0  0  0
  189.0730  177.9680  141.1840 O   0  0  0  0  0  0  0  0  0  0  0  0
  189.3440  177.6590  142.6300 S   0  0  0  0  0  0  0  0  0  0  0  0
  189.8370  178.8950  143.3290 O   0  0  0  0  0  0  0  0  0  0  0  0
  189.9740  175.1600  142.9090 F   0  0  0  0  0  0  0  0  0  0  0  0
  191.4430  176.6430  143.7670 F   0  0  0  0  0  0  0  0  0  0  0  0
  190.5820  176.3850  142.7170 C   0  0  0  0  0  3  0  0  0  0  0  0
  1  2  1  0  0  0  0
  2  9  1  0  0  0  0
  4  6  1  0  0  0  0
  4  2  2  0  0  0  0
  5  3  1  0  0  0  0
  6  5  2  0  0  0  0
  7  1  2  0  0  0  0
  8  4  1  0  0  0  0
  9  3  2  0  0  0  0
 10  8  2  0  0  0  0
 10  7  1  0  0  0  0
 11 12  2  0  0  0  0
 12 10  1  0  0  0  0
 13 17  1  0  0  0  0
 14 15  1  0  0  0  0
 14 13  2  0  0  0  0
 15 16  2  0  0  0  0
 16 12  1  0  0  0  0
 16 18  1  0  0  0  0
 17 18  2  0  0  0  0
 19  8  1  0  0  0  0
 20 21  2  0  0  0  0
 21 25  1  0  0  0  0
 21 22  2  0  0  0  0
 21 19  1  0  0  0  0
 25 23  1  0  0  0  0
 25 24  1  0  0  0  0
M  END
>  <MODEL>
2

>  <REMARK>
 VINA RESULT:      -9.3      1.958      2.275
  Name = 
  5 active torsions:
  status: ('A' for Active; 'I' for Inactive)
    1  A    between atoms: C_13  and  C_25
    2  A    between atoms: S_14  and  C_15
    3  A    between atoms: S_14  and  N_17
    4  A    between atoms: N_17  and  C_19
    5  A    between atoms: C_21  and  C_25
                            x       y       z     vdW  Elec       q    Type
                         _______ _______ _______ _____ _____    ______ ____

>  <TORSDO>
F 5

$$$$
=
 OpenBabel11062418113D

 25 27  0  0  0  0  0  0  0  0999 V2000
  189.9120  176.0530  142.1940 C   0  0  0  0  0  3  0  0  0  0  0  0
  189.6720  176.8820  141.1030 C   0  0  0  0  0  0  0  0  0  0  0  0
  190.1600  177.5030  138.8490 N   0  0  0  0  0  0  0  0  0  0  0  0
  188.6690  177.8760  141.1660 C   0  0  0  0  0  0  0  0  0  0  0  0
  189.1880  178.4530  138.8710 C   0  0  0  0  0  3  0  0  0  0  0  0
  188.4270  178.6510  140.0240 C   0  0  0  0  0  3  0  0  0  0  0  0
  189.1510  176.1930  143.3530 C   0  0  0  0  0  3  0  0  0  0  0  0
  187.9160  178.0400  142.3540 C   0  0  0  0  0  0  0  0  0  0  0  0
  190.4140  176.7190  139.9310 C   0  0  0  0  0  3  0  0  0  0  0  0
  188.1510  177.1710  143.4480 C   0  0  0  0  0  0  0  0  0  0  0  0
  186.1000  177.0820  144.6270 O   0  0  0  0  0  0  0  0  0  0  0  0
  187.3470  177.2590  144.6940 C   0  0  0  0  0  0  0  0  0  0  0  0
  189.1030  178.1130  148.5160 C   0  0  0  0  0  3  0  0  0  0  0  0
  187.7510  178.3780  148.2880 C   0  0  0  0  0  3  0  0  0  0  0  0
  187.1830  178.0930  147.0430 C   0  0  0  0  0  3  0  0  0  0  0  0
  187.9600  177.5330  146.0160 C   0  0  0  0  0  0  0  0  0  0  0  0
  189.8890  177.5660  147.4990 C   0  0  0  0  0  3  0  0  0  0  0  0
  189.3210  177.2800  146.2550 C   0  0  0  0  0  3  0  0  0  0  0  0
  186.9110  179.0590  142.4800 N   0  0  0  0  0  2  0  0  0  0  0  0
  185.0990  179.7470  140.6680 O   0  0  0  0  0  0  0  0  0  0  0  0
  185.2810  178.9150  141.9070 S   0  0  0  0  0  0  0  0  0  0  0  0
  184.9710  177.4760  141.6030 O   0  0  0  0  0  0  0  0  0  0  0  0
  184.9030  179.9450  144.2560 F   0  0  0  0  0  0  0  0  0  0  0  0
  183.3150  178.5060  143.5490 F   0  0  0  0  0  0  0  0  0  0  0  0
  184.1750  179.5160  143.1630 C   0  0  0  0  0  3  0  0  0  0  0  0
  1  7  1  0  0  0  0
  2  4  1  0  0  0  0
  2  1  2  0  0  0  0
  3  5  1  0  0  0  0
  3  9  2  0  0  0  0
  4  8  2  0  0  0  0
  5  6  2  0  0  0  0
  6  4  1  0  0  0  0
  7 10  2  0  0  0  0
  8 19  1  0  0  0  0
  8 10  1  0  0  0  0
  9  2  1  0  0  0  0
 10 12  1  0  0  0  0
 11 12  2  0  0  0  0
 12 16  1  0  0  0  0
 14 13  1  0  0  0  0
 15 14  2  0  0  0  0
 16 18  2  0  0  0  0
 16 15  1  0  0  0  0
 17 13  2  0  0  0  0
 18 17  1  0  0  0  0
 20 21  2  0  0  0  0
 21 19  1  0  0  0  0
 21 25  1  0  0  0  0
 22 21  2  0  0  0  0
 25 24  1  0  0  0  0
 25 23  1  0  0  0  0
M  END
>  <MODEL>
3

>  <REMARK>
 VINA RESULT:      -9.0      3.494      6.010
  Name = 
  5 active torsions:
  status: ('A' for Active; 'I' for Inactive)
    1  A    between atoms: C_13  and  C_25
    2  A    between atoms: S_14  and  C_15
    3  A    between atoms: S_14  and  N_17
    4  A    between atoms: N_17  and  C_19
    5  A    between atoms: C_21  and  C_25
                            x       y       z     vdW  Elec       q    Type
                         _______ _______ _______ _____ _____    ______ ____

>  <TORSDO>
F 5

$$$$
=
 OpenBabel11062418113D

 25 27  0  0  0  0  0  0  0  0999 V2000
  185.6430  178.7740  142.6460 C   0  0  0  0  0  3  0  0  0  0  0  0
  185.4920  178.6180  144.0200 C   0  0  0  0  0  0  0  0  0  0  0  0
  184.2050  178.9750  145.9990 N   0  0  0  0  0  0  0  0  0  0  0  0
  186.4550  177.9020  144.7680 C   0  0  0  0  0  0  0  0  0  0  0  0
  185.1020  178.2740  146.7430 C   0  0  0  0  0  3  0  0  0  0  0  0
  186.2350  177.7250  146.1400 C   0  0  0  0  0  3  0  0  0  0  0  0
  186.7400  178.2120  141.9990 C   0  0  0  0  0  3  0  0  0  0  0  0
  187.5880  177.3570  144.1160 C   0  0  0  0  0  0  0  0  0  0  0  0
  184.3750  179.1540  144.6620 C   0  0  0  0  0  3  0  0  0  0  0  0
  187.7140  177.4990  142.7130 C   0  0  0  0  0  0  0  0  0  0  0  0
  189.5660  176.0310  142.5520 O   0  0  0  0  0  0  0  0  0  0  0  0
  188.8500  176.8930  141.9710 C   0  0  0  0  0  0  0  0  0  0  0  0
  189.8190  177.9550  137.9270 C   0  0  0  0  0  3  0  0  0  0  0  0
  190.5880  177.0100  138.6100 C   0  0  0  0  0  3  0  0  0  0  0  0
  190.2640  176.6650  139.9250 C   0  0  0  0  0  3  0  0  0  0  0  0
  189.1650  177.2550  140.5680 C   0  0  0  0  0  0  0  0  0  0  0  0
  188.7280  178.5570  138.5590 C   0  0  0  0  0  3  0  0  0  0  0  0
  188.4050  178.2100  139.8740 C   0  0  0  0  0  3  0  0  0  0  0  0
  188.6130  176.6540  144.8380 N   0  0  0  0  0  2  0  0  0  0  0  0
  191.2150  176.6150  145.3550 O   0  0  0  0  0  0  0  0  0  0  0  0
  189.9650  177.4080  145.6180 S   0  0  0  0  0  0  0  0  0  0  0  0
  190.1360  178.8100  145.1060 O   0  0  0  0  0  0  0  0  0  0  0  0
  188.8880  176.3610  147.7310 F   0  0  0  0  0  0  0  0  0  0  0  0
  189.0280  178.6130  147.7160 F   0  0  0  0  0  0  0  0  0  0  0  0
  189.6730  177.4400  147.3720 C   0  0  0  0  0  3  0  0  0  0  0  0
  1  2  1  0  0  0  0
  2  9  2  0  0  0  0
  2  4  1  0  0  0  0
  3  5  2  0  0  0  0
  4  6  2  0  0  0  0
  6  5  1  0  0  0  0
  7  1  2  0  0  0  0
  7 10  1  0  0  0  0
  8  4  1  0  0  0  0
  8 19  1  0  0  0  0
  9  3  1  0  0  0  0
 10  8  2  0  0  0  0
 12 11  2  0  0  0  0
 12 10  1  0  0  0  0
 13 17  2  0  0  0  0
 13 14  1  0  0  0  0
 14 15  2  0  0  0  0
 15 16  1  0  0  0  0
 16 12  1  0  0  0  0
 17 18  1  0  0  0  0
 18 16  2  0  0  0  0
 19 21  1  0  0  0  0
 20 21  2  0  0  0  0
 21 25  1  0  0  0  0
 22 21  2  0  0  0  0
 25 24  1  0  0  0  0
 25 23  1  0  0  0  0
M  END
>  <MODEL>
4

>  <REMARK>
 VINA RESULT:      -9.0      3.196      5.704
  Name = 
  5 active torsions:
  status: ('A' for Active; 'I' for Inactive)
    1  A    between atoms: C_13  and  C_25
    2  A    between atoms: S_14  and  C_15
    3  A    between atoms: S_14  and  N_17
    4  A    between atoms: N_17  and  C_19
    5  A    between atoms: C_21  and  C_25
                            x       y       z     vdW  Elec       q    Type
                         _______ _______ _______ _____ _____    ______ ____

>  <TORSDO>
F 5

$$$$
=
 OpenBabel11062418113D

 25 27  0  0  0  0  0  0  0  0999 V2000
  186.4660  177.6110  146.4130 C   0  0  0  0  0  3  0  0  0  0  0  0
  187.8470  177.4920  146.5340 C   0  0  0  0  0  0  0  0  0  0  0  0
  189.7590  177.0570  147.8950 N   0  0  0  0  0  0  0  0  0  0  0  0
  188.6790  177.6380  145.4000 C   0  0  0  0  0  0  0  0  0  0  0  0
  190.5840  177.1700  146.8210 C   0  0  0  0  0  3  0  0  0  0  0  0
  190.0590  177.4570  145.5600 C   0  0  0  0  0  3  0  0  0  0  0  0
  185.8970  177.8620  145.1670 C   0  0  0  0  0  3  0  0  0  0  0  0
  188.1030  177.9250  144.1380 C   0  0  0  0  0  0  0  0  0  0  0  0
  188.4130  177.2080  147.7780 C   0  0  0  0  0  3  0  0  0  0  0  0
  186.6940  178.0150  144.0250 C   0  0  0  0  0  0  0  0  0  0  0  0
  186.7450  178.2610  141.6700 O   0  0  0  0  0  0  0  0  0  0  0  0
  186.0370  178.2510  142.7140 C   0  0  0  0  0  0  0  0  0  0  0  0
  181.7950  178.8260  142.3920 C   0  0  0  0  0  3  0  0  0  0  0  0
  182.4490  179.0720  143.6010 C   0  0  0  0  0  3  0  0  0  0  0  0
  183.8310  178.8880  143.6990 C   0  0  0  0  0  3  0  0  0  0  0  0
  184.5750  178.4640  142.5860 C   0  0  0  0  0  0  0  0  0  0  0  0
  182.5220  178.3930  141.2800 C   0  0  0  0  0  3  0  0  0  0  0  0
  183.9040  178.2110  141.3780 C   0  0  0  0  0  3  0  0  0  0  0  0
  188.9090  178.1180  142.9640 N   0  0  0  0  0  2  0  0  0  0  0  0
  189.5160  175.5410  142.8010 O   0  0  0  0  0  0  0  0  0  0  0  0
  189.8300  176.8750  142.1820 S   0  0  0  0  0  0  0  0  0  0  0  0
  189.5050  176.8430  140.7150 O   0  0  0  0  0  0  0  0  0  0  0  0
  192.1020  176.2950  143.2870 F   0  0  0  0  0  0  0  0  0  0  0  0
  191.7250  178.4880  142.9140 F   0  0  0  0  0  0  0  0  0  0  0  0
  191.5610  177.2130  142.4080 C   0  0  0  0  0  3  0  0  0  0  0  0
  1  2  1  0  0  0  0
  2  9  1  0  0  0  0
  4  6  1  0  0  0  0
  4  2  2  0  0  0  0
  5  3  1  0  0  0  0
  6  5  2  0  0  0  0
  7  1  2  0  0  0  0
  8  4  1  0  0  0  0
  9  3  2  0  0  0  0
 10  8  2  0  0  0  0
 10  7  1  0  0  0  0
 11 12  2  0  0  0  0
 12 10  1  0  0  0  0
 13 14  1  0  0  0  0
 14 15  2  0  0  0  0
 16 12  1  0  0  0  0
 16 15  1  0  0  0  0
 17 18  1  0  0  0  0
 17 13  2  0  0  0  0
 18 16  2  0  0  0  0
 19  8  1  0  0  0  0
 21 25  1  0  0  0  0
 21 20  2  0  0  0  0
 21 19  1  0  0  0  0
 22 21  2  0  0  0  0
 25 24  1  0  0  0  0
 25 23  1  0  0  0  0
M  END
>  <MODEL>
5

>  <REMARK>
 VINA RESULT:      -8.9      1.587      1.961
  Name = 
  5 active torsions:
  status: ('A' for Active; 'I' for Inactive)
    1  A    between atoms: C_13  and  C_25
    2  A    between atoms: S_14  and  C_15
    3  A    between atoms: S_14  and  N_17
    4  A    between atoms: N_17  and  C_19
    5  A    between atoms: C_21  and  C_25
                            x       y       z     vdW  Elec       q    Type
                         _______ _______ _______ _____ _____    ______ ____

>  <TORSDO>
F 5

$$$$
=
 OpenBabel11062418113D

 25 27  0  0  0  0  0  0  0  0999 V2000
  185.5520  178.5480  142.7620 C   0  0  0  0  0  3  0  0  0  0  0  0
  185.4520  178.4690  144.1480 C   0  0  0  0  0  0  0  0  0  0  0  0
  184.1940  178.8520  146.1400 N   0  0  0  0  0  0  0  0  0  0  0  0
  186.4890  177.8810  144.9070 C   0  0  0  0  0  0  0  0  0  0  0  0
  185.1630  178.2730  146.8970 C   0  0  0  0  0  3  0  0  0  0  0  0
  186.3210  177.7760  146.2940 C   0  0  0  0  0  3  0  0  0  0  0  0
  186.6740  178.0320  142.1160 C   0  0  0  0  0  3  0  0  0  0  0  0
  187.6440  177.3850  144.2540 C   0  0  0  0  0  0  0  0  0  0  0  0
  184.3130  178.9570  144.7900 C   0  0  0  0  0  3  0  0  0  0  0  0
  187.7200  177.4460  142.8420 C   0  0  0  0  0  0  0  0  0  0  0  0
  189.5960  176.0110  142.6680 O   0  0  0  0  0  0  0  0  0  0  0  0
  188.8800  176.8830  142.1030 C   0  0  0  0  0  0  0  0  0  0  0  0
  189.8060  178.0740  138.0850 C   0  0  0  0  0  3  0  0  0  0  0  0
  188.7080  178.6270  138.7470 C   0  0  0  0  0  3  0  0  0  0  0  0
  188.4140  178.2390  140.0580 C   0  0  0  0  0  3  0  0  0  0  0  0
  189.2190  177.3000  140.7220 C   0  0  0  0  0  0  0  0  0  0  0  0
  190.6090  177.1310  138.7310 C   0  0  0  0  0  3  0  0  0  0  0  0
  190.3150  176.7450  140.0410 C   0  0  0  0  0  3  0  0  0  0  0  0
  188.7400  176.8110  144.9860 N   0  0  0  0  0  2  0  0  0  0  0  0
  190.4150  178.8670  144.8750 O   0  0  0  0  0  0  0  0  0  0  0  0
  189.9970  177.7230  145.7570 S   0  0  0  0  0  0  0  0  0  0  0  0
  189.5090  178.2530  147.0770 O   0  0  0  0  0  0  0  0  0  0  0  0
  191.6650  175.9520  144.8620 F   0  0  0  0  0  0  0  0  0  0  0  0
  191.1360  175.7830  147.0490 F   0  0  0  0  0  0  0  0  0  0  0  0
  191.4000  176.6630  146.0170 C   0  0  0  0  0  3  0  0  0  0  0  0
  1  2  1  0  0  0  0
  2  9  2  0  0  0  0
  2  4  1  0  0  0  0
  3  5  2  0  0  0  0
  4  6  2  0  0  0  0
  6  5  1  0  0  0  0
  7  1  2  0  0  0  0
  7 10  1  0  0  0  0
  8  4  1  0  0  0  0
  8 19  1  0  0  0  0
  9  3  1  0  0  0  0
 10  8  2  0  0  0  0
 12 11  2  0  0  0  0
 12 10  1  0  0  0  0
 13 17  2  0  0  0  0
 13 14  1  0  0  0  0
 14 15  2  0  0  0  0
 15 16  1  0  0  0  0
 16 12  1  0  0  0  0
 17 18  1  0  0  0  0
 18 16  2  0  0  0  0
 19 21  1  0  0  0  0
 20 21  2  0  0  0  0
 21 25  1  0  0  0  0
 21 22  2  0  0  0  0
 23 25  1  0  0  0  0
 25 24  1  0  0  0  0
M  END
>  <MODEL>
6

>  <REMARK>
 VINA RESULT:      -8.9      3.064      5.497
  Name = 
  5 active torsions:
  status: ('A' for Active; 'I' for Inactive)
    1  A    between atoms: C_13  and  C_25
    2  A    between atoms: S_14  and  C_15
    3  A    between atoms: S_14  and  N_17
    4  A    between atoms: N_17  and  C_19
    5  A    between atoms: C_21  and  C_25
                            x       y       z     vdW  Elec       q    Type
                         _______ _______ _______ _____ _____    ______ ____

>  <TORSDO>
F 5

$$$$
=
 OpenBabel11062418113D

 25 27  0  0  0  0  0  0  0  0999 V2000
  186.5590  177.7740  144.7460 C   0  0  0  0  0  3  0  0  0  0  0  0
  186.1050  178.0330  143.4560 C   0  0  0  0  0  0  0  0  0  0  0  0
  184.2840  178.3120  141.9370 N   0  0  0  0  0  0  0  0  0  0  0  0
  187.0220  178.3240  142.4210 C   0  0  0  0  0  0  0  0  0  0  0  0
  185.1390  178.6160  140.9250 C   0  0  0  0  0  3  0  0  0  0  0  0
  186.5170  178.6310  141.1510 C   0  0  0  0  0  3  0  0  0  0  0  0
  187.9230  177.8130  145.0230 C   0  0  0  0  0  3  0  0  0  0  0  0
  188.4120  178.3340  142.6950 C   0  0  0  0  0  0  0  0  0  0  0  0
  184.7350  178.0250  143.1870 C   0  0  0  0  0  3  0  0  0  0  0  0
  188.8580  178.0960  144.0180 C   0  0  0  0  0  0  0  0  0  0  0  0
  190.9350  179.2250  144.1570 O   0  0  0  0  0  0  0  0  0  0  0  0
  190.2990  178.1560  144.3720 C   0  0  0  0  0  0  0  0  0  0  0  0
  192.4160  174.8780  146.1590 C   0  0  0  0  0  3  0  0  0  0  0  0
  191.9700  175.9410  146.9470 C   0  0  0  0  0  3  0  0  0  0  0  0
  191.2760  177.0030  146.3600 C   0  0  0  0  0  3  0  0  0  0  0  0
  191.0160  177.0100  144.9810 C   0  0  0  0  0  0  0  0  0  0  0  0
  192.1720  174.8780  144.7830 C   0  0  0  0  0  3  0  0  0  0  0  0
  191.4780  175.9400  144.1980 C   0  0  0  0  0  3  0  0  0  0  0  0
  189.3850  178.5880  141.6680 N   0  0  0  0  0  2  0  0  0  0  0  0
  191.6530  177.5510  140.7620 O   0  0  0  0  0  0  0  0  0  0  0  0
  190.1620  177.3620  140.7190 S   0  0  0  0  0  0  0  0  0  0  0  0
  189.8070  176.0020  141.2500 O   0  0  0  0  0  0  0  0  0  0  0  0
  189.4300  178.8430  138.7210 F   0  0  0  0  0  0  0  0  0  0  0  0
  188.4300  176.8260  138.8630 F   0  0  0  0  0  0  0  0  0  0  0  0
  189.6180  177.5100  139.0320 C   0  0  0  0  0  3  0  0  0  0  0  0
  1  7  1  0  0  0  0
  2  1  2  0  0  0  0
  3  9  2  0  0  0  0
  4  8  2  0  0  0  0
  4  2  1  0  0  0  0
  5  6  2  0  0  0  0
  5  3  1  0  0  0  0
  6  4  1  0  0  0  0
  8 10  1  0  0  0  0
  9  2  1  0  0  0  0
 10 12  1  0  0  0  0
 10  7  2  0  0  0  0
 11 12  2  0  0  0  0
 12 16  1  0  0  0  0
 13 14  1  0  0  0  0
 15 14  2  0  0  0  0
 16 15  1  0  0  0  0
 17 13  2  0  0  0  0
 18 17  1  0  0  0  0
 18 16  2  0  0  0  0
 19  8  1  0  0  0  0
 21 20  2  0  0  0  0
 21 22  2  0  0  0  0
 21 19  1  0  0  0  0
 23 25  1  0  0  0  0
 24 25  1  0  0  0  0
 25 21  1  0  0  0  0
M  END
>  <MODEL>
7

>  <REMARK>
 VINA RESULT:      -8.8      2.001      5.790
  Name = 
  5 active torsions:
  status: ('A' for Active; 'I' for Inactive)
    1  A    between atoms: C_13  and  C_25
    2  A    between atoms: S_14  and  C_15
    3  A    between atoms: S_14  and  N_17
    4  A    between atoms: N_17  and  C_19
    5  A    between atoms: C_21  and  C_25
                            x       y       z     vdW  Elec       q    Type
                         _______ _______ _______ _____ _____    ______ ____

>  <TORSDO>
F 5

$$$$
=
 OpenBabel11062418113D

 25 27  0  0  0  0  0  0  0  0999 V2000
  185.2080  179.3780  142.4710 C   0  0  0  0  0  3  0  0  0  0  0  0
  185.2910  178.9730  143.7990 C   0  0  0  0  0  0  0  0  0  0  0  0
  184.3470  178.9130  145.9910 N   0  0  0  0  0  0  0  0  0  0  0  0
  186.3750  178.1790  144.2380 C   0  0  0  0  0  0  0  0  0  0  0  0
  185.3650  178.1320  146.4390 C   0  0  0  0  0  3  0  0  0  0  0  0
  186.3900  177.7500  145.5720 C   0  0  0  0  0  3  0  0  0  0  0  0
  186.1900  178.9900  141.5630 C   0  0  0  0  0  3  0  0  0  0  0  0
  187.3920  177.8100  143.3230 C   0  0  0  0  0  0  0  0  0  0  0  0
  184.2880  179.3350  144.7000 C   0  0  0  0  0  3  0  0  0  0  0  0
  187.2800  178.2060  141.9680 C   0  0  0  0  0  0  0  0  0  0  0  0
  189.3070  177.1580  141.3340 O   0  0  0  0  0  0  0  0  0  0  0  0
  188.2840  177.7930  140.9550 C   0  0  0  0  0  0  0  0  0  0  0  0
  187.8360  178.7090  136.7850 C   0  0  0  0  0  3  0  0  0  0  0  0
  189.0560  178.9330  137.4280 C   0  0  0  0  0  3  0  0  0  0  0  0
  189.1970  178.6280  138.7840 C   0  0  0  0  0  3  0  0  0  0  0  0
  188.1240  178.0890  139.5110 C   0  0  0  0  0  0  0  0  0  0  0  0
  186.7560  178.1830  137.4990 C   0  0  0  0  0  3  0  0  0  0  0  0
  186.8990  177.8780  138.8550 C   0  0  0  0  0  3  0  0  0  0  0  0
  188.5330  177.0360  143.7290 N   0  0  0  0  0  2  0  0  0  0  0  0
  190.3000  179.0030  143.9430 O   0  0  0  0  0  0  0  0  0  0  0  0
  189.9220  177.6770  144.5430 S   0  0  0  0  0  0  0  0  0  0  0  0
  189.6250  177.8490  146.0060 O   0  0  0  0  0  0  0  0  0  0  0  0
  192.0560  176.5400  145.4790 F   0  0  0  0  0  0  0  0  0  0  0  0
  192.0550  176.9470  143.2600 F   0  0  0  0  0  0  0  0  0  0  0  0
  191.2820  176.5510  144.3340 C   0  0  0  0  0  3  0  0  0  0  0  0
  1  2  1  0  0  0  0
  2  4  2  0  0  0  0
  2  9  1  0  0  0  0
  3  5  1  0  0  0  0
  4  6  1  0  0  0  0
  6  5  2  0  0  0  0
  7 10  1  0  0  0  0
  7  1  2  0  0  0  0
  8 19  1  0  0  0  0
  8  4  1  0  0  0  0
  9  3  2  0  0  0  0
 10  8  2  0  0  0  0
 12 11  2  0  0  0  0
 12 10  1  0  0  0  0
 13 14  2  0  0  0  0
 13 17  1  0  0  0  0
 14 15  1  0  0  0  0
 15 16  2  0  0  0  0
 16 12  1  0  0  0  0
 17 18  2  0  0  0  0
 18 16  1  0  0  0  0
 19 21  1  0  0  0  0
 20 21  2  0  0  0  0
 21 22  2  0  0  0  0
 24 25  1  0  0  0  0
 25 21  1  0  0  0  0
 25 23  1  0  0  0  0
M  END
>  <MODEL>
8

>  <REMARK>
 VINA RESULT:      -8.8      2.993      5.118
  Name = 
  5 active torsions:
  status: ('A' for Active; 'I' for Inactive)
    1  A    between atoms: C_13  and  C_25
    2  A    between atoms: S_14  and  C_15
    3  A    between atoms: S_14  and  N_17
    4  A    between atoms: N_17  and  C_19
    5  A    between atoms: C_21  and  C_25
                            x       y       z     vdW  Elec       q    Type
                         _______ _______ _______ _____ _____    ______ ____

>  <TORSDO>
F 5

$$$$
=
 OpenBabel11062418113D

 25 27  0  0  0  0  0  0  0  0999 V2000
  184.7570  179.3780  145.2190 C   0  0  0  0  0  3  0  0  0  0  0  0
  185.8680  178.6410  145.6170 C   0  0  0  0  0  0  0  0  0  0  0  0
  187.2710  177.8250  147.3680 N   0  0  0  0  0  0  0  0  0  0  0  0
  186.6440  177.9460  144.6620 C   0  0  0  0  0  0  0  0  0  0  0  0
  188.0250  177.1280  146.4770 C   0  0  0  0  0  3  0  0  0  0  0  0
  187.7220  177.1740  145.1150 C   0  0  0  0  0  3  0  0  0  0  0  0
  184.3980  179.4220  143.8740 C   0  0  0  0  0  3  0  0  0  0  0  0
  186.2980  178.0160  143.2900 C   0  0  0  0  0  0  0  0  0  0  0  0
  186.2070  178.5720  146.9690 C   0  0  0  0  0  3  0  0  0  0  0  0
  185.1490  178.7460  142.9020 C   0  0  0  0  0  0  0  0  0  0  0  0
  185.4420  179.3780  140.6390 O   0  0  0  0  0  0  0  0  0  0  0  0
  184.7060  178.8000  141.4850 C   0  0  0  0  0  0  0  0  0  0  0  0
  181.0170  177.0100  140.2160 C   0  0  0  0  0  3  0  0  0  0  0  0
  181.0100  178.0560  141.1420 C   0  0  0  0  0  3  0  0  0  0  0  0
  182.2140  178.6380  141.5480 C   0  0  0  0  0  3  0  0  0  0  0  0
  183.4370  178.1860  141.0270 C   0  0  0  0  0  0  0  0  0  0  0  0
  182.2280  176.5440  139.6980 C   0  0  0  0  0  3  0  0  0  0  0  0
  183.4310  177.1280  140.1030 C   0  0  0  0  0  3  0  0  0  0  0  0
  187.0780  177.3570  142.2780 N   0  0  0  0  0  2  0  0  0  0  0  0
  188.4840  178.0540  140.1380 O   0  0  0  0  0  0  0  0  0  0  0  0
  188.5720  177.9570  141.6360 S   0  0  0  0  0  0  0  0  0  0  0  0
  188.8720  179.3110  142.2150 O   0  0  0  0  0  0  0  0  0  0  0  0
  190.4940  176.3780  140.9030 F   0  0  0  0  0  0  0  0  0  0  0  0
  189.3510  175.7430  142.7420 F   0  0  0  0  0  0  0  0  0  0  0  0
  189.8750  176.8220  142.0560 C   0  0  0  0  0  3  0  0  0  0  0  0
  1  2  1  0  0  0  0
  2  9  1  0  0  0  0
  4  6  1  0  0  0  0
  4  2  2  0  0  0  0
  5  3  1  0  0  0  0
  6  5  2  0  0  0  0
  7  1  2  0  0  0  0
  8  4  1  0  0  0  0
  9  3  2  0  0  0  0
 10  8  2  0  0  0  0
 10  7  1  0  0  0  0
 11 12  2  0  0  0  0
 12 10  1  0  0  0  0
 13 14  1  0  0  0  0
 14 15  2  0  0  0  0
 16 12  1  0  0  0  0
 16 15  1  0  0  0  0
 17 18  1  0  0  0  0
 17 13  2  0  0  0  0
 18 16  2  0  0  0  0
 19  8  1  0  0  0  0
 20 21  2  0  0  0  0
 21 25  1  0  0  0  0
 21 22  2  0  0  0  0
 21 19  1  0  0  0  0
 23 25  1  0  0  0  0
 25 24  1  0  0  0  0
M  END
>  <MODEL>
9

>  <REMARK>
 VINA RESULT:      -8.7      2.135      3.296
  Name = 
  5 active torsions:
  status: ('A' for Active; 'I' for Inactive)
    1  A    between atoms: C_13  and  C_25
    2  A    between atoms: S_14  and  C_15
    3  A    between atoms: S_14  and  N_17
    4  A    between atoms: N_17  and  C_19
    5  A    between atoms: C_21  and  C_25
                            x       y       z     vdW  Elec       q    Type
                         _______ _______ _______ _____ _____    ______ ____

>  <TORSDO>
F 5

$$$$
