=
 OpenBabel11062415193D

 41 46  0  0  1  0  0  0  0  0999 V2000
  183.8060  178.8390  142.9950 C   0  0  1  0  0  3  0  0  0  0  0  0
  186.1120  179.0350  142.3370 O   0  0  0  0  0  1  0  0  0  0  0  0
  183.9550  178.9950  145.4540 N   0  0  0  0  0  0  0  0  0  0  0  0
  183.1960  178.9480  144.3970 C   0  0  0  0  0  0  0  0  0  0  0  0
  181.7770  179.0420  144.5460 N   0  0  0  0  0  2  0  0  0  0  0  0
  187.5480  177.7850  145.8150 C   0  0  0  0  0  0  0  0  0  0  0  0
  188.8770  177.5940  146.1920 C   0  0  0  0  0  3  0  0  0  0  0  0
  186.2930  178.5390  146.8480 S   0  0  0  0  0  0  0  0  0  0  0  0
  189.3130  176.6040  144.0090 C   0  0  0  0  0  0  0  0  0  0  0  0
  185.2040  178.1580  142.9360 C   0  0  1  0  0  3  0  0  0  0  0  0
  180.8730  178.5780  143.5010 C   0  0  0  0  0  2  0  0  0  0  0  0
  185.3980  178.8890  145.2970 C   0  0  1  0  0  3  0  0  0  0  0  0
  185.6850  177.7520  144.3340 C   0  0  2  0  0  3  0  0  0  0  0  0
  189.7620  177.0000  145.2810 C   0  0  0  0  0  3  0  0  0  0  0  0
  181.4400  178.8820  142.1210 C   0  0  0  0  0  2  0  0  0  0  0  0
  182.8200  178.2410  141.9790 C   0  0  1  0  0  3  0  0  0  0  0  0
  187.1170  177.4390  144.5450 C   0  0  0  0  0  0  0  0  0  0  0  0
  187.9790  176.8260  143.6330 C   0  0  0  0  0  3  0  0  0  0  0  0
  183.8670  177.4250  137.1150 C   0  0  0  0  0  1  0  0  0  0  0  0
  182.4970  176.1600  139.5730 C   0  0  0  0  0  1  0  0  0  0  0  0
  184.2450  179.2070  138.8450 C   0  0  0  0  0  0  0  0  0  0  0  0
  183.3100  178.3960  140.5690 C   0  0  0  0  0  0  0  0  0  0  0  0
  183.1720  177.4910  139.5270 C   0  0  0  0  0  0  0  0  0  0  0  0
  184.8760  179.9940  138.0900 O   0  0  0  0  0  0  0  0  0  0  0  0
  183.9920  179.4810  140.1430 N   0  0  0  0  0  2  0  0  0  0  0  0
  183.7630  178.0160  138.4410 N   0  0  0  0  0  0  0  0  0  0  0  0
  190.2690  175.9880  143.0440 C   0  0  0  0  0  2  0  0  0  0  0  0
  190.7230  177.0040  142.0060 C   0  0  0  0  0  2  0  0  0  0  0  0
  190.1680  177.7730  139.8540 C   0  0  2  0  0  3  0  0  0  0  0  0
  191.3730  176.9580  139.6570 C   0  0  0  0  0  0  0  0  0  0  0  0
  190.3670  176.5460  140.6670 N   0  0  0  0  0  0  0  0  0  0  0  0
  192.5820  177.4350  140.1780 O   0  0  0  0  0  1  0  0  0  0  0  0
  191.4570  176.0680  138.5840 O   0  0  0  0  0  1  0  0  0  0  0  0
  187.6600  178.0970  139.3300 C   0  0  0  0  0  1  0  0  0  0  0  0
  189.0200  177.6150  138.8150 C   0  0  0  0  0  0  0  0  0  0  0  0
  188.8870  176.1400  138.4420 C   0  0  0  0  0  1  0  0  0  0  0  0
  189.3690  178.4480  137.5590 C   0  0  2  0  0  3  0  0  0  0  0  0
  188.8680  179.7530  137.6520 O   0  0  0  0  0  1  0  0  0  0  0  0
  188.9280  177.8220  136.2660 C   0  0  0  0  0  0  0  0  0  0  0  0
  189.7400  177.1650  135.5620 O   0  0  0  0  0  0  0  0  0  0  0  0
  187.5900  178.0010  135.8170 N   0  0  0  0  0  1  0  0  0  0  0  0
  1  4  1  1  0  0  0
  4  5  1  0  0  0  0
  4  3  2  0  0  0  0
  6  7  1  0  0  0  0
  6  8  1  0  0  0  0
  9 14  1  0  0  0  0
 10  2  1  1  0  0  0
 10  1  1  0  0  0  0
 10 13  1  0  0  0  0
 11  5  1  0  0  0  0
 12  3  1  1  0  0  0
 12  8  1  0  0  0  0
 13 17  1  6  0  0  0
 13 12  1  0  0  0  0
 14  7  2  0  0  0  0
 15 11  1  0  0  0  0
 16 22  1  6  0  0  0
 16 15  1  0  0  0  0
 16  1  1  0  0  0  0
 17  6  2  0  0  0  0
 18  9  2  0  0  0  0
 18 17  1  0  0  0  0
 19 26  1  0  0  0  0
 21 25  1  0  0  0  0
 23 20  1  0  0  0  0
 23 22  2  0  0  0  0
 24 21  2  0  0  0  0
 25 22  1  0  0  0  0
 26 21  1  0  0  0  0
 26 23  1  0  0  0  0
 27  9  1  0  0  0  0
 28 27  1  0  0  0  0
 29 35  1  6  0  0  0
 29 31  1  0  0  0  0
 30 29  1  0  0  0  0
 30 32  1  0  0  0  0
 30 31  1  0  0  0  0
 31 28  1  0  0  0  0
 33 30  1  0  0  0  0
 35 34  1  0  0  0  0
 36 35  1  0  0  0  0
 37 38  1  1  0  0  0
 37 35  1  0  0  0  0
 39 37  1  0  0  0  0
 40 39  2  0  0  0  0
 41 39  1  0  0  0  0
M  END
>  <MODEL>
1

>  <REMARK>
 VINA RESULT:     -10.3      0.000      0.000
  Name = 
  7 active torsions:
  status: ('A' for Active; 'I' for Inactive)
    1  A    between atoms: C_4  and  C_21
    2  A    between atoms: C_8  and  C_39
    3  A    between atoms: C_12  and  C_16
    4  A    between atoms: C_13  and  N_24
    5  A    between atoms: C_13  and  C_36
    6  A    between atoms: C_16  and  C_21
    7  A    between atoms: C_25  and  C_36
                            x       y       z     vdW  Elec       q    Type
                         _______ _______ _______ _____ _____    ______ ____

>  <TORSDO>
F 7

$$$$
=
 OpenBabel11062415193D

 41 46  0  0  1  0  0  0  0  0999 V2000
  184.2210  178.1530  138.3420 C   0  0  1  0  0  3  0  0  0  0  0  0
  185.3750  179.3860  140.0560 O   0  0  0  0  0  1  0  0  0  0  0  0
  181.8750  178.2870  139.1010 N   0  0  0  0  0  0  0  0  0  0  0  0
  182.7140  177.9340  138.1690 C   0  0  0  0  0  0  0  0  0  0  0  0
  182.2150  177.3740  136.9500 N   0  0  0  0  0  2  0  0  0  0  0  0
  182.5760  178.8160  142.8050 C   0  0  0  0  0  0  0  0  0  0  0  0
  182.5630  179.2330  144.1360 C   0  0  0  0  0  3  0  0  0  0  0  0
  181.1700  178.8920  141.6980 S   0  0  0  0  0  0  0  0  0  0  0  0
  184.9130  178.6110  144.3140 C   0  0  0  0  0  0  0  0  0  0  0  0
  184.7170  178.1770  139.8170 C   0  0  1  0  0  3  0  0  0  0  0  0
  183.0710  176.5830  136.0740 C   0  0  0  0  0  2  0  0  0  0  0  0
  182.3890  178.8470  140.3410 C   0  0  1  0  0  3  0  0  0  0  0  0
  183.5540  177.9900  140.7990 C   0  0  2  0  0  3  0  0  0  0  0  0
  183.7400  179.1290  144.8920 C   0  0  0  0  0  3  0  0  0  0  0  0
  184.4840  177.1510  136.0420 C   0  0  0  0  0  2  0  0  0  0  0  0
  185.0490  177.2050  137.4610 C   0  0  1  0  0  3  0  0  0  0  0  0
  183.7440  178.3500  142.2230 C   0  0  0  0  0  0  0  0  0  0  0  0
  184.9190  178.2190  142.9660 C   0  0  0  0  0  3  0  0  0  0  0  0
  190.0870  177.0920  137.2970 C   0  0  0  0  0  1  0  0  0  0  0  0
  187.5940  175.2740  137.3270 C   0  0  0  0  0  1  0  0  0  0  0  0
  188.2490  178.8010  137.4040 C   0  0  0  0  0  0  0  0  0  0  0  0
  186.4950  177.6050  137.4170 C   0  0  0  0  0  0  0  0  0  0  0  0
  187.5990  176.7670  137.3620 C   0  0  0  0  0  0  0  0  0  0  0  0
  189.0040  179.8090  137.4160 O   0  0  0  0  0  0  0  0  0  0  0  0
  186.9020  178.8920  137.4480 N   0  0  0  0  0  2  0  0  0  0  0  0
  188.7020  177.5330  137.3500 N   0  0  0  0  0  0  0  0  0  0  0  0
  186.1610  178.5210  145.1240 C   0  0  0  0  0  2  0  0  0  0  0  0
  186.9700  177.2910  144.7400 C   0  0  0  0  0  2  0  0  0  0  0  0
  189.2630  176.7810  144.6210 C   0  0  2  0  0  3  0  0  0  0  0  0
  188.7730  176.6060  143.2490 C   0  0  0  0  0  0  0  0  0  0  0  0
  188.2150  177.6920  144.0930 N   0  0  0  0  0  0  0  0  0  0  0  0
  187.9020  175.5410  142.9930 O   0  0  0  0  0  1  0  0  0  0  0  0
  189.5130  177.0900  142.1670 O   0  0  0  0  0  1  0  0  0  0  0  0
  190.6270  178.9570  144.3380 C   0  0  0  0  0  1  0  0  0  0  0  0
  190.6320  177.4980  144.8070 C   0  0  0  0  0  0  0  0  0  0  0  0
  191.6970  176.7510  144.0070 C   0  0  0  0  0  1  0  0  0  0  0  0
  190.9970  177.4890  146.3100 C   0  0  2  0  0  3  0  0  0  0  0  0
  192.0470  176.6010  146.5780 O   0  0  0  0  0  1  0  0  0  0  0  0
  189.8380  177.1980  147.2200 C   0  0  0  0  0  0  0  0  0  0  0  0
  189.5810  176.0170  147.5760 O   0  0  0  0  0  0  0  0  0  0  0  0
  189.0010  178.2630  147.6580 N   0  0  0  0  0  1  0  0  0  0  0  0
  1  4  1  1  0  0  0
  1 10  1  0  0  0  0
  4  3  2  0  0  0  0
  5  4  1  0  0  0  0
  6  7  1  0  0  0  0
  7 14  2  0  0  0  0
  8  6  1  0  0  0  0
  9 14  1  0  0  0  0
  9 27  1  0  0  0  0
 10  2  1  1  0  0  0
 10 13  1  0  0  0  0
 11  5  1  0  0  0  0
 12  3  1  6  0  0  0
 12 13  1  0  0  0  0
 12  8  1  0  0  0  0
 13 17  1  1  0  0  0
 15 11  1  0  0  0  0
 15 16  1  0  0  0  0
 16 22  1  6  0  0  0
 16  1  1  0  0  0  0
 17  6  2  0  0  0  0
 17 18  1  0  0  0  0
 18  9  2  0  0  0  0
 19 26  1  0  0  0  0
 20 23  1  0  0  0  0
 21 24  2  0  0  0  0
 21 25  1  0  0  0  0
 22 25  1  0  0  0  0
 23 22  2  0  0  0  0
 26 23  1  0  0  0  0
 26 21  1  0  0  0  0
 28 27  1  0  0  0  0
 29 35  1  6  0  0  0
 30 31  1  0  0  0  0
 30 29  1  0  0  0  0
 31 29  1  0  0  0  0
 31 28  1  0  0  0  0
 32 30  1  0  0  0  0
 33 30  1  0  0  0  0
 34 35  1  0  0  0  0
 35 37  1  0  0  0  0
 36 35  1  0  0  0  0
 37 38  1  6  0  0  0
 37 39  1  0  0  0  0
 39 40  2  0  0  0  0
 39 41  1  0  0  0  0
M  END
>  <MODEL>
2

>  <REMARK>
 VINA RESULT:     -10.3      2.674      6.364
  Name = 
  7 active torsions:
  status: ('A' for Active; 'I' for Inactive)
    1  A    between atoms: C_4  and  C_21
    2  A    between atoms: C_8  and  C_39
    3  A    between atoms: C_12  and  C_16
    4  A    between atoms: C_13  and  N_24
    5  A    between atoms: C_13  and  C_36
    6  A    between atoms: C_16  and  C_21
    7  A    between atoms: C_25  and  C_36
                            x       y       z     vdW  Elec       q    Type
                         _______ _______ _______ _____ _____    ______ ____

>  <TORSDO>
F 7

$$$$
=
 OpenBabel11062415193D

 41 46  0  0  1  0  0  0  0  0999 V2000
  187.0660  177.7790  145.3210 C   0  0  1  0  0  3  0  0  0  0  0  0
  186.4790  176.9550  143.1370 O   0  0  0  0  0  1  0  0  0  0  0  0
  184.8600  178.3780  146.2550 N   0  0  0  0  0  0  0  0  0  0  0  0
  186.1390  178.2340  146.4540 C   0  0  0  0  0  0  0  0  0  0  0  0
  186.6770  178.4610  147.7590 N   0  0  0  0  0  2  0  0  0  0  0  0
  183.0520  178.9380  142.9520 C   0  0  0  0  0  0  0  0  0  0  0  0
  182.1250  178.9830  141.9100 C   0  0  0  0  0  3  0  0  0  0  0  0
  182.6290  178.7980  144.6870 S   0  0  0  0  0  0  0  0  0  0  0  0
  183.9720  179.1360  140.3270 C   0  0  0  0  0  0  0  0  0  0  0  0
  186.5720  178.1310  143.8870 C   0  0  1  0  0  3  0  0  0  0  0  0
  188.0960  178.7360  147.9570 C   0  0  0  0  0  2  0  0  0  0  0  0
  184.3200  178.1550  144.9220 C   0  0  1  0  0  3  0  0  0  0  0  0
  185.2220  178.8560  143.9240 C   0  0  2  0  0  3  0  0  0  0  0  0
  182.5910  179.0830  140.5910 C   0  0  0  0  0  3  0  0  0  0  0  0
  188.9440  177.9120  146.9980 C   0  0  0  0  0  2  0  0  0  0  0  0
  188.5230  178.2030  145.5580 C   0  0  1  0  0  3  0  0  0  0  0  0
  184.4110  178.9430  142.6880 C   0  0  0  0  0  0  0  0  0  0  0  0
  184.8930  179.0640  141.3820 C   0  0  0  0  0  3  0  0  0  0  0  0
  192.2460  177.2760  142.2870 C   0  0  0  0  0  1  0  0  0  0  0  0
  190.9810  179.5160  143.9910 C   0  0  0  0  0  1  0  0  0  0  0  0
  190.3730  176.0290  143.4040 C   0  0  0  0  0  0  0  0  0  0  0  0
  189.4640  177.5240  144.6070 C   0  0  0  0  0  0  0  0  0  0  0  0
  190.5280  178.0950  143.9240 C   0  0  0  0  0  0  0  0  0  0  0  0
  190.6100  174.9180  142.8610 O   0  0  0  0  0  0  0  0  0  0  0  0
  189.3600  176.2180  144.2770 N   0  0  0  0  0  2  0  0  0  0  0  0
  191.0980  177.1410  143.1700 N   0  0  0  0  0  0  0  0  0  0  0  0
  184.4540  179.2260  138.9190 C   0  0  0  0  0  2  0  0  0  0  0  0
  185.3020  178.0150  138.5570 C   0  0  0  0  0  2  0  0  0  0  0  0
  187.2810  177.2130  137.5710 C   0  0  2  0  0  3  0  0  0  0  0  0
  186.4830  177.7140  136.4460 C   0  0  0  0  0  0  0  0  0  0  0  0
  186.4440  178.4270  137.7460 N   0  0  0  0  0  0  0  0  0  0  0  0
  185.3140  177.0210  136.1090 O   0  0  0  0  0  1  0  0  0  0  0  0
  187.0830  178.4680  135.4350 O   0  0  0  0  0  1  0  0  0  0  0  0
  189.1070  179.0390  137.6030 C   0  0  0  0  0  1  0  0  0  0  0  0
  188.8030  177.5380  137.5710 C   0  0  0  0  0  0  0  0  0  0  0  0
  189.4350  176.9570  136.3080 C   0  0  0  0  0  1  0  0  0  0  0  0
  189.4470  176.9000  138.8250 C   0  0  2  0  0  3  0  0  0  0  0  0
  189.7010  177.8570  139.8150 O   0  0  0  0  0  1  0  0  0  0  0  0
  190.6960  176.1160  138.5400 C   0  0  0  0  0  0  0  0  0  0  0  0
  190.6340  174.8890  138.2620 O   0  0  0  0  0  0  0  0  0  0  0  0
  191.9640  176.7580  138.6170 N   0  0  0  0  0  1  0  0  0  0  0  0
  1 16  1  0  0  0  0
  1  4  1  1  0  0  0
  3  4  2  0  0  0  0
  4  5  1  0  0  0  0
  5 11  1  0  0  0  0
  6  8  1  0  0  0  0
  7  6  2  0  0  0  0
  9 14  2  0  0  0  0
  9 18  1  0  0  0  0
 10  2  1  6  0  0  0
 10 13  1  0  0  0  0
 10  1  1  0  0  0  0
 12  8  1  1  0  0  0
 12  3  1  0  0  0  0
 13 17  1  6  0  0  0
 13 12  1  0  0  0  0
 14  7  1  0  0  0  0
 15 11  1  0  0  0  0
 16 22  1  6  0  0  0
 16 15  1  0  0  0  0
 17  6  1  0  0  0  0
 18 17  2  0  0  0  0
 19 26  1  0  0  0  0
 21 25  1  0  0  0  0
 23 20  1  0  0  0  0
 23 22  2  0  0  0  0
 24 21  2  0  0  0  0
 25 22  1  0  0  0  0
 26 21  1  0  0  0  0
 26 23  1  0  0  0  0
 27  9  1  0  0  0  0
 28 27  1  0  0  0  0
 29 35  1  6  0  0  0
 29 31  1  0  0  0  0
 30 29  1  0  0  0  0
 30 31  1  0  0  0  0
 31 28  1  0  0  0  0
 32 30  1  0  0  0  0
 33 30  1  0  0  0  0
 35 34  1  0  0  0  0
 35 37  1  0  0  0  0
 36 35  1  0  0  0  0
 37 38  1  1  0  0  0
 39 41  1  0  0  0  0
 39 37  1  0  0  0  0
 40 39  2  0  0  0  0
M  END
>  <MODEL>
3

>  <REMARK>
 VINA RESULT:      -9.3      2.074      6.098
  Name = 
  7 active torsions:
  status: ('A' for Active; 'I' for Inactive)
    1  A    between atoms: C_4  and  C_21
    2  A    between atoms: C_8  and  C_39
    3  A    between atoms: C_12  and  C_16
    4  A    between atoms: C_13  and  N_24
    5  A    between atoms: C_13  and  C_36
    6  A    between atoms: C_16  and  C_21
    7  A    between atoms: C_25  and  C_36
                            x       y       z     vdW  Elec       q    Type
                         _______ _______ _______ _____ _____    ______ ____

>  <TORSDO>
F 7

$$$$
=
 OpenBabel11062415193D

 41 46  0  0  1  0  0  0  0  0999 V2000
  187.8000  177.5960  145.7760 C   0  0  1  0  0  3  0  0  0  0  0  0
  187.2540  176.8000  143.5720 O   0  0  0  0  0  1  0  0  0  0  0  0
  185.5750  178.1600  146.6870 N   0  0  0  0  0  0  0  0  0  0  0  0
  186.8520  178.0240  146.9020 C   0  0  0  0  0  0  0  0  0  0  0  0
  187.3680  178.2360  148.2190 N   0  0  0  0  0  2  0  0  0  0  0  0
  183.8110  178.7550  143.3650 C   0  0  0  0  0  0  0  0  0  0  0  0
  182.9000  178.8070  142.3110 C   0  0  0  0  0  3  0  0  0  0  0  0
  183.3640  178.5840  145.0920 S   0  0  0  0  0  0  0  0  0  0  0  0
  184.7680  179.0030  140.7580 C   0  0  0  0  0  0  0  0  0  0  0  0
  187.3240  177.9650  144.3410 C   0  0  1  0  0  3  0  0  0  0  0  0
  188.7810  178.5200  148.4430 C   0  0  0  0  0  2  0  0  0  0  0  0
  185.0570  177.9530  145.3430 C   0  0  1  0  0  3  0  0  0  0  0  0
  185.9670  178.6780  144.3690 C   0  0  2  0  0  3  0  0  0  0  0  0
  183.3840  178.9320  141.0010 C   0  0  0  0  0  3  0  0  0  0  0  0
  189.6520  177.7190  147.4840 C   0  0  0  0  0  2  0  0  0  0  0  0
  189.2490  178.0290  146.0420 C   0  0  1  0  0  3  0  0  0  0  0  0
  185.1740  178.7760  143.1220 C   0  0  0  0  0  0  0  0  0  0  0  0
  185.6740  178.9220  141.8260 C   0  0  0  0  0  3  0  0  0  0  0  0
  192.3710  177.1290  142.1870 C   0  0  0  0  0  1  0  0  0  0  0  0
  190.5740  179.3080  143.4280 C   0  0  0  0  0  1  0  0  0  0  0  0
  191.4560  175.9140  144.1870 C   0  0  0  0  0  0  0  0  0  0  0  0
  190.2110  177.3740  145.0950 C   0  0  0  0  0  0  0  0  0  0  0  0
  190.7820  177.9280  143.9590 C   0  0  0  0  0  0  0  0  0  0  0  0
  192.0560  174.8280  143.9690 O   0  0  0  0  0  0  0  0  0  0  0  0
  190.6310  176.0990  145.2400 N   0  0  0  0  0  2  0  0  0  0  0  0
  191.5700  176.9980  143.3950 N   0  0  0  0  0  0  0  0  0  0  0  0
  185.2700  179.1190  139.3590 C   0  0  0  0  0  2  0  0  0  0  0  0
  185.6130  177.7500  138.7900 C   0  0  0  0  0  2  0  0  0  0  0  0
  187.5820  176.8190  137.9030 C   0  0  2  0  0  3  0  0  0  0  0  0
  186.5920  176.6850  136.8280 C   0  0  0  0  0  0  0  0  0  0  0  0
  186.5710  177.8870  137.6970 N   0  0  0  0  0  0  0  0  0  0  0  0
  185.5320  175.7910  137.0180 O   0  0  0  0  0  1  0  0  0  0  0  0
  186.9390  176.9800  135.5070 O   0  0  0  0  0  1  0  0  0  0  0  0
  189.0550  178.6570  136.8430 C   0  0  0  0  0  1  0  0  0  0  0  0
  189.0160  177.2760  137.5040 C   0  0  0  0  0  0  0  0  0  0  0  0
  189.6020  176.2660  136.5190 C   0  0  0  0  0  1  0  0  0  0  0  0
  189.8900  177.3390  138.7790 C   0  0  2  0  0  3  0  0  0  0  0  0
  190.4990  176.1070  139.0450 O   0  0  0  0  0  1  0  0  0  0  0  0
  189.1580  177.8220  139.9990 C   0  0  0  0  0  0  0  0  0  0  0  0
  188.7230  179.0030  140.0610 O   0  0  0  0  0  0  0  0  0  0  0  0
  188.9850  176.9480  141.1090 N   0  0  0  0  0  1  0  0  0  0  0  0
  1 16  1  0  0  0  0
  1  4  1  1  0  0  0
  3  4  2  0  0  0  0
  4  5  1  0  0  0  0
  5 11  1  0  0  0  0
  6  8  1  0  0  0  0
  7  6  2  0  0  0  0
  9 14  2  0  0  0  0
  9 18  1  0  0  0  0
 10  2  1  6  0  0  0
 10 13  1  0  0  0  0
 10  1  1  0  0  0  0
 12  8  1  1  0  0  0
 12  3  1  0  0  0  0
 13 17  1  6  0  0  0
 13 12  1  0  0  0  0
 14  7  1  0  0  0  0
 15 11  1  0  0  0  0
 16 22  1  6  0  0  0
 16 15  1  0  0  0  0
 17  6  1  0  0  0  0
 18 17  2  0  0  0  0
 19 26  1  0  0  0  0
 20 23  1  0  0  0  0
 21 25  1  0  0  0  0
 22 25  1  0  0  0  0
 23 22  2  0  0  0  0
 24 21  2  0  0  0  0
 26 23  1  0  0  0  0
 26 21  1  0  0  0  0
 27  9  1  0  0  0  0
 28 27  1  0  0  0  0
 29 35  1  6  0  0  0
 30 32  1  0  0  0  0
 30 31  1  0  0  0  0
 30 29  1  0  0  0  0
 31 29  1  0  0  0  0
 31 28  1  0  0  0  0
 33 30  1  0  0  0  0
 34 35  1  0  0  0  0
 35 37  1  0  0  0  0
 36 35  1  0  0  0  0
 37 38  1  1  0  0  0
 37 39  1  0  0  0  0
 39 40  2  0  0  0  0
 39 41  1  0  0  0  0
M  END
>  <MODEL>
4

>  <REMARK>
 VINA RESULT:      -9.0      2.180      6.282
  Name = 
  7 active torsions:
  status: ('A' for Active; 'I' for Inactive)
    1  A    between atoms: C_4  and  C_21
    2  A    between atoms: C_8  and  C_39
    3  A    between atoms: C_12  and  C_16
    4  A    between atoms: C_13  and  N_24
    5  A    between atoms: C_13  and  C_36
    6  A    between atoms: C_16  and  C_21
    7  A    between atoms: C_25  and  C_36
                            x       y       z     vdW  Elec       q    Type
                         _______ _______ _______ _____ _____    ______ ____

>  <TORSDO>
F 7

$$$$
=
 OpenBabel11062415193D

 41 46  0  0  1  0  0  0  0  0999 V2000
  184.3020  178.3150  138.0980 C   0  0  1  0  0  3  0  0  0  0  0  0
  185.4030  179.3340  139.9800 O   0  0  0  0  0  1  0  0  0  0  0  0
  181.9200  178.5480  138.7060 N   0  0  0  0  0  0  0  0  0  0  0  0
  182.8010  178.2120  137.8070 C   0  0  0  0  0  0  0  0  0  0  0  0
  182.3580  177.7810  136.5170 N   0  0  0  0  0  2  0  0  0  0  0  0
  182.3830  178.7450  142.4800 C   0  0  0  0  0  0  0  0  0  0  0  0
  182.3000  179.0600  143.8360 C   0  0  0  0  0  3  0  0  0  0  0  0
  181.0670  179.0000  141.2910 S   0  0  0  0  0  0  0  0  0  0  0  0
  184.5870  178.2690  144.1200 C   0  0  0  0  0  0  0  0  0  0  0  0
  184.6900  178.1940  139.6000 C   0  0  1  0  0  3  0  0  0  0  0  0
  183.2240  177.0040  135.6390 C   0  0  0  0  0  2  0  0  0  0  0  0
  182.3760  178.9760  140.0190 C   0  0  1  0  0  3  0  0  0  0  0  0
  183.4510  178.0110  140.4830 C   0  0  2  0  0  3  0  0  0  0  0  0
  183.4100  178.8190  144.6590 C   0  0  0  0  0  3  0  0  0  0  0  0
  184.6680  177.4770  135.7470 C   0  0  0  0  0  2  0  0  0  0  0  0
  185.1310  177.3840  137.2010 C   0  0  1  0  0  3  0  0  0  0  0  0
  183.5580  178.2480  141.9410 C   0  0  0  0  0  0  0  0  0  0  0  0
  184.6660  177.9810  142.7490 C   0  0  0  0  0  3  0  0  0  0  0  0
  190.1510  176.9450  137.3790 C   0  0  0  0  0  1  0  0  0  0  0  0
  187.5550  175.3010  137.1030 C   0  0  0  0  0  1  0  0  0  0  0  0
  188.4190  178.7620  137.4820 C   0  0  0  0  0  0  0  0  0  0  0  0
  186.5990  177.6880  137.2860 C   0  0  0  0  0  0  0  0  0  0  0  0
  187.6490  176.7840  137.2480 C   0  0  0  0  0  0  0  0  0  0  0  0
  189.2330  179.7140  137.6210 O   0  0  0  0  0  0  0  0  0  0  0  0
  187.0810  178.9400  137.4400 N   0  0  0  0  0  2  0  0  0  0  0  0
  188.7950  177.4730  137.3680 N   0  0  0  0  0  0  0  0  0  0  0  0
  185.7660  178.0340  145.0030 C   0  0  0  0  0  2  0  0  0  0  0  0
  187.0660  178.2420  144.2400 C   0  0  0  0  0  2  0  0  0  0  0  0
  189.3330  178.0010  144.8170 C   0  0  2  0  0  3  0  0  0  0  0  0
  188.5980  177.5580  146.0080 C   0  0  0  0  0  0  0  0  0  0  0  0
  188.0570  177.2570  144.6600 N   0  0  0  0  0  0  0  0  0  0  0  0
  187.8860  178.5180  146.7360 O   0  0  0  0  0  1  0  0  0  0  0  0
  188.9970  176.4110  146.6980 O   0  0  0  0  0  1  0  0  0  0  0  0
  190.1980  175.8380  143.7030 C   0  0  0  0  0  1  0  0  0  0  0  0
  190.5680  177.1590  144.3830 C   0  0  0  0  0  0  0  0  0  0  0  0
  191.4060  176.8350  145.6180 C   0  0  0  0  0  1  0  0  0  0  0  0
  191.4040  177.9870  143.3790 C   0  0  2  0  0  3  0  0  0  0  0  0
  191.2770  179.3610  143.6140 O   0  0  0  0  0  1  0  0  0  0  0  0
  191.1050  177.6850  141.9380 C   0  0  0  0  0  0  0  0  0  0  0  0
  192.0170  177.2900  141.1620 O   0  0  0  0  0  0  0  0  0  0  0  0
  189.7880  177.8790  141.4350 N   0  0  0  0  0  1  0  0  0  0  0  0
  1  4  1  1  0  0  0
  1 10  1  0  0  0  0
  4  3  2  0  0  0  0
  5  4  1  0  0  0  0
  6  7  1  0  0  0  0
  7 14  2  0  0  0  0
  8  6  1  0  0  0  0
  9 14  1  0  0  0  0
  9 27  1  0  0  0  0
 10  2  1  1  0  0  0
 10 13  1  0  0  0  0
 11 15  1  0  0  0  0
 11  5  1  0  0  0  0
 12  3  1  6  0  0  0
 12 13  1  0  0  0  0
 12  8  1  0  0  0  0
 13 17  1  1  0  0  0
 15 16  1  0  0  0  0
 16 22  1  6  0  0  0
 16  1  1  0  0  0  0
 17  6  2  0  0  0  0
 17 18  1  0  0  0  0
 18  9  2  0  0  0  0
 20 23  1  0  0  0  0
 21 24  2  0  0  0  0
 22 25  1  0  0  0  0
 23 22  2  0  0  0  0
 23 26  1  0  0  0  0
 25 21  1  0  0  0  0
 26 19  1  0  0  0  0
 26 21  1  0  0  0  0
 28 31  1  0  0  0  0
 28 27  1  0  0  0  0
 29 35  1  6  0  0  0
 29 30  1  0  0  0  0
 30 33  1  0  0  0  0
 30 32  1  0  0  0  0
 31 29  1  0  0  0  0
 31 30  1  0  0  0  0
 34 35  1  0  0  0  0
 35 36  1  0  0  0  0
 37 38  1  6  0  0  0
 37 35  1  0  0  0  0
 39 37  1  0  0  0  0
 40 39  2  0  0  0  0
 41 39  1  0  0  0  0
M  END
>  <MODEL>
5

>  <REMARK>
 VINA RESULT:      -9.0      2.347      5.964
  Name = 
  7 active torsions:
  status: ('A' for Active; 'I' for Inactive)
    1  A    between atoms: C_4  and  C_21
    2  A    between atoms: C_8  and  C_39
    3  A    between atoms: C_12  and  C_16
    4  A    between atoms: C_13  and  N_24
    5  A    between atoms: C_13  and  C_36
    6  A    between atoms: C_16  and  C_21
    7  A    between atoms: C_25  and  C_36
                            x       y       z     vdW  Elec       q    Type
                         _______ _______ _______ _____ _____    ______ ____

>  <TORSDO>
F 7

$$$$
=
 OpenBabel11062415193D

 41 46  0  0  1  0  0  0  0  0999 V2000
  189.5570  177.1210  141.8500 C   0  0  1  0  0  3  0  0  0  0  0  0
  187.1870  176.8260  142.1480 O   0  0  0  0  0  1  0  0  0  0  0  0
  190.4030  176.8570  144.1540 N   0  0  0  0  0  0  0  0  0  0  0  0
  190.6770  176.9890  142.8870 C   0  0  0  0  0  0  0  0  0  0  0  0
  192.0410  176.9660  142.4570 N   0  0  0  0  0  2  0  0  0  0  0  0
  187.2130  177.8530  145.9770 C   0  0  0  0  0  0  0  0  0  0  0  0
  186.1370  177.9550  146.8590 C   0  0  0  0  0  3  0  0  0  0  0  0
  188.8000  177.1280  146.3830 S   0  0  0  0  0  0  0  0  0  0  0  0
  184.8350  179.0080  145.0890 C   0  0  0  0  0  0  0  0  0  0  0  0
  188.2280  177.7260  142.3900 C   0  0  1  0  0  3  0  0  0  0  0  0
  192.4380  177.5210  141.1690 C   0  0  0  0  0  2  0  0  0  0  0  0
  189.0150  176.8910  144.5860 C   0  0  1  0  0  3  0  0  0  0  0  0
  188.3300  178.0480  143.8850 C   0  0  2  0  0  3  0  0  0  0  0  0
  184.9430  178.5370  146.4100 C   0  0  0  0  0  3  0  0  0  0  0  0
  191.3800  177.2420  140.1110 C   0  0  0  0  0  2  0  0  0  0  0  0
  190.0360  177.8120  140.5640 C   0  0  1  0  0  3  0  0  0  0  0  0
  187.0900  178.2740  144.6630 C   0  0  0  0  0  0  0  0  0  0  0  0
  185.9160  178.8750  144.2040 C   0  0  0  0  0  3  0  0  0  0  0  0
  187.5280  176.2700  136.4710 C   0  0  0  0  0  1  0  0  0  0  0  0
  189.9800  175.6280  138.2300 C   0  0  0  0  0  1  0  0  0  0  0  0
  187.3660  178.0850  138.2010 C   0  0  0  0  0  0  0  0  0  0  0  0
  189.0310  177.6880  139.4560 C   0  0  0  0  0  0  0  0  0  0  0  0
  189.0100  176.7430  138.4420 C   0  0  0  0  0  0  0  0  0  0  0  0
  186.3320  178.6280  137.7280 O   0  0  0  0  0  0  0  0  0  0  0  0
  187.9960  178.5420  139.3050 N   0  0  0  0  0  2  0  0  0  0  0  0
  187.9510  177.0000  137.6570 N   0  0  0  0  0  0  0  0  0  0  0  0
  183.5540  179.6100  144.6200 C   0  0  0  0  0  2  0  0  0  0  0  0
  182.7490  178.6060  143.8070 C   0  0  0  0  0  2  0  0  0  0  0  0
  181.4480  178.2480  141.8810 C   0  0  2  0  0  3  0  0  0  0  0  0
  180.5300  178.8810  142.8350 C   0  0  0  0  0  0  0  0  0  0  0  0
  181.9530  179.3000  142.8000 N   0  0  0  0  0  0  0  0  0  0  0  0
  180.1510  178.1490  143.9670 O   0  0  0  0  0  1  0  0  0  0  0  0
  179.6600  179.8900  142.4160 O   0  0  0  0  0  1  0  0  0  0  0  0
  181.2070  180.2460  140.2610 C   0  0  0  0  0  1  0  0  0  0  0  0
  181.3890  178.7320  140.4020 C   0  0  0  0  0  0  0  0  0  0  0  0
  180.2150  178.0490  139.7030 C   0  0  0  0  0  1  0  0  0  0  0  0
  182.7150  178.3500  139.7020 C   0  0  2  0  0  3  0  0  0  0  0  0
  183.1810  177.1010  140.1310 O   0  0  0  0  0  1  0  0  0  0  0  0
  183.8010  179.3780  139.8460 C   0  0  0  0  0  0  0  0  0  0  0  0
  183.8660  180.3580  139.0560 O   0  0  0  0  0  0  0  0  0  0  0  0
  184.7860  179.2260  140.8630 N   0  0  0  0  0  1  0  0  0  0  0  0
  1 10  1  0  0  0  0
  1  4  1  1  0  0  0
  4  3  2  0  0  0  0
  5  4  1  0  0  0  0
  6  8  1  0  0  0  0
  6  7  1  0  0  0  0
  9 14  1  0  0  0  0
 10  2  1  1  0  0  0
 10 13  1  0  0  0  0
 11  5  1  0  0  0  0
 12  3  1  1  0  0  0
 12  8  1  0  0  0  0
 13 12  1  0  0  0  0
 13 17  1  1  0  0  0
 14  7  2  0  0  0  0
 15 16  1  0  0  0  0
 15 11  1  0  0  0  0
 16 22  1  6  0  0  0
 16  1  1  0  0  0  0
 17  6  2  0  0  0  0
 18 17  1  0  0  0  0
 18  9  2  0  0  0  0
 19 26  1  0  0  0  0
 20 23  1  0  0  0  0
 21 25  1  0  0  0  0
 23 22  2  0  0  0  0
 24 21  2  0  0  0  0
 25 22  1  0  0  0  0
 26 21  1  0  0  0  0
 26 23  1  0  0  0  0
 27  9  1  0  0  0  0
 28 27  1  0  0  0  0
 29 35  1  6  0  0  0
 29 31  1  0  0  0  0
 29 30  1  0  0  0  0
 30 32  1  0  0  0  0
 31 30  1  0  0  0  0
 31 28  1  0  0  0  0
 33 30  1  0  0  0  0
 34 35  1  0  0  0  0
 36 35  1  0  0  0  0
 37 39  1  0  0  0  0
 37 38  1  1  0  0  0
 37 35  1  0  0  0  0
 39 41  1  0  0  0  0
 40 39  2  0  0  0  0
M  END
>  <MODEL>
6

>  <REMARK>
 VINA RESULT:      -8.3      2.230      7.084
  Name = 
  7 active torsions:
  status: ('A' for Active; 'I' for Inactive)
    1  A    between atoms: C_4  and  C_21
    2  A    between atoms: C_8  and  C_39
    3  A    between atoms: C_12  and  C_16
    4  A    between atoms: C_13  and  N_24
    5  A    between atoms: C_13  and  C_36
    6  A    between atoms: C_16  and  C_21
    7  A    between atoms: C_25  and  C_36
                            x       y       z     vdW  Elec       q    Type
                         _______ _______ _______ _____ _____    ______ ____

>  <TORSDO>
F 7

$$$$
=
 OpenBabel11062415193D

 41 46  0  0  1  0  0  0  0  0999 V2000
  189.7000  177.6860  143.5470 C   0  0  1  0  0  3  0  0  0  0  0  0
  188.6510  178.3990  141.5020 O   0  0  0  0  0  1  0  0  0  0  0  0
  192.0550  177.4220  142.8540 N   0  0  0  0  0  0  0  0  0  0  0  0
  191.1860  177.4330  143.8240 C   0  0  0  0  0  0  0  0  0  0  0  0
  191.6340  177.2480  145.1700 N   0  0  0  0  0  2  0  0  0  0  0  0
  191.4220  176.8170  139.1490 C   0  0  0  0  0  0  0  0  0  0  0  0
  191.4750  176.7980  137.7550 C   0  0  0  0  0  3  0  0  0  0  0  0
  192.8220  177.1410  140.2190 S   0  0  0  0  0  0  0  0  0  0  0  0
  189.0890  176.3080  137.7090 C   0  0  0  0  0  0  0  0  0  0  0  0
  189.2190  177.2830  142.1230 C   0  0  1  0  0  3  0  0  0  0  0  0
  190.7160  176.8280  146.2230 C   0  0  0  0  0  2  0  0  0  0  0  0
  191.5930  177.6010  141.4860 C   0  0  1  0  0  3  0  0  0  0  0  0
  190.3720  176.7240  141.2820 C   0  0  2  0  0  3  0  0  0  0  0  0
  190.3010  176.5420  137.0340 C   0  0  0  0  0  3  0  0  0  0  0  0
  189.3480  177.4700  146.0350 C   0  0  0  0  0  2  0  0  0  0  0  0
  188.7990  177.1170  144.6530 C   0  0  1  0  0  3  0  0  0  0  0  0
  190.2200  176.6340  139.8120 C   0  0  0  0  0  0  0  0  0  0  0  0
  189.0440  176.3560  139.1110 C   0  0  0  0  0  3  0  0  0  0  0  0
  184.2180  178.9560  145.6800 C   0  0  0  0  0  1  0  0  0  0  0  0
  186.9250  178.2530  146.9820 C   0  0  0  0  0  1  0  0  0  0  0  0
  185.4970  178.0990  143.6940 C   0  0  0  0  0  0  0  0  0  0  0  0
  187.3860  177.6050  144.5280 C   0  0  0  0  0  0  0  0  0  0  0  0
  186.5720  178.0940  145.5390 C   0  0  0  0  0  0  0  0  0  0  0  0
  184.5660  178.2530  142.8590 O   0  0  0  0  0  0  0  0  0  0  0  0
  186.7080  177.6020  143.3600 N   0  0  0  0  0  2  0  0  0  0  0  0
  185.3830  178.4070  145.0010 N   0  0  0  0  0  0  0  0  0  0  0  0
  187.8440  176.0530  136.9300 C   0  0  0  0  0  2  0  0  0  0  0  0
  186.8120  177.1430  137.1820 C   0  0  0  0  0  2  0  0  0  0  0  0
  184.5330  177.7130  137.2870 C   0  0  2  0  0  3  0  0  0  0  0  0
  184.6640  176.9360  136.0490 C   0  0  0  0  0  0  0  0  0  0  0  0
  185.4740  176.5640  137.2350 N   0  0  0  0  0  0  0  0  0  0  0  0
  185.3820  177.5030  134.9890 O   0  0  0  0  0  1  0  0  0  0  0  0
  183.7140  175.9660  135.7190 O   0  0  0  0  0  1  0  0  0  0  0  0
  183.0710  175.9340  138.4570 C   0  0  0  0  0  1  0  0  0  0  0  0
  183.2950  177.4250  138.1850 C   0  0  0  0  0  0  0  0  0  0  0  0
  182.0450  177.9720  137.4990 C   0  0  0  0  0  1  0  0  0  0  0  0
  183.4990  178.1260  139.5490 C   0  0  2  0  0  3  0  0  0  0  0  0
  182.2860  178.5880  140.0750 O   0  0  0  0  0  1  0  0  0  0  0  0
  184.5020  179.2440  139.5200 C   0  0  0  0  0  0  0  0  0  0  0  0
  184.1790  180.3850  139.0930 O   0  0  0  0  0  0  0  0  0  0  0  0
  185.8380  179.0030  139.9450 N   0  0  0  0  0  1  0  0  0  0  0  0
  1  4  1  1  0  0  0
  1 16  1  0  0  0  0
  3  4  2  0  0  0  0
  4  5  1  0  0  0  0
  5 11  1  0  0  0  0
  6 17  1  0  0  0  0
  6  8  1  0  0  0  0
  7  6  2  0  0  0  0
  9 18  1  0  0  0  0
 10  2  1  6  0  0  0
 10  1  1  0  0  0  0
 12  8  1  6  0  0  0
 12  3  1  0  0  0  0
 13 17  1  6  0  0  0
 13 12  1  0  0  0  0
 13 10  1  0  0  0  0
 14  9  2  0  0  0  0
 14  7  1  0  0  0  0
 15 11  1  0  0  0  0
 16 22  1  6  0  0  0
 16 15  1  0  0  0  0
 18 17  2  0  0  0  0
 21 26  1  0  0  0  0
 22 23  2  0  0  0  0
 23 20  1  0  0  0  0
 24 21  2  0  0  0  0
 25 21  1  0  0  0  0
 25 22  1  0  0  0  0
 26 23  1  0  0  0  0
 26 19  1  0  0  0  0
 27 28  1  0  0  0  0
 27  9  1  0  0  0  0
 28 31  1  0  0  0  0
 29 35  1  1  0  0  0
 30 31  1  0  0  0  0
 30 29  1  0  0  0  0
 31 29  1  0  0  0  0
 32 30  1  0  0  0  0
 33 30  1  0  0  0  0
 35 34  1  0  0  0  0
 35 37  1  0  0  0  0
 36 35  1  0  0  0  0
 37 38  1  6  0  0  0
 39 37  1  0  0  0  0
 39 41  1  0  0  0  0
 40 39  2  0  0  0  0
M  END
>  <MODEL>
7

>  <REMARK>
 VINA RESULT:      -8.2      2.647      7.045
  Name = 
  7 active torsions:
  status: ('A' for Active; 'I' for Inactive)
    1  A    between atoms: C_4  and  C_21
    2  A    between atoms: C_8  and  C_39
    3  A    between atoms: C_12  and  C_16
    4  A    between atoms: C_13  and  N_24
    5  A    between atoms: C_13  and  C_36
    6  A    between atoms: C_16  and  C_21
    7  A    between atoms: C_25  and  C_36
                            x       y       z     vdW  Elec       q    Type
                         _______ _______ _______ _____ _____    ______ ____

>  <TORSDO>
F 7

$$$$
=
 OpenBabel11062415193D

 41 46  0  0  1  0  0  0  0  0999 V2000
  182.7460  178.9560  142.7270 C   0  0  1  0  0  3  0  0  0  0  0  0
  184.8530  179.4960  141.6970 O   0  0  0  0  0  1  0  0  0  0  0  0
  183.3370  178.9210  145.1240 N   0  0  0  0  0  0  0  0  0  0  0  0
  182.4030  178.8680  144.2180 C   0  0  0  0  0  0  0  0  0  0  0  0
  181.0350  178.7700  144.6250 N   0  0  0  0  0  2  0  0  0  0  0  0
  187.0430  178.1490  144.7150 C   0  0  0  0  0  0  0  0  0  0  0  0
  188.4320  178.0960  144.8290 C   0  0  0  0  0  3  0  0  0  0  0  0
  185.9300  178.6480  146.0270 S   0  0  0  0  0  0  0  0  0  0  0  0
  188.5550  177.3570  142.5100 C   0  0  0  0  0  0  0  0  0  0  0  0
  184.1750  178.4640  142.3510 C   0  0  1  0  0  3  0  0  0  0  0  0
  180.0060  178.2850  143.7120 C   0  0  0  0  0  2  0  0  0  0  0  0
  184.7280  179.0120  144.7040 C   0  0  1  0  0  3  0  0  0  0  0  0
  184.9500  178.0050  143.5900 C   0  0  2  0  0  3  0  0  0  0  0  0
  189.1900  177.6970  143.7180 C   0  0  0  0  0  3  0  0  0  0  0  0
  180.2680  178.7740  142.2940 C   0  0  0  0  0  2  0  0  0  0  0  0
  181.6590  178.3260  141.8440 C   0  0  1  0  0  3  0  0  0  0  0  0
  186.4220  177.8590  143.5110 C   0  0  0  0  0  0  0  0  0  0  0  0
  187.1590  177.4390  142.4010 C   0  0  0  0  0  3  0  0  0  0  0  0
  182.7770  178.0530  136.9350 C   0  0  0  0  0  1  0  0  0  0  0  0
  182.7280  176.3910  139.5340 C   0  0  0  0  0  1  0  0  0  0  0  0
  181.9200  179.7530  138.5750 C   0  0  0  0  0  0  0  0  0  0  0  0
  181.8540  178.6600  140.3940 C   0  0  0  0  0  0  0  0  0  0  0  0
  182.3220  177.8210  139.3930 C   0  0  0  0  0  0  0  0  0  0  0  0
  181.8200  180.6980  137.7480 O   0  0  0  0  0  0  0  0  0  0  0  0
  181.6040  179.8840  139.8810 N   0  0  0  0  0  2  0  0  0  0  0  0
  182.3560  178.5210  138.2470 N   0  0  0  0  0  0  0  0  0  0  0  0
  189.3740  176.9500  141.3320 C   0  0  0  0  0  2  0  0  0  0  0  0
  188.7340  177.4250  140.0360 C   0  0  0  0  0  2  0  0  0  0  0  0
  188.3730  176.7110  137.8250 C   0  0  2  0  0  3  0  0  0  0  0  0
  189.4360  177.7170  137.7200 C   0  0  0  0  0  0  0  0  0  0  0  0
  189.4010  176.8090  138.8930 N   0  0  0  0  0  0  0  0  0  0  0  0
  189.1080  179.0510  137.9870 O   0  0  0  0  0  1  0  0  0  0  0  0
  190.5430  177.4930  136.8980 O   0  0  0  0  0  1  0  0  0  0  0  0
  189.8040  174.6310  137.2800 C   0  0  0  0  0  1  0  0  0  0  0  0
  188.5250  175.4170  136.9730 C   0  0  0  0  0  0  0  0  0  0  0  0
  188.5480  175.7950  135.4940 C   0  0  0  0  0  1  0  0  0  0  0  0
  187.3220  174.4880  137.2630 C   0  0  2  0  0  3  0  0  0  0  0  0
  187.6520  173.1420  137.0640 O   0  0  0  0  0  1  0  0  0  0  0  0
  186.0830  174.8310  136.4840 C   0  0  0  0  0  0  0  0  0  0  0  0
  185.3780  175.8250  136.8050 O   0  0  0  0  0  0  0  0  0  0  0  0
  185.6840  174.0060  135.3960 N   0  0  0  0  0  1  0  0  0  0  0  0
  1  4  1  1  0  0  0
  4  5  1  0  0  0  0
  4  3  2  0  0  0  0
  6  7  1  0  0  0  0
  6  8  1  0  0  0  0
  9 14  1  0  0  0  0
 10  2  1  1  0  0  0
 10  1  1  0  0  0  0
 10 13  1  0  0  0  0
 11  5  1  0  0  0  0
 12  3  1  1  0  0  0
 12  8  1  0  0  0  0
 13 17  1  6  0  0  0
 13 12  1  0  0  0  0
 14  7  2  0  0  0  0
 15 11  1  0  0  0  0
 16 22  1  6  0  0  0
 16 15  1  0  0  0  0
 16  1  1  0  0  0  0
 17  6  2  0  0  0  0
 18  9  2  0  0  0  0
 18 17  1  0  0  0  0
 19 26  1  0  0  0  0
 21 25  1  0  0  0  0
 23 20  1  0  0  0  0
 23 22  2  0  0  0  0
 24 21  2  0  0  0  0
 25 22  1  0  0  0  0
 26 21  1  0  0  0  0
 26 23  1  0  0  0  0
 27  9  1  0  0  0  0
 28 27  1  0  0  0  0
 29 35  1  6  0  0  0
 29 31  1  0  0  0  0
 30 29  1  0  0  0  0
 30 32  1  0  0  0  0
 30 31  1  0  0  0  0
 31 28  1  0  0  0  0
 33 30  1  0  0  0  0
 35 37  1  0  0  0  0
 35 34  1  0  0  0  0
 36 35  1  0  0  0  0
 37 38  1  6  0  0  0
 39 40  2  0  0  0  0
 39 37  1  0  0  0  0
 41 39  1  0  0  0  0
M  END
>  <MODEL>
8

>  <REMARK>
 VINA RESULT:      -8.0      1.939      2.605
  Name = 
  7 active torsions:
  status: ('A' for Active; 'I' for Inactive)
    1  A    between atoms: C_4  and  C_21
    2  A    between atoms: C_8  and  C_39
    3  A    between atoms: C_12  and  C_16
    4  A    between atoms: C_13  and  N_24
    5  A    between atoms: C_13  and  C_36
    6  A    between atoms: C_16  and  C_21
    7  A    between atoms: C_25  and  C_36
                            x       y       z     vdW  Elec       q    Type
                         _______ _______ _______ _____ _____    ______ ____

>  <TORSDO>
F 7

$$$$
=
 OpenBabel11062415193D

 41 46  0  0  1  0  0  0  0  0999 V2000
  181.9730  177.6560  138.5950 C   0  0  1  0  0  3  0  0  0  0  0  0
  184.0170  178.6300  139.4100 O   0  0  0  0  0  1  0  0  0  0  0  0
  180.3230  178.4650  140.2430 N   0  0  0  0  0  0  0  0  0  0  0  0
  180.5460  177.8430  139.1200 C   0  0  0  0  0  0  0  0  0  0  0  0
  179.4400  177.3680  138.3490 N   0  0  0  0  0  2  0  0  0  0  0  0
  182.7320  179.0020  143.1420 C   0  0  0  0  0  0  0  0  0  0  0  0
  183.4180  179.4860  144.2560 C   0  0  0  0  0  3  0  0  0  0  0  0
  181.0290  179.3910  142.7440 S   0  0  0  0  0  0  0  0  0  0  0  0
  185.3930  178.2620  143.5230 C   0  0  0  0  0  0  0  0  0  0  0  0
  183.0800  177.6320  139.6890 C   0  0  1  0  0  3  0  0  0  0  0  0
  179.6080  176.3240  137.3440 C   0  0  0  0  0  2  0  0  0  0  0  0
  181.4530  178.9370  141.0280 C   0  0  1  0  0  3  0  0  0  0  0  0
  182.4840  177.8250  141.0880 C   0  0  2  0  0  3  0  0  0  0  0  0
  184.7560  179.1120  144.4450 C   0  0  0  0  0  3  0  0  0  0  0  0
  180.9360  176.4860  136.6150 C   0  0  0  0  0  2  0  0  0  0  0  0
  182.0830  176.4690  137.6260 C   0  0  1  0  0  3  0  0  0  0  0  0
  183.3740  178.2040  142.2090 C   0  0  0  0  0  0  0  0  0  0  0  0
  184.7000  177.8040  142.3920 C   0  0  0  0  0  3  0  0  0  0  0  0
  186.5960  175.1160  135.8290 C   0  0  0  0  0  1  0  0  0  0  0  0
  184.2630  174.1300  137.5910 C   0  0  0  0  0  1  0  0  0  0  0  0
  185.0380  177.0840  135.7080 C   0  0  0  0  0  0  0  0  0  0  0  0
  183.3970  176.4590  136.9010 C   0  0  0  0  0  0  0  0  0  0  0  0
  184.3440  175.4460  136.8890 C   0  0  0  0  0  0  0  0  0  0  0  0
  185.7730  177.7910  134.9680 O   0  0  0  0  0  0  0  0  0  0  0  0
  183.8350  177.4990  136.1590 N   0  0  0  0  0  2  0  0  0  0  0  0
  185.3750  175.8490  136.1300 N   0  0  0  0  0  0  0  0  0  0  0  0
  186.8220  177.8860  143.7270 C   0  0  0  0  0  2  0  0  0  0  0  0
  187.1860  177.9170  145.2030 C   0  0  0  0  0  2  0  0  0  0  0  0
  189.5120  178.0960  145.5060 C   0  0  2  0  0  3  0  0  0  0  0  0
  189.0250  177.4620  146.7370 C   0  0  0  0  0  0  0  0  0  0  0  0
  188.3890  177.1250  145.4400 N   0  0  0  0  0  0  0  0  0  0  0  0
  188.2410  178.2290  147.6060 O   0  0  0  0  0  1  0  0  0  0  0  0
  189.7140  176.3830  147.2960 O   0  0  0  0  0  1  0  0  0  0  0  0
  191.6780  176.7360  145.8670 C   0  0  0  0  0  1  0  0  0  0  0  0
  190.8200  177.5330  144.8790 C   0  0  0  0  0  0  0  0  0  0  0  0
  191.6610  178.6960  144.3570 C   0  0  0  0  0  1  0  0  0  0  0  0
  190.4440  176.5870  143.7130 C   0  0  2  0  0  3  0  0  0  0  0  0
  191.3600  175.5360  143.5890 O   0  0  0  0  0  1  0  0  0  0  0  0
  190.2800  177.2810  142.3910 C   0  0  0  0  0  0  0  0  0  0  0  0
  189.4770  178.2440  142.2660 O   0  0  0  0  0  0  0  0  0  0  0  0
  191.0130  176.8240  141.2600 N   0  0  0  0  0  1  0  0  0  0  0  0
  1  4  1  1  0  0  0
  1 10  1  0  0  0  0
  4  3  2  0  0  0  0
  5  4  1  0  0  0  0
  6  7  1  0  0  0  0
  7 14  2  0  0  0  0
  8  6  1  0  0  0  0
  9 27  1  0  0  0  0
  9 14  1  0  0  0  0
 10  2  1  6  0  0  0
 10 13  1  0  0  0  0
 11  5  1  0  0  0  0
 12  3  1  6  0  0  0
 12 13  1  0  0  0  0
 12  8  1  0  0  0  0
 13 17  1  1  0  0  0
 15 11  1  0  0  0  0
 15 16  1  0  0  0  0
 16 22  1  6  0  0  0
 16  1  1  0  0  0  0
 17 18  1  0  0  0  0
 17  6  2  0  0  0  0
 18  9  2  0  0  0  0
 19 26  1  0  0  0  0
 21 26  1  0  0  0  0
 21 25  1  0  0  0  0
 23 22  2  0  0  0  0
 23 20  1  0  0  0  0
 24 21  2  0  0  0  0
 25 22  1  0  0  0  0
 26 23  1  0  0  0  0
 27 28  1  0  0  0  0
 28 31  1  0  0  0  0
 29 35  1  6  0  0  0
 29 30  1  0  0  0  0
 30 33  1  0  0  0  0
 30 32  1  0  0  0  0
 31 29  1  0  0  0  0
 31 30  1  0  0  0  0
 35 34  1  0  0  0  0
 36 35  1  0  0  0  0
 37 38  1  6  0  0  0
 37 35  1  0  0  0  0
 39 37  1  0  0  0  0
 40 39  2  0  0  0  0
 41 39  1  0  0  0  0
M  END
>  <MODEL>
9

>  <REMARK>
 VINA RESULT:      -8.0      2.867      5.711
  Name = 
  7 active torsions:
  status: ('A' for Active; 'I' for Inactive)
    1  A    between atoms: C_4  and  C_21
    2  A    between atoms: C_8  and  C_39
    3  A    between atoms: C_12  and  C_16
    4  A    between atoms: C_13  and  N_24
    5  A    between atoms: C_13  and  C_36
    6  A    between atoms: C_16  and  C_21
    7  A    between atoms: C_25  and  C_36
                            x       y       z     vdW  Elec       q    Type
                         _______ _______ _______ _____ _____    ______ ____

>  <TORSDO>
F 7

$$$$
