=
 OpenBabel11062416543D

 34 39  0  0  1  0  0  0  0  0999 V2000
  185.5500  178.5680  142.5980 C   0  0  2  0  0  3  0  0  0  0  0  0
  185.3410  178.7180  139.4550 O   0  0  0  0  0  0  0  0  0  0  0  0
  187.8740  177.7900  143.1650 C   0  0  0  0  0  3  0  0  0  0  0  0
  184.4680  178.1530  141.6300 C   0  0  0  0  0  2  0  0  0  0  0  0
  188.6950  177.7130  140.5600 C   0  0  0  0  0  0  0  0  0  0  0  0
  189.1870  177.4300  142.8340 C   0  0  0  0  0  3  0  0  0  0  0  0
  186.9290  178.1030  142.1650 C   0  0  0  0  0  0  0  0  0  0  0  0
  189.0110  177.7140  138.9220 S   0  0  0  0  0  0  0  0  0  0  0  0
  184.4810  179.1460  140.4950 C   0  0  2  0  0  3  0  0  0  0  0  0
  187.3780  178.0800  140.8150 C   0  0  0  0  0  0  0  0  0  0  0  0
  189.5780  177.3930  141.5340 N   0  0  0  0  0  0  0  0  0  0  0  0
  186.6830  178.3510  139.6030 C   0  0  0  0  0  0  0  0  0  0  0  0
  187.4630  178.1850  138.4550 C   0  0  0  0  0  3  0  0  0  0  0  0
  180.4950  180.5450  139.4260 C   0  0  1  0  0  3  0  0  0  0  0  0
  180.7010  180.0000  137.9860 C   0  0  0  0  0  0  0  0  0  0  0  0
  182.3310  178.5040  136.5940 C   0  0  0  0  0  2  0  0  0  0  0  0
  179.2230  181.3670  139.5790 C   0  0  0  0  0  1  0  0  0  0  0  0
  181.9650  179.1260  137.9350 C   0  0  1  0  0  3  0  0  0  0  0  0
  182.7920  176.3480  140.0200 C   0  0  0  0  0  2  0  0  0  0  0  0
  180.8550  181.1690  137.0220 C   0  0  0  0  0  1  0  0  0  0  0  0
  182.4100  176.9900  136.7500 C   0  0  0  0  0  2  0  0  0  0  0  0
  182.9070  175.6920  138.6490 C   0  0  0  0  0  2  0  0  0  0  0  0
  180.5710  179.4920  140.5520 C   0  0  0  0  0  2  0  0  0  0  0  0
  179.5000  179.1640  137.5600 C   0  0  0  0  0  1  0  0  0  0  0  0
  181.5800  177.2620  140.0520 C   0  0  0  0  0  2  0  0  0  0  0  0
  183.4700  176.6270  137.6830 N   0  0  0  0  0  2  0  0  0  0  0  0
  183.0770  179.7140  138.5630 O   0  0  0  0  0  0  0  0  0  0  0  0
  181.8700  178.6660  140.6060 C   0  0  1  0  0  3  0  0  0  0  0  0
  183.0750  179.4330  139.9600 C   0  0  1  0  0  3  0  0  0  0  0  0
  184.9430  180.6980  144.5200 C   0  0  0  0  0  1  0  0  0  0  0  0
  183.7180  178.4820  144.3210 C   0  0  0  0  0  2  0  0  0  0  0  0
  184.8570  179.2430  144.9520 C   0  0  1  0  0  0  0  0  0  0  0  0
  185.1620  178.0910  144.0030 C   0  0  2  0  0  3  0  0  0  0  0  0
  185.0060  178.9560  146.3070 O   0  0  0  0  0  1  0  0  0  0  0  0
  1  4  1  6  0  0  0
  1 33  1  0  0  0  0
  2 12  1  0  0  0  0
  2  9  1  0  0  0  0
  5 10  2  0  0  0  0
  5 11  1  0  0  0  0
  6  3  1  0  0  0  0
  7  1  1  0  0  0  0
  7  3  2  0  0  0  0
  8  5  1  0  0  0  0
  9  4  1  1  0  0  0
 10  7  1  0  0  0  0
 11  6  2  0  0  0  0
 12 10  1  0  0  0  0
 13  8  1  0  0  0  0
 13 12  2  0  0  0  0
 14 17  1  6  0  0  0
 14 23  1  0  0  0  0
 15 14  1  0  0  0  0
 16 21  1  0  0  0  0
 18 16  1  6  0  0  0
 18 15  1  0  0  0  0
 18 27  1  0  0  0  0
 19 25  1  0  0  0  0
 20 15  1  0  0  0  0
 21 26  1  0  0  0  0
 22 19  1  0  0  0  0
 23 28  1  0  0  0  0
 24 15  1  0  0  0  0
 26 22  1  0  0  0  0
 28 25  1  6  0  0  0
 29 27  1  6  0  0  0
 29  9  1  0  0  0  0
 29 28  1  0  0  0  0
 31 32  1  0  0  0  0
 32 30  1  6  0  0  0
 32 34  1  0  0  0  0
 33 31  1  6  0  0  0
 33 32  1  0  0  0  0
M  END
>  <MODEL>
1

>  <REMARK>
 VINA RESULT:      -7.4      0.000      0.000
  Name = 
  2 active torsions:
  status: ('A' for Active; 'I' for Inactive)
    1  A    between atoms: C_1  and  C_5
    2  A    between atoms: C_23  and  C_34
                            x       y       z     vdW  Elec       q    Type
                         _______ _______ _______ _____ _____    ______ ____

>  <TORSDO>
F 2

$$$$
=
 OpenBabel11062416543D

 34 39  0  0  1  0  0  0  0  0999 V2000
  186.6250  178.1430  139.6400 C   0  0  2  0  0  3  0  0  0  0  0  0
  184.8140  178.3840  142.2100 O   0  0  0  0  0  0  0  0  0  0  0  0
  188.9660  177.6310  140.4090 C   0  0  0  0  0  3  0  0  0  0  0  0
  185.5390  179.1160  140.0300 C   0  0  0  0  0  2  0  0  0  0  0  0
  188.2810  177.5180  143.0520 C   0  0  0  0  0  0  0  0  0  0  0  0
  189.9210  177.3280  141.3880 C   0  0  0  0  0  3  0  0  0  0  0  0
  187.6260  177.9080  140.7580 C   0  0  0  0  0  0  0  0  0  0  0  0
  187.6830  177.5030  144.6100 S   0  0  0  0  0  0  0  0  0  0  0  0
  184.5160  178.3460  140.8270 C   0  0  2  0  0  3  0  0  0  0  0  0
  187.2810  177.8230  142.1350 C   0  0  0  0  0  0  0  0  0  0  0  0
  189.5650  177.2790  142.6980 N   0  0  0  0  0  0  0  0  0  0  0  0
  186.0360  178.0330  142.7930 C   0  0  0  0  0  0  0  0  0  0  0  0
  186.1010  177.8930  144.1820 C   0  0  0  0  0  3  0  0  0  0  0  0
  180.5250  180.0910  140.7050 C   0  0  1  0  0  3  0  0  0  0  0  0
  180.6020  180.1340  139.1550 C   0  0  0  0  0  0  0  0  0  0  0  0
  182.0620  179.2640  137.1690 C   0  0  0  0  0  2  0  0  0  0  0  0
  179.3030  180.8060  141.2650 C   0  0  0  0  0  1  0  0  0  0  0  0
  181.8220  179.3320  138.6710 C   0  0  1  0  0  3  0  0  0  0  0  0
  182.6800  175.9600  139.4690 C   0  0  0  0  0  2  0  0  0  0  0  0
  180.7340  181.5800  138.6970 C   0  0  0  0  0  1  0  0  0  0  0  0
  182.0880  177.8050  136.7320 C   0  0  0  0  0  2  0  0  0  0  0  0
  182.6670  175.8750  137.9470 C   0  0  0  0  0  2  0  0  0  0  0  0
  180.6390  178.6860  141.3380 C   0  0  0  0  0  2  0  0  0  0  0  0
  179.3400  179.5370  138.5450 C   0  0  0  0  0  1  0  0  0  0  0  0
  181.5140  176.8060  139.9460 C   0  0  0  0  0  2  0  0  0  0  0  0
  183.1970  177.1020  137.3640 N   0  0  0  0  0  2  0  0  0  0  0  0
  183.0000  179.6230  139.3800 O   0  0  0  0  0  0  0  0  0  0  0  0
  181.9020  177.8880  140.9650 C   0  0  1  0  0  3  0  0  0  0  0  0
  183.0880  178.8310  140.5600 C   0  0  1  0  0  3  0  0  0  0  0  0
  187.0130  176.0790  137.5940 C   0  0  0  0  0  1  0  0  0  0  0  0
  186.3000  178.4790  137.1680 C   0  0  0  0  0  2  0  0  0  0  0  0
  187.4460  177.5100  137.3160 C   0  0  1  0  0  0  0  0  0  0  0  0
  187.2740  178.6270  138.3370 C   0  0  2  0  0  3  0  0  0  0  0  0
  188.4460  177.7160  136.3680 O   0  0  0  0  0  1  0  0  0  0  0  0
  1  4  1  1  0  0  0
  1  7  1  0  0  0  0
  2 12  1  0  0  0  0
  3  7  2  0  0  0  0
  3  6  1  0  0  0  0
  5  8  1  0  0  0  0
  6 11  2  0  0  0  0
  7 10  1  0  0  0  0
  9  4  1  6  0  0  0
  9  2  1  0  0  0  0
 10 12  1  0  0  0  0
 10  5  2  0  0  0  0
 11  5  1  0  0  0  0
 12 13  2  0  0  0  0
 13  8  1  0  0  0  0
 14 17  1  6  0  0  0
 14 23  1  0  0  0  0
 15 14  1  0  0  0  0
 18 16  1  6  0  0  0
 18 15  1  0  0  0  0
 18 27  1  0  0  0  0
 19 25  1  0  0  0  0
 20 15  1  0  0  0  0
 21 16  1  0  0  0  0
 21 26  1  0  0  0  0
 22 19  1  0  0  0  0
 24 15  1  0  0  0  0
 26 22  1  0  0  0  0
 28 25  1  6  0  0  0
 28 23  1  0  0  0  0
 29 27  1  6  0  0  0
 29  9  1  0  0  0  0
 29 28  1  0  0  0  0
 31 32  1  0  0  0  0
 32 30  1  1  0  0  0
 32 33  1  0  0  0  0
 33 31  1  6  0  0  0
 33  1  1  0  0  0  0
 34 32  1  0  0  0  0
M  END
>  <MODEL>
2

>  <REMARK>
 VINA RESULT:      -6.9      1.699      3.808
  Name = 
  2 active torsions:
  status: ('A' for Active; 'I' for Inactive)
    1  A    between atoms: C_1  and  C_5
    2  A    between atoms: C_23  and  C_34
                            x       y       z     vdW  Elec       q    Type
                         _______ _______ _______ _____ _____    ______ ____

>  <TORSDO>
F 2

$$$$
=
 OpenBabel11062416543D

 34 39  0  0  1  0  0  0  0  0999 V2000
  190.0380  177.2540  140.7830 C   0  0  2  0  0  3  0  0  0  0  0  0
  189.5280  176.5150  137.7600 O   0  0  0  0  0  0  0  0  0  0  0  0
  188.0120  178.4950  141.6100 C   0  0  0  0  0  3  0  0  0  0  0  0
  190.9230  177.3050  139.5610 C   0  0  0  0  0  2  0  0  0  0  0  0
  186.6530  178.2420  139.2530 C   0  0  0  0  0  0  0  0  0  0  0  0
  186.7140  179.0020  141.4700 C   0  0  0  0  0  3  0  0  0  0  0  0
  188.6660  177.8560  140.5350 C   0  0  0  0  0  0  0  0  0  0  0  0
  185.9860  178.0030  137.7430 S   0  0  0  0  0  0  0  0  0  0  0  0
  190.5360  176.1420  138.6810 C   0  0  2  0  0  3  0  0  0  0  0  0
  187.9380  177.7130  139.3220 C   0  0  0  0  0  0  0  0  0  0  0  0
  186.0530  178.8720  140.2900 N   0  0  0  0  0  0  0  0  0  0  0  0
  188.3080  177.1200  138.0820 C   0  0  0  0  0  0  0  0  0  0  0  0
  187.3220  177.2060  137.0970 C   0  0  0  0  0  3  0  0  0  0  0  0
  194.3530  174.6410  137.2120 C   0  0  1  0  0  3  0  0  0  0  0  0
  193.6110  173.4780  136.5000 C   0  0  0  0  0  0  0  0  0  0  0  0
  191.1980  172.6930  135.8690 C   0  0  0  0  0  2  0  0  0  0  0  0
  195.8690  174.4970  137.1730 C   0  0  0  0  0  1  0  0  0  0  0  0
  192.0950  173.7360  136.5230 C   0  0  1  0  0  3  0  0  0  0  0  0
  190.3540  176.6530  135.4240 C   0  0  0  0  0  2  0  0  0  0  0  0
  193.9120  172.1710  137.2210 C   0  0  0  0  0  1  0  0  0  0  0  0
  190.3620  173.3610  134.7840 C   0  0  0  0  0  2  0  0  0  0  0  0
  189.6410  175.5930  134.5940 C   0  0  0  0  0  2  0  0  0  0  0  0
  193.9560  176.0620  136.7560 C   0  0  0  0  0  2  0  0  0  0  0  0
  194.0740  173.3610  135.0530 C   0  0  0  0  0  1  0  0  0  0  0  0
  191.8440  176.3640  135.4570 C   0  0  0  0  0  2  0  0  0  0  0  0
  189.4800  174.3660  135.3640 N   0  0  0  0  0  2  0  0  0  0  0  0
  191.6130  174.1280  137.7840 O   0  0  0  0  0  0  0  0  0  0  0  0
  192.4580  176.4020  136.8650 C   0  0  1  0  0  3  0  0  0  0  0  0
  191.7420  175.5360  137.9590 C   0  0  1  0  0  3  0  0  0  0  0  0
  190.1930  175.6280  143.2180 C   0  0  0  0  0  1  0  0  0  0  0  0
  192.0420  177.1050  142.2970 C   0  0  0  0  0  2  0  0  0  0  0  0
  190.8300  177.0080  143.1880 C   0  0  1  0  0  0  0  0  0  0  0  0
  190.7830  177.9030  141.9560 C   0  0  2  0  0  3  0  0  0  0  0  0
  191.0040  177.6710  144.4020 O   0  0  0  0  0  1  0  0  0  0  0  0
  1  4  1  6  0  0  0
  1 33  1  0  0  0  0
  2 12  1  0  0  0  0
  2  9  1  0  0  0  0
  5 10  2  0  0  0  0
  5 11  1  0  0  0  0
  6  3  1  0  0  0  0
  7  1  1  0  0  0  0
  7  3  2  0  0  0  0
  8  5  1  0  0  0  0
  9  4  1  6  0  0  0
 10  7  1  0  0  0  0
 11  6  2  0  0  0  0
 12 10  1  0  0  0  0
 13  8  1  0  0  0  0
 13 12  2  0  0  0  0
 14 17  1  6  0  0  0
 15 18  1  0  0  0  0
 15 14  1  0  0  0  0
 15 20  1  0  0  0  0
 18 16  1  1  0  0  0
 18 27  1  0  0  0  0
 19 25  1  0  0  0  0
 21 26  1  0  0  0  0
 21 16  1  0  0  0  0
 22 26  1  0  0  0  0
 22 19  1  0  0  0  0
 23 28  1  0  0  0  0
 23 14  1  0  0  0  0
 24 15  1  0  0  0  0
 28 25  1  6  0  0  0
 28 29  1  0  0  0  0
 29 27  1  6  0  0  0
 29  9  1  0  0  0  0
 31 32  1  0  0  0  0
 32 30  1  6  0  0  0
 32 34  1  0  0  0  0
 33 31  1  6  0  0  0
 33 32  1  0  0  0  0
M  END
>  <MODEL>
3

>  <REMARK>
 VINA RESULT:      -6.4      5.126      9.259
  Name = 
  2 active torsions:
  status: ('A' for Active; 'I' for Inactive)
    1  A    between atoms: C_1  and  C_5
    2  A    between atoms: C_23  and  C_34
                            x       y       z     vdW  Elec       q    Type
                         _______ _______ _______ _____ _____    ______ ____

>  <TORSDO>
F 2

$$$$
=
 OpenBabel11062416543D

 34 39  0  0  1  0  0  0  0  0999 V2000
  186.4280  178.2530  138.8710 C   0  0  2  0  0  3  0  0  0  0  0  0
  183.8480  178.8250  140.5920 O   0  0  0  0  0  0  0  0  0  0  0  0
  188.3400  177.9020  140.4680 C   0  0  0  0  0  3  0  0  0  0  0  0
  185.3050  179.2500  138.7190 C   0  0  0  0  0  2  0  0  0  0  0  0
  186.7810  178.1560  142.6970 C   0  0  0  0  0  0  0  0  0  0  0  0
  188.8880  177.7610  141.7490 C   0  0  0  0  0  3  0  0  0  0  0  0
  186.9720  178.2000  140.2880 C   0  0  0  0  0  0  0  0  0  0  0  0
  185.6810  178.3520  143.9360 S   0  0  0  0  0  0  0  0  0  0  0  0
  184.0460  178.5830  139.2110 C   0  0  2  0  0  3  0  0  0  0  0  0
  186.1700  178.3070  141.4570 C   0  0  0  0  0  0  0  0  0  0  0  0
  188.1000  177.8940  142.8480 N   0  0  0  0  0  0  0  0  0  0  0  0
  184.7820  178.5840  141.6060 C   0  0  0  0  0  0  0  0  0  0  0  0
  184.3570  178.6460  142.9360 C   0  0  0  0  0  3  0  0  0  0  0  0
  180.8340  180.4380  136.9260 C   0  0  1  0  0  3  0  0  0  0  0  0
  180.6470  179.1160  136.1340 C   0  0  0  0  0  0  0  0  0  0  0  0
  181.3950  176.6110  136.1580 C   0  0  0  0  0  2  0  0  0  0  0  0
  180.0100  181.5920  136.3690 C   0  0  0  0  0  1  0  0  0  0  0  0
  181.4540  177.9900  136.8010 C   0  0  1  0  0  3  0  0  0  0  0  0
  181.3540  176.9540  140.2160 C   0  0  0  0  0  2  0  0  0  0  0  0
  181.1370  179.3110  134.7050 C   0  0  0  0  0  1  0  0  0  0  0  0
  180.8910  175.6020  137.1820 C   0  0  0  0  0  2  0  0  0  0  0  0
  181.0490  175.6280  139.5300 C   0  0  0  0  0  2  0  0  0  0  0  0
  180.6170  180.3360  138.4510 C   0  0  0  0  0  2  0  0  0  0  0  0
  179.1750  178.7220  136.1010 C   0  0  0  0  0  1  0  0  0  0  0  0
  180.6100  178.0770  139.5180 C   0  0  0  0  0  2  0  0  0  0  0  0
  181.8210  175.5010  138.3000 N   0  0  0  0  0  2  0  0  0  0  0  0
  182.7700  178.3620  137.1260 O   0  0  0  0  0  0  0  0  0  0  0  0
  181.4850  179.2930  139.1790 C   0  0  1  0  0  3  0  0  0  0  0  0
  182.8150  178.9970  138.4010 C   0  0  1  0  0  3  0  0  0  0  0  0
  187.3860  175.9340  137.3530 C   0  0  0  0  0  1  0  0  0  0  0  0
  186.9760  178.2590  136.4150 C   0  0  0  0  0  2  0  0  0  0  0  0
  187.9550  177.3150  137.0650 C   0  0  1  0  0  0  0  0  0  0  0  0
  187.5020  178.5580  137.8190 C   0  0  2  0  0  3  0  0  0  0  0  0
  189.2260  177.3890  136.4990 O   0  0  0  0  0  1  0  0  0  0  0  0
  1  4  1  1  0  0  0
  1  7  1  0  0  0  0
  2 12  1  0  0  0  0
  3  6  1  0  0  0  0
  5 11  1  0  0  0  0
  5  8  1  0  0  0  0
  6 11  2  0  0  0  0
  7  3  2  0  0  0  0
  7 10  1  0  0  0  0
  9  4  1  6  0  0  0
  9  2  1  0  0  0  0
 10 12  1  0  0  0  0
 10  5  2  0  0  0  0
 12 13  2  0  0  0  0
 13  8  1  0  0  0  0
 14 17  1  6  0  0  0
 14 23  1  0  0  0  0
 15 18  1  0  0  0  0
 15 14  1  0  0  0  0
 16 21  1  0  0  0  0
 18 16  1  6  0  0  0
 18 27  1  0  0  0  0
 20 15  1  0  0  0  0
 21 26  1  0  0  0  0
 22 19  1  0  0  0  0
 24 15  1  0  0  0  0
 25 19  1  0  0  0  0
 26 22  1  0  0  0  0
 28 23  1  6  0  0  0
 28 25  1  0  0  0  0
 29 27  1  6  0  0  0
 29 28  1  0  0  0  0
 29  9  1  0  0  0  0
 31 32  1  0  0  0  0
 32 30  1  1  0  0  0
 32 33  1  0  0  0  0
 33 31  1  6  0  0  0
 33  1  1  0  0  0  0
 34 32  1  0  0  0  0
M  END
>  <MODEL>
4

>  <REMARK>
 VINA RESULT:      -6.4      2.014      4.177
  Name = 
  2 active torsions:
  status: ('A' for Active; 'I' for Inactive)
    1  A    between atoms: C_1  and  C_5
    2  A    between atoms: C_23  and  C_34
                            x       y       z     vdW  Elec       q    Type
                         _______ _______ _______ _____ _____    ______ ____

>  <TORSDO>
F 2

$$$$
=
 OpenBabel11062416543D

 34 39  0  0  1  0  0  0  0  0999 V2000
  186.8780  177.4630  137.7060 C   0  0  2  0  0  3  0  0  0  0  0  0
  185.5140  178.7690  140.2310 O   0  0  0  0  0  0  0  0  0  0  0  0
  189.2520  176.9080  138.3310 C   0  0  0  0  0  3  0  0  0  0  0  0
  185.9600  178.6500  137.8640 C   0  0  0  0  0  2  0  0  0  0  0  0
  188.9740  177.7500  140.9150 C   0  0  0  0  0  0  0  0  0  0  0  0
  190.3140  176.8080  139.2380 C   0  0  0  0  0  3  0  0  0  0  0  0
  188.0130  177.4650  138.7150 C   0  0  0  0  0  0  0  0  0  0  0  0
  188.6240  178.3210  142.4430 S   0  0  0  0  0  0  0  0  0  0  0  0
  185.0040  178.3280  138.9860 C   0  0  2  0  0  3  0  0  0  0  0  0
  187.8770  177.8780  140.0690 C   0  0  0  0  0  0  0  0  0  0  0  0
  190.1610  177.2340  140.5190 N   0  0  0  0  0  0  0  0  0  0  0  0
  186.7740  178.4590  140.7550 C   0  0  0  0  0  0  0  0  0  0  0  0
  187.0380  178.7670  142.0920 C   0  0  0  0  0  3  0  0  0  0  0  0
  181.3050  180.5780  138.5010 C   0  0  1  0  0  3  0  0  0  0  0  0
  180.9190  179.6670  137.3050 C   0  0  0  0  0  0  0  0  0  0  0  0
  181.6500  177.4560  136.1170 C   0  0  0  0  0  2  0  0  0  0  0  0
  180.3640  181.7610  138.6820 C   0  0  0  0  0  1  0  0  0  0  0  0
  181.8740  178.4630  137.2370 C   0  0  1  0  0  3  0  0  0  0  0  0
  182.6710  176.1520  139.8380 C   0  0  0  0  0  2  0  0  0  0  0  0
  181.0190  180.4650  136.0120 C   0  0  0  0  0  1  0  0  0  0  0  0
  181.4330  176.0750  136.7230 C   0  0  0  0  0  2  0  0  0  0  0  0
  182.1980  175.1840  138.7610 C   0  0  0  0  0  2  0  0  0  0  0  0
  181.4940  179.8550  139.8530 C   0  0  0  0  0  2  0  0  0  0  0  0
  179.4910  179.1610  137.4630 C   0  0  0  0  0  1  0  0  0  0  0  0
  181.7680  177.3720  139.8640 C   0  0  0  0  0  2  0  0  0  0  0  0
  182.6220  175.6400  137.4440 N   0  0  0  0  0  2  0  0  0  0  0  0
  183.2290  178.8160  137.3640 O   0  0  0  0  0  0  0  0  0  0  0  0
  182.5240  178.7100  139.8580 C   0  0  1  0  0  3  0  0  0  0  0  0
  183.6040  178.8930  138.7360 C   0  0  1  0  0  3  0  0  0  0  0  0
  186.8580  174.7970  136.4840 C   0  0  0  0  0  1  0  0  0  0  0  0
  186.2240  176.9670  135.3270 C   0  0  0  0  0  2  0  0  0  0  0  0
  187.3250  175.9970  135.6750 C   0  0  1  0  0  0  0  0  0  0  0  0
  187.3610  177.4060  136.2510 C   0  0  2  0  0  3  0  0  0  0  0  0
  188.1900  175.7640  134.6070 O   0  0  0  0  0  1  0  0  0  0  0  0
  1  4  1  6  0  0  0
  1  7  1  0  0  0  0
  2 12  1  0  0  0  0
  3  7  2  0  0  0  0
  3  6  1  0  0  0  0
  5  8  1  0  0  0  0
  6 11  2  0  0  0  0
  7 10  1  0  0  0  0
  9  4  1  6  0  0  0
  9  2  1  0  0  0  0
 10 12  1  0  0  0  0
 10  5  2  0  0  0  0
 11  5  1  0  0  0  0
 12 13  2  0  0  0  0
 13  8  1  0  0  0  0
 14 17  1  1  0  0  0
 14 23  1  0  0  0  0
 15 24  1  0  0  0  0
 15 14  1  0  0  0  0
 16 21  1  0  0  0  0
 18 16  1  6  0  0  0
 18 15  1  0  0  0  0
 18 27  1  0  0  0  0
 19 25  1  0  0  0  0
 20 15  1  0  0  0  0
 21 26  1  0  0  0  0
 22 19  1  0  0  0  0
 26 22  1  0  0  0  0
 28 23  1  6  0  0  0
 28 25  1  0  0  0  0
 29 27  1  6  0  0  0
 29  9  1  0  0  0  0
 29 28  1  0  0  0  0
 31 32  1  0  0  0  0
 32 33  1  0  0  0  0
 32 30  1  1  0  0  0
 33 31  1  6  0  0  0
 33  1  1  0  0  0  0
 34 32  1  0  0  0  0
M  END
>  <MODEL>
5

>  <REMARK>
 VINA RESULT:      -6.3      2.043      4.439
  Name = 
  2 active torsions:
  status: ('A' for Active; 'I' for Inactive)
    1  A    between atoms: C_1  and  C_5
    2  A    between atoms: C_23  and  C_34
                            x       y       z     vdW  Elec       q    Type
                         _______ _______ _______ _____ _____    ______ ____

>  <TORSDO>
F 2

$$$$
=
 OpenBabel11062416543D

 34 39  0  0  1  0  0  0  0  0999 V2000
  188.5220  177.6630  140.7980 C   0  0  2  0  0  3  0  0  0  0  0  0
  187.4090  177.2970  137.8700 O   0  0  0  0  0  0  0  0  0  0  0  0
  186.7420  178.8280  142.1430 C   0  0  0  0  0  3  0  0  0  0  0  0
  189.1550  177.8460  139.4400 C   0  0  0  0  0  2  0  0  0  0  0  0
  184.9450  178.8790  140.0850 C   0  0  0  0  0  0  0  0  0  0  0  0
  185.4620  179.3690  142.3180 C   0  0  0  0  0  3  0  0  0  0  0  0
  187.1520  178.3120  140.8940 C   0  0  0  0  0  0  0  0  0  0  0  0
  183.9900  178.8310  138.7180 S   0  0  0  0  0  0  0  0  0  0  0  0
  188.5610  176.8020  138.5270 C   0  0  2  0  0  3  0  0  0  0  0  0
  186.1980  178.3250  139.8400 C   0  0  0  0  0  0  0  0  0  0  0  0
  184.5820  179.3900  141.2840 N   0  0  0  0  0  0  0  0  0  0  0  0
  186.2990  177.8780  138.4920 C   0  0  0  0  0  0  0  0  0  0  0  0
  185.1440  178.0960  137.7360 C   0  0  0  0  0  3  0  0  0  0  0  0
  191.8920  175.8280  135.8920 C   0  0  1  0  0  3  0  0  0  0  0  0
  191.5130  174.3250  135.9850 C   0  0  0  0  0  0  0  0  0  0  0  0
  189.6020  172.7610  136.8430 C   0  0  0  0  0  2  0  0  0  0  0  0
  193.2110  176.0700  135.1720 C   0  0  0  0  0  1  0  0  0  0  0  0
  190.1400  174.1740  136.6610 C   0  0  1  0  0  3  0  0  0  0  0  0
  187.0730  175.7670  135.7660 C   0  0  0  0  0  2  0  0  0  0  0  0
  192.5640  173.5910  136.8070 C   0  0  0  0  0  1  0  0  0  0  0  0
  188.2460  172.6500  136.1570 C   0  0  0  0  0  2  0  0  0  0  0  0
  186.6360  174.3090  135.7190 C   0  0  0  0  0  2  0  0  0  0  0  0
  190.8030  176.7530  135.3050 C   0  0  0  0  0  2  0  0  0  0  0  0
  191.4540  173.7070  134.5940 C   0  0  0  0  0  1  0  0  0  0  0  0
  188.4570  175.9090  135.1580 C   0  0  0  0  0  2  0  0  0  0  0  0
  187.2820  173.5480  136.7800 N   0  0  0  0  0  2  0  0  0  0  0  0
  190.0050  174.9430  137.8300 O   0  0  0  0  0  0  0  0  0  0  0  0
  189.4400  176.7150  136.0210 C   0  0  1  0  0  3  0  0  0  0  0  0
  189.5800  176.2670  137.5170 C   0  0  1  0  0  3  0  0  0  0  0  0
  188.6800  176.0030  143.2100 C   0  0  0  0  0  1  0  0  0  0  0  0
  190.6350  177.1470  142.0610 C   0  0  0  0  0  2  0  0  0  0  0  0
  189.5410  177.2510  143.0920 C   0  0  1  0  0  0  0  0  0  0  0  0
  189.5030  178.1560  141.8680 C   0  0  2  0  0  3  0  0  0  0  0  0
  189.9720  177.8570  144.2710 O   0  0  0  0  0  1  0  0  0  0  0  0
  1  4  1  6  0  0  0
  1  7  1  0  0  0  0
  1 33  1  0  0  0  0
  2 12  1  0  0  0  0
  2  9  1  0  0  0  0
  3  6  1  0  0  0  0
  5 11  1  0  0  0  0
  7  3  2  0  0  0  0
  8  5  1  0  0  0  0
  9  4  1  6  0  0  0
 10  5  2  0  0  0  0
 10  7  1  0  0  0  0
 11  6  2  0  0  0  0
 12 10  1  0  0  0  0
 13 12  2  0  0  0  0
 13  8  1  0  0  0  0
 14 17  1  6  0  0  0
 14 15  1  0  0  0  0
 15 18  1  0  0  0  0
 15 20  1  0  0  0  0
 18 16  1  1  0  0  0
 18 27  1  0  0  0  0
 21 26  1  0  0  0  0
 21 16  1  0  0  0  0
 22 19  1  0  0  0  0
 22 26  1  0  0  0  0
 23 14  1  0  0  0  0
 23 28  1  0  0  0  0
 24 15  1  0  0  0  0
 25 19  1  0  0  0  0
 28 25  1  6  0  0  0
 28 29  1  0  0  0  0
 29 27  1  6  0  0  0
 29  9  1  0  0  0  0
 31 32  1  0  0  0  0
 32 30  1  1  0  0  0
 32 34  1  0  0  0  0
 33 31  1  6  0  0  0
 33 32  1  0  0  0  0
M  END
>  <MODEL>
6

>  <REMARK>
 VINA RESULT:      -6.3      4.143      7.734
  Name = 
  2 active torsions:
  status: ('A' for Active; 'I' for Inactive)
    1  A    between atoms: C_1  and  C_5
    2  A    between atoms: C_23  and  C_34
                            x       y       z     vdW  Elec       q    Type
                         _______ _______ _______ _____ _____    ______ ____

>  <TORSDO>
F 2

$$$$
=
 OpenBabel11062416543D

 34 39  0  0  1  0  0  0  0  0999 V2000
  182.1160  179.0160  142.7550 C   0  0  2  0  0  3  0  0  0  0  0  0
  183.8070  178.8670  140.0970 O   0  0  0  0  0  0  0  0  0  0  0  0
  183.7050  178.7010  144.6810 C   0  0  0  0  0  3  0  0  0  0  0  0
  181.8660  178.3420  141.4280 C   0  0  0  0  0  2  0  0  0  0  0  0
  185.9180  178.5520  143.0850 C   0  0  0  0  0  0  0  0  0  0  0  0
  184.9820  178.5480  145.2340 C   0  0  0  0  0  3  0  0  0  0  0  0
  183.5170  178.7630  143.2830 C   0  0  0  0  0  0  0  0  0  0  0  0
  187.1460  178.4720  141.9570 S   0  0  0  0  0  0  0  0  0  0  0  0
  182.4620  179.2240  140.3600 C   0  0  2  0  0  3  0  0  0  0  0  0
  184.6810  178.7060  142.4670 C   0  0  0  0  0  0  0  0  0  0  0  0
  186.0720  178.4720  144.4270 N   0  0  0  0  0  0  0  0  0  0  0  0
  184.8230  178.7510  141.0510 C   0  0  0  0  0  0  0  0  0  0  0  0
  186.1440  178.6280  140.6120 C   0  0  0  0  0  3  0  0  0  0  0  0
  179.9490  179.9100  136.8670 C   0  0  1  0  0  3  0  0  0  0  0  0
  180.8240  178.9170  136.0550 C   0  0  0  0  0  0  0  0  0  0  0  0
  182.7150  177.1420  136.3800 C   0  0  0  0  0  2  0  0  0  0  0  0
  178.9310  180.6510  136.0110 C   0  0  0  0  0  1  0  0  0  0  0  0
  181.7720  178.1630  137.0020 C   0  0  1  0  0  3  0  0  0  0  0  0
  180.9230  176.3310  139.9470 C   0  0  0  0  0  2  0  0  0  0  0  0
  181.6430  179.6900  135.0300 C   0  0  0  0  0  1  0  0  0  0  0  0
  182.4780  175.7830  137.0270 C   0  0  0  0  0  2  0  0  0  0  0  0
  181.6700  175.2530  139.1720 C   0  0  0  0  0  2  0  0  0  0  0  0
  179.2480  179.3170  138.1090 C   0  0  0  0  0  2  0  0  0  0  0  0
  179.9440  177.9100  135.3250 C   0  0  0  0  0  1  0  0  0  0  0  0
  180.0350  177.1210  139.0030 C   0  0  0  0  0  2  0  0  0  0  0  0
  182.7950  175.8310  138.4480 N   0  0  0  0  0  2  0  0  0  0  0  0
  182.4340  179.0010  137.9160 O   0  0  0  0  0  0  0  0  0  0  0  0
  180.1740  178.6450  139.1390 C   0  0  1  0  0  3  0  0  0  0  0  0
  181.6320  179.2190  139.0730 C   0  0  1  0  0  3  0  0  0  0  0  0
  179.6270  180.5550  142.5700 C   0  0  0  0  0  1  0  0  0  0  0  0
  179.8020  178.0540  142.9760 C   0  0  0  0  0  2  0  0  0  0  0  0
  179.7480  179.4320  143.5880 C   0  0  1  0  0  0  0  0  0  0  0  0
  181.0130  178.5970  143.7350 C   0  0  2  0  0  3  0  0  0  0  0  0
  178.9320  179.4850  144.7160 O   0  0  0  0  0  1  0  0  0  0  0  0
  1  4  1  6  0  0  0
  1  7  1  0  0  0  0
  1 33  1  0  0  0  0
  2  9  1  0  0  0  0
  2 12  1  0  0  0  0
  3  6  1  0  0  0  0
  5 11  1  0  0  0  0
  7  3  2  0  0  0  0
  8  5  1  0  0  0  0
  9  4  1  1  0  0  0
 10  5  2  0  0  0  0
 10  7  1  0  0  0  0
 11  6  2  0  0  0  0
 12 10  1  0  0  0  0
 13 12  2  0  0  0  0
 13  8  1  0  0  0  0
 14 17  1  6  0  0  0
 14 23  1  0  0  0  0
 15 14  1  0  0  0  0
 15 18  1  0  0  0  0
 16 21  1  0  0  0  0
 18 16  1  6  0  0  0
 18 27  1  0  0  0  0
 20 15  1  0  0  0  0
 21 26  1  0  0  0  0
 22 19  1  0  0  0  0
 24 15  1  0  0  0  0
 25 28  1  0  0  0  0
 25 19  1  0  0  0  0
 26 22  1  0  0  0  0
 28 23  1  6  0  0  0
 29 27  1  6  0  0  0
 29 28  1  0  0  0  0
 29  9  1  0  0  0  0
 31 32  1  0  0  0  0
 32 30  1  6  0  0  0
 32 33  1  0  0  0  0
 32 34  1  0  0  0  0
 33 31  1  6  0  0  0
M  END
>  <MODEL>
7

>  <REMARK>
 VINA RESULT:      -6.1      2.155      3.271
  Name = 
  2 active torsions:
  status: ('A' for Active; 'I' for Inactive)
    1  A    between atoms: C_1  and  C_5
    2  A    between atoms: C_23  and  C_34
                            x       y       z     vdW  Elec       q    Type
                         _______ _______ _______ _____ _____    ______ ____

>  <TORSDO>
F 2

$$$$
=
 OpenBabel11062416543D

 34 39  0  0  1  0  0  0  0  0999 V2000
  188.0280  177.8970  141.4710 C   0  0  2  0  0  3  0  0  0  0  0  0
  186.9660  177.4120  138.5410 O   0  0  0  0  0  0  0  0  0  0  0  0
  186.2090  179.0770  142.7490 C   0  0  0  0  0  3  0  0  0  0  0  0
  188.6790  178.0440  140.1170 C   0  0  0  0  0  2  0  0  0  0  0  0
  184.4430  179.0260  140.6640 C   0  0  0  0  0  0  0  0  0  0  0  0
  184.9180  179.6010  142.8870 C   0  0  0  0  0  3  0  0  0  0  0  0
  186.6460  178.5250  141.5250 C   0  0  0  0  0  0  0  0  0  0  0  0
  183.5090  178.9150  139.2860 S   0  0  0  0  0  0  0  0  0  0  0  0
  188.1170  176.9600  139.2320 C   0  0  2  0  0  3  0  0  0  0  0  0
  185.7080  178.4860  140.4570 C   0  0  0  0  0  0  0  0  0  0  0  0
  184.0530  179.5710  141.8400 N   0  0  0  0  0  0  0  0  0  0  0  0
  185.8370  177.9950  139.1270 C   0  0  0  0  0  0  0  0  0  0  0  0
  184.6910  178.1670  138.3470 C   0  0  0  0  0  3  0  0  0  0  0  0
  191.4970  175.2760  137.0580 C   0  0  1  0  0  3  0  0  0  0  0  0
  190.5160  174.6850  136.0100 C   0  0  0  0  0  0  0  0  0  0  0  0
  188.0050  174.7960  135.2890 C   0  0  0  0  0  2  0  0  0  0  0  0
  192.9320  174.8040  136.8690 C   0  0  0  0  0  1  0  0  0  0  0  0
  189.1080  175.2660  136.2280 C   0  0  1  0  0  3  0  0  0  0  0  0
  188.1650  178.7030  136.4280 C   0  0  0  0  0  2  0  0  0  0  0  0
  190.4670  173.1710  136.1630 C   0  0  0  0  0  1  0  0  0  0  0  0
  187.3910  176.0040  134.5940 C   0  0  0  0  0  2  0  0  0  0  0  0
  187.2410  178.2410  135.3080 C   0  0  0  0  0  2  0  0  0  0  0  0
  191.4720  176.8140  137.1990 C   0  0  0  0  0  2  0  0  0  0  0  0
  190.9810  175.0230  134.5990 C   0  0  0  0  0  1  0  0  0  0  0  0
  189.5380  178.0800  136.2520 C   0  0  0  0  0  2  0  0  0  0  0  0
  186.7630  176.8890  135.5670 N   0  0  0  0  0  2  0  0  0  0  0  0
  188.6980  175.2480  137.5720 O   0  0  0  0  0  0  0  0  0  0  0  0
  190.0990  177.4310  137.5260 C   0  0  1  0  0  3  0  0  0  0  0  0
  189.1600  176.4080  138.2570 C   0  0  1  0  0  3  0  0  0  0  0  0
  188.1450  176.3470  143.9580 C   0  0  0  0  0  1  0  0  0  0  0  0
  190.1180  177.4510  142.7990 C   0  0  0  0  0  2  0  0  0  0  0  0
  189.0010  177.5950  143.8020 C   0  0  1  0  0  0  0  0  0  0  0  0
  188.9850  178.4440  142.5380 C   0  0  2  0  0  3  0  0  0  0  0  0
  189.4050  178.2550  144.9610 O   0  0  0  0  0  1  0  0  0  0  0  0
  1  4  1  6  0  0  0
  1  7  1  0  0  0  0
  1 33  1  0  0  0  0
  2 12  1  0  0  0  0
  2  9  1  0  0  0  0
  3  6  1  0  0  0  0
  5 11  1  0  0  0  0
  7  3  2  0  0  0  0
  8  5  1  0  0  0  0
  9  4  1  6  0  0  0
 10  5  2  0  0  0  0
 10  7  1  0  0  0  0
 11  6  2  0  0  0  0
 12 10  1  0  0  0  0
 13 12  2  0  0  0  0
 13  8  1  0  0  0  0
 14 17  1  6  0  0  0
 14 23  1  0  0  0  0
 15 20  1  0  0  0  0
 15 18  1  0  0  0  0
 15 14  1  0  0  0  0
 18 16  1  6  0  0  0
 18 27  1  0  0  0  0
 21 16  1  0  0  0  0
 21 26  1  0  0  0  0
 22 26  1  0  0  0  0
 22 19  1  0  0  0  0
 23 28  1  0  0  0  0
 24 15  1  0  0  0  0
 25 19  1  0  0  0  0
 28 25  1  6  0  0  0
 28 29  1  0  0  0  0
 29 27  1  6  0  0  0
 29  9  1  0  0  0  0
 31 32  1  0  0  0  0
 32 30  1  1  0  0  0
 32 34  1  0  0  0  0
 33 31  1  6  0  0  0
 33 32  1  0  0  0  0
M  END
>  <MODEL>
8

>  <REMARK>
 VINA RESULT:      -5.6      3.573      7.259
  Name = 
  2 active torsions:
  status: ('A' for Active; 'I' for Inactive)
    1  A    between atoms: C_1  and  C_5
    2  A    between atoms: C_23  and  C_34
                            x       y       z     vdW  Elec       q    Type
                         _______ _______ _______ _____ _____    ______ ____

>  <TORSDO>
F 2

$$$$
=
 OpenBabel11062416543D

 34 39  0  0  1  0  0  0  0  0999 V2000
  189.2050  177.1990  143.6300 C   0  0  2  0  0  3  0  0  0  0  0  0
  187.8180  177.5030  140.8140 O   0  0  0  0  0  0  0  0  0  0  0  0
  187.5600  177.9690  145.3700 C   0  0  0  0  0  3  0  0  0  0  0  0
  189.7050  177.7120  142.3010 C   0  0  0  0  0  2  0  0  0  0  0  0
  185.5730  178.4560  143.5580 C   0  0  0  0  0  0  0  0  0  0  0  0
  186.3010  178.4200  145.7860 C   0  0  0  0  0  3  0  0  0  0  0  0
  187.8490  177.7710  144.0030 C   0  0  0  0  0  0  0  0  0  0  0  0
  184.4910  178.7060  142.3130 S   0  0  0  0  0  0  0  0  0  0  0  0
  189.0300  176.8970  141.2260 C   0  0  2  0  0  3  0  0  0  0  0  0
  186.7980  178.0080  143.0740 C   0  0  0  0  0  0  0  0  0  0  0  0
  185.3250  178.6610  144.8730 N   0  0  0  0  0  0  0  0  0  0  0  0
  186.7710  177.8930  141.6560 C   0  0  0  0  0  0  0  0  0  0  0  0
  185.5490  178.2530  141.0820 C   0  0  0  0  0  3  0  0  0  0  0  0
  192.1610  176.0200  138.3260 C   0  0  1  0  0  3  0  0  0  0  0  0
  191.0890  175.4670  137.3500 C   0  0  0  0  0  0  0  0  0  0  0  0
  188.4960  175.3490  137.0350 C   0  0  0  0  0  2  0  0  0  0  0  0
  193.5870  175.7760  137.8510 C   0  0  0  0  0  1  0  0  0  0  0  0
  189.6830  175.8160  137.8670 C   0  0  1  0  0  3  0  0  0  0  0  0
  188.4220  179.0300  138.7790 C   0  0  0  0  0  2  0  0  0  0  0  0
  191.2300  173.9540  137.2510 C   0  0  0  0  0  1  0  0  0  0  0  0
  187.6480  176.5550  136.6510 C   0  0  0  0  0  2  0  0  0  0  0  0
  187.3800  178.6210  137.7450 C   0  0  0  0  0  2  0  0  0  0  0  0
  191.9950  177.5030  138.7260 C   0  0  0  0  0  2  0  0  0  0  0  0
  191.2730  176.0700  135.9630 C   0  0  0  0  0  1  0  0  0  0  0  0
  189.8050  178.6270  138.3000 C   0  0  0  0  0  2  0  0  0  0  0  0
  187.1000  177.1940  137.8410 N   0  0  0  0  0  2  0  0  0  0  0  0
  189.5070  175.5440  139.2340 O   0  0  0  0  0  0  0  0  0  0  0  0
  190.6380  177.8760  139.3510 C   0  0  1  0  0  3  0  0  0  0  0  0
  189.9490  176.6400  140.0290 C   0  0  1  0  0  3  0  0  0  0  0  0
  191.3420  175.1940  143.7430 C   0  0  0  0  0  1  0  0  0  0  0  0
  191.6390  177.7000  144.0280 C   0  0  0  0  0  2  0  0  0  0  0  0
  191.3640  176.3780  144.6970 C   0  0  1  0  0  0  0  0  0  0  0  0
  190.2840  177.4510  144.6910 C   0  0  2  0  0  3  0  0  0  0  0  0
  192.0560  176.2330  145.8990 O   0  0  0  0  0  1  0  0  0  0  0  0
  1  4  1  6  0  0  0
  1  7  1  0  0  0  0
  1 33  1  0  0  0  0
  2  9  1  0  0  0  0
  2 12  1  0  0  0  0
  3  6  1  0  0  0  0
  5 11  1  0  0  0  0
  7  3  2  0  0  0  0
  8  5  1  0  0  0  0
  9  4  1  1  0  0  0
 10  5  2  0  0  0  0
 10  7  1  0  0  0  0
 11  6  2  0  0  0  0
 12 10  1  0  0  0  0
 13 12  2  0  0  0  0
 13  8  1  0  0  0  0
 14 17  1  6  0  0  0
 14 23  1  0  0  0  0
 15 18  1  0  0  0  0
 15 14  1  0  0  0  0
 18 16  1  6  0  0  0
 18 27  1  0  0  0  0
 20 15  1  0  0  0  0
 21 16  1  0  0  0  0
 21 26  1  0  0  0  0
 22 26  1  0  0  0  0
 22 19  1  0  0  0  0
 23 28  1  0  0  0  0
 24 15  1  0  0  0  0
 25 19  1  0  0  0  0
 28 25  1  6  0  0  0
 28 29  1  0  0  0  0
 29 27  1  6  0  0  0
 29  9  1  0  0  0  0
 31 32  1  0  0  0  0
 32 30  1  6  0  0  0
 32 34  1  0  0  0  0
 33 31  1  6  0  0  0
 33 32  1  0  0  0  0
M  END
>  <MODEL>
9

>  <REMARK>
 VINA RESULT:      -5.4      4.097      7.578
  Name = 
  2 active torsions:
  status: ('A' for Active; 'I' for Inactive)
    1  A    between atoms: C_1  and  C_5
    2  A    between atoms: C_23  and  C_34
                            x       y       z     vdW  Elec       q    Type
                         _______ _______ _______ _____ _____    ______ ____

>  <TORSDO>
F 2

$$$$
