=
 OpenBabel11062414443D

 27 29  0  0  1  0  0  0  0  0999 V2000
  183.7890  177.6590  138.7850 C   0  0  0  0  0  0  0  0  0  0  0  0
  180.0000  180.2300  138.6950 C   0  0  0  0  0  2  0  0  0  0  0  0
  181.8580  178.5340  136.7830 O   0  0  0  0  0  1  0  0  0  0  0  0
  181.3300  179.4810  138.9480 C   0  0  2  0  0  3  0  0  0  0  0  0
  187.6840  178.6790  140.7160 N   0  0  0  0  0  1  0  0  0  0  0  0
  182.3990  177.1380  138.6620 C   0  0  2  0  0  3  0  0  0  0  0  0
  186.6630  178.5560  138.5020 N   0  0  0  0  0  0  0  0  0  0  0  0
  186.4980  178.5960  139.9270 C   0  0  0  0  0  0  0  0  0  0  0  0
  184.0010  178.7140  139.8110 C   0  0  2  0  0  3  0  0  0  0  0  0
  182.5560  180.4060  138.8500 C   0  0  0  0  0  0  0  0  0  0  0  0
  185.8850  178.0780  137.5750 C   0  0  0  0  0  3  0  0  0  0  0  0
  183.7340  180.0310  139.2580 N   0  0  0  0  0  0  0  0  0  0  0  0
  181.1640  182.2660  137.9990 C   0  0  0  0  0  2  0  0  0  0  0  0
  184.6040  177.4740  137.7930 N   0  0  0  0  0  0  0  0  0  0  0  0
  181.4320  178.1890  138.0690 C   0  0  2  0  0  0  0  0  0  0  0  0
  181.9480  176.6750  139.9020 O   0  0  0  0  0  1  0  0  0  0  0  0
  180.0810  181.7310  138.9120 C   0  0  0  0  0  2  0  0  0  0  0  0
  182.4190  181.7180  138.3830 O   0  0  0  0  0  0  0  0  0  0  0  0
  185.3010  178.6380  140.5380 C   0  0  0  0  0  0  0  0  0  0  0  0
  180.0760  177.5010  137.9330 C   0  0  0  0  0  1  0  0  0  0  0  0
  185.2130  178.7280  142.0310 C   0  0  0  0  0  2  0  0  0  0  0  0
  183.7720  178.5880  142.5010 C   0  0  0  0  0  2  0  0  0  0  0  0
  183.7170  178.6210  143.9540 N   0  0  0  0  0  2  0  0  0  0  0  0
  184.9700  179.1990  144.4100 C   0  0  0  0  0  2  0  0  0  0  0  0
  186.8370  177.6580  145.2930 C   0  0  0  0  0  1  0  0  0  0  0  0
  185.5470  178.3710  145.5080 C   0  0  0  0  0  0  0  0  0  0  0  0
  185.0070  178.4000  146.7240 C   0  0  0  0  0  2  0  0  0  0  0  0
  2 17  1  0  0  0  0
  3 15  1  0  0  0  0
  4  2  1  6  0  0  0
  6  1  1  0  0  0  0
  6 16  1  1  0  0  0
  7  8  1  0  0  0  0
  8 19  2  0  0  0  0
  8  5  1  0  0  0  0
  9  1  1  6  0  0  0
  9 19  1  0  0  0  0
 10  4  1  0  0  0  0
 10 12  2  0  0  0  0
 11 14  1  0  0  0  0
 11  7  2  0  0  0  0
 12  9  1  0  0  0  0
 13 18  1  0  0  0  0
 13 17  1  0  0  0  0
 14  1  2  0  0  0  0
 15 20  1  6  0  0  0
 15  6  1  0  0  0  0
 15  4  1  0  0  0  0
 18 10  1  0  0  0  0
 19 21  1  0  0  0  0
 21 22  1  0  0  0  0
 22 23  1  0  0  0  0
 23 24  1  0  0  0  0
 24 26  1  0  0  0  0
 25 26  1  0  0  0  0
 26 27  2  0  0  0  0
M  END
>  <MODEL>
1

>  <REMARK>
 VINA RESULT:      -6.5      0.000      0.000
  Name = 
  5 active torsions:
  status: ('A' for Active; 'I' for Inactive)
    1  A    between atoms: C_11  and  C_15
    2  A    between atoms: C_11  and  N_23
    3  A    between atoms: C_14  and  C_16
    4  A    between atoms: C_15  and  C_26
    5  A    between atoms: C_16  and  N_23
                            x       y       z     vdW  Elec       q    Type
                         _______ _______ _______ _____ _____    ______ ____

>  <TORSDO>
F 5

$$$$
=
 OpenBabel11062414443D

 27 29  0  0  1  0  0  0  0  0999 V2000
  189.0730  175.4820  136.3400 C   0  0  0  0  0  0  0  0  0  0  0  0
  185.8440  172.2920  136.9520 C   0  0  0  0  0  2  0  0  0  0  0  0
  187.5470  173.6480  134.6620 O   0  0  0  0  0  1  0  0  0  0  0  0
  186.8620  173.4570  136.9770 C   0  0  2  0  0  3  0  0  0  0  0  0
  189.1250  179.6140  138.0310 N   0  0  0  0  0  1  0  0  0  0  0  0
  189.2940  174.0100  136.2720 C   0  0  2  0  0  3  0  0  0  0  0  0
  188.7080  178.4550  135.9240 N   0  0  0  0  0  0  0  0  0  0  0  0
  188.8570  178.3890  137.3490 C   0  0  0  0  0  0  0  0  0  0  0  0
  188.2480  175.9660  137.4780 C   0  0  2  0  0  3  0  0  0  0  0  0
  186.1850  174.8360  136.8970 C   0  0  0  0  0  0  0  0  0  0  0  0
  188.8800  177.5400  135.0140 C   0  0  0  0  0  3  0  0  0  0  0  0
  186.8350  175.9370  137.1400 N   0  0  0  0  0  0  0  0  0  0  0  0
  183.9840  173.7990  136.4420 C   0  0  0  0  0  2  0  0  0  0  0  0
  189.2550  176.1800  135.2620 N   0  0  0  0  0  0  0  0  0  0  0  0
  187.9990  173.2410  135.9210 C   0  0  2  0  0  0  0  0  0  0  0  0
  189.8470  173.5520  137.4720 O   0  0  0  0  0  1  0  0  0  0  0  0
  184.4370  172.6880  137.3670 C   0  0  0  0  0  2  0  0  0  0  0  0
  184.8140  174.9390  136.6310 O   0  0  0  0  0  0  0  0  0  0  0  0
  188.6820  177.2650  138.0660 C   0  0  0  0  0  0  0  0  0  0  0  0
  188.3860  171.7680  135.8150 C   0  0  0  0  0  1  0  0  0  0  0  0
  188.8080  177.2890  139.5600 C   0  0  0  0  0  2  0  0  0  0  0  0
  190.2190  176.9160  139.9930 C   0  0  0  0  0  2  0  0  0  0  0  0
  190.1840  176.2650  141.2920 N   0  0  0  0  0  2  0  0  0  0  0  0
  190.3040  177.3120  142.2930 C   0  0  0  0  0  2  0  0  0  0  0  0
  189.5350  177.7750  144.7080 C   0  0  0  0  0  1  0  0  0  0  0  0
  189.3540  177.0600  143.4150 C   0  0  0  0  0  0  0  0  0  0  0  0
  188.2570  176.3340  143.2130 C   0  0  0  0  0  2  0  0  0  0  0  0
  2 17  1  0  0  0  0
  3 15  1  0  0  0  0
  4  2  1  6  0  0  0
  6  1  1  0  0  0  0
  6 16  1  1  0  0  0
  7  8  1  0  0  0  0
  8  5  1  0  0  0  0
  8 19  2  0  0  0  0
  9  1  1  6  0  0  0
  9 19  1  0  0  0  0
 10  4  1  0  0  0  0
 10 12  2  0  0  0  0
 11 14  1  0  0  0  0
 11  7  2  0  0  0  0
 12  9  1  0  0  0  0
 13 18  1  0  0  0  0
 13 17  1  0  0  0  0
 14  1  2  0  0  0  0
 15 20  1  6  0  0  0
 15  6  1  0  0  0  0
 15  4  1  0  0  0  0
 18 10  1  0  0  0  0
 19 21  1  0  0  0  0
 21 22  1  0  0  0  0
 22 23  1  0  0  0  0
 23 24  1  0  0  0  0
 24 26  1  0  0  0  0
 26 25  1  0  0  0  0
 27 26  2  0  0  0  0
M  END
>  <MODEL>
2

>  <REMARK>
 VINA RESULT:      -5.9      5.393      6.821
  Name = 
  5 active torsions:
  status: ('A' for Active; 'I' for Inactive)
    1  A    between atoms: C_11  and  C_15
    2  A    between atoms: C_11  and  N_23
    3  A    between atoms: C_14  and  C_16
    4  A    between atoms: C_15  and  C_26
    5  A    between atoms: C_16  and  N_23
                            x       y       z     vdW  Elec       q    Type
                         _______ _______ _______ _____ _____    ______ ____

>  <TORSDO>
F 5

$$$$
=
 OpenBabel11062414443D

 27 29  0  0  1  0  0  0  0  0999 V2000
  181.8800  179.5470  140.5010 C   0  0  0  0  0  0  0  0  0  0  0  0
  182.8970  177.0020  136.8310 C   0  0  0  0  0  2  0  0  0  0  0  0
  180.4140  178.2310  138.3500 O   0  0  0  0  0  1  0  0  0  0  0  0
  182.7880  177.7950  138.1550 C   0  0  2  0  0  3  0  0  0  0  0  0
  183.4250  179.0100  144.6550 N   0  0  0  0  0  1  0  0  0  0  0  0
  181.8390  180.0190  139.0880 C   0  0  2  0  0  3  0  0  0  0  0  0
  181.4040  178.6240  143.3410 N   0  0  0  0  0  0  0  0  0  0  0  0
  182.8110  178.9060  143.3710 C   0  0  0  0  0  0  0  0  0  0  0  0
  183.0750  178.7520  140.8880 C   0  0  2  0  0  3  0  0  0  0  0  0
  182.7280  176.8790  139.3890 C   0  0  0  0  0  0  0  0  0  0  0  0
  180.5120  178.8760  142.4270 C   0  0  0  0  0  3  0  0  0  0  0  0
  182.8730  177.3420  140.5970 N   0  0  0  0  0  0  0  0  0  0  0  0
  182.5170  174.8670  137.9650 C   0  0  0  0  0  2  0  0  0  0  0  0
  180.7680  179.5070  141.1670 N   0  0  0  0  0  0  0  0  0  0  0  0
  181.6380  178.8560  138.0890 C   0  0  2  0  0  0  0  0  0  0  0  0
  182.9960  180.7480  138.7930 O   0  0  0  0  0  1  0  0  0  0  0  0
  183.4310  175.5890  136.9960 C   0  0  0  0  0  2  0  0  0  0  0  0
  182.5890  175.4940  139.2390 O   0  0  0  0  0  0  0  0  0  0  0  0
  183.5770  178.9970  142.2700 C   0  0  0  0  0  0  0  0  0  0  0  0
  181.5430  179.4880  136.7030 C   0  0  0  0  0  1  0  0  0  0  0  0
  185.0500  179.2470  142.3880 C   0  0  0  0  0  2  0  0  0  0  0  0
  185.8270  177.9380  142.3790 C   0  0  0  0  0  2  0  0  0  0  0  0
  187.1800  178.1590  142.8640 N   0  0  0  0  0  2  0  0  0  0  0  0
  187.5080  177.0340  143.7250 C   0  0  0  0  0  2  0  0  0  0  0  0
  186.5580  177.8020  145.9940 C   0  0  0  0  0  1  0  0  0  0  0  0
  187.7290  177.5060  145.1220 C   0  0  0  0  0  0  0  0  0  0  0  0
  188.9530  177.5030  145.6450 C   0  0  0  0  0  2  0  0  0  0  0  0
  1 14  2  0  0  0  0
  2 17  1  0  0  0  0
  4  2  1  6  0  0  0
  4 10  1  0  0  0  0
  6 16  1  6  0  0  0
  6  1  1  0  0  0  0
  7  8  1  0  0  0  0
  8  5  1  0  0  0  0
  9  1  1  1  0  0  0
  9 19  1  0  0  0  0
 10 12  2  0  0  0  0
 11  7  2  0  0  0  0
 12  9  1  0  0  0  0
 13 18  1  0  0  0  0
 14 11  1  0  0  0  0
 15 20  1  6  0  0  0
 15  4  1  0  0  0  0
 15  3  1  0  0  0  0
 15  6  1  0  0  0  0
 17 13  1  0  0  0  0
 18 10  1  0  0  0  0
 19 21  1  0  0  0  0
 19  8  2  0  0  0  0
 22 21  1  0  0  0  0
 22 23  1  0  0  0  0
 23 24  1  0  0  0  0
 24 26  1  0  0  0  0
 26 27  2  0  0  0  0
 26 25  1  0  0  0  0
M  END
>  <MODEL>
3

>  <REMARK>
 VINA RESULT:      -5.8      2.035      4.326
  Name = 
  5 active torsions:
  status: ('A' for Active; 'I' for Inactive)
    1  A    between atoms: C_11  and  C_15
    2  A    between atoms: C_11  and  N_23
    3  A    between atoms: C_14  and  C_16
    4  A    between atoms: C_15  and  C_26
    5  A    between atoms: C_16  and  N_23
                            x       y       z     vdW  Elec       q    Type
                         _______ _______ _______ _____ _____    ______ ____

>  <TORSDO>
F 5

$$$$
=
 OpenBabel11062414443D

 27 29  0  0  1  0  0  0  0  0999 V2000
  191.2120  176.0510  138.6650 C   0  0  0  0  0  0  0  0  0  0  0  0
  187.6370  177.0330  135.9760 C   0  0  0  0  0  2  0  0  0  0  0  0
  190.7950  176.9750  135.9300 O   0  0  0  0  0  1  0  0  0  0  0  0
  188.6780  176.7300  137.0790 C   0  0  2  0  0  3  0  0  0  0  0  0
  191.8730  177.4180  142.8630 N   0  0  0  0  0  1  0  0  0  0  0  0
  190.7170  175.2000  137.5470 C   0  0  2  0  0  3  0  0  0  0  0  0
  192.6540  177.8760  140.5970 N   0  0  0  0  0  0  0  0  0  0  0  0
  191.6750  177.2780  141.4570 C   0  0  0  0  0  0  0  0  0  0  0  0
  190.1730  176.6040  139.5730 C   0  0  2  0  0  3  0  0  0  0  0  0
  188.9980  177.9610  137.9450 C   0  0  0  0  0  0  0  0  0  0  0  0
  192.9910  177.5890  139.3720 C   0  0  0  0  0  3  0  0  0  0  0  0
  189.6590  177.8640  139.0610 N   0  0  0  0  0  0  0  0  0  0  0  0
  187.7010  179.4360  136.4380 C   0  0  0  0  0  2  0  0  0  0  0  0
  192.3990  176.5640  138.5650 N   0  0  0  0  0  0  0  0  0  0  0  0
  189.9420  176.0180  136.4880 C   0  0  2  0  0  0  0  0  0  0  0  0
  189.9370  174.1530  138.0500 O   0  0  0  0  0  1  0  0  0  0  0  0
  186.7730  178.2520  136.2550 C   0  0  0  0  0  2  0  0  0  0  0  0
  188.5140  179.2250  137.5870 O   0  0  0  0  0  0  0  0  0  0  0  0
  190.5610  176.6710  141.0110 C   0  0  0  0  0  0  0  0  0  0  0  0
  189.5620  175.0420  135.3790 C   0  0  0  0  0  1  0  0  0  0  0  0
  189.5600  176.1130  141.9770 C   0  0  0  0  0  2  0  0  0  0  0  0
  188.4680  177.1290  142.2780 C   0  0  0  0  0  2  0  0  0  0  0  0
  187.7940  176.7800  143.5180 N   0  0  0  0  0  2  0  0  0  0  0  0
  188.7060  177.1090  144.6010 C   0  0  0  0  0  2  0  0  0  0  0  0
  188.6510  177.6870  147.1120 C   0  0  0  0  0  1  0  0  0  0  0  0
  187.9370  177.5010  145.8180 C   0  0  0  0  0  0  0  0  0  0  0  0
  186.6570  177.8480  145.7180 C   0  0  0  0  0  2  0  0  0  0  0  0
  2 17  1  0  0  0  0
  3 15  1  0  0  0  0
  4  2  1  6  0  0  0
  4 10  1  0  0  0  0
  6 16  1  1  0  0  0
  6  1  1  0  0  0  0
  7  8  1  0  0  0  0
  8  5  1  0  0  0  0
  9  1  1  6  0  0  0
  9 19  1  0  0  0  0
 10 12  2  0  0  0  0
 11  7  2  0  0  0  0
 12  9  1  0  0  0  0
 13 18  1  0  0  0  0
 14  1  2  0  0  0  0
 14 11  1  0  0  0  0
 15 20  1  6  0  0  0
 15  4  1  0  0  0  0
 15  6  1  0  0  0  0
 17 13  1  0  0  0  0
 18 10  1  0  0  0  0
 19  8  2  0  0  0  0
 19 21  1  0  0  0  0
 21 22  1  0  0  0  0
 22 23  1  0  0  0  0
 23 24  1  0  0  0  0
 24 26  1  0  0  0  0
 26 25  1  0  0  0  0
 27 26  2  0  0  0  0
M  END
>  <MODEL>
4

>  <REMARK>
 VINA RESULT:      -5.7      5.100      6.811
  Name = 
  5 active torsions:
  status: ('A' for Active; 'I' for Inactive)
    1  A    between atoms: C_11  and  C_15
    2  A    between atoms: C_11  and  N_23
    3  A    between atoms: C_14  and  C_16
    4  A    between atoms: C_15  and  C_26
    5  A    between atoms: C_16  and  N_23
                            x       y       z     vdW  Elec       q    Type
                         _______ _______ _______ _____ _____    ______ ____

>  <TORSDO>
F 5

$$$$
=
 OpenBabel11062414443D

 27 29  0  0  1  0  0  0  0  0999 V2000
  182.3990  179.5260  139.6510 C   0  0  0  0  0  0  0  0  0  0  0  0
  183.4050  175.3880  137.9660 C   0  0  0  0  0  2  0  0  0  0  0  0
  182.7600  178.3310  137.0150 O   0  0  0  0  0  1  0  0  0  0  0  0
  183.0000  176.6590  138.7500 C   0  0  2  0  0  3  0  0  0  0  0  0
  179.3640  180.4890  142.7810 N   0  0  0  0  0  1  0  0  0  0  0  0
  183.7140  179.1300  139.0710 C   0  0  2  0  0  3  0  0  0  0  0  0
  179.6820  180.6430  140.3650 N   0  0  0  0  0  0  0  0  0  0  0  0
  180.0930  180.0860  141.6220 C   0  0  0  0  0  0  0  0  0  0  0  0
  181.7820  178.5540  140.5910 C   0  0  2  0  0  3  0  0  0  0  0  0
  181.4890  176.7230  139.0310 C   0  0  0  0  0  0  0  0  0  0  0  0
  180.3480  180.8190  139.2610 C   0  0  0  0  0  3  0  0  0  0  0  0
  180.9810  177.5780  139.8700 N   0  0  0  0  0  0  0  0  0  0  0  0
  181.0710  174.7650  137.5760 C   0  0  0  0  0  2  0  0  0  0  0  0
  181.7150  180.4460  139.0450 N   0  0  0  0  0  0  0  0  0  0  0  0
  183.5820  177.9500  138.0800 C   0  0  2  0  0  0  0  0  0  0  0  0
  184.6200  178.8350  140.0940 O   0  0  0  0  0  1  0  0  0  0  0  0
  182.4060  174.2480  138.0720 C   0  0  0  0  0  2  0  0  0  0  0  0
  180.6170  175.8020  138.4380 O   0  0  0  0  0  0  0  0  0  0  0  0
  181.0620  179.1620  141.7460 C   0  0  0  0  0  0  0  0  0  0  0  0
  184.9780  177.7020  137.5150 C   0  0  0  0  0  1  0  0  0  0  0  0
  181.4010  178.5930  143.0910 C   0  0  0  0  0  2  0  0  0  0  0  0
  182.6160  179.2890  143.6870 C   0  0  0  0  0  2  0  0  0  0  0  0
  183.7700  178.4050  143.6360 N   0  0  0  0  0  2  0  0  0  0  0  0
  184.9080  179.1700  144.1190 C   0  0  0  0  0  2  0  0  0  0  0  0
  185.2000  178.4060  146.5620 C   0  0  0  0  0  1  0  0  0  0  0  0
  185.6550  178.3850  145.1440 C   0  0  0  0  0  0  0  0  0  0  0  0
  186.6140  177.5400  144.7740 C   0  0  0  0  0  2  0  0  0  0  0  0
  2 17  1  0  0  0  0
  3 15  1  0  0  0  0
  4  2  1  6  0  0  0
  4 10  1  0  0  0  0
  6  1  1  0  0  0  0
  6 16  1  1  0  0  0
  7  8  1  0  0  0  0
  8 19  2  0  0  0  0
  8  5  1  0  0  0  0
  9  1  1  6  0  0  0
  9 19  1  0  0  0  0
 10 12  2  0  0  0  0
 11  7  2  0  0  0  0
 12  9  1  0  0  0  0
 13 17  1  0  0  0  0
 13 18  1  0  0  0  0
 14 11  1  0  0  0  0
 14  1  2  0  0  0  0
 15 20  1  6  0  0  0
 15  4  1  0  0  0  0
 15  6  1  0  0  0  0
 18 10  1  0  0  0  0
 19 21  1  0  0  0  0
 21 22  1  0  0  0  0
 23 22  1  0  0  0  0
 23 24  1  0  0  0  0
 24 26  1  0  0  0  0
 26 25  1  0  0  0  0
 27 26  2  0  0  0  0
M  END
>  <MODEL>
5

>  <REMARK>
 VINA RESULT:      -5.5      2.245      4.640
  Name = 
  5 active torsions:
  status: ('A' for Active; 'I' for Inactive)
    1  A    between atoms: C_11  and  C_15
    2  A    between atoms: C_11  and  N_23
    3  A    between atoms: C_14  and  C_16
    4  A    between atoms: C_15  and  C_26
    5  A    between atoms: C_16  and  N_23
                            x       y       z     vdW  Elec       q    Type
                         _______ _______ _______ _____ _____    ______ ____

>  <TORSDO>
F 5

$$$$
=
 OpenBabel11062414443D

 27 29  0  0  1  0  0  0  0  0999 V2000
  190.2070  176.9800  137.1660 C   0  0  0  0  0  0  0  0  0  0  0  0
  189.5090  172.7110  135.6610 C   0  0  0  0  0  2  0  0  0  0  0  0
  189.7800  175.6720  134.5940 O   0  0  0  0  0  1  0  0  0  0  0  0
  189.6700  174.0610  136.3980 C   0  0  2  0  0  3  0  0  0  0  0  0
  188.1320  179.0060  140.5600 N   0  0  0  0  0  1  0  0  0  0  0  0
  191.2170  176.1390  136.4620 C   0  0  2  0  0  3  0  0  0  0  0  0
  188.1540  178.9840  138.1190 N   0  0  0  0  0  0  0  0  0  0  0  0
  188.5170  178.3490  139.3530 C   0  0  0  0  0  0  0  0  0  0  0  0
  189.4280  176.3040  138.2370 C   0  0  2  0  0  3  0  0  0  0  0  0
  188.3230  174.6510  136.8520 C   0  0  0  0  0  0  0  0  0  0  0  0
  188.6840  178.8920  136.9340 C   0  0  0  0  0  3  0  0  0  0  0  0
  188.2550  175.6480  137.6850 N   0  0  0  0  0  0  0  0  0  0  0  0
  187.0720  172.9250  135.5960 C   0  0  0  0  0  2  0  0  0  0  0  0
  189.8000  178.0650  136.5840 N   0  0  0  0  0  0  0  0  0  0  0  0
  190.5600  175.0550  135.5770 C   0  0  2  0  0  0  0  0  0  0  0  0
  192.0980  175.5730  137.3880 O   0  0  0  0  0  1  0  0  0  0  0  0
  188.2050  171.9890  135.9630 C   0  0  0  0  0  2  0  0  0  0  0  0
  187.1180  174.0750  136.4320 O   0  0  0  0  0  0  0  0  0  0  0  0
  189.1220  177.1500  139.4250 C   0  0  0  0  0  0  0  0  0  0  0  0
  191.6980  174.3260  134.8690 C   0  0  0  0  0  1  0  0  0  0  0  0
  189.4260  176.5310  140.7560 C   0  0  0  0  0  2  0  0  0  0  0  0
  190.7610  177.0230  141.2940 C   0  0  0  0  0  2  0  0  0  0  0  0
  190.5860  177.5820  142.6240 N   0  0  0  0  0  2  0  0  0  0  0  0
  190.0130  176.5320  143.4510 C   0  0  0  0  0  2  0  0  0  0  0  0
  189.4110  177.5390  145.7440 C   0  0  0  0  0  1  0  0  0  0  0  0
  188.9990  177.1070  144.3800 C   0  0  0  0  0  0  0  0  0  0  0  0
  187.7750  177.3910  143.9430 C   0  0  0  0  0  2  0  0  0  0  0  0
  2 17  1  0  0  0  0
  3 15  1  0  0  0  0
  4  2  1  6  0  0  0
  4 10  1  0  0  0  0
  6  1  1  0  0  0  0
  6 16  1  1  0  0  0
  7  8  1  0  0  0  0
  8 19  2  0  0  0  0
  8  5  1  0  0  0  0
  9  1  1  6  0  0  0
  9 19  1  0  0  0  0
 10 12  2  0  0  0  0
 11  7  2  0  0  0  0
 12  9  1  0  0  0  0
 13 17  1  0  0  0  0
 13 18  1  0  0  0  0
 14 11  1  0  0  0  0
 14  1  2  0  0  0  0
 15 20  1  6  0  0  0
 15  4  1  0  0  0  0
 15  6  1  0  0  0  0
 18 10  1  0  0  0  0
 19 21  1  0  0  0  0
 21 22  1  0  0  0  0
 22 23  1  0  0  0  0
 23 24  1  0  0  0  0
 24 26  1  0  0  0  0
 26 25  1  0  0  0  0
 27 26  2  0  0  0  0
M  END
>  <MODEL>
6

>  <REMARK>
 VINA RESULT:      -5.5      5.692      7.754
  Name = 
  5 active torsions:
  status: ('A' for Active; 'I' for Inactive)
    1  A    between atoms: C_11  and  C_15
    2  A    between atoms: C_11  and  N_23
    3  A    between atoms: C_14  and  C_16
    4  A    between atoms: C_15  and  C_26
    5  A    between atoms: C_16  and  N_23
                            x       y       z     vdW  Elec       q    Type
                         _______ _______ _______ _____ _____    ______ ____

>  <TORSDO>
F 5

$$$$
=
 OpenBabel11062414443D

 27 29  0  0  1  0  0  0  0  0999 V2000
  186.1510  176.0790  136.3980 C   0  0  0  0  0  0  0  0  0  0  0  0
  182.1470  175.3350  138.4950 C   0  0  0  0  0  2  0  0  0  0  0  0
  183.4080  175.4900  135.6020 O   0  0  0  0  0  1  0  0  0  0  0  0
  183.5710  175.6950  138.0090 C   0  0  2  0  0  3  0  0  0  0  0  0
  189.0310  179.3940  137.2040 N   0  0  0  0  0  1  0  0  0  0  0  0
  185.4900  174.7510  136.5450 C   0  0  2  0  0  3  0  0  0  0  0  0
  187.3580  178.7210  135.5590 N   0  0  0  0  0  0  0  0  0  0  0  0
  187.9230  178.5600  136.8680 C   0  0  0  0  0  0  0  0  0  0  0  0
  186.1750  176.9330  137.6150 C   0  0  2  0  0  3  0  0  0  0  0  0
  183.7820  177.2130  137.8720 C   0  0  0  0  0  0  0  0  0  0  0  0
  186.6770  177.8890  134.8250 C   0  0  0  0  0  3  0  0  0  0  0  0
  184.9640  177.7320  137.7080 N   0  0  0  0  0  0  0  0  0  0  0  0
  181.3780  177.6470  138.2690 C   0  0  0  0  0  2  0  0  0  0  0  0
  186.3030  176.5590  135.2030 N   0  0  0  0  0  0  0  0  0  0  0  0
  183.9600  174.8780  136.7310 C   0  0  2  0  0  0  0  0  0  0  0  0
  186.0720  174.0400  137.5990 O   0  0  0  0  0  1  0  0  0  0  0  0
  181.4320  176.4650  139.2160 C   0  0  0  0  0  2  0  0  0  0  0  0
  182.7000  178.0940  137.9960 O   0  0  0  0  0  0  0  0  0  0  0  0
  187.4190  177.7330  137.8010 C   0  0  0  0  0  0  0  0  0  0  0  0
  183.4130  173.4540  136.7940 C   0  0  0  0  0  1  0  0  0  0  0  0
  188.0390  177.6570  139.1630 C   0  0  0  0  0  2  0  0  0  0  0  0
  187.1910  178.3960  140.1900 C   0  0  0  0  0  2  0  0  0  0  0  0
  187.8550  178.3850  141.4830 N   0  0  0  0  0  2  0  0  0  0  0  0
  186.8160  178.2430  142.4900 C   0  0  0  0  0  2  0  0  0  0  0  0
  188.4130  176.4100  143.3410 C   0  0  0  0  0  1  0  0  0  0  0  0
  187.2850  177.3510  143.5880 C   0  0  0  0  0  0  0  0  0  0  0  0
  186.8200  177.5080  144.8250 C   0  0  0  0  0  2  0  0  0  0  0  0
  1  6  1  0  0  0  0
  2 17  1  0  0  0  0
  3 15  1  0  0  0  0
  4  2  1  6  0  0  0
  6 15  1  0  0  0  0
  6 16  1  1  0  0  0
  7  8  1  0  0  0  0
  8  5  1  0  0  0  0
  8 19  2  0  0  0  0
  9  1  1  6  0  0  0
  9 12  1  0  0  0  0
  9 19  1  0  0  0  0
 10 18  1  0  0  0  0
 10  4  1  0  0  0  0
 11 14  1  0  0  0  0
 11  7  2  0  0  0  0
 12 10  2  0  0  0  0
 13 17  1  0  0  0  0
 14  1  2  0  0  0  0
 15 20  1  1  0  0  0
 15  4  1  0  0  0  0
 18 13  1  0  0  0  0
 19 21  1  0  0  0  0
 21 22  1  0  0  0  0
 22 23  1  0  0  0  0
 23 24  1  0  0  0  0
 24 26  1  0  0  0  0
 25 26  1  0  0  0  0
 26 27  2  0  0  0  0
M  END
>  <MODEL>
7

>  <REMARK>
 VINA RESULT:      -5.3      2.493      3.979
  Name = 
  5 active torsions:
  status: ('A' for Active; 'I' for Inactive)
    1  A    between atoms: C_11  and  C_15
    2  A    between atoms: C_11  and  N_23
    3  A    between atoms: C_14  and  C_16
    4  A    between atoms: C_15  and  C_26
    5  A    between atoms: C_16  and  N_23
                            x       y       z     vdW  Elec       q    Type
                         _______ _______ _______ _____ _____    ______ ____

>  <TORSDO>
F 5

$$$$
=
 OpenBabel11062414443D

 27 29  0  0  1  0  0  0  0  0999 V2000
  190.9650  175.0800  137.4050 C   0  0  0  0  0  0  0  0  0  0  0  0
  187.1200  175.7550  135.0110 C   0  0  0  0  0  2  0  0  0  0  0  0
  190.1970  175.1700  134.5940 O   0  0  0  0  0  1  0  0  0  0  0  0
  188.2930  175.6410  136.0130 C   0  0  2  0  0  3  0  0  0  0  0  0
  192.4850  177.5490  140.8010 N   0  0  0  0  0  1  0  0  0  0  0  0
  190.1920  174.0180  136.7020 C   0  0  2  0  0  3  0  0  0  0  0  0
  192.9160  177.1500  138.4320 N   0  0  0  0  0  0  0  0  0  0  0  0
  192.0350  177.0160  139.5560 C   0  0  0  0  0  0  0  0  0  0  0  0
  190.1670  176.0490  138.2020 C   0  0  2  0  0  3  0  0  0  0  0  0
  188.8940  177.0100  136.3770 C   0  0  0  0  0  0  0  0  0  0  0  0
  193.0030  176.4490  137.3390 C   0  0  0  0  0  3  0  0  0  0  0  0
  189.7210  177.1550  137.3710 N   0  0  0  0  0  0  0  0  0  0  0  0
  187.5380  178.1390  134.6420 C   0  0  0  0  0  2  0  0  0  0  0  0
  192.1690  175.3350  136.9960 N   0  0  0  0  0  0  0  0  0  0  0  0
  189.3470  174.5850  135.5380 C   0  0  2  0  0  0  0  0  0  0  0  0
  189.3950  173.3210  137.6150 O   0  0  0  0  0  1  0  0  0  0  0  0
  186.4630  177.1250  134.9770 C   0  0  0  0  0  2  0  0  0  0  0  0
  188.5050  178.1630  135.6850 O   0  0  0  0  0  0  0  0  0  0  0  0
  190.7990  176.4920  139.4770 C   0  0  0  0  0  0  0  0  0  0  0  0
  188.6740  173.3900  134.8690 C   0  0  0  0  0  1  0  0  0  0  0  0
  189.9210  176.4300  140.6900 C   0  0  0  0  0  2  0  0  0  0  0  0
  189.0510  177.6750  140.7960 C   0  0  0  0  0  2  0  0  0  0  0  0
  189.0210  178.1440  142.1720 N   0  0  0  0  0  2  0  0  0  0  0  0
  188.8490  176.9720  143.0140 C   0  0  0  0  0  2  0  0  0  0  0  0
  189.0810  177.8840  145.4130 C   0  0  0  0  0  1  0  0  0  0  0  0
  188.2250  177.3600  144.3120 C   0  0  0  0  0  0  0  0  0  0  0  0
  186.9010  177.4010  144.4330 C   0  0  0  0  0  2  0  0  0  0  0  0
  1  9  1  0  0  0  0
  3 15  1  0  0  0  0
  4  2  1  6  0  0  0
  4 10  1  0  0  0  0
  6  1  1  0  0  0  0
  6 16  1  1  0  0  0
  7  8  1  0  0  0  0
  8  5  1  0  0  0  0
  9 12  1  6  0  0  0
  9 19  1  0  0  0  0
 10 12  2  0  0  0  0
 11  7  2  0  0  0  0
 13 17  1  0  0  0  0
 13 18  1  0  0  0  0
 14 11  1  0  0  0  0
 14  1  2  0  0  0  0
 15 20  1  6  0  0  0
 15  4  1  0  0  0  0
 15  6  1  0  0  0  0
 17  2  1  0  0  0  0
 18 10  1  0  0  0  0
 19  8  2  0  0  0  0
 19 21  1  0  0  0  0
 21 22  1  0  0  0  0
 22 23  1  0  0  0  0
 23 24  1  0  0  0  0
 24 26  1  0  0  0  0
 26 27  2  0  0  0  0
 26 25  1  0  0  0  0
M  END
>  <MODEL>
8

>  <REMARK>
 VINA RESULT:      -5.3      5.506      7.140
  Name = 
  5 active torsions:
  status: ('A' for Active; 'I' for Inactive)
    1  A    between atoms: C_11  and  C_15
    2  A    between atoms: C_11  and  N_23
    3  A    between atoms: C_14  and  C_16
    4  A    between atoms: C_15  and  C_26
    5  A    between atoms: C_16  and  N_23
                            x       y       z     vdW  Elec       q    Type
                         _______ _______ _______ _____ _____    ______ ____

>  <TORSDO>
F 5

$$$$
=
 OpenBabel11062414443D

 27 29  0  0  1  0  0  0  0  0999 V2000
  183.2070  176.9270  137.4810 C   0  0  0  0  0  0  0  0  0  0  0  0
  187.5080  177.9560  136.2910 C   0  0  0  0  0  2  0  0  0  0  0  0
  185.7400  175.5060  137.2150 O   0  0  0  0  0  1  0  0  0  0  0  0
  186.0290  177.8620  136.7340 C   0  0  2  0  0  3  0  0  0  0  0  0
  180.6090  179.1440  140.3560 N   0  0  0  0  0  1  0  0  0  0  0  0
  183.8490  176.5710  136.1840 C   0  0  2  0  0  3  0  0  0  0  0  0
  181.9320  177.0980  140.2170 N   0  0  0  0  0  0  0  0  0  0  0  0
  181.6150  178.3900  139.6810 C   0  0  0  0  0  0  0  0  0  0  0  0
  183.4290  178.3160  137.9590 C   0  0  2  0  0  3  0  0  0  0  0  0
  185.8350  178.1960  138.2230 C   0  0  0  0  0  0  0  0  0  0  0  0
  182.4450  176.0480  139.6440 C   0  0  0  0  0  3  0  0  0  0  0  0
  184.6560  178.4050  138.7330 N   0  0  0  0  0  0  0  0  0  0  0  0
  188.2810  178.2490  138.5950 C   0  0  0  0  0  2  0  0  0  0  0  0
  182.8480  175.9630  138.2710 N   0  0  0  0  0  0  0  0  0  0  0  0
  185.3900  176.5000  136.2960 C   0  0  2  0  0  0  0  0  0  0  0  0
  183.4540  177.4720  135.1900 O   0  0  0  0  0  1  0  0  0  0  0  0
  188.3730  178.8200  137.1940 C   0  0  0  0  0  2  0  0  0  0  0  0
  186.9420  178.3610  139.0630 O   0  0  0  0  0  0  0  0  0  0  0  0
  182.2610  178.9450  138.6400 C   0  0  0  0  0  0  0  0  0  0  0  0
  185.9030  176.0600  134.9280 C   0  0  0  0  0  1  0  0  0  0  0  0
  181.9010  180.3210  138.1690 C   0  0  0  0  0  2  0  0  0  0  0  0
  180.8190  180.2660  137.1000 C   0  0  0  0  0  2  0  0  0  0  0  0
  180.8040  181.5060  136.3430 N   0  0  0  0  0  2  0  0  0  0  0  0
  180.5210  182.5740  137.2880 C   0  0  0  0  0  2  0  0  0  0  0  0
  181.9280  184.7110  137.5930 C   0  0  0  0  0  1  0  0  0  0  0  0
  181.0240  183.8740  136.7570 C   0  0  0  0  0  0  0  0  0  0  0  0
  180.8070  184.2080  135.4870 C   0  0  0  0  0  2  0  0  0  0  0  0
  1 14  2  0  0  0  0
  2 17  1  0  0  0  0
  4  2  1  1  0  0  0
  4 10  1  0  0  0  0
  6 16  1  6  0  0  0
  6 15  1  0  0  0  0
  6  1  1  0  0  0  0
  8  7  1  0  0  0  0
  8  5  1  0  0  0  0
  9  1  1  1  0  0  0
  9 19  1  0  0  0  0
  9 12  1  0  0  0  0
 10 12  2  0  0  0  0
 10 18  1  0  0  0  0
 11  7  2  0  0  0  0
 13 18  1  0  0  0  0
 14 11  1  0  0  0  0
 15 20  1  6  0  0  0
 15  4  1  0  0  0  0
 15  3  1  0  0  0  0
 17 13  1  0  0  0  0
 19  8  2  0  0  0  0
 21 19  1  0  0  0  0
 22 21  1  0  0  0  0
 23 22  1  0  0  0  0
 23 24  1  0  0  0  0
 26 24  1  0  0  0  0
 26 25  1  0  0  0  0
 27 26  2  0  0  0  0
M  END
>  <MODEL>
9

>  <REMARK>
 VINA RESULT:      -5.2      3.628      6.755
  Name = 
  5 active torsions:
  status: ('A' for Active; 'I' for Inactive)
    1  A    between atoms: C_11  and  C_15
    2  A    between atoms: C_11  and  N_23
    3  A    between atoms: C_14  and  C_16
    4  A    between atoms: C_15  and  C_26
    5  A    between atoms: C_16  and  N_23
                            x       y       z     vdW  Elec       q    Type
                         _______ _______ _______ _____ _____    ______ ____

>  <TORSDO>
F 5

$$$$
