=
 OpenBabel11062416183D

 29 30  0  0  1  0  0  0  0  0999 V2000
  191.2690  176.0850  145.1630 C   0  0  0  0  0  2  0  0  0  0  0  0
  188.8520  176.8860  145.1030 C   0  0  2  0  0  3  0  0  0  0  0  0
  188.8390  177.8690  146.2420 C   0  0  0  0  0  3  0  0  0  0  0  0
  189.6330  177.7900  147.3150 C   0  0  0  0  0  3  0  0  0  0  0  0
  190.2180  176.8780  144.3810 C   0  0  2  0  0  3  0  0  0  0  0  0
  191.7220  176.7970  146.4290 C   0  0  0  0  0  2  0  0  0  0  0  0
  190.6520  176.7110  147.5040 C   0  0  0  0  0  2  0  0  0  0  0  0
  189.7990  175.1310  142.8200 O   0  0  0  0  0  0  0  0  0  0  0  0
  190.1510  176.3300  142.9790 C   0  0  0  0  0  0  0  0  0  0  0  0
  191.4190  177.9860  141.8540 O   0  0  0  0  0  0  0  0  0  0  0  0
  190.4750  177.1530  141.7960 C   0  0  0  0  0  0  0  0  0  0  0  0
  189.7120  177.0190  140.5960 N   0  0  0  0  0  2  0  0  0  0  0  0
  190.0440  177.7440  139.3800 C   0  0  0  0  0  2  0  0  0  0  0  0
  188.9750  179.3330  137.9640 O   0  0  0  0  0  0  0  0  0  0  0  0
  188.8990  178.6090  138.9890 C   0  0  0  0  0  0  0  0  0  0  0  0
  187.7290  178.5840  139.7360 O   0  0  0  0  0  1  0  0  0  0  0  0
  187.7100  177.2530  144.1660 C   0  0  0  0  0  2  0  0  0  0  0  0
  186.4230  177.4250  144.9550 C   0  0  0  0  0  2  0  0  0  0  0  0
  185.8110  178.7910  144.6720 C   0  0  1  0  0  3  0  0  0  0  0  0
  182.6160  178.5480  141.8100 C   0  0  0  0  0  3  0  0  0  0  0  0
  184.7010  178.6770  143.6720 C   0  0  0  0  0  0  0  0  0  0  0  0
  183.3960  179.0040  144.0540 C   0  0  0  0  0  3  0  0  0  0  0  0
  184.9590  178.2900  142.3500 C   0  0  0  0  0  3  0  0  0  0  0  0
  182.3490  178.9440  143.1310 C   0  0  0  0  0  0  0  0  0  0  0  0
  183.9180  178.2220  141.4220 C   0  0  0  0  0  3  0  0  0  0  0  0
  181.0590  179.2830  143.5480 O   0  0  0  0  0  0  0  0  0  0  0  0
  180.0600  178.3110  143.8200 C   0  0  0  0  0  1  0  0  0  0  0  0
  185.3330  179.3530  145.8580 O   0  0  0  0  0  0  0  0  0  0  0  0
  185.3430  178.3060  146.7810 C   0  0  0  0  0  1  0  0  0  0  0  0
  1  6  1  0  0  0  0
  2 17  1  6  0  0  0
  2  3  1  0  0  0  0
  3  4  2  0  0  0  0
  4  7  1  0  0  0  0
  5  9  1  6  0  0  0
  5  2  1  0  0  0  0
  5  1  1  0  0  0  0
  6  7  1  0  0  0  0
  8  9  2  0  0  0  0
 11 10  2  0  0  0  0
 11  9  1  0  0  0  0
 12 11  1  0  0  0  0
 13 12  1  0  0  0  0
 14 15  2  0  0  0  0
 15 13  1  0  0  0  0
 15 16  1  0  0  0  0
 17 18  1  0  0  0  0
 19 18  1  1  0  0  0
 19 28  1  0  0  0  0
 20 24  1  0  0  0  0
 21 22  1  0  0  0  0
 21 19  1  0  0  0  0
 23 21  2  0  0  0  0
 24 26  1  0  0  0  0
 24 22  2  0  0  0  0
 25 20  2  0  0  0  0
 25 23  1  0  0  0  0
 26 27  1  0  0  0  0
 28 29  1  0  0  0  0
M  END
>  <MODEL>
1

>  <REMARK>
 VINA RESULT:      -8.4      0.000      0.000
  Name = 
  10 active torsions:
  status: ('A' for Active; 'I' for Inactive)
    1  A    between atoms: C_3  and  C_24
    2  A    between atoms: C_4  and  C_16
    3  A    between atoms: C_4  and  N_27
    4  A    between atoms: C_5  and  C_20
    5  A    between atoms: O_6  and  C_19
    6  A    between atoms: C_13  and  C_17
    7  A    between atoms: C_14  and  C_17
    8  A    between atoms: C_20  and  C_22
    9  A    between atoms: C_20  and  O_25
   10  A    between atoms: C_22  and  C_24
                            x       y       z     vdW  Elec       q    Type
                         _______ _______ _______ _____ _____    ______ ____

>  <TORSDO>
F 10

$$$$
=
 OpenBabel11062416183D

 29 30  0  0  1  0  0  0  0  0999 V2000
  191.1620  176.3590  145.2650 C   0  0  0  0  0  2  0  0  0  0  0  0
  188.7200  176.6150  144.5880 C   0  0  2  0  0  3  0  0  0  0  0  0
  188.2640  177.6930  145.5330 C   0  0  0  0  0  3  0  0  0  0  0  0
  188.7890  177.9040  146.7460 C   0  0  0  0  0  3  0  0  0  0  0  0
  190.1950  176.8170  144.1710 C   0  0  2  0  0  3  0  0  0  0  0  0
  191.1720  177.2870  146.4710 C   0  0  0  0  0  2  0  0  0  0  0  0
  189.9160  177.0940  147.3040 C   0  0  0  0  0  2  0  0  0  0  0  0
  190.5480  174.8570  142.8690 O   0  0  0  0  0  0  0  0  0  0  0  0
  190.5550  176.1160  142.8880 C   0  0  0  0  0  0  0  0  0  0  0  0
  191.7580  177.7860  141.7110 O   0  0  0  0  0  0  0  0  0  0  0  0
  190.9080  176.8560  141.6590 C   0  0  0  0  0  0  0  0  0  0  0  0
  190.2770  176.5320  140.4190 N   0  0  0  0  0  2  0  0  0  0  0  0
  190.6500  177.1720  139.1670 C   0  0  0  0  0  2  0  0  0  0  0  0
  192.3650  176.6000  137.6160 O   0  0  0  0  0  0  0  0  0  0  0  0
  191.3990  176.2070  138.3200 C   0  0  0  0  0  0  0  0  0  0  0  0
  191.0580  174.8610  138.3390 O   0  0  0  0  0  1  0  0  0  0  0  0
  187.7800  176.6240  143.3920 C   0  0  0  0  0  2  0  0  0  0  0  0
  187.5350  178.0520  142.9320 C   0  0  0  0  0  2  0  0  0  0  0  0
  186.3780  178.0950  141.9420 C   0  0  1  0  0  3  0  0  0  0  0  0
  182.7020  178.9470  143.9970 C   0  0  0  0  0  3  0  0  0  0  0  0
  185.0850  178.3650  142.6510 C   0  0  0  0  0  0  0  0  0  0  0  0
  185.0900  178.5570  144.0360 C   0  0  0  0  0  3  0  0  0  0  0  0
  183.8830  178.4720  141.9400 C   0  0  0  0  0  3  0  0  0  0  0  0
  183.9050  178.8490  144.7170 C   0  0  0  0  0  0  0  0  0  0  0  0
  182.6930  178.7580  142.6130 C   0  0  0  0  0  3  0  0  0  0  0  0
  183.9480  179.0390  146.1000 O   0  0  0  0  0  0  0  0  0  0  0  0
  184.9150  178.4140  146.9310 C   0  0  0  0  0  1  0  0  0  0  0  0
  186.6130  179.0790  140.9790 O   0  0  0  0  0  0  0  0  0  0  0  0
  187.1290  178.3900  139.8800 C   0  0  0  0  0  1  0  0  0  0  0  0
  1  6  1  0  0  0  0
  2 17  1  6  0  0  0
  2  3  1  0  0  0  0
  3  4  2  0  0  0  0
  4  7  1  0  0  0  0
  5  9  1  6  0  0  0
  5  2  1  0  0  0  0
  5  1  1  0  0  0  0
  6  7  1  0  0  0  0
  8  9  2  0  0  0  0
 11 10  2  0  0  0  0
 11  9  1  0  0  0  0
 12 11  1  0  0  0  0
 13 12  1  0  0  0  0
 14 15  2  0  0  0  0
 15 16  1  0  0  0  0
 15 13  1  0  0  0  0
 18 17  1  0  0  0  0
 19 21  1  0  0  0  0
 19 18  1  1  0  0  0
 20 24  1  0  0  0  0
 21 22  1  0  0  0  0
 22 24  2  0  0  0  0
 23 25  1  0  0  0  0
 23 21  2  0  0  0  0
 24 26  1  0  0  0  0
 25 20  2  0  0  0  0
 26 27  1  0  0  0  0
 28 19  1  0  0  0  0
 29 28  1  0  0  0  0
M  END
>  <MODEL>
2

>  <REMARK>
 VINA RESULT:      -8.4      1.538      2.774
  Name = 
  10 active torsions:
  status: ('A' for Active; 'I' for Inactive)
    1  A    between atoms: C_3  and  C_24
    2  A    between atoms: C_4  and  C_16
    3  A    between atoms: C_4  and  N_27
    4  A    between atoms: C_5  and  C_20
    5  A    between atoms: O_6  and  C_19
    6  A    between atoms: C_13  and  C_17
    7  A    between atoms: C_14  and  C_17
    8  A    between atoms: C_20  and  C_22
    9  A    between atoms: C_20  and  O_25
   10  A    between atoms: C_22  and  C_24
                            x       y       z     vdW  Elec       q    Type
                         _______ _______ _______ _____ _____    ______ ____

>  <TORSDO>
F 10

$$$$
=
 OpenBabel11062416183D

 29 30  0  0  1  0  0  0  0  0999 V2000
  184.8100  179.5310  143.8000 C   0  0  0  0  0  2  0  0  0  0  0  0
  186.8550  178.0200  143.6480 C   0  0  2  0  0  3  0  0  0  0  0  0
  186.6330  177.1050  144.8220 C   0  0  0  0  0  3  0  0  0  0  0  0
  185.9680  177.4490  145.9310 C   0  0  0  0  0  3  0  0  0  0  0  0
  185.5160  178.4360  142.9970 C   0  0  2  0  0  3  0  0  0  0  0  0
  184.2370  179.0220  145.1150 C   0  0  0  0  0  2  0  0  0  0  0  0
  185.3450  178.7940  146.1290 C   0  0  0  0  0  2  0  0  0  0  0  0
  186.7800  179.3560  141.2030 O   0  0  0  0  0  0  0  0  0  0  0  0
  185.6640  178.9060  141.5740 C   0  0  0  0  0  0  0  0  0  0  0  0
  184.4910  179.6890  139.6690 O   0  0  0  0  0  0  0  0  0  0  0  0
  184.5490  178.8480  140.6060 C   0  0  0  0  0  0  0  0  0  0  0  0
  183.5320  177.8540  140.7400 N   0  0  0  0  0  2  0  0  0  0  0  0
  182.4620  177.7020  139.7670 C   0  0  0  0  0  2  0  0  0  0  0  0
  180.2990  177.3170  140.6870 O   0  0  0  0  0  1  0  0  0  0  0  0
  181.1790  178.1570  140.3650 C   0  0  0  0  0  0  0  0  0  0  0  0
  180.9690  179.5080  140.6060 O   0  0  0  0  0  0  0  0  0  0  0  0
  187.7680  177.2980  142.6690 C   0  0  0  0  0  2  0  0  0  0  0  0
  188.7060  176.3670  143.4200 C   0  0  0  0  0  2  0  0  0  0  0  0
  190.0740  177.0170  143.5830 C   0  0  1  0  0  3  0  0  0  0  0  0
  191.3660  176.6360  147.6630 C   0  0  0  0  0  3  0  0  0  0  0  0
  190.5500  176.8990  144.9990 C   0  0  0  0  0  0  0  0  0  0  0  0
  189.8370  177.5380  146.0180 C   0  0  0  0  0  3  0  0  0  0  0  0
  191.6700  176.1210  145.3190 C   0  0  0  0  0  3  0  0  0  0  0  0
  190.2370  177.4110  147.3520 C   0  0  0  0  0  0  0  0  0  0  0  0
  192.0800  175.9930  146.6490 C   0  0  0  0  0  3  0  0  0  0  0  0
  189.4980  178.0600  148.3440 O   0  0  0  0  0  0  0  0  0  0  0  0
  188.1490  177.7280  148.6380 C   0  0  0  0  0  1  0  0  0  0  0  0
  190.9910  176.4200  142.7150 O   0  0  0  0  0  0  0  0  0  0  0  0
  191.3850  177.4420  141.8500 C   0  0  0  0  0  1  0  0  0  0  0  0
  1  6  1  0  0  0  0
  2 17  1  6  0  0  0
  2  3  1  0  0  0  0
  3  4  2  0  0  0  0
  4  7  1  0  0  0  0
  5  9  1  6  0  0  0
  5  2  1  0  0  0  0
  5  1  1  0  0  0  0
  6  7  1  0  0  0  0
  8  9  2  0  0  0  0
 10 11  2  0  0  0  0
 11 12  1  0  0  0  0
 11  9  1  0  0  0  0
 13 15  1  0  0  0  0
 13 12  1  0  0  0  0
 15 16  2  0  0  0  0
 15 14  1  0  0  0  0
 17 18  1  0  0  0  0
 19 18  1  1  0  0  0
 19 21  1  0  0  0  0
 21 23  2  0  0  0  0
 21 22  1  0  0  0  0
 22 24  2  0  0  0  0
 23 25  1  0  0  0  0
 24 20  1  0  0  0  0
 24 26  1  0  0  0  0
 25 20  2  0  0  0  0
 26 27  1  0  0  0  0
 28 19  1  0  0  0  0
 29 28  1  0  0  0  0
M  END
>  <MODEL>
3

>  <REMARK>
 VINA RESULT:      -8.4      2.364      7.013
  Name = 
  10 active torsions:
  status: ('A' for Active; 'I' for Inactive)
    1  A    between atoms: C_3  and  C_24
    2  A    between atoms: C_4  and  C_16
    3  A    between atoms: C_4  and  N_27
    4  A    between atoms: C_5  and  C_20
    5  A    between atoms: O_6  and  C_19
    6  A    between atoms: C_13  and  C_17
    7  A    between atoms: C_14  and  C_17
    8  A    between atoms: C_20  and  C_22
    9  A    between atoms: C_20  and  O_25
   10  A    between atoms: C_22  and  C_24
                            x       y       z     vdW  Elec       q    Type
                         _______ _______ _______ _____ _____    ______ ____

>  <TORSDO>
F 10

$$$$
=
 OpenBabel11062416183D

 29 30  0  0  1  0  0  0  0  0999 V2000
  191.1990  176.0720  145.0530 C   0  0  0  0  0  2  0  0  0  0  0  0
  188.8030  176.9340  145.1230 C   0  0  2  0  0  3  0  0  0  0  0  0
  188.8770  177.9170  146.2600 C   0  0  0  0  0  3  0  0  0  0  0  0
  189.7270  177.8180  147.2890 C   0  0  0  0  0  3  0  0  0  0  0  0
  190.1280  176.8910  144.3280 C   0  0  2  0  0  3  0  0  0  0  0  0
  191.7380  176.7720  146.2920 C   0  0  0  0  0  2  0  0  0  0  0  0
  190.7260  176.7130  147.4230 C   0  0  0  0  0  2  0  0  0  0  0  0
  189.5220  175.1770  142.7930 O   0  0  0  0  0  0  0  0  0  0  0  0
  189.9710  176.3450  142.9330 C   0  0  0  0  0  0  0  0  0  0  0  0
  191.2550  177.9780  141.7900 O   0  0  0  0  0  0  0  0  0  0  0  0
  190.3170  177.1370  141.7350 C   0  0  0  0  0  0  0  0  0  0  0  0
  189.5840  176.9620  140.5210 N   0  0  0  0  0  2  0  0  0  0  0  0
  189.9400  177.6540  139.2930 C   0  0  0  0  0  2  0  0  0  0  0  0
  187.7220  178.5040  139.4780 O   0  0  0  0  0  1  0  0  0  0  0  0
  188.8410  178.5800  138.9080 C   0  0  0  0  0  0  0  0  0  0  0  0
  189.0650  179.5560  137.9470 O   0  0  0  0  0  0  0  0  0  0  0  0
  187.6230  177.3300  144.2490 C   0  0  0  0  0  2  0  0  0  0  0  0
  186.3720  177.4800  145.0980 C   0  0  0  0  0  2  0  0  0  0  0  0
  185.7760  178.8710  144.9180 C   0  0  1  0  0  3  0  0  0  0  0  0
  182.4880  178.6770  142.1600 C   0  0  0  0  0  3  0  0  0  0  0  0
  184.6230  178.8320  143.9610 C   0  0  0  0  0  0  0  0  0  0  0  0
  184.8630  178.5710  142.6090 C   0  0  0  0  0  3  0  0  0  0  0  0
  183.3080  179.0090  144.4110 C   0  0  0  0  0  3  0  0  0  0  0  0
  183.8030  178.4910  141.7020 C   0  0  0  0  0  0  0  0  0  0  0  0
  182.2430  178.9350  143.5110 C   0  0  0  0  0  3  0  0  0  0  0  0
  184.0790  178.2240  140.3590 O   0  0  0  0  0  0  0  0  0  0  0  0
  184.3590  179.2470  139.4150 C   0  0  0  0  0  1  0  0  0  0  0  0
  185.3600  179.3730  146.1530 O   0  0  0  0  0  0  0  0  0  0  0  0
  185.3990  178.2790  147.0190 C   0  0  0  0  0  1  0  0  0  0  0  0
  1  6  1  0  0  0  0
  2 17  1  6  0  0  0
  2  3  1  0  0  0  0
  3  4  2  0  0  0  0
  4  7  1  0  0  0  0
  5  9  1  6  0  0  0
  5  1  1  0  0  0  0
  5  2  1  0  0  0  0
  6  7  1  0  0  0  0
  8  9  2  0  0  0  0
 11 10  2  0  0  0  0
 11  9  1  0  0  0  0
 12 11  1  0  0  0  0
 13 12  1  0  0  0  0
 15 13  1  0  0  0  0
 15 14  1  0  0  0  0
 16 15  2  0  0  0  0
 17 18  1  0  0  0  0
 19 18  1  1  0  0  0
 19 28  1  0  0  0  0
 20 25  1  0  0  0  0
 21 23  1  0  0  0  0
 21 19  1  0  0  0  0
 22 21  2  0  0  0  0
 24 20  2  0  0  0  0
 24 22  1  0  0  0  0
 25 23  2  0  0  0  0
 26 24  1  0  0  0  0
 27 26  1  0  0  0  0
 28 29  1  0  0  0  0
M  END
>  <MODEL>
4

>  <REMARK>
 VINA RESULT:      -8.3      0.969      1.805
  Name = 
  10 active torsions:
  status: ('A' for Active; 'I' for Inactive)
    1  A    between atoms: C_3  and  C_24
    2  A    between atoms: C_4  and  C_16
    3  A    between atoms: C_4  and  N_27
    4  A    between atoms: C_5  and  C_20
    5  A    between atoms: O_6  and  C_19
    6  A    between atoms: C_13  and  C_17
    7  A    between atoms: C_14  and  C_17
    8  A    between atoms: C_20  and  C_22
    9  A    between atoms: C_20  and  O_25
   10  A    between atoms: C_22  and  C_24
                            x       y       z     vdW  Elec       q    Type
                         _______ _______ _______ _____ _____    ______ ____

>  <TORSDO>
F 10

$$$$
=
 OpenBabel11062416183D

 29 30  0  0  1  0  0  0  0  0999 V2000
  184.8870  179.5290  143.7340 C   0  0  0  0  0  2  0  0  0  0  0  0
  186.9030  177.9790  143.5960 C   0  0  2  0  0  3  0  0  0  0  0  0
  186.6680  177.0830  144.7810 C   0  0  0  0  0  3  0  0  0  0  0  0
  186.0120  177.4520  145.8870 C   0  0  0  0  0  3  0  0  0  0  0  0
  185.5710  178.4120  142.9430 C   0  0  2  0  0  3  0  0  0  0  0  0
  184.3070  179.0460  145.0560 C   0  0  0  0  0  2  0  0  0  0  0  0
  185.4140  178.8100  146.0700 C   0  0  0  0  0  2  0  0  0  0  0  0
  186.8620  179.2300  141.1180 O   0  0  0  0  0  0  0  0  0  0  0  0
  185.7230  178.8620  141.5130 C   0  0  0  0  0  0  0  0  0  0  0  0
  184.5740  179.7130  139.6230 O   0  0  0  0  0  0  0  0  0  0  0  0
  184.5890  178.8780  140.5670 C   0  0  0  0  0  0  0  0  0  0  0  0
  183.5040  177.9630  140.7310 N   0  0  0  0  0  2  0  0  0  0  0  0
  182.4070  177.8820  139.7800 C   0  0  0  0  0  2  0  0  0  0  0  0
  182.8850  177.2700  137.5280 O   0  0  0  0  0  0  0  0  0  0  0  0
  182.7410  176.8940  138.7200 C   0  0  0  0  0  0  0  0  0  0  0  0
  182.9340  175.5610  139.0550 O   0  0  0  0  0  1  0  0  0  0  0  0
  187.8010  177.2290  142.6230 C   0  0  0  0  0  2  0  0  0  0  0  0
  188.7470  176.3160  143.3850 C   0  0  0  0  0  2  0  0  0  0  0  0
  190.0990  176.9950  143.5700 C   0  0  1  0  0  3  0  0  0  0  0  0
  191.3050  176.6940  147.6820 C   0  0  0  0  0  3  0  0  0  0  0  0
  190.5450  176.9040  144.9970 C   0  0  0  0  0  0  0  0  0  0  0  0
  189.8090  177.5600  145.9890 C   0  0  0  0  0  3  0  0  0  0  0  0
  191.6610  176.1370  145.3550 C   0  0  0  0  0  3  0  0  0  0  0  0
  190.1810  177.4600  147.3330 C   0  0  0  0  0  0  0  0  0  0  0  0
  192.0430  176.0350  146.6950 C   0  0  0  0  0  3  0  0  0  0  0  0
  189.4190  178.1250  148.2960 O   0  0  0  0  0  0  0  0  0  0  0  0
  188.1410  177.6690  148.7130 C   0  0  0  0  0  1  0  0  0  0  0  0
  191.0460  176.4030  142.7310 O   0  0  0  0  0  0  0  0  0  0  0  0
  191.4690  177.4300  141.8850 C   0  0  0  0  0  1  0  0  0  0  0  0
  1  6  1  0  0  0  0
  2 17  1  6  0  0  0
  2  3  1  0  0  0  0
  3  4  2  0  0  0  0
  4  7  1  0  0  0  0
  5  9  1  6  0  0  0
  5  2  1  0  0  0  0
  5  1  1  0  0  0  0
  6  7  1  0  0  0  0
  8  9  2  0  0  0  0
 10 11  2  0  0  0  0
 11 12  1  0  0  0  0
 11  9  1  0  0  0  0
 13 12  1  0  0  0  0
 14 15  2  0  0  0  0
 15 16  1  0  0  0  0
 15 13  1  0  0  0  0
 17 18  1  0  0  0  0
 19 18  1  1  0  0  0
 19 21  1  0  0  0  0
 21 23  2  0  0  0  0
 21 22  1  0  0  0  0
 22 24  2  0  0  0  0
 23 25  1  0  0  0  0
 24 20  1  0  0  0  0
 24 26  1  0  0  0  0
 25 20  2  0  0  0  0
 26 27  1  0  0  0  0
 28 19  1  0  0  0  0
 29 28  1  0  0  0  0
M  END
>  <MODEL>
5

>  <REMARK>
 VINA RESULT:      -8.3      2.554      6.795
  Name = 
  10 active torsions:
  status: ('A' for Active; 'I' for Inactive)
    1  A    between atoms: C_3  and  C_24
    2  A    between atoms: C_4  and  C_16
    3  A    between atoms: C_4  and  N_27
    4  A    between atoms: C_5  and  C_20
    5  A    between atoms: O_6  and  C_19
    6  A    between atoms: C_13  and  C_17
    7  A    between atoms: C_14  and  C_17
    8  A    between atoms: C_20  and  C_22
    9  A    between atoms: C_20  and  O_25
   10  A    between atoms: C_22  and  C_24
                            x       y       z     vdW  Elec       q    Type
                         _______ _______ _______ _____ _____    ______ ____

>  <TORSDO>
F 10

$$$$
=
 OpenBabel11062416183D

 29 30  0  0  1  0  0  0  0  0999 V2000
  191.2430  176.3390  145.2760 C   0  0  0  0  0  2  0  0  0  0  0  0
  188.7760  176.6590  144.7260 C   0  0  2  0  0  3  0  0  0  0  0  0
  188.3890  177.7200  145.7190 C   0  0  0  0  0  3  0  0  0  0  0  0
  188.9750  177.8900  146.9090 C   0  0  0  0  0  3  0  0  0  0  0  0
  190.2330  176.8440  144.2430 C   0  0  2  0  0  3  0  0  0  0  0  0
  191.3300  177.2350  146.5030 C   0  0  0  0  0  2  0  0  0  0  0  0
  190.1120  177.0450  147.3910 C   0  0  0  0  0  2  0  0  0  0  0  0
  190.3730  174.9200  142.8490 O   0  0  0  0  0  0  0  0  0  0  0  0
  190.5170  176.1690  142.9260 C   0  0  0  0  0  0  0  0  0  0  0  0
  191.6980  177.9280  141.8640 O   0  0  0  0  0  0  0  0  0  0  0  0
  190.9480  176.9240  141.7320 C   0  0  0  0  0  0  0  0  0  0  0  0
  190.5040  176.5280  140.4330 N   0  0  0  0  0  2  0  0  0  0  0  0
  190.9670  177.1850  139.2210 C   0  0  0  0  0  2  0  0  0  0  0  0
  192.3070  176.4000  137.4150 O   0  0  0  0  0  0  0  0  0  0  0  0
  191.3750  176.1590  138.2240 C   0  0  0  0  0  0  0  0  0  0  0  0
  190.7520  174.9180  138.2170 O   0  0  0  0  0  1  0  0  0  0  0  0
  187.7800  176.7170  143.5780 C   0  0  0  0  0  2  0  0  0  0  0  0
  187.4990  178.1620  143.2040 C   0  0  0  0  0  2  0  0  0  0  0  0
  186.3200  178.2380  142.2410 C   0  0  1  0  0  3  0  0  0  0  0  0
  182.6530  179.0230  144.3380 C   0  0  0  0  0  3  0  0  0  0  0  0
  185.0520  178.5390  142.9800 C   0  0  0  0  0  0  0  0  0  0  0  0
  183.8480  178.6170  142.2730 C   0  0  0  0  0  3  0  0  0  0  0  0
  185.0490  178.6970  144.3720 C   0  0  0  0  0  3  0  0  0  0  0  0
  182.6450  178.8580  142.9430 C   0  0  0  0  0  0  0  0  0  0  0  0
  183.8530  178.9430  145.0490 C   0  0  0  0  0  3  0  0  0  0  0  0
  181.4610  178.9250  142.2040 O   0  0  0  0  0  0  0  0  0  0  0  0
  180.2920  179.5700  142.6850 C   0  0  0  0  0  1  0  0  0  0  0  0
  186.5580  179.2170  141.2750 O   0  0  0  0  0  0  0  0  0  0  0  0
  187.4440  178.6260  140.3730 C   0  0  0  0  0  1  0  0  0  0  0  0
  1  6  1  0  0  0  0
  2 17  1  6  0  0  0
  2  3  1  0  0  0  0
  3  4  2  0  0  0  0
  4  7  1  0  0  0  0
  5  9  1  6  0  0  0
  5  2  1  0  0  0  0
  5  1  1  0  0  0  0
  6  7  1  0  0  0  0
  8  9  2  0  0  0  0
 11 10  2  0  0  0  0
 11  9  1  0  0  0  0
 12 11  1  0  0  0  0
 13 12  1  0  0  0  0
 14 15  2  0  0  0  0
 15 13  1  0  0  0  0
 16 15  1  0  0  0  0
 18 17  1  0  0  0  0
 19 21  1  0  0  0  0
 19 18  1  1  0  0  0
 20 25  1  0  0  0  0
 21 23  1  0  0  0  0
 22 24  1  0  0  0  0
 22 21  2  0  0  0  0
 23 25  2  0  0  0  0
 24 20  2  0  0  0  0
 26 27  1  0  0  0  0
 26 24  1  0  0  0  0
 28 19  1  0  0  0  0
 29 28  1  0  0  0  0
M  END
>  <MODEL>
6

>  <REMARK>
 VINA RESULT:      -8.1      1.600      2.468
  Name = 
  10 active torsions:
  status: ('A' for Active; 'I' for Inactive)
    1  A    between atoms: C_3  and  C_24
    2  A    between atoms: C_4  and  C_16
    3  A    between atoms: C_4  and  N_27
    4  A    between atoms: C_5  and  C_20
    5  A    between atoms: O_6  and  C_19
    6  A    between atoms: C_13  and  C_17
    7  A    between atoms: C_14  and  C_17
    8  A    between atoms: C_20  and  C_22
    9  A    between atoms: C_20  and  O_25
   10  A    between atoms: C_22  and  C_24
                            x       y       z     vdW  Elec       q    Type
                         _______ _______ _______ _____ _____    ______ ____

>  <TORSDO>
F 10

$$$$
=
 OpenBabel11062416183D

 29 30  0  0  1  0  0  0  0  0999 V2000
  191.6170  177.2050  140.2500 C   0  0  0  0  0  2  0  0  0  0  0  0
  189.3680  178.1480  140.9860 C   0  0  2  0  0  3  0  0  0  0  0  0
  188.4530  177.5840  139.9340 C   0  0  0  0  0  3  0  0  0  0  0  0
  188.8310  177.2900  138.6850 C   0  0  0  0  0  3  0  0  0  0  0  0
  190.5190  177.1700  141.3160 C   0  0  2  0  0  3  0  0  0  0  0  0
  191.1860  176.5630  138.9390 C   0  0  0  0  0  2  0  0  0  0  0  0
  190.2300  177.4730  138.1870 C   0  0  0  0  0  2  0  0  0  0  0  0
  191.5770  178.5760  142.9180 O   0  0  0  0  0  0  0  0  0  0  0  0
  191.1490  177.4200  142.6610 C   0  0  0  0  0  0  0  0  0  0  0  0
  190.9790  175.1690  143.3860 O   0  0  0  0  0  0  0  0  0  0  0  0
  191.2740  176.3590  143.6810 C   0  0  0  0  0  0  0  0  0  0  0  0
  191.7110  176.6800  145.0030 N   0  0  0  0  0  2  0  0  0  0  0  0
  191.9300  175.6610  146.0170 C   0  0  0  0  0  2  0  0  0  0  0  0
  191.0000  177.0860  147.6850 O   0  0  0  0  0  0  0  0  0  0  0  0
  191.9220  176.2920  147.3640 C   0  0  0  0  0  0  0  0  0  0  0  0
  192.9110  175.9700  148.2840 O   0  0  0  0  0  1  0  0  0  0  0  0
  188.5210  178.4680  142.2090 C   0  0  0  0  0  2  0  0  0  0  0  0
  187.5030  177.3640  142.4410 C   0  0  0  0  0  2  0  0  0  0  0  0
  186.1260  177.9640  142.7020 C   0  0  1  0  0  3  0  0  0  0  0  0
  185.4840  178.4070  146.9270 C   0  0  0  0  0  3  0  0  0  0  0  0
  185.8790  178.0990  144.1740 C   0  0  0  0  0  0  0  0  0  0  0  0
  186.8550  177.6640  145.0760 C   0  0  0  0  0  3  0  0  0  0  0  0
  184.7060  178.6960  144.6550 C   0  0  0  0  0  3  0  0  0  0  0  0
  186.6660  177.8150  146.4530 C   0  0  0  0  0  0  0  0  0  0  0  0
  184.5070  178.8450  146.0300 C   0  0  0  0  0  3  0  0  0  0  0  0
  187.6640  177.3720  147.3250 O   0  0  0  0  0  0  0  0  0  0  0  0
  187.8180  177.8850  148.6400 C   0  0  0  0  0  1  0  0  0  0  0  0
  186.0260  179.2110  142.0810 O   0  0  0  0  0  0  0  0  0  0  0  0
  185.1510  179.0100  141.0120 C   0  0  0  0  0  1  0  0  0  0  0  0
  1  5  1  0  0  0  0
  2  5  1  0  0  0  0
  2 17  1  1  0  0  0
  3  2  1  0  0  0  0
  4  3  2  0  0  0  0
  5  9  1  1  0  0  0
  6  1  1  0  0  0  0
  7  4  1  0  0  0  0
  7  6  1  0  0  0  0
  9  8  2  0  0  0  0
  9 11  1  0  0  0  0
 10 11  2  0  0  0  0
 11 12  1  0  0  0  0
 12 13  1  0  0  0  0
 13 15  1  0  0  0  0
 15 14  2  0  0  0  0
 15 16  1  0  0  0  0
 17 18  1  0  0  0  0
 19 18  1  1  0  0  0
 19 21  1  0  0  0  0
 21 23  2  0  0  0  0
 21 22  1  0  0  0  0
 22 24  2  0  0  0  0
 23 25  1  0  0  0  0
 24 20  1  0  0  0  0
 24 26  1  0  0  0  0
 25 20  2  0  0  0  0
 26 27  1  0  0  0  0
 28 19  1  0  0  0  0
 29 28  1  0  0  0  0
M  END
>  <MODEL>
7

>  <REMARK>
 VINA RESULT:      -8.0      2.442      5.983
  Name = 
  10 active torsions:
  status: ('A' for Active; 'I' for Inactive)
    1  A    between atoms: C_3  and  C_24
    2  A    between atoms: C_4  and  C_16
    3  A    between atoms: C_4  and  N_27
    4  A    between atoms: C_5  and  C_20
    5  A    between atoms: O_6  and  C_19
    6  A    between atoms: C_13  and  C_17
    7  A    between atoms: C_14  and  C_17
    8  A    between atoms: C_20  and  C_22
    9  A    between atoms: C_20  and  O_25
   10  A    between atoms: C_22  and  C_24
                            x       y       z     vdW  Elec       q    Type
                         _______ _______ _______ _____ _____    ______ ____

>  <TORSDO>
F 10

$$$$
=
 OpenBabel11062416183D

 29 30  0  0  1  0  0  0  0  0999 V2000
  189.3560  177.0140  145.9160 C   0  0  0  0  0  2  0  0  0  0  0  0
  186.9730  177.2710  145.0560 C   0  0  2  0  0  3  0  0  0  0  0  0
  186.4160  178.2760  146.0280 C   0  0  0  0  0  3  0  0  0  0  0  0
  186.8340  178.4160  147.2910 C   0  0  0  0  0  3  0  0  0  0  0  0
  188.4710  177.5270  144.7780 C   0  0  2  0  0  3  0  0  0  0  0  0
  189.2460  177.8600  147.1760 C   0  0  0  0  0  2  0  0  0  0  0  0
  187.9300  177.5910  147.8870 C   0  0  0  0  0  2  0  0  0  0  0  0
  189.0180  175.6640  143.4020 O   0  0  0  0  0  0  0  0  0  0  0  0
  188.9520  176.9190  143.4860 C   0  0  0  0  0  0  0  0  0  0  0  0
  190.2110  178.6450  142.4570 O   0  0  0  0  0  0  0  0  0  0  0  0
  189.3380  177.7440  142.3230 C   0  0  0  0  0  0  0  0  0  0  0  0
  188.7140  177.5360  141.0550 N   0  0  0  0  0  2  0  0  0  0  0  0
  189.1190  178.2630  139.8620 C   0  0  0  0  0  2  0  0  0  0  0  0
  191.0600  176.9230  139.5310 O   0  0  0  0  0  1  0  0  0  0  0  0
  190.0090  177.4050  139.0360 C   0  0  0  0  0  0  0  0  0  0  0  0
  189.6560  177.1020  137.7280 O   0  0  0  0  0  0  0  0  0  0  0  0
  186.1340  177.3430  143.7890 C   0  0  0  0  0  2  0  0  0  0  0  0
  185.9090  178.7930  143.3940 C   0  0  0  0  0  2  0  0  0  0  0  0
  184.4600  179.0060  142.9740 C   0  0  1  0  0  3  0  0  0  0  0  0
  183.9720  177.8710  138.8590 C   0  0  0  0  0  3  0  0  0  0  0  0
  184.2650  178.6270  141.5370 C   0  0  0  0  0  0  0  0  0  0  0  0
  185.2290  178.9960  140.5940 C   0  0  0  0  0  3  0  0  0  0  0  0
  183.1560  177.8720  141.1360 C   0  0  0  0  0  3  0  0  0  0  0  0
  185.0910  178.6220  139.2540 C   0  0  0  0  0  0  0  0  0  0  0  0
  183.0080  177.4970  139.7980 C   0  0  0  0  0  3  0  0  0  0  0  0
  186.0760  179.0050  138.3400 O   0  0  0  0  0  0  0  0  0  0  0  0
  186.4120  178.2260  137.2020 C   0  0  0  0  0  1  0  0  0  0  0  0
  183.6130  178.2520  143.7890 O   0  0  0  0  0  0  0  0  0  0  0  0
  183.0620  179.1720  144.6830 C   0  0  0  0  0  1  0  0  0  0  0  0
  1  6  1  0  0  0  0
  2 17  1  6  0  0  0
  2  3  1  0  0  0  0
  3  4  2  0  0  0  0
  4  7  1  0  0  0  0
  5  9  1  6  0  0  0
  5  2  1  0  0  0  0
  5  1  1  0  0  0  0
  6  7  1  0  0  0  0
  8  9  2  0  0  0  0
 11 10  2  0  0  0  0
 11  9  1  0  0  0  0
 12 11  1  0  0  0  0
 13 12  1  0  0  0  0
 15 14  1  0  0  0  0
 15 13  1  0  0  0  0
 16 15  2  0  0  0  0
 18 17  1  0  0  0  0
 19 18  1  1  0  0  0
 19 28  1  0  0  0  0
 20 24  2  0  0  0  0
 20 25  1  0  0  0  0
 21 19  1  0  0  0  0
 22 21  2  0  0  0  0
 23 21  1  0  0  0  0
 24 22  1  0  0  0  0
 25 23  2  0  0  0  0
 26 24  1  0  0  0  0
 27 26  1  0  0  0  0
 28 29  1  0  0  0  0
M  END
>  <MODEL>
8

>  <REMARK>
 VINA RESULT:      -7.7      1.651      3.261
  Name = 
  10 active torsions:
  status: ('A' for Active; 'I' for Inactive)
    1  A    between atoms: C_3  and  C_24
    2  A    between atoms: C_4  and  C_16
    3  A    between atoms: C_4  and  N_27
    4  A    between atoms: C_5  and  C_20
    5  A    between atoms: O_6  and  C_19
    6  A    between atoms: C_13  and  C_17
    7  A    between atoms: C_14  and  C_17
    8  A    between atoms: C_20  and  C_22
    9  A    between atoms: C_20  and  O_25
   10  A    between atoms: C_22  and  C_24
                            x       y       z     vdW  Elec       q    Type
                         _______ _______ _______ _____ _____    ______ ____

>  <TORSDO>
F 10

$$$$
=
 OpenBabel11062416183D

 29 30  0  0  1  0  0  0  0  0999 V2000
  185.4110  178.4120  145.6440 C   0  0  0  0  0  2  0  0  0  0  0  0
  186.7990  177.2850  143.8300 C   0  0  2  0  0  3  0  0  0  0  0  0
  186.4610  178.1300  142.6330 C   0  0  0  0  0  3  0  0  0  0  0  0
  185.3030  178.7800  142.4710 C   0  0  0  0  0  3  0  0  0  0  0  0
  186.8220  178.1270  145.1260 C   0  0  2  0  0  3  0  0  0  0  0  0
  184.6550  179.4090  144.7780 C   0  0  0  0  0  2  0  0  0  0  0  0
  184.2020  178.7560  143.4830 C   0  0  0  0  0  2  0  0  0  0  0  0
  187.0240  176.7470  147.0550 O   0  0  0  0  0  0  0  0  0  0  0  0
  187.6210  177.4950  146.2360 C   0  0  0  0  0  0  0  0  0  0  0  0
  189.6390  178.6280  145.7210 O   0  0  0  0  0  0  0  0  0  0  0  0
  189.0740  177.7190  146.3870 C   0  0  0  0  0  0  0  0  0  0  0  0
  189.8390  176.9000  147.2720 N   0  0  0  0  0  2  0  0  0  0  0  0
  191.2530  177.1350  147.5200 C   0  0  0  0  0  2  0  0  0  0  0  0
  192.7140  175.2570  147.6360 O   0  0  0  0  0  1  0  0  0  0  0  0
  192.0520  176.0400  146.9080 C   0  0  0  0  0  0  0  0  0  0  0  0
  192.0340  175.8580  145.5310 O   0  0  0  0  0  0  0  0  0  0  0  0
  188.1380  176.6150  143.5580 C   0  0  0  0  0  2  0  0  0  0  0  0
  188.9990  177.5090  142.6810 C   0  0  0  0  0  2  0  0  0  0  0  0
  189.9070  176.6630  141.7980 C   0  0  1  0  0  3  0  0  0  0  0  0
  189.6450  177.8630  137.6810 C   0  0  0  0  0  3  0  0  0  0  0  0
  189.8220  177.1100  140.3700 C   0  0  0  0  0  0  0  0  0  0  0  0
  190.7300  176.6000  139.4360 C   0  0  0  0  0  3  0  0  0  0  0  0
  188.8200  177.9950  139.9510 C   0  0  0  0  0  3  0  0  0  0  0  0
  190.6480  176.9700  138.0910 C   0  0  0  0  0  0  0  0  0  0  0  0
  188.7340  178.3740  138.6090 C   0  0  0  0  0  3  0  0  0  0  0  0
  191.5690  176.4370  137.1860 O   0  0  0  0  0  0  0  0  0  0  0  0
  191.2080  175.4890  136.1920 C   0  0  0  0  0  1  0  0  0  0  0  0
  191.2260  176.7480  142.2510 O   0  0  0  0  0  0  0  0  0  0  0  0
  191.3190  178.0060  142.8500 C   0  0  0  0  0  1  0  0  0  0  0  0
  2 17  1  6  0  0  0
  2  5  1  0  0  0  0
  3  2  1  0  0  0  0
  4  3  2  0  0  0  0
  4  7  1  0  0  0  0
  5  1  1  0  0  0  0
  5  9  1  1  0  0  0
  6  1  1  0  0  0  0
  7  6  1  0  0  0  0
  9 11  1  0  0  0  0
  9  8  2  0  0  0  0
 10 11  2  0  0  0  0
 11 12  1  0  0  0  0
 12 13  1  0  0  0  0
 15 13  1  0  0  0  0
 15 14  1  0  0  0  0
 16 15  2  0  0  0  0
 18 17  1  0  0  0  0
 19 28  1  0  0  0  0
 19 18  1  1  0  0  0
 20 24  2  0  0  0  0
 20 25  1  0  0  0  0
 21 19  1  0  0  0  0
 22 21  2  0  0  0  0
 23 21  1  0  0  0  0
 24 22  1  0  0  0  0
 25 23  2  0  0  0  0
 26 24  1  0  0  0  0
 27 26  1  0  0  0  0
 28 29  1  0  0  0  0
M  END
>  <MODEL>
9

>  <REMARK>
 VINA RESULT:      -7.6      2.674      7.292
  Name = 
  10 active torsions:
  status: ('A' for Active; 'I' for Inactive)
    1  A    between atoms: C_3  and  C_24
    2  A    between atoms: C_4  and  C_16
    3  A    between atoms: C_4  and  N_27
    4  A    between atoms: C_5  and  C_20
    5  A    between atoms: O_6  and  C_19
    6  A    between atoms: C_13  and  C_17
    7  A    between atoms: C_14  and  C_17
    8  A    between atoms: C_20  and  C_22
    9  A    between atoms: C_20  and  O_25
   10  A    between atoms: C_22  and  C_24
                            x       y       z     vdW  Elec       q    Type
                         _______ _______ _______ _____ _____    ______ ____

>  <TORSDO>
F 10

$$$$
