=
 OpenBabel11062415353D

 35 39  0  0  1  0  0  0  0  0999 V2000
  186.1050  176.5760  143.7410 O   0  0  0  0  0  1  0  0  0  0  0  0
  186.2660  177.8930  144.1770 C   0  0  2  0  0  0  0  0  0  0  0  0
  186.7930  178.1210  147.1400 C   0  0  1  0  0  3  0  0  0  0  0  0
  189.1150  177.7900  146.7740 C   0  0  2  0  0  3  0  0  0  0  0  0
  185.7180  178.9580  146.4430 C   0  0  0  0  0  2  0  0  0  0  0  0
  188.8680  178.3970  148.0750 N   0  0  0  0  0  2  0  0  0  0  0  0
  187.7700  177.4550  146.1830 C   0  0  2  0  0  3  0  0  0  0  0  0
  187.6800  178.0210  144.7640 C   0  0  0  0  0  2  0  0  0  0  0  0
  187.5790  178.9610  148.0280 N   0  0  0  0  0  2  0  0  0  0  0  0
  185.1770  178.2010  145.2330 C   0  0  0  0  0  2  0  0  0  0  0  0
  184.8620  179.3870  140.8020 C   0  0  1  0  0  3  0  0  0  0  0  0
  186.2150  178.8520  142.9650 C   0  0  2  0  0  3  0  0  0  0  0  0
  184.2050  177.4600  139.2760 C   0  0  0  0  0  1  0  0  0  0  0  0
  186.0700  179.1940  140.1210 O   0  0  0  0  0  1  0  0  0  0  0  0
  183.7080  178.5500  140.2250 C   0  0  1  0  0  0  0  0  0  0  0  0
  185.2500  179.8770  143.1190 O   0  0  0  0  0  0  0  0  0  0  0  0
  183.6650  178.1070  142.4970 C   0  0  2  0  0  3  0  0  0  0  0  0
  184.9370  178.8680  142.1890 C   0  0  1  0  0  0  0  0  0  0  0  0
  182.9790  177.9270  141.2750 O   0  0  0  0  0  0  0  0  0  0  0  0
  182.6360  178.3740  144.7410 F   0  0  0  0  0  0  0  0  0  0  0  0
  182.7540  178.8120  143.4590 C   0  0  0  0  0  0  0  0  0  0  0  0
  182.1430  179.8050  143.1000 O   0  0  0  0  0  0  0  0  0  0  0  0
  182.7860  179.4980  139.4620 C   0  0  0  0  0  2  0  0  0  0  0  0
  181.3890  179.2260  139.7610 N   0  0  0  0  0  1  0  0  0  0  0  0
  189.9450  176.5310  146.9500 C   0  0  0  0  0  2  0  0  0  0  0  0
  191.3210  176.7170  146.3330 C   0  0  0  0  0  2  0  0  0  0  0  0
  191.2100  177.4740  145.0200 C   0  0  0  0  0  2  0  0  0  0  0  0
  189.9090  176.7010  141.7500 C   0  0  1  0  0  3  0  0  0  0  0  0
  192.0150  177.5820  142.7610 C   0  0  0  0  0  2  0  0  0  0  0  0
  191.0650  175.5190  143.6180 C   0  0  0  0  0  2  0  0  0  0  0  0
  190.6770  177.9620  142.1190 C   0  0  0  0  0  2  0  0  0  0  0  0
  189.7060  175.8550  142.9970 C   0  0  0  0  0  2  0  0  0  0  0  0
  191.8490  176.7210  143.9420 N   0  0  0  0  0  0  0  0  0  0  0  0
  188.9480  177.4610  139.9070 C   0  0  0  0  0  1  0  0  0  0  0  0
  188.6690  177.0490  141.2110 O   0  0  0  0  0  0  0  0  0  0  0  0
  2  1  1  6  0  0  0
  2  8  1  0  0  0  0
  2 10  1  0  0  0  0
  3  5  1  6  0  0  0
  3  9  1  0  0  0  0
  4 25  1  1  0  0  0
  4  6  1  0  0  0  0
  7  8  1  6  0  0  0
  7  4  1  0  0  0  0
  7  3  1  0  0  0  0
  9  6  1  0  0  0  0
 10  5  1  0  0  0  0
 11 14  1  6  0  0  0
 11 18  1  0  0  0  0
 12 16  1  1  0  0  0
 12  2  1  0  0  0  0
 15 13  1  6  0  0  0
 15 11  1  0  0  0  0
 15 19  1  0  0  0  0
 17 21  1  1  0  0  0
 18 17  1  0  0  0  0
 18 12  1  0  0  0  0
 18 16  1  1  0  0  0
 19 17  1  0  0  0  0
 21 20  1  0  0  0  0
 22 21  2  0  0  0  0
 23 24  1  0  0  0  0
 23 15  1  0  0  0  0
 26 25  1  0  0  0  0
 27 26  1  0  0  0  0
 28 35  1  1  0  0  0
 28 31  1  0  0  0  0
 28 32  1  0  0  0  0
 29 33  1  0  0  0  0
 30 33  1  0  0  0  0
 31 29  1  0  0  0  0
 32 30  1  0  0  0  0
 33 27  1  0  0  0  0
 34 35  1  0  0  0  0
M  END
>  <MODEL>
1

>  <REMARK>
 VINA RESULT:      -7.3      0.000      0.000
  Name = 
  8 active torsions:
  status: ('A' for Active; 'I' for Inactive)
    1  A    between atoms: C_2  and  O_29
    2  A    between atoms: C_3  and  C_14
    3  A    between atoms: C_9  and  C_19
    4  A    between atoms: C_11  and  C_23
    5  A    between atoms: C_11  and  C_31
    6  A    between atoms: C_13  and  C_23
    7  A    between atoms: C_17  and  C_27
    8  A    between atoms: N_30  and  C_31
                            x       y       z     vdW  Elec       q    Type
                         _______ _______ _______ _____ _____    ______ ____

>  <TORSDO>
F 8

$$$$
=
 OpenBabel11062415353D

 35 39  0  0  1  0  0  0  0  0999 V2000
  190.9230  174.8780  138.3470 O   0  0  0  0  0  1  0  0  0  0  0  0
  190.5700  175.8390  137.3970 C   0  0  2  0  0  0  0  0  0  0  0  0
  187.6880  176.7140  137.5910 C   0  0  1  0  0  3  0  0  0  0  0  0
  188.2660  178.3230  139.2380 C   0  0  2  0  0  3  0  0  0  0  0  0
  188.3150  176.2840  136.2630 C   0  0  0  0  0  2  0  0  0  0  0  0
  186.9780  178.6300  138.6320 N   0  0  0  0  0  2  0  0  0  0  0  0
  188.7040  176.9900  138.6890 C   0  0  2  0  0  3  0  0  0  0  0  0
  190.1330  177.1030  138.1530 C   0  0  0  0  0  2  0  0  0  0  0  0
  186.9240  177.9360  137.4070 N   0  0  0  0  0  2  0  0  0  0  0  0
  189.4270  175.2710  136.5220 C   0  0  0  0  0  2  0  0  0  0  0  0
  194.1980  175.4280  135.8950 C   0  0  1  0  0  3  0  0  0  0  0  0
  191.8160  176.2390  136.5740 C   0  0  2  0  0  3  0  0  0  0  0  0
  195.7240  174.4960  137.7040 C   0  0  0  0  0  1  0  0  0  0  0  0
  194.6560  176.6220  136.4650 O   0  0  0  0  0  1  0  0  0  0  0  0
  194.9230  174.1870  136.4400 C   0  0  1  0  0  0  0  0  0  0  0  0
  191.8740  175.5870  135.3180 O   0  0  0  0  0  0  0  0  0  0  0  0
  192.6730  173.6830  136.6470 C   0  0  2  0  0  3  0  0  0  0  0  0
  192.7970  175.1470  136.2860 C   0  0  1  0  0  0  0  0  0  0  0  0
  193.9830  173.1640  136.7470 O   0  0  0  0  0  0  0  0  0  0  0  0
  190.5850  172.6290  135.8130 F   0  0  0  0  0  0  0  0  0  0  0  0
  191.9120  172.8710  135.6400 C   0  0  0  0  0  0  0  0  0  0  0  0
  192.4770  172.4570  134.6420 O   0  0  0  0  0  0  0  0  0  0  0  0
  195.8730  173.6910  135.3530 C   0  0  0  0  0  2  0  0  0  0  0  0
  195.8780  172.2380  135.2820 N   0  0  0  0  0  1  0  0  0  0  0  0
  188.1110  178.2510  140.7470 C   0  0  0  0  0  2  0  0  0  0  0  0
  189.4130  177.8010  141.3890 C   0  0  0  0  0  2  0  0  0  0  0  0
  189.3830  178.0720  142.8850 C   0  0  0  0  0  2  0  0  0  0  0  0
  187.6150  177.3880  145.9490 C   0  0  1  0  0  3  0  0  0  0  0  0
  187.9090  176.3590  143.6940 C   0  0  0  0  0  2  0  0  0  0  0  0
  189.8760  176.9790  144.9750 C   0  0  0  0  0  2  0  0  0  0  0  0
  187.0300  177.2770  144.5490 C   0  0  0  0  0  2  0  0  0  0  0  0
  189.0400  177.9120  145.8560 C   0  0  0  0  0  2  0  0  0  0  0  0
  189.3060  176.8160  143.6290 N   0  0  0  0  0  0  0  0  0  0  0  0
  185.7990  178.6500  145.8680 C   0  0  0  0  0  1  0  0  0  0  0  0
  186.8420  178.2640  146.7120 O   0  0  0  0  0  0  0  0  0  0  0  0
  2  8  1  0  0  0  0
  2  1  1  1  0  0  0
  3  5  1  6  0  0  0
  3  7  1  0  0  0  0
  4 25  1  1  0  0  0
  5 10  1  0  0  0  0
  6  4  1  0  0  0  0
  7  8  1  6  0  0  0
  7  4  1  0  0  0  0
  9  3  1  0  0  0  0
  9  6  1  0  0  0  0
 10  2  1  0  0  0  0
 11 18  1  0  0  0  0
 11 15  1  0  0  0  0
 11 14  1  1  0  0  0
 12 16  1  6  0  0  0
 12  2  1  0  0  0  0
 15 19  1  0  0  0  0
 15 13  1  1  0  0  0
 17 21  1  6  0  0  0
 17 19  1  0  0  0  0
 18 16  1  6  0  0  0
 18 12  1  0  0  0  0
 18 17  1  0  0  0  0
 21 20  1  0  0  0  0
 22 21  2  0  0  0  0
 23 15  1  0  0  0  0
 24 23  1  0  0  0  0
 25 26  1  0  0  0  0
 26 27  1  0  0  0  0
 27 33  1  0  0  0  0
 28 35  1  1  0  0  0
 29 31  1  0  0  0  0
 30 32  1  0  0  0  0
 31 28  1  0  0  0  0
 32 28  1  0  0  0  0
 33 29  1  0  0  0  0
 33 30  1  0  0  0  0
 34 35  1  0  0  0  0
M  END
>  <MODEL>
2

>  <REMARK>
 VINA RESULT:      -7.0      5.591      9.691
  Name = 
  8 active torsions:
  status: ('A' for Active; 'I' for Inactive)
    1  A    between atoms: C_2  and  O_29
    2  A    between atoms: C_3  and  C_14
    3  A    between atoms: C_9  and  C_19
    4  A    between atoms: C_11  and  C_23
    5  A    between atoms: C_11  and  C_31
    6  A    between atoms: C_13  and  C_23
    7  A    between atoms: C_17  and  C_27
    8  A    between atoms: N_30  and  C_31
                            x       y       z     vdW  Elec       q    Type
                         _______ _______ _______ _____ _____    ______ ____

>  <TORSDO>
F 8

$$$$
=
 OpenBabel11062415353D

 35 39  0  0  1  0  0  0  0  0999 V2000
  191.1960  174.7920  138.3820 O   0  0  0  0  0  1  0  0  0  0  0  0
  190.7610  175.7870  137.5050 C   0  0  2  0  0  0  0  0  0  0  0  0
  187.9190  176.6700  138.0070 C   0  0  1  0  0  3  0  0  0  0  0  0
  188.6660  178.2170  139.6460 C   0  0  2  0  0  3  0  0  0  0  0  0
  188.4110  176.2840  136.6110 C   0  0  0  0  0  2  0  0  0  0  0  0
  187.3280  178.5520  139.1770 N   0  0  0  0  0  2  0  0  0  0  0  0
  189.0380  176.9020  139.0110 C   0  0  2  0  0  3  0  0  0  0  0  0
  190.4100  177.0260  138.3430 C   0  0  0  0  0  2  0  0  0  0  0  0
  187.1510  177.9020  137.9410 N   0  0  0  0  0  2  0  0  0  0  0  0
  189.5340  175.2570  136.7250 C   0  0  0  0  0  2  0  0  0  0  0  0
  194.2510  175.4390  135.6920 C   0  0  1  0  0  3  0  0  0  0  0  0
  191.9250  176.2100  136.5790 C   0  0  2  0  0  3  0  0  0  0  0  0
  195.9410  174.5230  137.3580 C   0  0  0  0  0  1  0  0  0  0  0  0
  194.7390  176.6370  136.2270 O   0  0  0  0  0  1  0  0  0  0  0  0
  195.0390  174.2060  136.1660 C   0  0  1  0  0  0  0  0  0  0  0  0
  191.8840  175.5640  135.3190 O   0  0  0  0  0  0  0  0  0  0  0  0
  192.8230  173.6670  136.5650 C   0  0  2  0  0  3  0  0  0  0  0  0
  192.8930  175.1350  136.2020 C   0  0  1  0  0  0  0  0  0  0  0  0
  194.1450  173.1680  136.5480 O   0  0  0  0  0  0  0  0  0  0  0  0
  190.6760  172.6190  135.8880 F   0  0  0  0  0  0  0  0  0  0  0  0
  191.9900  172.8480  135.6220 C   0  0  0  0  0  0  0  0  0  0  0  0
  192.4830  172.4150  134.5940 O   0  0  0  0  0  0  0  0  0  0  0  0
  195.8990  173.7290  134.9990 C   0  0  0  0  0  2  0  0  0  0  0  0
  196.7700  172.6360  135.4000 N   0  0  0  0  0  1  0  0  0  0  0  0
  188.6580  178.0930  141.1590 C   0  0  0  0  0  2  0  0  0  0  0  0
  189.4470  176.8680  141.5920 C   0  0  0  0  0  2  0  0  0  0  0  0
  189.3870  176.7110  143.1030 C   0  0  0  0  0  2  0  0  0  0  0  0
  190.8250  176.9280  146.3990 C   0  0  1  0  0  3  0  0  0  0  0  0
  191.3970  177.6030  144.0640 C   0  0  0  0  0  2  0  0  0  0  0  0
  189.2320  178.2190  144.9760 C   0  0  0  0  0  2  0  0  0  0  0  0
  191.5700  176.5220  145.1360 C   0  0  0  0  0  2  0  0  0  0  0  0
  189.3580  177.1490  146.0650 C   0  0  0  0  0  2  0  0  0  0  0  0
  189.9840  177.8730  143.7590 N   0  0  0  0  0  0  0  0  0  0  0  0
  192.3150  175.7820  147.5650 C   0  0  0  0  0  1  0  0  0  0  0  0
  190.9420  175.9200  147.3570 O   0  0  0  0  0  0  0  0  0  0  0  0
  2  8  1  0  0  0  0
  2  1  1  1  0  0  0
  3  5  1  6  0  0  0
  3  7  1  0  0  0  0
  4 25  1  1  0  0  0
  5 10  1  0  0  0  0
  6  4  1  0  0  0  0
  7  8  1  6  0  0  0
  7  4  1  0  0  0  0
  9  3  1  0  0  0  0
  9  6  1  0  0  0  0
 10  2  1  0  0  0  0
 11 15  1  0  0  0  0
 11 18  1  0  0  0  0
 11 14  1  1  0  0  0
 12 16  1  6  0  0  0
 12  2  1  0  0  0  0
 15 19  1  0  0  0  0
 15 13  1  1  0  0  0
 17 21  1  6  0  0  0
 18 16  1  6  0  0  0
 18 17  1  0  0  0  0
 18 12  1  0  0  0  0
 19 17  1  0  0  0  0
 21 20  1  0  0  0  0
 22 21  2  0  0  0  0
 23 24  1  0  0  0  0
 23 15  1  0  0  0  0
 25 26  1  0  0  0  0
 26 27  1  0  0  0  0
 27 33  1  0  0  0  0
 28 35  1  1  0  0  0
 29 31  1  0  0  0  0
 30 32  1  0  0  0  0
 31 28  1  0  0  0  0
 32 28  1  0  0  0  0
 33 29  1  0  0  0  0
 33 30  1  0  0  0  0
 35 34  1  0  0  0  0
M  END
>  <MODEL>
3

>  <REMARK>
 VINA RESULT:      -7.0      5.714      9.709
  Name = 
  8 active torsions:
  status: ('A' for Active; 'I' for Inactive)
    1  A    between atoms: C_2  and  O_29
    2  A    between atoms: C_3  and  C_14
    3  A    between atoms: C_9  and  C_19
    4  A    between atoms: C_11  and  C_23
    5  A    between atoms: C_11  and  C_31
    6  A    between atoms: C_13  and  C_23
    7  A    between atoms: C_17  and  C_27
    8  A    between atoms: N_30  and  C_31
                            x       y       z     vdW  Elec       q    Type
                         _______ _______ _______ _____ _____    ______ ____

>  <TORSDO>
F 8

$$$$
=
 OpenBabel11062415353D

 35 39  0  0  1  0  0  0  0  0999 V2000
  188.2850  178.5950  140.0260 O   0  0  0  0  0  1  0  0  0  0  0  0
  189.1020  177.4750  140.1960 C   0  0  2  0  0  0  0  0  0  0  0  0
  191.0680  177.7580  142.4680 C   0  0  1  0  0  3  0  0  0  0  0  0
  189.4300  176.9960  144.0080 C   0  0  2  0  0  3  0  0  0  0  0  0
  191.5040  177.3060  141.0740 C   0  0  0  0  0  2  0  0  0  0  0  0
  190.7710  176.8740  144.5630 N   0  0  0  0  0  2  0  0  0  0  0  0
  189.5630  177.7090  142.6880 C   0  0  2  0  0  3  0  0  0  0  0  0
  188.8360  176.9140  141.6010 C   0  0  0  0  0  2  0  0  0  0  0  0
  191.6690  176.9050  143.4790 N   0  0  0  0  0  2  0  0  0  0  0  0
  190.5770  177.9090  140.0210 C   0  0  0  0  0  2  0  0  0  0  0  0
  187.1490  175.9040  137.1450 C   0  0  1  0  0  3  0  0  0  0  0  0
  188.6790  176.3680  139.2030 C   0  0  2  0  0  3  0  0  0  0  0  0
  184.7420  176.7270  137.2130 C   0  0  0  0  0  1  0  0  0  0  0  0
  186.5710  174.8990  137.9290 O   0  0  0  0  0  1  0  0  0  0  0  0
  186.1120  176.8720  136.5510 C   0  0  1  0  0  0  0  0  0  0  0  0
  189.3360  176.4750  137.9530 O   0  0  0  0  0  0  0  0  0  0  0  0
  187.6860  178.2480  137.5440 C   0  0  2  0  0  3  0  0  0  0  0  0
  187.9710  176.8230  137.9670 C   0  0  1  0  0  0  0  0  0  0  0  0
  186.5450  178.2170  136.7120 O   0  0  0  0  0  0  0  0  0  0  0  0
  189.2410  178.3690  135.6130 F   0  0  0  0  0  0  0  0  0  0  0  0
  188.8110  178.8950  136.7910 C   0  0  0  0  0  0  0  0  0  0  0  0
  189.3190  179.9180  137.2180 O   0  0  0  0  0  0  0  0  0  0  0  0
  185.9850  176.5560  135.0630 C   0  0  0  0  0  2  0  0  0  0  0  0
  186.6830  175.3260  134.7240 N   0  0  0  0  0  1  0  0  0  0  0  0
  188.5580  177.7980  144.9590 C   0  0  0  0  0  2  0  0  0  0  0  0
  187.2570  177.0610  145.2290 C   0  0  0  0  0  2  0  0  0  0  0  0
  186.2300  177.3990  144.1610 C   0  0  0  0  0  2  0  0  0  0  0  0
  183.0900  179.1620  144.0580 C   0  0  1  0  0  3  0  0  0  0  0  0
  185.2500  179.2660  145.3060 C   0  0  0  0  0  2  0  0  0  0  0  0
  185.2890  179.2090  142.8790 C   0  0  0  0  0  2  0  0  0  0  0  0
  183.8160  178.7260  145.3220 C   0  0  0  0  0  2  0  0  0  0  0  0
  183.8570  178.6650  142.8430 C   0  0  0  0  0  2  0  0  0  0  0  0
  185.9990  178.8410  144.1140 N   0  0  0  0  0  0  0  0  0  0  0  0
  181.2660  179.0000  142.8150 C   0  0  0  0  0  1  0  0  0  0  0  0
  181.8010  178.6280  144.0500 O   0  0  0  0  0  0  0  0  0  0  0  0
  2  1  1  6  0  0  0
  2  8  1  0  0  0  0
  3  5  1  6  0  0  0
  3  7  1  0  0  0  0
  3  9  1  0  0  0  0
  4  6  1  0  0  0  0
  4 25  1  1  0  0  0
  7  8  1  6  0  0  0
  7  4  1  0  0  0  0
  9  6  1  0  0  0  0
 10  2  1  0  0  0  0
 10  5  1  0  0  0  0
 11 14  1  1  0  0  0
 11 18  1  0  0  0  0
 12 16  1  6  0  0  0
 12  2  1  0  0  0  0
 15 19  1  0  0  0  0
 15 11  1  0  0  0  0
 15 13  1  1  0  0  0
 17 21  1  6  0  0  0
 17 18  1  0  0  0  0
 18 16  1  6  0  0  0
 18 12  1  0  0  0  0
 19 17  1  0  0  0  0
 20 21  1  0  0  0  0
 21 22  2  0  0  0  0
 23 15  1  0  0  0  0
 24 23  1  0  0  0  0
 25 26  1  0  0  0  0
 27 26  1  0  0  0  0
 28 35  1  1  0  0  0
 28 31  1  0  0  0  0
 29 31  1  0  0  0  0
 30 33  1  0  0  0  0
 32 30  1  0  0  0  0
 32 28  1  0  0  0  0
 33 27  1  0  0  0  0
 33 29  1  0  0  0  0
 34 35  1  0  0  0  0
M  END
>  <MODEL>
4

>  <REMARK>
 VINA RESULT:      -6.7      3.312      6.441
  Name = 
  8 active torsions:
  status: ('A' for Active; 'I' for Inactive)
    1  A    between atoms: C_2  and  O_29
    2  A    between atoms: C_3  and  C_14
    3  A    between atoms: C_9  and  C_19
    4  A    between atoms: C_11  and  C_23
    5  A    between atoms: C_11  and  C_31
    6  A    between atoms: C_13  and  C_23
    7  A    between atoms: C_17  and  C_27
    8  A    between atoms: N_30  and  C_31
                            x       y       z     vdW  Elec       q    Type
                         _______ _______ _______ _____ _____    ______ ____

>  <TORSDO>
F 8

$$$$
=
 OpenBabel11062415353D

 35 39  0  0  1  0  0  0  0  0999 V2000
  188.7760  175.9800  138.4890 O   0  0  0  0  0  1  0  0  0  0  0  0
  188.1750  177.1960  138.1580 C   0  0  2  0  0  0  0  0  0  0  0  0
  187.1620  177.2990  135.3160 C   0  0  1  0  0  3  0  0  0  0  0  0
  185.1200  176.2890  135.9860 C   0  0  2  0  0  3  0  0  0  0  0  0
  188.0390  178.4060  135.9020 C   0  0  0  0  0  2  0  0  0  0  0  0
  184.9790  176.9590  134.7010 N   0  0  0  0  0  2  0  0  0  0  0  0
  186.5770  176.3600  136.3610 C   0  0  2  0  0  3  0  0  0  0  0  0
  186.7130  176.9070  137.7840 C   0  0  0  0  0  2  0  0  0  0  0  0
  186.0400  177.8800  134.5980 N   0  0  0  0  0  2  0  0  0  0  0  0
  188.9540  177.8270  136.9780 C   0  0  0  0  0  2  0  0  0  0  0  0
  188.8990  178.2650  141.8890 C   0  0  1  0  0  3  0  0  0  0  0  0
  188.1290  178.1100  139.4040 C   0  0  2  0  0  3  0  0  0  0  0  0
  188.5630  176.2400  143.3920 C   0  0  0  0  0  1  0  0  0  0  0  0
  187.5410  178.4120  142.1950 O   0  0  0  0  0  1  0  0  0  0  0  0
  189.5790  177.1490  142.6980 C   0  0  1  0  0  0  0  0  0  0  0  0
  189.3320  178.8320  139.5970 O   0  0  0  0  0  0  0  0  0  0  0  0
  190.1500  176.7000  140.5000 C   0  0  2  0  0  3  0  0  0  0  0  0
  189.0890  177.7800  140.5010 C   0  0  1  0  0  0  0  0  0  0  0  0
  190.3860  176.3450  141.8470 O   0  0  0  0  0  0  0  0  0  0  0  0
  191.6520  176.9850  138.5440 F   0  0  0  0  0  0  0  0  0  0  0  0
  191.4490  177.1250  139.8810 C   0  0  0  0  0  0  0  0  0  0  0  0
  192.3150  177.6320  140.5740 O   0  0  0  0  0  0  0  0  0  0  0  0
  190.4600  177.8120  143.7530 C   0  0  0  0  0  2  0  0  0  0  0  0
  189.8560  177.7240  145.0740 N   0  0  0  0  0  1  0  0  0  0  0  0
  184.6750  174.8430  135.8560 C   0  0  0  0  0  2  0  0  0  0  0  0
  183.3740  174.6220  136.6080 C   0  0  0  0  0  2  0  0  0  0  0  0
  183.4320  175.2970  137.9690 C   0  0  0  0  0  2  0  0  0  0  0  0
  182.6100  178.5450  139.2940 C   0  0  1  0  0  3  0  0  0  0  0  0
  181.8040  176.9990  137.5070 C   0  0  0  0  0  2  0  0  0  0  0  0
  182.0760  176.1550  139.7670 C   0  0  0  0  0  2  0  0  0  0  0  0
  182.7110  178.1940  137.8160 C   0  0  0  0  0  2  0  0  0  0  0  0
  182.9910  177.3300  140.1240 C   0  0  0  0  0  2  0  0  0  0  0  0
  182.1180  175.8240  138.3340 N   0  0  0  0  0  0  0  0  0  0  0  0
  184.6030  178.9990  140.1410 C   0  0  0  0  0  1  0  0  0  0  0  0
  183.4740  179.6020  139.5840 O   0  0  0  0  0  0  0  0  0  0  0  0
  2  1  1  1  0  0  0
  2 12  1  0  0  0  0
  3  5  1  1  0  0  0
  3  7  1  0  0  0  0
  4 25  1  6  0  0  0
  4  7  1  0  0  0  0
  5 10  1  0  0  0  0
  6  4  1  0  0  0  0
  7  8  1  1  0  0  0
  8  2  1  0  0  0  0
  9  6  1  0  0  0  0
  9  3  1  0  0  0  0
 10  2  1  0  0  0  0
 11 14  1  1  0  0  0
 11 15  1  0  0  0  0
 12 16  1  6  0  0  0
 12 18  1  0  0  0  0
 15 13  1  1  0  0  0
 15 23  1  0  0  0  0
 17 21  1  1  0  0  0
 17 18  1  0  0  0  0
 17 19  1  0  0  0  0
 18 16  1  6  0  0  0
 18 11  1  0  0  0  0
 19 15  1  0  0  0  0
 20 21  1  0  0  0  0
 21 22  2  0  0  0  0
 23 24  1  0  0  0  0
 25 26  1  0  0  0  0
 26 27  1  0  0  0  0
 27 33  1  0  0  0  0
 28 35  1  6  0  0  0
 28 32  1  0  0  0  0
 29 31  1  0  0  0  0
 29 33  1  0  0  0  0
 30 32  1  0  0  0  0
 31 28  1  0  0  0  0
 33 30  1  0  0  0  0
 35 34  1  0  0  0  0
M  END
>  <MODEL>
5

>  <REMARK>
 VINA RESULT:      -6.5      3.599      9.123
  Name = 
  8 active torsions:
  status: ('A' for Active; 'I' for Inactive)
    1  A    between atoms: C_2  and  O_29
    2  A    between atoms: C_3  and  C_14
    3  A    between atoms: C_9  and  C_19
    4  A    between atoms: C_11  and  C_23
    5  A    between atoms: C_11  and  C_31
    6  A    between atoms: C_13  and  C_23
    7  A    between atoms: C_17  and  C_27
    8  A    between atoms: N_30  and  C_31
                            x       y       z     vdW  Elec       q    Type
                         _______ _______ _______ _____ _____    ______ ____

>  <TORSDO>
F 8

$$$$
=
 OpenBabel11062415353D

 35 39  0  0  1  0  0  0  0  0999 V2000
  193.7080  174.2390  137.9030 O   0  0  0  0  0  1  0  0  0  0  0  0
  193.3420  175.1510  136.9110 C   0  0  2  0  0  0  0  0  0  0  0  0
  190.3940  175.8020  136.9080 C   0  0  1  0  0  3  0  0  0  0  0  0
  190.7430  177.4830  138.5480 C   0  0  2  0  0  3  0  0  0  0  0  0
  191.1330  175.3950  135.6320 C   0  0  0  0  0  2  0  0  0  0  0  0
  189.4760  177.6760  137.8570 N   0  0  0  0  0  2  0  0  0  0  0  0
  191.3160  176.1780  138.0590 C   0  0  2  0  0  3  0  0  0  0  0  0
  192.7630  176.3910  137.6080 C   0  0  0  0  0  2  0  0  0  0  0  0
  189.5510  176.9560  136.6490 N   0  0  0  0  0  2  0  0  0  0  0  0
  192.3020  174.4780  135.9820 C   0  0  0  0  0  2  0  0  0  0  0  0
  197.1120  175.0640  135.7430 C   0  0  1  0  0  3  0  0  0  0  0  0
  194.6020  175.6300  136.1540 C   0  0  2  0  0  3  0  0  0  0  0  0
  198.5670  174.4780  137.7460 C   0  0  0  0  0  1  0  0  0  0  0  0
  197.3780  176.3480  136.2340 O   0  0  0  0  0  1  0  0  0  0  0  0
  197.9230  173.9690  136.4560 C   0  0  1  0  0  0  0  0  0  0  0  0
  194.8460  174.8880  134.9730 O   0  0  0  0  0  0  0  0  0  0  0  0
  195.7360  173.2130  136.5320 C   0  0  2  0  0  3  0  0  0  0  0  0
  195.7230  174.6470  136.0470 C   0  0  1  0  0  0  0  0  0  0  0  0
  197.0840  172.8680  136.7830 O   0  0  0  0  0  0  0  0  0  0  0  0
  193.8940  171.7780  135.6900 F   0  0  0  0  0  0  0  0  0  0  0  0
  195.1660  172.2340  135.5470 C   0  0  0  0  0  0  0  0  0  0  0  0
  195.8350  171.8720  134.5940 O   0  0  0  0  0  0  0  0  0  0  0  0
  199.0170  173.5050  135.4980 C   0  0  0  0  0  2  0  0  0  0  0  0
  199.1800  172.0600  135.5470 N   0  0  0  0  0  1  0  0  0  0  0  0
  190.5020  177.4290  140.0460 C   0  0  0  0  0  2  0  0  0  0  0  0
  189.0890  177.8860  140.3690 C   0  0  0  0  0  2  0  0  0  0  0  0
  188.9310  178.0870  141.8670 C   0  0  0  0  0  2  0  0  0  0  0  0
  188.5770  177.2670  145.3580 C   0  0  1  0  0  3  0  0  0  0  0  0
  188.4130  176.1230  143.1450 C   0  0  0  0  0  2  0  0  0  0  0  0
  190.3990  177.4210  143.6590 C   0  0  0  0  0  2  0  0  0  0  0  0
  187.6280  176.8370  144.2490 C   0  0  0  0  0  2  0  0  0  0  0  0
  189.6560  178.1660  144.7720 C   0  0  0  0  0  2  0  0  0  0  0  0
  189.4960  176.9530  142.5960 N   0  0  0  0  0  0  0  0  0  0  0  0
  188.5590  177.7070  147.5260 C   0  0  0  0  0  1  0  0  0  0  0  0
  187.8690  177.9610  146.3390 O   0  0  0  0  0  0  0  0  0  0  0  0
  2  8  1  0  0  0  0
  2  1  1  1  0  0  0
  3  5  1  6  0  0  0
  3  7  1  0  0  0  0
  4 25  1  1  0  0  0
  5 10  1  0  0  0  0
  6  4  1  0  0  0  0
  7  8  1  6  0  0  0
  7  4  1  0  0  0  0
  9  3  1  0  0  0  0
  9  6  1  0  0  0  0
 10  2  1  0  0  0  0
 11 18  1  0  0  0  0
 11 14  1  1  0  0  0
 11 15  1  0  0  0  0
 12 16  1  6  0  0  0
 12  2  1  0  0  0  0
 15 19  1  0  0  0  0
 15 13  1  1  0  0  0
 17 21  1  6  0  0  0
 17 19  1  0  0  0  0
 18 16  1  6  0  0  0
 18 12  1  0  0  0  0
 18 17  1  0  0  0  0
 21 20  1  0  0  0  0
 22 21  2  0  0  0  0
 23 24  1  0  0  0  0
 23 15  1  0  0  0  0
 25 26  1  0  0  0  0
 26 27  1  0  0  0  0
 27 33  1  0  0  0  0
 28 35  1  1  0  0  0
 29 31  1  0  0  0  0
 30 32  1  0  0  0  0
 31 28  1  0  0  0  0
 32 28  1  0  0  0  0
 33 29  1  0  0  0  0
 33 30  1  0  0  0  0
 35 34  1  0  0  0  0
M  END
>  <MODEL>
6

>  <REMARK>
 VINA RESULT:      -6.5      7.130     11.512
  Name = 
  8 active torsions:
  status: ('A' for Active; 'I' for Inactive)
    1  A    between atoms: C_2  and  O_29
    2  A    between atoms: C_3  and  C_14
    3  A    between atoms: C_9  and  C_19
    4  A    between atoms: C_11  and  C_23
    5  A    between atoms: C_11  and  C_31
    6  A    between atoms: C_13  and  C_23
    7  A    between atoms: C_17  and  C_27
    8  A    between atoms: N_30  and  C_31
                            x       y       z     vdW  Elec       q    Type
                         _______ _______ _______ _____ _____    ______ ____

>  <TORSDO>
F 8

$$$$
=
 OpenBabel11062415353D

 35 39  0  0  1  0  0  0  0  0999 V2000
  186.9390  179.2230  136.9450 O   0  0  0  0  0  1  0  0  0  0  0  0
  187.5940  177.9890  136.9570 C   0  0  2  0  0  0  0  0  0  0  0  0
  189.9640  177.9070  138.8240 C   0  0  1  0  0  3  0  0  0  0  0  0
  188.5400  177.3500  140.6400 C   0  0  2  0  0  3  0  0  0  0  0  0
  190.0620  177.4380  137.3720 C   0  0  0  0  0  2  0  0  0  0  0  0
  189.9260  177.0130  140.9360 N   0  0  0  0  0  2  0  0  0  0  0  0
  188.5350  178.0750  139.3200 C   0  0  2  0  0  3  0  0  0  0  0  0
  187.5090  177.4310  138.3860 C   0  0  0  0  0  2  0  0  0  0  0  0
  190.6030  176.9430  139.7030 N   0  0  0  0  0  2  0  0  0  0  0  0
  189.0600  178.2040  136.5120 C   0  0  0  0  0  2  0  0  0  0  0  0
  184.9390  175.1990  136.0890 C   0  0  1  0  0  3  0  0  0  0  0  0
  186.8330  176.9880  136.0570 C   0  0  2  0  0  3  0  0  0  0  0  0
  184.9210  173.4840  137.9680 C   0  0  0  0  0  1  0  0  0  0  0  0
  185.9100  174.3090  135.6150 O   0  0  0  0  0  1  0  0  0  0  0  0
  184.2050  174.6780  137.3360 C   0  0  1  0  0  0  0  0  0  0  0  0
  185.5670  177.4730  135.6490 O   0  0  0  0  0  0  0  0  0  0  0  0
  184.8850  176.8140  137.9140 C   0  0  2  0  0  3  0  0  0  0  0  0
  185.5550  176.4430  136.6080 C   0  0  1  0  0  0  0  0  0  0  0  0
  184.1050  175.7060  138.3140 O   0  0  0  0  0  0  0  0  0  0  0  0
  182.9510  178.0340  136.9480 F   0  0  0  0  0  0  0  0  0  0  0  0
  183.9950  178.0180  137.8190 C   0  0  0  0  0  0  0  0  0  0  0  0
  184.1850  178.9740  138.5520 O   0  0  0  0  0  0  0  0  0  0  0  0
  182.8050  174.2510  136.9040 C   0  0  0  0  0  2  0  0  0  0  0  0
  182.4900  174.7480  135.5740 N   0  0  0  0  0  1  0  0  0  0  0  0
  187.9890  178.2420  141.7390 C   0  0  0  0  0  2  0  0  0  0  0  0
  187.3760  177.3990  142.8440 C   0  0  0  0  0  2  0  0  0  0  0  0
  188.4480  176.9610  143.8280 C   0  0  0  0  0  2  0  0  0  0  0  0
  191.3060  177.1270  146.0170 C   0  0  1  0  0  3  0  0  0  0  0  0
  190.3200  178.4320  144.1300 C   0  0  0  0  0  2  0  0  0  0  0  0
  188.9160  177.8450  146.0210 C   0  0  0  0  0  2  0  0  0  0  0  0
  191.3330  177.3470  144.5110 C   0  0  0  0  0  2  0  0  0  0  0  0
  189.8960  176.7450  146.4420 C   0  0  0  0  0  2  0  0  0  0  0  0
  188.9560  178.1110  144.5750 N   0  0  0  0  0  0  0  0  0  0  0  0
  192.0070  175.9110  147.7270 C   0  0  0  0  0  1  0  0  0  0  0  0
  192.1920  176.1040  146.3570 O   0  0  0  0  0  0  0  0  0  0  0  0
  2  1  1  6  0  0  0
  2  8  1  0  0  0  0
  3  5  1  6  0  0  0
  3  7  1  0  0  0  0
  3  9  1  0  0  0  0
  4  6  1  0  0  0  0
  4 25  1  1  0  0  0
  7  8  1  6  0  0  0
  7  4  1  0  0  0  0
  9  6  1  0  0  0  0
 10  2  1  0  0  0  0
 10  5  1  0  0  0  0
 11 14  1  1  0  0  0
 11 18  1  0  0  0  0
 11 15  1  0  0  0  0
 12 16  1  6  0  0  0
 12 18  1  0  0  0  0
 12  2  1  0  0  0  0
 15 13  1  1  0  0  0
 15 19  1  0  0  0  0
 17 21  1  6  0  0  0
 17 19  1  0  0  0  0
 18 16  1  6  0  0  0
 18 17  1  0  0  0  0
 20 21  1  0  0  0  0
 21 22  2  0  0  0  0
 23 15  1  0  0  0  0
 24 23  1  0  0  0  0
 25 26  1  0  0  0  0
 26 27  1  0  0  0  0
 27 33  1  0  0  0  0
 28 35  1  6  0  0  0
 28 32  1  0  0  0  0
 29 31  1  0  0  0  0
 29 33  1  0  0  0  0
 30 32  1  0  0  0  0
 31 28  1  0  0  0  0
 33 30  1  0  0  0  0
 35 34  1  0  0  0  0
M  END
>  <MODEL>
7

>  <REMARK>
 VINA RESULT:      -6.4      3.524      6.347
  Name = 
  8 active torsions:
  status: ('A' for Active; 'I' for Inactive)
    1  A    between atoms: C_2  and  O_29
    2  A    between atoms: C_3  and  C_14
    3  A    between atoms: C_9  and  C_19
    4  A    between atoms: C_11  and  C_23
    5  A    between atoms: C_11  and  C_31
    6  A    between atoms: C_13  and  C_23
    7  A    between atoms: C_17  and  C_27
    8  A    between atoms: N_30  and  C_31
                            x       y       z     vdW  Elec       q    Type
                         _______ _______ _______ _____ _____    ______ ____

>  <TORSDO>
F 8

$$$$
=
 OpenBabel11062415353D

 35 39  0  0  1  0  0  0  0  0999 V2000
  188.6670  176.2040  141.4940 O   0  0  0  0  0  1  0  0  0  0  0  0
  189.3990  177.3700  141.2600 C   0  0  2  0  0  0  0  0  0  0  0  0
  192.3070  176.8580  140.6360 C   0  0  1  0  0  3  0  0  0  0  0  0
  191.7800  176.5360  138.3440 C   0  0  2  0  0  3  0  0  0  0  0  0
  191.8740  177.8780  141.6910 C   0  0  0  0  0  2  0  0  0  0  0  0
  193.1970  176.8210  138.5230 N   0  0  0  0  0  2  0  0  0  0  0  0
  191.1800  176.4050  139.7190 C   0  0  2  0  0  3  0  0  0  0  0  0
  189.9420  177.2990  139.8250 C   0  0  0  0  0  2  0  0  0  0  0  0
  193.3380  177.4280  139.7860 N   0  0  0  0  0  2  0  0  0  0  0  0
  190.5400  177.4550  142.3020 C   0  0  0  0  0  2  0  0  0  0  0  0
  186.1310  179.3880  142.1770 C   0  0  1  0  0  3  0  0  0  0  0  0
  188.4540  178.5940  141.3030 C   0  0  2  0  0  3  0  0  0  0  0  0
  184.1170  177.8760  141.8130 C   0  0  0  0  0  1  0  0  0  0  0  0
  185.8430  179.6850  140.8390 O   0  0  0  0  0  1  0  0  0  0  0  0
  185.0610  178.5040  142.8390 C   0  0  1  0  0  0  0  0  0  0  0  0
  188.5000  179.2770  142.5420 O   0  0  0  0  0  0  0  0  0  0  0  0
  187.0630  177.4370  143.3020 C   0  0  2  0  0  3  0  0  0  0  0  0
  187.3340  178.5290  142.2910 C   0  0  1  0  0  0  0  0  0  0  0  0
  185.6770  177.4550  143.5770 O   0  0  0  0  0  0  0  0  0  0  0  0
  187.4970  178.6230  145.4400 F   0  0  0  0  0  0  0  0  0  0  0  0
  187.8090  177.6060  144.5940 C   0  0  0  0  0  0  0  0  0  0  0  0
  188.6770  176.8060  144.9030 O   0  0  0  0  0  0  0  0  0  0  0  0
  184.2550  179.3850  143.7890 C   0  0  0  0  0  2  0  0  0  0  0  0
  184.3040  178.8740  145.1500 N   0  0  0  0  0  1  0  0  0  0  0  0
  191.6170  175.2410  137.5670 C   0  0  0  0  0  2  0  0  0  0  0  0
  190.9090  175.5030  136.2490 C   0  0  0  0  0  2  0  0  0  0  0  0
  189.4040  175.3870  136.4280 C   0  0  0  0  0  2  0  0  0  0  0  0
  186.9440  178.0120  136.6200 C   0  0  1  0  0  3  0  0  0  0  0  0
  189.0280  177.4960  135.3470 C   0  0  0  0  0  2  0  0  0  0  0  0
  187.2560  175.8390  135.4340 C   0  0  0  0  0  2  0  0  0  0  0  0
  188.4510  178.2160  136.5690 C   0  0  0  0  0  2  0  0  0  0  0  0
  186.6420  176.5210  136.6600 C   0  0  0  0  0  2  0  0  0  0  0  0
  188.7070  176.0610  135.3340 N   0  0  0  0  0  0  0  0  0  0  0  0
  185.1890  178.0120  137.9680 C   0  0  0  0  0  1  0  0  0  0  0  0
  186.4260  178.6260  137.7610 O   0  0  0  0  0  0  0  0  0  0  0  0
  2 12  1  0  0  0  0
  2  1  1  1  0  0  0
  2 10  1  0  0  0  0
  3  5  1  1  0  0  0
  4 25  1  6  0  0  0
  4  6  1  0  0  0  0
  4  7  1  0  0  0  0
  5 10  1  0  0  0  0
  6  9  1  0  0  0  0
  7  8  1  6  0  0  0
  7  3  1  0  0  0  0
  8  2  1  0  0  0  0
  9  3  1  0  0  0  0
 11 14  1  6  0  0  0
 11 18  1  0  0  0  0
 11 15  1  0  0  0  0
 12 18  1  0  0  0  0
 12 16  1  1  0  0  0
 15 13  1  6  0  0  0
 15 19  1  0  0  0  0
 15 23  1  0  0  0  0
 17 19  1  0  0  0  0
 17 21  1  1  0  0  0
 18 16  1  1  0  0  0
 18 17  1  0  0  0  0
 21 22  2  0  0  0  0
 21 20  1  0  0  0  0
 23 24  1  0  0  0  0
 26 27  1  0  0  0  0
 26 25  1  0  0  0  0
 28 32  1  0  0  0  0
 28 35  1  1  0  0  0
 29 31  1  0  0  0  0
 30 32  1  0  0  0  0
 31 28  1  0  0  0  0
 33 29  1  0  0  0  0
 33 30  1  0  0  0  0
 33 27  1  0  0  0  0
 35 34  1  0  0  0  0
M  END
>  <MODEL>
8

>  <REMARK>
 VINA RESULT:      -6.4      3.311      6.520
  Name = 
  8 active torsions:
  status: ('A' for Active; 'I' for Inactive)
    1  A    between atoms: C_2  and  O_29
    2  A    between atoms: C_3  and  C_14
    3  A    between atoms: C_9  and  C_19
    4  A    between atoms: C_11  and  C_23
    5  A    between atoms: C_11  and  C_31
    6  A    between atoms: C_13  and  C_23
    7  A    between atoms: C_17  and  C_27
    8  A    between atoms: N_30  and  C_31
                            x       y       z     vdW  Elec       q    Type
                         _______ _______ _______ _____ _____    ______ ____

>  <TORSDO>
F 8

$$$$
=
 OpenBabel11062415353D

 35 39  0  0  1  0  0  0  0  0999 V2000
  187.1080  178.7460  136.3120 O   0  0  0  0  0  1  0  0  0  0  0  0
  187.6810  177.4740  136.2390 C   0  0  2  0  0  0  0  0  0  0  0  0
  190.2940  177.2470  137.7310 C   0  0  1  0  0  3  0  0  0  0  0  0
  189.1270  176.7790  139.7450 C   0  0  2  0  0  3  0  0  0  0  0  0
  190.1460  176.7720  136.2850 C   0  0  0  0  0  2  0  0  0  0  0  0
  190.5190  176.3580  139.8330 N   0  0  0  0  0  2  0  0  0  0  0  0
  188.9690  177.5030  138.4330 C   0  0  2  0  0  3  0  0  0  0  0  0
  187.7770  176.9230  137.6690 C   0  0  0  0  0  2  0  0  0  0  0  0
  190.9990  176.2460  138.5140 N   0  0  0  0  0  2  0  0  0  0  0  0
  189.0750  177.5980  135.5770 C   0  0  0  0  0  2  0  0  0  0  0  0
  184.7540  174.8600  135.8020 C   0  0  1  0  0  3  0  0  0  0  0  0
  186.7350  176.5210  135.4720 C   0  0  2  0  0  3  0  0  0  0  0  0
  184.9000  173.1590  137.6880 C   0  0  0  0  0  1  0  0  0  0  0  0
  185.5870  173.9070  135.2050 O   0  0  0  0  0  1  0  0  0  0  0  0
  184.1780  174.3930  137.1490 C   0  0  1  0  0  0  0  0  0  0  0  0
  185.4560  177.0860  135.2450 O   0  0  0  0  0  0  0  0  0  0  0  0
  185.0700  176.4830  137.5940 C   0  0  2  0  0  3  0  0  0  0  0  0
  185.5180  176.0630  136.2100 C   0  0  1  0  0  0  0  0  0  0  0  0
  184.2870  175.4300  138.1170 O   0  0  0  0  0  0  0  0  0  0  0  0
  183.1440  177.8530  136.8360 F   0  0  0  0  0  0  0  0  0  0  0  0
  184.2550  177.7430  137.6120 C   0  0  0  0  0  0  0  0  0  0  0  0
  184.5690  178.6590  138.3540 O   0  0  0  0  0  0  0  0  0  0  0  0
  182.7050  174.0580  136.9310 C   0  0  0  0  0  2  0  0  0  0  0  0
  181.8420  174.9850  137.6460 N   0  0  0  0  0  1  0  0  0  0  0  0
  188.8030  177.7040  140.9050 C   0  0  0  0  0  2  0  0  0  0  0  0
  189.9190  177.6690  141.9350 C   0  0  0  0  0  2  0  0  0  0  0  0
  189.3710  177.9950  143.3150 C   0  0  0  0  0  2  0  0  0  0  0  0
  187.0750  177.6150  146.0660 C   0  0  1  0  0  3  0  0  0  0  0  0
  187.5370  176.5460  143.8570 C   0  0  0  0  0  2  0  0  0  0  0  0
  189.3610  176.8420  145.4310 C   0  0  0  0  0  2  0  0  0  0  0  0
  186.6980  177.5960  144.5920 C   0  0  0  0  0  2  0  0  0  0  0  0
  188.5630  177.9010  146.1980 C   0  0  0  0  0  2  0  0  0  0  0  0
  188.9820  176.7700  144.0120 N   0  0  0  0  0  0  0  0  0  0  0  0
  185.3540  178.9830  145.8170 C   0  0  0  0  0  1  0  0  0  0  0  0
  186.3460  178.6070  146.7240 O   0  0  0  0  0  0  0  0  0  0  0  0
  2  1  1  1  0  0  0
  2  8  1  0  0  0  0
  3  5  1  6  0  0  0
  3  7  1  0  0  0  0
  3  9  1  0  0  0  0
  4  6  1  0  0  0  0
  4 25  1  1  0  0  0
  7  8  1  6  0  0  0
  7  4  1  0  0  0  0
  9  6  1  0  0  0  0
 10  2  1  0  0  0  0
 10  5  1  0  0  0  0
 11 14  1  1  0  0  0
 11 18  1  0  0  0  0
 11 15  1  0  0  0  0
 12 16  1  6  0  0  0
 12 18  1  0  0  0  0
 12  2  1  0  0  0  0
 15 13  1  1  0  0  0
 15 19  1  0  0  0  0
 17 21  1  6  0  0  0
 17 19  1  0  0  0  0
 18 16  1  6  0  0  0
 18 17  1  0  0  0  0
 20 21  1  0  0  0  0
 21 22  2  0  0  0  0
 23 15  1  0  0  0  0
 23 24  1  0  0  0  0
 25 26  1  0  0  0  0
 26 27  1  0  0  0  0
 27 33  1  0  0  0  0
 28 32  1  0  0  0  0
 28 35  1  1  0  0  0
 29 33  1  0  0  0  0
 29 31  1  0  0  0  0
 30 32  1  0  0  0  0
 31 28  1  0  0  0  0
 33 30  1  0  0  0  0
 34 35  1  0  0  0  0
M  END
>  <MODEL>
9

>  <REMARK>
 VINA RESULT:      -6.3      3.665      6.824
  Name = 
  8 active torsions:
  status: ('A' for Active; 'I' for Inactive)
    1  A    between atoms: C_2  and  O_29
    2  A    between atoms: C_3  and  C_14
    3  A    between atoms: C_9  and  C_19
    4  A    between atoms: C_11  and  C_23
    5  A    between atoms: C_11  and  C_31
    6  A    between atoms: C_13  and  C_23
    7  A    between atoms: C_17  and  C_27
    8  A    between atoms: N_30  and  C_31
                            x       y       z     vdW  Elec       q    Type
                         _______ _______ _______ _____ _____    ______ ____

>  <TORSDO>
F 8

$$$$
