=
 OpenBabel11062415413D

 34 37  0  0  1  0  0  0  0  0999 V2000
  189.3010  175.9010  135.3960 C   0  0  0  0  0  3  0  0  0  0  0  0
  189.2870  178.3340  135.2100 N   0  0  0  0  0  0  0  0  0  0  0  0
  188.9230  177.9740  137.6030 C   0  0  0  0  0  0  0  0  0  0  0  0
  188.5870  178.6190  138.9010 C   0  0  0  0  0  2  0  0  0  0  0  0
  188.3610  177.4380  139.8530 C   0  0  1  0  0  3  0  0  0  0  0  0
  188.6240  177.0980  134.8120 C   0  0  0  0  0  2  0  0  0  0  0  0
  189.3830  178.7490  136.4370 C   0  0  0  0  0  3  0  0  0  0  0  0
  188.6100  176.2530  139.0450 N   0  0  0  0  0  2  0  0  0  0  0  0
  189.4070  175.6810  136.7140 C   0  0  0  0  0  0  0  0  0  0  0  0
  188.9340  176.6530  137.7260 C   0  0  0  0  0  0  0  0  0  0  0  0
  190.7250  172.7210  135.6980 N   0  0  0  0  0  0  0  0  0  0  0  0
  191.8450  174.5570  137.2610 S   0  0  0  0  0  0  0  0  0  0  0  0
  193.0820  172.3800  136.1570 C   0  0  0  0  0  1  0  0  0  0  0  0
  189.7320  173.2280  136.3430 C   0  0  0  0  0  0  0  0  0  0  0  0
  190.0320  174.4050  137.2130 C   0  0  2  0  0  3  0  0  0  0  0  0
  188.4450  172.6060  136.2850 N   0  0  0  0  0  2  0  0  0  0  0  0
  191.9980  173.3950  135.8650 C   0  0  1  0  0  3  0  0  0  0  0  0
  187.2740  173.1160  136.9830 C   0  0  0  0  0  2  0  0  0  0  0  0
  186.2960  173.7030  135.9880 C   0  0  0  0  0  1  0  0  0  0  0  0
  188.8370  177.9960  142.3500 C   0  0  2  0  0  3  0  0  0  0  0  0
  190.0030  176.2750  141.2190 O   0  0  0  0  0  0  0  0  0  0  0  0
  190.6060  175.1100  143.2150 C   0  0  0  0  0  1  0  0  0  0  0  0
  189.3660  177.5030  141.0050 C   0  0  1  0  0  3  0  0  0  0  0  0
  189.9340  177.5000  143.2640 C   0  0  1  0  0  3  0  0  0  0  0  0
  190.6470  176.4230  142.4590 C   0  0  2  0  0  3  0  0  0  0  0  0
  187.4650  176.8580  144.1900 C   0  0  0  0  0  1  0  0  0  0  0  0
  187.4840  177.3570  142.7480 C   0  0  1  0  0  3  0  0  0  0  0  0
  186.2990  178.2980  142.5240 C   0  0  0  0  0  2  0  0  0  0  0  0
  185.3360  178.3090  143.7030 C   0  0  0  0  0  1  0  0  0  0  0  0
  190.8920  178.6380  143.5760 C   0  0  0  0  0  2  0  0  0  0  0  0
  191.6310  178.3390  144.7530 O   0  0  0  0  0  0  0  0  0  0  0  0
  190.0030  177.8800  146.3000 O   0  0  0  0  0  0  0  0  0  0  0  0
  191.8180  176.3500  146.2930 C   0  0  0  0  0  1  0  0  0  0  0  0
  191.1050  177.5580  145.7840 C   0  0  0  0  0  0  0  0  0  0  0  0
  1  9  2  0  0  0  0
  2  7  2  0  0  0  0
  3 10  2  0  0  0  0
  3  4  1  0  0  0  0
  5  4  1  6  0  0  0
  5 23  1  0  0  0  0
  6  2  1  0  0  0  0
  6  1  1  0  0  0  0
  7  3  1  0  0  0  0
  8  5  1  0  0  0  0
  9 10  1  0  0  0  0
 10  8  1  0  0  0  0
 11 17  1  0  0  0  0
 11 14  2  0  0  0  0
 14 15  1  0  0  0  0
 15  9  1  6  0  0  0
 15 12  1  0  0  0  0
 16 14  1  0  0  0  0
 16 18  1  0  0  0  0
 17 13  1  1  0  0  0
 17 12  1  0  0  0  0
 19 18  1  0  0  0  0
 20 27  1  1  0  0  0
 20 24  1  0  0  0  0
 21 25  1  0  0  0  0
 23 21  1  1  0  0  0
 23 20  1  0  0  0  0
 24 30  1  6  0  0  0
 25 22  1  1  0  0  0
 25 24  1  0  0  0  0
 27 26  1  1  0  0  0
 28 27  1  0  0  0  0
 28 29  1  0  0  0  0
 30 31  1  0  0  0  0
 31 34  1  0  0  0  0
 34 33  1  0  0  0  0
 34 32  2  0  0  0  0
M  END
>  <MODEL>
1

>  <REMARK>
 VINA RESULT:      -5.9      0.000      0.000
  Name = 
  8 active torsions:
  status: ('A' for Active; 'I' for Inactive)
    1  A    between atoms: C_5  and  C_29
    2  A    between atoms: C_10  and  C_29
    3  A    between atoms: C_13  and  C_23
    4  A    between atoms: C_17  and  C_28
    5  A    between atoms: N_18  and  C_32
    6  A    between atoms: C_22  and  O_25
    7  A    between atoms: C_22  and  C_26
    8  A    between atoms: O_25  and  C_31
                            x       y       z     vdW  Elec       q    Type
                         _______ _______ _______ _____ _____    ______ ____

>  <TORSDO>
F 8

$$$$
=
 OpenBabel11062415413D

 34 37  0  0  1  0  0  0  0  0999 V2000
  191.0980  177.1120  140.6450 C   0  0  0  0  0  3  0  0  0  0  0  0
  190.3370  176.1200  142.7400 N   0  0  0  0  0  0  0  0  0  0  0  0
  188.3890  177.4130  142.0170 C   0  0  0  0  0  0  0  0  0  0  0  0
  187.0380  177.9080  142.3970 C   0  0  0  0  0  2  0  0  0  0  0  0
  186.6770  178.8920  141.2770 C   0  0  1  0  0  3  0  0  0  0  0  0
  191.3010  177.0220  142.1220 C   0  0  0  0  0  2  0  0  0  0  0  0
  189.0520  176.3100  142.7360 C   0  0  0  0  0  3  0  0  0  0  0  0
  187.8090  178.8520  140.3640 N   0  0  0  0  0  2  0  0  0  0  0  0
  189.9720  177.5710  140.0800 C   0  0  0  0  0  0  0  0  0  0  0  0
  188.7810  177.9570  140.8720 C   0  0  0  0  0  0  0  0  0  0  0  0
  188.2460  176.5250  137.3490 N   0  0  0  0  0  0  0  0  0  0  0  0
  188.7150  179.0240  138.1260 S   0  0  0  0  0  0  0  0  0  0  0  0
  187.0020  178.2250  136.1470 C   0  0  0  0  0  1  0  0  0  0  0  0
  189.4050  176.4640  137.9090 C   0  0  0  0  0  0  0  0  0  0  0  0
  189.8860  177.7070  138.5830 C   0  0  2  0  0  3  0  0  0  0  0  0
  190.2030  175.2830  137.7830 N   0  0  0  0  0  2  0  0  0  0  0  0
  187.5400  177.7840  137.4920 C   0  0  1  0  0  3  0  0  0  0  0  0
  191.5190  175.1360  138.3850 C   0  0  0  0  0  2  0  0  0  0  0  0
  192.4480  174.4240  137.4230 C   0  0  0  0  0  1  0  0  0  0  0  0
  184.2540  177.9550  141.4420 C   0  0  2  0  0  3  0  0  0  0  0  0
  184.9170  179.3790  139.6710 O   0  0  0  0  0  0  0  0  0  0  0  0
  182.6970  180.0990  139.1650 C   0  0  0  0  0  1  0  0  0  0  0  0
  185.4130  178.4170  140.5600 C   0  0  1  0  0  3  0  0  0  0  0  0
  183.1210  178.0130  140.4440 C   0  0  1  0  0  3  0  0  0  0  0  0
  183.6330  178.9190  139.3340 C   0  0  2  0  0  3  0  0  0  0  0  0
  182.4850  179.2250  142.7920 C   0  0  0  0  0  1  0  0  0  0  0  0
  183.9690  178.9110  142.6270 C   0  0  1  0  0  3  0  0  0  0  0  0
  184.5230  178.3870  143.9540 C   0  0  0  0  0  2  0  0  0  0  0  0
  183.7810  178.9520  145.1560 C   0  0  0  0  0  1  0  0  0  0  0  0
  182.8510  176.6210  139.8980 C   0  0  0  0  0  2  0  0  0  0  0  0
  183.1740  176.5740  138.5140 O   0  0  0  0  0  0  0  0  0  0  0  0
  182.4280  174.5490  137.7400 O   0  0  0  0  0  0  0  0  0  0  0  0
  184.6970  175.0260  137.2300 C   0  0  0  0  0  1  0  0  0  0  0  0
  183.3780  175.3690  137.8380 C   0  0  0  0  0  0  0  0  0  0  0  0
  1  6  1  0  0  0  0
  3  4  1  0  0  0  0
  3  7  1  0  0  0  0
  5  4  1  1  0  0  0
  6  2  1  0  0  0  0
  7  2  2  0  0  0  0
  8 10  1  0  0  0  0
  8  5  1  0  0  0  0
  9  1  2  0  0  0  0
  9 10  1  0  0  0  0
 10  3  2  0  0  0  0
 11 17  1  0  0  0  0
 11 14  2  0  0  0  0
 12 15  1  0  0  0  0
 14 15  1  0  0  0  0
 15  9  1  1  0  0  0
 16 14  1  0  0  0  0
 16 18  1  0  0  0  0
 17 13  1  6  0  0  0
 17 12  1  0  0  0  0
 19 18  1  0  0  0  0
 20 27  1  1  0  0  0
 23 21  1  1  0  0  0
 23  5  1  0  0  0  0
 23 20  1  0  0  0  0
 24 30  1  6  0  0  0
 24 20  1  0  0  0  0
 25 22  1  1  0  0  0
 25 21  1  0  0  0  0
 25 24  1  0  0  0  0
 27 26  1  1  0  0  0
 27 28  1  0  0  0  0
 28 29  1  0  0  0  0
 31 30  1  0  0  0  0
 32 34  2  0  0  0  0
 33 34  1  0  0  0  0
 34 31  1  0  0  0  0
M  END
>  <MODEL>
2

>  <REMARK>
 VINA RESULT:      -5.4      3.383      6.656
  Name = 
  8 active torsions:
  status: ('A' for Active; 'I' for Inactive)
    1  A    between atoms: C_5  and  C_29
    2  A    between atoms: C_10  and  C_29
    3  A    between atoms: C_13  and  C_23
    4  A    between atoms: C_17  and  C_28
    5  A    between atoms: N_18  and  C_32
    6  A    between atoms: C_22  and  O_25
    7  A    between atoms: C_22  and  C_26
    8  A    between atoms: O_25  and  C_31
                            x       y       z     vdW  Elec       q    Type
                         _______ _______ _______ _____ _____    ______ ____

>  <TORSDO>
F 8

$$$$
=
 OpenBabel11062415413D

 34 37  0  0  1  0  0  0  0  0999 V2000
  190.4150  177.1660  141.6460 C   0  0  0  0  0  3  0  0  0  0  0  0
  189.2940  176.0960  143.5300 N   0  0  0  0  0  0  0  0  0  0  0  0
  187.5150  177.4600  142.5480 C   0  0  0  0  0  0  0  0  0  0  0  0
  186.1250  177.9650  142.7150 C   0  0  0  0  0  2  0  0  0  0  0  0
  185.9740  179.0060  141.5980 C   0  0  1  0  0  3  0  0  0  0  0  0
  190.3610  177.0060  143.1300 C   0  0  0  0  0  2  0  0  0  0  0  0
  188.0310  176.3130  143.3160 C   0  0  0  0  0  3  0  0  0  0  0  0
  187.2460  178.9840  140.8910 N   0  0  0  0  0  2  0  0  0  0  0  0
  189.4090  177.6740  140.9190 C   0  0  0  0  0  0  0  0  0  0  0  0
  188.1040  178.0470  141.5140 C   0  0  0  0  0  0  0  0  0  0  0  0
  189.7900  176.0290  137.9740 N   0  0  0  0  0  0  0  0  0  0  0  0
  187.9690  177.8630  138.5960 S   0  0  0  0  0  0  0  0  0  0  0  0
  188.0010  176.2900  136.3570 C   0  0  0  0  0  1  0  0  0  0  0  0
  190.4050  176.8110  138.7920 C   0  0  0  0  0  0  0  0  0  0  0  0
  189.5830  177.8780  139.4380 C   0  0  2  0  0  3  0  0  0  0  0  0
  191.8190  176.6980  138.9700 N   0  0  0  0  0  2  0  0  0  0  0  0
  188.3660  176.2600  137.8260 C   0  0  1  0  0  3  0  0  0  0  0  0
  192.5860  177.5420  139.8740 C   0  0  0  0  0  2  0  0  0  0  0  0
  193.9880  176.9920  140.0270 C   0  0  0  0  0  1  0  0  0  0  0  0
  183.5480  178.1100  141.3020 C   0  0  2  0  0  3  0  0  0  0  0  0
  184.5200  179.6010  139.7420 O   0  0  0  0  0  0  0  0  0  0  0  0
  182.4280  180.3870  138.9000 C   0  0  0  0  0  1  0  0  0  0  0  0
  184.8460  178.5890  140.6530 C   0  0  1  0  0  3  0  0  0  0  0  0
  182.6030  178.2360  140.1290 C   0  0  1  0  0  3  0  0  0  0  0  0
  183.3080  179.1820  139.1680 C   0  0  2  0  0  3  0  0  0  0  0  0
  181.6070  179.4150  142.3480 C   0  0  0  0  0  1  0  0  0  0  0  0
  183.0750  179.0150  142.4660 C   0  0  1  0  0  3  0  0  0  0  0  0
  183.3170  178.3840  143.8390 C   0  0  0  0  0  2  0  0  0  0  0  0
  183.8190  179.3940  144.8620 C   0  0  0  0  0  1  0  0  0  0  0  0
  182.4140  176.8770  139.4770 C   0  0  0  0  0  2  0  0  0  0  0  0
  181.1150  176.7910  138.9070 O   0  0  0  0  0  0  0  0  0  0  0  0
  179.2700  178.1230  139.1820 O   0  0  0  0  0  0  0  0  0  0  0  0
  179.5460  176.4600  140.8540 C   0  0  0  0  0  1  0  0  0  0  0  0
  179.9670  177.1650  139.6080 C   0  0  0  0  0  0  0  0  0  0  0  0
  1  6  1  0  0  0  0
  3  4  1  0  0  0  0
  3  7  1  0  0  0  0
  5  4  1  1  0  0  0
  6  2  1  0  0  0  0
  7  2  2  0  0  0  0
  8 10  1  0  0  0  0
  8  5  1  0  0  0  0
  9 10  1  0  0  0  0
  9  1  2  0  0  0  0
 10  3  2  0  0  0  0
 11 14  2  0  0  0  0
 12 15  1  0  0  0  0
 14 16  1  0  0  0  0
 14 15  1  0  0  0  0
 15  9  1  1  0  0  0
 16 18  1  0  0  0  0
 17 13  1  6  0  0  0
 17 11  1  0  0  0  0
 17 12  1  0  0  0  0
 18 19  1  0  0  0  0
 20 27  1  1  0  0  0
 23 21  1  6  0  0  0
 23 20  1  0  0  0  0
 23  5  1  0  0  0  0
 24 30  1  6  0  0  0
 24 20  1  0  0  0  0
 25 22  1  1  0  0  0
 25 21  1  0  0  0  0
 25 24  1  0  0  0  0
 27 26  1  6  0  0  0
 27 28  1  0  0  0  0
 28 29  1  0  0  0  0
 31 30  1  0  0  0  0
 31 34  1  0  0  0  0
 32 34  2  0  0  0  0
 34 33  1  0  0  0  0
M  END
>  <MODEL>
3

>  <REMARK>
 VINA RESULT:      -5.2      4.225      7.381
  Name = 
  8 active torsions:
  status: ('A' for Active; 'I' for Inactive)
    1  A    between atoms: C_5  and  C_29
    2  A    between atoms: C_10  and  C_29
    3  A    between atoms: C_13  and  C_23
    4  A    between atoms: C_17  and  C_28
    5  A    between atoms: N_18  and  C_32
    6  A    between atoms: C_22  and  O_25
    7  A    between atoms: C_22  and  C_26
    8  A    between atoms: O_25  and  C_31
                            x       y       z     vdW  Elec       q    Type
                         _______ _______ _______ _____ _____    ______ ____

>  <TORSDO>
F 8

$$$$
=
 OpenBabel11062415413D

 34 37  0  0  1  0  0  0  0  0999 V2000
  180.8530  177.1300  139.4470 C   0  0  0  0  0  3  0  0  0  0  0  0
  181.1730  174.8560  138.6250 N   0  0  0  0  0  0  0  0  0  0  0  0
  183.1810  176.0030  137.8270 C   0  0  0  0  0  0  0  0  0  0  0  0
  184.3960  175.8960  136.9740 C   0  0  0  0  0  2  0  0  0  0  0  0
  184.9560  177.3240  136.9490 C   0  0  1  0  0  3  0  0  0  0  0  0
  180.3340  176.0460  138.5600 C   0  0  0  0  0  2  0  0  0  0  0  0
  182.4190  174.8180  138.2600 C   0  0  0  0  0  3  0  0  0  0  0  0
  184.0550  178.0950  137.7910 N   0  0  0  0  0  2  0  0  0  0  0  0
  182.0580  177.6990  139.2920 C   0  0  0  0  0  0  0  0  0  0  0  0
  183.0300  177.2440  138.2710 C   0  0  0  0  0  0  0  0  0  0  0  0
  181.2480  179.3450  142.1500 N   0  0  0  0  0  0  0  0  0  0  0  0
  183.5890  178.2690  141.4920 S   0  0  0  0  0  0  0  0  0  0  0  0
  182.8720  179.2370  143.9490 C   0  0  0  0  0  1  0  0  0  0  0  0
  181.3080  179.4890  140.8710 C   0  0  0  0  0  0  0  0  0  0  0  0
  182.4650  178.8440  140.1800 C   0  0  2  0  0  3  0  0  0  0  0  0
  180.3560  180.3170  140.1970 N   0  0  0  0  0  2  0  0  0  0  0  0
  182.2910  178.5290  142.7440 C   0  0  1  0  0  3  0  0  0  0  0  0
  180.3550  180.5310  138.7570 C   0  0  0  0  0  2  0  0  0  0  0  0
  181.0230  181.8510  138.4330 C   0  0  0  0  0  1  0  0  0  0  0  0
  187.4150  176.4740  136.8470 C   0  0  2  0  0  3  0  0  0  0  0  0
  186.8800  178.6340  137.6550 O   0  0  0  0  0  0  0  0  0  0  0  0
  189.0540  179.5330  137.2450 C   0  0  0  0  0  1  0  0  0  0  0  0
  186.3640  177.3360  137.5460 C   0  0  1  0  0  3  0  0  0  0  0  0
  188.6770  177.0840  137.4110 C   0  0  1  0  0  3  0  0  0  0  0  0
  188.2460  178.4490  137.9290 C   0  0  2  0  0  3  0  0  0  0  0  0
  188.6840  177.2180  134.7510 C   0  0  0  0  0  1  0  0  0  0  0  0
  187.3960  176.6160  135.3060 C   0  0  1  0  0  3  0  0  0  0  0  0
  187.1120  175.2930  134.5940 C   0  0  0  0  0  2  0  0  0  0  0  0
  187.2160  174.0960  135.5290 C   0  0  0  0  0  1  0  0  0  0  0  0
  189.1890  176.2300  138.5580 C   0  0  0  0  0  2  0  0  0  0  0  0
  189.9100  177.0380  139.4790 O   0  0  0  0  0  0  0  0  0  0  0  0
  190.3880  176.0930  141.5120 O   0  0  0  0  0  0  0  0  0  0  0  0
  188.7560  177.8160  141.5830 C   0  0  0  0  0  1  0  0  0  0  0  0
  189.7240  176.9410  140.8600 C   0  0  0  0  0  0  0  0  0  0  0  0
  3  7  1  0  0  0  0
  3 10  2  0  0  0  0
  4  3  1  0  0  0  0
  5  4  1  1  0  0  0
  5 23  1  0  0  0  0
  5  8  1  0  0  0  0
  6  2  1  0  0  0  0
  6  1  1  0  0  0  0
  7  2  2  0  0  0  0
  8 10  1  0  0  0  0
  9  1  2  0  0  0  0
 10  9  1  0  0  0  0
 11 17  1  0  0  0  0
 12 17  1  0  0  0  0
 14 11  2  0  0  0  0
 15  9  1  1  0  0  0
 15 14  1  0  0  0  0
 15 12  1  0  0  0  0
 16 14  1  0  0  0  0
 17 13  1  1  0  0  0
 18 16  1  0  0  0  0
 19 18  1  0  0  0  0
 20 27  1  6  0  0  0
 20 24  1  0  0  0  0
 20 23  1  0  0  0  0
 21 25  1  0  0  0  0
 23 21  1  6  0  0  0
 24 25  1  0  0  0  0
 24 30  1  1  0  0  0
 25 22  1  6  0  0  0
 27 26  1  6  0  0  0
 28 27  1  0  0  0  0
 28 29  1  0  0  0  0
 30 31  1  0  0  0  0
 31 34  1  0  0  0  0
 34 32  2  0  0  0  0
 34 33  1  0  0  0  0
M  END
>  <MODEL>
4

>  <REMARK>
 VINA RESULT:      -5.1      4.794      8.449
  Name = 
  8 active torsions:
  status: ('A' for Active; 'I' for Inactive)
    1  A    between atoms: C_5  and  C_29
    2  A    between atoms: C_10  and  C_29
    3  A    between atoms: C_13  and  C_23
    4  A    between atoms: C_17  and  C_28
    5  A    between atoms: N_18  and  C_32
    6  A    between atoms: C_22  and  O_25
    7  A    between atoms: C_22  and  C_26
    8  A    between atoms: O_25  and  C_31
                            x       y       z     vdW  Elec       q    Type
                         _______ _______ _______ _____ _____    ______ ____

>  <TORSDO>
F 8

$$$$
=
 OpenBabel11062415413D

 34 37  0  0  1  0  0  0  0  0999 V2000
  186.0520  178.7130  144.5970 C   0  0  0  0  0  3  0  0  0  0  0  0
  183.9840  179.0010  145.8590 N   0  0  0  0  0  0  0  0  0  0  0  0
  183.1830  178.7580  143.5600 C   0  0  0  0  0  0  0  0  0  0  0  0
  182.0000  178.8390  142.6600 C   0  0  0  0  0  2  0  0  0  0  0  0
  182.5990  178.7220  141.2530 C   0  0  1  0  0  3  0  0  0  0  0  0
  185.2460  179.6180  145.4690 C   0  0  0  0  0  2  0  0  0  0  0  0
  183.0490  178.6590  145.0240 C   0  0  0  0  0  3  0  0  0  0  0  0
  184.0290  178.5580  141.4660 N   0  0  0  0  0  2  0  0  0  0  0  0
  185.6380  178.2800  143.3970 C   0  0  0  0  0  0  0  0  0  0  0  0
  184.2950  178.5920  142.8560 C   0  0  0  0  0  0  0  0  0  0  0  0
  188.7330  178.1860  142.0040 N   0  0  0  0  0  0  0  0  0  0  0  0
  187.6020  176.3800  143.5930 S   0  0  0  0  0  0  0  0  0  0  0  0
  190.2240  176.4520  142.8130 C   0  0  0  0  0  1  0  0  0  0  0  0
  187.4810  178.2500  141.7060 C   0  0  0  0  0  0  0  0  0  0  0  0
  186.5530  177.4380  142.5480 C   0  0  2  0  0  3  0  0  0  0  0  0
  187.0530  178.9890  140.5580 N   0  0  0  0  0  2  0  0  0  0  0  0
  189.0680  177.3690  143.1540 C   0  0  1  0  0  3  0  0  0  0  0  0
  185.6600  179.1100  140.1550 C   0  0  0  0  0  2  0  0  0  0  0  0
  185.4940  178.6260  138.7290 C   0  0  0  0  0  1  0  0  0  0  0  0
  181.1840  177.7320  139.3050 C   0  0  2  0  0  3  0  0  0  0  0  0
  183.0330  176.5660  140.2140 O   0  0  0  0  0  0  0  0  0  0  0  0
  183.3810  175.2190  138.2730 C   0  0  0  0  0  1  0  0  0  0  0  0
  182.0320  177.4860  140.5520 C   0  0  1  0  0  3  0  0  0  0  0  0
  181.2110  176.3510  138.6900 C   0  0  1  0  0  3  0  0  0  0  0  0
  182.4020  175.6640  139.3410 C   0  0  2  0  0  3  0  0  0  0  0  0
  181.9440  178.2250  136.9090 C   0  0  0  0  0  1  0  0  0  0  0  0
  181.8090  178.7610  138.3320 C   0  0  1  0  0  3  0  0  0  0  0  0
  181.0440  180.0850  138.3010 C   0  0  0  0  0  2  0  0  0  0  0  0
  181.9410  181.2810  138.5890 C   0  0  0  0  0  1  0  0  0  0  0  0
  179.9290  175.6120  139.0370 C   0  0  0  0  0  2  0  0  0  0  0  0
  180.1870  174.6450  140.0460 O   0  0  0  0  0  0  0  0  0  0  0  0
  178.9310  175.6750  141.6630 O   0  0  0  0  0  0  0  0  0  0  0  0
  179.3720  173.3780  142.0700 C   0  0  0  0  0  1  0  0  0  0  0  0
  179.4840  174.6220  141.2530 C   0  0  0  0  0  0  0  0  0  0  0  0
  1  6  1  0  0  0  0
  3  7  1  0  0  0  0
  4  3  1  0  0  0  0
  5  8  1  0  0  0  0
  5  4  1  1  0  0  0
  6  2  1  0  0  0  0
  7  2  2  0  0  0  0
  8 10  1  0  0  0  0
  9  1  2  0  0  0  0
 10  9  1  0  0  0  0
 10  3  2  0  0  0  0
 11 17  1  0  0  0  0
 14 11  2  0  0  0  0
 14 15  1  0  0  0  0
 15  9  1  1  0  0  0
 15 12  1  0  0  0  0
 16 14  1  0  0  0  0
 17 13  1  6  0  0  0
 17 12  1  0  0  0  0
 18 16  1  0  0  0  0
 19 18  1  0  0  0  0
 20 27  1  6  0  0  0
 20 23  1  0  0  0  0
 23 21  1  6  0  0  0
 23  5  1  0  0  0  0
 24 30  1  1  0  0  0
 24 20  1  0  0  0  0
 24 25  1  0  0  0  0
 25 22  1  6  0  0  0
 25 21  1  0  0  0  0
 27 26  1  6  0  0  0
 28 27  1  0  0  0  0
 28 29  1  0  0  0  0
 30 31  1  0  0  0  0
 31 34  1  0  0  0  0
 34 32  2  0  0  0  0
 34 33  1  0  0  0  0
M  END
>  <MODEL>
5

>  <REMARK>
 VINA RESULT:      -4.9      5.473      9.084
  Name = 
  8 active torsions:
  status: ('A' for Active; 'I' for Inactive)
    1  A    between atoms: C_5  and  C_29
    2  A    between atoms: C_10  and  C_29
    3  A    between atoms: C_13  and  C_23
    4  A    between atoms: C_17  and  C_28
    5  A    between atoms: N_18  and  C_32
    6  A    between atoms: C_22  and  O_25
    7  A    between atoms: C_22  and  C_26
    8  A    between atoms: O_25  and  C_31
                            x       y       z     vdW  Elec       q    Type
                         _______ _______ _______ _____ _____    ______ ____

>  <TORSDO>
F 8

$$$$
=
 OpenBabel11062415413D

 34 37  0  0  1  0  0  0  0  0999 V2000
  181.9570  173.9070  137.0340 C   0  0  0  0  0  3  0  0  0  0  0  0
  183.2630  171.8500  137.1620 N   0  0  0  0  0  0  0  0  0  0  0  0
  184.9720  173.5470  136.7300 C   0  0  0  0  0  0  0  0  0  0  0  0
  186.4040  173.7880  136.4050 C   0  0  0  0  0  2  0  0  0  0  0  0
  186.4640  175.2890  136.0940 C   0  0  1  0  0  3  0  0  0  0  0  0
  182.2170  172.5620  136.4380 C   0  0  0  0  0  2  0  0  0  0  0  0
  184.4930  172.2560  137.2570 C   0  0  0  0  0  3  0  0  0  0  0  0
  185.1050  175.7670  136.2910 N   0  0  0  0  0  2  0  0  0  0  0  0
  182.8800  174.8770  137.1010 C   0  0  0  0  0  0  0  0  0  0  0  0
  184.2810  174.6770  136.6640 C   0  0  0  0  0  0  0  0  0  0  0  0
  180.2810  176.6990  138.3060 N   0  0  0  0  0  0  0  0  0  0  0  0
  182.6360  176.2530  139.4580 S   0  0  0  0  0  0  0  0  0  0  0  0
  180.4400  177.3940  140.6250 C   0  0  0  0  0  1  0  0  0  0  0  0
  181.1020  176.6240  137.3160 C   0  0  0  0  0  0  0  0  0  0  0  0
  182.5050  176.2310  137.6420 C   0  0  2  0  0  3  0  0  0  0  0  0
  180.6790  177.0020  136.0030 N   0  0  0  0  0  2  0  0  0  0  0  0
  180.8220  176.3430  139.6050 C   0  0  1  0  0  3  0  0  0  0  0  0
  181.5440  176.9450  134.8340 C   0  0  0  0  0  2  0  0  0  0  0  0
  182.1750  178.3010  134.5940 C   0  0  0  0  0  1  0  0  0  0  0  0
  188.9030  175.7190  136.8970 C   0  0  2  0  0  3  0  0  0  0  0  0
  187.2180  177.3700  137.1010 O   0  0  0  0  0  0  0  0  0  0  0  0
  188.7530  179.1950  137.2150 C   0  0  0  0  0  1  0  0  0  0  0  0
  187.4090  175.9820  137.0770 C   0  0  1  0  0  3  0  0  0  0  0  0
  189.4730  176.8680  137.6970 C   0  0  1  0  0  3  0  0  0  0  0  0
  188.3280  177.8660  137.8050 C   0  0  2  0  0  3  0  0  0  0  0  0
  190.5880  176.7140  135.2440 C   0  0  0  0  0  1  0  0  0  0  0  0
  189.3680  175.8150  135.4230 C   0  0  1  0  0  3  0  0  0  0  0  0
  189.6560  174.4460  134.8050 C   0  0  0  0  0  2  0  0  0  0  0  0
  190.3630  173.5090  135.7750 C   0  0  0  0  0  1  0  0  0  0  0  0
  189.8700  176.3790  139.0800 C   0  0  0  0  0  2  0  0  0  0  0  0
  189.5500  177.3660  140.0520 O   0  0  0  0  0  0  0  0  0  0  0  0
  190.2390  176.0760  141.8170 O   0  0  0  0  0  0  0  0  0  0  0  0
  189.1410  178.0890  142.4340 C   0  0  0  0  0  1  0  0  0  0  0  0
  189.6710  177.1280  141.4230 C   0  0  0  0  0  0  0  0  0  0  0  0
  1  9  2  0  0  0  0
  2  7  2  0  0  0  0
  3  7  1  0  0  0  0
  4  3  1  0  0  0  0
  5  8  1  0  0  0  0
  5  4  1  1  0  0  0
  5 23  1  0  0  0  0
  6  1  1  0  0  0  0
  6  2  1  0  0  0  0
  8 10  1  0  0  0  0
 10  3  2  0  0  0  0
 10  9  1  0  0  0  0
 11 17  1  0  0  0  0
 12 17  1  0  0  0  0
 14 15  1  0  0  0  0
 14 11  2  0  0  0  0
 15  9  1  1  0  0  0
 15 12  1  0  0  0  0
 16 14  1  0  0  0  0
 17 13  1  1  0  0  0
 18 16  1  0  0  0  0
 19 18  1  0  0  0  0
 20 27  1  6  0  0  0
 20 23  1  0  0  0  0
 20 24  1  0  0  0  0
 21 25  1  0  0  0  0
 23 21  1  6  0  0  0
 24 25  1  0  0  0  0
 24 30  1  1  0  0  0
 25 22  1  6  0  0  0
 27 26  1  1  0  0  0
 28 27  1  0  0  0  0
 28 29  1  0  0  0  0
 30 31  1  0  0  0  0
 31 34  1  0  0  0  0
 34 32  2  0  0  0  0
 34 33  1  0  0  0  0
M  END
>  <MODEL>
6

>  <REMARK>
 VINA RESULT:      -4.8      4.228      7.710
  Name = 
  8 active torsions:
  status: ('A' for Active; 'I' for Inactive)
    1  A    between atoms: C_5  and  C_29
    2  A    between atoms: C_10  and  C_29
    3  A    between atoms: C_13  and  C_23
    4  A    between atoms: C_17  and  C_28
    5  A    between atoms: N_18  and  C_32
    6  A    between atoms: C_22  and  O_25
    7  A    between atoms: C_22  and  C_26
    8  A    between atoms: O_25  and  C_31
                            x       y       z     vdW  Elec       q    Type
                         _______ _______ _______ _____ _____    ______ ____

>  <TORSDO>
F 8

$$$$
=
 OpenBabel11062415413D

 34 37  0  0  1  0  0  0  0  0999 V2000
  187.4350  175.5920  137.2410 C   0  0  0  0  0  3  0  0  0  0  0  0
  187.5180  173.1610  137.0460 N   0  0  0  0  0  0  0  0  0  0  0  0
  189.7910  173.8290  136.4320 C   0  0  0  0  0  0  0  0  0  0  0  0
  191.0990  173.3690  135.8920 C   0  0  0  0  0  2  0  0  0  0  0  0
  191.8780  174.6690  135.6540 C   0  0  1  0  0  3  0  0  0  0  0  0
  186.9060  174.3840  136.5400 C   0  0  0  0  0  2  0  0  0  0  0  0
  188.7860  172.8900  136.9610 C   0  0  0  0  0  3  0  0  0  0  0  0
  190.9830  175.7280  136.0950 N   0  0  0  0  0  2  0  0  0  0  0  0
  188.7240  175.9600  137.2080 C   0  0  0  0  0  0  0  0  0  0  0  0
  189.7680  175.1510  136.5390 C   0  0  0  0  0  0  0  0  0  0  0  0
  187.6590  178.4530  139.2530 N   0  0  0  0  0  0  0  0  0  0  0  0
  189.8030  176.9070  139.5420 S   0  0  0  0  0  0  0  0  0  0  0  0
  188.7730  178.6300  141.4010 C   0  0  0  0  0  1  0  0  0  0  0  0
  188.0360  178.2160  138.0450 C   0  0  0  0  0  0  0  0  0  0  0  0
  189.1540  177.2400  137.8740 C   0  0  2  0  0  3  0  0  0  0  0  0
  187.4600  178.9440  136.9570 N   0  0  0  0  0  2  0  0  0  0  0  0
  188.3410  177.6990  140.2880 C   0  0  1  0  0  3  0  0  0  0  0  0
  187.8300  178.7360  135.5650 C   0  0  0  0  0  2  0  0  0  0  0  0
  186.6720  178.1170  134.8110 C   0  0  0  0  0  1  0  0  0  0  0  0
  193.8190  173.3210  136.7450 C   0  0  2  0  0  3  0  0  0  0  0  0
  194.1190  175.5480  136.0020 O   0  0  0  0  0  0  0  0  0  0  0  0
  196.4890  175.3580  135.7870 C   0  0  0  0  0  1  0  0  0  0  0  0
  193.1480  174.6720  136.5050 C   0  0  1  0  0  3  0  0  0  0  0  0
  195.1880  173.7790  137.1930 C   0  0  1  0  0  3  0  0  0  0  0  0
  195.2910  175.2160  136.7030 C   0  0  2  0  0  3  0  0  0  0  0  0
  195.3800  172.2880  134.9970 C   0  0  0  0  0  1  0  0  0  0  0  0
  193.9370  172.4600  135.4630 C   0  0  1  0  0  3  0  0  0  0  0  0
  193.2890  171.0830  135.6140 C   0  0  0  0  0  2  0  0  0  0  0  0
  194.3010  170.0000  135.9600 C   0  0  0  0  0  1  0  0  0  0  0  0
  195.2700  173.7380  138.7090 C   0  0  0  0  0  2  0  0  0  0  0  0
  196.6300  173.7590  139.1200 O   0  0  0  0  0  0  0  0  0  0  0  0
  196.5060  175.5760  140.5130 O   0  0  0  0  0  0  0  0  0  0  0  0
  198.6280  175.2530  139.4970 C   0  0  0  0  0  1  0  0  0  0  0  0
  197.2050  174.8730  139.7370 C   0  0  0  0  0  0  0  0  0  0  0  0
  3 10  2  0  0  0  0
  3  7  1  0  0  0  0
  4  3  1  0  0  0  0
  5  4  1  1  0  0  0
  5  8  1  0  0  0  0
  5 23  1  0  0  0  0
  6  2  1  0  0  0  0
  6  1  1  0  0  0  0
  7  2  2  0  0  0  0
  8 10  1  0  0  0  0
  9  1  2  0  0  0  0
 10  9  1  0  0  0  0
 11 17  1  0  0  0  0
 12 17  1  0  0  0  0
 14 11  2  0  0  0  0
 15  9  1  1  0  0  0
 15 14  1  0  0  0  0
 15 12  1  0  0  0  0
 16 14  1  0  0  0  0
 17 13  1  1  0  0  0
 18 16  1  0  0  0  0
 19 18  1  0  0  0  0
 20 27  1  6  0  0  0
 20 24  1  0  0  0  0
 21 25  1  0  0  0  0
 23 21  1  6  0  0  0
 23 20  1  0  0  0  0
 24 30  1  1  0  0  0
 25 22  1  6  0  0  0
 25 24  1  0  0  0  0
 27 26  1  1  0  0  0
 27 28  1  0  0  0  0
 28 29  1  0  0  0  0
 30 31  1  0  0  0  0
 31 34  1  0  0  0  0
 33 34  1  0  0  0  0
 34 32  2  0  0  0  0
M  END
>  <MODEL>
7

>  <REMARK>
 VINA RESULT:      -4.5      3.362      7.642
  Name = 
  8 active torsions:
  status: ('A' for Active; 'I' for Inactive)
    1  A    between atoms: C_5  and  C_29
    2  A    between atoms: C_10  and  C_29
    3  A    between atoms: C_13  and  C_23
    4  A    between atoms: C_17  and  C_28
    5  A    between atoms: N_18  and  C_32
    6  A    between atoms: C_22  and  O_25
    7  A    between atoms: C_22  and  C_26
    8  A    between atoms: O_25  and  C_31
                            x       y       z     vdW  Elec       q    Type
                         _______ _______ _______ _____ _____    ______ ____

>  <TORSDO>
F 8

$$$$
=
 OpenBabel11062415413D

 34 37  0  0  1  0  0  0  0  0999 V2000
  184.9210  179.0230  142.8550 C   0  0  0  0  0  3  0  0  0  0  0  0
  183.1560  178.2420  141.3630 N   0  0  0  0  0  0  0  0  0  0  0  0
  185.1500  178.1140  139.9510 C   0  0  0  0  0  0  0  0  0  0  0  0
  185.6620  177.8800  138.5740 C   0  0  0  0  0  2  0  0  0  0  0  0
  187.1460  178.2610  138.6620 C   0  0  1  0  0  3  0  0  0  0  0  0
  183.6500  179.3660  142.1480 C   0  0  0  0  0  2  0  0  0  0  0  0
  183.7930  177.7130  140.3620 C   0  0  0  0  0  3  0  0  0  0  0  0
  187.3530  178.6400  140.0520 N   0  0  0  0  0  2  0  0  0  0  0  0
  186.0510  178.6820  142.2200 C   0  0  0  0  0  0  0  0  0  0  0  0
  186.1260  178.5290  140.7480 C   0  0  0  0  0  0  0  0  0  0  0  0
  187.9800  176.2330  143.5640 N   0  0  0  0  0  0  0  0  0  0  0  0
  188.7220  178.1640  141.8950 S   0  0  0  0  0  0  0  0  0  0  0  0
  190.2110  175.9940  142.6430 C   0  0  0  0  0  1  0  0  0  0  0  0
  187.2240  177.2250  143.8820 C   0  0  0  0  0  0  0  0  0  0  0  0
  187.3090  178.4350  143.0100 C   0  0  2  0  0  3  0  0  0  0  0  0
  186.4330  177.1730  145.0730 N   0  0  0  0  0  2  0  0  0  0  0  0
  188.7810  176.4050  142.3670 C   0  0  1  0  0  3  0  0  0  0  0  0
  185.5540  178.2510  145.5010 C   0  0  0  0  0  2  0  0  0  0  0  0
  185.8590  178.6240  146.9370 C   0  0  0  0  0  1  0  0  0  0  0  0
  187.9900  176.5770  136.8660 C   0  0  2  0  0  3  0  0  0  0  0  0
  189.3500  177.2330  138.6890 O   0  0  0  0  0  0  0  0  0  0  0  0
  191.4030  176.6740  137.6060 C   0  0  0  0  0  1  0  0  0  0  0  0
  188.0120  177.0480  138.3190 C   0  0  1  0  0  3  0  0  0  0  0  0
  189.2380  175.7250  136.8440 C   0  0  1  0  0  3  0  0  0  0  0  0
  190.0390  176.1870  138.0530 C   0  0  2  0  0  3  0  0  0  0  0  0
  189.2380  177.5110  134.8330 C   0  0  0  0  0  1  0  0  0  0  0  0
  188.1180  177.7340  135.8450 C   0  0  1  0  0  3  0  0  0  0  0  0
  186.8110  178.0090  135.0990 C   0  0  0  0  0  2  0  0  0  0  0  0
  185.8980  176.7920  135.0590 C   0  0  0  0  0  1  0  0  0  0  0  0
  188.8600  174.2610  136.9990 C   0  0  0  0  0  2  0  0  0  0  0  0
  187.5560  174.0420  136.4790 O   0  0  0  0  0  0  0  0  0  0  0  0
  187.1930  171.7780  136.4560 O   0  0  0  0  0  0  0  0  0  0  0  0
  185.5300  173.0340  137.5950 C   0  0  0  0  0  1  0  0  0  0  0  0
  186.7980  172.9180  136.8170 C   0  0  0  0  0  0  0  0  0  0  0  0
  2  6  1  0  0  0  0
  3  7  1  0  0  0  0
  3 10  2  0  0  0  0
  4  3  1  0  0  0  0
  5  4  1  1  0  0  0
  5  8  1  0  0  0  0
  6  1  1  0  0  0  0
  7  2  2  0  0  0  0
  8 10  1  0  0  0  0
  9  1  2  0  0  0  0
 10  9  1  0  0  0  0
 11 14  2  0  0  0  0
 12 17  1  0  0  0  0
 12 15  1  0  0  0  0
 14 16  1  0  0  0  0
 15  9  1  6  0  0  0
 15 14  1  0  0  0  0
 16 18  1  0  0  0  0
 17 13  1  1  0  0  0
 17 11  1  0  0  0  0
 18 19  1  0  0  0  0
 20 27  1  6  0  0  0
 20 23  1  0  0  0  0
 23  5  1  0  0  0  0
 23 21  1  6  0  0  0
 24 20  1  0  0  0  0
 24 30  1  1  0  0  0
 24 25  1  0  0  0  0
 25 22  1  6  0  0  0
 25 21  1  0  0  0  0
 27 26  1  6  0  0  0
 28 27  1  0  0  0  0
 29 28  1  0  0  0  0
 31 34  1  0  0  0  0
 31 30  1  0  0  0  0
 32 34  2  0  0  0  0
 34 33  1  0  0  0  0
M  END
>  <MODEL>
8

>  <REMARK>
 VINA RESULT:      -4.4      3.479      7.895
  Name = 
  8 active torsions:
  status: ('A' for Active; 'I' for Inactive)
    1  A    between atoms: C_5  and  C_29
    2  A    between atoms: C_10  and  C_29
    3  A    between atoms: C_13  and  C_23
    4  A    between atoms: C_17  and  C_28
    5  A    between atoms: N_18  and  C_32
    6  A    between atoms: C_22  and  O_25
    7  A    between atoms: C_22  and  C_26
    8  A    between atoms: O_25  and  C_31
                            x       y       z     vdW  Elec       q    Type
                         _______ _______ _______ _____ _____    ______ ____

>  <TORSDO>
F 8

$$$$
=
 OpenBabel11062415413D

 34 37  0  0  1  0  0  0  0  0999 V2000
  189.8540  177.7060  145.3790 C   0  0  0  0  0  3  0  0  0  0  0  0
  191.7930  179.0350  144.7250 N   0  0  0  0  0  0  0  0  0  0  0  0
  191.2510  177.8250  142.6690 C   0  0  0  0  0  0  0  0  0  0  0  0
  191.6930  177.5020  141.2850 C   0  0  0  0  0  2  0  0  0  0  0  0
  190.7170  176.4090  140.8310 C   0  0  1  0  0  3  0  0  0  0  0  0
  191.3060  177.9790  145.6040 C   0  0  0  0  0  2  0  0  0  0  0  0
  191.8140  178.9550  143.4290 C   0  0  0  0  0  3  0  0  0  0  0  0
  189.8090  176.2280  141.9530 N   0  0  0  0  0  2  0  0  0  0  0  0
  189.3560  177.2710  144.2130 C   0  0  0  0  0  0  0  0  0  0  0  0
  190.1920  177.0990  143.0020 C   0  0  0  0  0  0  0  0  0  0  0  0
  186.2460  178.6300  144.3170 N   0  0  0  0  0  0  0  0  0  0  0  0
  187.3170  177.1500  142.3860 S   0  0  0  0  0  0  0  0  0  0  0  0
  184.9650  178.5410  142.2600 C   0  0  0  0  0  1  0  0  0  0  0  0
  187.0270  177.8190  144.9440 C   0  0  0  0  0  0  0  0  0  0  0  0
  187.8910  176.9400  144.1010 C   0  0  2  0  0  3  0  0  0  0  0  0
  186.9670  177.7230  146.3700 N   0  0  0  0  0  2  0  0  0  0  0  0
  186.3480  178.6150  142.8700 C   0  0  1  0  0  3  0  0  0  0  0  0
  187.8140  176.8330  147.1510 C   0  0  0  0  0  2  0  0  0  0  0  0
  188.1870  177.4960  148.4600 C   0  0  0  0  0  1  0  0  0  0  0  0
  190.7440  177.1050  138.3230 C   0  0  2  0  0  3  0  0  0  0  0  0
  188.8660  176.0420  139.2970 O   0  0  0  0  0  0  0  0  0  0  0  0
  188.0080  175.2330  137.2210 C   0  0  0  0  0  1  0  0  0  0  0  0
  189.9400  176.8880  139.6040 C   0  0  1  0  0  3  0  0  0  0  0  0
  189.6250  177.1150  137.3060 C   0  0  1  0  0  3  0  0  0  0  0  0
  188.4570  176.4440  138.0140 C   0  0  2  0  0  3  0  0  0  0  0  0
  191.5090  175.3320  136.6410 C   0  0  0  0  0  1  0  0  0  0  0  0
  191.7310  175.9530  138.0170 C   0  0  1  0  0  3  0  0  0  0  0  0
  193.1940  176.3790  138.1470 C   0  0  0  0  0  2  0  0  0  0  0  0
  194.1570  175.2130  137.9690 C   0  0  0  0  0  1  0  0  0  0  0  0
  189.2670  178.5490  136.9560 C   0  0  0  0  0  2  0  0  0  0  0  0
  188.0330  178.9020  137.5670 O   0  0  0  0  0  0  0  0  0  0  0  0
  185.7590  178.6310  137.6760 O   0  0  0  0  0  0  0  0  0  0  0  0
  186.6870  178.3320  135.5110 C   0  0  0  0  0  1  0  0  0  0  0  0
  186.8010  178.6290  136.9690 C   0  0  0  0  0  0  0  0  0  0  0  0
  1  6  1  0  0  0  0
  2  6  1  0  0  0  0
  3 10  2  0  0  0  0
  3  7  1  0  0  0  0
  4  3  1  0  0  0  0
  5  4  1  1  0  0  0
  5  8  1  0  0  0  0
  7  2  2  0  0  0  0
  8 10  1  0  0  0  0
  9  1  2  0  0  0  0
 10  9  1  0  0  0  0
 11 14  2  0  0  0  0
 12 17  1  0  0  0  0
 12 15  1  0  0  0  0
 14 16  1  0  0  0  0
 15  9  1  6  0  0  0
 15 14  1  0  0  0  0
 16 18  1  0  0  0  0
 17 13  1  6  0  0  0
 17 11  1  0  0  0  0
 18 19  1  0  0  0  0
 20 27  1  6  0  0  0
 20 23  1  0  0  0  0
 23 21  1  6  0  0  0
 23  5  1  0  0  0  0
 24 30  1  1  0  0  0
 24 25  1  0  0  0  0
 24 20  1  0  0  0  0
 25 22  1  6  0  0  0
 25 21  1  0  0  0  0
 27 26  1  6  0  0  0
 27 28  1  0  0  0  0
 29 28  1  0  0  0  0
 30 31  1  0  0  0  0
 33 34  1  0  0  0  0
 34 31  1  0  0  0  0
 34 32  2  0  0  0  0
M  END
>  <MODEL>
9

>  <REMARK>
 VINA RESULT:      -4.1      3.411      8.464
  Name = 
  8 active torsions:
  status: ('A' for Active; 'I' for Inactive)
    1  A    between atoms: C_5  and  C_29
    2  A    between atoms: C_10  and  C_29
    3  A    between atoms: C_13  and  C_23
    4  A    between atoms: C_17  and  C_28
    5  A    between atoms: N_18  and  C_32
    6  A    between atoms: C_22  and  O_25
    7  A    between atoms: C_22  and  C_26
    8  A    between atoms: O_25  and  C_31
                            x       y       z     vdW  Elec       q    Type
                         _______ _______ _______ _____ _____    ______ ____

>  <TORSDO>
F 8

$$$$
