=
 OpenBabel11062415033D

 31 36  0  0  1  0  0  0  0  0999 V2000
  183.4550  179.4980  144.3300 C   0  0  0  0  0  2  0  0  0  0  0  0
  185.1160  179.1410  142.6570 C   0  0  2  0  0  3  0  0  0  0  0  0
  180.4610  177.2330  139.3900 N   0  0  0  0  0  1  0  0  0  0  0  0
  184.5770  176.9230  137.6480 C   0  0  0  0  0  0  0  0  0  0  0  0
  186.4790  178.7360  137.2550 C   0  0  0  0  0  2  0  0  0  0  0  0
  186.3340  176.3480  136.2130 C   0  0  0  0  0  0  0  0  0  0  0  0
  184.1040  178.0750  140.2990 C   0  0  0  0  0  0  0  0  0  0  0  0
  181.5930  178.0800  139.8100 C   0  0  1  0  0  3  0  0  0  0  0  0
  185.6030  178.2270  143.7740 C   0  0  2  0  0  3  0  0  0  0  0  0
  187.1070  177.6310  136.4100 C   0  0  0  0  0  0  0  0  0  0  0  0
  186.8280  175.4200  135.5490 O   0  0  0  0  0  0  0  0  0  0  0  0
  185.3930  178.1310  138.1740 C   0  0  2  0  0  3  0  0  0  0  0  0
  184.8650  179.6100  143.9910 N   0  0  2  0  0  0  0  0  0  0  0  0
  182.6000  178.6620  142.1060 C   0  0  0  0  0  0  0  0  0  0  0  0
  181.4660  178.3310  141.2370 N   0  0  0  0  0  2  0  0  0  0  0  0
  183.9900  178.3050  141.8200 C   0  0  2  0  0  3  0  0  0  0  0  0
  183.1580  176.7400  138.1680 C   0  0  0  0  0  2  0  0  0  0  0  0
  185.0770  176.1740  136.7430 N   0  0  0  0  0  0  0  0  0  0  0  0
  182.3410  179.0910  143.2970 C   0  0  0  0  0  3  0  0  0  0  0  0
  188.1820  177.6930  135.8490 O   0  0  0  0  0  0  0  0  0  0  0  0
  182.9080  177.3510  139.5710 C   0  0  1  0  0  3  0  0  0  0  0  0
  185.2620  178.3340  139.6710 C   0  0  0  0  0  3  0  0  0  0  0  0
  186.1150  177.8660  145.2600 C   0  0  0  0  0  2  0  0  0  0  0  0
  187.5060  177.4020  145.4260 N   0  0  0  0  0  2  0  0  0  0  0  0
  189.7190  177.3000  146.4380 C   0  0  2  0  0  3  0  0  0  0  0  0
  191.6160  176.8620  145.2670 C   0  0  0  0  0  2  0  0  0  0  0  0
  188.4030  177.5510  146.5470 C   0  0  2  0  0  3  0  0  0  0  0  0
  190.2290  177.1020  145.1760 N   0  0  0  0  0  2  0  0  0  0  0  0
  191.9260  176.4990  146.6240 N   0  0  0  0  0  2  0  0  0  0  0  0
  190.7690  176.8860  147.4020 C   0  0  0  0  0  2  0  0  0  0  0  0
  187.9500  177.5340  147.9450 C   0  0  0  0  0  1  0  0  0  0  0  0
  2  9  1  0  0  0  0
  2 13  1  0  0  0  0
  3  8  1  0  0  0  0
  4 17  1  0  0  0  0
  4 12  1  0  0  0  0
  5 12  1  0  0  0  0
  6 10  1  0  0  0  0
  6 18  1  0  0  0  0
  7 16  1  0  0  0  0
  8 15  1  0  0  0  0
  9 13  1  0  0  0  0
  9 23  1  0  0  0  0
 10  5  1  0  0  0  0
 11  6  2  0  0  0  0
 12 22  1  0  0  0  0
 13  1  1  0  0  0  0
 14 19  2  0  0  0  0
 15 14  1  0  0  0  0
 16 14  1  0  0  0  0
 16  2  1  0  0  0  0
 17 21  1  0  0  0  0
 18  4  2  0  0  0  0
 19  1  1  0  0  0  0
 20 10  2  0  0  0  0
 21  8  1  0  0  0  0
 21  7  1  0  0  0  0
 22  7  2  0  0  0  0
 23 24  1  0  0  0  0
 24 27  1  0  0  0  0
 25 27  1  0  0  0  0
 25 30  1  0  0  0  0
 26 29  1  0  0  0  0
 27 31  1  0  0  0  0
 28 26  1  0  0  0  0
 28 25  1  0  0  0  0
 29 30  1  0  0  0  0
M  END
>  <MODEL>
1

>  <REMARK>
 VINA RESULT:      -8.7      0.000      0.000
  Name = 
  3 active torsions:
  status: ('A' for Active; 'I' for Inactive)
    1  A    between atoms: C_8  and  N_16
    2  A    between atoms: C_10  and  C_13
    3  A    between atoms: C_10  and  N_16
                            x       y       z     vdW  Elec       q    Type
                         _______ _______ _______ _____ _____    ______ ____

>  <TORSDO>
F 3

$$$$
=
 OpenBabel11062415033D

 31 36  0  0  1  0  0  0  0  0999 V2000
  187.2650  178.6210  141.4200 C   0  0  0  0  0  2  0  0  0  0  0  0
  189.4300  177.7100  141.0050 C   0  0  2  0  0  3  0  0  0  0  0  0
  187.3170  176.9580  135.4420 N   0  0  0  0  0  1  0  0  0  0  0  0
  191.4070  175.4100  136.4120 C   0  0  0  0  0  0  0  0  0  0  0  0
  193.5620  176.5960  137.4160 C   0  0  0  0  0  2  0  0  0  0  0  0
  193.4470  174.2790  136.2210 C   0  0  0  0  0  0  0  0  0  0  0  0
  189.7760  176.8160  138.3970 C   0  0  0  0  0  0  0  0  0  0  0  0
  188.1520  177.4850  136.5380 C   0  0  1  0  0  3  0  0  0  0  0  0
  188.9020  176.7710  142.0830 C   0  0  2  0  0  3  0  0  0  0  0  0
  194.2540  175.3080  136.9770 C   0  0  0  0  0  0  0  0  0  0  0  0
  193.9760  173.2100  135.8690 O   0  0  0  0  0  0  0  0  0  0  0  0
  192.0320  176.3760  137.4500 C   0  0  2  0  0  3  0  0  0  0  0  0
  188.5700  178.3160  141.9840 N   0  0  2  0  0  0  0  0  0  0  0  0
  187.7130  177.9120  139.0370 C   0  0  0  0  0  0  0  0  0  0  0  0
  187.2750  177.8530  137.6390 N   0  0  0  0  0  2  0  0  0  0  0  0
  188.8480  177.1670  139.5790 C   0  0  2  0  0  3  0  0  0  0  0  0
  189.9690  175.6610  135.9800 C   0  0  0  0  0  2  0  0  0  0  0  0
  192.1290  174.4940  135.8920 N   0  0  0  0  0  0  0  0  0  0  0  0
  186.9210  178.4720  139.8920 C   0  0  0  0  0  3  0  0  0  0  0  0
  195.4220  175.0330  137.1620 O   0  0  0  0  0  0  0  0  0  0  0  0
  189.1070  176.4060  137.0300 C   0  0  1  0  0  3  0  0  0  0  0  0
  191.0990  176.7030  138.5990 C   0  0  0  0  0  3  0  0  0  0  0  0
  188.3190  176.3790  143.5340 C   0  0  0  0  0  3  0  0  0  0  0  0
  188.9220  177.0110  144.7240 N   0  0  0  0  0  0  0  0  0  0  0  0
  187.2640  177.8160  146.3160 C   0  0  2  0  0  3  0  0  0  0  0  0
  185.3450  178.8680  145.7080 C   0  0  0  0  0  2  0  0  0  0  0  0
  188.4020  177.1460  146.0630 C   0  0  2  0  0  3  0  0  0  0  0  0
  186.4910  178.1890  145.2420 N   0  0  0  0  0  2  0  0  0  0  0  0
  185.5870  179.2920  147.0610 N   0  0  0  0  0  2  0  0  0  0  0  0
  186.7390  178.5350  147.5030 C   0  0  0  0  0  2  0  0  0  0  0  0
  189.2340  176.9920  147.2660 C   0  0  0  0  0  1  0  0  0  0  0  0
  1 13  1  0  0  0  0
  2 13  1  0  0  0  0
  2  9  1  0  0  0  0
  3  8  1  0  0  0  0
  4 12  1  0  0  0  0
  5 12  1  0  0  0  0
  6 10  1  0  0  0  0
  7 22  2  0  0  0  0
  7 16  1  0  0  0  0
  8 21  1  0  0  0  0
  8 15  1  0  0  0  0
  9 23  1  0  0  0  0
 10 20  2  0  0  0  0
 10  5  1  0  0  0  0
 11  6  2  0  0  0  0
 12 22  1  0  0  0  0
 13  9  1  0  0  0  0
 14 16  1  0  0  0  0
 14 19  2  0  0  0  0
 15 14  1  0  0  0  0
 16  2  1  0  0  0  0
 17  4  1  0  0  0  0
 17 21  1  0  0  0  0
 18  6  1  0  0  0  0
 18  4  2  0  0  0  0
 19  1  1  0  0  0  0
 21  7  1  0  0  0  0
 23 24  2  0  0  0  0
 24 27  1  0  0  0  0
 25 30  1  0  0  0  0
 26 29  1  0  0  0  0
 27 25  1  0  0  0  0
 27 31  1  0  0  0  0
 28 26  1  0  0  0  0
 28 25  1  0  0  0  0
 29 30  1  0  0  0  0
M  END
>  <MODEL>
2

>  <REMARK>
 VINA RESULT:      -8.1      4.200      5.960
  Name = 
  3 active torsions:
  status: ('A' for Active; 'I' for Inactive)
    1  A    between atoms: C_8  and  N_16
    2  A    between atoms: C_10  and  C_13
    3  A    between atoms: C_10  and  N_16
                            x       y       z     vdW  Elec       q    Type
                         _______ _______ _______ _____ _____    ______ ____

>  <TORSDO>
F 3

$$$$
=
 OpenBabel11062415033D

 31 36  0  0  1  0  0  0  0  0999 V2000
  187.1980  178.2130  138.7490 C   0  0  0  0  0  2  0  0  0  0  0  0
  189.4950  177.7510  139.1880 C   0  0  2  0  0  3  0  0  0  0  0  0
  188.7520  173.5060  135.0160 N   0  0  0  0  0  1  0  0  0  0  0  0
  192.6910  173.7680  137.1330 C   0  0  0  0  0  0  0  0  0  0  0  0
  194.4140  175.7670  137.4360 C   0  0  0  0  0  2  0  0  0  0  0  0
  194.8460  173.2300  137.8700 C   0  0  0  0  0  0  0  0  0  0  0  0
  190.5070  175.6370  137.6940 C   0  0  0  0  0  0  0  0  0  0  0  0
  189.2570  174.7360  135.6530 C   0  0  1  0  0  3  0  0  0  0  0  0
  188.8640  177.5030  140.5530 C   0  0  2  0  0  3  0  0  0  0  0  0
  195.3370  174.6570  137.9340 C   0  0  0  0  0  0  0  0  0  0  0  0
  195.5650  172.3060  138.2880 O   0  0  0  0  0  0  0  0  0  0  0  0
  192.9520  175.2640  137.4390 C   0  0  2  0  0  3  0  0  0  0  0  0
  188.3760  178.5910  139.5120 N   0  0  2  0  0  0  0  0  0  0  0  0
  188.2360  176.3980  137.3320 C   0  0  0  0  0  0  0  0  0  0  0  0
  188.1240  175.4550  136.2150 N   0  0  0  0  0  2  0  0  0  0  0  0
  189.3090  176.3760  138.3260 C   0  0  2  0  0  3  0  0  0  0  0  0
  191.3620  173.3920  136.4940 C   0  0  0  0  0  2  0  0  0  0  0  0
  193.6150  172.9120  137.3450 N   0  0  0  0  0  0  0  0  0  0  0  0
  187.2150  177.1470  137.5920 C   0  0  0  0  0  3  0  0  0  0  0  0
  196.4620  174.8120  138.3650 O   0  0  0  0  0  0  0  0  0  0  0  0
  190.2070  174.3830  136.7900 C   0  0  1  0  0  3  0  0  0  0  0  0
  191.7580  175.9650  138.0580 C   0  0  0  0  0  3  0  0  0  0  0  0
  188.0320  177.8870  141.8790 C   0  0  0  0  0  2  0  0  0  0  0  0
  188.1960  177.0410  143.0770 N   0  0  0  0  0  2  0  0  0  0  0  0
  189.1210  177.2710  145.3190 C   0  0  2  0  0  3  0  0  0  0  0  0
  191.3140  176.9450  145.8120 C   0  0  0  0  0  2  0  0  0  0  0  0
  188.0810  177.3840  144.4740 C   0  0  2  0  0  3  0  0  0  0  0  0
  190.3590  177.0220  144.7760 N   0  0  0  0  0  2  0  0  0  0  0  0
  190.6210  176.7360  147.0540 N   0  0  0  0  0  2  0  0  0  0  0  0
  189.2360  177.0590  146.7830 C   0  0  0  0  0  2  0  0  0  0  0  0
  186.7940  177.4370  145.1840 C   0  0  0  0  0  1  0  0  0  0  0  0
  1 13  1  0  0  0  0
  2 13  1  0  0  0  0
  2  9  1  0  0  0  0
  3  8  1  0  0  0  0
  4 18  2  0  0  0  0
  4 12  1  0  0  0  0
  5 12  1  0  0  0  0
  5 10  1  0  0  0  0
  6 10  1  0  0  0  0
  6 11  2  0  0  0  0
  7 22  2  0  0  0  0
  7 16  1  0  0  0  0
  8 15  1  0  0  0  0
  8 21  1  0  0  0  0
  9 23  1  0  0  0  0
 10 20  2  0  0  0  0
 12 22  1  0  0  0  0
 13  9  1  0  0  0  0
 14 19  2  0  0  0  0
 14 16  1  0  0  0  0
 15 14  1  0  0  0  0
 16  2  1  0  0  0  0
 17 21  1  0  0  0  0
 17  4  1  0  0  0  0
 18  6  1  0  0  0  0
 19  1  1  0  0  0  0
 21  7  1  0  0  0  0
 23 24  1  0  0  0  0
 24 27  1  0  0  0  0
 25 30  1  0  0  0  0
 26 29  1  0  0  0  0
 27 31  1  0  0  0  0
 27 25  1  0  0  0  0
 28 25  1  0  0  0  0
 28 26  1  0  0  0  0
 30 29  1  0  0  0  0
M  END
>  <MODEL>
3

>  <REMARK>
 VINA RESULT:      -8.0      5.053      6.958
  Name = 
  3 active torsions:
  status: ('A' for Active; 'I' for Inactive)
    1  A    between atoms: C_8  and  N_16
    2  A    between atoms: C_10  and  C_13
    3  A    between atoms: C_10  and  N_16
                            x       y       z     vdW  Elec       q    Type
                         _______ _______ _______ _____ _____    ______ ____

>  <TORSDO>
F 3

$$$$
=
 OpenBabel11062415033D

 31 36  0  0  1  0  0  0  0  0999 V2000
  187.0780  178.2540  138.8370 C   0  0  0  0  0  2  0  0  0  0  0  0
  189.4410  177.9370  138.8790 C   0  0  2  0  0  3  0  0  0  0  0  0
  188.1960  173.1980  135.4180 N   0  0  0  0  0  1  0  0  0  0  0  0
  192.4360  173.8630  136.7030 C   0  0  0  0  0  0  0  0  0  0  0  0
  194.0610  175.9490  136.4500 C   0  0  0  0  0  2  0  0  0  0  0  0
  194.7190  173.5010  137.0700 C   0  0  0  0  0  0  0  0  0  0  0  0
  190.2850  175.7000  137.4610 C   0  0  0  0  0  0  0  0  0  0  0  0
  188.7360  174.5140  135.8080 C   0  0  1  0  0  3  0  0  0  0  0  0
  189.0890  177.8290  140.3580 C   0  0  2  0  0  3  0  0  0  0  0  0
  195.1260  174.9430  136.8810 C   0  0  0  0  0  0  0  0  0  0  0  0
  195.5580  172.6620  137.4420 O   0  0  0  0  0  0  0  0  0  0  0  0
  192.6580  175.3940  136.7870 C   0  0  2  0  0  3  0  0  0  0  0  0
  188.3520  178.7660  139.3160 N   0  0  2  0  0  0  0  0  0  0  0  0
  187.9440  176.3240  137.4570 C   0  0  0  0  0  0  0  0  0  0  0  0
  187.6840  175.2500  136.4930 N   0  0  0  0  0  2  0  0  0  0  0  0
  189.1810  176.4630  138.2240 C   0  0  2  0  0  3  0  0  0  0  0  0
  191.0360  173.3620  136.3740 C   0  0  0  0  0  2  0  0  0  0  0  0
  193.4330  173.0750  136.8280 N   0  0  0  0  0  0  0  0  0  0  0  0
  186.9450  177.0580  137.8230 C   0  0  0  0  0  3  0  0  0  0  0  0
  196.2990  175.1910  137.0700 O   0  0  0  0  0  0  0  0  0  0  0  0
  189.8990  174.3360  136.7740 C   0  0  1  0  0  3  0  0  0  0  0  0
  191.5590  176.1170  137.5410 C   0  0  0  0  0  3  0  0  0  0  0  0
  188.4950  178.3370  141.7680 C   0  0  0  0  0  2  0  0  0  0  0  0
  187.6840  177.3960  142.5650 N   0  0  0  0  0  2  0  0  0  0  0  0
  186.4430  177.8170  144.6170 C   0  0  2  0  0  3  0  0  0  0  0  0
  184.3720  178.7500  144.6640 C   0  0  0  0  0  2  0  0  0  0  0  0
  187.5170  177.3010  143.9950 C   0  0  2  0  0  3  0  0  0  0  0  0
  185.4000  178.2530  143.8350 N   0  0  0  0  0  2  0  0  0  0  0  0
  184.9250  179.0120  145.9650 N   0  0  0  0  0  2  0  0  0  0  0  0
  186.1960  178.3190  145.9920 C   0  0  0  0  0  2  0  0  0  0  0  0
  188.6360  177.0700  144.9200 C   0  0  0  0  0  1  0  0  0  0  0  0
  1 13  1  0  0  0  0
  2 13  1  0  0  0  0
  2  9  1  0  0  0  0
  3  8  1  0  0  0  0
  4 12  1  0  0  0  0
  4 18  2  0  0  0  0
  5 12  1  0  0  0  0
  5 10  1  0  0  0  0
  6 11  2  0  0  0  0
  7 22  2  0  0  0  0
  7 16  1  0  0  0  0
  8 15  1  0  0  0  0
  8 21  1  0  0  0  0
  9 23  1  0  0  0  0
 10 20  2  0  0  0  0
 10  6  1  0  0  0  0
 12 22  1  0  0  0  0
 13  9  1  0  0  0  0
 14 19  2  0  0  0  0
 14 16  1  0  0  0  0
 15 14  1  0  0  0  0
 16  2  1  0  0  0  0
 17  4  1  0  0  0  0
 17 21  1  0  0  0  0
 18  6  1  0  0  0  0
 19  1  1  0  0  0  0
 21  7  1  0  0  0  0
 23 24  1  0  0  0  0
 24 27  1  0  0  0  0
 25 30  1  0  0  0  0
 26 29  1  0  0  0  0
 27 25  1  0  0  0  0
 27 31  1  0  0  0  0
 28 25  1  0  0  0  0
 28 26  1  0  0  0  0
 29 30  1  0  0  0  0
M  END
>  <MODEL>
4

>  <REMARK>
 VINA RESULT:      -8.0      4.891      7.164
  Name = 
  3 active torsions:
  status: ('A' for Active; 'I' for Inactive)
    1  A    between atoms: C_8  and  N_16
    2  A    between atoms: C_10  and  C_13
    3  A    between atoms: C_10  and  N_16
                            x       y       z     vdW  Elec       q    Type
                         _______ _______ _______ _____ _____    ______ ____

>  <TORSDO>
F 3

$$$$
=
 OpenBabel11062415033D

 31 36  0  0  1  0  0  0  0  0999 V2000
  185.1170  179.7680  143.9170 C   0  0  0  0  0  2  0  0  0  0  0  0
  184.9900  179.2070  141.6030 C   0  0  2  0  0  3  0  0  0  0  0  0
  179.2910  177.8780  142.9240 N   0  0  0  0  0  1  0  0  0  0  0  0
  180.7800  177.0630  138.7780 C   0  0  0  0  0  0  0  0  0  0  0  0
  181.9310  178.6280  136.9660 C   0  0  0  0  0  2  0  0  0  0  0  0
  180.8740  176.2730  136.5770 C   0  0  0  0  0  0  0  0  0  0  0  0
  182.4920  178.2680  140.8260 C   0  0  0  0  0  0  0  0  0  0  0  0
  180.4350  178.5810  142.3130 C   0  0  1  0  0  3  0  0  0  0  0  0
  186.0610  178.2420  142.0960 C   0  0  2  0  0  3  0  0  0  0  0  0
  181.6470  177.4530  136.0340 C   0  0  0  0  0  0  0  0  0  0  0  0
  180.6460  175.2910  135.8490 O   0  0  0  0  0  0  0  0  0  0  0  0
  181.8170  178.1630  138.4360 C   0  0  2  0  0  3  0  0  0  0  0  0
  185.8340  179.7060  142.6530 N   0  0  2  0  0  0  0  0  0  0  0  0
  182.8430  179.0390  143.0950 C   0  0  0  0  0  0  0  0  0  0  0  0
  181.4130  178.8480  143.3560 N   0  0  0  0  0  2  0  0  0  0  0  0
  183.5460  178.5140  141.9250 C   0  0  2  0  0  3  0  0  0  0  0  0
  180.1850  177.0560  140.1790 C   0  0  0  0  0  2  0  0  0  0  0  0
  180.3950  176.2560  137.8660 N   0  0  0  0  0  0  0  0  0  0  0  0
  183.5740  179.4990  144.0570 C   0  0  0  0  0  3  0  0  0  0  0  0
  181.9700  177.3810  134.8650 O   0  0  0  0  0  0  0  0  0  0  0  0
  181.0900  177.6950  141.2620 C   0  0  1  0  0  3  0  0  0  0  0  0
  182.8390  178.3830  139.5330 C   0  0  0  0  0  3  0  0  0  0  0  0
  187.4640  177.8230  142.7700 C   0  0  0  0  0  2  0  0  0  0  0  0
  187.4330  177.0730  144.0410 N   0  0  0  0  0  2  0  0  0  0  0  0
  188.9950  177.3330  145.8910 C   0  0  2  0  0  3  0  0  0  0  0  0
  191.2030  176.8170  145.7520 C   0  0  0  0  0  2  0  0  0  0  0  0
  187.7650  177.5030  145.3770 C   0  0  2  0  0  3  0  0  0  0  0  0
  189.9940  176.9320  145.0350 N   0  0  0  0  0  2  0  0  0  0  0  0
  190.8950  176.7490  147.1550 N   0  0  0  0  0  2  0  0  0  0  0  0
  189.5220  177.1930  147.2700 C   0  0  0  0  0  2  0  0  0  0  0  0
  186.7550  177.7250  146.4220 C   0  0  0  0  0  1  0  0  0  0  0  0
  1 19  1  0  0  0  0
  2 16  1  0  0  0  0
  2  9  1  0  0  0  0
  2 13  1  0  0  0  0
  4 17  1  0  0  0  0
  5 12  1  0  0  0  0
  6 18  1  0  0  0  0
  7 21  1  0  0  0  0
  7 16  1  0  0  0  0
  8  3  1  0  0  0  0
  8 15  1  0  0  0  0
  9 13  1  0  0  0  0
  9 23  1  0  0  0  0
 10  6  1  0  0  0  0
 10  5  1  0  0  0  0
 11  6  2  0  0  0  0
 12  4  1  0  0  0  0
 12 22  1  0  0  0  0
 13  1  1  0  0  0  0
 14 15  1  0  0  0  0
 14 19  2  0  0  0  0
 16 14  1  0  0  0  0
 17 21  1  0  0  0  0
 18  4  2  0  0  0  0
 20 10  2  0  0  0  0
 21  8  1  0  0  0  0
 22  7  2  0  0  0  0
 23 24  1  0  0  0  0
 24 27  1  0  0  0  0
 25 30  1  0  0  0  0
 26 29  1  0  0  0  0
 27 25  1  0  0  0  0
 27 31  1  0  0  0  0
 28 26  1  0  0  0  0
 28 25  1  0  0  0  0
 29 30  1  0  0  0  0
M  END
>  <MODEL>
5

>  <REMARK>
 VINA RESULT:      -7.8      2.661      3.106
  Name = 
  3 active torsions:
  status: ('A' for Active; 'I' for Inactive)
    1  A    between atoms: C_8  and  N_16
    2  A    between atoms: C_10  and  C_13
    3  A    between atoms: C_10  and  N_16
                            x       y       z     vdW  Elec       q    Type
                         _______ _______ _______ _____ _____    ______ ____

>  <TORSDO>
F 3

$$$$
=
 OpenBabel11062415033D

 31 36  0  0  1  0  0  0  0  0999 V2000
  191.2380  175.6410  135.1570 C   0  0  0  0  0  2  0  0  0  0  0  0
  191.8750  175.6260  137.4550 C   0  0  2  0  0  3  0  0  0  0  0  0
  186.7360  178.6280  138.2100 N   0  0  0  0  0  1  0  0  0  0  0  0
  189.3920  177.9920  141.7610 C   0  0  0  0  0  0  0  0  0  0  0  0
  190.4120  175.7910  142.8430 C   0  0  0  0  0  2  0  0  0  0  0  0
  190.2760  178.1630  143.9220 C   0  0  0  0  0  0  0  0  0  0  0  0
  190.0730  176.9400  139.1140 C   0  0  0  0  0  0  0  0  0  0  0  0
  187.7180  177.5320  138.3110 C   0  0  1  0  0  3  0  0  0  0  0  0
  193.0350  176.3820  136.8190 C   0  0  2  0  0  3  0  0  0  0  0  0
  190.7520  176.7310  143.9960 C   0  0  0  0  0  0  0  0  0  0  0  0
  190.5550  178.9600  144.8340 O   0  0  0  0  0  0  0  0  0  0  0  0
  190.0850  176.6180  141.5790 C   0  0  2  0  0  3  0  0  0  0  0  0
  192.2300  175.2070  136.1280 N   0  0  2  0  0  0  0  0  0  0  0  0
  189.5860  176.6910  136.7540 C   0  0  0  0  0  0  0  0  0  0  0  0
  188.2700  177.2940  136.9860 N   0  0  0  0  0  2  0  0  0  0  0  0
  190.6870  176.7170  137.7160 C   0  0  2  0  0  3  0  0  0  0  0  0
  188.4980  178.4940  140.6360 C   0  0  0  0  0  2  0  0  0  0  0  0
  189.5200  178.6190  142.8660 N   0  0  0  0  0  0  0  0  0  0  0  0
  189.8720  176.3150  135.5510 C   0  0  0  0  0  3  0  0  0  0  0  0
  191.3630  176.4290  145.0010 O   0  0  0  0  0  0  0  0  0  0  0  0
  188.8580  177.9360  139.2360 C   0  0  1  0  0  3  0  0  0  0  0  0
  190.6790  176.4260  140.1970 C   0  0  0  0  0  3  0  0  0  0  0  0
  194.2820  176.5880  135.8190 C   0  0  0  0  0  2  0  0  0  0  0  0
  195.5840  176.0020  136.1950 N   0  0  0  0  0  2  0  0  0  0  0  0
  197.0950  174.2380  136.9270 C   0  0  2  0  0  3  0  0  0  0  0  0
  198.8370  174.5840  138.3430 C   0  0  0  0  0  2  0  0  0  0  0  0
  195.9920  174.6200  136.2600 C   0  0  2  0  0  3  0  0  0  0  0  0
  197.7120  175.1710  137.7260 N   0  0  0  0  0  2  0  0  0  0  0  0
  199.1800  173.3900  137.6180 N   0  0  0  0  0  2  0  0  0  0  0  0
  198.0250  173.0890  136.8000 C   0  0  0  0  0  2  0  0  0  0  0  0
  195.5540  173.6070  135.2880 C   0  0  0  0  0  1  0  0  0  0  0  0
  1 19  1  0  0  0  0
  1 13  1  0  0  0  0
  2 16  1  0  0  0  0
  3  8  1  0  0  0  0
  4 18  2  0  0  0  0
  5 10  1  0  0  0  0
  6 10  1  0  0  0  0
  6 11  2  0  0  0  0
  7 21  1  0  0  0  0
  7 22  2  0  0  0  0
  8 21  1  0  0  0  0
  9  2  1  0  0  0  0
 10 20  2  0  0  0  0
 12  4  1  0  0  0  0
 12  5  1  0  0  0  0
 13  9  1  0  0  0  0
 13  2  1  0  0  0  0
 14 15  1  0  0  0  0
 14 16  1  0  0  0  0
 15  8  1  0  0  0  0
 16  7  1  0  0  0  0
 17  4  1  0  0  0  0
 18  6  1  0  0  0  0
 19 14  2  0  0  0  0
 21 17  1  0  0  0  0
 22 12  1  0  0  0  0
 23 24  1  0  0  0  0
 23  9  1  0  0  0  0
 24 27  1  0  0  0  0
 25 28  1  0  0  0  0
 27 25  1  0  0  0  0
 28 26  1  0  0  0  0
 29 26  1  0  0  0  0
 30 25  1  0  0  0  0
 30 29  1  0  0  0  0
 31 27  1  0  0  0  0
M  END
>  <MODEL>
6

>  <REMARK>
 VINA RESULT:      -7.8      6.822      9.865
  Name = 
  3 active torsions:
  status: ('A' for Active; 'I' for Inactive)
    1  A    between atoms: C_8  and  N_16
    2  A    between atoms: C_10  and  C_13
    3  A    between atoms: C_10  and  N_16
                            x       y       z     vdW  Elec       q    Type
                         _______ _______ _______ _____ _____    ______ ____

>  <TORSDO>
F 3

$$$$
=
 OpenBabel11062415033D

 31 36  0  0  1  0  0  0  0  0999 V2000
  185.2210  179.1570  144.9870 C   0  0  0  0  0  2  0  0  0  0  0  0
  185.2590  178.6990  142.6470 C   0  0  2  0  0  3  0  0  0  0  0  0
  179.3030  178.3900  143.2880 N   0  0  0  0  0  1  0  0  0  0  0  0
  181.0830  177.4440  139.2870 C   0  0  0  0  0  0  0  0  0  0  0  0
  182.6910  178.8270  137.6890 C   0  0  0  0  0  2  0  0  0  0  0  0
  181.2850  176.7180  137.0720 C   0  0  0  0  0  0  0  0  0  0  0  0
  182.7390  178.2550  141.5630 C   0  0  0  0  0  0  0  0  0  0  0  0
  180.6140  178.8910  142.8380 C   0  0  1  0  0  3  0  0  0  0  0  0
  186.0790  177.5400  143.2020 C   0  0  2  0  0  3  0  0  0  0  0  0
  182.3110  177.7530  136.6740 C   0  0  0  0  0  0  0  0  0  0  0  0
  180.9700  175.8160  136.2760 O   0  0  0  0  0  0  0  0  0  0  0  0
  182.3310  178.3470  139.1130 C   0  0  2  0  0  3  0  0  0  0  0  0
  186.0530  179.0030  143.8050 N   0  0  2  0  0  0  0  0  0  0  0  0
  182.9620  178.8800  143.8930 C   0  0  0  0  0  0  0  0  0  0  0  0
  181.5000  178.9440  143.9910 N   0  0  0  0  0  2  0  0  0  0  0  0
  183.6880  178.2700  142.7800 C   0  0  2  0  0  3  0  0  0  0  0  0
  180.3410  177.5030  140.6150 C   0  0  0  0  0  2  0  0  0  0  0  0
  180.6670  176.7490  138.3010 N   0  0  0  0  0  0  0  0  0  0  0  0
  183.6480  179.1690  144.9490 C   0  0  0  0  0  3  0  0  0  0  0  0
  182.7470  177.6590  135.5440 O   0  0  0  0  0  0  0  0  0  0  0  0
  181.2170  177.9330  141.8190 C   0  0  1  0  0  3  0  0  0  0  0  0
  183.2450  178.3430  140.3220 C   0  0  0  0  0  3  0  0  0  0  0  0
  187.3000  176.8530  144.0000 C   0  0  0  0  0  2  0  0  0  0  0  0
  188.3110  176.1090  143.2240 N   0  0  0  0  0  2  0  0  0  0  0  0
  189.8020  177.0610  141.5500 C   0  0  2  0  0  3  0  0  0  0  0  0
  189.0810  177.9560  139.5910 C   0  0  0  0  0  2  0  0  0  0  0  0
  189.6160  176.5230  142.7680 C   0  0  2  0  0  3  0  0  0  0  0  0
  188.6840  177.4060  140.8270 N   0  0  0  0  0  2  0  0  0  0  0  0
  190.4500  177.5870  139.3480 N   0  0  0  0  0  2  0  0  0  0  0  0
  190.9580  177.1280  140.6230 C   0  0  0  0  0  2  0  0  0  0  0  0
  190.8670  176.0100  143.3430 C   0  0  0  0  0  1  0  0  0  0  0  0
  2 16  1  0  0  0  0
  2  9  1  0  0  0  0
  2 13  1  0  0  0  0
  4 17  1  0  0  0  0
  5 12  1  0  0  0  0
  6 18  1  0  0  0  0
  7 21  1  0  0  0  0
  7 16  1  0  0  0  0
  8  3  1  0  0  0  0
  8 15  1  0  0  0  0
  9 13  1  0  0  0  0
  9 23  1  0  0  0  0
 10  6  1  0  0  0  0
 10  5  1  0  0  0  0
 11  6  2  0  0  0  0
 12  4  1  0  0  0  0
 12 22  1  0  0  0  0
 13  1  1  0  0  0  0
 14 15  1  0  0  0  0
 14 19  2  0  0  0  0
 16 14  1  0  0  0  0
 17 21  1  0  0  0  0
 18  4  2  0  0  0  0
 19  1  1  0  0  0  0
 20 10  2  0  0  0  0
 21  8  1  0  0  0  0
 22  7  2  0  0  0  0
 24 23  1  0  0  0  0
 25 27  1  0  0  0  0
 26 28  1  0  0  0  0
 27 24  1  0  0  0  0
 27 31  1  0  0  0  0
 28 25  1  0  0  0  0
 29 26  1  0  0  0  0
 29 30  1  0  0  0  0
 30 25  1  0  0  0  0
M  END
>  <MODEL>
7

>  <REMARK>
 VINA RESULT:      -7.6      2.910      4.043
  Name = 
  3 active torsions:
  status: ('A' for Active; 'I' for Inactive)
    1  A    between atoms: C_8  and  N_16
    2  A    between atoms: C_10  and  C_13
    3  A    between atoms: C_10  and  N_16
                            x       y       z     vdW  Elec       q    Type
                         _______ _______ _______ _____ _____    ______ ____

>  <TORSDO>
F 3

$$$$
=
 OpenBabel11062415033D

 31 36  0  0  1  0  0  0  0  0999 V2000
  184.4410  179.6340  144.0620 C   0  0  0  0  0  2  0  0  0  0  0  0
  185.0110  178.7470  141.9230 C   0  0  2  0  0  3  0  0  0  0  0  0
  179.1340  177.6020  141.5710 N   0  0  0  0  0  1  0  0  0  0  0  0
  181.7940  176.2090  138.2480 C   0  0  0  0  0  0  0  0  0  0  0  0
  183.5120  177.5020  136.6880 C   0  0  0  0  0  2  0  0  0  0  0  0
  182.5310  175.1130  136.3150 C   0  0  0  0  0  0  0  0  0  0  0  0
  182.8390  177.6990  140.5420 C   0  0  0  0  0  0  0  0  0  0  0  0
  180.4380  178.2140  141.2570 C   0  0  1  0  0  3  0  0  0  0  0  0
  185.8370  177.8660  142.8520 C   0  0  2  0  0  3  0  0  0  0  0  0
  183.4820  176.2050  135.8840 C   0  0  0  0  0  0  0  0  0  0  0  0
  182.4990  174.0360  135.6940 O   0  0  0  0  0  0  0  0  0  0  0  0
  182.9310  177.2510  138.0990 C   0  0  2  0  0  3  0  0  0  0  0  0
  185.5100  179.3940  143.1050 N   0  0  2  0  0  0  0  0  0  0  0  0
  182.5040  178.7880  142.6800 C   0  0  0  0  0  0  0  0  0  0  0  0
  181.0560  178.6310  142.5060 N   0  0  0  0  0  2  0  0  0  0  0  0
  183.5110  178.1030  141.8710 C   0  0  2  0  0  3  0  0  0  0  0  0
  180.7960  176.4000  139.3810 C   0  0  0  0  0  2  0  0  0  0  0  0
  181.6770  175.2780  137.3810 N   0  0  0  0  0  0  0  0  0  0  0  0
  182.9200  179.3820  143.7500 C   0  0  0  0  0  3  0  0  0  0  0  0
  184.1470  175.9680  134.8960 O   0  0  0  0  0  0  0  0  0  0  0  0
  181.3490  177.1900  140.5940 C   0  0  1  0  0  3  0  0  0  0  0  0
  183.5730  177.6290  139.4190 C   0  0  0  0  0  3  0  0  0  0  0  0
  186.9450  177.5530  143.9810 C   0  0  0  0  0  2  0  0  0  0  0  0
  188.3660  177.7650  143.6440 N   0  0  0  0  0  2  0  0  0  0  0  0
  190.1440  176.7720  144.9800 C   0  0  2  0  0  3  0  0  0  0  0  0
  190.3870  177.1290  147.2100 C   0  0  0  0  0  2  0  0  0  0  0  0
  189.4970  176.8840  143.8070 C   0  0  2  0  0  3  0  0  0  0  0  0
  189.5710  177.3590  146.0830 N   0  0  0  0  0  2  0  0  0  0  0  0
  191.6950  176.7430  146.7520 N   0  0  0  0  0  2  0  0  0  0  0  0
  191.5280  176.3960  145.3570 C   0  0  0  0  0  2  0  0  0  0  0  0
  190.3070  176.4020  142.6790 C   0  0  0  0  0  1  0  0  0  0  0  0
  2  9  1  0  0  0  0
  2 13  1  0  0  0  0
  4 17  1  0  0  0  0
  5 12  1  0  0  0  0
  6 18  1  0  0  0  0
  7 21  1  0  0  0  0
  7 16  1  0  0  0  0
  8  3  1  0  0  0  0
  8 15  1  0  0  0  0
  9 13  1  0  0  0  0
  9 23  1  0  0  0  0
 10  6  1  0  0  0  0
 10  5  1  0  0  0  0
 11  6  2  0  0  0  0
 12  4  1  0  0  0  0
 12 22  1  0  0  0  0
 13  1  1  0  0  0  0
 14 19  2  0  0  0  0
 15 14  1  0  0  0  0
 16  2  1  0  0  0  0
 16 14  1  0  0  0  0
 17 21  1  0  0  0  0
 18  4  2  0  0  0  0
 19  1  1  0  0  0  0
 20 10  2  0  0  0  0
 21  8  1  0  0  0  0
 22  7  2  0  0  0  0
 24 27  1  0  0  0  0
 24 23  1  0  0  0  0
 25 30  1  0  0  0  0
 25 28  1  0  0  0  0
 27 25  1  0  0  0  0
 28 26  1  0  0  0  0
 29 26  1  0  0  0  0
 30 29  1  0  0  0  0
 31 27  1  0  0  0  0
M  END
>  <MODEL>
8

>  <REMARK>
 VINA RESULT:      -7.5      1.977      2.596
  Name = 
  3 active torsions:
  status: ('A' for Active; 'I' for Inactive)
    1  A    between atoms: C_8  and  N_16
    2  A    between atoms: C_10  and  C_13
    3  A    between atoms: C_10  and  N_16
                            x       y       z     vdW  Elec       q    Type
                         _______ _______ _______ _____ _____    ______ ____

>  <TORSDO>
F 3

$$$$
=
 OpenBabel11062415033D

 31 36  0  0  1  0  0  0  0  0999 V2000
  182.7360  179.0770  138.5110 C   0  0  0  0  0  2  0  0  0  0  0  0
  185.0970  178.8960  138.8000 C   0  0  2  0  0  3  0  0  0  0  0  0
  184.5620  174.3930  134.8740 N   0  0  0  0  0  1  0  0  0  0  0  0
  188.5800  175.1970  136.6830 C   0  0  0  0  0  0  0  0  0  0  0  0
  190.0790  177.3880  136.7750 C   0  0  0  0  0  2  0  0  0  0  0  0
  190.8280  174.9400  137.2820 C   0  0  0  0  0  0  0  0  0  0  0  0
  186.2400  176.8370  137.3250 C   0  0  0  0  0  0  0  0  0  0  0  0
  184.9650  175.7020  135.4210 C   0  0  1  0  0  3  0  0  0  0  0  0
  184.5930  178.6480  140.2160 C   0  0  2  0  0  3  0  0  0  0  0  0
  191.1550  176.4150  137.2490 C   0  0  0  0  0  0  0  0  0  0  0  0
  191.6760  174.1250  137.6840 O   0  0  0  0  0  0  0  0  0  0  0  0
  188.6880  176.7270  136.9060 C   0  0  2  0  0  3  0  0  0  0  0  0
  183.9130  179.6220  139.1700 N   0  0  2  0  0  0  0  0  0  0  0  0
  183.8770  177.3210  137.0990 C   0  0  0  0  0  0  0  0  0  0  0  0
  183.7980  176.3160  136.0340 N   0  0  0  0  0  2  0  0  0  0  0  0
  185.0110  177.4680  138.0120 C   0  0  2  0  0  3  0  0  0  0  0  0
  187.2620  174.6440  136.1600 C   0  0  0  0  0  2  0  0  0  0  0  0
  189.6090  174.4620  136.8630 N   0  0  0  0  0  0  0  0  0  0  0  0
  182.7970  177.9630  137.4020 C   0  0  0  0  0  3  0  0  0  0  0  0
  192.2820  176.7150  137.5900 O   0  0  0  0  0  0  0  0  0  0  0  0
  186.0250  175.5130  136.4980 C   0  0  1  0  0  3  0  0  0  0  0  0
  187.4670  177.3200  137.5820 C   0  0  0  0  0  3  0  0  0  0  0  0
  183.8150  179.0030  141.5830 C   0  0  0  0  0  2  0  0  0  0  0  0
  184.1060  178.1950  142.7830 N   0  0  0  0  0  2  0  0  0  0  0  0
  186.0550  178.1230  144.2420 C   0  0  2  0  0  3  0  0  0  0  0  0
  188.0170  177.1330  143.6680 C   0  0  0  0  0  2  0  0  0  0  0  0
  184.8060  178.5540  143.9930 C   0  0  2  0  0  3  0  0  0  0  0  0
  186.7320  177.5040  143.2180 N   0  0  0  0  0  2  0  0  0  0  0  0
  188.0170  177.1470  145.1060 N   0  0  0  0  0  2  0  0  0  0  0  0
  186.8290  177.8840  145.4850 C   0  0  0  0  0  2  0  0  0  0  0  0
  184.1210  179.0030  145.2140 C   0  0  0  0  0  1  0  0  0  0  0  0
  1 13  1  0  0  0  0
  2 13  1  0  0  0  0
  2  9  1  0  0  0  0
  3  8  1  0  0  0  0
  4 18  2  0  0  0  0
  4 12  1  0  0  0  0
  5 12  1  0  0  0  0
  5 10  1  0  0  0  0
  6 11  2  0  0  0  0
  7 22  2  0  0  0  0
  7 16  1  0  0  0  0
  8 15  1  0  0  0  0
  8 21  1  0  0  0  0
  9 23  1  0  0  0  0
 10  6  1  0  0  0  0
 10 20  2  0  0  0  0
 12 22  1  0  0  0  0
 13  9  1  0  0  0  0
 14 19  2  0  0  0  0
 14 16  1  0  0  0  0
 15 14  1  0  0  0  0
 16  2  1  0  0  0  0
 17 21  1  0  0  0  0
 17  4  1  0  0  0  0
 18  6  1  0  0  0  0
 19  1  1  0  0  0  0
 21  7  1  0  0  0  0
 23 24  1  0  0  0  0
 24 27  1  0  0  0  0
 25 30  1  0  0  0  0
 26 29  1  0  0  0  0
 27 25  1  0  0  0  0
 27 31  1  0  0  0  0
 28 26  1  0  0  0  0
 28 25  1  0  0  0  0
 29 30  1  0  0  0  0
M  END
>  <MODEL>
9

>  <REMARK>
 VINA RESULT:      -7.3      2.503      4.745
  Name = 
  3 active torsions:
  status: ('A' for Active; 'I' for Inactive)
    1  A    between atoms: C_8  and  N_16
    2  A    between atoms: C_10  and  C_13
    3  A    between atoms: C_10  and  N_16
                            x       y       z     vdW  Elec       q    Type
                         _______ _______ _______ _____ _____    ______ ____

>  <TORSDO>
F 3

$$$$
