=
 OpenBabel11062415503D

 44 48  0  0  1  0  0  0  0  0999 V2000
  183.3020  178.8460  142.8980 C   0  0  0  0  0  0  0  0  0  0  0  0
  181.9680  179.2010  143.4780 C   0  0  0  0  0  1  0  0  0  0  0  0
  188.9760  177.5220  144.7140 C   0  0  0  0  0  0  0  0  0  0  0  0
  185.5730  178.0330  137.4430 O   0  0  0  0  0  1  0  0  0  0  0  0
  182.4740  178.9860  139.1960 C   0  0  0  0  0  0  0  0  0  0  0  0
  183.5480  178.7580  141.4820 C   0  0  0  0  0  0  0  0  0  0  0  0
  184.1080  178.6800  145.1610 N   0  0  0  0  0  0  0  0  0  0  0  0
  184.8700  178.3820  141.0820 C   0  0  0  0  0  0  0  0  0  0  0  0
  183.4640  178.6700  138.2890 C   0  0  0  0  0  3  0  0  0  0  0  0
  184.3310  178.5950  143.8220 C   0  0  0  0  0  0  0  0  0  0  0  0
  185.8200  178.1670  142.0280 N   0  0  0  0  0  0  0  0  0  0  0  0
  187.9330  177.7400  143.8180 C   0  0  0  0  0  3  0  0  0  0  0  0
  185.6030  178.2620  143.3590 C   0  0  0  0  0  0  0  0  0  0  0  0
  181.2150  179.5010  140.9370 N   0  0  0  0  0  2  0  0  0  0  0  0
  186.6400  178.0270  144.2760 C   0  0  0  0  0  0  0  0  0  0  0  0
  180.3610  179.7180  139.9030 O   0  0  0  0  0  0  0  0  0  0  0  0
  182.4990  179.0410  140.5580 C   0  0  0  0  0  0  0  0  0  0  0  0
  181.1220  179.4110  138.7460 C   0  0  2  0  0  3  0  0  0  0  0  0
  184.7680  178.3150  138.5390 C   0  0  0  0  0  0  0  0  0  0  0  0
  184.7870  178.5660  147.3050 O   0  0  0  0  0  0  0  0  0  0  0  0
  185.3470  178.2090  139.7890 C   0  0  0  0  0  3  0  0  0  0  0  0
  185.0770  178.4490  146.0850 C   0  0  0  0  0  0  0  0  0  0  0  0
  188.7270  177.5760  146.0910 C   0  0  0  0  0  3  0  0  0  0  0  0
  186.3830  178.1060  145.6710 C   0  0  0  0  0  0  0  0  0  0  0  0
  187.4410  177.8630  146.5850 C   0  0  0  0  0  0  0  0  0  0  0  0
  180.4490  178.3010  137.9180 C   0  0  1  0  0  3  0  0  0  0  0  0
  179.2420  177.8840  138.4930 O   0  0  0  0  0  1  0  0  0  0  0  0
  178.9310  178.1880  135.9080 C   0  0  0  0  0  1  0  0  0  0  0  0
  181.3720  178.0140  135.6160 C   0  0  0  0  0  1  0  0  0  0  0  0
  180.3760  180.1570  136.2640 C   0  0  0  0  0  1  0  0  0  0  0  0
  180.2700  178.6580  136.4390 C   0  0  0  0  0  0  0  0  0  0  0  0
  187.2130  177.9120  147.9660 O   0  0  0  0  0  0  0  0  0  0  0  0
  188.2630  177.9340  148.9260 C   0  0  0  0  0  1  0  0  0  0  0  0
  190.3490  177.2690  144.1740 C   0  0  2  0  0  3  0  0  0  0  0  0
  191.7300  176.2980  146.0210 C   0  0  0  0  0  1  0  0  0  0  0  0
  191.4350  177.5430  145.2070 C   0  0  0  0  0  2  0  0  0  0  0  0
  190.5880  178.0900  142.9120 C   0  0  0  0  0  2  0  0  0  0  0  0
  190.7820  177.2100  141.7720 N   0  0  0  0  0  2  0  0  0  0  0  0
  190.5880  175.9920  139.2380 N   0  0  0  0  0  2  0  0  0  0  0  0
  189.9510  177.0940  139.4460 C   0  0  0  0  0  0  0  0  0  0  0  0
  190.0480  177.7550  140.7090 N   0  0  0  0  0  2  0  0  0  0  0  0
  189.1680  177.7020  138.3660 C   0  0  0  0  0  0  0  0  0  0  0  0
  188.8920  177.0420  137.3270 O   0  0  0  0  0  0  0  0  0  0  0  0
  188.7270  179.0100  138.4820 O   0  0  0  0  0  1  0  0  0  0  0  0
  1  2  1  0  0  0  0
  1 10  1  0  0  0  0
  3 23  1  0  0  0  0
  4 19  1  0  0  0  0
  5 17  2  0  0  0  0
  6  1  2  0  0  0  0
  7 22  1  0  0  0  0
  8  6  1  0  0  0  0
  8 11  1  0  0  0  0
  9 19  2  0  0  0  0
  9  5  1  0  0  0  0
 10  7  2  0  0  0  0
 11 13  2  0  0  0  0
 12 15  1  0  0  0  0
 12  3  2  0  0  0  0
 13 10  1  0  0  0  0
 13 15  1  0  0  0  0
 15 24  2  0  0  0  0
 16 14  1  0  0  0  0
 17 14  1  0  0  0  0
 17  6  1  0  0  0  0
 18 26  1  1  0  0  0
 18  5  1  0  0  0  0
 18 16  1  0  0  0  0
 19 21  1  0  0  0  0
 21  8  2  0  0  0  0
 22 20  2  0  0  0  0
 23 25  2  0  0  0  0
 24 22  1  0  0  0  0
 24 25  1  0  0  0  0
 25 32  1  0  0  0  0
 26 27  1  1  0  0  0
 28 31  1  0  0  0  0
 29 31  1  0  0  0  0
 30 31  1  0  0  0  0
 31 26  1  0  0  0  0
 32 33  1  0  0  0  0
 34 37  1  6  0  0  0
 34  3  1  0  0  0  0
 34 36  1  0  0  0  0
 36 35  1  0  0  0  0
 38 37  1  0  0  0  0
 39 40  2  0  0  0  0
 40 41  1  0  0  0  0
 41 38  1  0  0  0  0
 42 44  1  0  0  0  0
 42 40  1  0  0  0  0
 43 42  2  0  0  0  0
M  END
>  <MODEL>
1

>  <REMARK>
 VINA RESULT:      -9.9      0.000      0.000
  Name = 
  9 active torsions:
  status: ('A' for Active; 'I' for Inactive)
    1  A    between atoms: C_2  and  N_7
    2  A    between atoms: C_2  and  C_12
    3  A    between atoms: C_4  and  C_9
    4  A    between atoms: N_7  and  N_23
    5  A    between atoms: C_10  and  C_12
    6  A    between atoms: C_12  and  C_27
    7  A    between atoms: C_19  and  C_34
    8  A    between atoms: C_19  and  C_42
    9  A    between atoms: O_29  and  C_44
                            x       y       z     vdW  Elec       q    Type
                         _______ _______ _______ _____ _____    ______ ____

>  <TORSDO>
F 9

$$$$
=
 OpenBabel11062415503D

 44 48  0  0  1  0  0  0  0  0999 V2000
  184.7010  178.3670  144.7020 C   0  0  0  0  0  0  0  0  0  0  0  0
  184.1790  178.6670  146.0720 C   0  0  0  0  0  1  0  0  0  0  0  0
  182.9060  178.5810  138.8730 C   0  0  0  0  0  0  0  0  0  0  0  0
  189.7880  176.3090  142.3630 O   0  0  0  0  0  1  0  0  0  0  0  0
  188.1520  177.0520  145.5810 C   0  0  0  0  0  0  0  0  0  0  0  0
  186.0130  177.8240  144.4590 C   0  0  0  0  0  0  0  0  0  0  0  0
  182.5890  179.1520  143.8540 N   0  0  0  0  0  2  0  0  0  0  0  0
  186.3790  177.6150  143.0910 C   0  0  0  0  0  0  0  0  0  0  0  0
  189.0000  176.6910  144.5540 C   0  0  0  0  0  3  0  0  0  0  0  0
  183.8320  178.6450  143.6330 C   0  0  0  0  0  0  0  0  0  0  0  0
  185.4840  177.8940  142.1090 N   0  0  0  0  0  0  0  0  0  0  0  0
  183.7630  178.3470  139.9440 C   0  0  0  0  0  3  0  0  0  0  0  0
  184.2450  178.3880  142.3260 C   0  0  0  0  0  0  0  0  0  0  0  0
  186.4920  177.6400  146.9140 N   0  0  0  0  0  0  0  0  0  0  0  0
  183.3740  178.6470  141.2560 C   0  0  0  0  0  0  0  0  0  0  0  0
  187.4570  177.2980  147.8070 O   0  0  0  0  0  0  0  0  0  0  0  0
  186.8730  177.5230  145.5560 C   0  0  0  0  0  0  0  0  0  0  0  0
  188.5550  176.8980  147.0040 C   0  0  2  0  0  3  0  0  0  0  0  0
  188.7600  176.7200  143.2010 C   0  0  0  0  0  0  0  0  0  0  0  0
  180.5810  179.8850  143.1450 O   0  0  0  0  0  0  0  0  0  0  0  0
  187.5840  177.1280  142.6010 C   0  0  0  0  0  3  0  0  0  0  0  0
  181.7180  179.4310  142.8490 C   0  0  0  0  0  0  0  0  0  0  0  0
  181.6430  179.1390  139.1090 C   0  0  0  0  0  3  0  0  0  0  0  0
  182.0870  179.1920  141.5060 C   0  0  0  0  0  0  0  0  0  0  0  0
  181.2200  179.4520  140.4130 C   0  0  0  0  0  0  0  0  0  0  0  0
  189.8040  177.7450  147.3120 C   0  0  1  0  0  3  0  0  0  0  0  0
  189.6430  178.5030  148.4780 O   0  0  0  0  0  1  0  0  0  0  0  0
  191.8660  177.0450  146.0400 C   0  0  0  0  0  1  0  0  0  0  0  0
  190.7940  175.4720  147.6060 C   0  0  0  0  0  1  0  0  0  0  0  0
  191.9800  177.4320  148.4750 C   0  0  0  0  0  1  0  0  0  0  0  0
  191.1050  176.9350  147.3460 C   0  0  0  0  0  0  0  0  0  0  0  0
  179.9530  180.0090  140.6260 O   0  0  0  0  0  0  0  0  0  0  0  0
  179.5360  181.2360  140.0400 C   0  0  0  0  0  1  0  0  0  0  0  0
  183.3500  178.1950  137.4960 C   0  0  2  0  0  3  0  0  0  0  0  0
  181.9200  176.2930  136.7220 C   0  0  0  0  0  1  0  0  0  0  0  0
  182.1820  177.7820  136.6080 C   0  0  0  0  0  2  0  0  0  0  0  0
  184.3940  177.0880  137.5610 C   0  0  0  0  0  2  0  0  0  0  0  0
  185.4450  177.3330  136.5870 N   0  0  0  0  0  2  0  0  0  0  0  0
  187.9020  176.3290  137.5340 N   0  0  0  0  0  2  0  0  0  0  0  0
  187.6560  177.5880  137.6640 C   0  0  0  0  0  0  0  0  0  0  0  0
  186.4100  178.1280  137.2220 N   0  0  0  0  0  2  0  0  0  0  0  0
  188.6340  178.4620  138.3200 C   0  0  0  0  0  0  0  0  0  0  0  0
  188.9880  179.5440  137.7790 O   0  0  0  0  0  0  0  0  0  0  0  0
  189.1770  178.0980  139.5420 O   0  0  0  0  0  1  0  0  0  0  0  0
  1  2  1  0  0  0  0
  3 23  2  0  0  0  0
  3 12  1  0  0  0  0
  4 19  1  0  0  0  0
  5 18  1  0  0  0  0
  6  1  1  0  0  0  0
  6 17  1  0  0  0  0
  8  6  2  0  0  0  0
  9  5  2  0  0  0  0
 10  7  1  0  0  0  0
 10  1  2  0  0  0  0
 11 13  2  0  0  0  0
 11  8  1  0  0  0  0
 12 15  2  0  0  0  0
 13 10  1  0  0  0  0
 14 16  1  0  0  0  0
 15 24  1  0  0  0  0
 15 13  1  0  0  0  0
 17  5  1  0  0  0  0
 17 14  2  0  0  0  0
 18 26  1  1  0  0  0
 18 16  1  0  0  0  0
 19  9  1  0  0  0  0
 21  8  1  0  0  0  0
 21 19  2  0  0  0  0
 22 20  2  0  0  0  0
 22  7  1  0  0  0  0
 23 25  1  0  0  0  0
 24 22  1  0  0  0  0
 25 32  1  0  0  0  0
 25 24  2  0  0  0  0
 26 31  1  0  0  0  0
 26 27  1  1  0  0  0
 28 31  1  0  0  0  0
 31 29  1  0  0  0  0
 31 30  1  0  0  0  0
 33 32  1  0  0  0  0
 34 36  1  6  0  0  0
 34 37  1  0  0  0  0
 34  3  1  0  0  0  0
 36 35  1  0  0  0  0
 38 41  1  0  0  0  0
 38 37  1  0  0  0  0
 39 40  2  0  0  0  0
 40 42  1  0  0  0  0
 41 40  1  0  0  0  0
 42 44  1  0  0  0  0
 43 42  2  0  0  0  0
M  END
>  <MODEL>
2

>  <REMARK>
 VINA RESULT:      -8.2      2.027      8.762
  Name = 
  9 active torsions:
  status: ('A' for Active; 'I' for Inactive)
    1  A    between atoms: C_2  and  N_7
    2  A    between atoms: C_2  and  C_12
    3  A    between atoms: C_4  and  C_9
    4  A    between atoms: N_7  and  N_23
    5  A    between atoms: C_10  and  C_12
    6  A    between atoms: C_12  and  C_27
    7  A    between atoms: C_19  and  C_34
    8  A    between atoms: C_19  and  C_42
    9  A    between atoms: O_29  and  C_44
                            x       y       z     vdW  Elec       q    Type
                         _______ _______ _______ _____ _____    ______ ____

>  <TORSDO>
F 9

$$$$
=
 OpenBabel11062415503D

 44 48  0  0  1  0  0  0  0  0999 V2000
  186.3210  178.2550  139.1920 C   0  0  0  0  0  0  0  0  0  0  0  0
  186.0890  178.1840  137.7150 C   0  0  0  0  0  1  0  0  0  0  0  0
  190.8300  177.5580  143.2460 C   0  0  0  0  0  0  0  0  0  0  0  0
  183.0480  179.4330  144.0380 O   0  0  0  0  0  1  0  0  0  0  0  0
  182.8070  179.0680  140.3780 C   0  0  0  0  0  0  0  0  0  0  0  0
  185.2770  178.5410  140.1420 C   0  0  0  0  0  0  0  0  0  0  0  0
  188.6300  177.7490  138.7340 N   0  0  0  0  0  2  0  0  0  0  0  0
  185.6610  178.6010  141.5200 C   0  0  0  0  0  0  0  0  0  0  0  0
  182.5970  179.2630  141.7270 C   0  0  0  0  0  2  0  0  0  0  0  0
  187.6390  178.0250  139.6240 C   0  0  0  0  0  0  0  0  0  0  0  0
  186.9500  178.3550  141.8680 N   0  0  0  0  0  0  0  0  0  0  0  0
  189.5390  177.8180  142.7930 C   0  0  0  0  0  3  0  0  0  0  0  0
  187.9340  178.0700  140.9860 C   0  0  0  0  0  0  0  0  0  0  0  0
  183.5300  178.6020  138.3430 N   0  0  0  0  0  2  0  0  0  0  0  0
  189.2450  177.8230  141.4240 C   0  0  0  0  0  0  0  0  0  0  0  0
  182.2100  178.8370  138.1220 O   0  0  0  0  0  0  0  0  0  0  0  0
  183.9400  178.7470  139.6910 C   0  0  0  0  0  0  0  0  0  0  0  0
  181.6850  179.1340  139.4050 C   0  0  2  0  0  3  0  0  0  0  0  0
  183.5100  179.1820  142.7530 C   0  0  0  0  0  0  0  0  0  0  0  0
  190.7660  177.2530  138.2200 O   0  0  0  0  0  0  0  0  0  0  0  0
  184.8500  178.8790  142.6140 C   0  0  0  0  0  3  0  0  0  0  0  0
  189.9150  177.5160  139.1100 C   0  0  0  0  0  0  0  0  0  0  0  0
  191.8500  177.3120  142.3190 C   0  0  0  0  0  3  0  0  0  0  0  0
  190.2690  177.5520  140.4780 C   0  0  0  0  0  0  0  0  0  0  0  0
  191.5890  177.3080  140.9370 C   0  0  0  0  0  0  0  0  0  0  0  0
  181.0280  180.5270  139.4260 C   0  0  1  0  0  3  0  0  0  0  0  0
  181.4590  181.3210  138.3560 O   0  0  0  0  0  1  0  0  0  0  0  0
  179.0230  180.1870  140.9170 C   0  0  0  0  0  1  0  0  0  0  0  0
  178.9600  179.4130  138.5770 C   0  0  0  0  0  1  0  0  0  0  0  0
  178.9310  181.8150  139.0640 C   0  0  0  0  0  1  0  0  0  0  0  0
  179.4980  180.4850  139.5090 C   0  0  0  0  0  0  0  0  0  0  0  0
  192.6240  177.0600  140.0260 O   0  0  0  0  0  0  0  0  0  0  0  0
  193.7670  177.8990  139.9020 C   0  0  0  0  0  1  0  0  0  0  0  0
  191.0820  177.5150  144.7210 C   0  0  2  0  0  3  0  0  0  0  0  0
  192.0330  176.0730  146.5320 C   0  0  0  0  0  1  0  0  0  0  0  0
  191.2440  176.0900  145.2370 C   0  0  0  0  0  2  0  0  0  0  0  0
  189.9730  178.2380  145.4750 C   0  0  0  0  0  2  0  0  0  0  0  0
  189.0730  177.2750  146.0870 N   0  0  0  0  0  2  0  0  0  0  0  0
  186.4080  177.2290  145.1740 N   0  0  0  0  0  2  0  0  0  0  0  0
  186.6950  177.9390  146.2120 C   0  0  0  0  0  0  0  0  0  0  0  0
  188.0400  178.0080  146.6870 N   0  0  0  0  0  2  0  0  0  0  0  0
  185.6480  178.7220  146.8750 C   0  0  0  0  0  0  0  0  0  0  0  0
  185.9500  179.7240  147.5790 O   0  0  0  0  0  1  0  0  0  0  0  0
  184.3180  178.3630  146.7300 O   0  0  0  0  0  0  0  0  0  0  0  0
  1 10  2  0  0  0  0
  1  6  1  0  0  0  0
  2  1  1  0  0  0  0
  3 34  1  0  0  0  0
  5  9  1  0  0  0  0
  6  8  2  0  0  0  0
  7 22  1  0  0  0  0
  7 10  1  0  0  0  0
  8 11  1  0  0  0  0
  8 21  1  0  0  0  0
  9 19  1  0  0  0  0
 10 13  1  0  0  0  0
 12  3  1  0  0  0  0
 13 15  1  0  0  0  0
 13 11  2  0  0  0  0
 14 17  1  0  0  0  0
 15 12  2  0  0  0  0
 16 14  1  0  0  0  0
 16 18  1  0  0  0  0
 17  6  1  0  0  0  0
 17  5  2  0  0  0  0
 18 26  1  6  0  0  0
 18  5  1  0  0  0  0
 19  4  1  0  0  0  0
 20 22  2  0  0  0  0
 21 19  2  0  0  0  0
 22 24  1  0  0  0  0
 23  3  2  0  0  0  0
 24 25  2  0  0  0  0
 24 15  1  0  0  0  0
 25 23  1  0  0  0  0
 26 27  1  6  0  0  0
 26 31  1  0  0  0  0
 29 31  1  0  0  0  0
 30 31  1  0  0  0  0
 31 28  1  0  0  0  0
 32 25  1  0  0  0  0
 33 32  1  0  0  0  0
 34 36  1  1  0  0  0
 34 37  1  0  0  0  0
 36 35  1  0  0  0  0
 37 38  1  0  0  0  0
 38 41  1  0  0  0  0
 39 40  2  0  0  0  0
 40 41  1  0  0  0  0
 40 42  1  0  0  0  0
 42 43  1  0  0  0  0
 44 42  2  0  0  0  0
M  END
>  <MODEL>
3

>  <REMARK>
 VINA RESULT:      -8.2      2.196      5.670
  Name = 
  9 active torsions:
  status: ('A' for Active; 'I' for Inactive)
    1  A    between atoms: C_2  and  N_7
    2  A    between atoms: C_2  and  C_12
    3  A    between atoms: C_4  and  C_9
    4  A    between atoms: N_7  and  N_23
    5  A    between atoms: C_10  and  C_12
    6  A    between atoms: C_12  and  C_27
    7  A    between atoms: C_19  and  C_34
    8  A    between atoms: C_19  and  C_42
    9  A    between atoms: O_29  and  C_44
                            x       y       z     vdW  Elec       q    Type
                         _______ _______ _______ _____ _____    ______ ____

>  <TORSDO>
F 9

$$$$
=
 OpenBabel11062415503D

 44 48  0  0  1  0  0  0  0  0999 V2000
  184.5000  178.9260  139.6420 C   0  0  0  0  0  0  0  0  0  0  0  0
  184.7840  179.0350  138.1760 C   0  0  0  0  0  1  0  0  0  0  0  0
  187.3950  177.7260  144.8790 C   0  0  0  0  0  0  0  0  0  0  0  0
  179.7380  179.5170  143.1850 O   0  0  0  0  0  1  0  0  0  0  0  0
  180.7640  179.6010  139.6460 C   0  0  0  0  0  0  0  0  0  0  0  0
  183.1860  179.0980  140.2060 C   0  0  0  0  0  0  0  0  0  0  0  0
  186.8450  178.4710  139.9420 N   0  0  0  0  0  0  0  0  0  0  0  0
  183.0780  178.9880  141.6290 C   0  0  0  0  0  0  0  0  0  0  0  0
  180.1030  179.6310  140.8560 C   0  0  0  0  0  3  0  0  0  0  0  0
  185.6020  178.6400  140.4660 C   0  0  0  0  0  0  0  0  0  0  0  0
  184.1820  178.6980  142.3640 N   0  0  0  0  0  0  0  0  0  0  0  0
  186.3240  178.0440  144.0470 C   0  0  0  0  0  3  0  0  0  0  0  0
  185.4170  178.5190  141.8430 C   0  0  0  0  0  0  0  0  0  0  0  0
  182.1500  179.3830  137.9390 N   0  0  0  0  0  2  0  0  0  0  0  0
  186.5110  178.2160  142.6700 C   0  0  0  0  0  0  0  0  0  0  0  0
  180.9750  179.6470  137.3110 O   0  0  0  0  0  0  0  0  0  0  0  0
  182.0740  179.3620  139.3530 C   0  0  0  0  0  0  0  0  0  0  0  0
  180.0360  179.7890  138.3630 C   0  0  2  0  0  3  0  0  0  0  0  0
  180.6170  179.4230  142.1140 C   0  0  0  0  0  0  0  0  0  0  0  0
  189.0460  178.0340  140.1320 O   0  0  0  0  0  0  0  0  0  0  0  0
  181.9360  179.1340  142.4060 C   0  0  0  0  0  3  0  0  0  0  0  0
  187.9350  178.1900  140.7040 C   0  0  0  0  0  0  0  0  0  0  0  0
  188.6770  177.5910  144.3330 C   0  0  0  0  0  3  0  0  0  0  0  0
  187.8040  178.0580  142.1040 C   0  0  0  0  0  0  0  0  0  0  0  0
  188.8990  177.7560  142.9540 C   0  0  0  0  0  0  0  0  0  0  0  0
  179.3570  181.1710  138.3200 C   0  0  1  0  0  3  0  0  0  0  0  0
  179.3660  181.7930  139.5740 O   0  0  0  0  0  1  0  0  0  0  0  0
  181.2770  182.6430  137.6080 C   0  0  0  0  0  1  0  0  0  0  0  0
  178.9660  183.2620  137.0120 C   0  0  0  0  0  1  0  0  0  0  0  0
  180.0250  181.3360  135.9290 C   0  0  0  0  0  1  0  0  0  0  0  0
  179.9140  182.0960  137.2320 C   0  0  0  0  0  0  0  0  0  0  0  0
  190.1900  177.6170  142.4280 O   0  0  0  0  0  0  0  0  0  0  0  0
  191.3470  178.1500  143.0600 C   0  0  0  0  0  1  0  0  0  0  0  0
  187.1340  177.5030  146.3370 C   0  0  2  0  0  3  0  0  0  0  0  0
  186.0290  179.4580  147.4390 C   0  0  0  0  0  1  0  0  0  0  0  0
  185.8090  178.1070  146.7860 C   0  0  0  0  0  2  0  0  0  0  0  0
  188.2850  178.0450  147.1750 C   0  0  0  0  0  2  0  0  0  0  0  0
  188.7960  177.0080  148.0550 N   0  0  0  0  0  2  0  0  0  0  0  0
  191.5550  177.5040  148.3350 N   0  0  0  0  0  2  0  0  0  0  0  0
  191.1720  176.5760  147.5270 C   0  0  0  0  0  0  0  0  0  0  0  0
  189.7810  176.3140  147.3380 N   0  0  0  0  0  2  0  0  0  0  0  0
  192.1650  175.8220  146.7550 C   0  0  0  0  0  0  0  0  0  0  0  0
  193.1240  175.2470  147.3370 O   0  0  0  0  0  1  0  0  0  0  0  0
  192.0520  175.7390  145.3760 O   0  0  0  0  0  0  0  0  0  0  0  0
  1  6  2  0  0  0  0
  1 10  1  0  0  0  0
  2  1  1  0  0  0  0
  3 34  1  0  0  0  0
  5  9  1  0  0  0  0
  6  8  1  0  0  0  0
  7 10  2  0  0  0  0
  7 22  1  0  0  0  0
  8 11  1  0  0  0  0
  8 21  2  0  0  0  0
  9 19  2  0  0  0  0
 10 13  1  0  0  0  0
 12  3  2  0  0  0  0
 13 11  2  0  0  0  0
 13 15  1  0  0  0  0
 14 17  1  0  0  0  0
 15 12  1  0  0  0  0
 16 14  1  0  0  0  0
 16 18  1  0  0  0  0
 17  5  2  0  0  0  0
 17  6  1  0  0  0  0
 18 26  1  1  0  0  0
 18  5  1  0  0  0  0
 19 21  1  0  0  0  0
 19  4  1  0  0  0  0
 20 22  2  0  0  0  0
 22 24  1  0  0  0  0
 23  3  1  0  0  0  0
 24 15  2  0  0  0  0
 24 25  1  0  0  0  0
 25 23  2  0  0  0  0
 26 27  1  1  0  0  0
 29 31  1  0  0  0  0
 30 31  1  0  0  0  0
 31 28  1  0  0  0  0
 31 26  1  0  0  0  0
 32 25  1  0  0  0  0
 32 33  1  0  0  0  0
 34 36  1  1  0  0  0
 34 37  1  0  0  0  0
 36 35  1  0  0  0  0
 37 38  1  0  0  0  0
 40 39  2  0  0  0  0
 41 40  1  0  0  0  0
 41 38  1  0  0  0  0
 42 43  1  0  0  0  0
 42 40  1  0  0  0  0
 44 42  2  0  0  0  0
M  END
>  <MODEL>
4

>  <REMARK>
 VINA RESULT:      -7.6      2.733      5.305
  Name = 
  9 active torsions:
  status: ('A' for Active; 'I' for Inactive)
    1  A    between atoms: C_2  and  N_7
    2  A    between atoms: C_2  and  C_12
    3  A    between atoms: C_4  and  C_9
    4  A    between atoms: N_7  and  N_23
    5  A    between atoms: C_10  and  C_12
    6  A    between atoms: C_12  and  C_27
    7  A    between atoms: C_19  and  C_34
    8  A    between atoms: C_19  and  C_42
    9  A    between atoms: O_29  and  C_44
                            x       y       z     vdW  Elec       q    Type
                         _______ _______ _______ _____ _____    ______ ____

>  <TORSDO>
F 9

$$$$
=
 OpenBabel11062415503D

 44 48  0  0  1  0  0  0  0  0999 V2000
  187.3570  178.2680  141.5400 C   0  0  0  0  0  0  0  0  0  0  0  0
  188.5670  178.2710  140.6580 C   0  0  0  0  0  1  0  0  0  0  0  0
  181.3020  178.9270  141.1590 C   0  0  0  0  0  0  0  0  0  0  0  0
  186.2430  177.5560  147.3570 O   0  0  0  0  0  1  0  0  0  0  0  0
  189.0020  177.7290  144.9190 C   0  0  0  0  0  0  0  0  0  0  0  0
  187.4230  178.0970  142.9690 C   0  0  0  0  0  0  0  0  0  0  0  0
  186.0500  178.6130  139.5480 N   0  0  0  0  0  2  0  0  0  0  0  0
  186.1770  178.0920  143.6740 C   0  0  0  0  0  0  0  0  0  0  0  0
  188.1960  177.6220  146.0330 C   0  0  0  0  0  2  0  0  0  0  0  0
  186.1210  178.4450  140.8960 C   0  0  0  0  0  0  0  0  0  0  0  0
  185.0200  178.2820  142.9890 N   0  0  0  0  0  0  0  0  0  0  0  0
  182.5340  178.7170  141.7720 C   0  0  0  0  0  3  0  0  0  0  0  0
  184.9480  178.4590  141.6510 C   0  0  0  0  0  0  0  0  0  0  0  0
  189.9310  178.0380  142.9380 N   0  0  0  0  0  2  0  0  0  0  0  0
  183.7120  178.6540  141.0150 C   0  0  0  0  0  0  0  0  0  0  0  0
  191.0200  177.8680  143.7330 O   0  0  0  0  0  0  0  0  0  0  0  0
  188.6880  177.9440  143.6100 C   0  0  0  0  0  0  0  0  0  0  0  0
  190.4840  177.6730  145.0300 C   0  0  2  0  0  3  0  0  0  0  0  0
  186.8260  177.7060  146.1060 C   0  0  0  0  0  0  0  0  0  0  0  0
  184.9030  178.9540  137.6400 O   0  0  0  0  0  0  0  0  0  0  0  0
  185.9760  177.9230  145.0380 C   0  0  0  0  0  3  0  0  0  0  0  0
  184.8750  178.7910  138.8890 C   0  0  0  0  0  0  0  0  0  0  0  0
  181.2370  179.0610  139.7670 C   0  0  0  0  0  3  0  0  0  0  0  0
  183.6580  178.8110  139.6050 C   0  0  0  0  0  0  0  0  0  0  0  0
  182.3990  179.0030  138.9770 C   0  0  0  0  0  0  0  0  0  0  0  0
  190.9360  176.3250  145.6210 C   0  0  1  0  0  3  0  0  0  0  0  0
  192.0590  175.8180  144.9560 O   0  0  0  0  0  1  0  0  0  0  0  0
  191.1140  177.7740  147.6770 C   0  0  0  0  0  1  0  0  0  0  0  0
  192.4970  175.7430  147.4810 C   0  0  0  0  0  1  0  0  0  0  0  0
  190.0780  175.5380  147.8190 C   0  0  0  0  0  1  0  0  0  0  0  0
  191.1520  176.3580  147.1380 C   0  0  0  0  0  0  0  0  0  0  0  0
  182.3120  179.1390  137.5860 O   0  0  0  0  0  0  0  0  0  0  0  0
  181.6960  178.1690  136.7480 C   0  0  0  0  0  1  0  0  0  0  0  0
  180.0800  179.0380  142.0170 C   0  0  2  0  0  3  0  0  0  0  0  0
  179.1990  179.0890  144.3590 C   0  0  0  0  0  1  0  0  0  0  0  0
  180.3620  178.6860  143.4720 C   0  0  0  0  0  2  0  0  0  0  0  0
  178.9560  178.1710  141.4620 C   0  0  0  0  0  2  0  0  0  0  0  0
  179.2790  176.7640  141.6300 N   0  0  0  0  0  2  0  0  0  0  0  0
  181.1610  175.5640  139.9110 N   0  0  0  0  0  2  0  0  0  0  0  0
  179.9110  175.5010  139.6020 C   0  0  0  0  0  0  0  0  0  0  0  0
  178.9310  176.1210  140.4340 N   0  0  0  0  0  2  0  0  0  0  0  0
  179.4970  174.8370  138.3610 C   0  0  0  0  0  0  0  0  0  0  0  0
  179.2200  175.5170  137.3360 O   0  0  0  0  0  0  0  0  0  0  0  0
  179.4090  173.4550  138.3120 O   0  0  0  0  0  1  0  0  0  0  0  0
  1  6  1  0  0  0  0
  2  1  1  0  0  0  0
  3 12  1  0  0  0  0
  3 34  1  0  0  0  0
  5 18  1  0  0  0  0
  5  9  1  0  0  0  0
  6 17  1  0  0  0  0
  6  8  2  0  0  0  0
  7 10  1  0  0  0  0
  8 21  1  0  0  0  0
  9 19  1  0  0  0  0
 10  1  2  0  0  0  0
 10 13  1  0  0  0  0
 11  8  1  0  0  0  0
 13 11  2  0  0  0  0
 14 17  1  0  0  0  0
 14 16  1  0  0  0  0
 15 13  1  0  0  0  0
 15 12  2  0  0  0  0
 16 18  1  0  0  0  0
 17  5  2  0  0  0  0
 18 26  1  6  0  0  0
 19  4  1  0  0  0  0
 20 22  2  0  0  0  0
 21 19  2  0  0  0  0
 22  7  1  0  0  0  0
 22 24  1  0  0  0  0
 23  3  2  0  0  0  0
 24 15  1  0  0  0  0
 25 24  2  0  0  0  0
 25 23  1  0  0  0  0
 26 27  1  6  0  0  0
 26 31  1  0  0  0  0
 31 29  1  0  0  0  0
 31 28  1  0  0  0  0
 31 30  1  0  0  0  0
 32 25  1  0  0  0  0
 33 32  1  0  0  0  0
 34 37  1  6  0  0  0
 34 36  1  0  0  0  0
 36 35  1  0  0  0  0
 37 38  1  0  0  0  0
 40 39  2  0  0  0  0
 40 41  1  0  0  0  0
 41 38  1  0  0  0  0
 42 40  1  0  0  0  0
 43 42  2  0  0  0  0
 44 42  1  0  0  0  0
M  END
>  <MODEL>
5

>  <REMARK>
 VINA RESULT:      -7.6      2.436     10.064
  Name = 
  9 active torsions:
  status: ('A' for Active; 'I' for Inactive)
    1  A    between atoms: C_2  and  N_7
    2  A    between atoms: C_2  and  C_12
    3  A    between atoms: C_4  and  C_9
    4  A    between atoms: N_7  and  N_23
    5  A    between atoms: C_10  and  C_12
    6  A    between atoms: C_12  and  C_27
    7  A    between atoms: C_19  and  C_34
    8  A    between atoms: C_19  and  C_42
    9  A    between atoms: O_29  and  C_44
                            x       y       z     vdW  Elec       q    Type
                         _______ _______ _______ _____ _____    ______ ____

>  <TORSDO>
F 9

$$$$
=
 OpenBabel11062415503D

 44 48  0  0  1  0  0  0  0  0999 V2000
  186.6500  178.0990  139.2510 C   0  0  0  0  0  0  0  0  0  0  0  0
  186.0890  178.2520  137.8710 C   0  0  0  0  0  1  0  0  0  0  0  0
  184.9250  178.6540  145.0780 C   0  0  0  0  0  0  0  0  0  0  0  0
  191.8940  176.5670  141.6450 O   0  0  0  0  0  1  0  0  0  0  0  0
  190.2260  177.1420  138.4090 C   0  0  0  0  0  0  0  0  0  0  0  0
  188.0190  177.7350  139.5090 C   0  0  0  0  0  0  0  0  0  0  0  0
  184.4650  178.6820  140.0760 N   0  0  0  0  0  0  0  0  0  0  0  0
  188.4010  177.6030  140.8830 C   0  0  0  0  0  0  0  0  0  0  0  0
  191.0930  176.8630  139.4450 C   0  0  0  0  0  3  0  0  0  0  0  0
  185.7580  178.3320  140.3110 C   0  0  0  0  0  0  0  0  0  0  0  0
  187.4900  177.8560  141.8580 N   0  0  0  0  0  0  0  0  0  0  0  0
  185.7810  178.3930  144.0120 C   0  0  0  0  0  3  0  0  0  0  0  0
  186.2070  178.2130  141.6260 C   0  0  0  0  0  0  0  0  0  0  0  0
  188.5790  177.7420  137.0640 N   0  0  0  0  0  2  0  0  0  0  0  0
  185.3250  178.4620  142.6900 C   0  0  0  0  0  0  0  0  0  0  0  0
  189.5820  177.4920  136.1820 O   0  0  0  0  0  0  0  0  0  0  0  0
  188.9180  177.5270  138.4220 C   0  0  0  0  0  0  0  0  0  0  0  0
  190.6790  177.1080  136.9930 C   0  0  2  0  0  3  0  0  0  0  0  0
  190.8470  176.9030  140.7970 C   0  0  0  0  0  0  0  0  0  0  0  0
  182.3980  179.2530  140.7650 O   0  0  0  0  0  0  0  0  0  0  0  0
  189.6450  177.2430  141.3860 C   0  0  0  0  0  3  0  0  0  0  0  0
  183.5720  178.9190  141.0730 C   0  0  0  0  0  0  0  0  0  0  0  0
  183.5860  178.9760  144.8250 C   0  0  0  0  0  3  0  0  0  0  0  0
  183.9750  178.8110  142.4230 C   0  0  0  0  0  0  0  0  0  0  0  0
  183.0950  179.0560  143.5090 C   0  0  0  0  0  0  0  0  0  0  0  0
  191.1830  175.7030  136.6160 C   0  0  1  0  0  3  0  0  0  0  0  0
  190.2460  175.0050  135.8450 O   0  0  0  0  0  1  0  0  0  0  0  0
  192.5330  176.3750  134.5940 C   0  0  0  0  0  1  0  0  0  0  0  0
  193.0510  174.2740  135.7750 C   0  0  0  0  0  1  0  0  0  0  0  0
  193.5530  176.4230  136.8410 C   0  0  0  0  0  1  0  0  0  0  0  0
  192.5650  175.7020  135.9520 C   0  0  0  0  0  0  0  0  0  0  0  0
  181.7520  179.3790  143.2790 O   0  0  0  0  0  0  0  0  0  0  0  0
  180.6700  178.5780  143.7370 C   0  0  0  0  0  1  0  0  0  0  0  0
  185.4740  178.6150  146.4710 C   0  0  2  0  0  3  0  0  0  0  0  0
  186.4420  179.9250  148.3710 C   0  0  0  0  0  1  0  0  0  0  0  0
  186.0020  179.9730  146.9210 C   0  0  0  0  0  2  0  0  0  0  0  0
  186.5570  177.5500  146.5900 C   0  0  0  0  0  2  0  0  0  0  0  0
  187.7140  177.9220  145.7930 N   0  0  0  0  0  2  0  0  0  0  0  0
  190.3320  178.1590  144.7790 N   0  0  0  0  0  2  0  0  0  0  0  0
  190.1400  177.4450  145.8350 C   0  0  0  0  0  0  0  0  0  0  0  0
  188.8230  177.2780  146.3620 N   0  0  0  0  0  2  0  0  0  0  0  0
  191.2680  176.7540  146.4670 C   0  0  0  0  0  0  0  0  0  0  0  0
  191.5360  176.9490  147.6830 O   0  0  0  0  0  1  0  0  0  0  0  0
  192.0470  175.8800  145.7250 O   0  0  0  0  0  0  0  0  0  0  0  0
  1  6  2  0  0  0  0
  1 10  1  0  0  0  0
  2  1  1  0  0  0  0
  3 34  1  0  0  0  0
  5 17  2  0  0  0  0
  5  9  1  0  0  0  0
  6  8  1  0  0  0  0
  7 10  2  0  0  0  0
  7 22  1  0  0  0  0
  8 21  2  0  0  0  0
  8 11  1  0  0  0  0
  9 19  2  0  0  0  0
 10 13  1  0  0  0  0
 12  3  2  0  0  0  0
 13 11  2  0  0  0  0
 13 15  1  0  0  0  0
 14 17  1  0  0  0  0
 15 12  1  0  0  0  0
 16 18  1  0  0  0  0
 16 14  1  0  0  0  0
 17  6  1  0  0  0  0
 18 26  1  6  0  0  0
 18  5  1  0  0  0  0
 19 21  1  0  0  0  0
 19  4  1  0  0  0  0
 20 22  2  0  0  0  0
 22 24  1  0  0  0  0
 23  3  1  0  0  0  0
 24 15  2  0  0  0  0
 24 25  1  0  0  0  0
 25 23  2  0  0  0  0
 26 27  1  6  0  0  0
 28 31  1  0  0  0  0
 29 31  1  0  0  0  0
 31 26  1  0  0  0  0
 31 30  1  0  0  0  0
 32 25  1  0  0  0  0
 32 33  1  0  0  0  0
 34 37  1  6  0  0  0
 34 36  1  0  0  0  0
 36 35  1  0  0  0  0
 38 41  1  0  0  0  0
 38 37  1  0  0  0  0
 39 40  2  0  0  0  0
 40 41  1  0  0  0  0
 40 42  1  0  0  0  0
 42 43  1  0  0  0  0
 44 42  2  0  0  0  0
M  END
>  <MODEL>
6

>  <REMARK>
 VINA RESULT:      -7.4      2.951      7.604
  Name = 
  9 active torsions:
  status: ('A' for Active; 'I' for Inactive)
    1  A    between atoms: C_2  and  N_7
    2  A    between atoms: C_2  and  C_12
    3  A    between atoms: C_4  and  C_9
    4  A    between atoms: N_7  and  N_23
    5  A    between atoms: C_10  and  C_12
    6  A    between atoms: C_12  and  C_27
    7  A    between atoms: C_19  and  C_34
    8  A    between atoms: C_19  and  C_42
    9  A    between atoms: O_29  and  C_44
                            x       y       z     vdW  Elec       q    Type
                         _______ _______ _______ _____ _____    ______ ____

>  <TORSDO>
F 9

$$$$
=
 OpenBabel11062415503D

 44 48  0  0  1  0  0  0  0  0999 V2000
  190.7520  177.2720  141.3600 C   0  0  0  0  0  0  0  0  0  0  0  0
  192.1250  177.2340  141.9550 C   0  0  0  0  0  1  0  0  0  0  0  0
  188.0050  176.7870  135.9320 C   0  0  0  0  0  0  0  0  0  0  0  0
  185.1810  177.9970  143.3660 O   0  0  0  0  0  1  0  0  0  0  0  0
  188.6950  177.9540  144.4770 C   0  0  0  0  0  0  0  0  0  0  0  0
  189.5620  177.5100  142.1360 C   0  0  0  0  0  0  0  0  0  0  0  0
  191.7910  176.8380  139.2320 N   0  0  0  0  0  2  0  0  0  0  0  0
  188.3180  177.4910  141.4270 C   0  0  0  0  0  0  0  0  0  0  0  0
  187.3230  178.0230  144.3580 C   0  0  0  0  0  2  0  0  0  0  0  0
  190.6720  177.0590  139.9730 C   0  0  0  0  0  0  0  0  0  0  0  0
  188.3160  177.2920  140.0840 N   0  0  0  0  0  0  0  0  0  0  0  0
  188.1030  176.9600  137.3100 C   0  0  0  0  0  3  0  0  0  0  0  0
  189.4280  177.0830  139.3440 C   0  0  0  0  0  0  0  0  0  0  0  0
  190.8890  177.8610  144.2350 N   0  0  0  0  0  2  0  0  0  0  0  0
  189.3440  176.8890  137.9560 C   0  0  0  0  0  0  0  0  0  0  0  0
  190.7670  178.0980  145.5670 O   0  0  0  0  0  0  0  0  0  0  0  0
  189.6620  177.7500  143.5380 C   0  0  0  0  0  0  0  0  0  0  0  0
  189.3690  178.1780  145.7840 C   0  0  2  0  0  3  0  0  0  0  0  0
  186.5590  177.8960  143.2220 C   0  0  0  0  0  0  0  0  0  0  0  0
  192.8440  176.4510  137.2790 O   0  0  0  0  0  0  0  0  0  0  0  0
  187.0430  177.6690  141.9480 C   0  0  0  0  0  3  0  0  0  0  0  0
  191.7580  176.6320  137.8890 C   0  0  0  0  0  0  0  0  0  0  0  0
  189.1590  176.5240  135.1850 C   0  0  0  0  0  3  0  0  0  0  0  0
  190.5230  176.6450  137.2030 C   0  0  0  0  0  0  0  0  0  0  0  0
  190.4210  176.4470  135.8010 C   0  0  0  0  0  0  0  0  0  0  0  0
  188.9070  177.1360  146.8200 C   0  0  1  0  0  3  0  0  0  0  0  0
  189.9750  176.3620  147.2880 O   0  0  0  0  0  1  0  0  0  0  0  0
  186.9290  178.5550  147.4780 C   0  0  0  0  0  1  0  0  0  0  0  0
  188.9940  178.6260  148.8220 C   0  0  0  0  0  1  0  0  0  0  0  0
  187.5850  176.6210  148.8630 C   0  0  0  0  0  1  0  0  0  0  0  0
  188.1000  177.7340  147.9780 C   0  0  0  0  0  0  0  0  0  0  0  0
  191.5630  176.1810  135.0350 O   0  0  0  0  0  0  0  0  0  0  0  0
  191.9190  174.8760  134.5970 C   0  0  0  0  0  1  0  0  0  0  0  0
  186.6620  176.9230  135.2820 C   0  0  2  0  0  3  0  0  0  0  0  0
  184.2170  177.1250  135.7730 C   0  0  0  0  0  1  0  0  0  0  0  0
  185.6150  177.4890  136.2340 C   0  0  0  0  0  2  0  0  0  0  0  0
  186.2050  175.5860  134.7120 C   0  0  0  0  0  2  0  0  0  0  0  0
  186.3250  174.5450  135.7200 N   0  0  0  0  0  2  0  0  0  0  0  0
  185.1150  173.2230  137.8940 N   0  0  0  0  0  2  0  0  0  0  0  0
  184.5940  173.0920  136.7220 C   0  0  0  0  0  0  0  0  0  0  0  0
  185.1950  173.7240  135.5910 N   0  0  0  0  0  2  0  0  0  0  0  0
  183.4120  172.2450  136.5370 C   0  0  0  0  0  0  0  0  0  0  0  0
  183.2670  171.1930  137.2180 O   0  0  0  0  0  1  0  0  0  0  0  0
  182.4450  172.5980  135.6090 O   0  0  0  0  0  0  0  0  0  0  0  0
  1  2  1  0  0  0  0
  1  6  1  0  0  0  0
  3 12  1  0  0  0  0
  5 18  1  0  0  0  0
  6 17  1  0  0  0  0
  7 10  1  0  0  0  0
  8 21  1  0  0  0  0
  8  6  2  0  0  0  0
  9  5  1  0  0  0  0
 10  1  2  0  0  0  0
 11  8  1  0  0  0  0
 12 15  2  0  0  0  0
 13 10  1  0  0  0  0
 13 11  2  0  0  0  0
 14 16  1  0  0  0  0
 15 13  1  0  0  0  0
 16 18  1  0  0  0  0
 17 14  1  0  0  0  0
 17  5  2  0  0  0  0
 18 26  1  1  0  0  0
 19  4  1  0  0  0  0
 19  9  1  0  0  0  0
 20 22  2  0  0  0  0
 21 19  2  0  0  0  0
 22  7  1  0  0  0  0
 23 25  1  0  0  0  0
 23  3  2  0  0  0  0
 24 22  1  0  0  0  0
 24 15  1  0  0  0  0
 25 24  2  0  0  0  0
 26 27  1  1  0  0  0
 26 31  1  0  0  0  0
 28 31  1  0  0  0  0
 31 29  1  0  0  0  0
 31 30  1  0  0  0  0
 32 25  1  0  0  0  0
 33 32  1  0  0  0  0
 34 37  1  1  0  0  0
 34  3  1  0  0  0  0
 34 36  1  0  0  0  0
 35 36  1  0  0  0  0
 37 38  1  0  0  0  0
 40 39  2  0  0  0  0
 41 38  1  0  0  0  0
 41 40  1  0  0  0  0
 42 40  1  0  0  0  0
 42 43  1  0  0  0  0
 44 42  2  0  0  0  0
M  END
>  <MODEL>
7

>  <REMARK>
 VINA RESULT:      -7.0      3.664      9.942
  Name = 
  9 active torsions:
  status: ('A' for Active; 'I' for Inactive)
    1  A    between atoms: C_2  and  N_7
    2  A    between atoms: C_2  and  C_12
    3  A    between atoms: C_4  and  C_9
    4  A    between atoms: N_7  and  N_23
    5  A    between atoms: C_10  and  C_12
    6  A    between atoms: C_12  and  C_27
    7  A    between atoms: C_19  and  C_34
    8  A    between atoms: C_19  and  C_42
    9  A    between atoms: O_29  and  C_44
                            x       y       z     vdW  Elec       q    Type
                         _______ _______ _______ _____ _____    ______ ____

>  <TORSDO>
F 9

$$$$
=
 OpenBabel11062415503D

 44 48  0  0  1  0  0  0  0  0999 V2000
  184.6870  178.3520  144.8150 C   0  0  0  0  0  0  0  0  0  0  0  0
  184.1850  178.6340  146.1960 C   0  0  0  0  0  1  0  0  0  0  0  0
  182.7830  178.5770  139.0210 C   0  0  0  0  0  0  0  0  0  0  0  0
  189.7660  176.4010  142.3690 O   0  0  0  0  0  1  0  0  0  0  0  0
  188.1760  177.0920  145.6220 C   0  0  0  0  0  0  0  0  0  0  0  0
  186.0040  177.8340  144.5440 C   0  0  0  0  0  0  0  0  0  0  0  0
  182.5470  179.1070  144.0110 N   0  0  0  0  0  2  0  0  0  0  0  0
  186.3480  177.6420  143.1680 C   0  0  0  0  0  0  0  0  0  0  0  0
  189.0110  176.7530  144.5770 C   0  0  0  0  0  3  0  0  0  0  0  0
  183.7940  178.6230  143.7640 C   0  0  0  0  0  0  0  0  0  0  0  0
  185.4310  177.9120  142.2040 N   0  0  0  0  0  0  0  0  0  0  0  0
  183.6640  178.3500  140.0750 C   0  0  0  0  0  3  0  0  0  0  0  0
  184.1880  178.3830  142.4480 C   0  0  0  0  0  0  0  0  0  0  0  0
  186.5300  177.6410  146.9890 N   0  0  0  0  0  0  0  0  0  0  0  0
  183.2930  178.6350  141.3960 C   0  0  0  0  0  0  0  0  0  0  0  0
  187.5170  177.3100  147.8620 O   0  0  0  0  0  0  0  0  0  0  0  0
  186.8890  177.5410  145.6230 C   0  0  0  0  0  0  0  0  0  0  0  0
  188.6070  176.9350  147.0360 C   0  0  2  0  0  3  0  0  0  0  0  0
  188.7460  176.7880  143.2280 C   0  0  0  0  0  0  0  0  0  0  0  0
  180.5140  179.8100  143.3440 O   0  0  0  0  0  0  0  0  0  0  0  0
  187.5530  177.1790  142.6530 C   0  0  0  0  0  3  0  0  0  0  0  0
  181.6530  179.3780  143.0240 C   0  0  0  0  0  0  0  0  0  0  0  0
  181.5150  179.1110  139.2830 C   0  0  0  0  0  3  0  0  0  0  0  0
  182.0010  179.1550  141.6730 C   0  0  0  0  0  0  0  0  0  0  0  0
  181.1110  179.4070  140.5980 C   0  0  0  0  0  0  0  0  0  0  0  0
  189.8470  177.8020  147.3270 C   0  0  1  0  0  3  0  0  0  0  0  0
  189.6720  178.5910  148.4700 O   0  0  0  0  0  1  0  0  0  0  0  0
  192.0550  177.4990  148.5060 C   0  0  0  0  0  1  0  0  0  0  0  0
  191.8990  177.1260  146.0740 C   0  0  0  0  0  1  0  0  0  0  0  0
  190.8430  175.5410  147.6170 C   0  0  0  0  0  1  0  0  0  0  0  0
  191.1540  177.0050  147.3920 C   0  0  0  0  0  0  0  0  0  0  0  0
  179.8380  179.9410  140.8380 O   0  0  0  0  0  0  0  0  0  0  0  0
  179.1010  180.6620  139.8590 C   0  0  0  0  0  1  0  0  0  0  0  0
  183.2080  178.2090  137.6330 C   0  0  2  0  0  3  0  0  0  0  0  0
  182.4150  177.5080  135.3660 C   0  0  0  0  0  1  0  0  0  0  0  0
  182.0440  178.2250  136.6500 C   0  0  0  0  0  2  0  0  0  0  0  0
  183.8980  176.8510  137.6280 C   0  0  0  0  0  2  0  0  0  0  0  0
  183.0430  175.8520  138.2470 N   0  0  0  0  0  2  0  0  0  0  0  0
  181.4100  174.0290  136.8520 N   0  0  0  0  0  2  0  0  0  0  0  0
  182.6400  173.7140  137.0720 C   0  0  0  0  0  0  0  0  0  0  0  0
  183.4910  174.6000  137.8000 N   0  0  0  0  0  2  0  0  0  0  0  0
  183.1560  172.4170  136.6240 C   0  0  0  0  0  0  0  0  0  0  0  0
  184.1290  171.8770  137.2170 O   0  0  0  0  0  1  0  0  0  0  0  0
  182.5730  171.7770  135.5410 O   0  0  0  0  0  0  0  0  0  0  0  0
  1  2  1  0  0  0  0
  3 23  2  0  0  0  0
  3 12  1  0  0  0  0
  4 19  1  0  0  0  0
  5 17  1  0  0  0  0
  5 18  1  0  0  0  0
  6  1  1  0  0  0  0
  6 17  1  0  0  0  0
  8  6  2  0  0  0  0
  9  5  2  0  0  0  0
 10  7  1  0  0  0  0
 10  1  2  0  0  0  0
 11 13  2  0  0  0  0
 11  8  1  0  0  0  0
 12 15  2  0  0  0  0
 13 10  1  0  0  0  0
 14 16  1  0  0  0  0
 15 24  1  0  0  0  0
 15 13  1  0  0  0  0
 17 14  2  0  0  0  0
 18 26  1  1  0  0  0
 18 16  1  0  0  0  0
 19  9  1  0  0  0  0
 21  8  1  0  0  0  0
 21 19  2  0  0  0  0
 22 20  2  0  0  0  0
 22  7  1  0  0  0  0
 23 25  1  0  0  0  0
 24 22  1  0  0  0  0
 25 32  1  0  0  0  0
 25 24  2  0  0  0  0
 26 31  1  0  0  0  0
 26 27  1  1  0  0  0
 29 31  1  0  0  0  0
 31 30  1  0  0  0  0
 31 28  1  0  0  0  0
 33 32  1  0  0  0  0
 34 36  1  6  0  0  0
 34  3  1  0  0  0  0
 35 36  1  0  0  0  0
 37 34  1  0  0  0  0
 37 38  1  0  0  0  0
 39 40  2  0  0  0  0
 40 41  1  0  0  0  0
 41 38  1  0  0  0  0
 42 40  1  0  0  0  0
 42 43  1  0  0  0  0
 44 42  2  0  0  0  0
M  END
>  <MODEL>
8

>  <REMARK>
 VINA RESULT:      -7.0      2.880      9.334
  Name = 
  9 active torsions:
  status: ('A' for Active; 'I' for Inactive)
    1  A    between atoms: C_2  and  N_7
    2  A    between atoms: C_2  and  C_12
    3  A    between atoms: C_4  and  C_9
    4  A    between atoms: N_7  and  N_23
    5  A    between atoms: C_10  and  C_12
    6  A    between atoms: C_12  and  C_27
    7  A    between atoms: C_19  and  C_34
    8  A    between atoms: C_19  and  C_42
    9  A    between atoms: O_29  and  C_44
                            x       y       z     vdW  Elec       q    Type
                         _______ _______ _______ _____ _____    ______ ____

>  <TORSDO>
F 9

$$$$
=
 OpenBabel11062415503D

 44 48  0  0  1  0  0  0  0  0999 V2000
  186.8370  177.5990  137.7670 C   0  0  0  0  0  0  0  0  0  0  0  0
  187.0040  177.4570  136.2860 C   0  0  0  0  0  1  0  0  0  0  0  0
  182.4730  178.7280  141.8810 C   0  0  0  0  0  0  0  0  0  0  0  0
  190.3550  177.2810  142.5730 O   0  0  0  0  0  1  0  0  0  0  0  0
  190.4280  177.1030  138.8920 C   0  0  0  0  0  0  0  0  0  0  0  0
  187.9310  177.4970  138.6980 C   0  0  0  0  0  0  0  0  0  0  0  0
  184.4910  177.9460  137.3480 N   0  0  0  0  0  2  0  0  0  0  0  0
  187.6070  177.6300  140.0860 C   0  0  0  0  0  0  0  0  0  0  0  0
  190.7020  177.1200  140.2440 C   0  0  0  0  0  2  0  0  0  0  0  0
  185.5290  177.8430  138.2210 C   0  0  0  0  0  0  0  0  0  0  0  0
  186.3240  177.8780  140.4540 N   0  0  0  0  0  0  0  0  0  0  0  0
  183.7540  178.4510  141.4110 C   0  0  0  0  0  3  0  0  0  0  0  0
  185.2930  177.9910  139.5870 C   0  0  0  0  0  0  0  0  0  0  0  0
  189.6020  177.2320  136.8470 N   0  0  0  0  0  2  0  0  0  0  0  0
  183.9910  178.2520  140.0450 C   0  0  0  0  0  0  0  0  0  0  0  0
  190.9210  177.0160  136.6010 O   0  0  0  0  0  0  0  0  0  0  0  0
  189.2550  177.2750  138.2190 C   0  0  0  0  0  0  0  0  0  0  0  0
  191.5110  176.9330  137.8870 C   0  0  2  0  0  3  0  0  0  0  0  0
  189.8300  177.3190  141.2880 C   0  0  0  0  0  0  0  0  0  0  0  0
  182.3160  178.2800  136.8680 O   0  0  0  0  0  0  0  0  0  0  0  0
  188.4730  177.5490  141.1700 C   0  0  0  0  0  3  0  0  0  0  0  0
  183.2140  178.1850  137.7460 C   0  0  0  0  0  0  0  0  0  0  0  0
  181.4060  178.7950  140.9770 C   0  0  0  0  0  3  0  0  0  0  0  0
  182.9180  178.3410  139.1190 C   0  0  0  0  0  0  0  0  0  0  0  0
  181.6090  178.6020  139.5990 C   0  0  0  0  0  0  0  0  0  0  0  0
  192.2290  175.5840  138.0830 C   0  0  1  0  0  3  0  0  0  0  0  0
  191.3440  174.5050  137.9680 O   0  0  0  0  0  1  0  0  0  0  0  0
  193.1400  174.5250  135.9830 C   0  0  0  0  0  1  0  0  0  0  0  0
  194.5840  174.7630  137.9670 C   0  0  0  0  0  1  0  0  0  0  0  0
  193.9300  176.7530  136.6950 C   0  0  0  0  0  1  0  0  0  0  0  0
  193.4540  175.4010  137.1800 C   0  0  0  0  0  0  0  0  0  0  0  0
  180.5270  178.6730  138.7110 O   0  0  0  0  0  0  0  0  0  0  0  0
  179.3600  177.8700  138.8440 C   0  0  0  0  0  1  0  0  0  0  0  0
  182.2800  178.9830  143.3440 C   0  0  2  0  0  3  0  0  0  0  0  0
  179.9610  178.6600  144.2270 C   0  0  0  0  0  1  0  0  0  0  0  0
  180.9450  179.6540  143.6420 C   0  0  0  0  0  2  0  0  0  0  0  0
  183.4340  179.8080  143.9000 C   0  0  0  0  0  2  0  0  0  0  0  0
  183.7610  179.3670  145.2460 N   0  0  0  0  0  2  0  0  0  0  0  0
  185.6980  179.3380  147.2920 N   0  0  0  0  0  2  0  0  0  0  0  0
  185.9110  178.6410  146.2280 C   0  0  0  0  0  0  0  0  0  0  0  0
  184.9650  178.6540  145.1580 N   0  0  0  0  0  2  0  0  0  0  0  0
  187.1550  177.8770  146.0900 C   0  0  0  0  0  0  0  0  0  0  0  0
  187.7190  177.7720  144.9660 O   0  0  0  0  0  0  0  0  0  0  0  0
  187.7180  177.2650  147.1980 O   0  0  0  0  0  1  0  0  0  0  0  0
  1 10  2  0  0  0  0
  1  6  1  0  0  0  0
  2  1  1  0  0  0  0
  3 34  1  0  0  0  0
  5  9  1  0  0  0  0
  6  8  2  0  0  0  0
  7 22  1  0  0  0  0
  7 10  1  0  0  0  0
  8 11  1  0  0  0  0
  8 21  1  0  0  0  0
  9 19  1  0  0  0  0
 10 13  1  0  0  0  0
 12  3  1  0  0  0  0
 13 15  1  0  0  0  0
 13 11  2  0  0  0  0
 14 17  1  0  0  0  0
 15 12  2  0  0  0  0
 16 14  1  0  0  0  0
 16 18  1  0  0  0  0
 17  6  1  0  0  0  0
 17  5  2  0  0  0  0
 18 26  1  1  0  0  0
 18  5  1  0  0  0  0
 19  4  1  0  0  0  0
 20 22  2  0  0  0  0
 21 19  2  0  0  0  0
 22 24  1  0  0  0  0
 23  3  2  0  0  0  0
 24 25  2  0  0  0  0
 24 15  1  0  0  0  0
 25 23  1  0  0  0  0
 26 27  1  6  0  0  0
 28 31  1  0  0  0  0
 30 31  1  0  0  0  0
 31 29  1  0  0  0  0
 31 26  1  0  0  0  0
 32 33  1  0  0  0  0
 32 25  1  0  0  0  0
 34 36  1  6  0  0  0
 34 37  1  0  0  0  0
 36 35  1  0  0  0  0
 37 38  1  0  0  0  0
 40 39  2  0  0  0  0
 41 38  1  0  0  0  0
 41 40  1  0  0  0  0
 42 40  1  0  0  0  0
 42 44  1  0  0  0  0
 43 42  2  0  0  0  0
M  END
>  <MODEL>
9

>  <REMARK>
 VINA RESULT:      -6.9      2.500      9.124
  Name = 
  9 active torsions:
  status: ('A' for Active; 'I' for Inactive)
    1  A    between atoms: C_2  and  N_7
    2  A    between atoms: C_2  and  C_12
    3  A    between atoms: C_4  and  C_9
    4  A    between atoms: N_7  and  N_23
    5  A    between atoms: C_10  and  C_12
    6  A    between atoms: C_12  and  C_27
    7  A    between atoms: C_19  and  C_34
    8  A    between atoms: C_19  and  C_42
    9  A    between atoms: O_29  and  C_44
                            x       y       z     vdW  Elec       q    Type
                         _______ _______ _______ _____ _____    ______ ____

>  <TORSDO>
F 9

$$$$
