=
 OpenBabel11062412163D

 69 71  0  0  1  0  0  0  0  0999 V2000
  185.0610  178.5360  142.3520 C   0  0  1  0  0  3  0  0  0  0  0  0
  184.7030  176.1930  137.7850 C   0  0  0  0  0  2  0  0  0  0  0  0
  185.4970  179.3710  139.9970 C   0  0  0  0  0  2  0  0  0  0  0  0
  180.6320  177.1270  140.4380 C   0  0  0  0  0  0  0  0  0  0  0  0
  186.4550  177.9860  138.0400 C   0  0  1  0  0  3  0  0  0  0  0  0
  187.0840  177.3120  139.0980 O   0  0  0  0  0  1  0  0  0  0  0  0
  183.1320  178.9150  143.3780 C   0  0  2  0  0  3  0  0  0  0  0  0
  185.7960  176.9950  137.0840 C   0  0  1  0  0  3  0  0  0  0  0  0
  182.1280  175.7190  139.0530 C   0  0  0  0  0  2  0  0  0  0  0  0
  183.3160  179.0750  144.7540 O   0  0  0  0  0  1  0  0  0  0  0  0
  179.4770  176.7250  140.7380 O   0  0  0  0  0  0  0  0  0  0  0  0
  184.1620  179.5570  142.6840 O   0  0  0  0  0  0  0  0  0  0  0  0
  186.8170  176.0700  136.4470 C   0  0  0  0  0  1  0  0  0  0  0  0
  185.5610  180.1700  137.7680 F   0  0  0  0  0  0  0  0  0  0  0  0
  181.0510  178.8930  142.0400 C   0  0  0  0  0  0  0  0  0  0  0  0
  181.7880  178.0490  138.6090 O   0  0  0  0  0  1  0  0  0  0  0  0
  184.9790  178.2210  140.8590 C   0  0  0  0  0  2  0  0  0  0  0  0
  183.5080  175.8910  136.8740 C   0  0  1  0  0  3  0  0  0  0  0  0
  182.3550  175.2070  137.6250 C   0  0  1  0  0  3  0  0  0  0  0  0
  181.4300  177.8170  141.4090 N   0  0  0  0  0  0  0  0  0  0  0  0
  185.4170  179.0190  138.5150 C   0  0  2  0  0  3  0  0  0  0  0  0
  181.8810  179.4720  143.0050 O   0  0  0  0  0  0  0  0  0  0  0  0
  181.1580  176.8890  139.0640 C   0  0  2  0  0  3  0  0  0  0  0  0
  179.7710  179.5490  141.7290 C   0  0  0  0  0  3  0  0  0  0  0  0
  178.9310  182.5900  140.1740 O   0  0  0  0  0  1  0  0  0  0  0  0
  179.6320  181.4210  139.9140 C   0  0  0  0  0  0  0  0  0  0  0  0
  179.6950  180.4950  140.8320 C   0  0  0  0  0  0  0  0  0  0  0  0
  180.2910  181.1870  138.5800 C   0  0  2  0  0  3  0  0  0  0  0  0
  181.6470  181.8260  138.4490 C   0  0  0  0  0  3  0  0  0  0  0  0
  182.6610  181.2570  138.8210 O   0  0  0  0  0  0  0  0  0  0  0  0
  179.4380  181.4590  137.4660 O   0  0  0  0  0  0  0  0  0  0  0  0
  179.8570  181.5430  136.1330 C   0  0  0  0  0  0  0  0  0  0  0  0
  180.4310  180.5560  135.6000 O   0  0  0  0  0  1  0  0  0  0  0  0
  179.6480  182.6950  135.3840 O   0  0  0  0  0  0  0  0  0  0  0  0
  182.5010  173.7180  137.6250 C   0  0  0  0  0  3  0  0  0  0  0  0
  183.2170  173.1160  136.6760 C   0  0  0  0  0  3  0  0  0  0  0  0
  183.3270  171.6260  136.6000 C   0  0  0  0  0  2  0  0  0  0  0  0
  183.5790  171.1630  135.1660 C   0  0  0  0  0  2  0  0  0  0  0  0
  185.3490  169.6650  134.6210 O   0  0  0  0  0  0  0  0  0  0  0  0
  185.0220  170.8370  134.9460 C   0  0  0  0  0  0  0  0  0  0  0  0
  186.0100  171.8570  135.0640 N   0  0  0  0  0  2  0  0  0  0  0  0
  187.3850  171.6370  134.6500 C   0  0  0  0  0  2  0  0  0  0  0  0
  189.0830  173.4640  134.5940 C   0  0  0  0  0  3  0  0  0  0  0  0
  187.6040  171.7800  137.4980 F   0  0  0  0  0  0  0  0  0  0  0  0
  188.2850  172.5960  135.3470 C   0  0  0  0  0  0  0  0  0  0  0  0
  189.9420  174.3610  135.2320 C   0  0  0  0  0  3  0  0  0  0  0  0
  189.2210  173.5200  137.3830 C   0  0  0  0  0  3  0  0  0  0  0  0
  188.3630  172.6150  136.7480 C   0  0  0  0  0  0  0  0  0  0  0  0
  190.0100  174.3900  136.6270 C   0  0  0  0  0  3  0  0  0  0  0  0
  182.9890  177.1200  136.1400 C   0  0  0  0  0  2  0  0  0  0  0  0
  182.1720  176.6910  134.9390 C   0  0  0  0  0  2  0  0  0  0  0  0
  180.7410  177.1690  135.0900 C   0  0  0  0  0  2  0  0  0  0  0  0
  179.8150  175.9720  135.0550 C   0  0  0  0  0  1  0  0  0  0  0  0
  186.4830  178.9230  142.7530 C   0  0  0  0  0  2  0  0  0  0  0  0
  187.4610  177.7820  142.5230 C   0  0  0  0  0  2  0  0  0  0  0  0
  188.6310  177.9770  143.2860 O   0  0  0  0  0  0  0  0  0  0  0  0
  190.5430  177.8000  145.5750 O   0  0  0  0  0  0  0  0  0  0  0  0
  191.0760  175.6830  144.6280 O   0  0  0  0  0  1  0  0  0  0  0  0
  188.9790  176.7660  143.9360 C   0  0  1  0  0  0  0  0  0  0  0  0
  186.9840  177.2310  146.9150 C   0  0  0  0  0  2  0  0  0  0  0  0
  190.4180  176.9160  144.4680 C   0  0  1  0  0  3  0  0  0  0  0  0
  190.2910  177.8710  147.9560 C   0  0  0  0  0  0  0  0  0  0  0  0
  187.9980  176.4560  145.0790 C   0  0  0  0  0  2  0  0  0  0  0  0
  187.9440  177.1040  148.0910 C   0  0  0  0  0  2  0  0  0  0  0  0
  187.6590  177.6330  145.7570 O   0  0  0  0  0  0  0  0  0  0  0  0
  188.9590  175.6980  143.0260 O   0  0  0  0  0  1  0  0  0  0  0  0
  191.1800  178.0650  148.9270 C   0  0  0  0  0  2  0  0  0  0  0  0
  188.8730  178.3070  148.1650 C   0  0  0  0  0  2  0  0  0  0  0  0
  190.6810  177.0550  146.7630 C   0  0  0  0  0  2  0  0  0  0  0  0
  1 12  1  0  0  0  0
  1 54  1  6  0  0  0
  3 17  1  0  0  0  0
  4 11  2  0  0  0  0
  4 20  1  0  0  0  0
  5 21  1  0  0  0  0
  5  6  1  1  0  0  0
  7 10  1  1  0  0  0
  8 13  1  1  0  0  0
  8  2  1  0  0  0  0
  8  5  1  0  0  0  0
  9 23  1  0  0  0  0
 12  7  1  0  0  0  0
 15 22  1  0  0  0  0
 17  1  1  0  0  0  0
 18 50  1  1  0  0  0
 18 19  1  0  0  0  0
 18  2  1  0  0  0  0
 19 35  1  1  0  0  0
 19  9  1  0  0  0  0
 20 15  2  0  0  0  0
 21 14  1  6  0  0  0
 21  3  1  0  0  0  0
 22  7  1  0  0  0  0
 23 16  1  1  0  0  0
 23  4  1  0  0  0  0
 24 15  1  0  0  0  0
 26 25  1  0  0  0  0
 26 27  2  0  0  0  0
 27 24  2  0  0  0  0
 28 29  1  6  0  0  0
 28 26  1  0  0  0  0
 29 30  2  0  0  0  0
 31 28  1  0  0  0  0
 32 31  1  0  0  0  0
 33 32  1  0  0  0  0
 34 32  2  0  0  0  0
 36 35  2  0  0  0  0
 37 36  1  0  0  0  0
 38 37  1  0  0  0  0
 39 40  2  0  0  0  0
 40 41  1  0  0  0  0
 40 38  1  0  0  0  0
 42 41  1  0  0  0  0
 42 45  1  0  0  0  0
 43 46  2  0  0  0  0
 43 45  1  0  0  0  0
 45 48  2  0  0  0  0
 46 49  1  0  0  0  0
 48 47  1  0  0  0  0
 48 44  1  0  0  0  0
 49 47  2  0  0  0  0
 51 52  1  0  0  0  0
 51 50  1  0  0  0  0
 53 52  1  0  0  0  0
 55 54  1  0  0  0  0
 55 56  1  0  0  0  0
 56 59  1  0  0  0  0
 57 69  1  0  0  0  0
 59 66  1  6  0  0  0
 59 61  1  0  0  0  0
 59 63  1  0  0  0  0
 60 64  1  0  0  0  0
 61 58  1  1  0  0  0
 61 57  1  0  0  0  0
 62 68  1  0  0  0  0
 62 67  2  0  0  0  0
 63 65  1  0  0  0  0
 64 68  1  0  0  0  0
 65 60  1  0  0  0  0
 69 62  1  0  0  0  0
M  END
>  <MODEL>
1

>  <REMARK>
 VINA RESULT:      -4.6      0.000      0.000
  Name = 
  18 active torsions:
  status: ('A' for Active; 'I' for Inactive)
    1  A    between atoms: C_1  and  C_25
    2  A    between atoms: C_1  and  N_64
    3  A    between atoms: C_2  and  C_8
    4  A    between atoms: C_2  and  C_20
    5  A    between atoms: O_3  and  C_12
    6  A    between atoms: O_3  and  C_20
    7  A    between atoms: C_6  and  C_62
    8  A    between atoms: C_7  and  C_14
    9  A    between atoms: C_7  and  C_16
   10  A    between atoms: O_10  and  C_18
   11  A    between atoms: O_10  and  C_60
   12  A    between atoms: C_11  and  C_13
   13  A    between atoms: C_11  and  C_44
   14  A    between atoms: C_15  and  C_60
   15  A    between atoms: C_16  and  C_61
   16  A    between atoms: C_33  and  C_52
   17  A    between atoms: C_44  and  C_58
   18  A    between atoms: C_56  and  C_60
                            x       y       z     vdW  Elec       q    Type
                         _______ _______ _______ _____ _____    ______ ____

>  <TORSDO>
F 18

$$$$
=
 OpenBabel11062412163D

 69 71  0  0  1  0  0  0  0  0999 V2000
  185.2240  178.0790  141.1300 C   0  0  1  0  0  3  0  0  0  0  0  0
  188.6510  175.6820  138.1330 C   0  0  0  0  0  2  0  0  0  0  0  0
  187.2230  178.9500  139.8360 C   0  0  0  0  0  2  0  0  0  0  0  0
  183.9310  176.0800  136.7030 C   0  0  0  0  0  0  0  0  0  0  0  0
  189.4420  177.6940  139.4270 C   0  0  1  0  0  3  0  0  0  0  0  0
  189.1010  177.1160  140.6590 O   0  0  0  0  0  1  0  0  0  0  0  0
  183.1680  178.2020  140.3080 C   0  0  2  0  0  3  0  0  0  0  0  0
  189.8230  176.6190  138.4130 C   0  0  1  0  0  3  0  0  0  0  0  0
  186.0650  174.8760  137.0740 C   0  0  0  0  0  2  0  0  0  0  0  0
  182.2300  178.3940  141.3260 O   0  0  0  0  0  1  0  0  0  0  0  0
  182.9900  175.5280  136.0730 O   0  0  0  0  0  0  0  0  0  0  0  0
  184.3070  178.9720  140.5630 O   0  0  0  0  0  0  0  0  0  0  0  0
  191.0430  175.8340  138.8630 C   0  0  0  0  0  1  0  0  0  0  0  0
  188.8900  179.7380  138.3490 F   0  0  0  0  0  0  0  0  0  0  0  0
  182.8400  177.8950  137.8760 C   0  0  0  0  0  0  0  0  0  0  0  0
  185.9900  177.1360  136.2830 O   0  0  0  0  0  1  0  0  0  0  0  0
  186.3290  177.7460  140.1290 C   0  0  0  0  0  2  0  0  0  0  0  0
  188.5950  175.2170  136.6730 C   0  0  1  0  0  3  0  0  0  0  0  0
  187.3370  174.3900  136.3680 C   0  0  1  0  0  3  0  0  0  0  0  0
  183.6530  176.8760  137.8630 N   0  0  0  0  0  0  0  0  0  0  0  0
  188.3260  178.5820  138.8480 C   0  0  2  0  0  3  0  0  0  0  0  0
  182.5970  178.5860  139.0670 O   0  0  0  0  0  0  0  0  0  0  0  0
  185.3330  175.9050  136.2280 C   0  0  2  0  0  3  0  0  0  0  0  0
  182.1950  178.3720  136.6420 C   0  0  0  0  0  3  0  0  0  0  0  0
  179.5220  180.5680  136.0080 O   0  0  0  0  0  1  0  0  0  0  0  0
  180.7580  180.5520  136.6390 C   0  0  0  0  0  0  0  0  0  0  0  0
  181.4650  179.4540  136.6350 C   0  0  0  0  0  0  0  0  0  0  0  0
  181.3140  181.7870  137.2990 C   0  0  2  0  0  3  0  0  0  0  0  0
  182.1590  181.5030  138.5110 C   0  0  0  0  0  3  0  0  0  0  0  0
  183.0500  182.2610  138.8610 O   0  0  0  0  0  0  0  0  0  0  0  0
  180.3330  182.8020  137.5290 O   0  0  0  0  0  0  0  0  0  0  0  0
  180.4430  184.1350  137.1180 C   0  0  0  0  0  0  0  0  0  0  0  0
  179.3990  184.8170  136.9380 O   0  0  0  0  0  1  0  0  0  0  0  0
  181.6850  184.7230  136.9080 O   0  0  0  0  0  0  0  0  0  0  0  0
  187.5540  172.9340  136.6340 C   0  0  0  0  0  3  0  0  0  0  0  0
  187.1110  172.0220  135.7690 C   0  0  0  0  0  3  0  0  0  0  0  0
  187.2460  170.5560  136.0350 C   0  0  0  0  0  2  0  0  0  0  0  0
  186.3520  169.7410  135.1000 C   0  0  0  0  0  2  0  0  0  0  0  0
  184.9900  171.6310  134.6020 O   0  0  0  0  0  0  0  0  0  0  0  0
  185.0290  170.4070  134.8970 C   0  0  0  0  0  0  0  0  0  0  0  0
  183.8260  169.6490  134.9950 N   0  0  0  0  0  2  0  0  0  0  0  0
  182.5440  170.2000  134.5940 C   0  0  0  0  0  2  0  0  0  0  0  0
  182.6770  171.5170  136.7100 C   0  0  0  0  0  3  0  0  0  0  0  0
  179.7150  170.1700  135.0160 F   0  0  0  0  0  0  0  0  0  0  0  0
  181.8900  170.8610  135.7580 C   0  0  0  0  0  0  0  0  0  0  0  0
  182.0800  172.1300  137.8130 C   0  0  0  0  0  3  0  0  0  0  0  0
  179.9030  171.4260  137.0270 C   0  0  0  0  0  3  0  0  0  0  0  0
  180.4980  170.8050  135.9230 C   0  0  0  0  0  0  0  0  0  0  0  0
  180.6930  172.0870  137.9710 C   0  0  0  0  0  3  0  0  0  0  0  0
  188.7160  176.3610  135.6760 C   0  0  0  0  0  2  0  0  0  0  0  0
  189.8840  176.1080  134.7460 C   0  0  0  0  0  2  0  0  0  0  0  0
  191.0740  175.6000  135.5360 C   0  0  0  0  0  2  0  0  0  0  0  0
  192.2440  175.4050  134.5960 C   0  0  0  0  0  1  0  0  0  0  0  0
  185.8070  178.6550  142.4190 C   0  0  0  0  0  2  0  0  0  0  0  0
  185.3770  177.8510  143.6360 C   0  0  0  0  0  2  0  0  0  0  0  0
  186.4910  177.2130  144.2200 O   0  0  0  0  0  0  0  0  0  0  0  0
  188.6840  176.3860  146.0740 O   0  0  0  0  0  0  0  0  0  0  0  0
  187.6050  177.8650  147.5930 O   0  0  0  0  0  1  0  0  0  0  0  0
  187.0610  178.0620  145.2020 C   0  0  1  0  0  0  0  0  0  0  0  0
  190.1430  178.8050  143.4650 C   0  0  0  0  0  2  0  0  0  0  0  0
  187.5380  177.1740  146.3690 C   0  0  1  0  0  3  0  0  0  0  0  0
  191.0740  176.5130  145.9760 C   0  0  0  0  0  0  0  0  0  0  0  0
  188.2270  178.8740  144.6150 C   0  0  0  0  0  2  0  0  0  0  0  0
  191.2690  178.4220  144.4170 C   0  0  0  0  0  2  0  0  0  0  0  0
  188.9800  178.0790  143.7440 O   0  0  0  0  0  0  0  0  0  0  0  0
  186.0980  178.9530  145.6980 O   0  0  0  0  0  1  0  0  0  0  0  0
  192.0150  175.8940  146.6840 C   0  0  0  0  0  2  0  0  0  0  0  0
  191.3660  176.9110  144.5620 C   0  0  0  0  0  2  0  0  0  0  0  0
  189.8240  176.9660  146.6640 C   0  0  0  0  0  2  0  0  0  0  0  0
  1 54  1  1  0  0  0
  2  8  1  0  0  0  0
  3 17  1  0  0  0  0
  4 20  1  0  0  0  0
  5  6  1  1  0  0  0
  7 12  1  0  0  0  0
  7 10  1  1  0  0  0
  8 13  1  1  0  0  0
  8  5  1  0  0  0  0
 11  4  2  0  0  0  0
 12  1  1  0  0  0  0
 15 22  1  0  0  0  0
 17  1  1  0  0  0  0
 18 50  1  6  0  0  0
 18  2  1  0  0  0  0
 19 35  1  1  0  0  0
 19 18  1  0  0  0  0
 19  9  1  0  0  0  0
 20 15  2  0  0  0  0
 21 14  1  1  0  0  0
 21  5  1  0  0  0  0
 21  3  1  0  0  0  0
 22  7  1  0  0  0  0
 23 16  1  1  0  0  0
 23  4  1  0  0  0  0
 23  9  1  0  0  0  0
 24 15  1  0  0  0  0
 25 26  1  0  0  0  0
 26 28  1  0  0  0  0
 27 26  2  0  0  0  0
 27 24  2  0  0  0  0
 28 31  1  0  0  0  0
 28 29  1  1  0  0  0
 29 30  2  0  0  0  0
 32 31  1  0  0  0  0
 33 32  1  0  0  0  0
 34 32  2  0  0  0  0
 36 37  1  0  0  0  0
 36 35  2  0  0  0  0
 38 37  1  0  0  0  0
 39 40  2  0  0  0  0
 40 41  1  0  0  0  0
 40 38  1  0  0  0  0
 42 41  1  0  0  0  0
 42 45  1  0  0  0  0
 43 46  1  0  0  0  0
 44 48  1  0  0  0  0
 45 48  1  0  0  0  0
 45 43  2  0  0  0  0
 46 49  2  0  0  0  0
 47 49  1  0  0  0  0
 48 47  2  0  0  0  0
 51 52  1  0  0  0  0
 51 50  1  0  0  0  0
 53 52  1  0  0  0  0
 54 55  1  0  0  0  0
 55 56  1  0  0  0  0
 56 59  1  0  0  0  0
 57 61  1  0  0  0  0
 57 69  1  0  0  0  0
 59 66  1  1  0  0  0
 59 61  1  0  0  0  0
 60 65  1  0  0  0  0
 60 64  1  0  0  0  0
 61 58  1  1  0  0  0
 62 69  1  0  0  0  0
 62 67  2  0  0  0  0
 63 59  1  0  0  0  0
 64 68  1  0  0  0  0
 65 63  1  0  0  0  0
 68 62  1  0  0  0  0
M  END
>  <MODEL>
2

>  <REMARK>
 VINA RESULT:      -3.3      2.335      4.900
  Name = 
  18 active torsions:
  status: ('A' for Active; 'I' for Inactive)
    1  A    between atoms: C_1  and  C_25
    2  A    between atoms: C_1  and  N_64
    3  A    between atoms: C_2  and  C_8
    4  A    between atoms: C_2  and  C_20
    5  A    between atoms: O_3  and  C_12
    6  A    between atoms: O_3  and  C_20
    7  A    between atoms: C_6  and  C_62
    8  A    between atoms: C_7  and  C_14
    9  A    between atoms: C_7  and  C_16
   10  A    between atoms: O_10  and  C_18
   11  A    between atoms: O_10  and  C_60
   12  A    between atoms: C_11  and  C_13
   13  A    between atoms: C_11  and  C_44
   14  A    between atoms: C_15  and  C_60
   15  A    between atoms: C_16  and  C_61
   16  A    between atoms: C_33  and  C_52
   17  A    between atoms: C_44  and  C_58
   18  A    between atoms: C_56  and  C_60
                            x       y       z     vdW  Elec       q    Type
                         _______ _______ _______ _____ _____    ______ ____

>  <TORSDO>
F 18

$$$$
=
 OpenBabel11062412163D

 69 71  0  0  1  0  0  0  0  0999 V2000
  188.7290  178.6020  140.7000 C   0  0  1  0  0  3  0  0  0  0  0  0
  183.6460  179.2910  141.0970 C   0  0  0  0  0  2  0  0  0  0  0  0
  187.0210  177.6230  142.2980 C   0  0  0  0  0  2  0  0  0  0  0  0
  185.5490  176.9570  137.1720 C   0  0  0  0  0  0  0  0  0  0  0  0
  184.9270  178.8220  143.2160 C   0  0  1  0  0  3  0  0  0  0  0  0
  185.7500  179.9450  143.0440 O   0  0  0  0  0  1  0  0  0  0  0  0
  189.3980  177.4960  138.8980 C   0  0  2  0  0  3  0  0  0  0  0  0
  183.5500  179.0630  142.6030 C   0  0  1  0  0  3  0  0  0  0  0  0
  184.0720  178.5910  138.3070 C   0  0  0  0  0  2  0  0  0  0  0  0
  190.7360  177.7730  138.6050 O   0  0  0  0  0  1  0  0  0  0  0  0
  185.4250  176.7360  135.9380 O   0  0  0  0  0  0  0  0  0  0  0  0
  189.2340  177.3650  140.2810 O   0  0  0  0  0  0  0  0  0  0  0  0
  182.8320  180.2180  143.2780 C   0  0  0  0  0  1  0  0  0  0  0  0
  185.3370  176.5030  143.5310 F   0  0  0  0  0  0  0  0  0  0  0  0
  187.7560  176.1020  137.6820 C   0  0  0  0  0  0  0  0  0  0  0  0
  184.4970  176.4100  139.2030 O   0  0  0  0  0  1  0  0  0  0  0  0
  187.2480  178.4790  141.0530 C   0  0  0  0  0  2  0  0  0  0  0  0
  182.4630  178.6950  140.3270 C   0  0  1  0  0  3  0  0  0  0  0  0
  182.6370  178.8080  138.8040 C   0  0  1  0  0  3  0  0  0  0  0  0
  186.8530  177.0390  137.7630 N   0  0  0  0  0  0  0  0  0  0  0  0
  185.5360  177.5330  142.6350 C   0  0  2  0  0  3  0  0  0  0  0  0
  189.0180  176.2900  138.2530 O   0  0  0  0  0  0  0  0  0  0  0  0
  184.3300  177.1220  138.0140 C   0  0  2  0  0  3  0  0  0  0  0  0
  187.4630  174.8140  137.0320 C   0  0  0  0  0  3  0  0  0  0  0  0
  189.1370  172.8960  134.6050 O   0  0  0  0  0  1  0  0  0  0  0  0
  189.3520  173.4440  135.8630 C   0  0  0  0  0  0  0  0  0  0  0  0
  188.3990  174.1290  136.4350 C   0  0  0  0  0  0  0  0  0  0  0  0
  190.6520  173.2310  136.5950 C   0  0  2  0  0  3  0  0  0  0  0  0
  191.3980  174.5030  136.8950 C   0  0  0  0  0  3  0  0  0  0  0  0
  191.6240  174.8560  138.0410 O   0  0  0  0  0  0  0  0  0  0  0  0
  191.4810  172.2260  136.0050 O   0  0  0  0  0  0  0  0  0  0  0  0
  192.8510  172.3610  135.7520 C   0  0  0  0  0  0  0  0  0  0  0  0
  193.2380  172.7150  134.6060 O   0  0  0  0  0  0  0  0  0  0  0  0
  193.7940  172.1140  136.7430 O   0  0  0  0  0  1  0  0  0  0  0  0
  182.0960  180.0990  138.2790 C   0  0  0  0  0  3  0  0  0  0  0  0
  180.9210  180.5570  138.7120 C   0  0  0  0  0  3  0  0  0  0  0  0
  180.3130  181.8080  138.1580 C   0  0  0  0  0  2  0  0  0  0  0  0
  178.9450  181.5270  137.5380 C   0  0  0  0  0  2  0  0  0  0  0  0
  179.3330  181.3180  135.1970 O   0  0  0  0  0  0  0  0  0  0  0  0
  179.0720  180.7300  136.2800 C   0  0  0  0  0  0  0  0  0  0  0  0
  178.9410  179.3110  136.3180 N   0  0  0  0  0  2  0  0  0  0  0  0
  179.2700  178.4850  135.1690 C   0  0  0  0  0  2  0  0  0  0  0  0
  179.0830  176.1290  135.9700 C   0  0  0  0  0  3  0  0  0  0  0  0
  182.1000  178.1390  135.4060 F   0  0  0  0  0  0  0  0  0  0  0  0
  179.8970  177.2130  135.6220 C   0  0  0  0  0  0  0  0  0  0  0  0
  179.6550  174.9330  136.4080 C   0  0  0  0  0  3  0  0  0  0  0  0
  181.8600  175.8980  136.1660 C   0  0  0  0  0  3  0  0  0  0  0  0
  181.2910  177.1010  135.7320 C   0  0  0  0  0  0  0  0  0  0  0  0
  181.0430  174.8170  136.5050 C   0  0  0  0  0  3  0  0  0  0  0  0
  182.1670  177.2510  140.7080 C   0  0  0  0  0  2  0  0  0  0  0  0
  181.1080  176.6860  139.7860 C   0  0  0  0  0  2  0  0  0  0  0  0
  179.7560  177.2860  140.1210 C   0  0  0  0  0  2  0  0  0  0  0  0
  179.5730  177.2810  141.6240 C   0  0  0  0  0  1  0  0  0  0  0  0
  189.5330  179.1350  141.8840 C   0  0  0  0  0  2  0  0  0  0  0  0
  190.6900  178.2140  142.2370 C   0  0  0  0  0  2  0  0  0  0  0  0
  191.0150  178.3370  143.6030 O   0  0  0  0  0  0  0  0  0  0  0  0
  191.2500  177.9400  146.5560 O   0  0  0  0  0  0  0  0  0  0  0  0
  191.9550  175.7510  145.9440 O   0  0  0  0  0  1  0  0  0  0  0  0
  190.7770  177.1020  144.2590 C   0  0  1  0  0  0  0  0  0  0  0  0
  187.5220  177.8980  145.6150 C   0  0  0  0  0  2  0  0  0  0  0  0
  191.6660  177.0610  145.5180 C   0  0  1  0  0  3  0  0  0  0  0  0
  189.7020  178.0920  148.3780 C   0  0  0  0  0  0  0  0  0  0  0  0
  189.2920  176.9540  144.6270 C   0  0  0  0  0  2  0  0  0  0  0  0
  187.6200  177.6620  147.1160 C   0  0  0  0  0  2  0  0  0  0  0  0
  188.7790  178.1800  145.0680 O   0  0  0  0  0  0  0  0  0  0  0  0
  191.1440  176.0300  143.4320 O   0  0  0  0  0  1  0  0  0  0  0  0
  189.8980  178.1790  149.6910 C   0  0  0  0  0  2  0  0  0  0  0  0
  188.4850  178.7250  147.7770 C   0  0  0  0  0  2  0  0  0  0  0  0
  190.5940  177.2070  147.5650 C   0  0  0  0  0  2  0  0  0  0  0  0
  1 17  1  0  0  0  0
  1 54  1  1  0  0  0
  2  8  1  0  0  0  0
  3 21  1  0  0  0  0
  4 20  1  0  0  0  0
  4 23  1  0  0  0  0
  5  6  1  6  0  0  0
  7 10  1  1  0  0  0
  7 12  1  0  0  0  0
  8  5  1  0  0  0  0
  8 13  1  1  0  0  0
  9 19  1  0  0  0  0
 11  4  2  0  0  0  0
 12  1  1  0  0  0  0
 15 20  2  0  0  0  0
 15 22  1  0  0  0  0
 17  3  1  0  0  0  0
 18 50  1  6  0  0  0
 18  2  1  0  0  0  0
 19 35  1  1  0  0  0
 19 18  1  0  0  0  0
 21  5  1  0  0  0  0
 21 14  1  1  0  0  0
 22  7  1  0  0  0  0
 23  9  1  0  0  0  0
 23 16  1  1  0  0  0
 24 15  1  0  0  0  0
 25 26  1  0  0  0  0
 26 27  2  0  0  0  0
 26 28  1  0  0  0  0
 27 24  2  0  0  0  0
 28 29  1  6  0  0  0
 29 30  2  0  0  0  0
 31 28  1  0  0  0  0
 32 31  1  0  0  0  0
 32 34  1  0  0  0  0
 33 32  2  0  0  0  0
 35 36  2  0  0  0  0
 37 36  1  0  0  0  0
 38 37  1  0  0  0  0
 39 40  2  0  0  0  0
 40 41  1  0  0  0  0
 40 38  1  0  0  0  0
 42 45  1  0  0  0  0
 42 41  1  0  0  0  0
 43 46  1  0  0  0  0
 44 48  1  0  0  0  0
 45 48  1  0  0  0  0
 45 43  2  0  0  0  0
 46 49  2  0  0  0  0
 47 49  1  0  0  0  0
 48 47  2  0  0  0  0
 51 52  1  0  0  0  0
 51 50  1  0  0  0  0
 52 53  1  0  0  0  0
 54 55  1  0  0  0  0
 55 56  1  0  0  0  0
 56 59  1  0  0  0  0
 57 69  1  0  0  0  0
 59 66  1  6  0  0  0
 59 63  1  0  0  0  0
 59 61  1  0  0  0  0
 60 64  1  0  0  0  0
 61 58  1  1  0  0  0
 61 57  1  0  0  0  0
 62 67  2  0  0  0  0
 63 65  1  0  0  0  0
 64 68  1  0  0  0  0
 65 60  1  0  0  0  0
 68 62  1  0  0  0  0
 69 62  1  0  0  0  0
M  END
>  <MODEL>
3

>  <REMARK>
 VINA RESULT:      -2.6      2.861      8.178
  Name = 
  18 active torsions:
  status: ('A' for Active; 'I' for Inactive)
    1  A    between atoms: C_1  and  C_25
    2  A    between atoms: C_1  and  N_64
    3  A    between atoms: C_2  and  C_8
    4  A    between atoms: C_2  and  C_20
    5  A    between atoms: O_3  and  C_12
    6  A    between atoms: O_3  and  C_20
    7  A    between atoms: C_6  and  C_62
    8  A    between atoms: C_7  and  C_14
    9  A    between atoms: C_7  and  C_16
   10  A    between atoms: O_10  and  C_18
   11  A    between atoms: O_10  and  C_60
   12  A    between atoms: C_11  and  C_13
   13  A    between atoms: C_11  and  C_44
   14  A    between atoms: C_15  and  C_60
   15  A    between atoms: C_16  and  C_61
   16  A    between atoms: C_33  and  C_52
   17  A    between atoms: C_44  and  C_58
   18  A    between atoms: C_56  and  C_60
                            x       y       z     vdW  Elec       q    Type
                         _______ _______ _______ _____ _____    ______ ____

>  <TORSDO>
F 18

$$$$
=
 OpenBabel11062412163D

 69 71  0  0  1  0  0  0  0  0999 V2000
  189.3380  178.3660  140.4230 C   0  0  1  0  0  3  0  0  0  0  0  0
  184.2070  178.7050  140.2560 C   0  0  0  0  0  2  0  0  0  0  0  0
  187.5430  177.4440  141.9580 C   0  0  0  0  0  2  0  0  0  0  0  0
  186.6490  176.0980  136.8320 C   0  0  0  0  0  0  0  0  0  0  0  0
  185.2920  178.5750  142.5260 C   0  0  1  0  0  3  0  0  0  0  0  0
  186.0530  179.7310  142.3000 O   0  0  0  0  0  1  0  0  0  0  0  0
  190.2580  177.1190  138.8360 C   0  0  2  0  0  3  0  0  0  0  0  0
  183.9720  178.6400  141.7620 C   0  0  1  0  0  3  0  0  0  0  0  0
  184.9600  177.7310  137.6210 C   0  0  0  0  0  2  0  0  0  0  0  0
  191.5980  177.4640  138.6390 O   0  0  0  0  0  1  0  0  0  0  0  0
  186.6660  175.7320  135.6270 O   0  0  0  0  0  0  0  0  0  0  0  0
  189.9620  177.1320  140.2030 O   0  0  0  0  0  0  0  0  0  0  0  0
  183.1160  179.8050  142.2250 C   0  0  0  0  0  1  0  0  0  0  0  0
  185.8170  176.3440  143.1510 F   0  0  0  0  0  0  0  0  0  0  0  0
  188.8430  175.4770  137.6450 C   0  0  0  0  0  0  0  0  0  0  0  0
  185.4320  175.7030  138.8050 O   0  0  0  0  0  1  0  0  0  0  0  0
  187.8400  178.1700  140.6470 C   0  0  0  0  0  2  0  0  0  0  0  0
  183.1500  177.9380  139.4540 C   0  0  1  0  0  3  0  0  0  0  0  0
  183.4710  177.8920  137.9510 C   0  0  1  0  0  3  0  0  0  0  0  0
  187.8770  176.3450  137.5290 N   0  0  0  0  0  0  0  0  0  0  0  0
  186.0400  177.2800  142.1620 C   0  0  2  0  0  3  0  0  0  0  0  0
  190.0250  175.8230  138.3060 O   0  0  0  0  0  0  0  0  0  0  0  0
  185.3420  176.2630  137.5300 C   0  0  2  0  0  3  0  0  0  0  0  0
  188.7020  174.1060  137.1290 C   0  0  0  0  0  3  0  0  0  0  0  0
  190.3410  172.2980  134.5960 O   0  0  0  0  0  1  0  0  0  0  0  0
  190.6270  172.9830  135.7690 C   0  0  0  0  0  0  0  0  0  0  0  0
  189.6540  173.5420  136.4370 C   0  0  0  0  0  0  0  0  0  0  0  0
  192.0330  173.0620  136.3040 C   0  0  2  0  0  3  0  0  0  0  0  0
  192.4280  174.4330  136.7810 C   0  0  0  0  0  3  0  0  0  0  0  0
  192.2970  175.4180  136.0730 O   0  0  0  0  0  0  0  0  0  0  0  0
  193.0070  172.4720  135.4390 O   0  0  0  0  0  0  0  0  0  0  0  0
  194.0270  171.6050  135.8480 C   0  0  0  0  0  0  0  0  0  0  0  0
  193.8160  170.8040  136.7980 O   0  0  0  0  0  1  0  0  0  0  0  0
  195.2680  171.6080  135.2230 O   0  0  0  0  0  0  0  0  0  0  0  0
  182.9030  179.0720  137.2280 C   0  0  0  0  0  3  0  0  0  0  0  0
  181.5840  179.1930  137.0780 C   0  0  0  0  0  3  0  0  0  0  0  0
  180.9820  180.3200  136.2990 C   0  0  0  0  0  2  0  0  0  0  0  0
  181.1420  181.6480  137.0380 C   0  0  0  0  0  2  0  0  0  0  0  0
  178.9340  182.2580  137.6930 O   0  0  0  0  0  0  0  0  0  0  0  0
  180.0630  181.8360  138.0570 C   0  0  0  0  0  0  0  0  0  0  0  0
  180.3040  181.4990  139.4210 N   0  0  0  0  0  2  0  0  0  0  0  0
  179.2280  181.4590  140.3960 C   0  0  0  0  0  2  0  0  0  0  0  0
  179.4610  180.5960  142.7250 C   0  0  0  0  0  3  0  0  0  0  0  0
  179.6730  178.7610  139.5560 F   0  0  0  0  0  0  0  0  0  0  0  0
  179.4490  180.3380  141.3510 C   0  0  0  0  0  0  0  0  0  0  0  0
  179.6790  179.5580  143.6340 C   0  0  0  0  0  3  0  0  0  0  0  0
  179.8880  177.9960  141.7980 C   0  0  0  0  0  3  0  0  0  0  0  0
  179.6750  179.0350  140.8840 C   0  0  0  0  0  0  0  0  0  0  0  0
  179.8910  178.2580  143.1700 C   0  0  0  0  0  3  0  0  0  0  0  0
  182.9110  176.5270  139.9740 C   0  0  0  0  0  2  0  0  0  0  0  0
  182.1070  175.7380  138.9630 C   0  0  0  0  0  2  0  0  0  0  0  0
  180.7180  175.4650  139.5060 C   0  0  0  0  0  2  0  0  0  0  0  0
  179.9630  174.6010  138.5180 C   0  0  0  0  0  1  0  0  0  0  0  0
  189.9800  179.0880  141.6050 C   0  0  0  0  0  2  0  0  0  0  0  0
  190.8730  178.1590  142.4120 C   0  0  0  0  0  2  0  0  0  0  0  0
  190.7070  178.3960  143.7920 O   0  0  0  0  0  0  0  0  0  0  0  0
  190.7030  178.0900  146.7650 O   0  0  0  0  0  0  0  0  0  0  0  0
  191.6130  175.9450  146.2850 O   0  0  0  0  0  1  0  0  0  0  0  0
  190.4990  177.1640  144.4630 C   0  0  1  0  0  0  0  0  0  0  0  0
  187.0870  177.7520  145.5020 C   0  0  0  0  0  2  0  0  0  0  0  0
  191.2710  177.2190  145.7960 C   0  0  1  0  0  3  0  0  0  0  0  0
  188.9910  178.1730  148.4380 C   0  0  0  0  0  0  0  0  0  0  0  0
  189.0010  176.9170  144.7030 C   0  0  0  0  0  2  0  0  0  0  0  0
  187.0660  177.5620  147.0130 C   0  0  0  0  0  2  0  0  0  0  0  0
  188.3650  178.1120  145.0590 O   0  0  0  0  0  0  0  0  0  0  0  0
  191.0130  176.1010  143.7040 O   0  0  0  0  0  1  0  0  0  0  0  0
  189.0620  178.3070  149.7610 C   0  0  0  0  0  2  0  0  0  0  0  0
  187.7910  178.7010  147.7130 C   0  0  0  0  0  2  0  0  0  0  0  0
  190.0130  177.3360  147.7350 C   0  0  0  0  0  2  0  0  0  0  0  0
  1 17  1  0  0  0  0
  1 54  1  1  0  0  0
  2  8  1  0  0  0  0
  3 21  1  0  0  0  0
  4 20  1  0  0  0  0
  4 23  1  0  0  0  0
  5  6  1  6  0  0  0
  7 10  1  1  0  0  0
  7 12  1  0  0  0  0
  8 13  1  1  0  0  0
  8  5  1  0  0  0  0
  9 19  1  0  0  0  0
 11  4  2  0  0  0  0
 12  1  1  0  0  0  0
 15 22  1  0  0  0  0
 17  3  1  0  0  0  0
 18 50  1  1  0  0  0
 18  2  1  0  0  0  0
 19 35  1  6  0  0  0
 19 18  1  0  0  0  0
 20 15  2  0  0  0  0
 21  5  1  0  0  0  0
 21 14  1  1  0  0  0
 22  7  1  0  0  0  0
 23  9  1  0  0  0  0
 23 16  1  1  0  0  0
 24 15  1  0  0  0  0
 25 26  1  0  0  0  0
 26 28  1  0  0  0  0
 26 27  2  0  0  0  0
 27 24  2  0  0  0  0
 28 29  1  6  0  0  0
 30 29  2  0  0  0  0
 31 32  1  0  0  0  0
 31 28  1  0  0  0  0
 32 33  1  0  0  0  0
 34 32  2  0  0  0  0
 36 35  2  0  0  0  0
 37 38  1  0  0  0  0
 37 36  1  0  0  0  0
 38 40  1  0  0  0  0
 39 40  2  0  0  0  0
 40 41  1  0  0  0  0
 41 42  1  0  0  0  0
 42 45  1  0  0  0  0
 43 46  1  0  0  0  0
 44 48  1  0  0  0  0
 45 43  2  0  0  0  0
 47 49  1  0  0  0  0
 48 45  1  0  0  0  0
 48 47  2  0  0  0  0
 49 46  2  0  0  0  0
 51 52  1  0  0  0  0
 51 50  1  0  0  0  0
 53 52  1  0  0  0  0
 54 55  1  0  0  0  0
 55 56  1  0  0  0  0
 56 59  1  0  0  0  0
 57 69  1  0  0  0  0
 59 66  1  6  0  0  0
 59 63  1  0  0  0  0
 59 61  1  0  0  0  0
 60 64  1  0  0  0  0
 61 58  1  1  0  0  0
 61 57  1  0  0  0  0
 62 67  2  0  0  0  0
 63 65  1  0  0  0  0
 64 68  1  0  0  0  0
 65 60  1  0  0  0  0
 68 62  1  0  0  0  0
 69 62  1  0  0  0  0
M  END
>  <MODEL>
4

>  <REMARK>
 VINA RESULT:      -2.0      3.142      9.054
  Name = 
  18 active torsions:
  status: ('A' for Active; 'I' for Inactive)
    1  A    between atoms: C_1  and  C_25
    2  A    between atoms: C_1  and  N_64
    3  A    between atoms: C_2  and  C_8
    4  A    between atoms: C_2  and  C_20
    5  A    between atoms: O_3  and  C_12
    6  A    between atoms: O_3  and  C_20
    7  A    between atoms: C_6  and  C_62
    8  A    between atoms: C_7  and  C_14
    9  A    between atoms: C_7  and  C_16
   10  A    between atoms: O_10  and  C_18
   11  A    between atoms: O_10  and  C_60
   12  A    between atoms: C_11  and  C_13
   13  A    between atoms: C_11  and  C_44
   14  A    between atoms: C_15  and  C_60
   15  A    between atoms: C_16  and  C_61
   16  A    between atoms: C_33  and  C_52
   17  A    between atoms: C_44  and  C_58
   18  A    between atoms: C_56  and  C_60
                            x       y       z     vdW  Elec       q    Type
                         _______ _______ _______ _____ _____    ______ ____

>  <TORSDO>
F 18

$$$$
=
 OpenBabel11062412163D

 69 71  0  0  1  0  0  0  0  0999 V2000
  185.5050  179.0080  139.8710 C   0  0  1  0  0  3  0  0  0  0  0  0
  188.9990  176.5510  137.0020 C   0  0  0  0  0  2  0  0  0  0  0  0
  185.3790  176.8410  138.5610 C   0  0  0  0  0  2  0  0  0  0  0  0
  189.5880  176.8940  141.9020 C   0  0  0  0  0  0  0  0  0  0  0  0
  186.5800  176.3330  136.3320 C   0  0  1  0  0  3  0  0  0  0  0  0
  186.4300  177.7180  136.1750 O   0  0  0  0  0  1  0  0  0  0  0  0
  185.9100  179.0230  142.0510 C   0  0  2  0  0  3  0  0  0  0  0  0
  188.0130  175.9060  136.0310 C   0  0  1  0  0  3  0  0  0  0  0  0
  190.3360  177.0140  139.5430 C   0  0  0  0  0  2  0  0  0  0  0  0
  185.2430  180.0780  142.6800 O   0  0  0  0  0  1  0  0  0  0  0  0
  190.4230  176.9910  142.8400 O   0  0  0  0  0  0  0  0  0  0  0  0
  185.0810  178.4490  141.0820 O   0  0  0  0  0  0  0  0  0  0  0  0
  188.3970  176.2110  134.5940 C   0  0  0  0  0  1  0  0  0  0  0  0
  185.4370  174.6780  137.5970 F   0  0  0  0  0  0  0  0  0  0  0  0
  187.4690  177.3430  142.9820 C   0  0  0  0  0  0  0  0  0  0  0  0
  188.8400  175.3160  140.3280 O   0  0  0  0  0  1  0  0  0  0  0  0
  186.2770  177.9760  139.0510 C   0  0  0  0  0  2  0  0  0  0  0  0
  190.1660  175.6280  137.3680 C   0  0  1  0  0  3  0  0  0  0  0  0
  191.0750  176.2320  138.4500 C   0  0  1  0  0  3  0  0  0  0  0  0
  188.3100  177.5360  142.0050 N   0  0  0  0  0  0  0  0  0  0  0  0
  186.1730  175.8370  137.7320 C   0  0  2  0  0  3  0  0  0  0  0  0
  186.2620  178.0480  143.0210 O   0  0  0  0  0  0  0  0  0  0  0  0
  189.9370  176.1000  140.6890 C   0  0  2  0  0  3  0  0  0  0  0  0
  187.7390  176.3540  144.0380 C   0  0  0  0  0  3  0  0  0  0  0  0
  189.2140  176.5670  147.2250 O   0  0  0  0  0  1  0  0  0  0  0  0
  188.1600  177.1090  146.5020 C   0  0  0  0  0  0  0  0  0  0  0  0
  187.9630  176.7240  145.2700 C   0  0  0  0  0  0  0  0  0  0  0  0
  187.2170  178.1050  147.1250 C   0  0  2  0  0  3  0  0  0  0  0  0
  187.1150  177.9950  148.6220 C   0  0  0  0  0  3  0  0  0  0  0  0
  187.8300  178.6530  149.3620 O   0  0  0  0  0  0  0  0  0  0  0  0
  185.9410  178.1620  146.4830 O   0  0  0  0  0  0  0  0  0  0  0  0
  185.1700  179.3200  146.3260 C   0  0  0  0  0  0  0  0  0  0  0  0
  184.0830  179.2600  145.6920 O   0  0  0  0  0  0  0  0  0  0  0  0
  185.5810  180.5360  146.8590 O   0  0  0  0  0  1  0  0  0  0  0  0
  192.1610  177.0720  137.8550 C   0  0  0  0  0  3  0  0  0  0  0  0
  193.2620  176.4970  137.3730 C   0  0  0  0  0  3  0  0  0  0  0  0
  194.4010  177.3070  136.8360 C   0  0  0  0  0  2  0  0  0  0  0  0
  194.9060  176.7380  135.5110 C   0  0  0  0  0  2  0  0  0  0  0  0
  195.8940  174.6870  134.8110 O   0  0  0  0  0  0  0  0  0  0  0  0
  195.7730  175.5410  135.7290 C   0  0  0  0  0  0  0  0  0  0  0  0
  196.4900  175.3930  136.9530 N   0  0  0  0  0  2  0  0  0  0  0  0
  197.5050  174.3670  137.1210 C   0  0  0  0  0  2  0  0  0  0  0  0
  197.1630  172.1300  136.0700 C   0  0  0  0  0  3  0  0  0  0  0  0
  195.6620  173.4950  139.1260 F   0  0  0  0  0  0  0  0  0  0  0  0
  196.8710  173.0200  137.1090 C   0  0  0  0  0  0  0  0  0  0  0  0
  196.5670  170.8670  136.0380 C   0  0  0  0  0  3  0  0  0  0  0  0
  195.3740  171.3790  138.0790 C   0  0  0  0  0  3  0  0  0  0  0  0
  195.9630  172.6470  138.1120 C   0  0  0  0  0  0  0  0  0  0  0  0
  195.6740  170.4900  137.0440 C   0  0  0  0  0  3  0  0  0  0  0  0
  189.7190  174.2350  137.7860 C   0  0  0  0  0  2  0  0  0  0  0  0
  190.0960  173.2330  136.7150 C   0  0  0  0  0  2  0  0  0  0  0  0
  191.2680  173.7570  135.9070 C   0  0  0  0  0  2  0  0  0  0  0  0
  192.5580  173.3040  136.5570 C   0  0  0  0  0  1  0  0  0  0  0  0
  184.3150  179.5540  139.0860 C   0  0  0  0  0  2  0  0  0  0  0  0
  182.9980  179.2600  139.7880 C   0  0  0  0  0  2  0  0  0  0  0  0
  182.5350  177.9740  139.4440 O   0  0  0  0  0  0  0  0  0  0  0  0
  181.6760  177.0380  136.7390 O   0  0  0  0  0  0  0  0  0  0  0  0
  180.1410  178.8510  136.8850 O   0  0  0  0  0  1  0  0  0  0  0  0
  181.2050  178.0640  138.9590 C   0  0  1  0  0  0  0  0  0  0  0  0
  180.3080  174.5860  139.3660 C   0  0  0  0  0  2  0  0  0  0  0  0
  181.2750  178.2170  137.4260 C   0  0  1  0  0  3  0  0  0  0  0  0
  180.8090  174.9700  135.8980 C   0  0  0  0  0  0  0  0  0  0  0  0
  180.3930  176.8200  139.3530 C   0  0  0  0  0  2  0  0  0  0  0  0
  179.8330  174.1080  138.0000 C   0  0  0  0  0  2  0  0  0  0  0  0
  181.1840  175.6710  139.2420 O   0  0  0  0  0  0  0  0  0  0  0  0
  180.5690  179.2000  139.4810 O   0  0  0  0  0  1  0  0  0  0  0  0
  180.6990  174.5050  134.6560 C   0  0  0  0  0  2  0  0  0  0  0  0
  180.9970  174.0030  137.0260 C   0  0  0  0  0  2  0  0  0  0  0  0
  180.5510  176.4210  136.1570 C   0  0  0  0  0  2  0  0  0  0  0  0
  1 54  1  6  0  0  0
  1 12  1  0  0  0  0
  2 18  1  0  0  0  0
  3 17  1  0  0  0  0
  4 20  1  0  0  0  0
  4 11  2  0  0  0  0
  5  6  1  1  0  0  0
  5 21  1  0  0  0  0
  7 10  1  1  0  0  0
  7 22  1  0  0  0  0
  8 13  1  6  0  0  0
  8  5  1  0  0  0  0
  8  2  1  0  0  0  0
  9 23  1  0  0  0  0
 12  7  1  0  0  0  0
 15 22  1  0  0  0  0
 15 24  1  0  0  0  0
 17  1  1  0  0  0  0
 18 50  1  1  0  0  0
 18 19  1  0  0  0  0
 19 35  1  6  0  0  0
 19  9  1  0  0  0  0
 20 15  2  0  0  0  0
 21 14  1  6  0  0  0
 21  3  1  0  0  0  0
 23 16  1  6  0  0  0
 23  4  1  0  0  0  0
 24 27  2  0  0  0  0
 26 28  1  0  0  0  0
 26 25  1  0  0  0  0
 27 26  2  0  0  0  0
 28 29  1  1  0  0  0
 29 30  2  0  0  0  0
 31 28  1  0  0  0  0
 32 31  1  0  0  0  0
 32 34  1  0  0  0  0
 33 32  2  0  0  0  0
 36 35  2  0  0  0  0
 37 36  1  0  0  0  0
 38 40  1  0  0  0  0
 38 37  1  0  0  0  0
 39 40  2  0  0  0  0
 40 41  1  0  0  0  0
 41 42  1  0  0  0  0
 43 45  1  0  0  0  0
 45 42  1  0  0  0  0
 45 48  2  0  0  0  0
 46 43  2  0  0  0  0
 46 49  1  0  0  0  0
 47 48  1  0  0  0  0
 48 44  1  0  0  0  0
 49 47  2  0  0  0  0
 51 50  1  0  0  0  0
 52 53  1  0  0  0  0
 52 51  1  0  0  0  0
 54 55  1  0  0  0  0
 56 55  1  0  0  0  0
 57 61  1  0  0  0  0
 59 63  1  0  0  0  0
 59 56  1  0  0  0  0
 59 66  1  1  0  0  0
 61 58  1  6  0  0  0
 61 59  1  0  0  0  0
 62 69  1  0  0  0  0
 62 68  1  0  0  0  0
 64 60  1  0  0  0  0
 65 63  1  0  0  0  0
 65 60  1  0  0  0  0
 67 62  2  0  0  0  0
 68 64  1  0  0  0  0
 69 57  1  0  0  0  0
M  END
>  <MODEL>
5

>  <REMARK>
 VINA RESULT:      -1.7      3.885      9.627
  Name = 
  18 active torsions:
  status: ('A' for Active; 'I' for Inactive)
    1  A    between atoms: C_1  and  C_25
    2  A    between atoms: C_1  and  N_64
    3  A    between atoms: C_2  and  C_8
    4  A    between atoms: C_2  and  C_20
    5  A    between atoms: O_3  and  C_12
    6  A    between atoms: O_3  and  C_20
    7  A    between atoms: C_6  and  C_62
    8  A    between atoms: C_7  and  C_14
    9  A    between atoms: C_7  and  C_16
   10  A    between atoms: O_10  and  C_18
   11  A    between atoms: O_10  and  C_60
   12  A    between atoms: C_11  and  C_13
   13  A    between atoms: C_11  and  C_44
   14  A    between atoms: C_15  and  C_60
   15  A    between atoms: C_16  and  C_61
   16  A    between atoms: C_33  and  C_52
   17  A    between atoms: C_44  and  C_58
   18  A    between atoms: C_56  and  C_60
                            x       y       z     vdW  Elec       q    Type
                         _______ _______ _______ _____ _____    ______ ____

>  <TORSDO>
F 18

$$$$
=
 OpenBabel11062412163D

 69 71  0  0  1  0  0  0  0  0999 V2000
  185.5170  179.0260  139.8700 C   0  0  1  0  0  3  0  0  0  0  0  0
  188.9640  176.5640  136.9490 C   0  0  0  0  0  2  0  0  0  0  0  0
  185.4150  176.7940  138.6720 C   0  0  0  0  0  2  0  0  0  0  0  0
  189.7750  177.1720  141.7920 C   0  0  0  0  0  0  0  0  0  0  0  0
  186.5260  176.2210  136.4130 C   0  0  1  0  0  3  0  0  0  0  0  0
  186.3130  177.5910  136.1980 O   0  0  0  0  0  1  0  0  0  0  0  0
  186.0250  179.1650  142.0240 C   0  0  2  0  0  3  0  0  0  0  0  0
  187.9600  175.8350  136.0610 C   0  0  1  0  0  3  0  0  0  0  0  0
  190.4020  177.2030  139.3950 C   0  0  0  0  0  2  0  0  0  0  0  0
  185.3470  180.2230  142.6340 O   0  0  0  0  0  1  0  0  0  0  0  0
  190.6500  177.3470  142.6810 O   0  0  0  0  0  0  0  0  0  0  0  0
  185.1740  178.5120  141.1260 O   0  0  0  0  0  0  0  0  0  0  0  0
  188.2600  176.0820  134.5940 C   0  0  0  0  0  1  0  0  0  0  0  0
  185.5130  174.5890  137.8120 F   0  0  0  0  0  0  0  0  0  0  0  0
  187.6940  177.5930  142.9540 C   0  0  0  0  0  0  0  0  0  0  0  0
  189.0160  175.4900  140.3350 O   0  0  0  0  0  1  0  0  0  0  0  0
  186.2890  177.9840  139.0620 C   0  0  0  0  0  2  0  0  0  0  0  0
  190.1840  175.7060  137.3000 C   0  0  1  0  0  3  0  0  0  0  0  0
  191.1190  176.3970  138.3050 C   0  0  1  0  0  3  0  0  0  0  0  0
  188.4790  177.7690  141.9280 N   0  0  0  0  0  0  0  0  0  0  0  0
  186.2080  175.7800  137.8540 C   0  0  2  0  0  3  0  0  0  0  0  0
  186.4630  178.2530  143.0200 O   0  0  0  0  0  0  0  0  0  0  0  0
  190.0960  176.3330  140.6030 C   0  0  2  0  0  3  0  0  0  0  0  0
  188.0550  176.6690  144.0420 C   0  0  0  0  0  3  0  0  0  0  0  0
  189.8890  177.0430  147.0200 O   0  0  0  0  0  1  0  0  0  0  0  0
  188.7750  177.5730  146.3830 C   0  0  0  0  0  0  0  0  0  0  0  0
  188.4280  177.1130  145.2110 C   0  0  0  0  0  0  0  0  0  0  0  0
  187.9390  178.6440  147.0340 C   0  0  2  0  0  3  0  0  0  0  0  0
  187.6470  178.3890  148.4880 C   0  0  0  0  0  3  0  0  0  0  0  0
  187.8890  177.3120  149.0100 O   0  0  0  0  0  0  0  0  0  0  0  0
  186.7720  178.9910  146.2850 O   0  0  0  0  0  0  0  0  0  0  0  0
  185.5080  178.4110  146.4500 C   0  0  0  0  0  0  0  0  0  0  0  0
  185.3670  177.1710  146.2760 O   0  0  0  0  0  0  0  0  0  0  0  0
  184.4060  179.1790  146.8060 O   0  0  0  0  0  1  0  0  0  0  0  0
  192.1400  177.2460  137.6180 C   0  0  0  0  0  3  0  0  0  0  0  0
  193.2740  176.7030  137.1750 C   0  0  0  0  0  3  0  0  0  0  0  0
  194.3500  177.5320  136.5470 C   0  0  0  0  0  2  0  0  0  0  0  0
  195.0310  176.7790  135.4050 C   0  0  0  0  0  2  0  0  0  0  0  0
  197.0880  175.5810  135.3210 O   0  0  0  0  0  0  0  0  0  0  0  0
  195.9980  175.7640  135.9240 C   0  0  0  0  0  0  0  0  0  0  0  0
  195.7010  175.0410  137.1170 N   0  0  0  0  0  2  0  0  0  0  0  0
  196.6980  174.2110  137.7710 C   0  0  0  0  0  2  0  0  0  0  0  0
  195.2020  172.3280  137.1080 C   0  0  0  0  0  3  0  0  0  0  0  0
  198.8270  172.3040  137.6670 F   0  0  0  0  0  0  0  0  0  0  0  0
  196.4910  172.7840  137.4030 C   0  0  0  0  0  0  0  0  0  0  0  0
  194.9880  170.9890  136.7730 C   0  0  0  0  0  3  0  0  0  0  0  0
  197.3520  170.5480  137.0370 C   0  0  0  0  0  3  0  0  0  0  0  0
  197.5700  171.8870  137.3800 C   0  0  0  0  0  0  0  0  0  0  0  0
  196.0640  170.0990  136.7360 C   0  0  0  0  0  3  0  0  0  0  0  0
  189.8140  174.3190  137.8070 C   0  0  0  0  0  2  0  0  0  0  0  0
  190.6580  173.2760  137.1040 C   0  0  0  0  0  2  0  0  0  0  0  0
  189.9870  172.8520  135.8120 C   0  0  0  0  0  2  0  0  0  0  0  0
  188.5210  172.5830  136.0820 C   0  0  0  0  0  1  0  0  0  0  0  0
  184.2680  179.4870  139.1200 C   0  0  0  0  0  2  0  0  0  0  0  0
  183.0160  179.3320  139.9690 C   0  0  0  0  0  2  0  0  0  0  0  0
  182.3190  178.1610  139.6060 O   0  0  0  0  0  0  0  0  0  0  0  0
  180.8020  180.6630  138.9990 O   0  0  0  0  0  0  0  0  0  0  0  0
  179.5530  180.0660  140.9340 O   0  0  0  0  0  1  0  0  0  0  0  0
  180.9360  178.3340  139.8690 C   0  0  1  0  0  0  0  0  0  0  0  0
  179.7510  177.9600  136.4740 C   0  0  0  0  0  2  0  0  0  0  0  0
  180.6950  179.8310  140.1470 C   0  0  1  0  0  3  0  0  0  0  0  0
  179.5420  181.4210  137.1070 C   0  0  0  0  0  0  0  0  0  0  0  0
  180.0880  177.8490  138.6820 C   0  0  0  0  0  2  0  0  0  0  0  0
  178.9440  179.2140  136.1670 C   0  0  0  0  0  2  0  0  0  0  0  0
  180.6990  178.2050  137.4740 O   0  0  0  0  0  0  0  0  0  0  0  0
  180.5620  177.6120  141.0120 O   0  0  0  0  0  1  0  0  0  0  0  0
  179.1170  182.6350  136.7650 C   0  0  0  0  0  2  0  0  0  0  0  0
  179.8540  180.4260  136.0320 C   0  0  0  0  0  2  0  0  0  0  0  0
  179.5150  181.0190  138.5490 C   0  0  0  0  0  2  0  0  0  0  0  0
  1 54  1  6  0  0  0
  1 12  1  0  0  0  0
  2 18  1  0  0  0  0
  3 17  1  0  0  0  0
  4 20  1  0  0  0  0
  4 11  2  0  0  0  0
  5  6  1  1  0  0  0
  5 21  1  0  0  0  0
  7 10  1  1  0  0  0
  7 22  1  0  0  0  0
  8 13  1  6  0  0  0
  8  5  1  0  0  0  0
  8  2  1  0  0  0  0
  9 23  1  0  0  0  0
 12  7  1  0  0  0  0
 15 22  1  0  0  0  0
 15 24  1  0  0  0  0
 17  1  1  0  0  0  0
 18 50  1  1  0  0  0
 18 19  1  0  0  0  0
 19 35  1  6  0  0  0
 19  9  1  0  0  0  0
 20 15  2  0  0  0  0
 21 14  1  6  0  0  0
 21  3  1  0  0  0  0
 23 16  1  6  0  0  0
 23  4  1  0  0  0  0
 24 27  2  0  0  0  0
 26 25  1  0  0  0  0
 26 28  1  0  0  0  0
 27 26  2  0  0  0  0
 28 29  1  1  0  0  0
 29 30  2  0  0  0  0
 31 32  1  0  0  0  0
 31 28  1  0  0  0  0
 32 34  1  0  0  0  0
 33 32  2  0  0  0  0
 36 35  2  0  0  0  0
 37 36  1  0  0  0  0
 38 40  1  0  0  0  0
 38 37  1  0  0  0  0
 39 40  2  0  0  0  0
 40 41  1  0  0  0  0
 41 42  1  0  0  0  0
 43 45  1  0  0  0  0
 45 42  1  0  0  0  0
 46 43  2  0  0  0  0
 47 48  1  0  0  0  0
 48 45  2  0  0  0  0
 48 44  1  0  0  0  0
 49 46  1  0  0  0  0
 49 47  2  0  0  0  0
 51 50  1  0  0  0  0
 52 53  1  0  0  0  0
 52 51  1  0  0  0  0
 54 55  1  0  0  0  0
 56 59  1  0  0  0  0
 56 55  1  0  0  0  0
 57 61  1  0  0  0  0
 59 61  1  0  0  0  0
 59 66  1  1  0  0  0
 60 65  1  0  0  0  0
 61 58  1  6  0  0  0
 62 69  1  0  0  0  0
 63 59  1  0  0  0  0
 64 60  1  0  0  0  0
 65 63  1  0  0  0  0
 67 62  2  0  0  0  0
 68 64  1  0  0  0  0
 68 62  1  0  0  0  0
 69 57  1  0  0  0  0
M  END
>  <MODEL>
6

>  <REMARK>
 VINA RESULT:      -1.6      3.951      9.766
  Name = 
  18 active torsions:
  status: ('A' for Active; 'I' for Inactive)
    1  A    between atoms: C_1  and  C_25
    2  A    between atoms: C_1  and  N_64
    3  A    between atoms: C_2  and  C_8
    4  A    between atoms: C_2  and  C_20
    5  A    between atoms: O_3  and  C_12
    6  A    between atoms: O_3  and  C_20
    7  A    between atoms: C_6  and  C_62
    8  A    between atoms: C_7  and  C_14
    9  A    between atoms: C_7  and  C_16
   10  A    between atoms: O_10  and  C_18
   11  A    between atoms: O_10  and  C_60
   12  A    between atoms: C_11  and  C_13
   13  A    between atoms: C_11  and  C_44
   14  A    between atoms: C_15  and  C_60
   15  A    between atoms: C_16  and  C_61
   16  A    between atoms: C_33  and  C_52
   17  A    between atoms: C_44  and  C_58
   18  A    between atoms: C_56  and  C_60
                            x       y       z     vdW  Elec       q    Type
                         _______ _______ _______ _____ _____    ______ ____

>  <TORSDO>
F 18

$$$$
