=
 OpenBabel11062417463D

 39 42  0  0  1  0  0  0  0  0999 V2000
  189.6170  177.8680  141.3800 C   0  0  0  0  0  0  0  0  0  0  0  0
  185.9440  178.5370  139.5570 N   0  0  0  0  0  0  0  0  0  0  0  0
  188.3330  177.7450  139.2970 C   0  0  0  0  0  0  0  0  0  0  0  0
  189.5340  177.5510  140.0080 C   0  0  0  0  0  3  0  0  0  0  0  0
  187.3650  178.5510  141.3530 C   0  0  0  0  0  0  0  0  0  0  0  0
  185.1570  179.0460  140.6810 C   0  0  0  0  0  3  0  0  0  0  0  0
  187.2490  178.2650  140.0260 C   0  0  0  0  0  0  0  0  0  0  0  0
  186.0930  179.0640  141.9070 C   0  0  0  0  0  3  0  0  0  0  0  0
  188.5230  178.3560  142.0320 N   0  0  0  0  0  2  0  0  0  0  0  0
  187.5020  178.1790  135.6200 N   0  0  0  0  0  1  0  0  0  0  0  0
  188.0460  178.4900  136.9000 C   0  0  0  0  0  0  0  0  0  0  0  0
  188.2520  177.4490  137.8790 N   0  0  0  0  0  0  0  0  0  0  0  0
  188.3620  179.6820  137.1530 O   0  0  0  0  0  0  0  0  0  0  0  0
  188.1830  176.0520  137.4420 C   0  0  0  0  0  2  0  0  0  0  0  0
  190.5960  176.5300  136.9300 C   0  0  0  0  0  2  0  0  0  0  0  0
  190.0810  174.4710  137.2080 C   0  0  0  0  0  2  0  0  0  0  0  0
  189.3920  175.6710  136.5900 C   0  0  1  0  0  3  0  0  0  0  0  0
  191.2840  175.3280  137.5530 C   0  0  1  0  0  3  0  0  0  0  0  0
  192.4180  174.9250  136.7360 N   0  0  0  0  0  2  0  0  0  0  0  0
  193.6260  175.2050  137.4990 C   0  0  2  0  0  3  0  0  0  0  0  0
  194.0600  176.4980  137.2130 O   0  0  0  0  0  1  0  0  0  0  0  0
  194.7210  174.2160  137.1290 C   0  0  0  0  0  2  0  0  0  0  0  0
  195.7430  174.1270  138.2120 C   0  0  0  0  0  0  0  0  0  0  0  0
  195.5830  173.3230  139.1670 O   0  0  0  0  0  1  0  0  0  0  0  0
  196.8870  174.9110  138.1520 O   0  0  0  0  0  0  0  0  0  0  0  0
  190.8710  177.6160  142.1550 C   0  0  2  0  0  3  0  0  0  0  0  0
  192.0010  177.3690  141.2690 N   0  0  0  0  0  1  0  0  0  0  0  0
  190.2130  175.3920  142.7090 O   0  0  0  0  0  0  0  0  0  0  0  0
  190.6890  176.4820  143.1220 C   0  0  0  0  0  0  0  0  0  0  0  0
  190.9340  176.6290  144.4960 O   0  0  0  0  0  0  0  0  0  0  0  0
  189.5270  177.5340  147.8030 C   0  0  0  0  0  3  0  0  0  0  0  0
  187.7480  177.6110  146.1700 C   0  0  0  0  0  0  0  0  0  0  0  0
  186.0670  177.9000  145.7680 Cl  0  0  0  0  0  0  0  0  0  0  0  0
  190.4400  177.1490  146.8060 C   0  0  0  0  0  0  0  0  0  0  0  0
  188.1870  177.7640  147.4860 C   0  0  0  0  0  3  0  0  0  0  0  0
  188.6500  177.2330  145.1730 C   0  0  0  0  0  3  0  0  0  0  0  0
  189.9990  176.9920  145.4810 C   0  0  0  0  0  0  0  0  0  0  0  0
  191.7860  176.9130  147.1110 O   0  0  0  0  0  0  0  0  0  0  0  0
  192.2660  175.6450  147.5390 C   0  0  0  0  0  1  0  0  0  0  0  0
  1  9  1  0  0  0  0
  1 26  1  0  0  0  0
  2  7  1  0  0  0  0
  2  6  2  0  0  0  0
  3  4  1  0  0  0  0
  3  7  2  0  0  0  0
  4  1  2  0  0  0  0
  5  8  2  0  0  0  0
  5  9  1  0  0  0  0
  6  8  1  0  0  0  0
  7  5  1  0  0  0  0
 10 11  1  0  0  0  0
 11 13  2  0  0  0  0
 11 12  1  0  0  0  0
 12  3  1  0  0  0  0
 14 12  1  0  0  0  0
 15 18  1  0  0  0  0
 16 18  1  0  0  0  0
 17 15  1  0  0  0  0
 17 16  1  0  0  0  0
 17 14  1  1  0  0  0
 18 19  1  6  0  0  0
 19 20  1  0  0  0  0
 20 21  1  6  0  0  0
 22 20  1  0  0  0  0
 22 23  1  0  0  0  0
 23 24  1  0  0  0  0
 25 23  2  0  0  0  0
 26 27  1  6  0  0  0
 26 29  1  0  0  0  0
 28 29  2  0  0  0  0
 29 30  1  0  0  0  0
 30 37  1  0  0  0  0
 32 35  2  0  0  0  0
 33 32  1  0  0  0  0
 34 38  1  0  0  0  0
 34 31  2  0  0  0  0
 35 31  1  0  0  0  0
 36 37  2  0  0  0  0
 36 32  1  0  0  0  0
 37 34  1  0  0  0  0
 38 39  1  0  0  0  0
M  END
>  <MODEL>
1

>  <REMARK>
 VINA RESULT:      -9.1      0.000      0.000
  Name = 
  12 active torsions:
  status: ('A' for Active; 'I' for Inactive)
    1  A    between atoms: C_2  and  C_11
    2  A    between atoms: O_5  and  C_19
    3  A    between atoms: O_8  and  C_30
    4  A    between atoms: O_8  and  C_36
    5  A    between atoms: C_11  and  C_36
    6  A    between atoms: C_13  and  N_27
    7  A    between atoms: C_14  and  C_38
    8  A    between atoms: C_17  and  C_33
    9  A    between atoms: C_20  and  N_26
   10  A    between atoms: C_20  and  C_38
   11  A    between atoms: N_26  and  C_31
   12  A    between atoms: N_27  and  C_33
                            x       y       z     vdW  Elec       q    Type
                         _______ _______ _______ _____ _____    ______ ____

>  <TORSDO>
F 12

$$$$
=
 OpenBabel11062417463D

 39 42  0  0  1  0  0  0  0  0999 V2000
  184.9400  178.0270  138.5300 C   0  0  0  0  0  0  0  0  0  0  0  0
  186.3920  175.0780  135.9890 N   0  0  0  0  0  0  0  0  0  0  0  0
  186.9330  177.0130  137.5270 C   0  0  0  0  0  0  0  0  0  0  0  0
  186.3410  177.9740  138.3710 C   0  0  0  0  0  3  0  0  0  0  0  0
  184.7100  176.2080  137.0550 C   0  0  0  0  0  0  0  0  0  0  0  0
  185.1510  174.4260  135.5710 C   0  0  0  0  0  3  0  0  0  0  0  0
  186.0570  176.1310  136.8680 C   0  0  2  0  0  3  0  0  0  0  0  0
  183.9980  175.1680  136.2780 C   0  0  0  0  0  3  0  0  0  0  0  0
  184.1480  177.1320  137.8730 N   0  0  0  0  0  0  0  0  0  0  0  0
  190.2750  176.8700  135.7370 N   0  0  0  0  0  1  0  0  0  0  0  0
  188.9760  177.3450  136.0800 C   0  0  0  0  0  0  0  0  0  0  0  0
  188.3700  176.9750  137.3370 N   0  0  0  0  0  0  0  0  0  0  0  0
  188.3780  178.1100  135.2780 O   0  0  0  0  0  0  0  0  0  0  0  0
  189.2140  176.3660  138.3690 C   0  0  0  0  0  2  0  0  0  0  0  0
  188.9760  177.2400  140.7120 C   0  0  0  0  0  2  0  0  0  0  0  0
  190.9780  176.9160  140.0250 C   0  0  0  0  0  2  0  0  0  0  0  0
  189.6930  177.4010  139.3840 C   0  0  1  0  0  3  0  0  0  0  0  0
  190.2630  176.7490  141.3520 C   0  0  1  0  0  3  0  0  0  0  0  0
  190.7570  177.7390  142.2970 N   0  0  0  0  0  2  0  0  0  0  0  0
  191.1290  177.0320  143.5140 C   0  0  2  0  0  3  0  0  0  0  0  0
  191.0750  175.6590  143.2820 O   0  0  0  0  0  1  0  0  0  0  0  0
  190.1710  177.3870  144.6420 C   0  0  0  0  0  2  0  0  0  0  0  0
  190.7830  177.0940  145.9690 C   0  0  0  0  0  0  0  0  0  0  0  0
  192.0120  176.8320  146.0550 O   0  0  0  0  0  0  0  0  0  0  0  0
  190.0040  177.1400  147.1170 O   0  0  0  0  0  1  0  0  0  0  0  0
  184.3070  179.0090  139.4640 C   0  0  2  0  0  3  0  0  0  0  0  0
  184.3210  180.3550  138.9070 N   0  0  0  0  0  1  0  0  0  0  0  0
  185.9600  179.7250  141.0270 O   0  0  0  0  0  0  0  0  0  0  0  0
  184.9690  178.9770  140.8110 C   0  0  0  0  0  0  0  0  0  0  0  0
  184.5880  178.0650  141.8060 O   0  0  0  0  0  0  0  0  0  0  0  0
  183.2990  178.9700  145.1610 C   0  0  0  0  0  3  0  0  0  0  0  0
  185.6080  178.2930  145.3880 C   0  0  0  0  0  0  0  0  0  0  0  0
  187.0140  178.0050  146.3930 Cl  0  0  0  0  0  0  0  0  0  0  0  0
  183.3600  178.7500  143.7740 C   0  0  0  0  0  0  0  0  0  0  0  0
  184.4180  178.7420  145.9640 C   0  0  0  0  0  3  0  0  0  0  0  0
  185.6740  178.0680  144.0120 C   0  0  0  0  0  3  0  0  0  0  0  0
  184.5570  178.3000  143.1920 C   0  0  0  0  0  0  0  0  0  0  0  0
  182.2460  178.9760  142.9570 O   0  0  0  0  0  0  0  0  0  0  0  0
  180.9130  178.9560  143.4530 C   0  0  0  0  0  1  0  0  0  0  0  0
  1 26  1  0  0  0  0
  3  4  2  0  0  0  0
  4  1  1  0  0  0  0
  5  9  1  0  0  0  0
  6  2  2  0  0  0  0
  6  8  1  0  0  0  0
  7  2  1  1  0  0  0
  7  5  1  0  0  0  0
  7  3  1  0  0  0  0
  8  5  2  0  0  0  0
  9  1  2  0  0  0  0
 10 11  1  0  0  0  0
 11 12  1  0  0  0  0
 12  3  1  0  0  0  0
 12 14  1  0  0  0  0
 13 11  2  0  0  0  0
 15 18  1  0  0  0  0
 16 18  1  0  0  0  0
 17 14  1  6  0  0  0
 17 16  1  0  0  0  0
 17 15  1  0  0  0  0
 18 19  1  1  0  0  0
 19 20  1  0  0  0  0
 20 21  1  6  0  0  0
 20 22  1  0  0  0  0
 22 23  1  0  0  0  0
 23 24  2  0  0  0  0
 23 25  1  0  0  0  0
 26 27  1  6  0  0  0
 26 29  1  0  0  0  0
 29 28  2  0  0  0  0
 29 30  1  0  0  0  0
 30 37  1  0  0  0  0
 31 35  1  0  0  0  0
 32 35  2  0  0  0  0
 32 33  1  0  0  0  0
 34 31  2  0  0  0  0
 36 32  1  0  0  0  0
 37 34  1  0  0  0  0
 37 36  2  0  0  0  0
 38 39  1  0  0  0  0
 38 34  1  0  0  0  0
M  END
>  <MODEL>
2

>  <REMARK>
 VINA RESULT:      -8.4      2.969      6.341
  Name = 
  12 active torsions:
  status: ('A' for Active; 'I' for Inactive)
    1  A    between atoms: C_2  and  C_11
    2  A    between atoms: O_5  and  C_19
    3  A    between atoms: O_8  and  C_30
    4  A    between atoms: O_8  and  C_36
    5  A    between atoms: C_11  and  C_36
    6  A    between atoms: C_13  and  N_27
    7  A    between atoms: C_14  and  C_38
    8  A    between atoms: C_17  and  C_33
    9  A    between atoms: C_20  and  N_26
   10  A    between atoms: C_20  and  C_38
   11  A    between atoms: N_26  and  C_31
   12  A    between atoms: N_27  and  C_33
                            x       y       z     vdW  Elec       q    Type
                         _______ _______ _______ _____ _____    ______ ____

>  <TORSDO>
F 12

$$$$
=
 OpenBabel11062417463D

 39 42  0  0  1  0  0  0  0  0999 V2000
  188.6560  178.1050  141.7100 C   0  0  0  0  0  0  0  0  0  0  0  0
  186.1060  178.3760  138.4410 N   0  0  0  0  0  0  0  0  0  0  0  0
  188.4260  177.8250  139.2860 C   0  0  0  0  0  0  0  0  0  0  0  0
  189.2080  177.7630  140.4570 C   0  0  0  0  0  3  0  0  0  0  0  0
  186.5930  178.5570  140.6710 C   0  0  0  0  0  0  0  0  0  0  0  0
  184.8670  178.8190  139.0820 C   0  0  0  0  0  3  0  0  0  0  0  0
  187.0920  178.2430  139.4430 C   0  0  0  0  0  0  0  0  0  0  0  0
  185.1680  178.9470  140.5900 C   0  0  0  0  0  3  0  0  0  0  0  0
  187.3500  178.4880  141.7940 N   0  0  0  0  0  2  0  0  0  0  0  0
  189.1710  178.0680  135.5740 N   0  0  0  0  0  1  0  0  0  0  0  0
  189.0690  178.4820  136.9330 C   0  0  0  0  0  0  0  0  0  0  0  0
  188.9980  177.5040  137.9930 N   0  0  0  0  0  0  0  0  0  0  0  0
  189.0640  179.7140  137.1940 O   0  0  0  0  0  0  0  0  0  0  0  0
  189.3330  176.1110  137.6840 C   0  0  0  0  0  2  0  0  0  0  0  0
  191.3090  174.5670  137.5410 C   0  0  0  0  0  2  0  0  0  0  0  0
  191.7530  176.6400  137.8380 C   0  0  0  0  0  2  0  0  0  0  0  0
  190.6620  175.7010  138.3140 C   0  0  1  0  0  3  0  0  0  0  0  0
  192.3980  175.5100  137.0600 C   0  0  1  0  0  3  0  0  0  0  0  0
  193.6670  175.1580  137.6780 N   0  0  0  0  0  2  0  0  0  0  0  0
  194.6840  175.1940  136.6370 C   0  0  2  0  0  3  0  0  0  0  0  0
  194.0850  174.9490  135.4030 O   0  0  0  0  0  1  0  0  0  0  0  0
  195.7420  174.1310  136.8990 C   0  0  0  0  0  2  0  0  0  0  0  0
  197.1010  174.7410  136.9620 C   0  0  0  0  0  0  0  0  0  0  0  0
  198.0480  174.1190  137.5120 O   0  0  0  0  0  1  0  0  0  0  0  0
  197.3300  175.9830  136.3870 O   0  0  0  0  0  0  0  0  0  0  0  0
  189.4620  177.9900  142.9640 C   0  0  2  0  0  3  0  0  0  0  0  0
  190.8900  178.0640  142.6850 N   0  0  0  0  0  1  0  0  0  0  0  0
  189.1640  175.6290  143.1050 O   0  0  0  0  0  0  0  0  0  0  0  0
  189.1240  176.7320  143.7100 C   0  0  0  0  0  0  0  0  0  0  0  0
  188.6620  176.7530  145.0350 O   0  0  0  0  0  0  0  0  0  0  0  0
  186.3520  178.5050  147.3430 C   0  0  0  0  0  3  0  0  0  0  0  0
  185.2880  178.3410  145.1790 C   0  0  0  0  0  0  0  0  0  0  0  0
  183.9210  178.6580  144.1310 Cl  0  0  0  0  0  0  0  0  0  0  0  0
  187.4820  177.8300  146.8510 C   0  0  0  0  0  0  0  0  0  0  0  0
  185.2600  178.7590  146.5110 C   0  0  0  0  0  3  0  0  0  0  0  0
  186.4090  177.6740  144.6820 C   0  0  0  0  0  3  0  0  0  0  0  0
  187.5120  177.4060  145.5120 C   0  0  0  0  0  0  0  0  0  0  0  0
  188.5820  177.5680  147.6760 O   0  0  0  0  0  0  0  0  0  0  0  0
  188.9000  178.3650  148.8100 C   0  0  0  0  0  1  0  0  0  0  0  0
  1  9  1  0  0  0  0
  1 26  1  0  0  0  0
  2  6  2  0  0  0  0
  2  7  1  0  0  0  0
  3  7  2  0  0  0  0
  3  4  1  0  0  0  0
  4  1  2  0  0  0  0
  5  9  1  0  0  0  0
  6  8  1  0  0  0  0
  7  5  1  0  0  0  0
  8  5  2  0  0  0  0
 10 11  1  0  0  0  0
 11 13  2  0  0  0  0
 11 12  1  0  0  0  0
 12  3  1  0  0  0  0
 14 12  1  0  0  0  0
 15 17  1  0  0  0  0
 16 17  1  0  0  0  0
 17 14  1  6  0  0  0
 18 15  1  0  0  0  0
 18 19  1  1  0  0  0
 18 16  1  0  0  0  0
 20 21  1  6  0  0  0
 20 22  1  0  0  0  0
 20 19  1  0  0  0  0
 22 23  1  0  0  0  0
 23 24  1  0  0  0  0
 25 23  2  0  0  0  0
 26 27  1  6  0  0  0
 26 29  1  0  0  0  0
 28 29  2  0  0  0  0
 29 30  1  0  0  0  0
 30 37  1  0  0  0  0
 32 35  1  0  0  0  0
 33 32  1  0  0  0  0
 34 31  1  0  0  0  0
 34 38  1  0  0  0  0
 35 31  2  0  0  0  0
 36 32  2  0  0  0  0
 36 37  1  0  0  0  0
 37 34  2  0  0  0  0
 38 39  1  0  0  0  0
M  END
>  <MODEL>
3

>  <REMARK>
 VINA RESULT:      -8.3      1.728      2.091
  Name = 
  12 active torsions:
  status: ('A' for Active; 'I' for Inactive)
    1  A    between atoms: C_2  and  C_11
    2  A    between atoms: O_5  and  C_19
    3  A    between atoms: O_8  and  C_30
    4  A    between atoms: O_8  and  C_36
    5  A    between atoms: C_11  and  C_36
    6  A    between atoms: C_13  and  N_27
    7  A    between atoms: C_14  and  C_38
    8  A    between atoms: C_17  and  C_33
    9  A    between atoms: C_20  and  N_26
   10  A    between atoms: C_20  and  C_38
   11  A    between atoms: N_26  and  C_31
   12  A    between atoms: N_27  and  C_33
                            x       y       z     vdW  Elec       q    Type
                         _______ _______ _______ _____ _____    ______ ____

>  <TORSDO>
F 12

$$$$
=
 OpenBabel11062417463D

 39 42  0  0  1  0  0  0  0  0999 V2000
  189.8090  176.8990  140.3460 C   0  0  0  0  0  0  0  0  0  0  0  0
  191.9580  176.2970  136.8410 N   0  0  0  0  0  0  0  0  0  0  0  0
  189.6850  176.4170  137.9460 C   0  0  0  0  0  0  0  0  0  0  0  0
  189.0510  176.6390  139.1850 C   0  0  0  0  0  3  0  0  0  0  0  0
  191.7880  176.7310  139.0830 C   0  0  0  0  0  0  0  0  0  0  0  0
  193.3320  176.4580  137.3180 C   0  0  0  0  0  3  0  0  0  0  0  0
  191.0910  176.4680  137.9420 C   0  0  0  0  0  0  0  0  0  0  0  0
  193.2460  176.7550  138.8290 C   0  0  0  0  0  3  0  0  0  0  0  0
  191.1700  176.9500  140.2700 N   0  0  0  0  0  2  0  0  0  0  0  0
  188.4290  174.5210  134.9090 N   0  0  0  0  0  1  0  0  0  0  0  0
  188.7560  174.7670  136.2740 C   0  0  0  0  0  0  0  0  0  0  0  0
  188.9100  176.1190  136.7560 N   0  0  0  0  0  0  0  0  0  0  0  0
  188.8870  173.7870  137.0540 O   0  0  0  0  0  0  0  0  0  0  0  0
  188.4360  177.2210  135.9160 C   0  0  0  0  0  2  0  0  0  0  0  0
  186.3820  176.6870  137.2600 C   0  0  0  0  0  2  0  0  0  0  0  0
  186.6490  178.7420  136.7220 C   0  0  0  0  0  2  0  0  0  0  0  0
  186.9270  177.4160  136.0450 C   0  0  1  0  0  3  0  0  0  0  0  0
  186.1080  178.0180  137.9400 C   0  0  1  0  0  3  0  0  0  0  0  0
  184.6750  178.2390  138.0400 N   0  0  0  0  0  2  0  0  0  0  0  0
  184.4310  178.9740  139.2720 C   0  0  2  0  0  3  0  0  0  0  0  0
  184.4590  180.3410  139.0040 O   0  0  0  0  0  1  0  0  0  0  0  0
  185.5040  178.6450  140.3010 C   0  0  0  0  0  2  0  0  0  0  0  0
  184.9090  178.5060  141.6610 C   0  0  0  0  0  0  0  0  0  0  0  0
  183.6620  178.5950  141.8180 O   0  0  0  0  0  0  0  0  0  0  0  0
  185.7270  178.2470  142.7520 O   0  0  0  0  0  1  0  0  0  0  0  0
  189.1430  177.1880  141.6530 C   0  0  2  0  0  3  0  0  0  0  0  0
  188.9510  178.6190  141.8450 N   0  0  0  0  0  1  0  0  0  0  0  0
  190.1710  175.3580  142.7850 O   0  0  0  0  0  0  0  0  0  0  0  0
  189.9130  176.5910  142.7950 C   0  0  0  0  0  0  0  0  0  0  0  0
  190.2650  177.3400  143.9280 O   0  0  0  0  0  0  0  0  0  0  0  0
  189.5860  177.2970  147.5710 C   0  0  0  0  0  3  0  0  0  0  0  0
  187.5160  177.7630  146.4150 C   0  0  0  0  0  0  0  0  0  0  0  0
  185.7980  178.1070  146.4550 Cl  0  0  0  0  0  0  0  0  0  0  0  0
  190.2660  177.2140  146.3430 C   0  0  0  0  0  0  0  0  0  0  0  0
  188.2180  177.5700  147.6060 C   0  0  0  0  0  3  0  0  0  0  0  0
  188.1850  177.6860  145.1920 C   0  0  0  0  0  3  0  0  0  0  0  0
  189.5600  177.4050  145.1430 C   0  0  0  0  0  0  0  0  0  0  0  0
  191.6370  176.9380  146.2940 O   0  0  0  0  0  0  0  0  0  0  0  0
  192.2180  175.8130  146.9410 C   0  0  0  0  0  1  0  0  0  0  0  0
  1 26  1  0  0  0  0
  2  6  2  0  0  0  0
  2  7  1  0  0  0  0
  3  4  1  0  0  0  0
  4  1  2  0  0  0  0
  5  9  1  0  0  0  0
  6  8  1  0  0  0  0
  7  3  2  0  0  0  0
  7  5  1  0  0  0  0
  8  5  2  0  0  0  0
  9  1  1  0  0  0  0
 10 11  1  0  0  0  0
 11 12  1  0  0  0  0
 11 13  2  0  0  0  0
 12  3  1  0  0  0  0
 14 12  1  0  0  0  0
 15 18  1  0  0  0  0
 16 18  1  0  0  0  0
 17 14  1  1  0  0  0
 17 16  1  0  0  0  0
 17 15  1  0  0  0  0
 18 19  1  6  0  0  0
 19 20  1  0  0  0  0
 20 21  1  6  0  0  0
 20 22  1  0  0  0  0
 22 23  1  0  0  0  0
 23 24  2  0  0  0  0
 23 25  1  0  0  0  0
 26 27  1  1  0  0  0
 26 29  1  0  0  0  0
 28 29  2  0  0  0  0
 29 30  1  0  0  0  0
 30 37  1  0  0  0  0
 31 35  1  0  0  0  0
 32 33  1  0  0  0  0
 32 35  2  0  0  0  0
 34 31  2  0  0  0  0
 36 32  1  0  0  0  0
 37 36  2  0  0  0  0
 37 34  1  0  0  0  0
 38 34  1  0  0  0  0
 38 39  1  0  0  0  0
M  END
>  <MODEL>
4

>  <REMARK>
 VINA RESULT:      -8.2      2.472      5.852
  Name = 
  12 active torsions:
  status: ('A' for Active; 'I' for Inactive)
    1  A    between atoms: C_2  and  C_11
    2  A    between atoms: O_5  and  C_19
    3  A    between atoms: O_8  and  C_30
    4  A    between atoms: O_8  and  C_36
    5  A    between atoms: C_11  and  C_36
    6  A    between atoms: C_13  and  N_27
    7  A    between atoms: C_14  and  C_38
    8  A    between atoms: C_17  and  C_33
    9  A    between atoms: C_20  and  N_26
   10  A    between atoms: C_20  and  C_38
   11  A    between atoms: N_26  and  C_31
   12  A    between atoms: N_27  and  C_33
                            x       y       z     vdW  Elec       q    Type
                         _______ _______ _______ _____ _____    ______ ____

>  <TORSDO>
F 12

$$$$
=
 OpenBabel11062417463D

 39 42  0  0  1  0  0  0  0  0999 V2000
  186.5800  178.6350  141.6880 C   0  0  0  0  0  0  0  0  0  0  0  0
  182.4420  178.7580  142.0410 N   0  0  0  0  0  0  0  0  0  0  0  0
  184.4370  178.5460  140.5010 C   0  0  0  0  0  0  0  0  0  0  0  0
  185.8460  178.5120  140.4890 C   0  0  0  0  0  3  0  0  0  0  0  0
  184.5660  178.8130  142.8940 C   0  0  0  0  0  0  0  0  0  0  0  0
  182.2840  178.9150  143.4880 C   0  0  0  0  0  3  0  0  0  0  0  0
  183.8240  178.7070  141.7560 C   0  0  0  0  0  0  0  0  0  0  0  0
  183.7040  178.9530  144.0890 C   0  0  0  0  0  3  0  0  0  0  0  0
  185.9220  178.7740  142.8740 N   0  0  0  0  0  2  0  0  0  0  0  0
  181.9330  179.4380  137.7940 N   0  0  0  0  0  1  0  0  0  0  0  0
  183.0290  179.6030  138.6900 C   0  0  0  0  0  0  0  0  0  0  0  0
  183.6810  178.4510  139.2670 N   0  0  0  0  0  0  0  0  0  0  0  0
  183.4300  180.7670  138.9520 O   0  0  0  0  0  0  0  0  0  0  0  0
  183.4070  177.1310  138.6950 C   0  0  0  0  0  2  0  0  0  0  0  0
  185.3800  177.6200  137.2190 C   0  0  0  0  0  2  0  0  0  0  0  0
  184.6230  175.6190  137.1480 C   0  0  0  0  0  2  0  0  0  0  0  0
  184.0000  176.9920  137.2940 C   0  0  1  0  0  3  0  0  0  0  0  0
  186.0040  176.2420  137.0770 C   0  0  1  0  0  3  0  0  0  0  0  0
  186.5430  176.0760  135.7370 N   0  0  0  0  0  2  0  0  0  0  0  0
  187.9210  175.6260  135.8740 C   0  0  2  0  0  3  0  0  0  0  0  0
  187.9590  174.2360  135.7910 O   0  0  0  0  0  1  0  0  0  0  0  0
  188.4850  176.0620  137.2180 C   0  0  0  0  0  2  0  0  0  0  0  0
  189.4920  177.1480  137.0430 C   0  0  0  0  0  0  0  0  0  0  0  0
  190.6620  177.0020  137.4860 O   0  0  0  0  0  1  0  0  0  0  0  0
  189.1480  178.3090  136.3650 O   0  0  0  0  0  0  0  0  0  0  0  0
  188.0720  178.5470  141.6910 C   0  0  2  0  0  3  0  0  0  0  0  0
  188.5900  178.2640  140.3590 N   0  0  0  0  0  1  0  0  0  0  0  0
  188.2460  176.3150  142.5130 O   0  0  0  0  0  0  0  0  0  0  0  0
  188.5510  177.5250  142.6810 C   0  0  0  0  0  0  0  0  0  0  0  0
  189.2400  177.8860  143.8490 O   0  0  0  0  0  0  0  0  0  0  0  0
  189.2390  177.2160  147.4940 C   0  0  0  0  0  3  0  0  0  0  0  0
  187.0300  177.9590  146.8540 C   0  0  0  0  0  0  0  0  0  0  0  0
  185.3780  178.3540  147.2820 Cl  0  0  0  0  0  0  0  0  0  0  0  0
  189.6750  177.3290  146.1620 C   0  0  0  0  0  0  0  0  0  0  0  0
  187.9230  177.5300  147.8380 C   0  0  0  0  0  3  0  0  0  0  0  0
  187.4570  178.0770  145.5300 C   0  0  0  0  0  3  0  0  0  0  0  0
  188.7770  177.7580  145.1700 C   0  0  0  0  0  0  0  0  0  0  0  0
  190.9910  177.0150  145.8040 O   0  0  0  0  0  0  0  0  0  0  0  0
  191.8470  176.2360  146.6300 C   0  0  0  0  0  1  0  0  0  0  0  0
  1 26  1  0  0  0  0
  1  9  1  0  0  0  0
  2  6  2  0  0  0  0
  3  7  2  0  0  0  0
  4  3  1  0  0  0  0
  4  1  2  0  0  0  0
  5  8  2  0  0  0  0
  6  8  1  0  0  0  0
  7  2  1  0  0  0  0
  7  5  1  0  0  0  0
  9  5  1  0  0  0  0
 10 11  1  0  0  0  0
 11 13  2  0  0  0  0
 11 12  1  0  0  0  0
 12  3  1  0  0  0  0
 14 12  1  0  0  0  0
 15 17  1  0  0  0  0
 16 17  1  0  0  0  0
 17 14  1  1  0  0  0
 18 19  1  6  0  0  0
 18 16  1  0  0  0  0
 18 15  1  0  0  0  0
 19 20  1  0  0  0  0
 20 21  1  1  0  0  0
 20 22  1  0  0  0  0
 23 22  1  0  0  0  0
 23 24  1  0  0  0  0
 25 23  2  0  0  0  0
 26 27  1  6  0  0  0
 26 29  1  0  0  0  0
 28 29  2  0  0  0  0
 29 30  1  0  0  0  0
 30 37  1  0  0  0  0
 31 35  1  0  0  0  0
 32 33  1  0  0  0  0
 32 35  2  0  0  0  0
 34 31  2  0  0  0  0
 36 32  1  0  0  0  0
 37 36  2  0  0  0  0
 37 34  1  0  0  0  0
 38 34  1  0  0  0  0
 38 39  1  0  0  0  0
M  END
>  <MODEL>
5

>  <REMARK>
 VINA RESULT:      -8.1      2.964      4.414
  Name = 
  12 active torsions:
  status: ('A' for Active; 'I' for Inactive)
    1  A    between atoms: C_2  and  C_11
    2  A    between atoms: O_5  and  C_19
    3  A    between atoms: O_8  and  C_30
    4  A    between atoms: O_8  and  C_36
    5  A    between atoms: C_11  and  C_36
    6  A    between atoms: C_13  and  N_27
    7  A    between atoms: C_14  and  C_38
    8  A    between atoms: C_17  and  C_33
    9  A    between atoms: C_20  and  N_26
   10  A    between atoms: C_20  and  C_38
   11  A    between atoms: N_26  and  C_31
   12  A    between atoms: N_27  and  C_33
                            x       y       z     vdW  Elec       q    Type
                         _______ _______ _______ _____ _____    ______ ____

>  <TORSDO>
F 12

$$$$
=
 OpenBabel11062417463D

 39 42  0  0  1  0  0  0  0  0999 V2000
  189.6640  177.8730  141.5190 C   0  0  0  0  0  0  0  0  0  0  0  0
  186.1090  178.5310  139.4730 N   0  0  0  0  0  0  0  0  0  0  0  0
  188.5210  177.7800  139.3530 C   0  0  0  0  0  0  0  0  0  0  0  0
  189.6760  177.5860  140.1370 C   0  0  0  0  0  3  0  0  0  0  0  0
  187.4090  178.5240  141.3580 C   0  0  0  0  0  0  0  0  0  0  0  0
  185.2420  179.0030  140.5540 C   0  0  0  0  0  3  0  0  0  0  0  0
  187.3830  178.2670  140.0200 C   0  0  0  0  0  0  0  0  0  0  0  0
  186.0940  179.0050  141.8390 C   0  0  0  0  0  3  0  0  0  0  0  0
  188.5220  178.3290  142.1070 N   0  0  0  0  0  2  0  0  0  0  0  0
  188.1150  178.3720  135.6270 N   0  0  0  0  0  1  0  0  0  0  0  0
  188.5710  178.5880  136.9600 C   0  0  0  0  0  0  0  0  0  0  0  0
  188.5380  177.5160  137.9270 N   0  0  0  0  0  0  0  0  0  0  0  0
  189.0200  179.7220  137.2720 O   0  0  0  0  0  0  0  0  0  0  0  0
  188.3220  176.1480  137.4490 C   0  0  0  0  0  2  0  0  0  0  0  0
  186.9540  174.6600  135.9570 C   0  0  0  0  0  2  0  0  0  0  0  0
  185.8570  176.0200  137.1940 C   0  0  0  0  0  2  0  0  0  0  0  0
  187.1730  176.0800  136.4450 C   0  0  1  0  0  3  0  0  0  0  0  0
  185.6380  174.5990  136.7130 C   0  0  1  0  0  3  0  0  0  0  0  0
  184.5270  174.5700  135.7740 N   0  0  0  0  0  2  0  0  0  0  0  0
  183.4670  173.7750  136.3760 C   0  0  2  0  0  3  0  0  0  0  0  0
  182.8220  174.5340  137.3510 O   0  0  0  0  0  1  0  0  0  0  0  0
  184.0500  172.5250  137.0200 C   0  0  0  0  0  2  0  0  0  0  0  0
  183.1370  171.3600  136.8360 C   0  0  0  0  0  0  0  0  0  0  0  0
  183.4500  170.4310  136.0450 O   0  0  0  0  0  0  0  0  0  0  0  0
  181.9550  171.2850  137.5590 O   0  0  0  0  0  1  0  0  0  0  0  0
  190.8690  177.6200  142.3680 C   0  0  2  0  0  3  0  0  0  0  0  0
  192.0570  177.4030  141.5540 N   0  0  0  0  0  1  0  0  0  0  0  0
  190.1510  175.3970  142.8490 O   0  0  0  0  0  0  0  0  0  0  0  0
  190.6390  176.4670  143.3010 C   0  0  0  0  0  0  0  0  0  0  0  0
  190.8510  176.5740  144.6840 O   0  0  0  0  0  0  0  0  0  0  0  0
  189.4240  177.5910  147.9490 C   0  0  0  0  0  3  0  0  0  0  0  0
  187.6610  177.6420  146.2970 C   0  0  0  0  0  0  0  0  0  0  0  0
  185.9880  177.9390  145.8700 Cl  0  0  0  0  0  0  0  0  0  0  0  0
  190.3420  177.1660  146.9730 C   0  0  0  0  0  0  0  0  0  0  0  0
  188.0900  177.8270  147.6130 C   0  0  0  0  0  3  0  0  0  0  0  0
  188.5680  177.2240  145.3210 C   0  0  0  0  0  3  0  0  0  0  0  0
  189.9110  176.9760  145.6490 C   0  0  0  0  0  0  0  0  0  0  0  0
  191.6810  176.9230  147.2980 O   0  0  0  0  0  0  0  0  0  0  0  0
  192.1750  175.6250  147.6030 C   0  0  0  0  0  1  0  0  0  0  0  0
  1  9  1  0  0  0  0
  1 26  1  0  0  0  0
  2  7  1  0  0  0  0
  2  6  2  0  0  0  0
  3  7  2  0  0  0  0
  3  4  1  0  0  0  0
  4  1  2  0  0  0  0
  5  8  2  0  0  0  0
  5  9  1  0  0  0  0
  6  8  1  0  0  0  0
  7  5  1  0  0  0  0
 10 11  1  0  0  0  0
 11 13  2  0  0  0  0
 11 12  1  0  0  0  0
 12  3  1  0  0  0  0
 14 12  1  0  0  0  0
 15 17  1  0  0  0  0
 15 18  1  0  0  0  0
 17 16  1  0  0  0  0
 17 14  1  1  0  0  0
 18 19  1  6  0  0  0
 18 16  1  0  0  0  0
 19 20  1  0  0  0  0
 20 22  1  0  0  0  0
 20 21  1  1  0  0  0
 23 22  1  0  0  0  0
 23 25  1  0  0  0  0
 24 23  2  0  0  0  0
 26 27  1  6  0  0  0
 26 29  1  0  0  0  0
 28 29  2  0  0  0  0
 29 30  1  0  0  0  0
 30 37  1  0  0  0  0
 32 35  2  0  0  0  0
 33 32  1  0  0  0  0
 34 38  1  0  0  0  0
 34 31  2  0  0  0  0
 35 31  1  0  0  0  0
 36 37  2  0  0  0  0
 36 32  1  0  0  0  0
 37 34  1  0  0  0  0
 38 39  1  0  0  0  0
M  END
>  <MODEL>
6

>  <REMARK>
 VINA RESULT:      -7.9      3.328      5.226
  Name = 
  12 active torsions:
  status: ('A' for Active; 'I' for Inactive)
    1  A    between atoms: C_2  and  C_11
    2  A    between atoms: O_5  and  C_19
    3  A    between atoms: O_8  and  C_30
    4  A    between atoms: O_8  and  C_36
    5  A    between atoms: C_11  and  C_36
    6  A    between atoms: C_13  and  N_27
    7  A    between atoms: C_14  and  C_38
    8  A    between atoms: C_17  and  C_33
    9  A    between atoms: C_20  and  N_26
   10  A    between atoms: C_20  and  C_38
   11  A    between atoms: N_26  and  C_31
   12  A    between atoms: N_27  and  C_33
                            x       y       z     vdW  Elec       q    Type
                         _______ _______ _______ _____ _____    ______ ____

>  <TORSDO>
F 12

$$$$
=
 OpenBabel11062417463D

 39 42  0  0  1  0  0  0  0  0999 V2000
  189.6560  177.9260  141.5740 C   0  0  0  0  0  0  0  0  0  0  0  0
  186.1250  178.4780  139.4550 N   0  0  0  0  0  0  0  0  0  0  0  0
  188.5480  177.7550  139.3940 C   0  0  0  0  0  0  0  0  0  0  0  0
  189.6930  177.5990  140.2010 C   0  0  0  0  0  3  0  0  0  0  0  0
  187.3950  178.5430  141.3590 C   0  0  0  0  0  0  0  0  0  0  0  0
  185.2350  178.9700  140.5080 C   0  0  0  0  0  3  0  0  0  0  0  0
  187.3940  178.2470  140.0300 C   0  0  0  0  0  0  0  0  0  0  0  0
  186.0670  179.0210  141.8060 C   0  0  0  0  0  3  0  0  0  0  0  0
  188.4990  178.3840  142.1310 N   0  0  0  0  0  2  0  0  0  0  0  0
  188.1780  178.2260  135.6480 N   0  0  0  0  0  1  0  0  0  0  0  0
  188.6100  178.4930  136.9790 C   0  0  0  0  0  0  0  0  0  0  0  0
  188.5910  177.4500  137.9770 N   0  0  0  0  0  0  0  0  0  0  0  0
  189.0270  179.6470  137.2630 O   0  0  0  0  0  0  0  0  0  0  0  0
  188.4150  176.0630  137.5370 C   0  0  0  0  0  2  0  0  0  0  0  0
  189.5560  173.8640  137.1190 C   0  0  0  0  0  2  0  0  0  0  0  0
  190.6800  175.6180  136.6250 C   0  0  0  0  0  2  0  0  0  0  0  0
  189.6970  175.2520  137.7180 C   0  0  1  0  0  3  0  0  0  0  0  0
  190.5380  174.2350  136.0210 C   0  0  1  0  0  3  0  0  0  0  0  0
  191.7800  173.4990  136.1960 N   0  0  0  0  0  2  0  0  0  0  0  0
  192.0740  172.8320  134.9360 C   0  0  2  0  0  3  0  0  0  0  0  0
  191.2220  171.7410  134.7840 O   0  0  0  0  0  1  0  0  0  0  0  0
  193.5160  172.3460  134.9230 C   0  0  0  0  0  2  0  0  0  0  0  0
  193.6130  170.9590  135.4620 C   0  0  0  0  0  0  0  0  0  0  0  0
  193.3520  169.9730  134.7230 O   0  0  0  0  0  0  0  0  0  0  0  0
  194.0180  170.7530  136.7740 O   0  0  0  0  0  1  0  0  0  0  0  0
  190.8500  177.7140  142.4490 C   0  0  2  0  0  3  0  0  0  0  0  0
  192.0570  177.5090  141.6590 N   0  0  0  0  0  1  0  0  0  0  0  0
  190.1380  175.4960  142.9610 O   0  0  0  0  0  0  0  0  0  0  0  0
  190.6280  176.5720  143.3970 C   0  0  0  0  0  0  0  0  0  0  0  0
  190.8490  176.6960  144.7770 O   0  0  0  0  0  0  0  0  0  0  0  0
  189.4030  177.6130  148.0640 C   0  0  0  0  0  3  0  0  0  0  0  0
  187.6490  177.7090  146.4050 C   0  0  0  0  0  0  0  0  0  0  0  0
  185.9770  178.0150  145.9790 Cl  0  0  0  0  0  0  0  0  0  0  0  0
  190.3270  177.2190  147.0800 C   0  0  0  0  0  0  0  0  0  0  0  0
  188.0700  177.8560  147.7280 C   0  0  0  0  0  3  0  0  0  0  0  0
  188.5610  177.3220  145.4220 C   0  0  0  0  0  3  0  0  0  0  0  0
  189.9040  177.0680  145.7480 C   0  0  0  0  0  0  0  0  0  0  0  0
  191.6650  176.9700  147.4050 O   0  0  0  0  0  0  0  0  0  0  0  0
  192.1830  175.6570  147.5760 C   0  0  0  0  0  1  0  0  0  0  0  0
  1  9  1  0  0  0  0
  1 26  1  0  0  0  0
  2  7  1  0  0  0  0
  2  6  2  0  0  0  0
  3  7  2  0  0  0  0
  3  4  1  0  0  0  0
  4  1  2  0  0  0  0
  5  8  2  0  0  0  0
  5  9  1  0  0  0  0
  6  8  1  0  0  0  0
  7  5  1  0  0  0  0
 10 11  1  0  0  0  0
 11 13  2  0  0  0  0
 11 12  1  0  0  0  0
 12  3  1  0  0  0  0
 14 12  1  0  0  0  0
 15 17  1  0  0  0  0
 16 17  1  0  0  0  0
 17 14  1  6  0  0  0
 18 19  1  1  0  0  0
 18 16  1  0  0  0  0
 18 15  1  0  0  0  0
 20 21  1  1  0  0  0
 20 19  1  0  0  0  0
 22 20  1  0  0  0  0
 22 23  1  0  0  0  0
 23 25  1  0  0  0  0
 24 23  2  0  0  0  0
 26 27  1  6  0  0  0
 26 29  1  0  0  0  0
 28 29  2  0  0  0  0
 29 30  1  0  0  0  0
 30 37  1  0  0  0  0
 32 35  2  0  0  0  0
 33 32  1  0  0  0  0
 34 38  1  0  0  0  0
 34 31  2  0  0  0  0
 35 31  1  0  0  0  0
 36 37  2  0  0  0  0
 36 32  1  0  0  0  0
 37 34  1  0  0  0  0
 38 39  1  0  0  0  0
M  END
>  <MODEL>
7

>  <REMARK>
 VINA RESULT:      -7.9      1.850      2.076
  Name = 
  12 active torsions:
  status: ('A' for Active; 'I' for Inactive)
    1  A    between atoms: C_2  and  C_11
    2  A    between atoms: O_5  and  C_19
    3  A    between atoms: O_8  and  C_30
    4  A    between atoms: O_8  and  C_36
    5  A    between atoms: C_11  and  C_36
    6  A    between atoms: C_13  and  N_27
    7  A    between atoms: C_14  and  C_38
    8  A    between atoms: C_17  and  C_33
    9  A    between atoms: C_20  and  N_26
   10  A    between atoms: C_20  and  C_38
   11  A    between atoms: N_26  and  C_31
   12  A    between atoms: N_27  and  C_33
                            x       y       z     vdW  Elec       q    Type
                         _______ _______ _______ _____ _____    ______ ____

>  <TORSDO>
F 12

$$$$
=
 OpenBabel11062417463D

 39 42  0  0  1  0  0  0  0  0999 V2000
  186.2630  178.7220  141.8760 C   0  0  0  0  0  0  0  0  0  0  0  0
  182.1250  178.7780  142.2420 N   0  0  0  0  0  0  0  0  0  0  0  0
  184.1190  178.6130  140.6940 C   0  0  0  0  0  0  0  0  0  0  0  0
  185.5290  178.6020  140.6780 C   0  0  0  0  0  3  0  0  0  0  0  0
  184.2510  178.8570  143.0890 C   0  0  0  0  0  0  0  0  0  0  0  0
  181.9690  178.9180  143.6910 C   0  0  0  0  0  3  0  0  0  0  0  0
  183.5070  178.7520  141.9530 C   0  0  0  0  0  0  0  0  0  0  0  0
  183.3910  178.9710  144.2880 C   0  0  0  0  0  3  0  0  0  0  0  0
  185.6070  178.8380  143.0660 N   0  0  0  0  0  2  0  0  0  0  0  0
  182.5930  177.0950  137.5700 N   0  0  0  0  0  1  0  0  0  0  0  0
  182.8960  177.2510  138.9540 C   0  0  0  0  0  0  0  0  0  0  0  0
  183.3610  178.5210  139.4610 N   0  0  0  0  0  0  0  0  0  0  0  0
  182.7310  176.2710  139.7270 O   0  0  0  0  0  0  0  0  0  0  0  0
  183.2290  179.7060  138.6110 C   0  0  0  0  0  2  0  0  0  0  0  0
  181.9640  181.8620  138.3560 C   0  0  0  0  0  2  0  0  0  0  0  0
  180.9270  180.0850  137.7640 C   0  0  0  0  0  2  0  0  0  0  0  0
  181.9100  180.4330  138.8640 C   0  0  1  0  0  3  0  0  0  0  0  0
  180.9830  181.5110  137.2510 C   0  0  1  0  0  3  0  0  0  0  0  0
  179.7070  182.1650  137.4930 N   0  0  0  0  0  2  0  0  0  0  0  0
  179.1950  182.6120  136.2060 C   0  0  2  0  0  3  0  0  0  0  0  0
  180.1350  182.3330  135.2160 O   0  0  0  0  0  1  0  0  0  0  0  0
  178.9310  184.1110  136.2370 C   0  0  0  0  0  2  0  0  0  0  0  0
  180.0730  184.8370  136.8630 C   0  0  0  0  0  0  0  0  0  0  0  0
  181.1360  185.0250  136.2130 O   0  0  0  0  0  0  0  0  0  0  0  0
  179.9560  185.3320  138.1540 O   0  0  0  0  0  1  0  0  0  0  0  0
  187.7570  178.6570  141.8740 C   0  0  2  0  0  3  0  0  0  0  0  0
  188.2810  178.5450  140.5190 N   0  0  0  0  0  1  0  0  0  0  0  0
  187.8650  176.3560  142.4920 O   0  0  0  0  0  0  0  0  0  0  0  0
  188.2500  177.5310  142.7350 C   0  0  0  0  0  0  0  0  0  0  0  0
  189.0450  177.7540  143.8700 O   0  0  0  0  0  0  0  0  0  0  0  0
  189.1500  177.4370  147.5610 C   0  0  0  0  0  3  0  0  0  0  0  0
  186.9070  178.0570  146.9130 C   0  0  0  0  0  0  0  0  0  0  0  0
  185.2550  178.4490  147.3450 Cl  0  0  0  0  0  0  0  0  0  0  0  0
  189.5500  177.4320  146.2130 C   0  0  0  0  0  0  0  0  0  0  0  0
  187.8350  177.7470  147.9090 C   0  0  0  0  0  3  0  0  0  0  0  0
  187.2980  178.0590  145.5730 C   0  0  0  0  0  3  0  0  0  0  0  0
  188.6170  177.7410  145.2090 C   0  0  0  0  0  0  0  0  0  0  0  0
  190.8660  177.1200  145.8520 O   0  0  0  0  0  0  0  0  0  0  0  0
  191.7450  176.3950  146.7020 C   0  0  0  0  0  1  0  0  0  0  0  0
  1  9  1  0  0  0  0
  2  6  2  0  0  0  0
  3  7  2  0  0  0  0
  4  3  1  0  0  0  0
  4  1  2  0  0  0  0
  5  8  2  0  0  0  0
  6  8  1  0  0  0  0
  7  2  1  0  0  0  0
  7  5  1  0  0  0  0
  9  5  1  0  0  0  0
 10 11  1  0  0  0  0
 11 12  1  0  0  0  0
 11 13  2  0  0  0  0
 12  3  1  0  0  0  0
 14 12  1  0  0  0  0
 15 17  1  0  0  0  0
 16 17  1  0  0  0  0
 17 14  1  6  0  0  0
 18 19  1  1  0  0  0
 18 16  1  0  0  0  0
 18 15  1  0  0  0  0
 20 21  1  6  0  0  0
 20 22  1  0  0  0  0
 20 19  1  0  0  0  0
 22 23  1  0  0  0  0
 23 25  1  0  0  0  0
 24 23  2  0  0  0  0
 26 27  1  6  0  0  0
 26  1  1  0  0  0  0
 26 29  1  0  0  0  0
 28 29  2  0  0  0  0
 29 30  1  0  0  0  0
 30 37  1  0  0  0  0
 31 35  1  0  0  0  0
 32 33  1  0  0  0  0
 32 35  2  0  0  0  0
 34 31  2  0  0  0  0
 36 32  1  0  0  0  0
 37 36  2  0  0  0  0
 37 34  1  0  0  0  0
 38 34  1  0  0  0  0
 38 39  1  0  0  0  0
M  END
>  <MODEL>
8

>  <REMARK>
 VINA RESULT:      -7.8      4.766      8.777
  Name = 
  12 active torsions:
  status: ('A' for Active; 'I' for Inactive)
    1  A    between atoms: C_2  and  C_11
    2  A    between atoms: O_5  and  C_19
    3  A    between atoms: O_8  and  C_30
    4  A    between atoms: O_8  and  C_36
    5  A    between atoms: C_11  and  C_36
    6  A    between atoms: C_13  and  N_27
    7  A    between atoms: C_14  and  C_38
    8  A    between atoms: C_17  and  C_33
    9  A    between atoms: C_20  and  N_26
   10  A    between atoms: C_20  and  C_38
   11  A    between atoms: N_26  and  C_31
   12  A    between atoms: N_27  and  C_33
                            x       y       z     vdW  Elec       q    Type
                         _______ _______ _______ _____ _____    ______ ____

>  <TORSDO>
F 12

$$$$
=
 OpenBabel11062417463D

 39 42  0  0  1  0  0  0  0  0999 V2000
  186.2230  178.7240  141.8380 C   0  0  0  0  0  0  0  0  0  0  0  0
  182.0690  178.7950  141.8260 N   0  0  0  0  0  0  0  0  0  0  0  0
  184.1950  178.6090  140.4670 C   0  0  0  0  0  0  0  0  0  0  0  0
  185.6000  178.5940  140.5780 C   0  0  0  0  0  3  0  0  0  0  0  0
  184.1090  178.8760  142.8610 C   0  0  0  0  0  0  0  0  0  0  0  0
  181.7820  178.9480  143.2520 C   0  0  0  0  0  3  0  0  0  0  0  0
  183.4710  178.7620  141.6630 C   0  0  0  0  0  0  0  0  0  0  0  0
  183.1440  179.0030  143.9760 C   0  0  0  0  0  3  0  0  0  0  0  0
  185.4620  178.8530  142.9610 N   0  0  0  0  0  2  0  0  0  0  0  0
  181.8180  179.3810  137.6120 N   0  0  0  0  0  1  0  0  0  0  0  0
  182.8150  179.6120  138.6030 C   0  0  0  0  0  0  0  0  0  0  0  0
  183.5510  178.5070  139.1710 N   0  0  0  0  0  0  0  0  0  0  0  0
  183.0570  180.7960  138.9580 O   0  0  0  0  0  0  0  0  0  0  0  0
  183.4760  177.2020  138.5090 C   0  0  0  0  0  2  0  0  0  0  0  0
  185.5590  177.8770  137.2780 C   0  0  0  0  0  2  0  0  0  0  0  0
  184.8770  175.8750  136.9480 C   0  0  0  0  0  2  0  0  0  0  0  0
  184.2000  177.2130  137.1640 C   0  0  1  0  0  3  0  0  0  0  0  0
  186.2380  176.5350  137.0670 C   0  0  1  0  0  3  0  0  0  0  0  0
  186.9020  176.5120  135.7730 N   0  0  0  0  0  2  0  0  0  0  0  0
  188.3290  176.3610  136.0190 C   0  0  2  0  0  3  0  0  0  0  0  0
  188.8750  175.5220  135.0490 O   0  0  0  0  0  1  0  0  0  0  0  0
  188.5640  175.7530  137.3940 C   0  0  0  0  0  2  0  0  0  0  0  0
  189.7700  176.3480  138.0370 C   0  0  0  0  0  0  0  0  0  0  0  0
  190.5380  175.6280  138.7300 O   0  0  0  0  0  1  0  0  0  0  0  0
  190.0650  177.6910  137.8490 O   0  0  0  0  0  0  0  0  0  0  0  0
  187.7110  178.6540  141.9720 C   0  0  2  0  0  3  0  0  0  0  0  0
  188.3670  178.8040  140.6800 N   0  0  0  0  0  1  0  0  0  0  0  0
  188.9010  176.5890  142.0360 O   0  0  0  0  0  0  0  0  0  0  0  0
  188.1330  177.3810  142.6440 C   0  0  0  0  0  0  0  0  0  0  0  0
  187.6180  176.9910  143.8900 O   0  0  0  0  0  0  0  0  0  0  0  0
  188.0560  177.8770  147.4620 C   0  0  0  0  0  3  0  0  0  0  0  0
  190.1360  176.9600  146.6430 C   0  0  0  0  0  0  0  0  0  0  0  0
  191.8000  176.4880  146.9200 Cl  0  0  0  0  0  0  0  0  0  0  0  0
  187.4710  177.7120  146.1940 C   0  0  0  0  0  0  0  0  0  0  0  0
  189.3820  177.5030  147.6850 C   0  0  0  0  0  3  0  0  0  0  0  0
  189.5610  176.7890  145.3830 C   0  0  0  0  0  3  0  0  0  0  0  0
  188.2300  177.1680  145.1430 C   0  0  0  0  0  0  0  0  0  0  0  0
  186.1440  178.0860  145.9560 O   0  0  0  0  0  0  0  0  0  0  0  0
  185.3060  178.6280  146.9690 C   0  0  0  0  0  1  0  0  0  0  0  0
  1 26  1  0  0  0  0
  1  9  1  0  0  0  0
  2  6  2  0  0  0  0
  3  4  1  0  0  0  0
  3  7  2  0  0  0  0
  4  1  2  0  0  0  0
  5  9  1  0  0  0  0
  5  8  2  0  0  0  0
  6  8  1  0  0  0  0
  7  2  1  0  0  0  0
  7  5  1  0  0  0  0
 10 11  1  0  0  0  0
 11 13  2  0  0  0  0
 11 12  1  0  0  0  0
 12  3  1  0  0  0  0
 14 12  1  0  0  0  0
 16 18  1  0  0  0  0
 16 17  1  0  0  0  0
 17 15  1  0  0  0  0
 17 14  1  1  0  0  0
 18 19  1  6  0  0  0
 18 15  1  0  0  0  0
 19 20  1  0  0  0  0
 20 21  1  6  0  0  0
 20 22  1  0  0  0  0
 22 23  1  0  0  0  0
 23 24  1  0  0  0  0
 25 23  2  0  0  0  0
 26 27  1  6  0  0  0
 26 29  1  0  0  0  0
 28 29  2  0  0  0  0
 29 30  1  0  0  0  0
 30 37  1  0  0  0  0
 31 35  1  0  0  0  0
 32 33  1  0  0  0  0
 32 35  2  0  0  0  0
 34 31  2  0  0  0  0
 36 32  1  0  0  0  0
 37 36  2  0  0  0  0
 37 34  1  0  0  0  0
 38 34  1  0  0  0  0
 38 39  1  0  0  0  0
M  END
>  <MODEL>
9

>  <REMARK>
 VINA RESULT:      -7.8      3.142      4.727
  Name = 
  12 active torsions:
  status: ('A' for Active; 'I' for Inactive)
    1  A    between atoms: C_2  and  C_11
    2  A    between atoms: O_5  and  C_19
    3  A    between atoms: O_8  and  C_30
    4  A    between atoms: O_8  and  C_36
    5  A    between atoms: C_11  and  C_36
    6  A    between atoms: C_13  and  N_27
    7  A    between atoms: C_14  and  C_38
    8  A    between atoms: C_17  and  C_33
    9  A    between atoms: C_20  and  N_26
   10  A    between atoms: C_20  and  C_38
   11  A    between atoms: N_26  and  C_31
   12  A    between atoms: N_27  and  C_33
                            x       y       z     vdW  Elec       q    Type
                         _______ _______ _______ _____ _____    ______ ____

>  <TORSDO>
F 12

$$$$
