=
 OpenBabel11062414483D

 33 37  0  0  1  0  0  0  0  0999 V2000
  182.9820  178.8280  143.7320 C   0  0  0  0  0  0  0  0  0  0  0  0
  185.1010  178.3770  144.1890 N   0  0  0  0  0  0  0  0  0  0  0  0
  180.6350  179.3650  143.4520 O   0  0  0  0  0  1  0  0  0  0  0  0
  181.8560  178.9660  142.9250 C   0  0  0  0  0  0  0  0  0  0  0  0
  181.9900  178.6850  141.5540 C   0  0  0  0  0  3  0  0  0  0  0  0
  184.4890  178.7650  145.3330 C   0  0  0  0  0  3  0  0  0  0  0  0
  184.1800  178.4270  143.2170 C   0  0  0  0  0  0  0  0  0  0  0  0
  184.3450  178.1470  141.8610 C   0  0  0  0  0  3  0  0  0  0  0  0
  183.2320  178.2810  141.0020 C   0  0  0  0  0  0  0  0  0  0  0  0
  183.1430  179.0580  145.0870 C   0  0  0  0  0  3  0  0  0  0  0  0
  183.4020  178.0130  139.5400 C   0  0  0  0  0  0  0  0  0  0  0  0
  182.9470  176.9280  138.8940 C   0  0  0  0  0  3  0  0  0  0  0  0
  184.2290  179.2380  138.5160 S   0  0  0  0  0  0  0  0  0  0  0  0
  188.5570  176.9070  138.1840 C   0  0  2  0  0  3  0  0  0  0  0  0
  188.7290  175.1630  136.8110 C   0  0  0  0  0  3  0  0  0  0  0  0
  186.6040  178.5970  139.4850 O   0  0  0  0  0  0  0  0  0  0  0  0
  187.3020  176.6630  137.4160 C   0  0  0  0  0  0  0  0  0  0  0  0
  186.0780  177.3970  137.5390 N   0  0  0  0  0  2  0  0  0  0  0  0
  187.4120  175.6570  136.6200 N   0  0  0  0  0  0  0  0  0  0  0  0
  189.1620  178.2440  137.7920 C   0  0  0  0  0  1  0  0  0  0  0  0
  185.7920  178.3680  138.5520 C   0  0  0  0  0  0  0  0  0  0  0  0
  189.4040  175.8360  137.6860 N   0  0  0  0  0  0  0  0  0  0  0  0
  182.2140  175.7810  139.5050 C   0  0  0  0  0  2  0  0  0  0  0  0
  180.1150  175.0450  140.2270 C   0  0  0  0  0  2  0  0  0  0  0  0
  180.2950  174.6170  138.8460 C   0  0  0  0  0  2  0  0  0  0  0  0
  180.7910  175.9340  139.2710 N   0  0  0  0  0  0  0  0  0  0  0  0
  186.5030  178.0000  144.0460 C   0  0  0  0  0  2  0  0  0  0  0  0
  186.9510  178.6020  146.4230 C   0  0  0  0  0  2  0  0  0  0  0  0
  187.4170  178.1020  147.7990 C   0  0  0  0  0  2  0  0  0  0  0  0
  188.5200  177.0440  145.1960 C   0  0  0  0  0  2  0  0  0  0  0  0
  187.0620  177.5020  145.3700 C   0  0  0  0  0  3  0  0  0  0  0  0
  189.3640  177.1900  146.4700 C   0  0  0  0  0  2  0  0  0  0  0  0
  188.5080  177.0230  147.7220 C   0  0  0  0  0  2  0  0  0  0  0  0
  1 10  1  0  0  0  0
  2  6  1  0  0  0  0
  4  3  1  0  0  0  0
  4  1  2  0  0  0  0
  5  4  1  0  0  0  0
  7  1  1  0  0  0  0
  7  2  1  0  0  0  0
  8  7  2  0  0  0  0
  9  5  2  0  0  0  0
  9  8  1  0  0  0  0
 10  6  2  0  0  0  0
 11  9  1  0  0  0  0
 12 23  1  0  0  0  0
 12 11  2  0  0  0  0
 13 21  1  0  0  0  0
 13 11  1  0  0  0  0
 14 20  1  6  0  0  0
 15 22  2  0  0  0  0
 17 18  1  0  0  0  0
 17 14  1  0  0  0  0
 18 21  1  0  0  0  0
 19 15  1  0  0  0  0
 19 17  2  0  0  0  0
 21 16  2  0  0  0  0
 22 14  1  0  0  0  0
 25 26  1  0  0  0  0
 25 24  1  0  0  0  0
 26 23  1  0  0  0  0
 26 24  1  0  0  0  0
 27  2  1  0  0  0  0
 27 31  1  0  0  0  0
 28 29  1  0  0  0  0
 30 31  1  0  0  0  0
 30 32  1  0  0  0  0
 31 28  1  0  0  0  0
 32 33  1  0  0  0  0
 33 29  1  0  0  0  0
M  END
>  <MODEL>
1

>  <REMARK>
 VINA RESULT:      -8.6      0.000      0.000
  Name = 
  7 active torsions:
  status: ('A' for Active; 'I' for Inactive)
    1  A    between atoms: N_7  and  C_18
    2  A    between atoms: S_13  and  C_24
    3  A    between atoms: S_13  and  C_25
    4  A    between atoms: C_18  and  C_22
    5  A    between atoms: C_20  and  C_26
    6  A    between atoms: C_20  and  N_29
    7  A    between atoms: C_25  and  C_31
                            x       y       z     vdW  Elec       q    Type
                         _______ _______ _______ _____ _____    ______ ____

>  <TORSDO>
F 7

$$$$
=
 OpenBabel11062414483D

 33 37  0  0  1  0  0  0  0  0999 V2000
  190.4660  177.4630  141.4780 C   0  0  0  0  0  0  0  0  0  0  0  0
  188.4890  177.5190  142.4730 N   0  0  0  0  0  0  0  0  0  0  0  0
  192.7220  177.4160  140.5950 O   0  0  0  0  0  1  0  0  0  0  0  0
  191.3470  177.4030  140.4020 C   0  0  0  0  0  0  0  0  0  0  0  0
  190.8030  177.3320  139.1080 C   0  0  0  0  0  3  0  0  0  0  0  0
  189.4500  177.5450  143.4270 C   0  0  0  0  0  3  0  0  0  0  0  0
  189.1140  177.4610  141.2900 C   0  0  0  0  0  0  0  0  0  0  0  0
  188.5450  177.3850  140.0200 C   0  0  0  0  0  3  0  0  0  0  0  0
  189.4010  177.3150  138.8970 C   0  0  0  0  0  0  0  0  0  0  0  0
  190.7180  177.5130  142.8370 C   0  0  0  0  0  3  0  0  0  0  0  0
  188.8030  177.2030  137.5310 C   0  0  0  0  0  0  0  0  0  0  0  0
  188.8610  176.1150  136.7480 C   0  0  0  0  0  3  0  0  0  0  0  0
  187.8780  178.5930  136.8640 S   0  0  0  0  0  0  0  0  0  0  0  0
  183.5650  177.6510  139.0520 C   0  0  2  0  0  3  0  0  0  0  0  0
  183.0760  178.7070  140.9500 C   0  0  0  0  0  3  0  0  0  0  0  0
  185.7730  177.0490  137.2840 O   0  0  0  0  0  0  0  0  0  0  0  0
  184.6150  178.6370  139.4400 C   0  0  0  0  0  0  0  0  0  0  0  0
  185.8430  178.8850  138.7430 N   0  0  0  0  0  2  0  0  0  0  0  0
  184.3220  179.2470  140.5350 N   0  0  0  0  0  0  0  0  0  0  0  0
  182.8990  178.0760  137.7540 C   0  0  0  0  0  1  0  0  0  0  0  0
  186.3550  178.0990  137.6620 C   0  0  0  0  0  0  0  0  0  0  0  0
  182.6190  177.8030  140.1460 N   0  0  0  0  0  0  0  0  0  0  0  0
  189.5450  174.8290  137.0730 C   0  0  0  0  0  2  0  0  0  0  0  0
  191.2370  173.3450  136.4360 C   0  0  0  0  0  2  0  0  0  0  0  0
  191.8220  174.3520  137.3110 C   0  0  0  0  0  2  0  0  0  0  0  0
  190.7920  174.7430  136.3390 N   0  0  0  0  0  0  0  0  0  0  0  0
  187.0480  177.5330  142.7010 C   0  0  0  0  0  2  0  0  0  0  0  0
  186.7990  177.0970  145.1420 C   0  0  0  0  0  2  0  0  0  0  0  0
  186.5720  177.7140  146.5310 C   0  0  0  0  0  2  0  0  0  0  0  0
  185.3340  178.8190  144.0100 C   0  0  0  0  0  2  0  0  0  0  0  0
  186.7220  178.1590  144.0480 C   0  0  0  0  0  3  0  0  0  0  0  0
  184.6320  178.8490  145.3750 C   0  0  0  0  0  2  0  0  0  0  0  0
  185.6430  178.9370  146.5140 C   0  0  0  0  0  2  0  0  0  0  0  0
  1 10  1  0  0  0  0
  2 27  1  0  0  0  0
  2  6  1  0  0  0  0
  4  3  1  0  0  0  0
  4  1  2  0  0  0  0
  5  4  1  0  0  0  0
  7  1  1  0  0  0  0
  7  2  1  0  0  0  0
  8  7  2  0  0  0  0
  9  5  2  0  0  0  0
  9  8  1  0  0  0  0
 10  6  2  0  0  0  0
 11  9  1  0  0  0  0
 12 23  1  0  0  0  0
 12 11  2  0  0  0  0
 13 11  1  0  0  0  0
 13 21  1  0  0  0  0
 14 20  1  6  0  0  0
 14 17  1  0  0  0  0
 14 22  1  0  0  0  0
 16 21  2  0  0  0  0
 17 19  2  0  0  0  0
 18 17  1  0  0  0  0
 19 15  1  0  0  0  0
 21 18  1  0  0  0  0
 22 15  2  0  0  0  0
 24 25  1  0  0  0  0
 26 24  1  0  0  0  0
 26 23  1  0  0  0  0
 26 25  1  0  0  0  0
 27 31  1  0  0  0  0
 28 29  1  0  0  0  0
 30 31  1  0  0  0  0
 30 32  1  0  0  0  0
 31 28  1  0  0  0  0
 32 33  1  0  0  0  0
 33 29  1  0  0  0  0
M  END
>  <MODEL>
2

>  <REMARK>
 VINA RESULT:      -8.5      2.647      6.653
  Name = 
  7 active torsions:
  status: ('A' for Active; 'I' for Inactive)
    1  A    between atoms: N_7  and  C_18
    2  A    between atoms: S_13  and  C_24
    3  A    between atoms: S_13  and  C_25
    4  A    between atoms: C_18  and  C_22
    5  A    between atoms: C_20  and  C_26
    6  A    between atoms: C_20  and  N_29
    7  A    between atoms: C_25  and  C_31
                            x       y       z     vdW  Elec       q    Type
                         _______ _______ _______ _____ _____    ______ ____

>  <TORSDO>
F 7

$$$$
=
 OpenBabel11062414483D

 33 37  0  0  1  0  0  0  0  0999 V2000
  185.8970  178.5240  142.4830 C   0  0  0  0  0  0  0  0  0  0  0  0
  186.4080  177.4420  144.3450 N   0  0  0  0  0  0  0  0  0  0  0  0
  185.1430  179.7690  140.5440 O   0  0  0  0  0  1  0  0  0  0  0  0
  186.0900  178.9780  141.1810 C   0  0  0  0  0  0  0  0  0  0  0  0
  187.2750  178.6060  140.5230 C   0  0  0  0  0  3  0  0  0  0  0  0
  185.2140  178.0570  144.5210 C   0  0  0  0  0  3  0  0  0  0  0  0
  186.8210  177.7380  143.1060 C   0  0  0  0  0  0  0  0  0  0  0  0
  188.0090  177.3580  142.4820 C   0  0  0  0  0  3  0  0  0  0  0  0
  188.2520  177.8010  141.1620 C   0  0  0  0  0  0  0  0  0  0  0  0
  184.8530  178.7530  143.3620 C   0  0  0  0  0  3  0  0  0  0  0  0
  189.5350  177.4250  140.4930 C   0  0  0  0  0  0  0  0  0  0  0  0
  190.5250  176.7180  141.0580 C   0  0  0  0  0  3  0  0  0  0  0  0
  189.7960  177.8910  138.7750 S   0  0  0  0  0  0  0  0  0  0  0  0
  188.0450  173.7610  136.7370 C   0  0  2  0  0  3  0  0  0  0  0  0
  185.8450  173.5570  136.4570 C   0  0  0  0  0  3  0  0  0  0  0  0
  190.0250  175.3350  138.1380 O   0  0  0  0  0  0  0  0  0  0  0  0
  187.3030  174.9880  137.1480 C   0  0  0  0  0  0  0  0  0  0  0  0
  187.8760  176.1740  137.7130 N   0  0  0  0  0  2  0  0  0  0  0  0
  186.0330  174.8640  136.9770 N   0  0  0  0  0  0  0  0  0  0  0  0
  188.9370  174.0600  135.5450 C   0  0  0  0  0  1  0  0  0  0  0  0
  189.2310  176.3120  138.1520 C   0  0  0  0  0  0  0  0  0  0  0  0
  186.9510  172.9020  136.3110 N   0  0  0  0  0  0  0  0  0  0  0  0
  190.5490  176.1950  142.4560 C   0  0  0  0  0  2  0  0  0  0  0  0
  191.6130  176.2910  144.5370 C   0  0  0  0  0  2  0  0  0  0  0  0
  191.3860  177.6560  144.0800 C   0  0  0  0  0  2  0  0  0  0  0  0
  191.7700  176.6180  143.1120 N   0  0  0  0  0  0  0  0  0  0  0  0
  187.1130  176.6300  145.3310 C   0  0  0  0  0  2  0  0  0  0  0  0
  189.1000  176.7330  146.8320 C   0  0  0  0  0  2  0  0  0  0  0  0
  189.9800  177.6230  147.7230 C   0  0  0  0  0  2  0  0  0  0  0  0
  187.0040  178.0190  147.4210 C   0  0  0  0  0  2  0  0  0  0  0  0
  187.9070  177.5110  146.2840 C   0  0  0  0  0  3  0  0  0  0  0  0
  187.7600  178.2910  148.7290 C   0  0  0  0  0  2  0  0  0  0  0  0
  189.1980  178.7230  148.4560 C   0  0  0  0  0  2  0  0  0  0  0  0
  1  7  1  0  0  0  0
  1 10  1  0  0  0  0
  2  6  1  0  0  0  0
  2 27  1  0  0  0  0
  3  4  1  0  0  0  0
  4  1  2  0  0  0  0
  5  9  2  0  0  0  0
  5  4  1  0  0  0  0
  7  2  1  0  0  0  0
  8  7  2  0  0  0  0
  9  8  1  0  0  0  0
 10  6  2  0  0  0  0
 11 12  2  0  0  0  0
 11  9  1  0  0  0  0
 12 23  1  0  0  0  0
 13 11  1  0  0  0  0
 14 20  1  6  0  0  0
 14 17  1  0  0  0  0
 15 19  1  0  0  0  0
 16 21  2  0  0  0  0
 17 18  1  0  0  0  0
 18 21  1  0  0  0  0
 19 17  2  0  0  0  0
 21 13  1  0  0  0  0
 22 15  2  0  0  0  0
 22 14  1  0  0  0  0
 23 26  1  0  0  0  0
 25 24  1  0  0  0  0
 26 25  1  0  0  0  0
 26 24  1  0  0  0  0
 27 31  1  0  0  0  0
 28 29  1  0  0  0  0
 29 33  1  0  0  0  0
 30 32  1  0  0  0  0
 31 28  1  0  0  0  0
 31 30  1  0  0  0  0
 33 32  1  0  0  0  0
M  END
>  <MODEL>
3

>  <REMARK>
 VINA RESULT:      -8.5      3.111      5.397
  Name = 
  7 active torsions:
  status: ('A' for Active; 'I' for Inactive)
    1  A    between atoms: N_7  and  C_18
    2  A    between atoms: S_13  and  C_24
    3  A    between atoms: S_13  and  C_25
    4  A    between atoms: C_18  and  C_22
    5  A    between atoms: C_20  and  C_26
    6  A    between atoms: C_20  and  N_29
    7  A    between atoms: C_25  and  C_31
                            x       y       z     vdW  Elec       q    Type
                         _______ _______ _______ _____ _____    ______ ____

>  <TORSDO>
F 7

$$$$
=
 OpenBabel11062414483D

 33 37  0  0  1  0  0  0  0  0999 V2000
  190.7480  177.0780  141.7730 C   0  0  0  0  0  0  0  0  0  0  0  0
  189.1010  176.5380  143.1510 N   0  0  0  0  0  0  0  0  0  0  0  0
  192.6920  177.6430  140.4400 O   0  0  0  0  0  1  0  0  0  0  0  0
  191.3220  177.4520  140.5610 C   0  0  0  0  0  0  0  0  0  0  0  0
  190.4710  177.6340  139.4580 C   0  0  0  0  0  3  0  0  0  0  0  0
  190.2690  176.4720  143.8330 C   0  0  0  0  0  3  0  0  0  0  0  0
  189.4010  176.8990  141.8960 C   0  0  0  0  0  0  0  0  0  0  0  0
  188.5320  177.0670  140.8190 C   0  0  0  0  0  3  0  0  0  0  0  0
  189.0700  177.4390  139.5660 C   0  0  0  0  0  0  0  0  0  0  0  0
  191.3380  176.8090  142.9950 C   0  0  0  0  0  3  0  0  0  0  0  0
  188.1530  177.5930  138.3960 C   0  0  0  0  0  0  0  0  0  0  0  0
  186.9180  178.1170  138.4440 C   0  0  0  0  0  3  0  0  0  0  0  0
  188.7260  177.1010  136.7630 S   0  0  0  0  0  0  0  0  0  0  0  0
  184.6710  174.3400  136.3060 C   0  0  2  0  0  3  0  0  0  0  0  0
  184.5740  172.3970  137.3900 C   0  0  0  0  0  3  0  0  0  0  0  0
  186.5310  176.3900  135.4710 O   0  0  0  0  0  0  0  0  0  0  0  0
  185.8730  174.1030  137.1580 C   0  0  0  0  0  0  0  0  0  0  0  0
  187.0140  174.9620  137.2690 N   0  0  0  0  0  2  0  0  0  0  0  0
  185.8060  172.9810  137.7850 N   0  0  0  0  0  0  0  0  0  0  0  0
  183.8890  175.5360  136.8220 C   0  0  0  0  0  1  0  0  0  0  0  0
  187.2790  176.1000  136.4410 C   0  0  0  0  0  0  0  0  0  0  0  0
  183.9080  173.1270  136.5550 N   0  0  0  0  0  0  0  0  0  0  0  0
  186.2200  178.6180  139.6640 C   0  0  0  0  0  2  0  0  0  0  0  0
  184.0460  179.1710  140.3240 C   0  0  0  0  0  2  0  0  0  0  0  0
  183.9640  178.4170  139.0810 C   0  0  0  0  0  2  0  0  0  0  0  0
  185.0530  179.3850  139.2750 N   0  0  0  0  0  0  0  0  0  0  0  0
  187.7740  176.2500  143.6840 C   0  0  0  0  0  2  0  0  0  0  0  0
  186.7180  177.2960  145.6850 C   0  0  0  0  0  2  0  0  0  0  0  0
  186.1500  178.5840  146.3000 C   0  0  0  0  0  2  0  0  0  0  0  0
  185.9230  177.9160  143.3660 C   0  0  0  0  0  2  0  0  0  0  0  0
  187.1290  177.5140  144.2310 C   0  0  0  0  0  3  0  0  0  0  0  0
  184.8380  178.6770  144.1430 C   0  0  0  0  0  2  0  0  0  0  0  0
  185.4440  179.4910  145.2820 C   0  0  0  0  0  2  0  0  0  0  0  0
  1  7  1  0  0  0  0
  1 10  1  0  0  0  0
  2 27  1  0  0  0  0
  2  6  1  0  0  0  0
  3  4  1  0  0  0  0
  4  1  2  0  0  0  0
  5  9  2  0  0  0  0
  5  4  1  0  0  0  0
  7  2  1  0  0  0  0
  8  7  2  0  0  0  0
  9  8  1  0  0  0  0
 10  6  2  0  0  0  0
 11 12  2  0  0  0  0
 11  9  1  0  0  0  0
 12 23  1  0  0  0  0
 13 11  1  0  0  0  0
 14 22  1  0  0  0  0
 14 20  1  1  0  0  0
 14 17  1  0  0  0  0
 15 19  1  0  0  0  0
 16 21  2  0  0  0  0
 17 18  1  0  0  0  0
 17 19  2  0  0  0  0
 21 13  1  0  0  0  0
 21 18  1  0  0  0  0
 22 15  2  0  0  0  0
 25 26  1  0  0  0  0
 25 24  1  0  0  0  0
 26 23  1  0  0  0  0
 26 24  1  0  0  0  0
 27 31  1  0  0  0  0
 28 29  1  0  0  0  0
 30 32  1  0  0  0  0
 30 31  1  0  0  0  0
 31 28  1  0  0  0  0
 32 33  1  0  0  0  0
 33 29  1  0  0  0  0
M  END
>  <MODEL>
4

>  <REMARK>
 VINA RESULT:      -8.4      3.202      5.687
  Name = 
  7 active torsions:
  status: ('A' for Active; 'I' for Inactive)
    1  A    between atoms: N_7  and  C_18
    2  A    between atoms: S_13  and  C_24
    3  A    between atoms: S_13  and  C_25
    4  A    between atoms: C_18  and  C_22
    5  A    between atoms: C_20  and  C_26
    6  A    between atoms: C_20  and  N_29
    7  A    between atoms: C_25  and  C_31
                            x       y       z     vdW  Elec       q    Type
                         _______ _______ _______ _____ _____    ______ ____

>  <TORSDO>
F 7

$$$$
=
 OpenBabel11062414483D

 33 37  0  0  1  0  0  0  0  0999 V2000
  182.8040  178.8370  143.5520 C   0  0  0  0  0  0  0  0  0  0  0  0
  184.9590  178.3970  143.8150 N   0  0  0  0  0  0  0  0  0  0  0  0
  180.4360  179.3500  143.4890 O   0  0  0  0  0  1  0  0  0  0  0  0
  181.6150  178.9960  142.8460 C   0  0  0  0  0  0  0  0  0  0  0  0
  181.6410  178.7840  141.4570 C   0  0  0  0  0  3  0  0  0  0  0  0
  184.4360  178.7190  145.0230 C   0  0  0  0  0  3  0  0  0  0  0  0
  183.9610  178.4790  142.9250 C   0  0  0  0  0  0  0  0  0  0  0  0
  184.0200  178.2680  141.5470 C   0  0  0  0  0  3  0  0  0  0  0  0
  182.8390  178.4260  140.7870 C   0  0  0  0  0  0  0  0  0  0  0  0
  183.0720  179.0030  144.9000 C   0  0  0  0  0  3  0  0  0  0  0  0
  182.8940  178.2320  139.3060 C   0  0  0  0  0  0  0  0  0  0  0  0
  182.7140  179.1980  138.3920 C   0  0  0  0  0  3  0  0  0  0  0  0
  183.2830  176.6030  138.6500 S   0  0  0  0  0  0  0  0  0  0  0  0
  187.4800  177.9790  136.4660 C   0  0  2  0  0  3  0  0  0  0  0  0
  189.0490  178.9710  137.6950 C   0  0  0  0  0  3  0  0  0  0  0  0
  184.6820  177.2510  136.5010 O   0  0  0  0  0  0  0  0  0  0  0  0
  187.1060  178.0580  137.9080 C   0  0  0  0  0  0  0  0  0  0  0  0
  185.8740  177.6140  138.4890 N   0  0  0  0  0  2  0  0  0  0  0  0
  188.0210  178.6280  138.6120 N   0  0  0  0  0  0  0  0  0  0  0  0
  187.6490  176.5290  136.0450 C   0  0  0  0  0  1  0  0  0  0  0  0
  184.7190  177.1890  137.7580 C   0  0  0  0  0  0  0  0  0  0  0  0
  188.7810  178.6270  136.4770 N   0  0  0  0  0  0  0  0  0  0  0  0
  182.4030  180.6300  138.6720 C   0  0  0  0  0  2  0  0  0  0  0  0
  181.1810  182.4960  137.9680 C   0  0  0  0  0  2  0  0  0  0  0  0
  180.3420  181.7190  138.8710 C   0  0  0  0  0  2  0  0  0  0  0  0
  181.2270  181.0280  137.9230 N   0  0  0  0  0  0  0  0  0  0  0  0
  186.3480  178.0490  143.5420 C   0  0  0  0  0  2  0  0  0  0  0  0
  186.9000  178.4700  145.9360 C   0  0  0  0  0  2  0  0  0  0  0  0
  187.4740  177.8840  147.2350 C   0  0  0  0  0  2  0  0  0  0  0  0
  188.4810  177.1250  144.4930 C   0  0  0  0  0  2  0  0  0  0  0  0
  187.0120  177.4750  144.7850 C   0  0  0  0  0  3  0  0  0  0  0  0
  189.3890  177.2140  145.7290 C   0  0  0  0  0  2  0  0  0  0  0  0
  188.6180  176.8860  147.0040 C   0  0  0  0  0  2  0  0  0  0  0  0
  1 10  1  0  0  0  0
  2  6  1  0  0  0  0
  4  3  1  0  0  0  0
  4  1  2  0  0  0  0
  5  4  1  0  0  0  0
  7  1  1  0  0  0  0
  7  2  1  0  0  0  0
  8  7  2  0  0  0  0
  9  5  2  0  0  0  0
  9  8  1  0  0  0  0
 10  6  2  0  0  0  0
 11  9  1  0  0  0  0
 12 23  1  0  0  0  0
 12 11  2  0  0  0  0
 13 11  1  0  0  0  0
 14 20  1  1  0  0  0
 14 22  1  0  0  0  0
 14 17  1  0  0  0  0
 15 19  1  0  0  0  0
 16 21  2  0  0  0  0
 17 18  1  0  0  0  0
 17 19  2  0  0  0  0
 21 18  1  0  0  0  0
 21 13  1  0  0  0  0
 22 15  2  0  0  0  0
 24 25  1  0  0  0  0
 26 24  1  0  0  0  0
 26 23  1  0  0  0  0
 26 25  1  0  0  0  0
 27  2  1  0  0  0  0
 27 31  1  0  0  0  0
 28 29  1  0  0  0  0
 30 31  1  0  0  0  0
 30 32  1  0  0  0  0
 31 28  1  0  0  0  0
 32 33  1  0  0  0  0
 33 29  1  0  0  0  0
M  END
>  <MODEL>
5

>  <REMARK>
 VINA RESULT:      -8.3      2.065      2.778
  Name = 
  7 active torsions:
  status: ('A' for Active; 'I' for Inactive)
    1  A    between atoms: N_7  and  C_18
    2  A    between atoms: S_13  and  C_24
    3  A    between atoms: S_13  and  C_25
    4  A    between atoms: C_18  and  C_22
    5  A    between atoms: C_20  and  C_26
    6  A    between atoms: C_20  and  N_29
    7  A    between atoms: C_25  and  C_31
                            x       y       z     vdW  Elec       q    Type
                         _______ _______ _______ _____ _____    ______ ____

>  <TORSDO>
F 7

$$$$
=
 OpenBabel11062414483D

 33 37  0  0  1  0  0  0  0  0999 V2000
  184.8550  178.3450  143.9550 C   0  0  0  0  0  0  0  0  0  0  0  0
  186.9460  177.7850  143.4910 N   0  0  0  0  0  0  0  0  0  0  0  0
  182.6260  178.9620  144.6820 O   0  0  0  0  0  1  0  0  0  0  0  0
  183.5240  178.6390  143.6730 C   0  0  0  0  0  0  0  0  0  0  0  0
  183.1110  178.5970  142.3300 C   0  0  0  0  0  3  0  0  0  0  0  0
  186.8410  177.9800  144.8280 C   0  0  0  0  0  3  0  0  0  0  0  0
  185.7360  178.0170  142.9670 C   0  0  0  0  0  0  0  0  0  0  0  0
  185.3580  177.9720  141.6250 C   0  0  0  0  0  3  0  0  0  0  0  0
  184.0180  178.2710  141.2890 C   0  0  0  0  0  0  0  0  0  0  0  0
  185.5300  178.3350  145.1630 C   0  0  0  0  0  3  0  0  0  0  0  0
  183.6070  178.2560  139.8510 C   0  0  0  0  0  0  0  0  0  0  0  0
  182.8050  177.3400  139.2860 C   0  0  0  0  0  3  0  0  0  0  0  0
  184.1610  179.5800  138.7680 S   0  0  0  0  0  0  0  0  0  0  0  0
  187.6230  176.6000  136.9220 C   0  0  2  0  0  3  0  0  0  0  0  0
  189.7290  176.8600  137.5980 C   0  0  0  0  0  3  0  0  0  0  0  0
  185.0570  177.9310  136.9050 O   0  0  0  0  0  0  0  0  0  0  0  0
  187.7570  177.6520  137.9710 C   0  0  0  0  0  0  0  0  0  0  0  0
  186.7010  178.4710  138.4880 N   0  0  0  0  0  2  0  0  0  0  0  0
  188.9760  177.7920  138.3600 N   0  0  0  0  0  0  0  0  0  0  0  0
  186.7960  175.4380  137.4460 C   0  0  0  0  0  1  0  0  0  0  0  0
  185.3750  178.5480  137.9540 C   0  0  0  0  0  0  0  0  0  0  0  0
  189.0050  176.1730  136.7750 N   0  0  0  0  0  0  0  0  0  0  0  0
  182.1970  176.1600  139.9660 C   0  0  0  0  0  2  0  0  0  0  0  0
  180.2080  174.9650  140.2580 C   0  0  0  0  0  2  0  0  0  0  0  0
  180.2350  175.4740  138.8930 C   0  0  0  0  0  2  0  0  0  0  0  0
  180.7540  176.3030  139.9900 N   0  0  0  0  0  0  0  0  0  0  0  0
  188.1570  177.4130  142.7670 C   0  0  0  0  0  2  0  0  0  0  0  0
  190.1710  178.2210  143.9930 C   0  0  0  0  0  2  0  0  0  0  0  0
  191.2440  177.8890  145.0420 C   0  0  0  0  0  2  0  0  0  0  0  0
  190.0600  175.8290  143.1820 C   0  0  0  0  0  2  0  0  0  0  0  0
  189.2630  177.0220  143.7350 C   0  0  0  0  0  3  0  0  0  0  0  0
  191.5200  175.7950  143.6550 C   0  0  0  0  0  2  0  0  0  0  0  0
  191.6650  176.4120  145.0430 C   0  0  0  0  0  2  0  0  0  0  0  0
  1 10  1  0  0  0  0
  2  6  1  0  0  0  0
  4  1  1  0  0  0  0
  4  3  1  0  0  0  0
  5  4  2  0  0  0  0
  6 10  2  0  0  0  0
  7  2  1  0  0  0  0
  7  1  2  0  0  0  0
  8  7  1  0  0  0  0
  9  8  2  0  0  0  0
  9  5  1  0  0  0  0
 11  9  1  0  0  0  0
 12 11  2  0  0  0  0
 12 23  1  0  0  0  0
 13 11  1  0  0  0  0
 14 20  1  1  0  0  0
 14 17  1  0  0  0  0
 15 19  1  0  0  0  0
 16 21  2  0  0  0  0
 17 19  2  0  0  0  0
 17 18  1  0  0  0  0
 21 18  1  0  0  0  0
 21 13  1  0  0  0  0
 22 14  1  0  0  0  0
 22 15  2  0  0  0  0
 23 26  1  0  0  0  0
 25 26  1  0  0  0  0
 25 24  1  0  0  0  0
 26 24  1  0  0  0  0
 27  2  1  0  0  0  0
 27 31  1  0  0  0  0
 28 29  1  0  0  0  0
 29 33  1  0  0  0  0
 30 32  1  0  0  0  0
 30 31  1  0  0  0  0
 31 28  1  0  0  0  0
 32 33  1  0  0  0  0
M  END
>  <MODEL>
6

>  <REMARK>
 VINA RESULT:      -8.2      1.667      2.306
  Name = 
  7 active torsions:
  status: ('A' for Active; 'I' for Inactive)
    1  A    between atoms: N_7  and  C_18
    2  A    between atoms: S_13  and  C_24
    3  A    between atoms: S_13  and  C_25
    4  A    between atoms: C_18  and  C_22
    5  A    between atoms: C_20  and  C_26
    6  A    between atoms: C_20  and  N_29
    7  A    between atoms: C_25  and  C_31
                            x       y       z     vdW  Elec       q    Type
                         _______ _______ _______ _____ _____    ______ ____

>  <TORSDO>
F 7

$$$$
=
 OpenBabel11062414483D

 33 37  0  0  1  0  0  0  0  0999 V2000
  185.3110  178.7050  140.7010 C   0  0  0  0  0  0  0  0  0  0  0  0
  185.4270  178.4350  142.8960 N   0  0  0  0  0  0  0  0  0  0  0  0
  185.4110  179.0080  138.2980 O   0  0  0  0  0  1  0  0  0  0  0  0
  184.6810  178.8430  139.4680 C   0  0  0  0  0  0  0  0  0  0  0  0
  183.2750  178.8150  139.4400 C   0  0  0  0  0  3  0  0  0  0  0  0
  186.6880  178.4990  142.4050 C   0  0  0  0  0  3  0  0  0  0  0  0
  184.5950  178.5530  141.8530 C   0  0  0  0  0  0  0  0  0  0  0  0
  183.2010  178.5150  141.8560 C   0  0  0  0  0  3  0  0  0  0  0  0
  182.5170  178.6440  140.6270 C   0  0  0  0  0  0  0  0  0  0  0  0
  186.6580  178.6710  141.0160 C   0  0  0  0  0  3  0  0  0  0  0  0
  181.0240  178.5760  140.6130 C   0  0  0  0  0  0  0  0  0  0  0  0
  180.3020  177.4960  140.2750 C   0  0  0  0  0  3  0  0  0  0  0  0
  180.0760  180.0130  141.1340 S   0  0  0  0  0  0  0  0  0  0  0  0
  180.1380  181.8090  136.5470 C   0  0  2  0  0  3  0  0  0  0  0  0
  181.1520  183.7560  136.1750 C   0  0  0  0  0  3  0  0  0  0  0  0
  179.1060  180.1500  138.6790 O   0  0  0  0  0  0  0  0  0  0  0  0
  180.7880  182.3540  137.7740 C   0  0  0  0  0  0  0  0  0  0  0  0
  180.7570  181.7670  139.0810 N   0  0  0  0  0  2  0  0  0  0  0  0
  181.3770  183.4770  137.5490 N   0  0  0  0  0  0  0  0  0  0  0  0
  180.8080  180.5120  136.1280 C   0  0  0  0  0  1  0  0  0  0  0  0
  179.9410  180.6580  139.4720 C   0  0  0  0  0  0  0  0  0  0  0  0
  180.4550  182.8450  135.5780 N   0  0  0  0  0  0  0  0  0  0  0  0
  180.8420  176.1780  139.8290 C   0  0  0  0  0  2  0  0  0  0  0  0
  181.1400  174.7250  138.0210 C   0  0  0  0  0  2  0  0  0  0  0  0
  182.2010  175.7220  137.9810 C   0  0  0  0  0  2  0  0  0  0  0  0
  180.8430  176.1190  138.3810 N   0  0  0  0  0  0  0  0  0  0  0  0
  185.0550  178.2530  144.2950 C   0  0  0  0  0  2  0  0  0  0  0  0
  187.0990  177.1220  145.1640 C   0  0  0  0  0  2  0  0  0  0  0  0
  188.3860  177.2710  145.9890 C   0  0  0  0  0  2  0  0  0  0  0  0
  185.8320  178.7450  146.6310 C   0  0  0  0  0  2  0  0  0  0  0  0
  186.2700  178.4030  145.1980 C   0  0  0  0  0  3  0  0  0  0  0  0
  186.8120  178.2520  147.7050 C   0  0  0  0  0  2  0  0  0  0  0  0
  188.2440  178.2320  147.1790 C   0  0  0  0  0  2  0  0  0  0  0  0
  1 10  1  0  0  0  0
  1  7  1  0  0  0  0
  2 27  1  0  0  0  0
  3  4  1  0  0  0  0
  4  1  2  0  0  0  0
  5  4  1  0  0  0  0
  5  9  2  0  0  0  0
  6  2  1  0  0  0  0
  7  8  2  0  0  0  0
  7  2  1  0  0  0  0
  9  8  1  0  0  0  0
 10  6  2  0  0  0  0
 11  9  1  0  0  0  0
 11 13  1  0  0  0  0
 12 11  2  0  0  0  0
 14 20  1  6  0  0  0
 14 17  1  0  0  0  0
 15 19  1  0  0  0  0
 16 21  2  0  0  0  0
 17 18  1  0  0  0  0
 18 21  1  0  0  0  0
 19 17  2  0  0  0  0
 21 13  1  0  0  0  0
 22 15  2  0  0  0  0
 22 14  1  0  0  0  0
 23 12  1  0  0  0  0
 24 26  1  0  0  0  0
 25 24  1  0  0  0  0
 25 26  1  0  0  0  0
 26 23  1  0  0  0  0
 27 31  1  0  0  0  0
 28 31  1  0  0  0  0
 28 29  1  0  0  0  0
 29 33  1  0  0  0  0
 30 32  1  0  0  0  0
 31 30  1  0  0  0  0
 33 32  1  0  0  0  0
M  END
>  <MODEL>
7

>  <REMARK>
 VINA RESULT:      -8.0      3.468      5.487
  Name = 
  7 active torsions:
  status: ('A' for Active; 'I' for Inactive)
    1  A    between atoms: N_7  and  C_18
    2  A    between atoms: S_13  and  C_24
    3  A    between atoms: S_13  and  C_25
    4  A    between atoms: C_18  and  C_22
    5  A    between atoms: C_20  and  C_26
    6  A    between atoms: C_20  and  N_29
    7  A    between atoms: C_25  and  C_31
                            x       y       z     vdW  Elec       q    Type
                         _______ _______ _______ _____ _____    ______ ____

>  <TORSDO>
F 7

$$$$
=
 OpenBabel11062414483D

 33 37  0  0  1  0  0  0  0  0999 V2000
  185.7530  178.2580  144.3670 C   0  0  0  0  0  0  0  0  0  0  0  0
  184.3240  178.7610  142.7510 N   0  0  0  0  0  0  0  0  0  0  0  0
  187.1490  177.7500  146.2820 O   0  0  0  0  0  1  0  0  0  0  0  0
  186.9760  177.8760  144.9100 C   0  0  0  0  0  0  0  0  0  0  0  0
  188.0390  177.6240  144.0250 C   0  0  0  0  0  3  0  0  0  0  0  0
  183.6780  178.8500  143.9380 C   0  0  0  0  0  3  0  0  0  0  0  0
  185.5840  178.3920  143.0200 C   0  0  0  0  0  0  0  0  0  0  0  0
  186.6170  178.1430  142.1170 C   0  0  0  0  0  3  0  0  0  0  0  0
  187.8760  177.7450  142.6210 C   0  0  0  0  0  0  0  0  0  0  0  0
  184.5490  178.5410  144.9880 C   0  0  0  0  0  3  0  0  0  0  0  0
  188.9840  177.4460  141.6630 C   0  0  0  0  0  0  0  0  0  0  0  0
  190.0450  176.6680  141.9260 C   0  0  0  0  0  3  0  0  0  0  0  0
  188.9040  178.1150  139.9960 S   0  0  0  0  0  0  0  0  0  0  0  0
  192.4120  175.3120  137.9680 C   0  0  2  0  0  3  0  0  0  0  0  0
  191.8060  173.4880  136.8440 C   0  0  0  0  0  3  0  0  0  0  0  0
  191.4050  177.2720  139.8410 O   0  0  0  0  0  0  0  0  0  0  0  0
  190.9300  175.1650  137.8800 C   0  0  0  0  0  0  0  0  0  0  0  0
  189.9570  176.0340  138.4730 N   0  0  0  0  0  2  0  0  0  0  0  0
  190.5880  174.1110  137.2240 N   0  0  0  0  0  0  0  0  0  0  0  0
  192.8630  176.5520  137.2160 C   0  0  0  0  0  1  0  0  0  0  0  0
  190.2400  177.0830  139.4040 C   0  0  0  0  0  0  0  0  0  0  0  0
  192.8540  174.1290  137.2470 N   0  0  0  0  0  0  0  0  0  0  0  0
  190.3360  175.9800  143.2180 C   0  0  0  0  0  2  0  0  0  0  0  0
  191.6390  176.3800  145.1180 C   0  0  0  0  0  2  0  0  0  0  0  0
  191.5950  177.6060  144.3310 C   0  0  0  0  0  2  0  0  0  0  0  0
  191.6800  176.3060  143.6500 N   0  0  0  0  0  0  0  0  0  0  0  0
  183.7460  179.0030  141.4340 C   0  0  0  0  0  2  0  0  0  0  0  0
  183.2740  177.2500  139.7260 C   0  0  0  0  0  2  0  0  0  0  0  0
  182.4100  176.0380  139.3470 C   0  0  0  0  0  2  0  0  0  0  0  0
  181.3640  178.3810  140.9370 C   0  0  0  0  0  2  0  0  0  0  0  0
  182.8100  177.8690  141.0410 C   0  0  0  0  0  3  0  0  0  0  0  0
  180.5070  177.5940  139.9350 C   0  0  0  0  0  2  0  0  0  0  0  0
  180.9600  176.1400  139.8440 C   0  0  0  0  0  2  0  0  0  0  0  0
  1  4  1  0  0  0  0
  1 10  1  0  0  0  0
  2  7  1  0  0  0  0
  2  6  1  0  0  0  0
  4  3  1  0  0  0  0
  5  4  2  0  0  0  0
  6 10  2  0  0  0  0
  7  1  2  0  0  0  0
  8  9  2  0  0  0  0
  8  7  1  0  0  0  0
  9  5  1  0  0  0  0
 11 12  2  0  0  0  0
 11  9  1  0  0  0  0
 12 23  1  0  0  0  0
 13 11  1  0  0  0  0
 14 20  1  6  0  0  0
 15 19  1  0  0  0  0
 15 22  2  0  0  0  0
 17 14  1  0  0  0  0
 17 18  1  0  0  0  0
 18 21  1  0  0  0  0
 19 17  2  0  0  0  0
 21 16  2  0  0  0  0
 21 13  1  0  0  0  0
 22 14  1  0  0  0  0
 23 26  1  0  0  0  0
 25 24  1  0  0  0  0
 26 25  1  0  0  0  0
 26 24  1  0  0  0  0
 27  2  1  0  0  0  0
 28 31  1  0  0  0  0
 29 28  1  0  0  0  0
 29 33  1  0  0  0  0
 30 31  1  0  0  0  0
 31 27  1  0  0  0  0
 32 30  1  0  0  0  0
 33 32  1  0  0  0  0
M  END
>  <MODEL>
8

>  <REMARK>
 VINA RESULT:      -8.0      2.972      6.788
  Name = 
  7 active torsions:
  status: ('A' for Active; 'I' for Inactive)
    1  A    between atoms: N_7  and  C_18
    2  A    between atoms: S_13  and  C_24
    3  A    between atoms: S_13  and  C_25
    4  A    between atoms: C_18  and  C_22
    5  A    between atoms: C_20  and  C_26
    6  A    between atoms: C_20  and  N_29
    7  A    between atoms: C_25  and  C_31
                            x       y       z     vdW  Elec       q    Type
                         _______ _______ _______ _____ _____    ______ ____

>  <TORSDO>
F 7

$$$$
=
 OpenBabel11062414483D

 33 37  0  0  1  0  0  0  0  0999 V2000
  188.9130  177.6460  141.5160 C   0  0  0  0  0  0  0  0  0  0  0  0
  188.4330  177.0900  143.6050 N   0  0  0  0  0  0  0  0  0  0  0  0
  189.6510  178.1900  139.2720 O   0  0  0  0  0  1  0  0  0  0  0  0
  188.6520  178.1230  140.2340 C   0  0  0  0  0  0  0  0  0  0  0  0
  187.3420  178.5400  139.9410 C   0  0  0  0  0  3  0  0  0  0  0  0
  189.7400  176.8140  143.3770 C   0  0  0  0  0  3  0  0  0  0  0  0
  187.9350  177.5880  142.4660 C   0  0  0  0  0  0  0  0  0  0  0  0
  186.6250  177.9890  142.2030 C   0  0  0  0  0  3  0  0  0  0  0  0
  186.3120  178.4730  140.9130 C   0  0  0  0  0  0  0  0  0  0  0  0
  190.0840  177.1540  142.0640 C   0  0  0  0  0  3  0  0  0  0  0  0
  184.9050  178.8780  140.6090 C   0  0  0  0  0  0  0  0  0  0  0  0
  183.8780  178.8150  141.4710 C   0  0  0  0  0  3  0  0  0  0  0  0
  184.5200  179.5610  138.9900 S   0  0  0  0  0  0  0  0  0  0  0  0
  181.8420  175.5370  138.0360 C   0  0  2  0  0  3  0  0  0  0  0  0
  182.8710  173.7330  137.2350 C   0  0  0  0  0  3  0  0  0  0  0  0
  182.2180  178.3720  138.4630 O   0  0  0  0  0  0  0  0  0  0  0  0
  183.3180  175.7220  137.9390 C   0  0  0  0  0  0  0  0  0  0  0  0
  184.0450  176.9150  138.2590 N   0  0  0  0  0  2  0  0  0  0  0  0
  183.9070  174.6730  137.4800 N   0  0  0  0  0  0  0  0  0  0  0  0
  181.4010  175.5770  139.4900 C   0  0  0  0  0  1  0  0  0  0  0  0
  183.4600  178.1890  138.5470 C   0  0  0  0  0  0  0  0  0  0  0  0
  181.6950  174.1820  137.5300 N   0  0  0  0  0  0  0  0  0  0  0  0
  183.9350  178.3120  142.8750 C   0  0  0  0  0  2  0  0  0  0  0  0
  184.4540  178.9790  145.0560 C   0  0  0  0  0  2  0  0  0  0  0  0
  183.0040  178.9770  144.9150 C   0  0  0  0  0  2  0  0  0  0  0  0
  183.8440  179.4280  143.7960 N   0  0  0  0  0  0  0  0  0  0  0  0
  187.7100  176.8660  144.8520 C   0  0  0  0  0  2  0  0  0  0  0  0
  189.4740  176.6580  146.6000 C   0  0  0  0  0  2  0  0  0  0  0  0
  190.2610  177.3720  147.7090 C   0  0  0  0  0  2  0  0  0  0  0  0
  187.3750  177.9850  147.0740 C   0  0  0  0  0  2  0  0  0  0  0  0
  188.4020  177.5700  146.0090 C   0  0  0  0  0  3  0  0  0  0  0  0
  187.9550  178.0440  148.4950 C   0  0  0  0  0  2  0  0  0  0  0  0
  189.4330  178.4180  148.4730 C   0  0  0  0  0  2  0  0  0  0  0  0
  1 10  1  0  0  0  0
  1  7  1  0  0  0  0
  2 27  1  0  0  0  0
  3  4  1  0  0  0  0
  4  1  2  0  0  0  0
  5  4  1  0  0  0  0
  5  9  2  0  0  0  0
  6  2  1  0  0  0  0
  7  2  1  0  0  0  0
  8  7  2  0  0  0  0
  9  8  1  0  0  0  0
 10  6  2  0  0  0  0
 11  9  1  0  0  0  0
 11 12  2  0  0  0  0
 12 23  1  0  0  0  0
 13 11  1  0  0  0  0
 14 20  1  1  0  0  0
 15 19  1  0  0  0  0
 15 22  2  0  0  0  0
 16 21  2  0  0  0  0
 17 14  1  0  0  0  0
 17 18  1  0  0  0  0
 18 21  1  0  0  0  0
 19 17  2  0  0  0  0
 21 13  1  0  0  0  0
 22 14  1  0  0  0  0
 23 26  1  0  0  0  0
 25 24  1  0  0  0  0
 26 25  1  0  0  0  0
 26 24  1  0  0  0  0
 27 31  1  0  0  0  0
 28 29  1  0  0  0  0
 29 33  1  0  0  0  0
 30 32  1  0  0  0  0
 31 28  1  0  0  0  0
 31 30  1  0  0  0  0
 33 32  1  0  0  0  0
M  END
>  <MODEL>
9

>  <REMARK>
 VINA RESULT:      -8.0      2.293      5.175
  Name = 
  7 active torsions:
  status: ('A' for Active; 'I' for Inactive)
    1  A    between atoms: N_7  and  C_18
    2  A    between atoms: S_13  and  C_24
    3  A    between atoms: S_13  and  C_25
    4  A    between atoms: C_18  and  C_22
    5  A    between atoms: C_20  and  C_26
    6  A    between atoms: C_20  and  N_29
    7  A    between atoms: C_25  and  C_31
                            x       y       z     vdW  Elec       q    Type
                         _______ _______ _______ _____ _____    ______ ____

>  <TORSDO>
F 7

$$$$
