=
 OpenBabel11062418083D

 25 26  0  0  1  0  0  0  0  0999 V2000
  188.6480  175.9730  143.1900 C   0  0  0  0  0  3  0  0  0  0  0  0
  183.9040  178.4510  145.1330 C   0  0  0  0  0  2  0  0  0  0  0  0
  189.3550  177.7650  144.9030 C   0  0  0  0  0  2  0  0  0  0  0  0
  190.9690  176.0460  144.0580 C   0  0  0  0  0  2  0  0  0  0  0  0
  185.2050  178.0970  142.5000 C   0  0  2  0  0  3  0  0  0  0  0  0
  183.1150  178.4640  143.8500 C   0  0  0  0  0  0  0  0  0  0  0  0
  185.3040  179.0140  144.9250 C   0  0  2  0  0  3  0  0  0  0  0  0
  188.3140  177.1420  144.0190 C   0  0  0  0  0  0  0  0  0  0  0  0
  190.4000  176.7230  145.3070 C   0  0  1  0  0  3  0  0  0  0  0  0
  189.8710  175.4400  143.2270 C   0  0  0  0  0  3  0  0  0  0  0  0
  183.7160  178.2820  142.6680 C   0  0  0  0  0  3  0  0  0  0  0  0
  185.9690  178.2710  143.7860 C   0  0  0  0  0  0  0  0  0  0  0  0
  187.1440  177.7040  143.9060 C   0  0  0  0  0  0  0  0  0  0  0  0
  184.6700  179.6520  140.3700 O   0  0  0  0  0  0  0  0  0  0  0  0
  185.8160  179.1970  141.2300 S   0  0  0  0  0  0  0  0  0  0  0  0
  186.4660  180.3900  141.8750 O   0  0  0  0  0  0  0  0  0  0  0  0
  188.2880  178.4670  140.4760 C   0  0  0  0  0  2  0  0  0  0  0  0
  186.9880  178.3540  140.2310 C   0  0  0  0  0  3  0  0  0  0  0  0
  186.0480  178.9780  146.1950 C   0  0  0  0  0  0  0  0  0  0  0  0
  186.6560  178.9470  147.2370 C   0  0  0  0  0  3  0  0  0  0  0  0
  181.0090  179.3190  142.8940 N   0  0  0  0  0  1  0  0  0  0  0  0
  181.6960  178.6060  143.8840 N   0  0  0  0  0  2  0  0  0  0  0  0
  191.4290  177.3400  146.0180 O   0  0  0  0  0  0  0  0  0  0  0  0
  191.3240  176.8310  147.3130 C   0  0  0  0  0  2  0  0  0  0  0  0
  192.3400  175.7250  147.5060 C   0  0  0  0  0  1  0  0  0  0  0  0
  1 10  2  0  0  0  0
  1  8  1  0  0  0  0
  3  9  1  0  0  0  0
  4  9  1  0  0  0  0
  5 15  1  6  0  0  0
  5 11  1  0  0  0  0
  5 12  1  0  0  0  0
  6 22  1  0  0  0  0
  6  2  1  0  0  0  0
  7  2  1  0  0  0  0
  7 19  1  1  0  0  0
  8  3  1  0  0  0  0
  9 23  1  6  0  0  0
 10  4  1  0  0  0  0
 11  6  2  0  0  0  0
 12 13  2  0  0  0  0
 12  7  1  0  0  0  0
 13  8  2  0  0  0  0
 14 15  2  0  0  0  0
 15 16  2  0  0  0  0
 18 17  2  0  0  0  0
 18 15  1  0  0  0  0
 19 20  3  0  0  0  0
 21 22  1  0  0  0  0
 23 24  1  0  0  0  0
 24 25  1  0  0  0  0
M  END
>  <MODEL>
1

>  <REMARK>
 VINA RESULT:      -7.1      0.000      0.000
  Name = 
  6 active torsions:
  status: ('A' for Active; 'I' for Inactive)
    1  A    between atoms: C_3  and  C_17
    2  A    between atoms: O_4  and  C_9
    3  A    between atoms: O_4  and  C_20
    4  A    between atoms: S_6  and  C_12
    5  A    between atoms: S_6  and  C_15
    6  A    between atoms: C_13  and  N_14
                            x       y       z     vdW  Elec       q    Type
                         _______ _______ _______ _____ _____    ______ ____

>  <TORSDO>
F 6

$$$$
=
 OpenBabel11062418083D

 25 26  0  0  1  0  0  0  0  0999 V2000
  187.0410  176.9360  145.5230 C   0  0  0  0  0  3  0  0  0  0  0  0
  188.7580  177.0630  140.0950 C   0  0  0  0  0  2  0  0  0  0  0  0
  185.9010  178.9550  144.3970 C   0  0  0  0  0  2  0  0  0  0  0  0
  185.1780  178.1240  146.6470 C   0  0  0  0  0  2  0  0  0  0  0  0
  190.0560  177.1840  142.7510 C   0  0  2  0  0  3  0  0  0  0  0  0
  190.1850  176.6300  140.3010 C   0  0  0  0  0  0  0  0  0  0  0  0
  188.3820  178.1940  141.0450 C   0  0  2  0  0  3  0  0  0  0  0  0
  186.9370  177.8680  144.3890 C   0  0  0  0  0  0  0  0  0  0  0  0
  184.7030  178.5390  145.2520 C   0  0  1  0  0  3  0  0  0  0  0  0
  186.2060  177.0300  146.5610 C   0  0  0  0  0  3  0  0  0  0  0  0
  190.7520  176.6730  141.5130 C   0  0  0  0  0  3  0  0  0  0  0  0
  188.7000  177.7720  142.4630 C   0  0  0  0  0  0  0  0  0  0  0  0
  187.8130  177.8190  143.4280 C   0  0  0  0  0  0  0  0  0  0  0  0
  192.4440  178.4140  142.9170 O   0  0  0  0  0  0  0  0  0  0  0  0
  191.1040  178.3610  143.5970 S   0  0  0  0  0  0  0  0  0  0  0  0
  190.4630  179.7210  143.5530 O   0  0  0  0  0  0  0  0  0  0  0  0
  191.1670  176.5920  145.6160 C   0  0  0  0  0  2  0  0  0  0  0  0
  191.3230  177.8640  145.2660 C   0  0  0  0  0  3  0  0  0  0  0  0
  186.9800  178.5840  140.8230 C   0  0  0  0  0  0  0  0  0  0  0  0
  185.8310  178.9050  140.6390 C   0  0  0  0  0  3  0  0  0  0  0  0
  190.3370  175.3130  138.2220 N   0  0  0  0  0  1  0  0  0  0  0  0
  190.9380  176.1040  139.2090 N   0  0  0  0  0  2  0  0  0  0  0  0
  183.8080  179.6050  145.3580 O   0  0  0  0  0  0  0  0  0  0  0  0
  183.2310  179.7140  144.0920 C   0  0  0  0  0  2  0  0  0  0  0  0
  182.1190  178.6950  143.9540 C   0  0  0  0  0  1  0  0  0  0  0  0
  1 10  2  0  0  0  0
  2  6  1  0  0  0  0
  2  7  1  0  0  0  0
  3  9  1  0  0  0  0
  5 15  1  6  0  0  0
  6 11  2  0  0  0  0
  7 19  1  1  0  0  0
  7 12  1  0  0  0  0
  8  3  1  0  0  0  0
  8  1  1  0  0  0  0
  9 23  1  1  0  0  0
  9  4  1  0  0  0  0
 10  4  1  0  0  0  0
 11  5  1  0  0  0  0
 12  5  1  0  0  0  0
 12 13  2  0  0  0  0
 13  8  2  0  0  0  0
 14 15  2  0  0  0  0
 15 18  1  0  0  0  0
 16 15  2  0  0  0  0
 18 17  2  0  0  0  0
 20 19  3  0  0  0  0
 21 22  1  0  0  0  0
 22  6  1  0  0  0  0
 24 23  1  0  0  0  0
 25 24  1  0  0  0  0
M  END
>  <MODEL>
2

>  <REMARK>
 VINA RESULT:      -5.7      3.843      6.792
  Name = 
  6 active torsions:
  status: ('A' for Active; 'I' for Inactive)
    1  A    between atoms: C_3  and  C_17
    2  A    between atoms: O_4  and  C_9
    3  A    between atoms: O_4  and  C_20
    4  A    between atoms: S_6  and  C_12
    5  A    between atoms: S_6  and  C_15
    6  A    between atoms: C_13  and  N_14
                            x       y       z     vdW  Elec       q    Type
                         _______ _______ _______ _____ _____    ______ ____

>  <TORSDO>
F 6

$$$$
=
 OpenBabel11062418083D

 25 26  0  0  1  0  0  0  0  0999 V2000
  188.0160  176.0330  143.0840 C   0  0  0  0  0  3  0  0  0  0  0  0
  183.2760  178.6790  144.8040 C   0  0  0  0  0  2  0  0  0  0  0  0
  188.7310  178.0150  144.5690 C   0  0  0  0  0  2  0  0  0  0  0  0
  190.3490  176.2230  143.9020 C   0  0  0  0  0  2  0  0  0  0  0  0
  184.5420  178.0340  142.2090 C   0  0  2  0  0  3  0  0  0  0  0  0
  182.4690  178.5370  143.5410 C   0  0  0  0  0  0  0  0  0  0  0  0
  184.6680  179.2250  144.5100 C   0  0  2  0  0  3  0  0  0  0  0  0
  187.6830  177.2860  143.7790 C   0  0  0  0  0  0  0  0  0  0  0  0
  189.7920  177.0350  145.0740 C   0  0  1  0  0  3  0  0  0  0  0  0
  189.2450  175.5170  143.1630 C   0  0  0  0  0  3  0  0  0  0  0  0
  183.0550  178.2250  142.3780 C   0  0  0  0  0  3  0  0  0  0  0  0
  185.3230  178.3620  143.4540 C   0  0  0  0  0  0  0  0  0  0  0  0
  186.5060  177.8220  143.6200 C   0  0  0  0  0  0  0  0  0  0  0  0
  185.9730  180.1260  141.3030 O   0  0  0  0  0  0  0  0  0  0  0  0
  185.1240  178.9860  140.8110 S   0  0  0  0  0  0  0  0  0  0  0  0
  185.9410  178.1010  139.9110 O   0  0  0  0  0  0  0  0  0  0  0  0
  183.4000  179.1030  138.7550 C   0  0  0  0  0  2  0  0  0  0  0  0
  183.7540  179.6300  139.9230 C   0  0  0  0  0  3  0  0  0  0  0  0
  185.4310  179.3410  145.7650 C   0  0  0  0  0  0  0  0  0  0  0  0
  186.0550  179.4360  146.7940 C   0  0  0  0  0  3  0  0  0  0  0  0
  180.4040  179.7800  143.0230 N   0  0  0  0  0  1  0  0  0  0  0  0
  181.0490  178.6700  143.5800 N   0  0  0  0  0  2  0  0  0  0  0  0
  190.8250  177.7380  145.6930 O   0  0  0  0  0  0  0  0  0  0  0  0
  191.7620  177.9590  144.6820 C   0  0  0  0  0  2  0  0  0  0  0  0
  191.7590  179.4250  144.3030 C   0  0  0  0  0  1  0  0  0  0  0  0
  1 10  2  0  0  0  0
  1  8  1  0  0  0  0
  3  9  1  0  0  0  0
  4  9  1  0  0  0  0
  5 15  1  6  0  0  0
  5 11  1  0  0  0  0
  5 12  1  0  0  0  0
  6 22  1  0  0  0  0
  6  2  1  0  0  0  0
  7  2  1  0  0  0  0
  7 19  1  1  0  0  0
  8  3  1  0  0  0  0
  9 23  1  6  0  0  0
 10  4  1  0  0  0  0
 11  6  2  0  0  0  0
 12 13  2  0  0  0  0
 12  7  1  0  0  0  0
 13  8  2  0  0  0  0
 15 14  2  0  0  0  0
 16 15  2  0  0  0  0
 17 18  2  0  0  0  0
 18 15  1  0  0  0  0
 19 20  3  0  0  0  0
 21 22  1  0  0  0  0
 24 23  1  0  0  0  0
 25 24  1  0  0  0  0
M  END
>  <MODEL>
3

>  <REMARK>
 VINA RESULT:      -5.7      1.512      1.947
  Name = 
  6 active torsions:
  status: ('A' for Active; 'I' for Inactive)
    1  A    between atoms: C_3  and  C_17
    2  A    between atoms: O_4  and  C_9
    3  A    between atoms: O_4  and  C_20
    4  A    between atoms: S_6  and  C_12
    5  A    between atoms: S_6  and  C_15
    6  A    between atoms: C_13  and  N_14
                            x       y       z     vdW  Elec       q    Type
                         _______ _______ _______ _____ _____    ______ ____

>  <TORSDO>
F 6

$$$$
=
 OpenBabel11062418083D

 25 26  0  0  1  0  0  0  0  0999 V2000
  182.2020  175.7940  139.2340 C   0  0  0  0  0  3  0  0  0  0  0  0
  184.6200  178.6410  143.5320 C   0  0  0  0  0  2  0  0  0  0  0  0
  183.9700  177.3730  138.2200 C   0  0  0  0  0  2  0  0  0  0  0  0
  182.9100  175.5480  136.8710 C   0  0  0  0  0  2  0  0  0  0  0  0
  181.8860  178.3280  142.4460 C   0  0  2  0  0  3  0  0  0  0  0  0
  183.3980  178.8300  144.3920 C   0  0  0  0  0  0  0  0  0  0  0  0
  184.3500  179.0580  142.0910 C   0  0  2  0  0  3  0  0  0  0  0  0
  183.1240  176.9320  139.3790 C   0  0  0  0  0  0  0  0  0  0  0  0
  184.2350  176.1950  137.2800 C   0  0  1  0  0  3  0  0  0  0  0  0
  182.1210  175.1270  138.0800 C   0  0  0  0  0  3  0  0  0  0  0  0
  182.1680  178.6650  143.8900 C   0  0  0  0  0  3  0  0  0  0  0  0
  183.1240  178.3270  141.5890 C   0  0  0  0  0  0  0  0  0  0  0  0
  183.1270  177.6260  140.4810 C   0  0  0  0  0  0  0  0  0  0  0  0
  180.3450  180.5040  142.8090 O   0  0  0  0  0  0  0  0  0  0  0  0
  180.6470  179.4400  141.7910 S   0  0  0  0  0  0  0  0  0  0  0  0
  181.1660  180.0790  140.5330 O   0  0  0  0  0  0  0  0  0  0  0  0
  179.2410  177.3170  140.9380 C   0  0  0  0  0  2  0  0  0  0  0  0
  179.1780  178.5460  141.4380 C   0  0  0  0  0  3  0  0  0  0  0  0
  185.5610  178.8510  141.2790 C   0  0  0  0  0  0  0  0  0  0  0  0
  186.5520  178.6820  140.6120 C   0  0  0  0  0  3  0  0  0  0  0  0
  184.6850  178.7540  146.4930 N   0  0  0  0  0  1  0  0  0  0  0  0
  183.5390  179.1260  145.7800 N   0  0  0  0  0  2  0  0  0  0  0  0
  184.9100  176.6440  136.1440 O   0  0  0  0  0  0  0  0  0  0  0  0
  185.9330  177.4570  136.6340 C   0  0  0  0  0  2  0  0  0  0  0  0
  187.2560  176.7300  136.5170 C   0  0  0  0  0  1  0  0  0  0  0  0
  1  8  1  0  0  0  0
  2  6  1  0  0  0  0
  3  8  1  0  0  0  0
  4  9  1  0  0  0  0
  4 10  1  0  0  0  0
  5 15  1  6  0  0  0
  5 11  1  0  0  0  0
  6 22  1  0  0  0  0
  7 19  1  6  0  0  0
  7  2  1  0  0  0  0
  8 13  2  0  0  0  0
  9 23  1  6  0  0  0
  9  3  1  0  0  0  0
 10  1  2  0  0  0  0
 11  6  2  0  0  0  0
 12  7  1  0  0  0  0
 12  5  1  0  0  0  0
 13 12  2  0  0  0  0
 15 14  2  0  0  0  0
 16 15  2  0  0  0  0
 17 18  2  0  0  0  0
 18 15  1  0  0  0  0
 20 19  3  0  0  0  0
 22 21  1  0  0  0  0
 23 24  1  0  0  0  0
 25 24  1  0  0  0  0
M  END
>  <MODEL>
4

>  <REMARK>
 VINA RESULT:      -5.6      4.867      7.257
  Name = 
  6 active torsions:
  status: ('A' for Active; 'I' for Inactive)
    1  A    between atoms: C_3  and  C_17
    2  A    between atoms: O_4  and  C_9
    3  A    between atoms: O_4  and  C_20
    4  A    between atoms: S_6  and  C_12
    5  A    between atoms: S_6  and  C_15
    6  A    between atoms: C_13  and  N_14
                            x       y       z     vdW  Elec       q    Type
                         _______ _______ _______ _____ _____    ______ ____

>  <TORSDO>
F 6

$$$$
=
 OpenBabel11062418083D

 25 26  0  0  1  0  0  0  0  0999 V2000
  186.4690  179.1680  141.6430 C   0  0  0  0  0  3  0  0  0  0  0  0
  188.8230  178.0600  146.7080 C   0  0  0  0  0  2  0  0  0  0  0  0
  184.7310  177.8740  143.0390 C   0  0  0  0  0  2  0  0  0  0  0  0
  184.1070  179.0270  140.9050 C   0  0  0  0  0  2  0  0  0  0  0  0
  189.4440  177.4440  143.8820 C   0  0  2  0  0  3  0  0  0  0  0  0
  190.2300  177.7850  146.2460 C   0  0  0  0  0  0  0  0  0  0  0  0
  187.8100  177.2700  145.8900 C   0  0  2  0  0  3  0  0  0  0  0  0
  186.1370  178.3520  142.8220 C   0  0  0  0  0  0  0  0  0  0  0  0
  183.7370  178.8310  142.3770 C   0  0  1  0  0  3  0  0  0  0  0  0
  185.5230  179.5120  140.7650 C   0  0  0  0  0  3  0  0  0  0  0  0
  190.4970  177.5270  144.9600 C   0  0  0  0  0  3  0  0  0  0  0  0
  188.0410  177.5460  144.4200 C   0  0  0  0  0  0  0  0  0  0  0  0
  187.0850  177.9520  143.6200 C   0  0  0  0  0  0  0  0  0  0  0  0
  190.8170  175.1620  143.4930 O   0  0  0  0  0  0  0  0  0  0  0  0
  189.6640  175.9450  142.9300 S   0  0  0  0  0  0  0  0  0  0  0  0
  188.4090  175.1200  143.0040 O   0  0  0  0  0  0  0  0  0  0  0  0
  189.4040  177.3870  140.6790 C   0  0  0  0  0  2  0  0  0  0  0  0
  190.0050  176.3530  141.2570 C   0  0  0  0  0  3  0  0  0  0  0  0
  186.4480  177.5700  146.3610 C   0  0  0  0  0  0  0  0  0  0  0  0
  185.3310  177.8180  146.7460 C   0  0  0  0  0  3  0  0  0  0  0  0
  191.9740  176.7090  147.6180 N   0  0  0  0  0  1  0  0  0  0  0  0
  191.3140  177.8600  147.1710 N   0  0  0  0  0  2  0  0  0  0  0  0
  182.4470  178.3100  142.4740 O   0  0  0  0  0  0  0  0  0  0  0  0
  181.7990  179.1290  143.3990 C   0  0  0  0  0  2  0  0  0  0  0  0
  180.4800  178.4990  143.7940 C   0  0  0  0  0  1  0  0  0  0  0  0
  1  8  1  0  0  0  0
  4  9  1  0  0  0  0
  5 15  1  1  0  0  0
  5 12  1  0  0  0  0
  5 11  1  0  0  0  0
  6  2  1  0  0  0  0
  6 22  1  0  0  0  0
  7 19  1  1  0  0  0
  7  2  1  0  0  0  0
  8  3  1  0  0  0  0
  8 13  2  0  0  0  0
  9 23  1  6  0  0  0
  9  3  1  0  0  0  0
 10  4  1  0  0  0  0
 10  1  2  0  0  0  0
 11  6  2  0  0  0  0
 12  7  1  0  0  0  0
 13 12  2  0  0  0  0
 15 16  2  0  0  0  0
 15 14  2  0  0  0  0
 17 18  2  0  0  0  0
 18 15  1  0  0  0  0
 19 20  3  0  0  0  0
 22 21  1  0  0  0  0
 23 24  1  0  0  0  0
 24 25  1  0  0  0  0
M  END
>  <MODEL>
5

>  <REMARK>
 VINA RESULT:      -5.6      3.762      6.806
  Name = 
  6 active torsions:
  status: ('A' for Active; 'I' for Inactive)
    1  A    between atoms: C_3  and  C_17
    2  A    between atoms: O_4  and  C_9
    3  A    between atoms: O_4  and  C_20
    4  A    between atoms: S_6  and  C_12
    5  A    between atoms: S_6  and  C_15
    6  A    between atoms: C_13  and  N_14
                            x       y       z     vdW  Elec       q    Type
                         _______ _______ _______ _____ _____    ______ ____

>  <TORSDO>
F 6

$$$$
=
 OpenBabel11062418083D

 25 26  0  0  1  0  0  0  0  0999 V2000
  190.3100  174.2710  137.0310 C   0  0  0  0  0  3  0  0  0  0  0  0
  188.9100  177.8170  141.2610 C   0  0  0  0  0  2  0  0  0  0  0  0
  192.4560  175.5070  137.7480 C   0  0  0  0  0  2  0  0  0  0  0  0
  192.5340  173.5010  136.2510 C   0  0  0  0  0  2  0  0  0  0  0  0
  188.1050  177.4320  138.4410 C   0  0  2  0  0  3  0  0  0  0  0  0
  187.5580  178.2460  140.7560 C   0  0  0  0  0  0  0  0  0  0  0  0
  189.9690  177.9390  140.1720 C   0  0  2  0  0  3  0  0  0  0  0  0
  190.9620  175.3630  137.7710 C   0  0  0  0  0  0  0  0  0  0  0  0
  193.1160  174.1470  137.5100 C   0  0  1  0  0  3  0  0  0  0  0  0
  191.0370  173.3840  136.3480 C   0  0  0  0  0  3  0  0  0  0  0  0
  187.2020  178.0470  139.4820 C   0  0  0  0  0  3  0  0  0  0  0  0
  189.5030  177.1860  138.9450 C   0  0  0  0  0  0  0  0  0  0  0  0
  190.2350  176.2710  138.3590 C   0  0  0  0  0  0  0  0  0  0  0  0
  186.8320  179.2210  136.8850 O   0  0  0  0  0  0  0  0  0  0  0  0
  188.1190  178.4480  136.9680 S   0  0  0  0  0  0  0  0  0  0  0  0
  189.2780  179.4030  137.0340 O   0  0  0  0  0  0  0  0  0  0  0  0
  189.4100  177.3920  134.8640 C   0  0  0  0  0  2  0  0  0  0  0  0
  188.2720  177.4280  135.5480 C   0  0  0  0  0  3  0  0  0  0  0  0
  191.2740  177.5030  140.6970 C   0  0  0  0  0  0  0  0  0  0  0  0
  192.3440  177.1470  141.1280 C   0  0  0  0  0  3  0  0  0  0  0  0
  185.4110  179.3780  141.1910 N   0  0  0  0  0  1  0  0  0  0  0  0
  186.6070  178.8160  141.6540 N   0  0  0  0  0  2  0  0  0  0  0  0
  194.4930  174.3130  137.3610 O   0  0  0  0  0  0  0  0  0  0  0  0
  195.0600  173.4150  138.2670 C   0  0  0  0  0  2  0  0  0  0  0  0
  196.1100  174.1280  139.0930 C   0  0  0  0  0  1  0  0  0  0  0  0
  1  8  1  0  0  0  0
  3  8  1  0  0  0  0
  4 10  1  0  0  0  0
  4  9  1  0  0  0  0
  5 15  1  6  0  0  0
  5 12  1  0  0  0  0
  5 11  1  0  0  0  0
  6  2  1  0  0  0  0
  6 22  1  0  0  0  0
  7 19  1  1  0  0  0
  7  2  1  0  0  0  0
  8 13  2  0  0  0  0
  9 23  1  6  0  0  0
  9  3  1  0  0  0  0
 10  1  2  0  0  0  0
 11  6  2  0  0  0  0
 12  7  1  0  0  0  0
 13 12  2  0  0  0  0
 14 15  2  0  0  0  0
 15 16  2  0  0  0  0
 17 18  2  0  0  0  0
 18 15  1  0  0  0  0
 19 20  3  0  0  0  0
 21 22  1  0  0  0  0
 23 24  1  0  0  0  0
 24 25  1  0  0  0  0
M  END
>  <MODEL>
6

>  <REMARK>
 VINA RESULT:      -5.4      5.230      6.937
  Name = 
  6 active torsions:
  status: ('A' for Active; 'I' for Inactive)
    1  A    between atoms: C_3  and  C_17
    2  A    between atoms: O_4  and  C_9
    3  A    between atoms: O_4  and  C_20
    4  A    between atoms: S_6  and  C_12
    5  A    between atoms: S_6  and  C_15
    6  A    between atoms: C_13  and  N_14
                            x       y       z     vdW  Elec       q    Type
                         _______ _______ _______ _____ _____    ______ ____

>  <TORSDO>
F 6

$$$$
=
 OpenBabel11062418083D

 25 26  0  0  1  0  0  0  0  0999 V2000
  190.4310  174.3550  137.2170 C   0  0  0  0  0  3  0  0  0  0  0  0
  191.0630  177.2580  142.0750 C   0  0  0  0  0  2  0  0  0  0  0  0
  192.5230  175.8400  136.9650 C   0  0  0  0  0  2  0  0  0  0  0  0
  192.0080  174.0090  135.3360 C   0  0  0  0  0  2  0  0  0  0  0  0
  188.9750  177.0010  139.9950 C   0  0  2  0  0  3  0  0  0  0  0  0
  189.6090  177.5150  142.3730 C   0  0  0  0  0  0  0  0  0  0  0  0
  191.4060  177.6370  140.6390 C   0  0  2  0  0  3  0  0  0  0  0  0
  191.2670  175.4660  137.6980 C   0  0  0  0  0  0  0  0  0  0  0  0
  193.0880  174.6250  136.2280 C   0  0  1  0  0  3  0  0  0  0  0  0
  190.7860  173.6540  136.1380 C   0  0  0  0  0  3  0  0  0  0  0  0
  188.6740  177.3750  141.4260 C   0  0  0  0  0  3  0  0  0  0  0  0
  190.4500  176.9310  139.7020 C   0  0  0  0  0  0  0  0  0  0  0  0
  190.8620  176.1950  138.6990 C   0  0  0  0  0  0  0  0  0  0  0  0
  186.8820  178.6270  139.5260 O   0  0  0  0  0  0  0  0  0  0  0  0
  188.1480  178.1320  138.8830 S   0  0  0  0  0  0  0  0  0  0  0  0
  189.0540  179.2960  138.5910 O   0  0  0  0  0  0  0  0  0  0  0  0
  188.4150  177.5730  136.2690 C   0  0  0  0  0  2  0  0  0  0  0  0
  187.7490  177.3040  137.3870 C   0  0  0  0  0  3  0  0  0  0  0  0
  192.8300  177.3630  140.3800 C   0  0  0  0  0  0  0  0  0  0  0  0
  193.9960  177.1370  140.1680 C   0  0  0  0  0  3  0  0  0  0  0  0
  190.1310  178.0200  144.7300 N   0  0  0  0  0  1  0  0  0  0  0  0
  189.2000  177.8510  143.6980 N   0  0  0  0  0  2  0  0  0  0  0  0
  194.1780  175.0130  135.4480 O   0  0  0  0  0  0  0  0  0  0  0  0
  194.3230  176.3800  135.6940 C   0  0  0  0  0  2  0  0  0  0  0  0
  195.5520  176.8940  134.9740 C   0  0  0  0  0  1  0  0  0  0  0  0
  1  8  1  0  0  0  0
  2  6  1  0  0  0  0
  3  8  1  0  0  0  0
  4 10  1  0  0  0  0
  4  9  1  0  0  0  0
  5 15  1  6  0  0  0
  5 11  1  0  0  0  0
  6 22  1  0  0  0  0
  7 19  1  6  0  0  0
  7  2  1  0  0  0  0
  8 13  2  0  0  0  0
  9 23  1  6  0  0  0
  9  3  1  0  0  0  0
 10  1  2  0  0  0  0
 11  6  2  0  0  0  0
 12  5  1  0  0  0  0
 12  7  1  0  0  0  0
 13 12  2  0  0  0  0
 15 14  2  0  0  0  0
 16 15  2  0  0  0  0
 17 18  2  0  0  0  0
 18 15  1  0  0  0  0
 20 19  3  0  0  0  0
 22 21  1  0  0  0  0
 23 24  1  0  0  0  0
 25 24  1  0  0  0  0
M  END
>  <MODEL>
7

>  <REMARK>
 VINA RESULT:      -5.3      5.725      7.830
  Name = 
  6 active torsions:
  status: ('A' for Active; 'I' for Inactive)
    1  A    between atoms: C_3  and  C_17
    2  A    between atoms: O_4  and  C_9
    3  A    between atoms: O_4  and  C_20
    4  A    between atoms: S_6  and  C_12
    5  A    between atoms: S_6  and  C_15
    6  A    between atoms: C_13  and  N_14
                            x       y       z     vdW  Elec       q    Type
                         _______ _______ _______ _____ _____    ______ ____

>  <TORSDO>
F 6

$$$$
=
 OpenBabel11062418083D

 25 26  0  0  1  0  0  0  0  0999 V2000
  189.5960  176.0040  142.0680 C   0  0  0  0  0  3  0  0  0  0  0  0
  184.9790  177.9470  139.3610 C   0  0  0  0  0  2  0  0  0  0  0  0
  188.8500  178.1640  143.2610 C   0  0  0  0  0  2  0  0  0  0  0  0
  190.5420  176.6200  144.2750 C   0  0  0  0  0  2  0  0  0  0  0  0
  187.7870  177.3570  138.6420 C   0  0  2  0  0  3  0  0  0  0  0  0
  185.3810  177.5990  137.9520 C   0  0  0  0  0  0  0  0  0  0  0  0
  186.0940  178.6930  140.0840 C   0  0  2  0  0  3  0  0  0  0  0  0
  188.7790  177.2270  142.0900 C   0  0  0  0  0  0  0  0  0  0  0  0
  189.2500  177.4010  144.5260 C   0  0  1  0  0  3  0  0  0  0  0  0
  190.3940  175.7000  143.0950 C   0  0  0  0  0  3  0  0  0  0  0  0
  186.6530  177.3150  137.6470 C   0  0  0  0  0  3  0  0  0  0  0  0
  187.3690  177.8840  139.9900 C   0  0  0  0  0  0  0  0  0  0  0  0
  188.0740  177.5540  141.0450 C   0  0  0  0  0  0  0  0  0  0  0  0
  189.0860  178.2770  136.4720 O   0  0  0  0  0  0  0  0  0  0  0  0
  189.1500  178.3030  137.9730 S   0  0  0  0  0  0  0  0  0  0  0  0
  189.0560  179.7240  138.4580 O   0  0  0  0  0  0  0  0  0  0  0  0
  190.8010  176.2820  138.6080 C   0  0  0  0  0  2  0  0  0  0  0  0
  190.6710  177.6000  138.4970 C   0  0  0  0  0  3  0  0  0  0  0  0
  185.6700  179.0080  141.4590 C   0  0  0  0  0  0  0  0  0  0  0  0
  185.3250  179.2670  142.5850 C   0  0  0  0  0  3  0  0  0  0  0  0
  183.0540  177.8330  137.1720 N   0  0  0  0  0  1  0  0  0  0  0  0
  184.3920  177.5020  136.9280 N   0  0  0  0  0  2  0  0  0  0  0  0
  189.4400  178.3000  145.5760 O   0  0  0  0  0  0  0  0  0  0  0  0
  189.7970  177.5050  146.6660 C   0  0  0  0  0  2  0  0  0  0  0  0
  188.6390  177.4310  147.6380 C   0  0  0  0  0  1  0  0  0  0  0  0
  1  8  1  0  0  0  0
  1 10  2  0  0  0  0
  2  7  1  0  0  0  0
  3  9  1  0  0  0  0
  4  9  1  0  0  0  0
  5 15  1  6  0  0  0
  5 12  1  0  0  0  0
  6  2  1  0  0  0  0
  7 19  1  1  0  0  0
  8  3  1  0  0  0  0
  9 23  1  1  0  0  0
 10  4  1  0  0  0  0
 11  6  2  0  0  0  0
 11  5  1  0  0  0  0
 12  7  1  0  0  0  0
 12 13  2  0  0  0  0
 13  8  2  0  0  0  0
 14 15  2  0  0  0  0
 15 16  2  0  0  0  0
 15 18  1  0  0  0  0
 18 17  2  0  0  0  0
 19 20  3  0  0  0  0
 22 21  1  0  0  0  0
 22  6  1  0  0  0  0
 23 24  1  0  0  0  0
 24 25  1  0  0  0  0
M  END
>  <MODEL>
8

>  <REMARK>
 VINA RESULT:      -5.2      3.135      4.341
  Name = 
  6 active torsions:
  status: ('A' for Active; 'I' for Inactive)
    1  A    between atoms: C_3  and  C_17
    2  A    between atoms: O_4  and  C_9
    3  A    between atoms: O_4  and  C_20
    4  A    between atoms: S_6  and  C_12
    5  A    between atoms: S_6  and  C_15
    6  A    between atoms: C_13  and  N_14
                            x       y       z     vdW  Elec       q    Type
                         _______ _______ _______ _____ _____    ______ ____

>  <TORSDO>
F 6

$$$$
=
 OpenBabel11062418083D

 25 26  0  0  1  0  0  0  0  0999 V2000
  184.2990  176.4300  137.1330 C   0  0  0  0  0  3  0  0  0  0  0  0
  184.5710  178.3830  142.4750 C   0  0  0  0  0  2  0  0  0  0  0  0
  186.4280  177.8710  137.3230 C   0  0  0  0  0  2  0  0  0  0  0  0
  186.0210  176.3830  135.3500 C   0  0  0  0  0  2  0  0  0  0  0  0
  182.6600  178.5730  140.2250 C   0  0  2  0  0  3  0  0  0  0  0  0
  183.1020  178.6270  142.7000 C   0  0  0  0  0  0  0  0  0  0  0  0
  185.0390  179.0050  141.1650 C   0  0  2  0  0  3  0  0  0  0  0  0
  185.1100  177.4090  137.8740 C   0  0  0  0  0  0  0  0  0  0  0  0
  187.0330  176.7930  136.4220 C   0  0  1  0  0  3  0  0  0  0  0  0
  184.7310  175.9260  135.9740 C   0  0  0  0  0  3  0  0  0  0  0  0
  182.2470  178.6900  141.6720 C   0  0  0  0  0  3  0  0  0  0  0  0
  184.1530  178.5110  140.0410 C   0  0  0  0  0  0  0  0  0  0  0  0
  184.6350  177.9570  138.9560 C   0  0  0  0  0  0  0  0  0  0  0  0
  180.8110  180.5210  140.0520 O   0  0  0  0  0  0  0  0  0  0  0  0
  181.9460  179.9120  139.2770 S   0  0  0  0  0  0  0  0  0  0  0  0
  182.9980  180.9540  139.0190 O   0  0  0  0  0  0  0  0  0  0  0  0
  181.0090  178.0140  137.6240 C   0  0  0  0  0  2  0  0  0  0  0  0
  181.3370  179.2950  137.7510 C   0  0  0  0  0  3  0  0  0  0  0  0
  186.4750  178.7390  140.9730 C   0  0  0  0  0  0  0  0  0  0  0  0
  187.6510  178.5210  140.8180 C   0  0  0  0  0  3  0  0  0  0  0  0
  183.4270  179.0030  145.1150 N   0  0  0  0  0  1  0  0  0  0  0  0
  182.5890  178.7290  144.0270 N   0  0  0  0  0  2  0  0  0  0  0  0
  188.1900  177.2830  135.8150 O   0  0  0  0  0  0  0  0  0  0  0  0
  188.7930  178.0820  136.7880 C   0  0  0  0  0  2  0  0  0  0  0  0
  190.0050  177.3680  137.3480 C   0  0  0  0  0  1  0  0  0  0  0  0
  1  8  1  0  0  0  0
  2  6  1  0  0  0  0
  3  8  1  0  0  0  0
  4 10  1  0  0  0  0
  4  9  1  0  0  0  0
  5 15  1  6  0  0  0
  5 11  1  0  0  0  0
  6 22  1  0  0  0  0
  7 19  1  6  0  0  0
  7  2  1  0  0  0  0
  8 13  2  0  0  0  0
  9 23  1  6  0  0  0
  9  3  1  0  0  0  0
 10  1  2  0  0  0  0
 11  6  2  0  0  0  0
 12  5  1  0  0  0  0
 12  7  1  0  0  0  0
 13 12  2  0  0  0  0
 15 14  2  0  0  0  0
 16 15  2  0  0  0  0
 17 18  2  0  0  0  0
 18 15  1  0  0  0  0
 20 19  3  0  0  0  0
 22 21  1  0  0  0  0
 23 24  1  0  0  0  0
 24 25  1  0  0  0  0
M  END
>  <MODEL>
9

>  <REMARK>
 VINA RESULT:      -5.1      4.459      6.659
  Name = 
  6 active torsions:
  status: ('A' for Active; 'I' for Inactive)
    1  A    between atoms: C_3  and  C_17
    2  A    between atoms: O_4  and  C_9
    3  A    between atoms: O_4  and  C_20
    4  A    between atoms: S_6  and  C_12
    5  A    between atoms: S_6  and  C_15
    6  A    between atoms: C_13  and  N_14
                            x       y       z     vdW  Elec       q    Type
                         _______ _______ _______ _____ _____    ______ ____

>  <TORSDO>
F 6

$$$$
