=
 OpenBabel11062412073D

 54 58  0  0  1  0  0  0  0  0999 V2000
  183.5170  178.3350  141.6260 C   0  0  0  0  0  0  0  0  0  0  0  0
  184.6100  179.2250  143.6170 C   0  0  0  0  0  0  0  0  0  0  0  0
  182.1120  178.8670  143.6530 C   0  0  0  0  0  1  0  0  0  0  0  0
  185.8410  179.1540  142.9480 C   0  0  0  0  0  3  0  0  0  0  0  0
  183.4370  178.8090  142.9510 C   0  0  0  0  0  0  0  0  0  0  0  0
  185.9140  178.7170  141.6230 C   0  0  0  0  0  0  0  0  0  0  0  0
  184.7530  178.2900  140.9740 C   0  0  0  0  0  3  0  0  0  0  0  0
  184.5550  179.7130  145.0510 C   0  0  1  0  0  3  0  0  0  0  0  0
  184.2010  178.6210  146.0460 C   0  0  0  0  0  2  0  0  0  0  0  0
  185.6340  179.1090  145.9710 C   0  0  1  0  0  3  0  0  0  0  0  0
  186.4950  178.0170  145.3410 C   0  0  0  0  0  2  0  0  0  0  0  0
  187.2390  177.2380  146.4120 C   0  0  0  0  0  2  0  0  0  0  0  0
  187.4030  178.4970  148.4130 F   0  0  0  0  0  0  0  0  0  0  0  0
  188.0980  178.1590  147.2660 C   0  0  1  0  0  3  0  0  0  0  0  0
  190.1630  178.0250  148.6710 O   0  0  0  0  0  1  0  0  0  0  0  0
  189.7740  176.4850  147.0190 O   0  0  0  0  0  0  0  0  0  0  0  0
  189.3840  177.5040  147.6440 C   0  0  0  0  0  0  0  0  0  0  0  0
  188.2060  177.6900  141.4110 N   0  0  0  0  0  0  0  0  0  0  0  0
  188.2570  179.0280  141.7680 O   0  0  0  0  0  0  0  0  0  0  0  0
  187.2500  178.6800  140.9180 C   0  0  2  0  0  3  0  0  0  0  0  0
  187.7840  176.9670  142.6120 C   0  0  0  0  0  2  0  0  0  0  0  0
  188.9490  176.1750  143.1800 C   0  0  0  0  0  2  0  0  0  0  0  0
  189.9860  176.0260  142.1710 N   0  0  0  0  0  2  0  0  0  0  0  0
  191.5830  177.8590  143.1930 S   0  0  0  0  0  0  0  0  0  0  0  0
  191.0480  176.9610  141.9390 C   0  0  0  0  0  0  0  0  0  0  0  0
  191.7130  177.0850  140.6760 N   0  0  0  0  0  2  0  0  0  0  0  0
  191.1280  177.6910  139.4910 C   0  0  0  0  0  2  0  0  0  0  0  0
  190.9760  176.6440  138.3930 C   0  0  1  0  0  3  0  0  0  0  0  0
  190.2630  177.2040  137.2540 N   0  0  0  0  0  2  0  0  0  0  0  0
  188.9940  177.7110  137.7510 C   0  0  0  0  0  1  0  0  0  0  0  0
  192.3230  176.0620  137.9550 C   0  0  0  0  0  2  0  0  0  0  0  0
  192.2620  174.5940  137.6820 C   0  0  0  0  0  0  0  0  0  0  0  0
  191.0340  173.9490  137.6100 O   0  0  0  0  0  1  0  0  0  0  0  0
  193.3240  173.9460  137.5030 O   0  0  0  0  0  0  0  0  0  0  0  0
  182.3130  177.8370  140.8840 C   0  0  0  0  0  2  0  0  0  0  0  0
  181.3940  178.9920  137.4110 O   0  0  0  0  0  0  0  0  0  0  0  0
  180.6300  179.5730  140.1250 C   0  0  0  0  0  2  0  0  0  0  0  0
  181.7200  178.0740  138.4360 C   0  0  1  0  0  3  0  0  0  0  0  0
  180.1910  180.4470  138.9540 C   0  0  0  0  0  0  0  0  0  0  0  0
  178.9320  180.9710  139.2520 O   0  0  0  0  0  1  0  0  0  0  0  0
  180.1300  179.5800  137.6720 C   0  0  1  0  0  3  0  0  0  0  0  0
  181.9010  178.8010  139.7730 C   0  0  2  0  0  3  0  0  0  0  0  0
  181.0980  181.4960  138.7860 O   0  0  0  0  0  1  0  0  0  0  0  0
  181.9970  173.8070  137.2140 N   0  0  0  0  0  0  0  0  0  0  0  0
  180.7740  173.5980  137.5740 C   0  0  0  0  0  0  0  0  0  0  0  0
  181.0070  175.6670  138.0800 C   0  0  0  0  0  0  0  0  0  0  0  0
  180.1150  172.2750  137.4280 C   0  0  0  0  0  1  0  0  0  0  0  0
  180.1190  174.7330  138.1160 N   0  0  0  0  0  0  0  0  0  0  0  0
  182.2980  175.2010  137.5020 C   0  0  0  0  0  2  0  0  0  0  0  0
  180.7350  176.9950  138.5270 N   0  0  0  0  0  2  0  0  0  0  0  0
  179.6560  180.3620  136.4350 C   0  0  2  0  0  3  0  0  0  0  0  0
  178.9310  179.5270  135.5840 O   0  0  0  0  0  1  0  0  0  0  0  0
  180.6290  182.2690  135.3660 O   0  0  0  0  0  1  0  0  0  0  0  0
  180.8370  180.9210  135.6560 C   0  0  0  0  0  2  0  0  0  0  0  0
  1  5  1  0  0  0  0
  4  2  1  0  0  0  0
  5  2  2  0  0  0  0
  5  3  1  0  0  0  0
  6  4  2  0  0  0  0
  7  6  1  0  0  0  0
  7  1  2  0  0  0  0
  8  2  1  6  0  0  0
  8 10  1  0  0  0  0
  8  9  1  0  0  0  0
 10 11  1  6  0  0  0
 10  9  1  0  0  0  0
 11 12  1  0  0  0  0
 12 14  1  0  0  0  0
 14 17  1  0  0  0  0
 14 13  1  1  0  0  0
 16 17  2  0  0  0  0
 17 15  1  0  0  0  0
 18 19  1  0  0  0  0
 18 21  1  0  0  0  0
 20 18  1  0  0  0  0
 20  6  1  1  0  0  0
 20 19  1  0  0  0  0
 21 22  1  0  0  0  0
 23 22  1  0  0  0  0
 25 23  1  0  0  0  0
 25 24  2  0  0  0  0
 26 25  1  0  0  0  0
 27 26  1  0  0  0  0
 28 31  1  6  0  0  0
 28 27  1  0  0  0  0
 29 30  1  0  0  0  0
 29 28  1  0  0  0  0
 32 31  1  0  0  0  0
 33 32  1  0  0  0  0
 34 32  2  0  0  0  0
 35  1  1  0  0  0  0
 36 41  1  0  0  0  0
 36 38  1  0  0  0  0
 38 50  1  1  0  0  0
 38 42  1  0  0  0  0
 39 40  1  0  0  0  0
 39 37  1  0  0  0  0
 41 51  1  6  0  0  0
 41 39  1  0  0  0  0
 42 37  1  0  0  0  0
 42 35  1  1  0  0  0
 43 39  1  0  0  0  0
 44 49  1  0  0  0  0
 44 45  2  0  0  0  0
 45 48  1  0  0  0  0
 46 48  2  0  0  0  0
 46 50  1  0  0  0  0
 47 45  1  0  0  0  0
 49 46  1  0  0  0  0
 51 52  1  6  0  0  0
 53 54  1  0  0  0  0
 54 51  1  0  0  0  0
M  END
>  <MODEL>
1

>  <REMARK>
 VINA RESULT:      -7.0      0.000      0.000
  Name = 
  21 active torsions:
  status: ('A' for Active; 'I' for Inactive)
    1  A    between atoms: C_1  and  C_35
    2  A    between atoms: C_2  and  C_6
    3  A    between atoms: C_5  and  C_8
    4  A    between atoms: C_5  and  C_48
    5  A    between atoms: N_12  and  C_38
    6  A    between atoms: N_12  and  C_44
    7  A    between atoms: C_17  and  C_41
    8  A    between atoms: C_17  and  C_51
    9  A    between atoms: N_18  and  C_42
   10  A    between atoms: C_19  and  N_31
   11  A    between atoms: C_21  and  C_43
   12  A    between atoms: C_21  and  C_47
   13  A    between atoms: C_23  and  C_37
   14  A    between atoms: C_23  and  C_47
   15  A    between atoms: N_27  and  C_48
   16  A    between atoms: C_35  and  C_46
   17  A    between atoms: N_36  and  C_44
   18  A    between atoms: N_36  and  C_54
   19  A    between atoms: C_38  and  C_42
   20  A    between atoms: C_45  and  C_50
   21  A    between atoms: C_48  and  C_54
                            x       y       z     vdW  Elec       q    Type
                         _______ _______ _______ _____ _____    ______ ____

>  <TORSDO>
F 21

$$$$
=
 OpenBabel11062412073D

 54 58  0  0  1  0  0  0  0  0999 V2000
  183.9220  178.1770  141.9510 C   0  0  0  0  0  0  0  0  0  0  0  0
  185.0960  179.0230  143.9150 C   0  0  0  0  0  0  0  0  0  0  0  0
  182.6100  178.6100  144.0630 C   0  0  0  0  0  1  0  0  0  0  0  0
  186.2930  179.0010  143.1830 C   0  0  0  0  0  3  0  0  0  0  0  0
  183.8990  178.6040  143.2950 C   0  0  0  0  0  0  0  0  0  0  0  0
  186.3070  178.6100  141.8430 C   0  0  0  0  0  0  0  0  0  0  0  0
  185.1230  178.1800  141.2370 C   0  0  0  0  0  3  0  0  0  0  0  0
  185.1040  179.4610  145.3660 C   0  0  1  0  0  3  0  0  0  0  0  0
  184.6170  178.3860  146.3230 C   0  0  0  0  0  2  0  0  0  0  0  0
  186.0990  178.6930  146.2580 C   0  0  1  0  0  3  0  0  0  0  0  0
  186.8170  177.5260  145.5830 C   0  0  0  0  0  2  0  0  0  0  0  0
  188.3130  177.7840  145.5190 C   0  0  0  0  0  2  0  0  0  0  0  0
  188.2700  176.4720  147.4910 F   0  0  0  0  0  0  0  0  0  0  0  0
  188.9840  177.4640  146.8450 C   0  0  1  0  0  3  0  0  0  0  0  0
  191.2780  176.9740  147.7150 O   0  0  0  0  0  1  0  0  0  0  0  0
  190.7800  176.6670  145.4990 O   0  0  0  0  0  0  0  0  0  0  0  0
  190.3910  177.0080  146.6450 C   0  0  0  0  0  0  0  0  0  0  0  0
  187.4840  178.6260  139.6140 N   0  0  0  0  0  0  0  0  0  0  0  0
  187.7550  177.4820  140.3470 O   0  0  0  0  0  0  0  0  0  0  0  0
  187.6060  178.6270  141.0710 C   0  0  2  0  0  3  0  0  0  0  0  0
  186.1190  178.4660  139.1080 C   0  0  0  0  0  2  0  0  0  0  0  0
  186.1420  178.2630  137.6030 C   0  0  0  0  0  2  0  0  0  0  0  0
  187.4450  178.6330  137.0720 N   0  0  0  0  0  2  0  0  0  0  0  0
  187.6340  177.4970  134.7000 S   0  0  0  0  0  0  0  0  0  0  0  0
  188.2300  177.8260  136.1830 C   0  0  0  0  0  0  0  0  0  0  0  0
  189.5460  177.3630  136.5100 N   0  0  0  0  0  2  0  0  0  0  0  0
  189.8350  176.1130  137.1930 C   0  0  0  0  0  2  0  0  0  0  0  0
  191.1010  176.2580  138.0310 C   0  0  1  0  0  3  0  0  0  0  0  0
  190.7920  176.1160  139.4460 N   0  0  0  0  0  2  0  0  0  0  0  0
  191.2740  177.3150  140.1120 C   0  0  0  0  0  1  0  0  0  0  0  0
  192.1910  175.2670  137.6130 C   0  0  0  0  0  2  0  0  0  0  0  0
  193.5650  175.8520  137.6730 C   0  0  0  0  0  0  0  0  0  0  0  0
  194.5170  175.3090  138.5260 O   0  0  0  0  0  1  0  0  0  0  0  0
  193.8630  176.8280  136.9380 O   0  0  0  0  0  0  0  0  0  0  0  0
  182.6920  177.6790  141.2530 C   0  0  0  0  0  2  0  0  0  0  0  0
  181.5710  178.8860  137.8580 O   0  0  0  0  0  0  0  0  0  0  0  0
  180.9750  179.4310  140.6210 C   0  0  0  0  0  2  0  0  0  0  0  0
  181.9540  177.9520  138.8490 C   0  0  1  0  0  3  0  0  0  0  0  0
  180.4700  180.3240  139.4900 C   0  0  0  0  0  0  0  0  0  0  0  0
  179.2340  180.8490  139.8710 O   0  0  0  0  0  1  0  0  0  0  0  0
  180.3280  179.4750  138.2030 C   0  0  1  0  0  3  0  0  0  0  0  0
  182.2180  178.6600  140.1830 C   0  0  2  0  0  3  0  0  0  0  0  0
  181.3700  181.3720  139.2830 O   0  0  0  0  0  1  0  0  0  0  0  0
  181.9530  173.8230  137.1960 N   0  0  0  0  0  0  0  0  0  0  0  0
  180.7940  173.5880  137.7150 C   0  0  0  0  0  0  0  0  0  0  0  0
  181.1450  175.5960  138.3760 C   0  0  0  0  0  0  0  0  0  0  0  0
  180.0920  172.2900  137.5450 C   0  0  0  0  0  1  0  0  0  0  0  0
  180.2520  174.6690  138.4570 N   0  0  0  0  0  0  0  0  0  0  0  0
  182.3230  175.1800  137.5680 C   0  0  0  0  0  2  0  0  0  0  0  0
  180.9710  176.8760  138.9850 N   0  0  0  0  0  2  0  0  0  0  0  0
  179.7840  180.2770  137.0070 C   0  0  2  0  0  3  0  0  0  0  0  0
  178.9310  179.4810  136.2410 O   0  0  0  0  0  1  0  0  0  0  0  0
  180.4920  180.8050  134.7830 O   0  0  0  0  0  1  0  0  0  0  0  0
  180.9160  180.7560  136.1110 C   0  0  0  0  0  2  0  0  0  0  0  0
  1  5  1  0  0  0  0
  4  2  1  0  0  0  0
  5  2  2  0  0  0  0
  5  3  1  0  0  0  0
  6  4  2  0  0  0  0
  7  6  1  0  0  0  0
  7  1  2  0  0  0  0
  8  2  1  6  0  0  0
  8 10  1  0  0  0  0
  8  9  1  0  0  0  0
 10 11  1  6  0  0  0
 10  9  1  0  0  0  0
 12 11  1  0  0  0  0
 12 14  1  0  0  0  0
 14 13  1  6  0  0  0
 16 17  2  0  0  0  0
 17 14  1  0  0  0  0
 17 15  1  0  0  0  0
 18 19  1  0  0  0  0
 18 20  1  0  0  0  0
 19 20  1  0  0  0  0
 20  6  1  1  0  0  0
 21 18  1  0  0  0  0
 22 21  1  0  0  0  0
 23 22  1  0  0  0  0
 24 25  2  0  0  0  0
 25 26  1  0  0  0  0
 25 23  1  0  0  0  0
 26 27  1  0  0  0  0
 28 27  1  6  0  0  0
 28 29  1  0  0  0  0
 29 30  1  0  0  0  0
 31 32  1  0  0  0  0
 31 28  1  0  0  0  0
 32 33  1  0  0  0  0
 34 32  2  0  0  0  0
 35  1  1  0  0  0  0
 36 41  1  0  0  0  0
 36 38  1  0  0  0  0
 38 50  1  1  0  0  0
 38 42  1  0  0  0  0
 39 40  1  0  0  0  0
 39 37  1  0  0  0  0
 41 51  1  6  0  0  0
 41 39  1  0  0  0  0
 42 37  1  0  0  0  0
 42 35  1  1  0  0  0
 43 39  1  0  0  0  0
 44 49  1  0  0  0  0
 44 45  2  0  0  0  0
 45 48  1  0  0  0  0
 46 48  2  0  0  0  0
 46 50  1  0  0  0  0
 47 45  1  0  0  0  0
 49 46  1  0  0  0  0
 51 52  1  6  0  0  0
 53 54  1  0  0  0  0
 54 51  1  0  0  0  0
M  END
>  <MODEL>
2

>  <REMARK>
 VINA RESULT:      -6.9      1.812      2.528
  Name = 
  21 active torsions:
  status: ('A' for Active; 'I' for Inactive)
    1  A    between atoms: C_1  and  C_35
    2  A    between atoms: C_2  and  C_6
    3  A    between atoms: C_5  and  C_8
    4  A    between atoms: C_5  and  C_48
    5  A    between atoms: N_12  and  C_38
    6  A    between atoms: N_12  and  C_44
    7  A    between atoms: C_17  and  C_41
    8  A    between atoms: C_17  and  C_51
    9  A    between atoms: N_18  and  C_42
   10  A    between atoms: C_19  and  N_31
   11  A    between atoms: C_21  and  C_43
   12  A    between atoms: C_21  and  C_47
   13  A    between atoms: C_23  and  C_37
   14  A    between atoms: C_23  and  C_47
   15  A    between atoms: N_27  and  C_48
   16  A    between atoms: C_35  and  C_46
   17  A    between atoms: N_36  and  C_44
   18  A    between atoms: N_36  and  C_54
   19  A    between atoms: C_38  and  C_42
   20  A    between atoms: C_45  and  C_50
   21  A    between atoms: C_48  and  C_54
                            x       y       z     vdW  Elec       q    Type
                         _______ _______ _______ _____ _____    ______ ____

>  <TORSDO>
F 21

$$$$
=
 OpenBabel11062412073D

 54 58  0  0  1  0  0  0  0  0999 V2000
  186.0810  177.4320  136.1930 C   0  0  0  0  0  0  0  0  0  0  0  0
  188.0940  176.2000  135.5780 C   0  0  0  0  0  0  0  0  0  0  0  0
  185.8810  175.4910  134.5940 C   0  0  0  0  0  1  0  0  0  0  0  0
  188.8450  177.0570  136.3960 C   0  0  0  0  0  3  0  0  0  0  0  0
  186.7000  176.3900  135.4720 C   0  0  0  0  0  0  0  0  0  0  0  0
  188.2250  178.0670  137.1360 C   0  0  0  0  0  0  0  0  0  0  0  0
  186.8470  178.2630  137.0160 C   0  0  0  0  0  3  0  0  0  0  0  0
  188.7870  175.1040  134.7920 C   0  0  1  0  0  3  0  0  0  0  0  0
  190.0700  174.6150  135.4430 C   0  0  0  0  0  2  0  0  0  0  0  0
  188.8350  173.7400  135.5070 C   0  0  1  0  0  3  0  0  0  0  0  0
  188.3080  173.7340  136.9410 C   0  0  0  0  0  2  0  0  0  0  0  0
  187.4330  172.5150  137.1830 C   0  0  0  0  0  2  0  0  0  0  0  0
  185.9280  174.2990  137.5930 F   0  0  0  0  0  0  0  0  0  0  0  0
  186.0330  172.9200  137.6160 C   0  0  1  0  0  3  0  0  0  0  0  0
  183.7710  171.9240  137.2300 O   0  0  0  0  0  1  0  0  0  0  0  0
  185.2390  172.1930  135.4910 O   0  0  0  0  0  0  0  0  0  0  0  0
  184.9970  172.3330  136.7170 C   0  0  0  0  0  0  0  0  0  0  0  0
  189.8050  178.2760  139.0890 N   0  0  0  0  0  0  0  0  0  0  0  0
  188.5960  178.9160  139.3150 O   0  0  0  0  0  0  0  0  0  0  0  0
  189.0550  178.9550  138.0330 C   0  0  2  0  0  3  0  0  0  0  0  0
  189.5330  176.8430  139.2160 C   0  0  0  0  0  2  0  0  0  0  0  0
  189.8900  176.3670  140.6140 C   0  0  0  0  0  2  0  0  0  0  0  0
  190.0490  177.5090  141.5010 N   0  0  0  0  0  2  0  0  0  0  0  0
  189.9290  178.3470  143.9980 S   0  0  0  0  0  0  0  0  0  0  0  0
  189.2210  177.7870  142.6380 C   0  0  0  0  0  0  0  0  0  0  0  0
  187.7930  177.6700  142.6080 N   0  0  0  0  0  2  0  0  0  0  0  0
  186.9410  177.6610  143.7850 C   0  0  0  0  0  2  0  0  0  0  0  0
  185.6470  178.4140  143.4970 C   0  0  1  0  0  3  0  0  0  0  0  0
  185.1410  178.0660  142.1770 N   0  0  0  0  0  2  0  0  0  0  0  0
  183.8710  178.7540  142.0100 C   0  0  0  0  0  1  0  0  0  0  0  0
  184.5800  178.1670  144.5680 C   0  0  0  0  0  2  0  0  0  0  0  0
  184.9560  178.7220  145.9030 C   0  0  0  0  0  0  0  0  0  0  0  0
  185.8520  179.7810  145.9900 O   0  0  0  0  0  0  0  0  0  0  0  0
  184.4480  178.2410  146.9470 O   0  0  0  0  0  1  0  0  0  0  0  0
  184.6120  177.7120  136.0860 C   0  0  0  0  0  2  0  0  0  0  0  0
  182.2370  177.5200  139.0130 O   0  0  0  0  0  0  0  0  0  0  0  0
  183.0430  175.8570  136.8060 C   0  0  0  0  0  2  0  0  0  0  0  0
  182.9030  178.1050  137.9100 C   0  0  1  0  0  3  0  0  0  0  0  0
  182.2010  175.3210  137.9600 C   0  0  0  0  0  0  0  0  0  0  0  0
  181.3550  174.3320  137.4570 O   0  0  0  0  0  1  0  0  0  0  0  0
  181.3780  176.4850  138.5660 C   0  0  1  0  0  3  0  0  0  0  0  0
  183.8360  177.0860  137.2430 C   0  0  2  0  0  3  0  0  0  0  0  0
  183.0370  174.7630  138.9300 O   0  0  0  0  0  1  0  0  0  0  0  0
  180.7820  182.0130  137.9760 N   0  0  0  0  0  0  0  0  0  0  0  0
  180.1660  181.7260  136.8790 C   0  0  0  0  0  0  0  0  0  0  0  0
  181.3730  179.9750  137.1450 C   0  0  0  0  0  0  0  0  0  0  0  0
  179.1850  182.6480  136.2500 C   0  0  0  0  0  1  0  0  0  0  0  0
  180.5020  180.4620  136.3290 N   0  0  0  0  0  0  0  0  0  0  0  0
  181.6530  180.8890  138.2870 C   0  0  0  0  0  2  0  0  0  0  0  0
  181.9580  178.6870  136.9560 N   0  0  0  0  0  2  0  0  0  0  0  0
  180.4590  176.0400  139.7180 C   0  0  2  0  0  3  0  0  0  0  0  0
  179.2000  175.6950  139.2260 O   0  0  0  0  0  1  0  0  0  0  0  0
  179.4250  176.7440  141.7580 O   0  0  0  0  0  1  0  0  0  0  0  0
  180.2800  177.1570  140.7350 C   0  0  0  0  0  2  0  0  0  0  0  0
  1  7  1  0  0  0  0
  2  4  2  0  0  0  0
  3  5  1  0  0  0  0
  4  6  1  0  0  0  0
  5  2  1  0  0  0  0
  5  1  2  0  0  0  0
  7  6  2  0  0  0  0
  8  9  1  0  0  0  0
  8 10  1  0  0  0  0
  8  2  1  1  0  0  0
  9 10  1  0  0  0  0
 10 11  1  1  0  0  0
 11 12  1  0  0  0  0
 12 14  1  0  0  0  0
 14 13  1  6  0  0  0
 16 17  2  0  0  0  0
 17 15  1  0  0  0  0
 17 14  1  0  0  0  0
 18 21  1  0  0  0  0
 18 19  1  0  0  0  0
 20  6  1  6  0  0  0
 20 18  1  0  0  0  0
 20 19  1  0  0  0  0
 21 22  1  0  0  0  0
 22 23  1  0  0  0  0
 23 25  1  0  0  0  0
 25 24  2  0  0  0  0
 26 25  1  0  0  0  0
 26 27  1  0  0  0  0
 28 27  1  1  0  0  0
 28 31  1  0  0  0  0
 29 28  1  0  0  0  0
 30 29  1  0  0  0  0
 31 32  1  0  0  0  0
 32 33  2  0  0  0  0
 32 34  1  0  0  0  0
 35  1  1  0  0  0  0
 37 42  1  0  0  0  0
 37 39  1  0  0  0  0
 38 50  1  6  0  0  0
 38 36  1  0  0  0  0
 39 41  1  0  0  0  0
 39 43  1  0  0  0  0
 40 39  1  0  0  0  0
 41 36  1  0  0  0  0
 41 51  1  1  0  0  0
 42 35  1  6  0  0  0
 42 38  1  0  0  0  0
 44 49  1  0  0  0  0
 45 44  2  0  0  0  0
 46 49  1  0  0  0  0
 47 45  1  0  0  0  0
 48 45  1  0  0  0  0
 48 46  2  0  0  0  0
 50 46  1  0  0  0  0
 51 52  1  6  0  0  0
 51 54  1  0  0  0  0
 54 53  1  0  0  0  0
M  END
>  <MODEL>
3

>  <REMARK>
 VINA RESULT:      -6.8      3.616      7.980
  Name = 
  21 active torsions:
  status: ('A' for Active; 'I' for Inactive)
    1  A    between atoms: C_1  and  C_35
    2  A    between atoms: C_2  and  C_6
    3  A    between atoms: C_5  and  C_8
    4  A    between atoms: C_5  and  C_48
    5  A    between atoms: N_12  and  C_38
    6  A    between atoms: N_12  and  C_44
    7  A    between atoms: C_17  and  C_41
    8  A    between atoms: C_17  and  C_51
    9  A    between atoms: N_18  and  C_42
   10  A    between atoms: C_19  and  N_31
   11  A    between atoms: C_21  and  C_43
   12  A    between atoms: C_21  and  C_47
   13  A    between atoms: C_23  and  C_37
   14  A    between atoms: C_23  and  C_47
   15  A    between atoms: N_27  and  C_48
   16  A    between atoms: C_35  and  C_46
   17  A    between atoms: N_36  and  C_44
   18  A    between atoms: N_36  and  C_54
   19  A    between atoms: C_38  and  C_42
   20  A    between atoms: C_45  and  C_50
   21  A    between atoms: C_48  and  C_54
                            x       y       z     vdW  Elec       q    Type
                         _______ _______ _______ _____ _____    ______ ____

>  <TORSDO>
F 21

$$$$
=
 OpenBabel11062412073D

 54 58  0  0  1  0  0  0  0  0999 V2000
  183.9350  178.3570  141.9200 C   0  0  0  0  0  0  0  0  0  0  0  0
  185.1500  179.0500  143.9180 C   0  0  0  0  0  0  0  0  0  0  0  0
  182.6480  178.7480  144.0550 C   0  0  0  0  0  1  0  0  0  0  0  0
  186.3440  179.0070  143.1820 C   0  0  0  0  0  3  0  0  0  0  0  0
  183.9340  178.7190  143.2830 C   0  0  0  0  0  0  0  0  0  0  0  0
  186.3380  178.6820  141.8240 C   0  0  0  0  0  0  0  0  0  0  0  0
  185.1350  178.3380  141.2030 C   0  0  0  0  0  3  0  0  0  0  0  0
  185.1810  179.4160  145.3890 C   0  0  1  0  0  3  0  0  0  0  0  0
  184.6370  178.3240  146.2940 C   0  0  0  0  0  2  0  0  0  0  0  0
  186.1330  178.5540  146.2410 C   0  0  1  0  0  3  0  0  0  0  0  0
  186.7880  177.3840  145.5090 C   0  0  0  0  0  2  0  0  0  0  0  0
  188.2990  177.4370  145.6600 C   0  0  0  0  0  2  0  0  0  0  0  0
  188.0580  176.3450  143.5700 F   0  0  0  0  0  0  0  0  0  0  0  0
  188.9910  176.6880  144.5320 C   0  0  1  0  0  3  0  0  0  0  0  0
  190.1800  178.8670  144.2240 O   0  0  0  0  0  1  0  0  0  0  0  0
  190.8490  177.0010  143.0740 O   0  0  0  0  0  0  0  0  0  0  0  0
  190.0610  177.5190  143.9060 C   0  0  0  0  0  0  0  0  0  0  0  0
  187.5120  178.5710  139.5960 N   0  0  0  0  0  0  0  0  0  0  0  0
  187.8100  177.4860  140.4060 O   0  0  0  0  0  0  0  0  0  0  0  0
  187.6360  178.6740  141.0500 C   0  0  2  0  0  3  0  0  0  0  0  0
  186.1510  178.3480  139.1060 C   0  0  0  0  0  2  0  0  0  0  0  0
  186.1480  178.2840  137.5880 C   0  0  0  0  0  2  0  0  0  0  0  0
  185.7630  176.9510  137.1490 N   0  0  0  0  0  2  0  0  0  0  0  0
  185.3200  176.4560  134.5970 S   0  0  0  0  0  0  0  0  0  0  0  0
  186.2240  176.3170  135.9490 C   0  0  0  0  0  0  0  0  0  0  0  0
  187.4810  175.6330  135.8640 N   0  0  0  0  0  2  0  0  0  0  0  0
  187.6300  174.2060  135.6330 C   0  0  0  0  0  2  0  0  0  0  0  0
  188.5110  173.5920  136.7160 C   0  0  1  0  0  3  0  0  0  0  0  0
  187.8930  172.3890  137.2520 N   0  0  0  0  0  2  0  0  0  0  0  0
  186.4570  172.6190  137.2770 C   0  0  0  0  0  1  0  0  0  0  0  0
  189.9270  173.2960  136.2150 C   0  0  0  0  0  2  0  0  0  0  0  0
  190.9870  173.9390  137.0480 C   0  0  0  0  0  0  0  0  0  0  0  0
  190.6370  174.8420  138.0450 O   0  0  0  0  0  1  0  0  0  0  0  0
  192.1960  173.6510  136.8580 O   0  0  0  0  0  0  0  0  0  0  0  0
  182.6820  177.9520  141.2030 C   0  0  0  0  0  2  0  0  0  0  0  0
  182.3690  178.5460  137.4900 O   0  0  0  0  0  0  0  0  0  0  0  0
  181.2460  179.6000  139.9220 C   0  0  0  0  0  2  0  0  0  0  0  0
  182.4790  177.7990  138.6860 C   0  0  1  0  0  3  0  0  0  0  0  0
  181.0430  180.2830  138.5720 C   0  0  0  0  0  0  0  0  0  0  0  0
  179.7910  180.8970  138.5810 O   0  0  0  0  0  1  0  0  0  0  0  0
  181.1200  179.2170  137.4520 C   0  0  1  0  0  3  0  0  0  0  0  0
  182.5030  178.7320  139.9030 C   0  0  2  0  0  3  0  0  0  0  0  0
  182.0300  181.2540  138.3860 O   0  0  0  0  0  1  0  0  0  0  0  0
  182.2650  173.6740  137.0390 N   0  0  0  0  0  0  0  0  0  0  0  0
  181.0770  173.5160  137.5200 C   0  0  0  0  0  0  0  0  0  0  0  0
  181.5350  175.4990  138.1900 C   0  0  0  0  0  0  0  0  0  0  0  0
  180.2980  172.2650  137.3280 C   0  0  0  0  0  1  0  0  0  0  0  0
  180.5820  174.6320  138.2420 N   0  0  0  0  0  0  0  0  0  0  0  0
  182.7100  175.0060  137.4210 C   0  0  0  0  0  2  0  0  0  0  0  0
  181.4240  176.7900  138.7910 N   0  0  0  0  0  2  0  0  0  0  0  0
  180.8870  179.8000  136.0460 C   0  0  2  0  0  3  0  0  0  0  0  0
  179.7170  180.5600  136.0270 O   0  0  0  0  0  1  0  0  0  0  0  0
  182.0090  178.2590  134.6000 O   0  0  0  0  0  1  0  0  0  0  0  0
  180.7490  178.6920  135.0120 C   0  0  0  0  0  2  0  0  0  0  0  0
  1  5  1  0  0  0  0
  4  2  1  0  0  0  0
  5  2  2  0  0  0  0
  5  3  1  0  0  0  0
  6  4  2  0  0  0  0
  7  6  1  0  0  0  0
  7  1  2  0  0  0  0
  8  2  1  6  0  0  0
  8 10  1  0  0  0  0
  8  9  1  0  0  0  0
 10 11  1  6  0  0  0
 10  9  1  0  0  0  0
 11 12  1  0  0  0  0
 14 13  1  6  0  0  0
 14 12  1  0  0  0  0
 16 17  2  0  0  0  0
 17 15  1  0  0  0  0
 17 14  1  0  0  0  0
 18 19  1  0  0  0  0
 18 20  1  0  0  0  0
 19 20  1  0  0  0  0
 20  6  1  1  0  0  0
 21 18  1  0  0  0  0
 22 21  1  0  0  0  0
 23 22  1  0  0  0  0
 24 25  2  0  0  0  0
 25 23  1  0  0  0  0
 26 25  1  0  0  0  0
 27 26  1  0  0  0  0
 28 27  1  6  0  0  0
 28 29  1  0  0  0  0
 29 30  1  0  0  0  0
 31 28  1  0  0  0  0
 31 32  1  0  0  0  0
 32 33  1  0  0  0  0
 34 32  2  0  0  0  0
 35  1  1  0  0  0  0
 36 38  1  0  0  0  0
 38 50  1  1  0  0  0
 38 42  1  0  0  0  0
 39 40  1  0  0  0  0
 39 37  1  0  0  0  0
 41 51  1  6  0  0  0
 41 36  1  0  0  0  0
 41 39  1  0  0  0  0
 42 37  1  0  0  0  0
 42 35  1  1  0  0  0
 43 39  1  0  0  0  0
 44 49  1  0  0  0  0
 44 45  2  0  0  0  0
 45 48  1  0  0  0  0
 46 48  2  0  0  0  0
 46 50  1  0  0  0  0
 47 45  1  0  0  0  0
 49 46  1  0  0  0  0
 51 52  1  1  0  0  0
 53 54  1  0  0  0  0
 54 51  1  0  0  0  0
M  END
>  <MODEL>
4

>  <REMARK>
 VINA RESULT:      -6.4      2.631      3.349
  Name = 
  21 active torsions:
  status: ('A' for Active; 'I' for Inactive)
    1  A    between atoms: C_1  and  C_35
    2  A    between atoms: C_2  and  C_6
    3  A    between atoms: C_5  and  C_8
    4  A    between atoms: C_5  and  C_48
    5  A    between atoms: N_12  and  C_38
    6  A    between atoms: N_12  and  C_44
    7  A    between atoms: C_17  and  C_41
    8  A    between atoms: C_17  and  C_51
    9  A    between atoms: N_18  and  C_42
   10  A    between atoms: C_19  and  N_31
   11  A    between atoms: C_21  and  C_43
   12  A    between atoms: C_21  and  C_47
   13  A    between atoms: C_23  and  C_37
   14  A    between atoms: C_23  and  C_47
   15  A    between atoms: N_27  and  C_48
   16  A    between atoms: C_35  and  C_46
   17  A    between atoms: N_36  and  C_44
   18  A    between atoms: N_36  and  C_54
   19  A    between atoms: C_38  and  C_42
   20  A    between atoms: C_45  and  C_50
   21  A    between atoms: C_48  and  C_54
                            x       y       z     vdW  Elec       q    Type
                         _______ _______ _______ _____ _____    ______ ____

>  <TORSDO>
F 21

$$$$
=
 OpenBabel11062412073D

 54 58  0  0  1  0  0  0  0  0999 V2000
  185.3020  178.2560  137.7160 C   0  0  0  0  0  0  0  0  0  0  0  0
  186.2750  176.6400  136.1700 C   0  0  0  0  0  0  0  0  0  0  0  0
  183.7650  176.8880  136.2540 C   0  0  0  0  0  1  0  0  0  0  0  0
  187.5520  177.0160  136.6130 C   0  0  0  0  0  3  0  0  0  0  0  0
  185.1390  177.2680  136.7230 C   0  0  0  0  0  0  0  0  0  0  0  0
  187.7100  177.9700  137.6210 C   0  0  0  0  0  0  0  0  0  0  0  0
  186.5830  178.6010  138.1540 C   0  0  0  0  0  3  0  0  0  0  0  0
  186.1290  175.5940  135.0820 C   0  0  1  0  0  3  0  0  0  0  0  0
  187.2760  174.5990  135.0450 C   0  0  0  0  0  2  0  0  0  0  0  0
  185.9390  174.1560  135.6030 C   0  0  1  0  0  3  0  0  0  0  0  0
  186.0670  173.9850  137.1150 C   0  0  0  0  0  2  0  0  0  0  0  0
  185.0340  172.9970  137.6300 C   0  0  0  0  0  2  0  0  0  0  0  0
  183.7220  171.2890  136.6430 F   0  0  0  0  0  0  0  0  0  0  0  0
  184.0320  172.6330  136.5460 C   0  0  1  0  0  3  0  0  0  0  0  0
  181.9210  173.5750  135.5890 O   0  0  0  0  0  0  0  0  0  0  0  0
  182.5110  174.0070  137.7610 O   0  0  0  0  0  1  0  0  0  0  0  0
  182.7810  173.4370  136.6730 C   0  0  0  0  0  0  0  0  0  0  0  0
  189.3830  178.0430  139.5050 N   0  0  0  0  0  0  0  0  0  0  0  0
  189.0420  179.3070  139.0500 O   0  0  0  0  0  0  0  0  0  0  0  0
  189.0960  178.3320  138.1000 C   0  0  2  0  0  3  0  0  0  0  0  0
  188.2360  177.5720  140.2850 C   0  0  0  0  0  2  0  0  0  0  0  0
  188.6720  177.2420  141.7020 C   0  0  0  0  0  2  0  0  0  0  0  0
  189.6620  178.2070  142.1540 N   0  0  0  0  0  2  0  0  0  0  0  0
  192.0550  177.1290  141.8950 S   0  0  0  0  0  0  0  0  0  0  0  0
  190.9060  177.8730  142.7850 C   0  0  0  0  0  0  0  0  0  0  0  0
  191.2140  178.2340  144.1370 N   0  0  0  0  0  2  0  0  0  0  0  0
  190.2240  178.4620  145.1760 C   0  0  0  0  0  2  0  0  0  0  0  0
  190.2170  177.2920  146.1540 C   0  0  1  0  0  3  0  0  0  0  0  0
  191.4170  176.4860  145.9900 N   0  0  0  0  0  2  0  0  0  0  0  0
  191.8390  176.0710  147.3180 C   0  0  0  0  0  1  0  0  0  0  0  0
  190.0670  177.7510  147.6080 C   0  0  0  0  0  2  0  0  0  0  0  0
  188.7200  177.4490  148.1780 C   0  0  0  0  0  0  0  0  0  0  0  0
  188.0240  176.3210  147.7620 O   0  0  0  0  0  0  0  0  0  0  0  0
  188.2230  178.2090  149.0480 O   0  0  0  0  0  1  0  0  0  0  0  0
  184.1350  178.9900  138.3080 C   0  0  0  0  0  2  0  0  0  0  0  0
  181.8200  176.5870  140.0690 O   0  0  0  0  0  0  0  0  0  0  0  0
  181.6140  178.7690  138.2030 C   0  0  0  0  0  2  0  0  0  0  0  0
  182.9060  177.4820  139.9240 C   0  0  1  0  0  3  0  0  0  0  0  0
  180.4340  177.8510  138.5120 C   0  0  0  0  0  0  0  0  0  0  0  0
  179.2620  178.6010  138.4060 O   0  0  0  0  0  1  0  0  0  0  0  0
  180.5940  177.2900  139.9460 C   0  0  1  0  0  3  0  0  0  0  0  0
  182.9360  178.0670  138.5070 C   0  0  2  0  0  3  0  0  0  0  0  0
  180.3970  176.8070  137.5840 O   0  0  0  0  0  1  0  0  0  0  0  0
  185.5280  178.1070  143.4610 N   0  0  0  0  0  0  0  0  0  0  0  0
  184.8430  179.1420  143.8180 C   0  0  0  0  0  0  0  0  0  0  0  0
  183.8220  178.5680  142.0240 C   0  0  0  0  0  0  0  0  0  0  0  0
  185.1600  179.9270  145.0390 C   0  0  0  0  0  1  0  0  0  0  0  0
  183.7670  179.4620  142.9510 N   0  0  0  0  0  0  0  0  0  0  0  0
  184.9340  177.6010  142.2330 C   0  0  0  0  0  2  0  0  0  0  0  0
  182.8840  178.5270  140.9480 N   0  0  0  0  0  2  0  0  0  0  0  0
  179.4290  176.3790  140.3720 C   0  0  2  0  0  3  0  0  0  0  0  0
  178.9310  176.7810  141.6120 O   0  0  0  0  0  1  0  0  0  0  0  0
  179.4970  174.2120  139.3600 O   0  0  0  0  0  1  0  0  0  0  0  0
  179.8820  174.9320  140.4910 C   0  0  0  0  0  2  0  0  0  0  0  0
  1  7  1  0  0  0  0
  1 35  1  0  0  0  0
  2  4  2  0  0  0  0
  2  5  1  0  0  0  0
  3  5  1  0  0  0  0
  4  6  1  0  0  0  0
  5  1  2  0  0  0  0
  6  7  2  0  0  0  0
  8 10  1  0  0  0  0
  8  2  1  1  0  0  0
  9  8  1  0  0  0  0
  9 10  1  0  0  0  0
 10 11  1  1  0  0  0
 11 12  1  0  0  0  0
 14 13  1  1  0  0  0
 14 17  1  0  0  0  0
 14 12  1  0  0  0  0
 15 17  2  0  0  0  0
 17 16  1  0  0  0  0
 18 21  1  0  0  0  0
 19 18  1  0  0  0  0
 20  6  1  1  0  0  0
 20 19  1  0  0  0  0
 20 18  1  0  0  0  0
 21 22  1  0  0  0  0
 22 23  1  0  0  0  0
 23 25  1  0  0  0  0
 24 25  2  0  0  0  0
 25 26  1  0  0  0  0
 26 27  1  0  0  0  0
 28 27  1  6  0  0  0
 28 31  1  0  0  0  0
 29 28  1  0  0  0  0
 29 30  1  0  0  0  0
 31 32  1  0  0  0  0
 32 34  1  0  0  0  0
 33 32  2  0  0  0  0
 37 42  1  0  0  0  0
 37 39  1  0  0  0  0
 38 36  1  0  0  0  0
 38 50  1  1  0  0  0
 39 41  1  0  0  0  0
 40 39  1  0  0  0  0
 41 36  1  0  0  0  0
 41 51  1  6  0  0  0
 42 35  1  1  0  0  0
 42 38  1  0  0  0  0
 43 39  1  0  0  0  0
 44 45  2  0  0  0  0
 45 47  1  0  0  0  0
 46 49  1  0  0  0  0
 46 48  2  0  0  0  0
 48 45  1  0  0  0  0
 49 44  1  0  0  0  0
 50 46  1  0  0  0  0
 51 54  1  0  0  0  0
 51 52  1  1  0  0  0
 53 54  1  0  0  0  0
M  END
>  <MODEL>
5

>  <REMARK>
 VINA RESULT:      -6.3      3.494      7.933
  Name = 
  21 active torsions:
  status: ('A' for Active; 'I' for Inactive)
    1  A    between atoms: C_1  and  C_35
    2  A    between atoms: C_2  and  C_6
    3  A    between atoms: C_5  and  C_8
    4  A    between atoms: C_5  and  C_48
    5  A    between atoms: N_12  and  C_38
    6  A    between atoms: N_12  and  C_44
    7  A    between atoms: C_17  and  C_41
    8  A    between atoms: C_17  and  C_51
    9  A    between atoms: N_18  and  C_42
   10  A    between atoms: C_19  and  N_31
   11  A    between atoms: C_21  and  C_43
   12  A    between atoms: C_21  and  C_47
   13  A    between atoms: C_23  and  C_37
   14  A    between atoms: C_23  and  C_47
   15  A    between atoms: N_27  and  C_48
   16  A    between atoms: C_35  and  C_46
   17  A    between atoms: N_36  and  C_44
   18  A    between atoms: N_36  and  C_54
   19  A    between atoms: C_38  and  C_42
   20  A    between atoms: C_45  and  C_50
   21  A    between atoms: C_48  and  C_54
                            x       y       z     vdW  Elec       q    Type
                         _______ _______ _______ _____ _____    ______ ____

>  <TORSDO>
F 21

$$$$
=
 OpenBabel11062412073D

 54 58  0  0  1  0  0  0  0  0999 V2000
  185.7140  178.8300  141.5060 C   0  0  0  0  0  0  0  0  0  0  0  0
  186.1210  178.3110  143.8540 C   0  0  0  0  0  0  0  0  0  0  0  0
  183.9180  179.3530  143.2000 C   0  0  0  0  0  1  0  0  0  0  0  0
  187.3840  177.8100  143.5040 C   0  0  0  0  0  3  0  0  0  0  0  0
  185.2760  178.8230  142.8460 C   0  0  0  0  0  0  0  0  0  0  0  0
  187.8290  177.8490  142.1800 C   0  0  0  0  0  0  0  0  0  0  0  0
  186.9830  178.3410  141.1830 C   0  0  0  0  0  3  0  0  0  0  0  0
  185.6650  178.2670  145.2990 C   0  0  1  0  0  3  0  0  0  0  0  0
  185.8740  176.9130  145.9570 C   0  0  0  0  0  2  0  0  0  0  0  0
  186.8000  178.0570  146.3200 C   0  0  1  0  0  3  0  0  0  0  0  0
  188.1780  177.7860  145.7200 C   0  0  0  0  0  2  0  0  0  0  0  0
  189.2730  178.2680  146.6580 C   0  0  0  0  0  2  0  0  0  0  0  0
  189.0410  176.0160  147.3570 F   0  0  0  0  0  0  0  0  0  0  0  0
  189.8850  177.1100  147.4300 C   0  0  1  0  0  3  0  0  0  0  0  0
  191.3700  176.4490  145.5280 O   0  0  0  0  0  0  0  0  0  0  0  0
  192.2160  176.6710  147.6470 O   0  0  0  0  0  1  0  0  0  0  0  0
  191.2210  176.7390  146.8800 C   0  0  0  0  0  0  0  0  0  0  0  0
  189.7940  177.8480  140.6010 N   0  0  0  0  0  0  0  0  0  0  0  0
  189.1790  176.6080  140.6830 O   0  0  0  0  0  0  0  0  0  0  0  0
  189.2060  177.3320  141.8370 C   0  0  2  0  0  3  0  0  0  0  0  0
  188.9030  178.6880  139.7970 C   0  0  0  0  0  2  0  0  0  0  0  0
  189.2510  178.5550  138.3250 C   0  0  0  0  0  2  0  0  0  0  0  0
  188.0610  178.2090  137.5630 N   0  0  0  0  0  2  0  0  0  0  0  0
  187.0150  177.7880  135.1790 S   0  0  0  0  0  0  0  0  0  0  0  0
  188.0500  177.3990  136.3800 C   0  0  0  0  0  0  0  0  0  0  0  0
  188.9600  176.3110  136.1730 N   0  0  0  0  0  2  0  0  0  0  0  0
  190.3180  176.4540  135.6780 C   0  0  0  0  0  2  0  0  0  0  0  0
  191.2880  175.7170  136.5950 C   0  0  1  0  0  3  0  0  0  0  0  0
  190.7300  174.4340  136.9970 N   0  0  0  0  0  2  0  0  0  0  0  0
  191.5820  173.4000  136.4320 C   0  0  0  0  0  1  0  0  0  0  0  0
  192.6660  175.5300  135.9540 C   0  0  0  0  0  2  0  0  0  0  0  0
  193.7480  176.2660  136.6740 C   0  0  0  0  0  0  0  0  0  0  0  0
  194.9970  176.4210  136.0850 O   0  0  0  0  0  0  0  0  0  0  0  0
  193.5230  176.7600  137.8080 O   0  0  0  0  0  1  0  0  0  0  0  0
  184.8430  179.3190  140.3870 C   0  0  0  0  0  2  0  0  0  0  0  0
  181.7820  177.4190  139.2650 O   0  0  0  0  0  0  0  0  0  0  0  0
  184.4820  177.8410  138.3610 C   0  0  0  0  0  2  0  0  0  0  0  0
  182.5250  178.5060  139.7820 C   0  0  1  0  0  3  0  0  0  0  0  0
  183.5770  176.7770  137.7450 C   0  0  0  0  0  0  0  0  0  0  0  0
  183.9150  176.6480  136.3970 O   0  0  0  0  0  1  0  0  0  0  0  0
  182.1020  177.2210  137.8980 C   0  0  1  0  0  3  0  0  0  0  0  0
  184.0250  178.1830  139.7770 C   0  0  2  0  0  3  0  0  0  0  0  0
  183.7850  175.5560  138.3900 O   0  0  0  0  0  1  0  0  0  0  0  0
  179.1810  181.3930  140.2840 N   0  0  0  0  0  0  0  0  0  0  0  0
  179.6220  182.1130  139.3070 C   0  0  0  0  0  0  0  0  0  0  0  0
  181.0960  180.5590  139.3740 C   0  0  0  0  0  0  0  0  0  0  0  0
  178.9330  183.3480  138.8510 C   0  0  0  0  0  1  0  0  0  0  0  0
  180.8130  181.6260  138.7090 N   0  0  0  0  0  0  0  0  0  0  0  0
  180.1000  180.2770  140.4450 C   0  0  0  0  0  2  0  0  0  0  0  0
  182.2310  179.7490  139.0680 N   0  0  0  0  0  2  0  0  0  0  0  0
  181.1050  176.2300  137.2700 C   0  0  2  0  0  3  0  0  0  0  0  0
  180.5960  176.7470  136.0780 O   0  0  0  0  0  1  0  0  0  0  0  0
  179.1710  177.1210  138.3630 O   0  0  0  0  0  1  0  0  0  0  0  0
  179.9360  175.9650  138.2070 C   0  0  0  0  0  2  0  0  0  0  0  0
  1  5  1  0  0  0  0
  4  2  1  0  0  0  0
  5  3  1  0  0  0  0
  5  2  2  0  0  0  0
  6  4  2  0  0  0  0
  7  1  2  0  0  0  0
  7  6  1  0  0  0  0
  8  2  1  6  0  0  0
  8  9  1  0  0  0  0
  8 10  1  0  0  0  0
  9 10  1  0  0  0  0
 10 11  1  6  0  0  0
 11 12  1  0  0  0  0
 12 14  1  0  0  0  0
 14 13  1  6  0  0  0
 15 17  2  0  0  0  0
 17 14  1  0  0  0  0
 17 16  1  0  0  0  0
 18 19  1  0  0  0  0
 18 20  1  0  0  0  0
 19 20  1  0  0  0  0
 20  6  1  6  0  0  0
 21 18  1  0  0  0  0
 22 21  1  0  0  0  0
 23 22  1  0  0  0  0
 24 25  2  0  0  0  0
 25 23  1  0  0  0  0
 26 25  1  0  0  0  0
 27 26  1  0  0  0  0
 28 27  1  6  0  0  0
 28 29  1  0  0  0  0
 30 29  1  0  0  0  0
 31 28  1  0  0  0  0
 31 32  1  0  0  0  0
 32 34  1  0  0  0  0
 33 32  2  0  0  0  0
 35  1  1  0  0  0  0
 36 38  1  0  0  0  0
 37 42  1  0  0  0  0
 38 50  1  6  0  0  0
 39 41  1  0  0  0  0
 39 37  1  0  0  0  0
 39 43  1  0  0  0  0
 40 39  1  0  0  0  0
 41 51  1  1  0  0  0
 41 36  1  0  0  0  0
 42 38  1  0  0  0  0
 42 35  1  6  0  0  0
 44 49  1  0  0  0  0
 45 44  2  0  0  0  0
 46 49  1  0  0  0  0
 47 45  1  0  0  0  0
 48 45  1  0  0  0  0
 48 46  2  0  0  0  0
 50 46  1  0  0  0  0
 51 52  1  6  0  0  0
 51 54  1  0  0  0  0
 54 53  1  0  0  0  0
M  END
>  <MODEL>
6

>  <REMARK>
 VINA RESULT:      -6.2      2.791      4.522
  Name = 
  21 active torsions:
  status: ('A' for Active; 'I' for Inactive)
    1  A    between atoms: C_1  and  C_35
    2  A    between atoms: C_2  and  C_6
    3  A    between atoms: C_5  and  C_8
    4  A    between atoms: C_5  and  C_48
    5  A    between atoms: N_12  and  C_38
    6  A    between atoms: N_12  and  C_44
    7  A    between atoms: C_17  and  C_41
    8  A    between atoms: C_17  and  C_51
    9  A    between atoms: N_18  and  C_42
   10  A    between atoms: C_19  and  N_31
   11  A    between atoms: C_21  and  C_43
   12  A    between atoms: C_21  and  C_47
   13  A    between atoms: C_23  and  C_37
   14  A    between atoms: C_23  and  C_47
   15  A    between atoms: N_27  and  C_48
   16  A    between atoms: C_35  and  C_46
   17  A    between atoms: N_36  and  C_44
   18  A    between atoms: N_36  and  C_54
   19  A    between atoms: C_38  and  C_42
   20  A    between atoms: C_45  and  C_50
   21  A    between atoms: C_48  and  C_54
                            x       y       z     vdW  Elec       q    Type
                         _______ _______ _______ _____ _____    ______ ____

>  <TORSDO>
F 21

$$$$
=
 OpenBabel11062412073D

 54 58  0  0  1  0  0  0  0  0999 V2000
  186.1060  178.6900  141.3330 C   0  0  0  0  0  0  0  0  0  0  0  0
  186.5500  178.1690  143.6740 C   0  0  0  0  0  0  0  0  0  0  0  0
  184.2380  178.9350  143.0120 C   0  0  0  0  0  1  0  0  0  0  0  0
  187.8710  177.8440  143.3300 C   0  0  0  0  0  3  0  0  0  0  0  0
  185.6580  178.5930  142.6660 C   0  0  0  0  0  0  0  0  0  0  0  0
  188.3220  177.9730  142.0150 C   0  0  0  0  0  0  0  0  0  0  0  0
  187.4310  178.3770  141.0170 C   0  0  0  0  0  3  0  0  0  0  0  0
  186.0860  178.0310  145.1100 C   0  0  1  0  0  3  0  0  0  0  0  0
  186.4070  176.6770  145.7200 C   0  0  0  0  0  2  0  0  0  0  0  0
  187.2260  177.8810  146.1370 C   0  0  1  0  0  3  0  0  0  0  0  0
  188.6280  177.7540  145.5440 C   0  0  0  0  0  2  0  0  0  0  0  0
  189.6770  178.1970  146.5500 C   0  0  0  0  0  2  0  0  0  0  0  0
  189.2700  175.9950  147.3250 F   0  0  0  0  0  0  0  0  0  0  0  0
  190.2010  177.0170  147.3540 C   0  0  1  0  0  3  0  0  0  0  0  0
  192.1060  175.3960  147.3480 O   0  0  0  0  0  1  0  0  0  0  0  0
  192.0460  177.1300  145.8510 O   0  0  0  0  0  0  0  0  0  0  0  0
  191.4960  176.5200  146.8030 C   0  0  0  0  0  0  0  0  0  0  0  0
  190.0800  177.5620  140.2560 N   0  0  0  0  0  0  0  0  0  0  0  0
  189.8470  176.4450  141.0420 O   0  0  0  0  0  0  0  0  0  0  0  0
  189.7580  177.6460  141.6800 C   0  0  2  0  0  3  0  0  0  0  0  0
  188.9300  177.6700  139.3550 C   0  0  0  0  0  2  0  0  0  0  0  0
  189.4050  177.8480  137.9230 C   0  0  0  0  0  2  0  0  0  0  0  0
  190.5930  177.0410  137.6910 N   0  0  0  0  0  2  0  0  0  0  0  0
  189.7830  176.3200  135.2870 S   0  0  0  0  0  0  0  0  0  0  0  0
  190.9270  176.4100  136.4470 C   0  0  0  0  0  0  0  0  0  0  0  0
  192.2430  175.9250  136.1500 N   0  0  0  0  0  2  0  0  0  0  0  0
  193.1890  175.4430  137.1430 C   0  0  0  0  0  2  0  0  0  0  0  0
  194.4050  174.8370  136.4520 C   0  0  1  0  0  3  0  0  0  0  0  0
  194.0110  173.6980  135.6370 N   0  0  0  0  0  2  0  0  0  0  0  0
  194.1210  172.5140  136.4730 C   0  0  0  0  0  1  0  0  0  0  0  0
  195.1680  175.8650  135.6120 C   0  0  0  0  0  2  0  0  0  0  0  0
  196.6510  175.7320  135.7330 C   0  0  0  0  0  0  0  0  0  0  0  0
  197.4510  175.7920  134.5980 O   0  0  0  0  0  0  0  0  0  0  0  0
  197.1770  175.5810  136.8650 O   0  0  0  0  0  1  0  0  0  0  0  0
  185.1930  179.0900  140.2130 C   0  0  0  0  0  2  0  0  0  0  0  0
  183.1980  176.4920  138.3390 O   0  0  0  0  0  0  0  0  0  0  0  0
  185.4910  178.1680  137.8720 C   0  0  0  0  0  2  0  0  0  0  0  0
  183.4220  177.6110  139.1750 C   0  0  1  0  0  3  0  0  0  0  0  0
  185.1120  177.0310  136.9270 C   0  0  0  0  0  0  0  0  0  0  0  0
  185.4850  177.3980  135.6340 O   0  0  0  0  0  1  0  0  0  0  0  0
  183.5840  176.7970  137.0090 C   0  0  1  0  0  3  0  0  0  0  0  0
  184.9210  177.9220  139.2670 C   0  0  2  0  0  3  0  0  0  0  0  0
  185.7990  175.8700  137.2910 O   0  0  0  0  0  1  0  0  0  0  0  0
  180.1910  179.8590  141.2430 N   0  0  0  0  0  0  0  0  0  0  0  0
  180.0420  180.6350  140.2220 C   0  0  0  0  0  0  0  0  0  0  0  0
  181.6370  179.3710  139.5520 C   0  0  0  0  0  0  0  0  0  0  0  0
  179.0300  181.7220  140.1870 C   0  0  0  0  0  1  0  0  0  0  0  0
  180.9230  180.3630  139.1440 N   0  0  0  0  0  0  0  0  0  0  0  0
  181.2610  178.9270  140.9220 C   0  0  0  0  0  2  0  0  0  0  0  0
  182.6480  178.7740  138.7390 N   0  0  0  0  0  2  0  0  0  0  0  0
  183.0900  175.6910  136.0590 C   0  0  2  0  0  3  0  0  0  0  0  0
  182.1480  176.2050  135.1670 O   0  0  0  0  0  1  0  0  0  0  0  0
  183.2700  173.4380  136.8430 O   0  0  0  0  0  1  0  0  0  0  0  0
  182.4370  174.5570  136.8350 C   0  0  0  0  0  2  0  0  0  0  0  0
  1  5  1  0  0  0  0
  4  2  1  0  0  0  0
  5  3  1  0  0  0  0
  5  2  2  0  0  0  0
  6  4  2  0  0  0  0
  7  1  2  0  0  0  0
  7  6  1  0  0  0  0
  8  2  1  6  0  0  0
  8  9  1  0  0  0  0
  8 10  1  0  0  0  0
  9 10  1  0  0  0  0
 10 11  1  6  0  0  0
 11 12  1  0  0  0  0
 12 14  1  0  0  0  0
 14 13  1  6  0  0  0
 16 17  2  0  0  0  0
 17 15  1  0  0  0  0
 17 14  1  0  0  0  0
 18 19  1  0  0  0  0
 18 20  1  0  0  0  0
 19 20  1  0  0  0  0
 20  6  1  6  0  0  0
 21 18  1  0  0  0  0
 22 21  1  0  0  0  0
 23 22  1  0  0  0  0
 24 25  2  0  0  0  0
 25 23  1  0  0  0  0
 26 25  1  0  0  0  0
 26 27  1  0  0  0  0
 28 31  1  6  0  0  0
 28 27  1  0  0  0  0
 29 28  1  0  0  0  0
 29 30  1  0  0  0  0
 31 32  1  0  0  0  0
 32 34  1  0  0  0  0
 33 32  2  0  0  0  0
 35  1  1  0  0  0  0
 36 38  1  0  0  0  0
 37 42  1  0  0  0  0
 38 50  1  6  0  0  0
 38 42  1  0  0  0  0
 39 41  1  0  0  0  0
 39 43  1  0  0  0  0
 39 37  1  0  0  0  0
 40 39  1  0  0  0  0
 41 51  1  6  0  0  0
 41 36  1  0  0  0  0
 42 35  1  1  0  0  0
 45 44  2  0  0  0  0
 46 49  1  0  0  0  0
 47 45  1  0  0  0  0
 48 46  2  0  0  0  0
 48 45  1  0  0  0  0
 49 44  1  0  0  0  0
 50 46  1  0  0  0  0
 51 52  1  6  0  0  0
 51 54  1  0  0  0  0
 54 53  1  0  0  0  0
M  END
>  <MODEL>
7

>  <REMARK>
 VINA RESULT:      -6.1      2.955      4.868
  Name = 
  21 active torsions:
  status: ('A' for Active; 'I' for Inactive)
    1  A    between atoms: C_1  and  C_35
    2  A    between atoms: C_2  and  C_6
    3  A    between atoms: C_5  and  C_8
    4  A    between atoms: C_5  and  C_48
    5  A    between atoms: N_12  and  C_38
    6  A    between atoms: N_12  and  C_44
    7  A    between atoms: C_17  and  C_41
    8  A    between atoms: C_17  and  C_51
    9  A    between atoms: N_18  and  C_42
   10  A    between atoms: C_19  and  N_31
   11  A    between atoms: C_21  and  C_43
   12  A    between atoms: C_21  and  C_47
   13  A    between atoms: C_23  and  C_37
   14  A    between atoms: C_23  and  C_47
   15  A    between atoms: N_27  and  C_48
   16  A    between atoms: C_35  and  C_46
   17  A    between atoms: N_36  and  C_44
   18  A    between atoms: N_36  and  C_54
   19  A    between atoms: C_38  and  C_42
   20  A    between atoms: C_45  and  C_50
   21  A    between atoms: C_48  and  C_54
                            x       y       z     vdW  Elec       q    Type
                         _______ _______ _______ _____ _____    ______ ____

>  <TORSDO>
F 21

$$$$
=
 OpenBabel11062412073D

 54 58  0  0  1  0  0  0  0  0999 V2000
  187.5250  176.9760  137.6910 C   0  0  0  0  0  0  0  0  0  0  0  0
  188.7550  175.8590  135.9050 C   0  0  0  0  0  0  0  0  0  0  0  0
  189.4410  178.1910  136.5860 C   0  0  0  0  0  1  0  0  0  0  0  0
  187.9240  174.7390  136.0600 C   0  0  0  0  0  3  0  0  0  0  0  0
  188.5570  176.9870  136.7300 C   0  0  0  0  0  0  0  0  0  0  0  0
  186.8820  174.7440  136.9900 C   0  0  0  0  0  0  0  0  0  0  0  0
  186.6990  175.8560  137.8150 C   0  0  0  0  0  3  0  0  0  0  0  0
  189.8740  175.8350  134.8830 C   0  0  1  0  0  3  0  0  0  0  0  0
  191.1740  176.4300  135.3970 C   0  0  0  0  0  2  0  0  0  0  0  0
  191.0610  174.9260  135.2580 C   0  0  1  0  0  3  0  0  0  0  0  0
  190.9940  174.3050  136.6520 C   0  0  0  0  0  2  0  0  0  0  0  0
  192.0200  174.9450  137.5720 C   0  0  0  0  0  2  0  0  0  0  0  0
  193.4320  173.4160  136.4400 F   0  0  0  0  0  0  0  0  0  0  0  0
  193.3030  174.1310  137.6170 C   0  0  1  0  0  3  0  0  0  0  0  0
  195.0440  175.2090  139.0540 O   0  0  0  0  0  1  0  0  0  0  0  0
  194.9990  175.5870  136.7940 O   0  0  0  0  0  0  0  0  0  0  0  0
  194.4960  175.0100  137.7920 C   0  0  0  0  0  0  0  0  0  0  0  0
  184.6130  173.7050  136.6310 N   0  0  0  0  0  0  0  0  0  0  0  0
  184.9550  173.7810  137.9720 O   0  0  0  0  0  0  0  0  0  0  0  0
  185.9830  173.5350  137.1130 C   0  0  2  0  0  3  0  0  0  0  0  0
  184.2650  175.0680  136.2250 C   0  0  0  0  0  2  0  0  0  0  0  0
  182.7940  175.1410  135.8540 C   0  0  0  0  0  2  0  0  0  0  0  0
  181.9940  174.4640  136.8620 N   0  0  0  0  0  2  0  0  0  0  0  0
  180.0510  174.2560  138.6320 S   0  0  0  0  0  0  0  0  0  0  0  0
  181.1960  175.1210  137.8560 C   0  0  0  0  0  0  0  0  0  0  0  0
  181.4130  176.4810  138.2530 N   0  0  0  0  0  2  0  0  0  0  0  0
  180.6640  177.1670  139.2920 C   0  0  0  0  0  2  0  0  0  0  0  0
  181.5690  178.1540  140.0210 C   0  0  1  0  0  3  0  0  0  0  0  0
  181.1650  178.2820  141.4130 N   0  0  0  0  0  2  0  0  0  0  0  0
  180.2210  179.3850  141.4850 C   0  0  0  0  0  1  0  0  0  0  0  0
  183.0480  177.7700  139.9200 C   0  0  0  0  0  2  0  0  0  0  0  0
  183.8260  178.6750  139.0200 C   0  0  0  0  0  0  0  0  0  0  0  0
  184.1120  178.2840  137.7180 O   0  0  0  0  0  0  0  0  0  0  0  0
  184.2080  179.7970  139.4380 O   0  0  0  0  0  1  0  0  0  0  0  0
  187.2940  178.1260  138.6250 C   0  0  0  0  0  2  0  0  0  0  0  0
  188.8740  178.9360  141.9550 O   0  0  0  0  0  0  0  0  0  0  0  0
  188.9900  176.8330  139.9930 C   0  0  0  0  0  2  0  0  0  0  0  0
  187.8420  178.8260  140.9940 C   0  0  1  0  0  3  0  0  0  0  0  0
  189.9910  176.9280  141.1410 C   0  0  0  0  0  0  0  0  0  0  0  0
  190.3690  175.6320  141.4950 O   0  0  0  0  0  1  0  0  0  0  0  0
  189.3200  177.6460  142.3370 C   0  0  1  0  0  3  0  0  0  0  0  0
  188.3770  178.2010  139.6990 C   0  0  2  0  0  3  0  0  0  0  0  0
  191.1190  177.6370  140.7220 O   0  0  0  0  0  1  0  0  0  0  0  0
  184.6170  180.1310  143.7630 N   0  0  0  0  0  0  0  0  0  0  0  0
  184.0860  178.9530  143.7410 C   0  0  0  0  0  0  0  0  0  0  0  0
  185.7440  178.6860  142.4100 C   0  0  0  0  0  0  0  0  0  0  0  0
  182.8700  178.6120  144.5220 C   0  0  0  0  0  1  0  0  0  0  0  0
  184.7600  178.0210  142.9110 N   0  0  0  0  0  0  0  0  0  0  0  0
  185.7790  180.0950  142.8890 C   0  0  0  0  0  2  0  0  0  0  0  0
  186.6910  178.0920  141.5210 N   0  0  0  0  0  2  0  0  0  0  0  0
  190.2370  177.7570  143.5680 C   0  0  2  0  0  3  0  0  0  0  0  0
  189.4920  177.6240  144.7400 O   0  0  0  0  0  1  0  0  0  0  0  0
  192.0590  179.0430  144.4350 O   0  0  0  0  0  1  0  0  0  0  0  0
  190.9400  179.1060  143.6040 C   0  0  0  0  0  2  0  0  0  0  0  0
  1  7  1  0  0  0  0
  1 35  1  0  0  0  0
  2  4  2  0  0  0  0
  2  5  1  0  0  0  0
  3  5  1  0  0  0  0
  4  6  1  0  0  0  0
  5  1  2  0  0  0  0
  6  7  2  0  0  0  0
  8 10  1  0  0  0  0
  8  9  1  0  0  0  0
  8  2  1  1  0  0  0
 10  9  1  0  0  0  0
 10 11  1  1  0  0  0
 11 12  1  0  0  0  0
 12 14  1  0  0  0  0
 14 13  1  6  0  0  0
 14 17  1  0  0  0  0
 16 17  2  0  0  0  0
 17 15  1  0  0  0  0
 18 20  1  0  0  0  0
 18 19  1  0  0  0  0
 20  6  1  6  0  0  0
 20 19  1  0  0  0  0
 21 18  1  0  0  0  0
 22 21  1  0  0  0  0
 22 23  1  0  0  0  0
 23 25  1  0  0  0  0
 25 26  1  0  0  0  0
 25 24  2  0  0  0  0
 26 27  1  0  0  0  0
 28 27  1  1  0  0  0
 28 29  1  0  0  0  0
 29 30  1  0  0  0  0
 31 28  1  0  0  0  0
 32 34  1  0  0  0  0
 32 31  1  0  0  0  0
 33 32  2  0  0  0  0
 36 41  1  0  0  0  0
 37 39  1  0  0  0  0
 38 50  1  1  0  0  0
 38 36  1  0  0  0  0
 39 40  1  0  0  0  0
 39 41  1  0  0  0  0
 41 51  1  1  0  0  0
 42 35  1  6  0  0  0
 42 37  1  0  0  0  0
 42 38  1  0  0  0  0
 43 39  1  0  0  0  0
 45 44  2  0  0  0  0
 45 47  1  0  0  0  0
 46 49  1  0  0  0  0
 46 48  2  0  0  0  0
 48 45  1  0  0  0  0
 49 44  1  0  0  0  0
 50 46  1  0  0  0  0
 51 54  1  0  0  0  0
 51 52  1  1  0  0  0
 54 53  1  0  0  0  0
M  END
>  <MODEL>
8

>  <REMARK>
 VINA RESULT:      -5.7      3.869     10.016
  Name = 
  21 active torsions:
  status: ('A' for Active; 'I' for Inactive)
    1  A    between atoms: C_1  and  C_35
    2  A    between atoms: C_2  and  C_6
    3  A    between atoms: C_5  and  C_8
    4  A    between atoms: C_5  and  C_48
    5  A    between atoms: N_12  and  C_38
    6  A    between atoms: N_12  and  C_44
    7  A    between atoms: C_17  and  C_41
    8  A    between atoms: C_17  and  C_51
    9  A    between atoms: N_18  and  C_42
   10  A    between atoms: C_19  and  N_31
   11  A    between atoms: C_21  and  C_43
   12  A    between atoms: C_21  and  C_47
   13  A    between atoms: C_23  and  C_37
   14  A    between atoms: C_23  and  C_47
   15  A    between atoms: N_27  and  C_48
   16  A    between atoms: C_35  and  C_46
   17  A    between atoms: N_36  and  C_44
   18  A    between atoms: N_36  and  C_54
   19  A    between atoms: C_38  and  C_42
   20  A    between atoms: C_45  and  C_50
   21  A    between atoms: C_48  and  C_54
                            x       y       z     vdW  Elec       q    Type
                         _______ _______ _______ _____ _____    ______ ____

>  <TORSDO>
F 21

$$$$
=
 OpenBabel11062412073D

 54 58  0  0  1  0  0  0  0  0999 V2000
  189.1860  176.3200  137.0950 C   0  0  0  0  0  0  0  0  0  0  0  0
  191.6010  176.3550  136.7510 C   0  0  0  0  0  0  0  0  0  0  0  0
  190.0840  176.2440  134.7370 C   0  0  0  0  0  1  0  0  0  0  0  0
  191.7770  176.4230  138.1420 C   0  0  0  0  0  3  0  0  0  0  0  0
  190.2940  176.3070  136.2220 C   0  0  0  0  0  0  0  0  0  0  0  0
  190.6800  176.4020  139.0050 C   0  0  0  0  0  0  0  0  0  0  0  0
  189.3870  176.3700  138.4770 C   0  0  0  0  0  3  0  0  0  0  0  0
  192.8080  176.3700  135.8340 C   0  0  1  0  0  3  0  0  0  0  0  0
  194.1010  175.9850  136.5320 C   0  0  0  0  0  2  0  0  0  0  0  0
  193.4460  174.9870  135.5990 C   0  0  1  0  0  3  0  0  0  0  0  0
  192.8590  173.8460  136.4280 C   0  0  0  0  0  2  0  0  0  0  0  0
  193.4890  172.5200  136.0340 C   0  0  0  0  0  2  0  0  0  0  0  0
  194.8040  172.9000  137.9680 F   0  0  0  0  0  0  0  0  0  0  0  0
  194.8390  172.3300  136.7080 C   0  0  1  0  0  3  0  0  0  0  0  0
  196.4740  170.4430  136.5640 O   0  0  0  0  0  0  0  0  0  0  0  0
  194.2960  170.0550  137.1630 O   0  0  0  0  0  1  0  0  0  0  0  0
  195.1830  170.8830  136.8310 C   0  0  0  0  0  0  0  0  0  0  0  0
  189.9020  177.1780  141.2740 N   0  0  0  0  0  0  0  0  0  0  0  0
  191.1270  177.7200  140.9210 O   0  0  0  0  0  0  0  0  0  0  0  0
  190.9010  176.4440  140.4990 C   0  0  2  0  0  3  0  0  0  0  0  0
  188.9010  177.8890  140.4750 C   0  0  0  0  0  2  0  0  0  0  0  0
  188.0690  178.7940  141.3670 C   0  0  0  0  0  2  0  0  0  0  0  0
  186.8530  178.1080  141.7740 N   0  0  0  0  0  2  0  0  0  0  0  0
  184.9730  178.9770  143.4060 S   0  0  0  0  0  0  0  0  0  0  0  0
  186.3180  178.1030  143.1040 C   0  0  0  0  0  0  0  0  0  0  0  0
  186.8650  177.3030  144.1600 N   0  0  0  0  0  2  0  0  0  0  0  0
  188.2830  177.0520  144.3550 C   0  0  0  0  0  2  0  0  0  0  0  0
  188.7950  177.8540  145.5470 C   0  0  1  0  0  3  0  0  0  0  0  0
  188.5520  177.1310  146.7860 N   0  0  0  0  0  2  0  0  0  0  0  0
  189.0010  177.9840  147.8750 C   0  0  0  0  0  1  0  0  0  0  0  0
  190.2770  178.2130  145.4110 C   0  0  0  0  0  2  0  0  0  0  0  0
  191.1650  177.0130  145.3450 C   0  0  0  0  0  0  0  0  0  0  0  0
  191.0560  176.1240  144.2830 O   0  0  0  0  0  0  0  0  0  0  0  0
  192.0220  176.8170  146.2440 O   0  0  0  0  0  1  0  0  0  0  0  0
  187.7740  176.3150  136.5900 C   0  0  0  0  0  2  0  0  0  0  0  0
  184.9720  173.9100  137.3650 O   0  0  0  0  0  0  0  0  0  0  0  0
  187.3490  173.9660  135.7430 C   0  0  0  0  0  2  0  0  0  0  0  0
  185.5790  175.1520  137.0640 C   0  0  1  0  0  3  0  0  0  0  0  0
  186.5650  172.6790  135.9900 C   0  0  0  0  0  0  0  0  0  0  0  0
  186.6830  171.8750  134.8560 O   0  0  0  0  0  1  0  0  0  0  0  0
  185.0820  173.0360  136.2540 C   0  0  1  0  0  3  0  0  0  0  0  0
  187.0880  174.9770  136.8560 C   0  0  2  0  0  3  0  0  0  0  0  0
  187.1040  172.0060  137.0890 O   0  0  0  0  0  1  0  0  0  0  0  0
  182.0000  177.7850  136.8720 N   0  0  0  0  0  0  0  0  0  0  0  0
  182.0970  177.8660  135.5870 C   0  0  0  0  0  0  0  0  0  0  0  0
  183.7820  176.6260  136.0520 C   0  0  0  0  0  0  0  0  0  0  0  0
  181.1350  178.6410  134.7610 C   0  0  0  0  0  1  0  0  0  0  0  0
  183.1920  177.1540  135.0340 N   0  0  0  0  0  0  0  0  0  0  0  0
  183.1000  176.9530  137.3350 C   0  0  0  0  0  2  0  0  0  0  0  0
  184.9390  175.8010  135.9190 N   0  0  0  0  0  2  0  0  0  0  0  0
  184.1930  171.7990  136.4770 C   0  0  2  0  0  3  0  0  0  0  0  0
  184.1760  171.0050  135.3300 O   0  0  0  0  0  1  0  0  0  0  0  0
  181.8700  171.4860  135.9960 O   0  0  0  0  0  1  0  0  0  0  0  0
  182.7610  172.2060  136.7920 C   0  0  0  0  0  2  0  0  0  0  0  0
  1  7  1  0  0  0  0
  2  4  2  0  0  0  0
  3  5  1  0  0  0  0
  4  6  1  0  0  0  0
  5  2  1  0  0  0  0
  5  1  2  0  0  0  0
  7  6  2  0  0  0  0
  8  9  1  0  0  0  0
  8  2  1  1  0  0  0
 10  8  1  0  0  0  0
 10 11  1  1  0  0  0
 10  9  1  0  0  0  0
 12 11  1  0  0  0  0
 12 14  1  0  0  0  0
 14 17  1  0  0  0  0
 14 13  1  1  0  0  0
 15 17  2  0  0  0  0
 17 16  1  0  0  0  0
 19 18  1  0  0  0  0
 20  6  1  6  0  0  0
 20 19  1  0  0  0  0
 20 18  1  0  0  0  0
 21 18  1  0  0  0  0
 21 22  1  0  0  0  0
 22 23  1  0  0  0  0
 23 25  1  0  0  0  0
 25 24  2  0  0  0  0
 25 26  1  0  0  0  0
 26 27  1  0  0  0  0
 28 27  1  6  0  0  0
 28 29  1  0  0  0  0
 29 30  1  0  0  0  0
 31 28  1  0  0  0  0
 32 31  1  0  0  0  0
 32 34  1  0  0  0  0
 33 32  2  0  0  0  0
 35  1  1  0  0  0  0
 37 39  1  0  0  0  0
 37 42  1  0  0  0  0
 38 50  1  6  0  0  0
 38 36  1  0  0  0  0
 39 41  1  0  0  0  0
 39 43  1  0  0  0  0
 40 39  1  0  0  0  0
 41 51  1  1  0  0  0
 41 36  1  0  0  0  0
 42 35  1  6  0  0  0
 42 38  1  0  0  0  0
 44 49  1  0  0  0  0
 45 44  2  0  0  0  0
 46 49  1  0  0  0  0
 47 45  1  0  0  0  0
 48 45  1  0  0  0  0
 48 46  2  0  0  0  0
 50 46  1  0  0  0  0
 51 52  1  6  0  0  0
 51 54  1  0  0  0  0
 53 54  1  0  0  0  0
M  END
>  <MODEL>
9

>  <REMARK>
 VINA RESULT:      -5.7      4.219      9.004
  Name = 
  21 active torsions:
  status: ('A' for Active; 'I' for Inactive)
    1  A    between atoms: C_1  and  C_35
    2  A    between atoms: C_2  and  C_6
    3  A    between atoms: C_5  and  C_8
    4  A    between atoms: C_5  and  C_48
    5  A    between atoms: N_12  and  C_38
    6  A    between atoms: N_12  and  C_44
    7  A    between atoms: C_17  and  C_41
    8  A    between atoms: C_17  and  C_51
    9  A    between atoms: N_18  and  C_42
   10  A    between atoms: C_19  and  N_31
   11  A    between atoms: C_21  and  C_43
   12  A    between atoms: C_21  and  C_47
   13  A    between atoms: C_23  and  C_37
   14  A    between atoms: C_23  and  C_47
   15  A    between atoms: N_27  and  C_48
   16  A    between atoms: C_35  and  C_46
   17  A    between atoms: N_36  and  C_44
   18  A    between atoms: N_36  and  C_54
   19  A    between atoms: C_38  and  C_42
   20  A    between atoms: C_45  and  C_50
   21  A    between atoms: C_48  and  C_54
                            x       y       z     vdW  Elec       q    Type
                         _______ _______ _______ _____ _____    ______ ____

>  <TORSDO>
F 21

$$$$
