=
 OpenBabel11062416003D

 36 37  0  0  1  0  0  0  0  0999 V2000
  186.8450  178.3850  142.2410 C   0  0  2  0  0  3  0  0  0  0  0  0
  189.1640  177.5460  144.6250 C   0  0  2  0  0  3  0  0  0  0  0  0
  187.7220  176.2710  143.3010 C   0  0  0  0  0  2  0  0  0  0  0  0
  187.1510  177.6580  143.5760 C   0  0  1  0  0  0  0  0  0  0  0  0
  189.1670  176.3990  143.6530 C   0  0  0  0  0  2  0  0  0  0  0  0
  188.1040  178.4130  144.2960 O   0  0  0  0  0  0  0  0  0  0  0  0
  185.8650  177.5550  144.4090 C   0  0  0  0  0  2  0  0  0  0  0  0
  185.9850  178.1660  145.7680 C   0  0  0  0  0  0  0  0  0  0  0  0
  186.5220  177.5190  146.7050 O   0  0  0  0  0  0  0  0  0  0  0  0
  185.4690  179.4700  146.0120 N   0  0  0  0  0  1  0  0  0  0  0  0
  190.4900  178.2820  144.5610 C   0  0  0  0  0  2  0  0  0  0  0  0
  191.9990  176.4370  145.3000 O   0  0  0  0  0  1  0  0  0  0  0  0
  192.1670  177.3000  143.1830 O   0  0  0  0  0  0  0  0  0  0  0  0
  191.6030  177.3250  144.3080 C   0  0  0  0  0  0  0  0  0  0  0  0
  185.3730  178.8310  142.1060 C   0  0  1  0  0  3  0  0  0  0  0  0
  185.2280  180.1760  142.4590 O   0  0  0  0  0  1  0  0  0  0  0  0
  184.7240  179.8060  139.9870 O   0  0  0  0  0  1  0  0  0  0  0  0
  184.8410  178.6010  140.6910 C   0  0  2  0  0  3  0  0  0  0  0  0
  183.5270  177.8140  140.6890 C   0  0  1  0  0  3  0  0  0  0  0  0
  182.4080  178.5730  141.3910 C   0  0  0  0  0  2  0  0  0  0  0  0
  181.5180  179.0910  140.4490 O   0  0  0  0  0  1  0  0  0  0  0  0
  183.1110  177.4740  139.2620 C   0  0  0  0  0  2  0  0  0  0  0  0
  181.5570  175.6070  139.8270 O   0  0  0  0  0  1  0  0  0  0  0  0
  183.3800  175.2360  138.4890 O   0  0  0  0  0  0  0  0  0  0  0  0
  182.6910  176.0470  139.1590 C   0  0  0  0  0  0  0  0  0  0  0  0
  187.1950  177.5620  141.1590 O   0  0  0  0  0  0  0  0  0  0  0  0
  187.4400  178.1970  138.8630 C   0  0  0  0  0  2  0  0  0  0  0  0
  189.4360  178.0170  140.4300 C   0  0  0  0  0  2  0  0  0  0  0  0
  188.5350  178.5150  137.8490 C   0  0  0  0  0  2  0  0  0  0  0  0
  189.7760  177.6350  138.0690 C   0  0  0  0  0  2  0  0  0  0  0  0
  189.8220  177.0360  139.4130 N   0  0  0  0  0  0  0  0  0  0  0  0
  187.9480  178.3700  140.3000 C   0  0  2  0  0  3  0  0  0  0  0  0
  191.1750  176.5410  139.6900 C   0  0  0  0  0  2  0  0  0  0  0  0
  191.9980  176.2930  138.4260 C   0  0  0  0  0  2  0  0  0  0  0  0
  193.3100  177.2560  139.9110 C   0  0  0  0  0  1  0  0  0  0  0  0
  193.2590  176.8680  138.5730 O   0  0  0  0  0  0  0  0  0  0  0  0
  1 26  1  6  0  0  0
  1  4  1  0  0  0  0
  2 11  1  6  0  0  0
  3  4  1  0  0  0  0
  3  5  1  0  0  0  0
  4  6  1  0  0  0  0
  4  7  1  1  0  0  0
  5  2  1  0  0  0  0
  6  2  1  0  0  0  0
  7  8  1  0  0  0  0
  8 10  1  0  0  0  0
  8  9  2  0  0  0  0
 13 14  2  0  0  0  0
 14 11  1  0  0  0  0
 14 12  1  0  0  0  0
 15  1  1  0  0  0  0
 15 16  1  6  0  0  0
 18 17  1  1  0  0  0
 18 15  1  0  0  0  0
 19 22  1  6  0  0  0
 19 18  1  0  0  0  0
 19 20  1  0  0  0  0
 21 20  1  0  0  0  0
 24 25  2  0  0  0  0
 25 22  1  0  0  0  0
 25 23  1  0  0  0  0
 27 32  1  0  0  0  0
 29 30  1  0  0  0  0
 29 27  1  0  0  0  0
 30 31  1  0  0  0  0
 31 33  1  0  0  0  0
 31 28  1  0  0  0  0
 32 28  1  0  0  0  0
 32 26  1  1  0  0  0
 34 36  1  0  0  0  0
 34 33  1  0  0  0  0
 36 35  1  0  0  0  0
M  END
>  <MODEL>
1

>  <REMARK>
 VINA RESULT:      -5.9      0.000      0.000
  Name = 
  16 active torsions:
  status: ('A' for Active; 'I' for Inactive)
    1  A    between atoms: C_1  and  C_12
    2  A    between atoms: C_1  and  C_30
    3  A    between atoms: C_2  and  C_11
    4  A    between atoms: C_5  and  C_10
    5  A    between atoms: C_6  and  C_26
    6  A    between atoms: C_6  and  N_31
    7  A    between atoms: C_10  and  C_36
    8  A    between atoms: C_11  and  C_21
    9  A    between atoms: C_12  and  C_24
   10  A    between atoms: O_18  and  C_26
   11  A    between atoms: C_20  and  C_34
   12  A    between atoms: C_21  and  C_30
   13  A    between atoms: O_23  and  C_30
   14  A    between atoms: O_23  and  C_32
   15  A    between atoms: C_24  and  C_33
   16  A    between atoms: C_24  and  C_34
                            x       y       z     vdW  Elec       q    Type
                         _______ _______ _______ _____ _____    ______ ____

>  <TORSDO>
F 16

$$$$
=
 OpenBabel11062416003D

 36 37  0  0  1  0  0  0  0  0999 V2000
  188.1710  177.8310  142.4100 C   0  0  2  0  0  3  0  0  0  0  0  0
  188.9810  177.2450  145.6910 C   0  0  2  0  0  3  0  0  0  0  0  0
  190.1270  178.2790  143.9380 C   0  0  0  0  0  2  0  0  0  0  0  0
  189.1650  177.2120  143.4260 C   0  0  1  0  0  0  0  0  0  0  0  0
  189.6760  178.5310  145.3380 C   0  0  0  0  0  2  0  0  0  0  0  0
  188.4340  176.6910  144.5180 O   0  0  0  0  0  0  0  0  0  0  0  0
  189.9390  176.0690  142.7540 C   0  0  0  0  0  2  0  0  0  0  0  0
  191.3990  176.0690  143.0720 C   0  0  0  0  0  0  0  0  0  0  0  0
  192.1840  176.8130  142.4280 O   0  0  0  0  0  0  0  0  0  0  0  0
  191.9090  175.2120  144.0870 N   0  0  0  0  0  1  0  0  0  0  0  0
  187.8880  177.5100  146.7110 C   0  0  0  0  0  2  0  0  0  0  0  0
  189.8480  177.6610  148.2480 O   0  0  0  0  0  0  0  0  0  0  0  0
  187.7120  177.7360  149.0760 O   0  0  0  0  0  1  0  0  0  0  0  0
  188.4700  177.6310  148.0770 C   0  0  0  0  0  0  0  0  0  0  0  0
  186.7140  177.8700  142.9190 C   0  0  1  0  0  3  0  0  0  0  0  0
  186.6120  178.6530  144.0730 O   0  0  0  0  0  1  0  0  0  0  0  0
  185.9090  179.7690  141.6500 O   0  0  0  0  0  1  0  0  0  0  0  0
  185.7550  178.3910  141.8470 C   0  0  2  0  0  3  0  0  0  0  0  0
  184.2990  178.0200  142.1450 C   0  0  1  0  0  3  0  0  0  0  0  0
  183.8180  178.6170  143.4620 C   0  0  0  0  0  2  0  0  0  0  0  0
  182.4790  178.9940  143.3540 O   0  0  0  0  0  1  0  0  0  0  0  0
  183.3900  178.4690  141.0070 C   0  0  0  0  0  2  0  0  0  0  0  0
  184.2070  177.8450  138.7350 O   0  0  0  0  0  0  0  0  0  0  0  0
  182.8380  176.4280  139.9050 O   0  0  0  0  0  1  0  0  0  0  0  0
  183.4670  177.5170  139.8620 C   0  0  0  0  0  0  0  0  0  0  0  0
  188.2330  177.1300  141.1950 O   0  0  0  0  0  0  0  0  0  0  0  0
  187.8270  178.1800  139.0820 C   0  0  0  0  0  2  0  0  0  0  0  0
  190.1680  177.5310  139.8340 C   0  0  0  0  0  2  0  0  0  0  0  0
  188.5770  178.5990  137.8220 C   0  0  0  0  0  2  0  0  0  0  0  0
  189.6850  177.5930  137.4680 C   0  0  0  0  0  2  0  0  0  0  0  0
  190.0680  176.7400  138.6050 N   0  0  0  0  0  0  0  0  0  0  0  0
  188.7830  178.0250  140.2720 C   0  0  2  0  0  3  0  0  0  0  0  0
  191.3530  176.0900  138.3280 C   0  0  0  0  0  2  0  0  0  0  0  0
  192.5490  176.8500  138.9020 C   0  0  0  0  0  2  0  0  0  0  0  0
  193.1100  176.0710  136.9180 C   0  0  0  0  0  1  0  0  0  0  0  0
  193.5950  176.8330  137.9790 O   0  0  0  0  0  0  0  0  0  0  0  0
  1 26  1  6  0  0  0
  1 15  1  0  0  0  0
  1  4  1  0  0  0  0
  2 11  1  1  0  0  0
  3  5  1  0  0  0  0
  4  7  1  6  0  0  0
  4  3  1  0  0  0  0
  4  6  1  0  0  0  0
  5  2  1  0  0  0  0
  6  2  1  0  0  0  0
  7  8  1  0  0  0  0
  8 10  1  0  0  0  0
  9  8  2  0  0  0  0
 11 14  1  0  0  0  0
 14 12  2  0  0  0  0
 14 13  1  0  0  0  0
 15 16  1  1  0  0  0
 18 17  1  1  0  0  0
 18 19  1  0  0  0  0
 18 15  1  0  0  0  0
 19 22  1  6  0  0  0
 19 20  1  0  0  0  0
 21 20  1  0  0  0  0
 23 25  2  0  0  0  0
 25 24  1  0  0  0  0
 25 22  1  0  0  0  0
 27 32  1  0  0  0  0
 28 32  1  0  0  0  0
 29 27  1  0  0  0  0
 30 29  1  0  0  0  0
 30 31  1  0  0  0  0
 31 28  1  0  0  0  0
 32 26  1  1  0  0  0
 33 31  1  0  0  0  0
 33 34  1  0  0  0  0
 35 36  1  0  0  0  0
 36 34  1  0  0  0  0
M  END
>  <MODEL>
2

>  <REMARK>
 VINA RESULT:      -5.9      1.953      3.286
  Name = 
  16 active torsions:
  status: ('A' for Active; 'I' for Inactive)
    1  A    between atoms: C_1  and  C_12
    2  A    between atoms: C_1  and  C_30
    3  A    between atoms: C_2  and  C_11
    4  A    between atoms: C_5  and  C_10
    5  A    between atoms: C_6  and  C_26
    6  A    between atoms: C_6  and  N_31
    7  A    between atoms: C_10  and  C_36
    8  A    between atoms: C_11  and  C_21
    9  A    between atoms: C_12  and  C_24
   10  A    between atoms: O_18  and  C_26
   11  A    between atoms: C_20  and  C_34
   12  A    between atoms: C_21  and  C_30
   13  A    between atoms: O_23  and  C_30
   14  A    between atoms: O_23  and  C_32
   15  A    between atoms: C_24  and  C_33
   16  A    between atoms: C_24  and  C_34
                            x       y       z     vdW  Elec       q    Type
                         _______ _______ _______ _____ _____    ______ ____

>  <TORSDO>
F 16

$$$$
=
 OpenBabel11062416003D

 36 37  0  0  1  0  0  0  0  0999 V2000
  187.3660  177.4130  142.1680 C   0  0  2  0  0  3  0  0  0  0  0  0
  184.1060  178.2820  141.5500 C   0  0  2  0  0  3  0  0  0  0  0  0
  186.0740  179.5310  141.7090 C   0  0  0  0  0  2  0  0  0  0  0  0
  186.1390  178.2710  142.5670 C   0  0  1  0  0  0  0  0  0  0  0  0
  184.9310  179.2800  140.7840 C   0  0  0  0  0  2  0  0  0  0  0  0
  184.9650  177.5110  142.3570 O   0  0  0  0  0  0  0  0  0  0  0  0
  186.2330  178.6380  144.0550 C   0  0  0  0  0  2  0  0  0  0  0  0
  184.9800  179.2440  144.6010 C   0  0  0  0  0  0  0  0  0  0  0  0
  184.5070  180.2880  144.0800 O   0  0  0  0  0  0  0  0  0  0  0  0
  184.3340  178.6580  145.7250 N   0  0  0  0  0  1  0  0  0  0  0  0
  183.3450  177.3910  140.5850 C   0  0  0  0  0  2  0  0  0  0  0  0
  181.3720  178.6950  141.3840 O   0  0  0  0  0  1  0  0  0  0  0  0
  181.3000  177.5860  139.3790 O   0  0  0  0  0  0  0  0  0  0  0  0
  181.9480  177.8830  140.4160 C   0  0  0  0  0  0  0  0  0  0  0  0
  188.0790  176.7590  143.3710 C   0  0  1  0  0  3  0  0  0  0  0  0
  187.7860  175.3930  143.4390 O   0  0  0  0  0  1  0  0  0  0  0  0
  190.2610  175.7750  143.0050 O   0  0  0  0  0  1  0  0  0  0  0  0
  189.5930  176.9660  143.3120 C   0  0  2  0  0  3  0  0  0  0  0  0
  190.1380  177.6080  144.5920 C   0  0  1  0  0  3  0  0  0  0  0  0
  190.5650  179.0540  144.3650 C   0  0  0  0  0  2  0  0  0  0  0  0
  191.9090  179.1010  143.9950 O   0  0  0  0  0  1  0  0  0  0  0  0
  189.1010  177.5400  145.7070 C   0  0  0  0  0  2  0  0  0  0  0  0
  190.8400  176.4280  147.1070 O   0  0  0  0  0  0  0  0  0  0  0  0
  189.3080  177.8390  148.0620 O   0  0  0  0  0  1  0  0  0  0  0  0
  189.7550  177.2900  147.0230 C   0  0  0  0  0  0  0  0  0  0  0  0
  188.2780  178.1950  141.4410 O   0  0  0  0  0  0  0  0  0  0  0  0
  190.0990  177.8490  139.9250 C   0  0  0  0  0  2  0  0  0  0  0  0
  187.6850  177.4240  139.2470 C   0  0  0  0  0  2  0  0  0  0  0  0
  190.3520  177.4700  138.4690 C   0  0  0  0  0  2  0  0  0  0  0  0
  189.2750  178.0570  137.5420 C   0  0  0  0  0  2  0  0  0  0  0  0
  188.0500  178.4450  138.2600 N   0  0  0  0  0  0  0  0  0  0  0  0
  188.7120  177.3840  140.3860 C   0  0  2  0  0  3  0  0  0  0  0  0
  186.9510  178.6270  137.3070 C   0  0  0  0  0  2  0  0  0  0  0  0
  185.9810  177.4460  137.2700 C   0  0  0  0  0  2  0  0  0  0  0  0
  183.8770  177.0690  136.7340 C   0  0  0  0  0  1  0  0  0  0  0  0
  184.6850  177.9040  137.5040 O   0  0  0  0  0  0  0  0  0  0  0  0
  1 26  1  1  0  0  0
  1  4  1  0  0  0  0
  1 15  1  0  0  0  0
  2 11  1  6  0  0  0
  2  6  1  0  0  0  0
  3  4  1  0  0  0  0
  4  7  1  1  0  0  0
  5  2  1  0  0  0  0
  5  3  1  0  0  0  0
  6  4  1  0  0  0  0
  7  8  1  0  0  0  0
  8 10  1  0  0  0  0
  9  8  2  0  0  0  0
 13 14  2  0  0  0  0
 14 11  1  0  0  0  0
 14 12  1  0  0  0  0
 15 16  1  6  0  0  0
 18 17  1  1  0  0  0
 18 15  1  0  0  0  0
 18 19  1  0  0  0  0
 19 20  1  6  0  0  0
 19 22  1  0  0  0  0
 21 20  1  0  0  0  0
 22 25  1  0  0  0  0
 25 23  2  0  0  0  0
 25 24  1  0  0  0  0
 27 32  1  0  0  0  0
 28 32  1  0  0  0  0
 29 27  1  0  0  0  0
 30 31  1  0  0  0  0
 30 29  1  0  0  0  0
 31 28  1  0  0  0  0
 32 26  1  1  0  0  0
 33 31  1  0  0  0  0
 34 33  1  0  0  0  0
 34 36  1  0  0  0  0
 35 36  1  0  0  0  0
M  END
>  <MODEL>
3

>  <REMARK>
 VINA RESULT:      -5.7      1.957      6.857
  Name = 
  16 active torsions:
  status: ('A' for Active; 'I' for Inactive)
    1  A    between atoms: C_1  and  C_12
    2  A    between atoms: C_1  and  C_30
    3  A    between atoms: C_2  and  C_11
    4  A    between atoms: C_5  and  C_10
    5  A    between atoms: C_6  and  C_26
    6  A    between atoms: C_6  and  N_31
    7  A    between atoms: C_10  and  C_36
    8  A    between atoms: C_11  and  C_21
    9  A    between atoms: C_12  and  C_24
   10  A    between atoms: O_18  and  C_26
   11  A    between atoms: C_20  and  C_34
   12  A    between atoms: C_21  and  C_30
   13  A    between atoms: O_23  and  C_30
   14  A    between atoms: O_23  and  C_32
   15  A    between atoms: C_24  and  C_33
   16  A    between atoms: C_24  and  C_34
                            x       y       z     vdW  Elec       q    Type
                         _______ _______ _______ _____ _____    ______ ____

>  <TORSDO>
F 16

$$$$
=
 OpenBabel11062416003D

 36 37  0  0  1  0  0  0  0  0999 V2000
  187.6130  178.3430  141.2730 C   0  0  2  0  0  3  0  0  0  0  0  0
  187.7520  177.1500  144.4860 C   0  0  2  0  0  3  0  0  0  0  0  0
  189.2400  178.4090  143.1990 C   0  0  0  0  0  2  0  0  0  0  0  0
  188.3760  177.5030  142.3300 C   0  0  1  0  0  0  0  0  0  0  0  0
  188.5290  178.4370  144.5110 C   0  0  0  0  0  2  0  0  0  0  0  0
  187.4340  176.8400  143.1500 O   0  0  0  0  0  0  0  0  0  0  0  0
  189.2430  176.4530  141.6190 C   0  0  0  0  0  2  0  0  0  0  0  0
  190.6090  176.3100  142.2090 C   0  0  0  0  0  0  0  0  0  0  0  0
  190.8150  175.4780  143.1300 O   0  0  0  0  0  0  0  0  0  0  0  0
  191.6750  177.1330  141.7470 N   0  0  0  0  0  1  0  0  0  0  0  0
  186.4860  177.2940  145.3120 C   0  0  0  0  0  2  0  0  0  0  0  0
  187.7740  177.2040  147.4480 O   0  0  0  0  0  1  0  0  0  0  0  0
  186.2230  178.8540  147.0930 O   0  0  0  0  0  0  0  0  0  0  0  0
  186.8070  177.8240  146.6670 C   0  0  0  0  0  0  0  0  0  0  0  0
  186.2300  178.8310  141.7560 C   0  0  1  0  0  3  0  0  0  0  0  0
  186.2910  180.1630  142.1750 O   0  0  0  0  0  1  0  0  0  0  0  0
  185.1360  179.7840  139.8170 O   0  0  0  0  0  1  0  0  0  0  0  0
  185.1650  178.6730  140.6690 C   0  0  2  0  0  3  0  0  0  0  0  0
  183.7820  178.3710  141.2540 C   0  0  1  0  0  3  0  0  0  0  0  0
  183.0730  177.2580  140.4920 C   0  0  0  0  0  2  0  0  0  0  0  0
  181.8290  177.7050  140.0450 O   0  0  0  0  0  1  0  0  0  0  0  0
  183.8960  178.0020  142.7290 C   0  0  0  0  0  2  0  0  0  0  0  0
  181.7960  179.2720  143.1750 O   0  0  0  0  0  0  0  0  0  0  0  0
  183.5670  179.4110  144.6230 O   0  0  0  0  0  1  0  0  0  0  0  0
  183.0810  178.9250  143.5700 C   0  0  0  0  0  0  0  0  0  0  0  0
  187.4720  177.6040  140.0880 O   0  0  0  0  0  0  0  0  0  0  0  0
  187.3100  178.1000  137.7510 C   0  0  0  0  0  2  0  0  0  0  0  0
  189.5300  178.1690  138.9900 C   0  0  0  0  0  2  0  0  0  0  0  0
  188.2070  178.4280  136.5610 C   0  0  0  0  0  2  0  0  0  0  0  0
  189.5350  177.6550  136.6300 C   0  0  0  0  0  2  0  0  0  0  0  0
  189.8350  177.1520  137.9800 N   0  0  0  0  0  0  0  0  0  0  0  0
  188.0170  178.4050  139.0780 C   0  0  2  0  0  3  0  0  0  0  0  0
  191.2490  176.7750  138.0680 C   0  0  0  0  0  2  0  0  0  0  0  0
  191.5020  175.3010  137.7510 C   0  0  0  0  0  2  0  0  0  0  0  0
  190.2690  173.6820  136.9050 C   0  0  0  0  0  1  0  0  0  0  0  0
  190.3340  174.5720  137.9760 O   0  0  0  0  0  0  0  0  0  0  0  0
  1 26  1  6  0  0  0
  1 15  1  0  0  0  0
  1  4  1  0  0  0  0
  2  5  1  0  0  0  0
  2 11  1  1  0  0  0
  3  5  1  0  0  0  0
  4  7  1  6  0  0  0
  4  6  1  0  0  0  0
  4  3  1  0  0  0  0
  6  2  1  0  0  0  0
  7  8  1  0  0  0  0
  8  9  2  0  0  0  0
 10  8  1  0  0  0  0
 11 14  1  0  0  0  0
 14 13  2  0  0  0  0
 14 12  1  0  0  0  0
 15 16  1  6  0  0  0
 18 17  1  1  0  0  0
 18 19  1  0  0  0  0
 18 15  1  0  0  0  0
 19 20  1  6  0  0  0
 19 22  1  0  0  0  0
 21 20  1  0  0  0  0
 22 25  1  0  0  0  0
 23 25  2  0  0  0  0
 25 24  1  0  0  0  0
 27 32  1  0  0  0  0
 28 32  1  0  0  0  0
 29 30  1  0  0  0  0
 29 27  1  0  0  0  0
 30 31  1  0  0  0  0
 31 33  1  0  0  0  0
 31 28  1  0  0  0  0
 32 26  1  1  0  0  0
 34 36  1  0  0  0  0
 34 33  1  0  0  0  0
 35 36  1  0  0  0  0
M  END
>  <MODEL>
4

>  <REMARK>
 VINA RESULT:      -5.7      2.139      3.695
  Name = 
  16 active torsions:
  status: ('A' for Active; 'I' for Inactive)
    1  A    between atoms: C_1  and  C_12
    2  A    between atoms: C_1  and  C_30
    3  A    between atoms: C_2  and  C_11
    4  A    between atoms: C_5  and  C_10
    5  A    between atoms: C_6  and  C_26
    6  A    between atoms: C_6  and  N_31
    7  A    between atoms: C_10  and  C_36
    8  A    between atoms: C_11  and  C_21
    9  A    between atoms: C_12  and  C_24
   10  A    between atoms: O_18  and  C_26
   11  A    between atoms: C_20  and  C_34
   12  A    between atoms: C_21  and  C_30
   13  A    between atoms: O_23  and  C_30
   14  A    between atoms: O_23  and  C_32
   15  A    between atoms: C_24  and  C_33
   16  A    between atoms: C_24  and  C_34
                            x       y       z     vdW  Elec       q    Type
                         _______ _______ _______ _____ _____    ______ ____

>  <TORSDO>
F 16

$$$$
=
 OpenBabel11062416003D

 36 37  0  0  1  0  0  0  0  0999 V2000
  185.9660  178.7620  139.1850 C   0  0  2  0  0  3  0  0  0  0  0  0
  183.8080  178.8520  141.8490 C   0  0  2  0  0  3  0  0  0  0  0  0
  183.7730  177.6910  139.8230 C   0  0  0  0  0  2  0  0  0  0  0  0
  184.5250  179.0120  139.6990 C   0  0  1  0  0  0  0  0  0  0  0  0
  183.6900  177.4590  141.2950 C   0  0  0  0  0  2  0  0  0  0  0  0
  184.5950  179.6220  140.9720 O   0  0  0  0  0  0  0  0  0  0  0  0
  183.7940  179.9580  138.7340 C   0  0  0  0  0  2  0  0  0  0  0  0
  182.3810  179.5540  138.4590 C   0  0  0  0  0  0  0  0  0  0  0  0
  182.1050  178.8880  137.4270 O   0  0  0  0  0  0  0  0  0  0  0  0
  181.3420  179.9430  139.3500 N   0  0  0  0  0  1  0  0  0  0  0  0
  184.4410  178.8080  143.2280 C   0  0  0  0  0  2  0  0  0  0  0  0
  183.7630  179.0660  145.6160 O   0  0  0  0  0  1  0  0  0  0  0  0
  182.1790  178.9420  143.9640 O   0  0  0  0  0  0  0  0  0  0  0  0
  183.3960  178.9310  144.2840 C   0  0  0  0  0  0  0  0  0  0  0  0
  186.0390  178.4780  137.6690 C   0  0  1  0  0  3  0  0  0  0  0  0
  187.0870  179.1910  137.0800 O   0  0  0  0  0  1  0  0  0  0  0  0
  187.3640  176.7240  136.6530 O   0  0  0  0  0  1  0  0  0  0  0  0
  186.1970  176.9830  137.3830 C   0  0  2  0  0  3  0  0  0  0  0  0
  184.9590  176.3910  136.7020 C   0  0  1  0  0  3  0  0  0  0  0  0
  184.6630  177.0700  135.3710 C   0  0  0  0  0  2  0  0  0  0  0  0
  183.5080  176.5280  134.8060 O   0  0  0  0  0  1  0  0  0  0  0  0
  185.1300  174.8910  136.4960 C   0  0  0  0  0  2  0  0  0  0  0  0
  184.9610  172.9110  138.0020 O   0  0  0  0  0  0  0  0  0  0  0  0
  183.3800  174.5670  138.0800 O   0  0  0  0  0  1  0  0  0  0  0  0
  184.4430  174.1260  137.5750 C   0  0  0  0  0  0  0  0  0  0  0  0
  186.5500  177.7040  139.8980 O   0  0  0  0  0  0  0  0  0  0  0  0
  188.9210  177.3680  139.8570 C   0  0  0  0  0  2  0  0  0  0  0  0
  187.7170  178.2130  141.9320 C   0  0  0  0  0  2  0  0  0  0  0  0
  190.1260  177.4320  140.7890 C   0  0  0  0  0  2  0  0  0  0  0  0
  189.7640  176.9600  142.2080 C   0  0  0  0  0  2  0  0  0  0  0  0
  188.3150  176.9870  142.4670 N   0  0  0  0  0  0  0  0  0  0  0  0
  187.7560  178.2080  140.3990 C   0  0  2  0  0  3  0  0  0  0  0  0
  188.0670  176.9030  143.9100 C   0  0  0  0  0  2  0  0  0  0  0  0
  189.1650  177.5580  144.7500 C   0  0  0  0  0  2  0  0  0  0  0  0
  188.6750  177.6840  146.8950 C   0  0  0  0  0  1  0  0  0  0  0  0
  189.3000  176.8680  145.9540 O   0  0  0  0  0  0  0  0  0  0  0  0
  1  4  1  0  0  0  0
  1 26  1  1  0  0  0
  2 11  1  1  0  0  0
  3  5  1  0  0  0  0
  4  7  1  6  0  0  0
  4  3  1  0  0  0  0
  4  6  1  0  0  0  0
  5  2  1  0  0  0  0
  6  2  1  0  0  0  0
  8  7  1  0  0  0  0
  8 10  1  0  0  0  0
  9  8  2  0  0  0  0
 11 14  1  0  0  0  0
 13 14  2  0  0  0  0
 14 12  1  0  0  0  0
 15 16  1  1  0  0  0
 15  1  1  0  0  0  0
 18 17  1  6  0  0  0
 18 15  1  0  0  0  0
 19 20  1  6  0  0  0
 19 18  1  0  0  0  0
 21 20  1  0  0  0  0
 22 19  1  0  0  0  0
 22 25  1  0  0  0  0
 25 23  2  0  0  0  0
 25 24  1  0  0  0  0
 27 32  1  0  0  0  0
 27 29  1  0  0  0  0
 28 31  1  0  0  0  0
 29 30  1  0  0  0  0
 30 31  1  0  0  0  0
 31 33  1  0  0  0  0
 32 26  1  6  0  0  0
 32 28  1  0  0  0  0
 33 34  1  0  0  0  0
 34 36  1  0  0  0  0
 36 35  1  0  0  0  0
M  END
>  <MODEL>
5

>  <REMARK>
 VINA RESULT:      -5.6      2.783      5.900
  Name = 
  16 active torsions:
  status: ('A' for Active; 'I' for Inactive)
    1  A    between atoms: C_1  and  C_12
    2  A    between atoms: C_1  and  C_30
    3  A    between atoms: C_2  and  C_11
    4  A    between atoms: C_5  and  C_10
    5  A    between atoms: C_6  and  C_26
    6  A    between atoms: C_6  and  N_31
    7  A    between atoms: C_10  and  C_36
    8  A    between atoms: C_11  and  C_21
    9  A    between atoms: C_12  and  C_24
   10  A    between atoms: O_18  and  C_26
   11  A    between atoms: C_20  and  C_34
   12  A    between atoms: C_21  and  C_30
   13  A    between atoms: O_23  and  C_30
   14  A    between atoms: O_23  and  C_32
   15  A    between atoms: C_24  and  C_33
   16  A    between atoms: C_24  and  C_34
                            x       y       z     vdW  Elec       q    Type
                         _______ _______ _______ _____ _____    ______ ____

>  <TORSDO>
F 16

$$$$
=
 OpenBabel11062416003D

 36 37  0  0  1  0  0  0  0  0999 V2000
  188.5210  177.7640  142.6880 C   0  0  2  0  0  3  0  0  0  0  0  0
  191.3670  177.2450  144.5310 C   0  0  2  0  0  3  0  0  0  0  0  0
  190.8680  178.6850  142.7610 C   0  0  0  0  0  2  0  0  0  0  0  0
  190.0310  177.4120  142.7000 C   0  0  1  0  0  0  0  0  0  0  0  0
  191.4030  178.7000  144.1540 C   0  0  0  0  0  2  0  0  0  0  0  0
  190.3050  176.6260  143.8440 O   0  0  0  0  0  0  0  0  0  0  0  0
  190.3770  176.5990  141.4440 C   0  0  0  0  0  2  0  0  0  0  0  0
  191.1820  177.3640  140.4430 C   0  0  0  0  0  0  0  0  0  0  0  0
  190.6180  177.8770  139.4410 O   0  0  0  0  0  0  0  0  0  0  0  0
  192.5900  177.4910  140.6060 N   0  0  0  0  0  1  0  0  0  0  0  0
  191.1790  177.1040  146.0310 C   0  0  0  0  0  2  0  0  0  0  0  0
  192.4310  174.9660  145.7320 O   0  0  0  0  0  0  0  0  0  0  0  0
  192.4330  176.0410  147.7560 O   0  0  0  0  0  1  0  0  0  0  0  0
  192.0380  176.0080  146.5610 C   0  0  0  0  0  0  0  0  0  0  0  0
  187.7280  177.1170  143.8440 C   0  0  1  0  0  3  0  0  0  0  0  0
  188.4040  176.0030  144.3490 O   0  0  0  0  0  1  0  0  0  0  0  0
  188.2790  177.8790  146.0750 O   0  0  0  0  0  1  0  0  0  0  0  0
  187.4540  178.1170  144.9690 C   0  0  2  0  0  3  0  0  0  0  0  0
  185.9740  178.1530  145.3620 C   0  0  1  0  0  3  0  0  0  0  0  0
  185.7890  178.2360  146.8720 C   0  0  0  0  0  2  0  0  0  0  0  0
  185.6810  179.5710  147.2660 O   0  0  0  0  0  1  0  0  0  0  0  0
  185.2710  179.3240  144.6850 C   0  0  0  0  0  2  0  0  0  0  0  0
  182.9060  179.2090  145.4690 O   0  0  0  0  0  1  0  0  0  0  0  0
  183.4590  178.5500  143.3440 O   0  0  0  0  0  0  0  0  0  0  0  0
  183.8320  179.0140  144.4520 C   0  0  0  0  0  0  0  0  0  0  0  0
  187.9560  177.3960  141.4570 O   0  0  0  0  0  0  0  0  0  0  0  0
  185.8580  178.5470  141.3690 C   0  0  0  0  0  2  0  0  0  0  0  0
  187.5180  178.6270  139.4440 C   0  0  0  0  0  2  0  0  0  0  0  0
  185.0200  179.3780  140.4020 C   0  0  0  0  0  2  0  0  0  0  0  0
  185.1640  178.8710  138.9580 C   0  0  0  0  0  2  0  0  0  0  0  0
  186.3630  178.0400  138.7590 N   0  0  0  0  0  0  0  0  0  0  0  0
  187.3380  178.5510  140.9660 C   0  0  2  0  0  3  0  0  0  0  0  0
  186.6480  177.9130  137.3260 C   0  0  0  0  0  2  0  0  0  0  0  0
  188.1430  177.9240  137.0050 C   0  0  0  0  0  2  0  0  0  0  0  0
  187.0290  177.8200  135.1060 C   0  0  0  0  0  1  0  0  0  0  0  0
  188.3190  177.9240  135.6220 O   0  0  0  0  0  0  0  0  0  0  0  0
  1 26  1  6  0  0  0
  1  4  1  0  0  0  0
  1 15  1  0  0  0  0
  2 11  1  1  0  0  0
  3  5  1  0  0  0  0
  4  7  1  6  0  0  0
  4  3  1  0  0  0  0
  4  6  1  0  0  0  0
  5  2  1  0  0  0  0
  6  2  1  0  0  0  0
  8 10  1  0  0  0  0
  8  7  1  0  0  0  0
  9  8  2  0  0  0  0
 11 14  1  0  0  0  0
 12 14  2  0  0  0  0
 14 13  1  0  0  0  0
 15 16  1  1  0  0  0
 15 18  1  0  0  0  0
 18 19  1  0  0  0  0
 18 17  1  1  0  0  0
 19 22  1  6  0  0  0
 19 20  1  0  0  0  0
 20 21  1  0  0  0  0
 24 25  2  0  0  0  0
 25 22  1  0  0  0  0
 25 23  1  0  0  0  0
 28 32  1  0  0  0  0
 29 27  1  0  0  0  0
 30 29  1  0  0  0  0
 31 30  1  0  0  0  0
 31 28  1  0  0  0  0
 32 27  1  0  0  0  0
 32 26  1  6  0  0  0
 33 31  1  0  0  0  0
 34 33  1  0  0  0  0
 35 36  1  0  0  0  0
 36 34  1  0  0  0  0
M  END
>  <MODEL>
6

>  <REMARK>
 VINA RESULT:      -5.3      2.632      5.154
  Name = 
  16 active torsions:
  status: ('A' for Active; 'I' for Inactive)
    1  A    between atoms: C_1  and  C_12
    2  A    between atoms: C_1  and  C_30
    3  A    between atoms: C_2  and  C_11
    4  A    between atoms: C_5  and  C_10
    5  A    between atoms: C_6  and  C_26
    6  A    between atoms: C_6  and  N_31
    7  A    between atoms: C_10  and  C_36
    8  A    between atoms: C_11  and  C_21
    9  A    between atoms: C_12  and  C_24
   10  A    between atoms: O_18  and  C_26
   11  A    between atoms: C_20  and  C_34
   12  A    between atoms: C_21  and  C_30
   13  A    between atoms: O_23  and  C_30
   14  A    between atoms: O_23  and  C_32
   15  A    between atoms: C_24  and  C_33
   16  A    between atoms: C_24  and  C_34
                            x       y       z     vdW  Elec       q    Type
                         _______ _______ _______ _____ _____    ______ ____

>  <TORSDO>
F 16

$$$$
=
 OpenBabel11062416003D

 36 37  0  0  1  0  0  0  0  0999 V2000
  188.0710  177.3680  137.6300 C   0  0  2  0  0  3  0  0  0  0  0  0
  190.9180  175.8190  136.5090 C   0  0  2  0  0  3  0  0  0  0  0  0
  188.8900  176.3440  135.4750 C   0  0  0  0  0  2  0  0  0  0  0  0
  188.7140  176.1200  136.9740 C   0  0  1  0  0  0  0  0  0  0  0  0
  190.3610  176.5340  135.3080 C   0  0  0  0  0  2  0  0  0  0  0  0
  189.9830  175.9020  137.5580 O   0  0  0  0  0  0  0  0  0  0  0  0
  187.8290  174.8920  137.2340 C   0  0  0  0  0  2  0  0  0  0  0  0
  188.1780  173.7140  136.3810 C   0  0  0  0  0  0  0  0  0  0  0  0
  189.0820  172.9180  136.7470 O   0  0  0  0  0  0  0  0  0  0  0  0
  187.5080  173.5050  135.1440 N   0  0  0  0  0  1  0  0  0  0  0  0
  192.2350  176.4520  136.9220 C   0  0  0  0  0  2  0  0  0  0  0  0
  192.8230  174.1130  137.5620 O   0  0  0  0  0  0  0  0  0  0  0  0
  194.0080  175.8830  138.4070 O   0  0  0  0  0  1  0  0  0  0  0  0
  193.0650  175.4750  137.6800 C   0  0  0  0  0  0  0  0  0  0  0  0
  188.9870  178.0650  138.6590 C   0  0  1  0  0  3  0  0  0  0  0  0
  189.0720  179.4360  138.4010 O   0  0  0  0  0  1  0  0  0  0  0  0
  188.0430  179.0160  140.6760 O   0  0  0  0  0  1  0  0  0  0  0  0
  188.5070  177.8310  140.0920 C   0  0  2  0  0  3  0  0  0  0  0  0
  189.5760  177.1540  140.9560 C   0  0  1  0  0  3  0  0  0  0  0  0
  190.9610  177.2510  140.3270 C   0  0  0  0  0  2  0  0  0  0  0  0
  191.9230  177.4440  141.3190 O   0  0  0  0  0  1  0  0  0  0  0  0
  189.5950  177.7610  142.3540 C   0  0  0  0  0  2  0  0  0  0  0  0
  188.9740  177.1590  144.6930 O   0  0  0  0  0  1  0  0  0  0  0  0
  188.5230  175.7220  142.9660 O   0  0  0  0  0  0  0  0  0  0  0  0
  188.9920  176.8260  143.3460 C   0  0  0  0  0  0  0  0  0  0  0  0
  186.8550  177.0150  138.2360 O   0  0  0  0  0  0  0  0  0  0  0  0
  185.0870  178.4910  138.8910 C   0  0  0  0  0  2  0  0  0  0  0  0
  185.0220  177.2040  136.6980 C   0  0  0  0  0  2  0  0  0  0  0  0
  183.7100  178.9480  138.4180 C   0  0  0  0  0  2  0  0  0  0  0  0
  182.9340  177.7960  137.7580 C   0  0  0  0  0  2  0  0  0  0  0  0
  183.8050  176.6890  137.3310 N   0  0  0  0  0  0  0  0  0  0  0  0
  185.9080  177.9130  137.7310 C   0  0  2  0  0  3  0  0  0  0  0  0
  183.0850  175.8250  136.3900 C   0  0  0  0  0  2  0  0  0  0  0  0
  182.5890  174.5250  137.0240 C   0  0  0  0  0  2  0  0  0  0  0  0
  184.1390  173.0620  136.4630 C   0  0  0  0  0  1  0  0  0  0  0  0
  183.6740  173.8170  137.5390 O   0  0  0  0  0  0  0  0  0  0  0  0
  1 26  1  1  0  0  0
  1 15  1  0  0  0  0
  2 11  1  1  0  0  0
  2  6  1  0  0  0  0
  3  4  1  0  0  0  0
  4  7  1  1  0  0  0
  4  6  1  0  0  0  0
  4  1  1  0  0  0  0
  5  3  1  0  0  0  0
  5  2  1  0  0  0  0
  8  9  2  0  0  0  0
  8  7  1  0  0  0  0
 10  8  1  0  0  0  0
 11 14  1  0  0  0  0
 12 14  2  0  0  0  0
 14 13  1  0  0  0  0
 15 16  1  6  0  0  0
 15 18  1  0  0  0  0
 18 17  1  1  0  0  0
 18 19  1  0  0  0  0
 19 20  1  6  0  0  0
 19 22  1  0  0  0  0
 20 21  1  0  0  0  0
 22 25  1  0  0  0  0
 24 25  2  0  0  0  0
 25 23  1  0  0  0  0
 28 31  1  0  0  0  0
 28 32  1  0  0  0  0
 29 27  1  0  0  0  0
 30 29  1  0  0  0  0
 31 30  1  0  0  0  0
 32 26  1  1  0  0  0
 32 27  1  0  0  0  0
 33 34  1  0  0  0  0
 33 31  1  0  0  0  0
 34 36  1  0  0  0  0
 35 36  1  0  0  0  0
M  END
>  <MODEL>
7

>  <REMARK>
 VINA RESULT:      -5.3      3.085      7.646
  Name = 
  16 active torsions:
  status: ('A' for Active; 'I' for Inactive)
    1  A    between atoms: C_1  and  C_12
    2  A    between atoms: C_1  and  C_30
    3  A    between atoms: C_2  and  C_11
    4  A    between atoms: C_5  and  C_10
    5  A    between atoms: C_6  and  C_26
    6  A    between atoms: C_6  and  N_31
    7  A    between atoms: C_10  and  C_36
    8  A    between atoms: C_11  and  C_21
    9  A    between atoms: C_12  and  C_24
   10  A    between atoms: O_18  and  C_26
   11  A    between atoms: C_20  and  C_34
   12  A    between atoms: C_21  and  C_30
   13  A    between atoms: O_23  and  C_30
   14  A    between atoms: O_23  and  C_32
   15  A    between atoms: C_24  and  C_33
   16  A    between atoms: C_24  and  C_34
                            x       y       z     vdW  Elec       q    Type
                         _______ _______ _______ _____ _____    ______ ____

>  <TORSDO>
F 16

$$$$
=
 OpenBabel11062416003D

 36 37  0  0  1  0  0  0  0  0999 V2000
  184.5470  178.3320  138.1530 C   0  0  2  0  0  3  0  0  0  0  0  0
  184.2770  178.9570  141.5150 C   0  0  2  0  0  3  0  0  0  0  0  0
  182.7270  178.2920  139.8990 C   0  0  0  0  0  2  0  0  0  0  0  0
  183.8500  179.1240  139.2890 C   0  0  1  0  0  0  0  0  0  0  0  0
  183.2610  177.8850  141.2310 C   0  0  0  0  0  2  0  0  0  0  0  0
  184.8030  179.4150  140.2910 O   0  0  0  0  0  0  0  0  0  0  0  0
  183.2990  180.4440  138.7290 C   0  0  0  0  0  2  0  0  0  0  0  0
  181.8080  180.4650  138.6130 C   0  0  0  0  0  0  0  0  0  0  0  0
  181.1000  180.6800  139.6310 O   0  0  0  0  0  0  0  0  0  0  0  0
  181.1870  180.2190  137.3570 N   0  0  0  0  0  1  0  0  0  0  0  0
  185.3840  178.4020  142.3920 C   0  0  0  0  0  2  0  0  0  0  0  0
  184.2370  179.7580  144.1450 O   0  0  0  0  0  0  0  0  0  0  0  0
  185.7460  178.1350  144.7320 O   0  0  0  0  0  1  0  0  0  0  0  0
  185.1450  178.7600  143.8190 C   0  0  0  0  0  0  0  0  0  0  0  0
  183.6170  177.3240  137.4440 C   0  0  1  0  0  3  0  0  0  0  0  0
  183.1810  177.8290  136.2160 O   0  0  0  0  0  1  0  0  0  0  0  0
  184.6600  175.7780  135.9000 O   0  0  0  0  0  1  0  0  0  0  0  0
  184.3020  175.9720  137.2400 C   0  0  2  0  0  3  0  0  0  0  0  0
  183.4580  174.8110  137.7750 C   0  0  1  0  0  3  0  0  0  0  0  0
  182.0550  175.2600  138.1650 C   0  0  0  0  0  2  0  0  0  0  0  0
  181.1270  174.7810  137.2400 O   0  0  0  0  0  1  0  0  0  0  0  0
  183.3790  173.6890  136.7460 C   0  0  0  0  0  2  0  0  0  0  0  0
  185.4090  172.6220  137.7240 O   0  0  0  0  0  1  0  0  0  0  0  0
  183.6020  171.3470  137.1230 O   0  0  0  0  0  0  0  0  0  0  0  0
  184.1250  172.4870  137.2150 C   0  0  0  0  0  0  0  0  0  0  0  0
  185.6750  177.6670  138.6580 O   0  0  0  0  0  0  0  0  0  0  0  0
  187.2490  178.2520  136.9500 C   0  0  0  0  0  2  0  0  0  0  0  0
  187.8710  178.2720  139.4160 C   0  0  0  0  0  2  0  0  0  0  0  0
  188.7200  178.6250  136.7940 C   0  0  0  0  0  2  0  0  0  0  0  0
  189.6030  177.8490  137.7860 C   0  0  0  0  0  2  0  0  0  0  0  0
  188.8410  177.2940  138.9170 N   0  0  0  0  0  0  0  0  0  0  0  0
  186.7610  178.5060  138.3830 C   0  0  2  0  0  3  0  0  0  0  0  0
  189.7590  176.9140  139.9950 C   0  0  0  0  0  2  0  0  0  0  0  0
  189.2730  177.3400  141.3810 C   0  0  0  0  0  2  0  0  0  0  0  0
  188.6130  176.3340  143.2270 C   0  0  0  0  0  1  0  0  0  0  0  0
  189.6720  176.3930  142.3240 O   0  0  0  0  0  0  0  0  0  0  0  0
  1 26  1  1  0  0  0
  1  4  1  0  0  0  0
  2 11  1  1  0  0  0
  3  5  1  0  0  0  0
  4  7  1  6  0  0  0
  4  3  1  0  0  0  0
  4  6  1  0  0  0  0
  5  2  1  0  0  0  0
  6  2  1  0  0  0  0
  8  7  1  0  0  0  0
  8  9  2  0  0  0  0
 10  8  1  0  0  0  0
 11 14  1  0  0  0  0
 14 12  2  0  0  0  0
 14 13  1  0  0  0  0
 15 16  1  6  0  0  0
 15  1  1  0  0  0  0
 18 17  1  6  0  0  0
 18 15  1  0  0  0  0
 18 19  1  0  0  0  0
 19 22  1  6  0  0  0
 19 20  1  0  0  0  0
 21 20  1  0  0  0  0
 22 25  1  0  0  0  0
 24 25  2  0  0  0  0
 25 23  1  0  0  0  0
 27 32  1  0  0  0  0
 29 27  1  0  0  0  0
 29 30  1  0  0  0  0
 30 31  1  0  0  0  0
 31 28  1  0  0  0  0
 31 33  1  0  0  0  0
 32 26  1  1  0  0  0
 32 28  1  0  0  0  0
 33 34  1  0  0  0  0
 34 36  1  0  0  0  0
 36 35  1  0  0  0  0
M  END
>  <MODEL>
8

>  <REMARK>
 VINA RESULT:      -5.3      2.694      5.480
  Name = 
  16 active torsions:
  status: ('A' for Active; 'I' for Inactive)
    1  A    between atoms: C_1  and  C_12
    2  A    between atoms: C_1  and  C_30
    3  A    between atoms: C_2  and  C_11
    4  A    between atoms: C_5  and  C_10
    5  A    between atoms: C_6  and  C_26
    6  A    between atoms: C_6  and  N_31
    7  A    between atoms: C_10  and  C_36
    8  A    between atoms: C_11  and  C_21
    9  A    between atoms: C_12  and  C_24
   10  A    between atoms: O_18  and  C_26
   11  A    between atoms: C_20  and  C_34
   12  A    between atoms: C_21  and  C_30
   13  A    between atoms: O_23  and  C_30
   14  A    between atoms: O_23  and  C_32
   15  A    between atoms: C_24  and  C_33
   16  A    between atoms: C_24  and  C_34
                            x       y       z     vdW  Elec       q    Type
                         _______ _______ _______ _____ _____    ______ ____

>  <TORSDO>
F 16

$$$$
=
 OpenBabel11062416003D

 36 37  0  0  1  0  0  0  0  0999 V2000
  187.9190  177.8790  142.4730 C   0  0  2  0  0  3  0  0  0  0  0  0
  189.2170  178.1650  139.3110 C   0  0  2  0  0  3  0  0  0  0  0  0
  189.4270  176.5300  140.9660 C   0  0  0  0  0  2  0  0  0  0  0  0
  189.1780  177.9090  141.5690 C   0  0  1  0  0  0  0  0  0  0  0  0
  189.0450  176.6880  139.5330 C   0  0  0  0  0  2  0  0  0  0  0  0
  188.9640  178.8360  140.5230 O   0  0  0  0  0  0  0  0  0  0  0  0
  190.3900  178.3620  142.3950 C   0  0  0  0  0  2  0  0  0  0  0  0
  191.5980  177.5030  142.2030 C   0  0  0  0  0  0  0  0  0  0  0  0
  191.9840  176.7430  143.1290 O   0  0  0  0  0  0  0  0  0  0  0  0
  192.3280  177.5600  140.9820 N   0  0  0  0  0  1  0  0  0  0  0  0
  188.2610  178.6420  138.2320 C   0  0  0  0  0  2  0  0  0  0  0  0
  187.3270  176.9720  136.6300 O   0  0  0  0  0  1  0  0  0  0  0  0
  189.4300  177.8290  136.3220 O   0  0  0  0  0  0  0  0  0  0  0  0
  188.3820  177.7880  137.0170 C   0  0  0  0  0  0  0  0  0  0  0  0
  188.0070  176.8480  143.6180 C   0  0  1  0  0  3  0  0  0  0  0  0
  188.7430  175.7270  143.2230 O   0  0  0  0  0  1  0  0  0  0  0  0
  189.7460  176.7380  145.2990 O   0  0  0  0  0  1  0  0  0  0  0  0
  188.6200  177.4570  144.8800 C   0  0  2  0  0  3  0  0  0  0  0  0
  187.5930  177.6090  146.0060 C   0  0  1  0  0  3  0  0  0  0  0  0
  188.2610  177.8080  147.3620 C   0  0  0  0  0  2  0  0  0  0  0  0
  187.9360  176.7500  148.2130 O   0  0  0  0  0  1  0  0  0  0  0  0
  186.6490  178.7690  145.7150 C   0  0  0  0  0  2  0  0  0  0  0  0
  184.5560  178.2520  146.9680 O   0  0  0  0  0  0  0  0  0  0  0  0
  185.9820  179.8840  147.7140 O   0  0  0  0  0  1  0  0  0  0  0  0
  185.7220  178.9980  146.8600 C   0  0  0  0  0  0  0  0  0  0  0  0
  186.7780  177.6300  141.6930 O   0  0  0  0  0  0  0  0  0  0  0  0
  184.9970  178.1930  143.1920 C   0  0  0  0  0  2  0  0  0  0  0  0
  185.0340  179.0040  140.7820 C   0  0  0  0  0  2  0  0  0  0  0  0
  183.6550  178.9180  143.1930 C   0  0  0  0  0  2  0  0  0  0  0  0
  182.8990  178.6980  141.8710 C   0  0  0  0  0  2  0  0  0  0  0  0
  183.7770  178.2500  140.7770 N   0  0  0  0  0  0  0  0  0  0  0  0
  185.8720  178.6470  142.0160 C   0  0  2  0  0  3  0  0  0  0  0  0
  183.0970  178.4280  139.4900 C   0  0  0  0  0  2  0  0  0  0  0  0
  183.1190  179.8730  138.9910 C   0  0  0  0  0  2  0  0  0  0  0  0
  181.1450  180.8520  139.0310 C   0  0  0  0  0  1  0  0  0  0  0  0
  181.9900  180.1100  138.2080 O   0  0  0  0  0  0  0  0  0  0  0  0
  1 26  1  6  0  0  0
  1 15  1  0  0  0  0
  2 11  1  6  0  0  0
  2  5  1  0  0  0  0
  2  6  1  0  0  0  0
  3  4  1  0  0  0  0
  4  7  1  1  0  0  0
  4  1  1  0  0  0  0
  5  3  1  0  0  0  0
  6  4  1  0  0  0  0
  8  7  1  0  0  0  0
  8  9  2  0  0  0  0
 10  8  1  0  0  0  0
 12 14  1  0  0  0  0
 13 14  2  0  0  0  0
 14 11  1  0  0  0  0
 15 16  1  6  0  0  0
 15 18  1  0  0  0  0
 18 17  1  1  0  0  0
 18 19  1  0  0  0  0
 19 22  1  6  0  0  0
 19 20  1  0  0  0  0
 20 21  1  0  0  0  0
 22 25  1  0  0  0  0
 25 23  2  0  0  0  0
 25 24  1  0  0  0  0
 27 29  1  0  0  0  0
 28 32  1  0  0  0  0
 30 29  1  0  0  0  0
 31 28  1  0  0  0  0
 31 30  1  0  0  0  0
 32 26  1  6  0  0  0
 32 27  1  0  0  0  0
 33 31  1  0  0  0  0
 34 33  1  0  0  0  0
 36 34  1  0  0  0  0
 36 35  1  0  0  0  0
M  END
>  <MODEL>
9

>  <REMARK>
 VINA RESULT:      -5.2      2.399      7.217
  Name = 
  16 active torsions:
  status: ('A' for Active; 'I' for Inactive)
    1  A    between atoms: C_1  and  C_12
    2  A    between atoms: C_1  and  C_30
    3  A    between atoms: C_2  and  C_11
    4  A    between atoms: C_5  and  C_10
    5  A    between atoms: C_6  and  C_26
    6  A    between atoms: C_6  and  N_31
    7  A    between atoms: C_10  and  C_36
    8  A    between atoms: C_11  and  C_21
    9  A    between atoms: C_12  and  C_24
   10  A    between atoms: O_18  and  C_26
   11  A    between atoms: C_20  and  C_34
   12  A    between atoms: C_21  and  C_30
   13  A    between atoms: O_23  and  C_30
   14  A    between atoms: O_23  and  C_32
   15  A    between atoms: C_24  and  C_33
   16  A    between atoms: C_24  and  C_34
                            x       y       z     vdW  Elec       q    Type
                         _______ _______ _______ _____ _____    ______ ____

>  <TORSDO>
F 16

$$$$
