=
 OpenBabel11062414333D

 31 34  0  0  1  0  0  0  0  0999 V2000
  185.2390  179.0730  141.7490 C   0  0  1  0  0  3  0  0  0  0  0  0
  182.5320  178.7550  142.4050 N   0  0  0  0  0  0  0  0  0  0  0  0
  184.2810  178.4640  140.7210 C   0  0  1  0  0  3  0  0  0  0  0  0
  186.8640  177.9640  143.0310 N   0  0  0  0  0  0  0  0  0  0  0  0
  184.7630  178.7630  143.1200 C   0  0  2  0  0  3  0  0  0  0  0  0
  182.8410  178.7180  141.1350 C   0  0  0  0  0  0  0  0  0  0  0  0
  186.5500  178.4340  141.7460 N   0  0  0  0  0  2  0  0  0  0  0  0
  185.8630  178.1500  143.8250 C   0  0  0  0  0  0  0  0  0  0  0  0
  183.5100  178.5960  143.4070 N   0  0  0  0  0  2  0  0  0  0  0  0
  184.4740  180.2420  139.1350 O   0  0  0  0  0  0  0  0  0  0  0  0
  184.5770  179.0020  139.3480 C   0  0  0  0  0  0  0  0  0  0  0  0
  184.2490  177.0870  137.8980 C   0  0  0  0  0  0  0  0  0  0  0  0
  183.5460  176.1260  137.5600 O   0  0  0  0  0  0  0  0  0  0  0  0
  184.9930  178.1040  138.2530 C   0  0  0  0  0  0  0  0  0  0  0  0
  186.2610  178.3720  137.5040 C   0  0  0  0  0  2  0  0  0  0  0  0
  187.3380  177.3380  137.8090 C   0  0  0  0  0  2  0  0  0  0  0  0
  189.2350  178.2680  139.7600 O   0  0  0  0  0  1  0  0  0  0  0  0
  188.9490  178.1320  138.0990 P   0  0  0  0  0  0  0  0  0  0  0  0
  188.9600  179.6690  137.3940 O   0  0  0  0  0  0  0  0  0  0  0  0
  190.0360  177.2880  137.4760 O   0  0  0  0  0  1  0  0  0  0  0  0
  181.8480  178.8520  140.1590 O   0  0  0  0  0  0  0  0  0  0  0  0
  180.9270  177.8120  139.8650 C   0  0  0  0  0  1  0  0  0  0  0  0
  185.8370  177.7510  145.1600 O   0  0  0  0  0  0  0  0  0  0  0  0
  186.3030  178.5930  146.2040 C   0  0  0  0  0  2  0  0  0  0  0  0
  187.3900  177.8820  146.9880 C   0  0  0  0  0  2  0  0  0  0  0  0
  188.1540  177.0910  146.1280 O   0  0  0  0  0  0  0  0  0  0  0  0
  189.2670  177.8720  145.8180 C   0  0  0  0  0  2  0  0  0  0  0  0
  191.4460  177.8520  144.5950 C   0  0  2  0  0  3  0  0  0  0  0  0
  190.0960  177.1760  144.7520 C   0  0  2  0  0  3  0  0  0  0  0  0
  191.2660  179.2400  144.0090 C   0  0  0  0  0  2  0  0  0  0  0  0
  190.3520  178.1070  143.5820 C   0  0  1  0  0  3  0  0  0  0  0  0
  1  7  1  6  0  0  0
  1  5  1  0  0  0  0
  2  9  1  0  0  0  0
  3 11  1  6  0  0  0
  3  6  1  0  0  0  0
  3  1  1  0  0  0  0
  4  8  2  0  0  0  0
  5  9  1  6  0  0  0
  5  8  1  0  0  0  0
  6  2  2  0  0  0  0
  7  4  1  0  0  0  0
  8 23  1  0  0  0  0
 10 11  2  0  0  0  0
 12 14  2  0  0  0  0
 13 12  2  0  0  0  0
 14 11  1  0  0  0  0
 15 16  1  0  0  0  0
 15 14  1  0  0  0  0
 16 18  1  0  0  0  0
 18 17  1  0  0  0  0
 19 18  2  0  0  0  0
 20 18  1  0  0  0  0
 21  6  1  0  0  0  0
 22 21  1  0  0  0  0
 23 24  1  0  0  0  0
 24 25  1  0  0  0  0
 26 25  1  0  0  0  0
 27 26  1  0  0  0  0
 28 30  1  1  0  0  0
 28 29  1  0  0  0  0
 29 27  1  1  0  0  0
 31 30  1  1  0  0  0
 31 28  1  0  0  0  0
 31 29  1  0  0  0  0
M  END
>  <MODEL>
1

>  <REMARK>
 VINA RESULT:      -7.0      0.000      0.000
  Name = 
  12 active torsions:
  status: ('A' for Active; 'I' for Inactive)
    1  A    between atoms: O_1  and  C_5
    2  A    between atoms: O_1  and  C_12
    3  A    between atoms: P_3  and  C_13
    4  A    between atoms: C_5  and  C_18
    5  A    between atoms: C_7  and  C_26
    6  A    between atoms: C_12  and  C_20
    7  A    between atoms: C_13  and  C_16
    8  A    between atoms: O_14  and  C_18
    9  A    between atoms: O_14  and  C_27
   10  A    between atoms: C_16  and  C_30
   11  A    between atoms: O_21  and  C_23
   12  A    between atoms: C_26  and  C_30
                            x       y       z     vdW  Elec       q    Type
                         _______ _______ _______ _____ _____    ______ ____

>  <TORSDO>
F 12

$$$$
=
 OpenBabel11062414333D

 31 34  0  0  1  0  0  0  0  0999 V2000
  187.1860  178.8260  141.0860 C   0  0  1  0  0  3  0  0  0  0  0  0
  185.2310  178.7400  139.0790 N   0  0  0  0  0  0  0  0  0  0  0  0
  187.4440  178.0070  139.8180 C   0  0  1  0  0  3  0  0  0  0  0  0
  186.6600  178.0260  143.2300 N   0  0  0  0  0  0  0  0  0  0  0  0
  185.7300  178.8710  141.3640 C   0  0  2  0  0  3  0  0  0  0  0  0
  186.4440  178.3870  138.7390 C   0  0  0  0  0  0  0  0  0  0  0  0
  187.6920  178.1760  142.2900 N   0  0  0  0  0  2  0  0  0  0  0  0
  185.5400  178.4220  142.7230 C   0  0  0  0  0  0  0  0  0  0  0  0
  184.8340  178.8070  140.4290 N   0  0  0  0  0  2  0  0  0  0  0  0
  189.1840  179.2330  138.7290 O   0  0  0  0  0  0  0  0  0  0  0  0
  188.8650  178.1870  139.3600 C   0  0  0  0  0  0  0  0  0  0  0  0
  190.1190  176.1880  138.8020 C   0  0  0  0  0  0  0  0  0  0  0  0
  190.3360  175.2660  138.0050 O   0  0  0  0  0  0  0  0  0  0  0  0
  189.8920  177.1640  139.6440 C   0  0  0  0  0  0  0  0  0  0  0  0
  190.7170  177.2560  140.8890 C   0  0  0  0  0  2  0  0  0  0  0  0
  190.3380  176.1890  141.9090 C   0  0  0  0  0  2  0  0  0  0  0  0
  191.9040  178.0170  143.4840 O   0  0  0  0  0  0  0  0  0  0  0  0
  191.0250  176.5740  143.5490 P   0  0  0  0  0  0  0  0  0  0  0  0
  192.0380  175.3150  144.0500 O   0  0  0  0  0  1  0  0  0  0  0  0
  189.8920  176.7270  144.5360 O   0  0  0  0  0  1  0  0  0  0  0  0
  186.8060  178.3010  137.3910 O   0  0  0  0  0  0  0  0  0  0  0  0
  186.5490  177.1450  136.6070 C   0  0  0  0  0  1  0  0  0  0  0  0
  184.3160  178.3620  143.3850 O   0  0  0  0  0  0  0  0  0  0  0  0
  184.0110  179.2130  144.4790 C   0  0  0  0  0  2  0  0  0  0  0  0
  184.5740  178.6220  145.7590 C   0  0  0  0  0  2  0  0  0  0  0  0
  185.5470  179.4730  146.2860 O   0  0  0  0  0  0  0  0  0  0  0  0
  186.1090  178.7610  147.3460 C   0  0  0  0  0  2  0  0  0  0  0  0
  187.8990  177.1220  147.9390 C   0  0  2  0  0  3  0  0  0  0  0  0
  187.1140  177.7560  146.8070 C   0  0  2  0  0  3  0  0  0  0  0  0
  188.7960  178.1570  148.5930 C   0  0  0  0  0  2  0  0  0  0  0  0
  188.5320  178.2090  147.1000 C   0  0  1  0  0  3  0  0  0  0  0  0
  1  5  1  0  0  0  0
  1  7  1  1  0  0  0
  2  9  1  0  0  0  0
  3 11  1  6  0  0  0
  3  1  1  0  0  0  0
  5  9  1  6  0  0  0
  5  8  1  0  0  0  0
  6  2  2  0  0  0  0
  6  3  1  0  0  0  0
  7  4  1  0  0  0  0
  8  4  2  0  0  0  0
  8 23  1  0  0  0  0
 10 11  2  0  0  0  0
 11 14  1  0  0  0  0
 12 14  2  0  0  0  0
 13 12  2  0  0  0  0
 14 15  1  0  0  0  0
 15 16  1  0  0  0  0
 16 18  1  0  0  0  0
 17 18  2  0  0  0  0
 18 19  1  0  0  0  0
 18 20  1  0  0  0  0
 21  6  1  0  0  0  0
 22 21  1  0  0  0  0
 23 24  1  0  0  0  0
 24 25  1  0  0  0  0
 25 26  1  0  0  0  0
 26 27  1  0  0  0  0
 28 30  1  1  0  0  0
 29 31  1  0  0  0  0
 29 27  1  1  0  0  0
 29 28  1  0  0  0  0
 31 28  1  0  0  0  0
 31 30  1  1  0  0  0
M  END
>  <MODEL>
2

>  <REMARK>
 VINA RESULT:      -7.0      2.679      4.648
  Name = 
  12 active torsions:
  status: ('A' for Active; 'I' for Inactive)
    1  A    between atoms: O_1  and  C_5
    2  A    between atoms: O_1  and  C_12
    3  A    between atoms: P_3  and  C_13
    4  A    between atoms: C_5  and  C_18
    5  A    between atoms: C_7  and  C_26
    6  A    between atoms: C_12  and  C_20
    7  A    between atoms: C_13  and  C_16
    8  A    between atoms: O_14  and  C_18
    9  A    between atoms: O_14  and  C_27
   10  A    between atoms: C_16  and  C_30
   11  A    between atoms: O_21  and  C_23
   12  A    between atoms: C_26  and  C_30
                            x       y       z     vdW  Elec       q    Type
                         _______ _______ _______ _____ _____    ______ ____

>  <TORSDO>
F 12

$$$$
=
 OpenBabel11062414333D

 31 34  0  0  1  0  0  0  0  0999 V2000
  188.6660  177.5900  140.2000 C   0  0  1  0  0  3  0  0  0  0  0  0
  190.9500  176.2070  139.3460 N   0  0  0  0  0  0  0  0  0  0  0  0
  189.4250  178.0800  138.9630 C   0  0  1  0  0  3  0  0  0  0  0  0
  188.6450  178.5480  142.3440 N   0  0  0  0  0  0  0  0  0  0  0  0
  189.6070  176.9170  141.1290 C   0  0  2  0  0  3  0  0  0  0  0  0
  190.3820  177.0040  138.4780 C   0  0  0  0  0  0  0  0  0  0  0  0
  188.1730  178.6850  141.0290 N   0  0  0  0  0  2  0  0  0  0  0  0
  189.4550  177.5450  142.4200 C   0  0  0  0  0  0  0  0  0  0  0  0
  190.6720  176.2990  140.7240 N   0  0  0  0  0  2  0  0  0  0  0  0
  188.7070  179.5340  137.2070 O   0  0  0  0  0  0  0  0  0  0  0  0
  188.4590  178.5020  137.8910 C   0  0  0  0  0  0  0  0  0  0  0  0
  187.2920  176.4500  137.3420 C   0  0  0  0  0  0  0  0  0  0  0  0
  187.3480  175.2410  137.0790 O   0  0  0  0  0  0  0  0  0  0  0  0
  187.2320  177.7260  137.6230 C   0  0  0  0  0  0  0  0  0  0  0  0
  185.8930  178.3890  137.7090 C   0  0  0  0  0  2  0  0  0  0  0  0
  185.0480  177.8330  138.8480 C   0  0  0  0  0  2  0  0  0  0  0  0
  184.9460  179.4090  141.2520 O   0  0  0  0  0  1  0  0  0  0  0  0
  184.2020  179.1660  139.7520 P   0  0  0  0  0  0  0  0  0  0  0  0
  182.5790  178.7520  139.9850 O   0  0  0  0  0  1  0  0  0  0  0  0
  184.2830  180.4400  138.9460 O   0  0  0  0  0  0  0  0  0  0  0  0
  190.6940  176.9090  137.1180 O   0  0  0  0  0  0  0  0  0  0  0  0
  191.0810  175.6860  136.5110 C   0  0  0  0  0  1  0  0  0  0  0  0
  190.1300  177.1700  143.5800 O   0  0  0  0  0  0  0  0  0  0  0  0
  190.4680  178.1090  144.5890 C   0  0  0  0  0  2  0  0  0  0  0  0
  190.1030  177.5500  145.9520 C   0  0  0  0  0  2  0  0  0  0  0  0
  188.8940  176.8570  145.8700 O   0  0  0  0  0  0  0  0  0  0  0  0
  187.9110  177.8440  145.9510 C   0  0  0  0  0  2  0  0  0  0  0  0
  185.7910  178.2350  144.6880 C   0  0  2  0  0  3  0  0  0  0  0  0
  186.5680  177.2580  145.5500 C   0  0  2  0  0  3  0  0  0  0  0  0
  185.3830  179.4430  145.5110 C   0  0  0  0  0  2  0  0  0  0  0  0
  185.4320  178.0670  146.1470 C   0  0  1  0  0  3  0  0  0  0  0  0
  1  7  1  1  0  0  0
  1  5  1  0  0  0  0
  2  9  1  0  0  0  0
  3 11  1  6  0  0  0
  3  1  1  0  0  0  0
  4  8  2  0  0  0  0
  5  9  1  6  0  0  0
  5  8  1  0  0  0  0
  6  3  1  0  0  0  0
  6  2  2  0  0  0  0
  7  4  1  0  0  0  0
  8 23  1  0  0  0  0
 10 11  2  0  0  0  0
 12 14  2  0  0  0  0
 13 12  2  0  0  0  0
 14 15  1  0  0  0  0
 14 11  1  0  0  0  0
 15 16  1  0  0  0  0
 16 18  1  0  0  0  0
 18 19  1  0  0  0  0
 18 17  1  0  0  0  0
 20 18  2  0  0  0  0
 21  6  1  0  0  0  0
 22 21  1  0  0  0  0
 23 24  1  0  0  0  0
 24 25  1  0  0  0  0
 26 27  1  0  0  0  0
 26 25  1  0  0  0  0
 28 30  1  1  0  0  0
 28 29  1  0  0  0  0
 28 31  1  0  0  0  0
 29 27  1  1  0  0  0
 29 31  1  0  0  0  0
 31 30  1  1  0  0  0
M  END
>  <MODEL>
3

>  <REMARK>
 VINA RESULT:      -6.9      2.479      5.422
  Name = 
  12 active torsions:
  status: ('A' for Active; 'I' for Inactive)
    1  A    between atoms: O_1  and  C_5
    2  A    between atoms: O_1  and  C_12
    3  A    between atoms: P_3  and  C_13
    4  A    between atoms: C_5  and  C_18
    5  A    between atoms: C_7  and  C_26
    6  A    between atoms: C_12  and  C_20
    7  A    between atoms: C_13  and  C_16
    8  A    between atoms: O_14  and  C_18
    9  A    between atoms: O_14  and  C_27
   10  A    between atoms: C_16  and  C_30
   11  A    between atoms: O_21  and  C_23
   12  A    between atoms: C_26  and  C_30
                            x       y       z     vdW  Elec       q    Type
                         _______ _______ _______ _____ _____    ______ ____

>  <TORSDO>
F 12

$$$$
=
 OpenBabel11062414333D

 31 34  0  0  1  0  0  0  0  0999 V2000
  188.6300  177.4870  139.7540 C   0  0  1  0  0  3  0  0  0  0  0  0
  190.8010  176.2330  138.4980 N   0  0  0  0  0  0  0  0  0  0  0  0
  189.1540  178.0400  138.4250 C   0  0  1  0  0  3  0  0  0  0  0  0
  188.9190  178.3940  141.9000 N   0  0  0  0  0  0  0  0  0  0  0  0
  189.7390  176.8390  140.4970 C   0  0  2  0  0  3  0  0  0  0  0  0
  190.0640  177.0210  137.7590 C   0  0  0  0  0  0  0  0  0  0  0  0
  188.2320  178.5380  140.6840 N   0  0  0  0  0  2  0  0  0  0  0  0
  189.7730  177.4300  141.8140 C   0  0  0  0  0  0  0  0  0  0  0  0
  190.7490  176.2820  139.9060 N   0  0  0  0  0  2  0  0  0  0  0  0
  188.0850  179.5100  136.8730 O   0  0  0  0  0  0  0  0  0  0  0  0
  188.0080  178.4390  137.5370 C   0  0  0  0  0  0  0  0  0  0  0  0
  186.8990  176.3060  137.2290 C   0  0  0  0  0  0  0  0  0  0  0  0
  186.9900  175.0850  137.0450 O   0  0  0  0  0  0  0  0  0  0  0  0
  186.8010  177.5960  137.4260 C   0  0  0  0  0  0  0  0  0  0  0  0
  185.4440  178.2080  137.5770 C   0  0  0  0  0  2  0  0  0  0  0  0
  184.7540  177.7640  138.8620 C   0  0  0  0  0  2  0  0  0  0  0  0
  185.1230  179.4110  141.1910 O   0  0  0  0  0  1  0  0  0  0  0  0
  184.1600  179.1940  139.8170 P   0  0  0  0  0  0  0  0  0  0  0  0
  182.5550  178.9360  140.2850 O   0  0  0  0  0  1  0  0  0  0  0  0
  184.2370  180.4320  138.9560 O   0  0  0  0  0  0  0  0  0  0  0  0
  190.1530  176.9730  136.3640 O   0  0  0  0  0  0  0  0  0  0  0  0
  190.5830  175.8100  135.6710 C   0  0  0  0  0  1  0  0  0  0  0  0
  190.6450  177.0610  142.8360 O   0  0  0  0  0  0  0  0  0  0  0  0
  191.1150  177.9970  143.7950 C   0  0  0  0  0  2  0  0  0  0  0  0
  190.7910  177.5020  145.1930 C   0  0  0  0  0  2  0  0  0  0  0  0
  189.5280  176.9070  145.2040 O   0  0  0  0  0  0  0  0  0  0  0  0
  188.6530  177.9350  145.5580 C   0  0  0  0  0  2  0  0  0  0  0  0
  187.5800  178.3110  147.7830 C   0  0  2  0  0  3  0  0  0  0  0  0
  187.6370  177.4140  146.5610 C   0  0  2  0  0  3  0  0  0  0  0  0
  188.8790  178.2130  148.5600 C   0  0  0  0  0  2  0  0  0  0  0  0
  188.3230  176.9950  147.8470 C   0  0  1  0  0  3  0  0  0  0  0  0
  1  5  1  0  0  0  0
  1  7  1  1  0  0  0
  2  9  1  0  0  0  0
  3 11  1  6  0  0  0
  3  1  1  0  0  0  0
  5  9  1  6  0  0  0
  5  8  1  0  0  0  0
  6  3  1  0  0  0  0
  6  2  2  0  0  0  0
  7  4  1  0  0  0  0
  8  4  2  0  0  0  0
  8 23  1  0  0  0  0
 10 11  2  0  0  0  0
 12 14  2  0  0  0  0
 13 12  2  0  0  0  0
 14 11  1  0  0  0  0
 14 15  1  0  0  0  0
 15 16  1  0  0  0  0
 16 18  1  0  0  0  0
 18 19  1  0  0  0  0
 18 17  1  0  0  0  0
 20 18  2  0  0  0  0
 21  6  1  0  0  0  0
 22 21  1  0  0  0  0
 23 24  1  0  0  0  0
 24 25  1  0  0  0  0
 25 26  1  0  0  0  0
 26 27  1  0  0  0  0
 28 31  1  0  0  0  0
 28 30  1  6  0  0  0
 29 27  1  6  0  0  0
 29 28  1  0  0  0  0
 29 31  1  0  0  0  0
 31 30  1  6  0  0  0
M  END
>  <MODEL>
4

>  <REMARK>
 VINA RESULT:      -6.7      2.721      5.429
  Name = 
  12 active torsions:
  status: ('A' for Active; 'I' for Inactive)
    1  A    between atoms: O_1  and  C_5
    2  A    between atoms: O_1  and  C_12
    3  A    between atoms: P_3  and  C_13
    4  A    between atoms: C_5  and  C_18
    5  A    between atoms: C_7  and  C_26
    6  A    between atoms: C_12  and  C_20
    7  A    between atoms: C_13  and  C_16
    8  A    between atoms: O_14  and  C_18
    9  A    between atoms: O_14  and  C_27
   10  A    between atoms: C_16  and  C_30
   11  A    between atoms: O_21  and  C_23
   12  A    between atoms: C_26  and  C_30
                            x       y       z     vdW  Elec       q    Type
                         _______ _______ _______ _____ _____    ______ ____

>  <TORSDO>
F 12

$$$$
=
 OpenBabel11062414333D

 31 34  0  0  1  0  0  0  0  0999 V2000
  189.5720  178.0720  141.1320 C   0  0  1  0  0  3  0  0  0  0  0  0
  186.8180  178.3830  141.5560 N   0  0  0  0  0  0  0  0  0  0  0  0
  188.5900  177.6980  140.0170 C   0  0  1  0  0  3  0  0  0  0  0  0
  190.7870  176.6220  142.5230 N   0  0  0  0  0  0  0  0  0  0  0  0
  188.9240  177.8810  142.4530 C   0  0  2  0  0  3  0  0  0  0  0  0
  187.2170  178.2750  140.3150 C   0  0  0  0  0  0  0  0  0  0  0  0
  190.6990  177.1500  141.2250 N   0  0  0  0  0  2  0  0  0  0  0  0
  189.7910  177.0330  143.2350 C   0  0  0  0  0  0  0  0  0  0  0  0
  187.6460  178.0060  142.6330 N   0  0  0  0  0  2  0  0  0  0  0  0
  189.1100  179.3820  138.4030 O   0  0  0  0  0  0  0  0  0  0  0  0
  189.1170  178.1510  138.6840 C   0  0  0  0  0  0  0  0  0  0  0  0
  190.2570  176.0930  138.1000 C   0  0  0  0  0  0  0  0  0  0  0  0
  190.8320  175.0620  138.4730 O   0  0  0  0  0  0  0  0  0  0  0  0
  189.6470  177.1820  137.7050 C   0  0  0  0  0  0  0  0  0  0  0  0
  189.4570  177.4160  136.2390 C   0  0  0  0  0  2  0  0  0  0  0  0
  188.6100  176.3300  135.5880 C   0  0  0  0  0  2  0  0  0  0  0  0
  185.9350  175.9720  134.5940 O   0  0  0  0  0  0  0  0  0  0  0  0
  186.8360  176.6220  135.8690 P   0  0  0  0  0  0  0  0  0  0  0  0
  186.5450  178.2850  135.9790 O   0  0  0  0  0  1  0  0  0  0  0  0
  186.4230  175.9550  137.1590 O   0  0  0  0  0  1  0  0  0  0  0  0
  186.3670  178.6310  139.2640 O   0  0  0  0  0  0  0  0  0  0  0  0
  184.9530  178.5490  139.3690 C   0  0  0  0  0  1  0  0  0  0  0  0
  189.5630  176.6520  144.5560 O   0  0  0  0  0  0  0  0  0  0  0  0
  189.6630  177.5740  145.6310 C   0  0  0  0  0  2  0  0  0  0  0  0
  188.7860  177.1150  146.7820 C   0  0  0  0  0  2  0  0  0  0  0  0
  187.8590  178.1100  147.0960 O   0  0  0  0  0  0  0  0  0  0  0  0
  186.7710  177.8610  146.2580 C   0  0  0  0  0  2  0  0  0  0  0  0
  184.3890  178.5000  145.8580 C   0  0  2  0  0  3  0  0  0  0  0  0
  185.7070  178.9240  146.4770 C   0  0  2  0  0  3  0  0  0  0  0  0
  184.5110  178.4720  144.3450 C   0  0  0  0  0  2  0  0  0  0  0  0
  185.2610  179.5140  145.1530 C   0  0  1  0  0  3  0  0  0  0  0  0
  1  7  1  1  0  0  0
  1  5  1  0  0  0  0
  2  9  1  0  0  0  0
  3 11  1  6  0  0  0
  3  6  1  0  0  0  0
  3  1  1  0  0  0  0
  4  8  2  0  0  0  0
  5  9  1  6  0  0  0
  5  8  1  0  0  0  0
  6  2  2  0  0  0  0
  7  4  1  0  0  0  0
  8 23  1  0  0  0  0
 10 11  2  0  0  0  0
 12 13  2  0  0  0  0
 14 12  2  0  0  0  0
 14 11  1  0  0  0  0
 15 14  1  0  0  0  0
 16 18  1  0  0  0  0
 16 15  1  0  0  0  0
 17 18  2  0  0  0  0
 18 19  1  0  0  0  0
 18 20  1  0  0  0  0
 21 22  1  0  0  0  0
 21  6  1  0  0  0  0
 23 24  1  0  0  0  0
 24 25  1  0  0  0  0
 25 26  1  0  0  0  0
 27 26  1  0  0  0  0
 28 30  1  6  0  0  0
 28 29  1  0  0  0  0
 29 27  1  6  0  0  0
 31 30  1  6  0  0  0
 31 28  1  0  0  0  0
 31 29  1  0  0  0  0
M  END
>  <MODEL>
5

>  <REMARK>
 VINA RESULT:      -6.7      2.366      4.613
  Name = 
  12 active torsions:
  status: ('A' for Active; 'I' for Inactive)
    1  A    between atoms: O_1  and  C_5
    2  A    between atoms: O_1  and  C_12
    3  A    between atoms: P_3  and  C_13
    4  A    between atoms: C_5  and  C_18
    5  A    between atoms: C_7  and  C_26
    6  A    between atoms: C_12  and  C_20
    7  A    between atoms: C_13  and  C_16
    8  A    between atoms: O_14  and  C_18
    9  A    between atoms: O_14  and  C_27
   10  A    between atoms: C_16  and  C_30
   11  A    between atoms: O_21  and  C_23
   12  A    between atoms: C_26  and  C_30
                            x       y       z     vdW  Elec       q    Type
                         _______ _______ _______ _____ _____    ______ ____

>  <TORSDO>
F 12

$$$$
=
 OpenBabel11062414333D

 31 34  0  0  1  0  0  0  0  0999 V2000
  189.3040  177.9020  139.5400 C   0  0  1  0  0  3  0  0  0  0  0  0
  187.1350  178.5550  141.1920 N   0  0  0  0  0  0  0  0  0  0  0  0
  187.8770  177.7290  139.0130 C   0  0  1  0  0  3  0  0  0  0  0  0
  190.7960  176.2220  140.2230 N   0  0  0  0  0  0  0  0  0  0  0  0
  189.3170  177.7220  141.0130 C   0  0  2  0  0  3  0  0  0  0  0  0
  186.8960  178.4670  139.9090 C   0  0  0  0  0  0  0  0  0  0  0  0
  190.1980  176.8320  139.1090 N   0  0  0  0  0  2  0  0  0  0  0  0
  190.3130  176.7200  141.3120 C   0  0  0  0  0  0  0  0  0  0  0  0
  188.3000  178.0070  141.7640 N   0  0  0  0  0  2  0  0  0  0  0  0
  188.1550  179.3560  137.2840 O   0  0  0  0  0  0  0  0  0  0  0  0
  187.7890  178.1850  137.5830 C   0  0  0  0  0  0  0  0  0  0  0  0
  186.0190  177.2500  136.2160 C   0  0  0  0  0  0  0  0  0  0  0  0
  184.8170  177.2180  135.9210 O   0  0  0  0  0  0  0  0  0  0  0  0
  187.2910  177.2840  136.5250 C   0  0  0  0  0  0  0  0  0  0  0  0
  188.2470  176.4220  135.7630 C   0  0  0  0  0  2  0  0  0  0  0  0
  188.0240  174.9390  136.0320 C   0  0  0  0  0  2  0  0  0  0  0  0
  190.1800  173.7760  137.5380 O   0  0  0  0  0  1  0  0  0  0  0  0
  189.5900  174.0150  135.9710 P   0  0  0  0  0  0  0  0  0  0  0  0
  190.7250  174.8810  135.0640 O   0  0  0  0  0  0  0  0  0  0  0  0
  189.3490  172.6730  135.3220 O   0  0  0  0  0  1  0  0  0  0  0  0
  185.7190  178.9950  139.3690 O   0  0  0  0  0  0  0  0  0  0  0  0
  184.5010  179.0360  140.0960 C   0  0  0  0  0  1  0  0  0  0  0  0
  190.6660  176.2970  142.5920 O   0  0  0  0  0  0  0  0  0  0  0  0
  191.5710  177.0310  143.4020 C   0  0  0  0  0  2  0  0  0  0  0  0
  191.0190  177.1450  144.8120 C   0  0  0  0  0  2  0  0  0  0  0  0
  190.1600  178.2420  144.8960 O   0  0  0  0  0  0  0  0  0  0  0  0
  189.0480  177.7710  145.5950 C   0  0  0  0  0  2  0  0  0  0  0  0
  188.3260  176.9370  147.8370 C   0  0  2  0  0  3  0  0  0  0  0  0
  189.5000  177.1260  146.8950 C   0  0  2  0  0  3  0  0  0  0  0  0
  187.8150  178.2860  148.3080 C   0  0  0  0  0  2  0  0  0  0  0  0
  189.2970  178.0750  148.0610 C   0  0  1  0  0  3  0  0  0  0  0  0
  1  7  1  6  0  0  0
  1  5  1  0  0  0  0
  2  9  1  0  0  0  0
  3 11  1  6  0  0  0
  3  1  1  0  0  0  0
  3  6  1  0  0  0  0
  4  8  2  0  0  0  0
  5  8  1  6  0  0  0
  5  9  1  0  0  0  0
  6  2  2  0  0  0  0
  7  4  1  0  0  0  0
  8 23  1  0  0  0  0
 10 11  2  0  0  0  0
 12 14  2  0  0  0  0
 13 12  2  0  0  0  0
 14 11  1  0  0  0  0
 15 16  1  0  0  0  0
 15 14  1  0  0  0  0
 18 16  1  0  0  0  0
 18 17  1  0  0  0  0
 19 18  2  0  0  0  0
 20 18  1  0  0  0  0
 21  6  1  0  0  0  0
 21 22  1  0  0  0  0
 23 24  1  0  0  0  0
 24 25  1  0  0  0  0
 25 26  1  0  0  0  0
 26 27  1  0  0  0  0
 28 31  1  0  0  0  0
 28 30  1  6  0  0  0
 29 27  1  6  0  0  0
 29 28  1  0  0  0  0
 29 31  1  0  0  0  0
 31 30  1  6  0  0  0
M  END
>  <MODEL>
6

>  <REMARK>
 VINA RESULT:      -6.6      2.666      4.369
  Name = 
  12 active torsions:
  status: ('A' for Active; 'I' for Inactive)
    1  A    between atoms: O_1  and  C_5
    2  A    between atoms: O_1  and  C_12
    3  A    between atoms: P_3  and  C_13
    4  A    between atoms: C_5  and  C_18
    5  A    between atoms: C_7  and  C_26
    6  A    between atoms: C_12  and  C_20
    7  A    between atoms: C_13  and  C_16
    8  A    between atoms: O_14  and  C_18
    9  A    between atoms: O_14  and  C_27
   10  A    between atoms: C_16  and  C_30
   11  A    between atoms: O_21  and  C_23
   12  A    between atoms: C_26  and  C_30
                            x       y       z     vdW  Elec       q    Type
                         _______ _______ _______ _____ _____    ______ ____

>  <TORSDO>
F 12

$$$$
=
 OpenBabel11062414333D

 31 34  0  0  1  0  0  0  0  0999 V2000
  187.3280  178.7820  140.8180 C   0  0  1  0  0  3  0  0  0  0  0  0
  185.1690  178.6060  139.0390 N   0  0  0  0  0  0  0  0  0  0  0  0
  187.4890  177.9970  139.5130 C   0  0  1  0  0  3  0  0  0  0  0  0
  187.0920  177.9230  142.9910 N   0  0  0  0  0  0  0  0  0  0  0  0
  185.9120  178.7350  141.2570 C   0  0  2  0  0  3  0  0  0  0  0  0
  186.3540  178.3310  138.5600 C   0  0  0  0  0  0  0  0  0  0  0  0
  188.0020  178.1470  141.9460 N   0  0  0  0  0  2  0  0  0  0  0  0
  185.9020  178.2590  142.6200 C   0  0  0  0  0  0  0  0  0  0  0  0
  184.9220  178.6310  140.4260 N   0  0  0  0  0  2  0  0  0  0  0  0
  189.0560  179.3850  138.3600 O   0  0  0  0  0  0  0  0  0  0  0  0
  188.8370  178.2670  138.9040 C   0  0  0  0  0  0  0  0  0  0  0  0
  190.3060  176.7360  140.0760 C   0  0  0  0  0  0  0  0  0  0  0  0
  190.6840  176.2470  141.1490 O   0  0  0  0  0  0  0  0  0  0  0  0
  189.9070  177.2510  138.9410 C   0  0  0  0  0  0  0  0  0  0  0  0
  190.5240  176.7660  137.6660 C   0  0  0  0  0  2  0  0  0  0  0  0
  191.1930  175.4070  137.8330 C   0  0  0  0  0  2  0  0  0  0  0  0
  193.0180  175.3800  135.6090 O   0  0  0  0  0  0  0  0  0  0  0  0
  192.9310  175.4590  137.2970 P   0  0  0  0  0  0  0  0  0  0  0  0
  193.7720  174.1550  137.9690 O   0  0  0  0  0  1  0  0  0  0  0  0
  193.5550  176.7520  137.7660 O   0  0  0  0  0  1  0  0  0  0  0  0
  186.5670  178.2850  137.1780 O   0  0  0  0  0  0  0  0  0  0  0  0
  186.0930  177.2180  136.3720 C   0  0  0  0  0  1  0  0  0  0  0  0
  184.7650  178.1160  143.4120 O   0  0  0  0  0  0  0  0  0  0  0  0
  184.3090  179.1550  144.2650 C   0  0  0  0  0  2  0  0  0  0  0  0
  184.5660  178.7780  145.7130 C   0  0  0  0  0  2  0  0  0  0  0  0
  185.7350  179.3940  146.1620 O   0  0  0  0  0  0  0  0  0  0  0  0
  186.1940  178.5780  147.1970 C   0  0  0  0  0  2  0  0  0  0  0  0
  188.1350  177.0920  147.7130 C   0  0  2  0  0  3  0  0  0  0  0  0
  187.1630  177.5480  146.6410 C   0  0  2  0  0  3  0  0  0  0  0  0
  189.0600  178.2330  148.0950 C   0  0  0  0  0  2  0  0  0  0  0  0
  188.5820  178.0840  146.6630 C   0  0  1  0  0  3  0  0  0  0  0  0
  1  5  1  0  0  0  0
  1  7  1  1  0  0  0
  2  9  1  0  0  0  0
  3 11  1  6  0  0  0
  3  1  1  0  0  0  0
  5  9  1  6  0  0  0
  5  8  1  0  0  0  0
  6  2  2  0  0  0  0
  6  3  1  0  0  0  0
  7  4  1  0  0  0  0
  8  4  2  0  0  0  0
  8 23  1  0  0  0  0
 10 11  2  0  0  0  0
 11 14  1  0  0  0  0
 12 13  2  0  0  0  0
 14 12  2  0  0  0  0
 15 16  1  0  0  0  0
 15 14  1  0  0  0  0
 17 18  2  0  0  0  0
 18 20  1  0  0  0  0
 18 16  1  0  0  0  0
 18 19  1  0  0  0  0
 21  6  1  0  0  0  0
 22 21  1  0  0  0  0
 23 24  1  0  0  0  0
 24 25  1  0  0  0  0
 25 26  1  0  0  0  0
 26 27  1  0  0  0  0
 28 30  1  1  0  0  0
 29 31  1  0  0  0  0
 29 27  1  1  0  0  0
 29 28  1  0  0  0  0
 31 28  1  0  0  0  0
 31 30  1  1  0  0  0
M  END
>  <MODEL>
7

>  <REMARK>
 VINA RESULT:      -6.6      2.705      4.403
  Name = 
  12 active torsions:
  status: ('A' for Active; 'I' for Inactive)
    1  A    between atoms: O_1  and  C_5
    2  A    between atoms: O_1  and  C_12
    3  A    between atoms: P_3  and  C_13
    4  A    between atoms: C_5  and  C_18
    5  A    between atoms: C_7  and  C_26
    6  A    between atoms: C_12  and  C_20
    7  A    between atoms: C_13  and  C_16
    8  A    between atoms: O_14  and  C_18
    9  A    between atoms: O_14  and  C_27
   10  A    between atoms: C_16  and  C_30
   11  A    between atoms: O_21  and  C_23
   12  A    between atoms: C_26  and  C_30
                            x       y       z     vdW  Elec       q    Type
                         _______ _______ _______ _____ _____    ______ ____

>  <TORSDO>
F 12

$$$$
=
 OpenBabel11062414333D

 31 34  0  0  1  0  0  0  0  0999 V2000
  185.9420  177.8640  144.2110 C   0  0  1  0  0  3  0  0  0  0  0  0
  185.4870  178.1600  146.9610 N   0  0  0  0  0  0  0  0  0  0  0  0
  187.1240  178.1420  145.1440 C   0  0  1  0  0  3  0  0  0  0  0  0
  184.9130  179.3530  142.7140 N   0  0  0  0  0  0  0  0  0  0  0  0
  184.7090  178.4680  144.7730 C   0  0  2  0  0  3  0  0  0  0  0  0
  186.7140  177.9060  146.5890 C   0  0  0  0  0  0  0  0  0  0  0  0
  186.0530  178.5650  142.9350 N   0  0  0  0  0  2  0  0  0  0  0  0
  184.1350  179.3030  143.7440 C   0  0  0  0  0  0  0  0  0  0  0  0
  184.5190  178.6200  146.0460 N   0  0  0  0  0  2  0  0  0  0  0  0
  188.1210  176.1950  144.1790 O   0  0  0  0  0  0  0  0  0  0  0  0
  188.3100  177.3060  144.7490 C   0  0  0  0  0  0  0  0  0  0  0  0
  190.3740  177.2980  146.0200 C   0  0  0  0  0  0  0  0  0  0  0  0
  191.0250  176.8520  146.9740 O   0  0  0  0  0  0  0  0  0  0  0  0
  189.6870  177.7680  145.0090 C   0  0  0  0  0  0  0  0  0  0  0  0
  190.3330  178.7570  144.0910 C   0  0  0  0  0  2  0  0  0  0  0  0
  191.4350  178.1260  143.2490 C   0  0  0  0  0  2  0  0  0  0  0  0
  190.5580  175.6360  142.1080 O   0  0  0  0  0  1  0  0  0  0  0  0
  190.7490  177.2860  141.7890 P   0  0  0  0  0  0  0  0  0  0  0  0
  191.7930  177.4920  140.4730 O   0  0  0  0  0  0  0  0  0  0  0  0
  189.4030  177.8860  141.4580 O   0  0  0  0  0  1  0  0  0  0  0  0
  187.6640  177.4760  147.5210 O   0  0  0  0  0  0  0  0  0  0  0  0
  188.0190  178.2510  148.6560 C   0  0  0  0  0  1  0  0  0  0  0  0
  182.9420  180.0130  143.8600 O   0  0  0  0  0  0  0  0  0  0  0  0
  181.6780  179.3690  143.8040 C   0  0  0  0  0  2  0  0  0  0  0  0
  181.1640  179.3730  142.3760 C   0  0  0  0  0  2  0  0  0  0  0  0
  180.6050  178.1310  142.0710 O   0  0  0  0  0  0  0  0  0  0  0  0
  180.7530  178.0030  140.6890 C   0  0  0  0  0  2  0  0  0  0  0  0
  182.5470  177.7140  138.9740 C   0  0  2  0  0  3  0  0  0  0  0  0
  182.1740  178.3640  140.2940 C   0  0  2  0  0  3  0  0  0  0  0  0
  182.6310  176.2080  139.1420 C   0  0  0  0  0  2  0  0  0  0  0  0
  183.0530  177.1280  140.2730 C   0  0  1  0  0  3  0  0  0  0  0  0
  1  7  1  6  0  0  0
  1  5  1  0  0  0  0
  1  3  1  0  0  0  0
  3 11  1  6  0  0  0
  3  6  1  0  0  0  0
  4  7  1  0  0  0  0
  4  8  2  0  0  0  0
  5  8  1  6  0  0  0
  5  9  1  0  0  0  0
  6  2  2  0  0  0  0
  6 21  1  0  0  0  0
  8 23  1  0  0  0  0
  9  2  1  0  0  0  0
 10 11  2  0  0  0  0
 11 14  1  0  0  0  0
 12 13  2  0  0  0  0
 14 12  2  0  0  0  0
 15 14  1  0  0  0  0
 16 15  1  0  0  0  0
 18 17  1  0  0  0  0
 18 16  1  0  0  0  0
 19 18  2  0  0  0  0
 20 18  1  0  0  0  0
 21 22  1  0  0  0  0
 24 23  1  0  0  0  0
 25 24  1  0  0  0  0
 26 25  1  0  0  0  0
 27 26  1  0  0  0  0
 28 30  1  1  0  0  0
 28 31  1  0  0  0  0
 28 29  1  0  0  0  0
 29 27  1  1  0  0  0
 31 30  1  1  0  0  0
 31 29  1  0  0  0  0
M  END
>  <MODEL>
8

>  <REMARK>
 VINA RESULT:      -6.5      2.635      7.167
  Name = 
  12 active torsions:
  status: ('A' for Active; 'I' for Inactive)
    1  A    between atoms: O_1  and  C_5
    2  A    between atoms: O_1  and  C_12
    3  A    between atoms: P_3  and  C_13
    4  A    between atoms: C_5  and  C_18
    5  A    between atoms: C_7  and  C_26
    6  A    between atoms: C_12  and  C_20
    7  A    between atoms: C_13  and  C_16
    8  A    between atoms: O_14  and  C_18
    9  A    between atoms: O_14  and  C_27
   10  A    between atoms: C_16  and  C_30
   11  A    between atoms: O_21  and  C_23
   12  A    between atoms: C_26  and  C_30
                            x       y       z     vdW  Elec       q    Type
                         _______ _______ _______ _____ _____    ______ ____

>  <TORSDO>
F 12

$$$$
=
 OpenBabel11062414333D

 31 34  0  0  1  0  0  0  0  0999 V2000
  188.0920  177.9750  142.4970 C   0  0  1  0  0  3  0  0  0  0  0  0
  189.1300  178.2180  139.9040 N   0  0  0  0  0  0  0  0  0  0  0  0
  188.9210  176.8300  141.9070 C   0  0  1  0  0  3  0  0  0  0  0  0
  185.7660  178.0510  142.8090 N   0  0  0  0  0  0  0  0  0  0  0  0
  187.3990  178.7040  141.4060 C   0  0  2  0  0  3  0  0  0  0  0  0
  189.6710  177.3100  140.6750 C   0  0  0  0  0  0  0  0  0  0  0  0
  186.9640  177.5020  143.2930 N   0  0  0  0  0  2  0  0  0  0  0  0
  185.9950  178.7410  141.7420 C   0  0  0  0  0  0  0  0  0  0  0  0
  187.8780  178.7910  140.2040 N   0  0  0  0  0  2  0  0  0  0  0  0
  190.2170  175.0620  142.8590 O   0  0  0  0  0  0  0  0  0  0  0  0
  189.8480  176.2660  142.9470 C   0  0  0  0  0  0  0  0  0  0  0  0
  191.2110  178.0510  143.8590 C   0  0  0  0  0  0  0  0  0  0  0  0
  192.0370  178.9530  143.6660 O   0  0  0  0  0  0  0  0  0  0  0  0
  190.3370  177.0990  144.0640 C   0  0  0  0  0  0  0  0  0  0  0  0
  189.8040  176.8870  145.4460 C   0  0  0  0  0  2  0  0  0  0  0  0
  189.1860  178.1550  146.0240 C   0  0  0  0  0  2  0  0  0  0  0  0
  186.6670  178.2970  147.4040 O   0  0  0  0  0  0  0  0  0  0  0  0
  188.2770  177.8030  147.5600 P   0  0  0  0  0  0  0  0  0  0  0  0
  189.0000  178.6260  148.8490 O   0  0  0  0  0  1  0  0  0  0  0  0
  188.3160  176.3170  147.8290 O   0  0  0  0  0  1  0  0  0  0  0  0
  190.9020  176.7380  140.3410 O   0  0  0  0  0  0  0  0  0  0  0  0
  192.0990  177.4990  140.2720 C   0  0  0  0  0  1  0  0  0  0  0  0
  185.0080  179.3780  140.9930 O   0  0  0  0  0  0  0  0  0  0  0  0
  184.0490  178.6490  140.2430 C   0  0  0  0  0  2  0  0  0  0  0  0
  184.0250  179.1570  138.8130 C   0  0  0  0  0  2  0  0  0  0  0  0
  185.2860  179.0020  138.2340 O   0  0  0  0  0  0  0  0  0  0  0  0
  185.3320  177.6660  137.8330 C   0  0  0  0  0  2  0  0  0  0  0  0
  186.7020  176.1930  136.3520 C   0  0  2  0  0  3  0  0  0  0  0  0
  186.0610  177.5590  136.5040 C   0  0  2  0  0  3  0  0  0  0  0  0
  187.8310  176.0340  137.3530 C   0  0  0  0  0  2  0  0  0  0  0  0
  187.5520  177.3870  136.7250 C   0  0  1  0  0  3  0  0  0  0  0  0
  1  7  1  1  0  0  0
  2  9  1  0  0  0  0
  2  6  2  0  0  0  0
  3  1  1  0  0  0  0
  3 11  1  1  0  0  0
  4  7  1  0  0  0  0
  5  9  1  6  0  0  0
  5  8  1  0  0  0  0
  5  1  1  0  0  0  0
  6  3  1  0  0  0  0
  8  4  2  0  0  0  0
 10 11  2  0  0  0  0
 11 14  1  0  0  0  0
 12 14  2  0  0  0  0
 13 12  2  0  0  0  0
 14 15  1  0  0  0  0
 15 16  1  0  0  0  0
 16 18  1  0  0  0  0
 17 18  2  0  0  0  0
 18 20  1  0  0  0  0
 18 19  1  0  0  0  0
 21  6  1  0  0  0  0
 22 21  1  0  0  0  0
 23  8  1  0  0  0  0
 24 23  1  0  0  0  0
 25 24  1  0  0  0  0
 26 25  1  0  0  0  0
 27 26  1  0  0  0  0
 28 29  1  0  0  0  0
 28 31  1  0  0  0  0
 28 30  1  1  0  0  0
 29 31  1  0  0  0  0
 29 27  1  1  0  0  0
 31 30  1  1  0  0  0
M  END
>  <MODEL>
9

>  <REMARK>
 VINA RESULT:      -6.5      2.780      7.878
  Name = 
  12 active torsions:
  status: ('A' for Active; 'I' for Inactive)
    1  A    between atoms: O_1  and  C_5
    2  A    between atoms: O_1  and  C_12
    3  A    between atoms: P_3  and  C_13
    4  A    between atoms: C_5  and  C_18
    5  A    between atoms: C_7  and  C_26
    6  A    between atoms: C_12  and  C_20
    7  A    between atoms: C_13  and  C_16
    8  A    between atoms: O_14  and  C_18
    9  A    between atoms: O_14  and  C_27
   10  A    between atoms: C_16  and  C_30
   11  A    between atoms: O_21  and  C_23
   12  A    between atoms: C_26  and  C_30
                            x       y       z     vdW  Elec       q    Type
                         _______ _______ _______ _____ _____    ______ ____

>  <TORSDO>
F 12

$$$$
