=
 OpenBabel11062414243D

 45 49  0  0  1  0  0  0  0  0999 V2000
  190.9700  177.1070  140.8910 O   0  0  0  0  0  0  0  0  0  0  0  0
  189.7980  177.5570  141.0360 C   0  0  0  0  0  0  0  0  0  0  0  0
  188.9790  177.8070  139.8760 N   0  0  0  0  0  0  0  0  0  0  0  0
  186.7370  178.1280  138.8580 C   0  0  0  0  0  3  0  0  0  0  0  0
  185.4070  178.5450  138.9500 C   0  0  0  0  0  3  0  0  0  0  0  0
  185.2700  179.5860  142.4490 F   0  0  0  0  0  0  0  0  0  0  0  0
  187.0770  178.6860  141.1840 C   0  0  0  0  0  3  0  0  0  0  0  0
  187.5880  178.1850  139.9740 C   0  0  0  0  0  0  0  0  0  0  0  0
  184.9120  179.0360  140.1600 C   0  0  0  0  0  3  0  0  0  0  0  0
  185.7460  179.1020  141.2780 C   0  0  0  0  0  0  0  0  0  0  0  0
  189.5580  177.5810  138.5490 C   0  0  0  0  0  2  0  0  0  0  0  0
  189.0860  173.6940  136.9210 N   0  0  0  0  0  2  0  0  0  0  0  0
  190.4500  174.2260  136.9090 C   0  0  0  0  0  2  0  0  0  0  0  0
  188.1270  174.6940  136.4050 C   0  0  2  0  0  3  0  0  0  0  0  0
  189.2860  176.1530  138.0910 C   0  0  1  0  0  3  0  0  0  0  0  0
  188.4860  176.1390  136.7920 C   0  0  0  0  0  2  0  0  0  0  0  0
  190.5970  175.3870  137.9090 C   0  0  0  0  0  2  0  0  0  0  0  0
  185.6990  175.3370  136.7490 C   0  0  0  0  0  3  0  0  0  0  0  0
  186.7280  174.3890  136.8630 C   0  0  0  0  0  0  0  0  0  0  0  0
  184.1360  173.7390  137.5860 N   0  0  0  0  0  0  0  0  0  0  0  0
  185.1160  172.7960  137.6970 C   0  0  0  0  0  3  0  0  0  0  0  0
  184.4000  174.9930  137.1300 C   0  0  0  0  0  0  0  0  0  0  0  0
  186.4270  173.1040  137.3400 C   0  0  0  0  0  3  0  0  0  0  0  0
  183.2990  176.0030  137.0300 C   0  0  0  0  0  2  0  0  0  0  0  0
  182.2320  175.8340  138.1140 C   0  0  0  0  0  3  0  0  0  0  0  0
  181.9920  177.1270  138.8990 C   0  0  0  0  0  2  0  0  0  0  0  0
  180.9280  175.2360  137.5490 C   0  0  0  0  0  2  0  0  0  0  0  0
  179.6790  175.6420  138.3450 C   0  0  0  0  0  2  0  0  0  0  0  0
  179.9980  175.7850  139.8300 C   0  0  0  0  0  2  0  0  0  0  0  0
  181.0170  176.9040  140.0700 C   0  0  0  0  0  2  0  0  0  0  0  0
  189.3030  177.8220  142.3210 O   0  0  0  0  0  0  0  0  0  0  0  0
  190.0670  177.6940  143.5250 C   0  0  1  0  0  3  0  0  0  0  0  0
  191.4130  179.6670  144.2400 C   0  0  0  0  0  1  0  0  0  0  0  0
  191.4130  178.3950  143.4130 C   0  0  0  0  0  2  0  0  0  0  0  0
  189.2970  178.2110  144.7330 C   0  0  0  0  0  2  0  0  0  0  0  0
  188.4170  177.2010  146.9070 C   0  0  1  0  0  3  0  0  0  0  0  0
  187.5590  178.3910  147.3480 C   0  0  0  0  0  2  0  0  0  0  0  0
  186.2120  178.2120  145.2510 C   0  0  0  0  0  2  0  0  0  0  0  0
  185.3620  179.3220  147.1960 O   0  0  0  0  0  1  0  0  0  0  0  0
  186.1530  178.2500  146.7760 C   0  0  2  0  0  3  0  0  0  0  0  0
  187.0630  177.0260  144.7880 C   0  0  0  0  0  2  0  0  0  0  0  0
  188.4800  177.0900  145.3750 C   0  0  1  0  0  3  0  0  0  0  0  0
  189.8080  177.2640  147.5270 C   0  0  0  0  0  2  0  0  0  0  0  0
  190.4720  176.0560  147.3340 O   0  0  0  0  0  0  0  0  0  0  0  0
  191.7490  176.4250  146.9160 C   0  0  0  0  0  1  0  0  0  0  0  0
  1  2  2  0  0  0  0
  2 31  1  0  0  0  0
  3  8  1  0  0  0  0
  3  2  1  0  0  0  0
  4  5  2  0  0  0  0
  4  8  1  0  0  0  0
  5  9  1  0  0  0  0
  7 10  1  0  0  0  0
  8  7  2  0  0  0  0
  9 10  2  0  0  0  0
 10  6  1  0  0  0  0
 11  3  1  0  0  0  0
 13 12  1  0  0  0  0
 13 17  1  0  0  0  0
 14 16  1  0  0  0  0
 14 19  1  1  0  0  0
 14 12  1  0  0  0  0
 15 11  1  6  0  0  0
 16 15  1  0  0  0  0
 17 15  1  0  0  0  0
 18 19  2  0  0  0  0
 18 22  1  0  0  0  0
 19 23  1  0  0  0  0
 20 21  1  0  0  0  0
 22 20  2  0  0  0  0
 23 21  2  0  0  0  0
 24 22  1  0  0  0  0
 24 25  1  0  0  0  0
 25 26  1  0  0  0  0
 26 30  1  0  0  0  0
 27 25  1  0  0  0  0
 27 28  1  0  0  0  0
 28 29  1  0  0  0  0
 29 30  1  0  0  0  0
 31 32  1  0  0  0  0
 32 34  1  6  0  0  0
 32 35  1  0  0  0  0
 34 33  1  0  0  0  0
 36 37  1  0  0  0  0
 36 43  1  6  0  0  0
 38 40  1  0  0  0  0
 40 39  1  6  0  0  0
 40 37  1  0  0  0  0
 41 38  1  0  0  0  0
 41 42  1  0  0  0  0
 42 35  1  6  0  0  0
 42 36  1  0  0  0  0
 44 43  1  0  0  0  0
 45 44  1  0  0  0  0
M  END
>  <MODEL>
1

>  <REMARK>
 VINA RESULT:      -8.8      0.000      0.000
  Name = 
  13 active torsions:
  status: ('A' for Active; 'I' for Inactive)
    1  A    between atoms: C_2  and  C_17
    2  A    between atoms: C_3  and  C_36
    3  A    between atoms: C_4  and  C_18
    4  A    between atoms: C_4  and  N_23
    5  A    between atoms: C_10  and  C_14
    6  A    between atoms: C_10  and  C_15
    7  A    between atoms: C_11  and  O_42
    8  A    between atoms: C_16  and  C_35
    9  A    between atoms: C_16  and  C_43
   10  A    between atoms: N_23  and  C_33
   11  A    between atoms: O_25  and  C_36
   12  A    between atoms: C_35  and  C_41
   13  A    between atoms: C_35  and  O_42
                            x       y       z     vdW  Elec       q    Type
                         _______ _______ _______ _____ _____    ______ ____

>  <TORSDO>
F 13

$$$$
=
 OpenBabel11062414243D

 45 49  0  0  1  0  0  0  0  0999 V2000
  187.5160  178.6560  140.3410 O   0  0  0  0  0  0  0  0  0  0  0  0
  188.6640  178.1410  140.2220 C   0  0  0  0  0  0  0  0  0  0  0  0
  189.1800  177.8410  138.9090 N   0  0  0  0  0  0  0  0  0  0  0  0
  190.9100  176.7650  137.4890 C   0  0  0  0  0  3  0  0  0  0  0  0
  192.2080  176.2800  137.3100 C   0  0  0  0  0  3  0  0  0  0  0  0
  193.6920  177.1170  140.5410 F   0  0  0  0  0  0  0  0  0  0  0  0
  191.4870  177.4920  139.7200 C   0  0  0  0  0  3  0  0  0  0  0  0
  190.5340  177.3840  138.6930 C   0  0  0  0  0  0  0  0  0  0  0  0
  193.1460  176.4000  138.3370 C   0  0  0  0  0  3  0  0  0  0  0  0
  192.7860  177.0090  139.5410 C   0  0  0  0  0  0  0  0  0  0  0  0
  188.3260  178.0950  137.7460 C   0  0  0  0  0  2  0  0  0  0  0  0
  185.7180  174.9130  136.7200 N   0  0  0  0  0  2  0  0  0  0  0  0
  186.9950  174.9430  136.0040 C   0  0  0  0  0  2  0  0  0  0  0  0
  185.0840  176.2480  136.7200 C   0  0  2  0  0  3  0  0  0  0  0  0
  187.3570  176.9380  137.5400 C   0  0  1  0  0  3  0  0  0  0  0  0
  186.0950  177.4040  136.8210 C   0  0  0  0  0  2  0  0  0  0  0  0
  188.0240  175.8100  136.7510 C   0  0  0  0  0  2  0  0  0  0  0  0
  183.9840  177.5350  138.6080 C   0  0  0  0  0  3  0  0  0  0  0  0
  184.0770  176.3690  137.8300 C   0  0  0  0  0  0  0  0  0  0  0  0
  182.1170  176.6080  139.7700 N   0  0  0  0  0  0  0  0  0  0  0  0
  182.1790  175.4700  139.0210 C   0  0  0  0  0  3  0  0  0  0  0  0
  182.9960  177.6310  139.5900 C   0  0  0  0  0  0  0  0  0  0  0  0
  183.1590  175.3300  138.0410 C   0  0  0  0  0  3  0  0  0  0  0  0
  182.9010  178.8610  140.4370 C   0  0  0  0  0  2  0  0  0  0  0  0
  182.0630  178.6540  141.7010 C   0  0  0  0  0  3  0  0  0  0  0  0
  182.8380  179.0000  142.9760 C   0  0  0  0  0  2  0  0  0  0  0  0
  180.7070  179.3830  141.6190 C   0  0  0  0  0  2  0  0  0  0  0  0
  180.1440  179.7750  142.9930 C   0  0  0  0  0  2  0  0  0  0  0  0
  180.5100  178.7390  144.0510 C   0  0  0  0  0  2  0  0  0  0  0  0
  182.0280  178.6580  144.2410 C   0  0  0  0  0  2  0  0  0  0  0  0
  189.4250  177.8520  141.3640 O   0  0  0  0  0  0  0  0  0  0  0  0
  189.0020  176.9840  142.4200 C   0  0  1  0  0  3  0  0  0  0  0  0
  191.3190  176.5270  143.2190 C   0  0  0  0  0  1  0  0  0  0  0  0
  190.0340  175.9040  142.7050 C   0  0  0  0  0  2  0  0  0  0  0  0
  188.6830  177.7620  143.6890 C   0  0  0  0  0  2  0  0  0  0  0  0
  188.4310  177.2310  146.1740 C   0  0  1  0  0  3  0  0  0  0  0  0
  187.7870  178.5540  146.5980 C   0  0  0  0  0  2  0  0  0  0  0  0
  185.8830  178.1430  145.0330 C   0  0  0  0  0  2  0  0  0  0  0  0
  185.6790  179.6470  146.8850 O   0  0  0  0  0  1  0  0  0  0  0  0
  186.2700  178.4500  146.4770 C   0  0  2  0  0  3  0  0  0  0  0  0
  186.5140  176.8200  144.5890 C   0  0  0  0  0  2  0  0  0  0  0  0
  188.0420  176.8510  144.7360 C   0  0  1  0  0  3  0  0  0  0  0  0
  189.9430  177.2690  146.3600 C   0  0  0  0  0  2  0  0  0  0  0  0
  190.3300  176.3300  147.3130 O   0  0  0  0  0  0  0  0  0  0  0  0
  191.7160  176.2580  147.1850 C   0  0  0  0  0  1  0  0  0  0  0  0
  2  1  2  0  0  0  0
  2 31  1  0  0  0  0
  3  2  1  0  0  0  0
  4  8  1  0  0  0  0
  5  4  2  0  0  0  0
  5  9  1  0  0  0  0
  8  3  1  0  0  0  0
  8  7  2  0  0  0  0
  9 10  2  0  0  0  0
 10  7  1  0  0  0  0
 10  6  1  0  0  0  0
 11  3  1  0  0  0  0
 13 12  1  0  0  0  0
 13 17  1  0  0  0  0
 14 12  1  0  0  0  0
 14 16  1  0  0  0  0
 14 19  1  1  0  0  0
 15 11  1  6  0  0  0
 16 15  1  0  0  0  0
 17 15  1  0  0  0  0
 18 22  1  0  0  0  0
 19 23  1  0  0  0  0
 19 18  2  0  0  0  0
 21 20  1  0  0  0  0
 22 20  2  0  0  0  0
 22 24  1  0  0  0  0
 23 21  2  0  0  0  0
 24 25  1  0  0  0  0
 25 26  1  0  0  0  0
 26 30  1  0  0  0  0
 27 25  1  0  0  0  0
 27 28  1  0  0  0  0
 28 29  1  0  0  0  0
 29 30  1  0  0  0  0
 31 32  1  0  0  0  0
 32 34  1  1  0  0  0
 32 35  1  0  0  0  0
 34 33  1  0  0  0  0
 36 43  1  6  0  0  0
 36 37  1  0  0  0  0
 38 40  1  0  0  0  0
 40 37  1  0  0  0  0
 40 39  1  6  0  0  0
 41 42  1  0  0  0  0
 41 38  1  0  0  0  0
 42 35  1  6  0  0  0
 42 36  1  0  0  0  0
 43 44  1  0  0  0  0
 45 44  1  0  0  0  0
M  END
>  <MODEL>
2

>  <REMARK>
 VINA RESULT:      -8.5      2.429      3.955
  Name = 
  13 active torsions:
  status: ('A' for Active; 'I' for Inactive)
    1  A    between atoms: C_2  and  C_17
    2  A    between atoms: C_3  and  C_36
    3  A    between atoms: C_4  and  C_18
    4  A    between atoms: C_4  and  N_23
    5  A    between atoms: C_10  and  C_14
    6  A    between atoms: C_10  and  C_15
    7  A    between atoms: C_11  and  O_42
    8  A    between atoms: C_16  and  C_35
    9  A    between atoms: C_16  and  C_43
   10  A    between atoms: N_23  and  C_33
   11  A    between atoms: O_25  and  C_36
   12  A    between atoms: C_35  and  C_41
   13  A    between atoms: C_35  and  O_42
                            x       y       z     vdW  Elec       q    Type
                         _______ _______ _______ _____ _____    ______ ____

>  <TORSDO>
F 13

$$$$
=
 OpenBabel11062414243D

 45 49  0  0  1  0  0  0  0  0999 V2000
  187.1440  178.5260  140.2830 O   0  0  0  0  0  0  0  0  0  0  0  0
  188.2860  177.9920  140.3600 C   0  0  0  0  0  0  0  0  0  0  0  0
  189.1210  177.9160  139.1860 N   0  0  0  0  0  0  0  0  0  0  0  0
  191.2900  177.6630  140.3680 C   0  0  0  0  0  3  0  0  0  0  0  0
  192.6260  177.2540  140.3860 C   0  0  0  0  0  3  0  0  0  0  0  0
  192.9350  175.8210  137.0400 F   0  0  0  0  0  0  0  0  0  0  0  0
  191.0610  176.8270  138.1130 C   0  0  0  0  0  3  0  0  0  0  0  0
  190.4870  177.4490  139.2350 C   0  0  0  0  0  0  0  0  0  0  0  0
  193.1800  176.6320  139.2660 C   0  0  0  0  0  3  0  0  0  0  0  0
  192.3970  176.4150  138.1310 C   0  0  0  0  0  0  0  0  0  0  0  0
  188.5910  178.4170  137.9160 C   0  0  0  0  0  2  0  0  0  0  0  0
  185.6250  176.0290  136.0510 N   0  0  0  0  0  2  0  0  0  0  0  0
  186.8370  176.2630  135.2650 C   0  0  0  0  0  2  0  0  0  0  0  0
  185.1190  177.2930  136.6280 C   0  0  2  0  0  3  0  0  0  0  0  0
  187.5050  177.4850  137.3940 C   0  0  1  0  0  3  0  0  0  0  0  0
  186.2380  178.2620  137.0480 C   0  0  0  0  0  2  0  0  0  0  0  0
  187.9990  176.7150  136.1680 C   0  0  0  0  0  2  0  0  0  0  0  0
  184.1160  177.9460  138.8630 C   0  0  0  0  0  3  0  0  0  0  0  0
  184.2200  177.0300  137.8040 C   0  0  0  0  0  0  0  0  0  0  0  0
  182.4480  176.5770  139.8810 N   0  0  0  0  0  0  0  0  0  0  0  0
  182.5220  175.6760  138.8590 C   0  0  0  0  0  3  0  0  0  0  0  0
  183.2250  177.6930  139.9080 C   0  0  0  0  0  0  0  0  0  0  0  0
  183.4090  175.8860  137.8050 C   0  0  0  0  0  3  0  0  0  0  0  0
  183.1210  178.6540  141.0510 C   0  0  0  0  0  2  0  0  0  0  0  0
  181.7630  178.6010  141.7550 C   0  0  0  0  0  3  0  0  0  0  0  0
  181.8750  178.8860  143.2560 C   0  0  0  0  0  2  0  0  0  0  0  0
  180.7190  179.4990  141.0610 C   0  0  0  0  0  2  0  0  0  0  0  0
  179.6260  180.0060  142.0120 C   0  0  0  0  0  2  0  0  0  0  0  0
  179.3040  178.9680  143.0820 C   0  0  0  0  0  2  0  0  0  0  0  0
  180.5230  178.6950  143.9690 C   0  0  0  0  0  2  0  0  0  0  0  0
  188.7330  177.4660  141.5810 O   0  0  0  0  0  0  0  0  0  0  0  0
  188.1360  177.7480  142.8510 C   0  0  1  0  0  3  0  0  0  0  0  0
  185.8520  178.4540  143.5590 C   0  0  0  0  0  1  0  0  0  0  0  0
  186.6620  177.3690  142.8740 C   0  0  0  0  0  2  0  0  0  0  0  0
  188.8800  177.0570  143.9840 C   0  0  0  0  0  2  0  0  0  0  0  0
  189.0390  177.7670  146.4320 C   0  0  1  0  0  3  0  0  0  0  0  0
  189.7760  176.5300  146.9520 C   0  0  0  0  0  2  0  0  0  0  0  0
  191.6730  176.9890  145.3920 C   0  0  0  0  0  2  0  0  0  0  0  0
  191.9570  175.6290  147.3440 O   0  0  0  0  0  1  0  0  0  0  0  0
  191.2820  176.7470  146.8480 C   0  0  2  0  0  3  0  0  0  0  0  0
  190.9490  178.2260  144.8530 C   0  0  0  0  0  2  0  0  0  0  0  0
  189.4260  178.0820  144.9780 C   0  0  1  0  0  3  0  0  0  0  0  0
  187.5310  177.6210  146.5980 C   0  0  0  0  0  2  0  0  0  0  0  0
  187.0710  178.4990  147.5760 O   0  0  0  0  0  0  0  0  0  0  0  0
  185.7540  178.7680  147.2080 C   0  0  0  0  0  1  0  0  0  0  0  0
  1  2  2  0  0  0  0
  2 31  1  0  0  0  0
  3  8  1  0  0  0  0
  3  2  1  0  0  0  0
  4  5  1  0  0  0  0
  6 10  1  0  0  0  0
  7 10  2  0  0  0  0
  7  8  1  0  0  0  0
  8  4  2  0  0  0  0
  9  5  2  0  0  0  0
 10  9  1  0  0  0  0
 11  3  1  0  0  0  0
 12 14  1  0  0  0  0
 13 12  1  0  0  0  0
 13 17  1  0  0  0  0
 14 16  1  0  0  0  0
 14 19  1  1  0  0  0
 15 11  1  6  0  0  0
 16 15  1  0  0  0  0
 17 15  1  0  0  0  0
 18 22  1  0  0  0  0
 19 23  1  0  0  0  0
 19 18  2  0  0  0  0
 20 22  2  0  0  0  0
 21 20  1  0  0  0  0
 22 24  1  0  0  0  0
 23 21  2  0  0  0  0
 24 25  1  0  0  0  0
 25 26  1  0  0  0  0
 26 30  1  0  0  0  0
 27 25  1  0  0  0  0
 27 28  1  0  0  0  0
 28 29  1  0  0  0  0
 29 30  1  0  0  0  0
 31 32  1  0  0  0  0
 32 34  1  6  0  0  0
 32 35  1  0  0  0  0
 34 33  1  0  0  0  0
 36 43  1  6  0  0  0
 36 37  1  0  0  0  0
 38 40  1  0  0  0  0
 40 37  1  0  0  0  0
 40 39  1  6  0  0  0
 41 42  1  0  0  0  0
 41 38  1  0  0  0  0
 42 35  1  6  0  0  0
 42 36  1  0  0  0  0
 43 44  1  0  0  0  0
 45 44  1  0  0  0  0
M  END
>  <MODEL>
3

>  <REMARK>
 VINA RESULT:      -8.4      2.613      4.706
  Name = 
  13 active torsions:
  status: ('A' for Active; 'I' for Inactive)
    1  A    between atoms: C_2  and  C_17
    2  A    between atoms: C_3  and  C_36
    3  A    between atoms: C_4  and  C_18
    4  A    between atoms: C_4  and  N_23
    5  A    between atoms: C_10  and  C_14
    6  A    between atoms: C_10  and  C_15
    7  A    between atoms: C_11  and  O_42
    8  A    between atoms: C_16  and  C_35
    9  A    between atoms: C_16  and  C_43
   10  A    between atoms: N_23  and  C_33
   11  A    between atoms: O_25  and  C_36
   12  A    between atoms: C_35  and  C_41
   13  A    between atoms: C_35  and  O_42
                            x       y       z     vdW  Elec       q    Type
                         _______ _______ _______ _____ _____    ______ ____

>  <TORSDO>
F 13

$$$$
=
 OpenBabel11062414243D

 45 49  0  0  1  0  0  0  0  0999 V2000
  188.2220  178.5860  139.6270 O   0  0  0  0  0  0  0  0  0  0  0  0
  188.1470  177.5930  138.8510 C   0  0  0  0  0  0  0  0  0  0  0  0
  187.0350  177.4790  137.9390 N   0  0  0  0  0  0  0  0  0  0  0  0
  187.0520  176.7560  135.5640 C   0  0  0  0  0  3  0  0  0  0  0  0
  186.9260  175.7580  134.5950 C   0  0  0  0  0  3  0  0  0  0  0  0
  186.3700  172.8320  136.7090 F   0  0  0  0  0  0  0  0  0  0  0  0
  186.7250  175.1120  137.3030 C   0  0  0  0  0  3  0  0  0  0  0  0
  186.9610  176.4460  136.9310 C   0  0  0  0  0  0  0  0  0  0  0  0
  186.6980  174.4360  134.9800 C   0  0  0  0  0  3  0  0  0  0  0  0
  186.6010  174.1120  136.3350 C   0  0  0  0  0  0  0  0  0  0  0  0
  185.9880  178.5030  137.9810 C   0  0  0  0  0  2  0  0  0  0  0  0
  182.5640  177.5280  140.2840 N   0  0  0  0  0  2  0  0  0  0  0  0
  182.3880  177.4760  138.8320 C   0  0  0  0  0  2  0  0  0  0  0  0
  183.2370  178.7820  140.6880 C   0  0  2  0  0  3  0  0  0  0  0  0
  184.8610  178.0670  138.9080 C   0  0  1  0  0  3  0  0  0  0  0  0
  184.2970  179.2570  139.6790 C   0  0  0  0  0  2  0  0  0  0  0  0
  183.7470  177.3800  138.1160 C   0  0  0  0  0  2  0  0  0  0  0  0
  185.1550  178.1030  142.2020 C   0  0  0  0  0  3  0  0  0  0  0  0
  183.8680  178.6450  142.0460 C   0  0  0  0  0  0  0  0  0  0  0  0
  185.0510  178.5400  144.5460 N   0  0  0  0  0  0  0  0  0  0  0  0
  183.8050  179.0800  144.4200 C   0  0  0  0  0  3  0  0  0  0  0  0
  185.7290  178.0490  143.4730 C   0  0  0  0  0  0  0  0  0  0  0  0
  183.1920  179.1400  143.1700 C   0  0  0  0  0  3  0  0  0  0  0  0
  187.0930  177.4570  143.6530 C   0  0  0  0  0  2  0  0  0  0  0  0
  187.7300  177.8200  144.9960 C   0  0  0  0  0  3  0  0  0  0  0  0
  186.9380  177.2640  146.1840 C   0  0  0  0  0  2  0  0  0  0  0  0
  189.2210  177.4320  145.0480 C   0  0  0  0  0  2  0  0  0  0  0  0
  189.7250  177.1460  146.4700 C   0  0  0  0  0  2  0  0  0  0  0  0
  189.0220  178.0360  147.4900 C   0  0  0  0  0  2  0  0  0  0  0  0
  187.5170  177.7520  147.5260 C   0  0  0  0  0  2  0  0  0  0  0  0
  189.1360  176.5990  138.8860 O   0  0  0  0  0  0  0  0  0  0  0  0
  190.5410  176.8520  138.7800 C   0  0  1  0  0  3  0  0  0  0  0  0
  192.6510  177.3500  140.0120 C   0  0  0  0  0  1  0  0  0  0  0  0
  191.1400  177.2640  140.1170 C   0  0  0  0  0  2  0  0  0  0  0  0
  191.2840  175.6510  138.2120 C   0  0  0  0  0  2  0  0  0  0  0  0
  192.9630  175.0160  136.3960 C   0  0  1  0  0  3  0  0  0  0  0  0
  192.4510  173.5960  136.1370 C   0  0  0  0  0  2  0  0  0  0  0  0
  190.2100  174.5040  135.5070 C   0  0  0  0  0  2  0  0  0  0  0  0
  190.9240  172.3290  134.8030 O   0  0  0  0  0  1  0  0  0  0  0  0
  191.3740  173.6260  135.0570 C   0  0  2  0  0  3  0  0  0  0  0  0
  190.7000  175.9320  135.7670 C   0  0  0  0  0  2  0  0  0  0  0  0
  191.8210  175.9570  136.8150 C   0  0  1  0  0  3  0  0  0  0  0  0
  194.0990  175.0170  137.4110 C   0  0  0  0  0  2  0  0  0  0  0  0
  195.1430  175.8200  136.9590 O   0  0  0  0  0  0  0  0  0  0  0  0
  195.9420  174.9610  136.2080 C   0  0  0  0  0  1  0  0  0  0  0  0
  2 31  1  0  0  0  0
  2  1  2  0  0  0  0
  3 11  1  0  0  0  0
  3  2  1  0  0  0  0
  4  8  1  0  0  0  0
  5  9  1  0  0  0  0
  5  4  2  0  0  0  0
  8  7  2  0  0  0  0
  8  3  1  0  0  0  0
  9 10  2  0  0  0  0
 10  6  1  0  0  0  0
 10  7  1  0  0  0  0
 12 14  1  0  0  0  0
 13 12  1  0  0  0  0
 14 19  1  1  0  0  0
 15 11  1  6  0  0  0
 15 16  1  0  0  0  0
 16 14  1  0  0  0  0
 17 13  1  0  0  0  0
 17 15  1  0  0  0  0
 18 22  1  0  0  0  0
 19 18  2  0  0  0  0
 19 23  1  0  0  0  0
 21 20  1  0  0  0  0
 22 24  1  0  0  0  0
 22 20  2  0  0  0  0
 23 21  2  0  0  0  0
 24 25  1  0  0  0  0
 25 27  1  0  0  0  0
 25 26  1  0  0  0  0
 26 30  1  0  0  0  0
 27 28  1  0  0  0  0
 28 29  1  0  0  0  0
 29 30  1  0  0  0  0
 32 35  1  1  0  0  0
 32 31  1  0  0  0  0
 32 34  1  0  0  0  0
 33 34  1  0  0  0  0
 36 42  1  0  0  0  0
 36 43  1  1  0  0  0
 37 36  1  0  0  0  0
 38 41  1  0  0  0  0
 40 39  1  1  0  0  0
 40 38  1  0  0  0  0
 40 37  1  0  0  0  0
 41 42  1  0  0  0  0
 42 35  1  1  0  0  0
 44 43  1  0  0  0  0
 45 44  1  0  0  0  0
M  END
>  <MODEL>
4

>  <REMARK>
 VINA RESULT:      -8.0      3.011      8.584
  Name = 
  13 active torsions:
  status: ('A' for Active; 'I' for Inactive)
    1  A    between atoms: C_2  and  C_17
    2  A    between atoms: C_3  and  C_36
    3  A    between atoms: C_4  and  C_18
    4  A    between atoms: C_4  and  N_23
    5  A    between atoms: C_10  and  C_14
    6  A    between atoms: C_10  and  C_15
    7  A    between atoms: C_11  and  O_42
    8  A    between atoms: C_16  and  C_35
    9  A    between atoms: C_16  and  C_43
   10  A    between atoms: N_23  and  C_33
   11  A    between atoms: O_25  and  C_36
   12  A    between atoms: C_35  and  C_41
   13  A    between atoms: C_35  and  O_42
                            x       y       z     vdW  Elec       q    Type
                         _______ _______ _______ _____ _____    ______ ____

>  <TORSDO>
F 13

$$$$
=
 OpenBabel11062414243D

 45 49  0  0  1  0  0  0  0  0999 V2000
  186.9700  178.5610  139.9850 O   0  0  0  0  0  0  0  0  0  0  0  0
  188.0890  178.0490  140.2670 C   0  0  0  0  0  0  0  0  0  0  0  0
  189.1720  178.1280  139.3180 N   0  0  0  0  0  0  0  0  0  0  0  0
  191.0560  177.8700  140.9150 C   0  0  0  0  0  3  0  0  0  0  0  0
  192.3710  177.4910  141.1950 C   0  0  0  0  0  3  0  0  0  0  0  0
  193.4130  176.2200  137.9330 F   0  0  0  0  0  0  0  0  0  0  0  0
  191.3270  177.1330  138.6310 C   0  0  0  0  0  3  0  0  0  0  0  0
  190.5130  177.6900  139.6320 C   0  0  0  0  0  0  0  0  0  0  0  0
  193.1650  176.9340  140.1910 C   0  0  0  0  0  3  0  0  0  0  0  0
  192.6410  176.7520  138.9100 C   0  0  0  0  0  0  0  0  0  0  0  0
  188.9210  178.7600  138.0210 C   0  0  0  0  0  2  0  0  0  0  0  0
  187.2000  176.2990  135.0270 N   0  0  0  0  0  2  0  0  0  0  0  0
  188.4190  177.0110  134.6390 C   0  0  0  0  0  2  0  0  0  0  0  0
  186.2460  177.2130  135.6910 C   0  0  2  0  0  3  0  0  0  0  0  0
  188.2770  177.7630  137.0650 C   0  0  1  0  0  3  0  0  0  0  0  0
  186.9300  178.2780  136.5660 C   0  0  0  0  0  2  0  0  0  0  0  0
  189.2010  177.4780  135.8810 C   0  0  0  0  0  2  0  0  0  0  0  0
  184.1520  177.0860  137.1170 C   0  0  0  0  0  3  0  0  0  0  0  0
  185.2530  176.4480  136.5220 C   0  0  0  0  0  0  0  0  0  0  0  0
  183.3720  174.9810  137.9260 N   0  0  0  0  0  0  0  0  0  0  0  0
  184.4270  174.3360  137.3500 C   0  0  0  0  0  3  0  0  0  0  0  0
  183.2210  176.3300  137.8310 C   0  0  0  0  0  0  0  0  0  0  0  0
  185.3850  175.0560  136.6400 C   0  0  0  0  0  3  0  0  0  0  0  0
  182.0540  177.0030  138.4840 C   0  0  0  0  0  2  0  0  0  0  0  0
  181.9290  178.4810  138.1070 C   0  0  0  0  0  3  0  0  0  0  0  0
  180.7530  178.7420  137.1600 C   0  0  0  0  0  2  0  0  0  0  0  0
  181.8970  179.3910  139.3510 C   0  0  0  0  0  2  0  0  0  0  0  0
  181.1410  180.7080  139.1220 C   0  0  0  0  0  2  0  0  0  0  0  0
  181.3200  181.2000  137.6890 C   0  0  0  0  0  2  0  0  0  0  0  0
  180.7240  180.2070  136.6860 C   0  0  0  0  0  2  0  0  0  0  0  0
  188.2710  177.3960  141.4950 O   0  0  0  0  0  0  0  0  0  0  0  0
  187.7690  177.8720  142.7480 C   0  0  1  0  0  3  0  0  0  0  0  0
  185.5730  179.0370  142.9450 C   0  0  0  0  0  1  0  0  0  0  0  0
  186.2620  177.6880  142.8540 C   0  0  0  0  0  2  0  0  0  0  0  0
  188.4700  177.2030  143.9220 C   0  0  0  0  0  2  0  0  0  0  0  0
  188.9260  177.8400  146.3530 C   0  0  1  0  0  3  0  0  0  0  0  0
  189.8680  176.6800  146.6900 C   0  0  0  0  0  2  0  0  0  0  0  0
  191.4370  177.4140  144.8900 C   0  0  0  0  0  2  0  0  0  0  0  0
  192.1680  176.0290  146.7020 O   0  0  0  0  0  1  0  0  0  0  0  0
  191.3060  177.0760  146.3730 C   0  0  2  0  0  3  0  0  0  0  0  0
  190.5050  178.5760  144.5320 C   0  0  0  0  0  2  0  0  0  0  0  0
  189.0460  178.2500  144.8760 C   0  0  1  0  0  3  0  0  0  0  0  0
  187.4880  177.5100  146.7340 C   0  0  0  0  0  2  0  0  0  0  0  0
  186.8760  178.6280  147.2970 O   0  0  0  0  0  0  0  0  0  0  0  0
  185.6790  178.7580  146.5950 C   0  0  0  0  0  1  0  0  0  0  0  0
  1  2  2  0  0  0  0
  2 31  1  0  0  0  0
  3  8  1  0  0  0  0
  3  2  1  0  0  0  0
  4  5  1  0  0  0  0
  6 10  1  0  0  0  0
  7 10  2  0  0  0  0
  7  8  1  0  0  0  0
  8  4  2  0  0  0  0
  9  5  2  0  0  0  0
 10  9  1  0  0  0  0
 11  3  1  0  0  0  0
 12 14  1  0  0  0  0
 13 12  1  0  0  0  0
 13 17  1  0  0  0  0
 14 19  1  1  0  0  0
 14 16  1  0  0  0  0
 15 11  1  1  0  0  0
 16 15  1  0  0  0  0
 17 15  1  0  0  0  0
 18 22  1  0  0  0  0
 19 23  1  0  0  0  0
 19 18  2  0  0  0  0
 21 20  1  0  0  0  0
 22 20  2  0  0  0  0
 22 24  1  0  0  0  0
 23 21  2  0  0  0  0
 25 24  1  0  0  0  0
 25 27  1  0  0  0  0
 26 25  1  0  0  0  0
 28 27  1  0  0  0  0
 29 28  1  0  0  0  0
 30 26  1  0  0  0  0
 30 29  1  0  0  0  0
 31 32  1  0  0  0  0
 32 34  1  6  0  0  0
 32 35  1  0  0  0  0
 34 33  1  0  0  0  0
 36 37  1  0  0  0  0
 36 43  1  6  0  0  0
 38 40  1  0  0  0  0
 40 37  1  0  0  0  0
 40 39  1  6  0  0  0
 41 42  1  0  0  0  0
 41 38  1  0  0  0  0
 42 35  1  6  0  0  0
 42 36  1  0  0  0  0
 43 44  1  0  0  0  0
 45 44  1  0  0  0  0
M  END
>  <MODEL>
5

>  <REMARK>
 VINA RESULT:      -7.8      2.502      4.387
  Name = 
  13 active torsions:
  status: ('A' for Active; 'I' for Inactive)
    1  A    between atoms: C_2  and  C_17
    2  A    between atoms: C_3  and  C_36
    3  A    between atoms: C_4  and  C_18
    4  A    between atoms: C_4  and  N_23
    5  A    between atoms: C_10  and  C_14
    6  A    between atoms: C_10  and  C_15
    7  A    between atoms: C_11  and  O_42
    8  A    between atoms: C_16  and  C_35
    9  A    between atoms: C_16  and  C_43
   10  A    between atoms: N_23  and  C_33
   11  A    between atoms: O_25  and  C_36
   12  A    between atoms: C_35  and  C_41
   13  A    between atoms: C_35  and  O_42
                            x       y       z     vdW  Elec       q    Type
                         _______ _______ _______ _____ _____    ______ ____

>  <TORSDO>
F 13

$$$$
=
 OpenBabel11062414243D

 45 49  0  0  1  0  0  0  0  0999 V2000
  186.1270  179.0100  141.0730 O   0  0  0  0  0  0  0  0  0  0  0  0
  184.9110  178.7160  141.2490 C   0  0  0  0  0  0  0  0  0  0  0  0
  184.0210  178.6460  140.1170 N   0  0  0  0  0  0  0  0  0  0  0  0
  181.6030  179.0710  140.4930 C   0  0  0  0  0  3  0  0  0  0  0  0
  180.2970  178.6040  140.6520 C   0  0  0  0  0  3  0  0  0  0  0  0
  180.8060  175.0130  140.2190 F   0  0  0  0  0  0  0  0  0  0  0  0
  182.3720  176.8070  140.1440 C   0  0  0  0  0  3  0  0  0  0  0  0
  182.6580  178.1800  140.2290 C   0  0  0  0  0  0  0  0  0  0  0  0
  180.0270  177.2380  140.5590 C   0  0  0  0  0  3  0  0  0  0  0  0
  181.0640  176.3390  140.3010 C   0  0  0  0  0  0  0  0  0  0  0  0
  184.5480  178.9750  138.7910 C   0  0  0  0  0  2  0  0  0  0  0  0
  184.2420  175.9560  135.8290 N   0  0  0  0  0  2  0  0  0  0  0  0
  185.5200  176.6690  135.8780 C   0  0  0  0  0  2  0  0  0  0  0  0
  183.1090  176.9050  135.8550 C   0  0  2  0  0  3  0  0  0  0  0  0
  184.3620  177.7980  137.8420 C   0  0  1  0  0  3  0  0  0  0  0  0
  183.3670  178.1390  136.7370 C   0  0  0  0  0  2  0  0  0  0  0  0
  185.7010  177.3810  137.2310 C   0  0  0  0  0  2  0  0  0  0  0  0
  181.8060  174.8450  136.5540 C   0  0  0  0  0  3  0  0  0  0  0  0
  181.8450  176.2270  136.3050 C   0  0  0  0  0  0  0  0  0  0  0  0
  179.5380  175.0390  137.2700 N   0  0  0  0  0  0  0  0  0  0  0  0
  179.5530  176.3840  137.0470 C   0  0  0  0  0  3  0  0  0  0  0  0
  180.6300  174.2630  137.0290 C   0  0  0  0  0  0  0  0  0  0  0  0
  180.7040  177.0010  136.5600 C   0  0  0  0  0  3  0  0  0  0  0  0
  180.5720  172.7880  137.2790 C   0  0  0  0  0  2  0  0  0  0  0  0
  181.5560  171.9960  136.4130 C   0  0  0  0  0  3  0  0  0  0  0  0
  182.7570  171.4880  137.2160 C   0  0  0  0  0  2  0  0  0  0  0  0
  180.8540  170.8710  135.6270 C   0  0  0  0  0  2  0  0  0  0  0  0
  181.7790  169.6900  135.3010 C   0  0  0  0  0  2  0  0  0  0  0  0
  183.2070  170.1640  135.0510 C   0  0  0  0  0  2  0  0  0  0  0  0
  183.8000  170.8120  136.3060 C   0  0  0  0  0  2  0  0  0  0  0  0
  184.4300  178.4710  142.5440 O   0  0  0  0  0  0  0  0  0  0  0  0
  184.5590  179.3810  143.6410 C   0  0  1  0  0  3  0  0  0  0  0  0
  182.1950  178.6290  143.8930 C   0  0  0  0  0  1  0  0  0  0  0  0
  183.3710  179.2900  144.5880 C   0  0  0  0  0  2  0  0  0  0  0  0
  185.8610  179.1610  144.3990 C   0  0  0  0  0  2  0  0  0  0  0  0
  187.2050  177.0330  144.8320 C   0  0  1  0  0  3  0  0  0  0  0  0
  188.3490  177.6760  145.6210 C   0  0  0  0  0  2  0  0  0  0  0  0
  186.7250  178.4990  147.3320 C   0  0  0  0  0  2  0  0  0  0  0  0
  189.0550  178.2600  147.8300 O   0  0  0  0  0  1  0  0  0  0  0  0
  188.0030  177.6960  147.1070 C   0  0  2  0  0  3  0  0  0  0  0  0
  185.5650  177.8700  146.5540 C   0  0  0  0  0  2  0  0  0  0  0  0
  185.8790  177.7810  145.0550 C   0  0  1  0  0  3  0  0  0  0  0  0
  187.5500  176.9210  143.3520 C   0  0  0  0  0  2  0  0  0  0  0  0
  188.7170  177.6310  143.0800 O   0  0  0  0  0  0  0  0  0  0  0  0
  189.4310  176.8040  142.2140 C   0  0  0  0  0  1  0  0  0  0  0  0
  1  2  2  0  0  0  0
  2 31  1  0  0  0  0
  3  8  1  0  0  0  0
  3  2  1  0  0  0  0
  4  5  1  0  0  0  0
  6 10  1  0  0  0  0
  7  8  1  0  0  0  0
  7 10  2  0  0  0  0
  8  4  2  0  0  0  0
  9  5  2  0  0  0  0
 10  9  1  0  0  0  0
 11  3  1  0  0  0  0
 12 14  1  0  0  0  0
 12 13  1  0  0  0  0
 13 17  1  0  0  0  0
 14 19  1  1  0  0  0
 14 16  1  0  0  0  0
 15 11  1  1  0  0  0
 16 15  1  0  0  0  0
 17 15  1  0  0  0  0
 18 22  1  0  0  0  0
 19 18  2  0  0  0  0
 19 23  1  0  0  0  0
 21 20  1  0  0  0  0
 22 20  2  0  0  0  0
 22 24  1  0  0  0  0
 23 21  2  0  0  0  0
 25 26  1  0  0  0  0
 25 24  1  0  0  0  0
 27 25  1  0  0  0  0
 28 27  1  0  0  0  0
 29 28  1  0  0  0  0
 29 30  1  0  0  0  0
 30 26  1  0  0  0  0
 31 32  1  0  0  0  0
 32 35  1  1  0  0  0
 32 34  1  0  0  0  0
 33 34  1  0  0  0  0
 36 43  1  6  0  0  0
 36 42  1  0  0  0  0
 36 37  1  0  0  0  0
 37 40  1  0  0  0  0
 40 38  1  0  0  0  0
 40 39  1  1  0  0  0
 41 38  1  0  0  0  0
 42 35  1  1  0  0  0
 42 41  1  0  0  0  0
 44 43  1  0  0  0  0
 45 44  1  0  0  0  0
M  END
>  <MODEL>
6

>  <REMARK>
 VINA RESULT:      -7.8      2.856      5.333
  Name = 
  13 active torsions:
  status: ('A' for Active; 'I' for Inactive)
    1  A    between atoms: C_2  and  C_17
    2  A    between atoms: C_3  and  C_36
    3  A    between atoms: C_4  and  C_18
    4  A    between atoms: C_4  and  N_23
    5  A    between atoms: C_10  and  C_14
    6  A    between atoms: C_10  and  C_15
    7  A    between atoms: C_11  and  O_42
    8  A    between atoms: C_16  and  C_35
    9  A    between atoms: C_16  and  C_43
   10  A    between atoms: N_23  and  C_33
   11  A    between atoms: O_25  and  C_36
   12  A    between atoms: C_35  and  C_41
   13  A    between atoms: C_35  and  O_42
                            x       y       z     vdW  Elec       q    Type
                         _______ _______ _______ _____ _____    ______ ____

>  <TORSDO>
F 13

$$$$
=
 OpenBabel11062414243D

 45 49  0  0  1  0  0  0  0  0999 V2000
  186.9560  178.5090  140.2300 O   0  0  0  0  0  0  0  0  0  0  0  0
  188.0930  177.9980  140.4340 C   0  0  0  0  0  0  0  0  0  0  0  0
  189.1190  178.1110  139.4270 N   0  0  0  0  0  0  0  0  0  0  0  0
  191.1140  177.8790  140.8880 C   0  0  0  0  0  3  0  0  0  0  0  0
  192.4450  177.5010  141.0780 C   0  0  0  0  0  3  0  0  0  0  0  0
  193.2430  176.1570  137.7770 F   0  0  0  0  0  0  0  0  0  0  0  0
  191.2150  177.0930  138.6060 C   0  0  0  0  0  3  0  0  0  0  0  0
  190.4780  177.6740  139.6520 C   0  0  0  0  0  0  0  0  0  0  0  0
  193.1620  176.9200  140.0320 C   0  0  0  0  0  3  0  0  0  0  0  0
  192.5460  176.7120  138.7960 C   0  0  0  0  0  0  0  0  0  0  0  0
  188.7900  178.7750  138.1640 C   0  0  0  0  0  2  0  0  0  0  0  0
  186.6610  176.4540  135.3250 N   0  0  0  0  0  2  0  0  0  0  0  0
  187.9640  176.9560  134.8850 C   0  0  0  0  0  2  0  0  0  0  0  0
  185.8670  177.5320  135.9530 C   0  0  2  0  0  3  0  0  0  0  0  0
  187.9850  177.8400  137.2700 C   0  0  1  0  0  3  0  0  0  0  0  0
  186.7200  178.5250  136.7620 C   0  0  0  0  0  2  0  0  0  0  0  0
  188.8320  177.3610  136.0900 C   0  0  0  0  0  2  0  0  0  0  0  0
  184.2420  175.6950  136.5970 C   0  0  0  0  0  3  0  0  0  0  0  0
  184.7900  176.9660  136.8360 C   0  0  0  0  0  0  0  0  0  0  0  0
  182.9100  175.9020  138.5670 N   0  0  0  0  0  0  0  0  0  0  0  0
  183.4330  177.1340  138.8270 C   0  0  0  0  0  3  0  0  0  0  0  0
  183.2860  175.1810  137.4760 C   0  0  0  0  0  0  0  0  0  0  0  0
  184.3800  177.6880  137.9670 C   0  0  0  0  0  3  0  0  0  0  0  0
  182.6830  173.8350  137.2200 C   0  0  0  0  0  2  0  0  0  0  0  0
  183.6060  172.9060  136.4280 C   0  0  0  0  0  3  0  0  0  0  0  0
  184.9510  172.6900  137.1280 C   0  0  0  0  0  2  0  0  0  0  0  0
  182.9120  171.5790  136.0630 C   0  0  0  0  0  2  0  0  0  0  0  0
  183.8900  170.4080  135.8920 C   0  0  0  0  0  2  0  0  0  0  0  0
  185.2170  170.8840  135.3090 C   0  0  0  0  0  2  0  0  0  0  0  0
  185.9160  171.8640  136.2550 C   0  0  0  0  0  2  0  0  0  0  0  0
  188.3490  177.3130  141.6310 O   0  0  0  0  0  0  0  0  0  0  0  0
  187.8860  177.7320  142.9190 C   0  0  1  0  0  3  0  0  0  0  0  0
  185.6660  178.8300  143.2120 C   0  0  0  0  0  1  0  0  0  0  0  0
  186.3900  177.5030  143.0790 C   0  0  0  0  0  2  0  0  0  0  0  0
  188.6520  177.0450  144.0400 C   0  0  0  0  0  2  0  0  0  0  0  0
  189.0340  177.7470  146.4650 C   0  0  1  0  0  3  0  0  0  0  0  0
  189.8390  176.5200  146.9040 C   0  0  0  0  0  2  0  0  0  0  0  0
  191.5690  177.0190  145.1720 C   0  0  0  0  0  2  0  0  0  0  0  0
  192.0620  175.6560  147.0780 O   0  0  0  0  0  1  0  0  0  0  0  0
  191.3240  176.7640  146.6560 C   0  0  2  0  0  3  0  0  0  0  0  0
  190.7750  178.2450  144.7110 C   0  0  0  0  0  2  0  0  0  0  0  0
  189.2740  178.0750  144.9820 C   0  0  1  0  0  3  0  0  0  0  0  0
  187.5520  177.5730  146.7740 C   0  0  0  0  0  2  0  0  0  0  0  0
  186.8550  178.7300  146.4350 O   0  0  0  0  0  0  0  0  0  0  0  0
  185.5820  178.5370  146.9680 C   0  0  0  0  0  1  0  0  0  0  0  0
  1  2  2  0  0  0  0
  2 31  1  0  0  0  0
  3  8  1  0  0  0  0
  3  2  1  0  0  0  0
  4  5  1  0  0  0  0
  6 10  1  0  0  0  0
  7 10  2  0  0  0  0
  7  8  1  0  0  0  0
  8  4  2  0  0  0  0
  9  5  2  0  0  0  0
 10  9  1  0  0  0  0
 11  3  1  0  0  0  0
 12 14  1  0  0  0  0
 13 12  1  0  0  0  0
 13 17  1  0  0  0  0
 14 16  1  0  0  0  0
 14 19  1  1  0  0  0
 15 11  1  6  0  0  0
 16 15  1  0  0  0  0
 17 15  1  0  0  0  0
 18 19  2  0  0  0  0
 18 22  1  0  0  0  0
 19 23  1  0  0  0  0
 20 21  1  0  0  0  0
 22 20  2  0  0  0  0
 23 21  2  0  0  0  0
 24 22  1  0  0  0  0
 25 26  1  0  0  0  0
 25 24  1  0  0  0  0
 27 25  1  0  0  0  0
 28 27  1  0  0  0  0
 29 28  1  0  0  0  0
 29 30  1  0  0  0  0
 30 26  1  0  0  0  0
 31 32  1  0  0  0  0
 32 34  1  1  0  0  0
 32 35  1  0  0  0  0
 34 33  1  0  0  0  0
 36 43  1  6  0  0  0
 36 37  1  0  0  0  0
 38 40  1  0  0  0  0
 40 37  1  0  0  0  0
 40 39  1  6  0  0  0
 41 42  1  0  0  0  0
 41 38  1  0  0  0  0
 42 35  1  6  0  0  0
 42 36  1  0  0  0  0
 44 43  1  0  0  0  0
 44 45  1  0  0  0  0
M  END
>  <MODEL>
7

>  <REMARK>
 VINA RESULT:      -7.7      2.438      4.823
  Name = 
  13 active torsions:
  status: ('A' for Active; 'I' for Inactive)
    1  A    between atoms: C_2  and  C_17
    2  A    between atoms: C_3  and  C_36
    3  A    between atoms: C_4  and  C_18
    4  A    between atoms: C_4  and  N_23
    5  A    between atoms: C_10  and  C_14
    6  A    between atoms: C_10  and  C_15
    7  A    between atoms: C_11  and  O_42
    8  A    between atoms: C_16  and  C_35
    9  A    between atoms: C_16  and  C_43
   10  A    between atoms: N_23  and  C_33
   11  A    between atoms: O_25  and  C_36
   12  A    between atoms: C_35  and  C_41
   13  A    between atoms: C_35  and  O_42
                            x       y       z     vdW  Elec       q    Type
                         _______ _______ _______ _____ _____    ______ ____

>  <TORSDO>
F 13

$$$$
=
 OpenBabel11062414243D

 45 49  0  0  1  0  0  0  0  0999 V2000
  186.7320  178.6350  140.2560 O   0  0  0  0  0  0  0  0  0  0  0  0
  187.9010  178.1560  140.2570 C   0  0  0  0  0  0  0  0  0  0  0  0
  188.5790  177.9210  139.0060 N   0  0  0  0  0  0  0  0  0  0  0  0
  190.5080  176.9820  137.7560 C   0  0  0  0  0  3  0  0  0  0  0  0
  191.8320  176.5400  137.7160 C   0  0  0  0  0  3  0  0  0  0  0  0
  192.8660  177.1890  141.1580 F   0  0  0  0  0  0  0  0  0  0  0  0
  190.7740  177.5700  140.0850 C   0  0  0  0  0  3  0  0  0  0  0  0
  189.9630  177.5110  138.9380 C   0  0  0  0  0  0  0  0  0  0  0  0
  192.6280  176.6100  138.8610 C   0  0  0  0  0  3  0  0  0  0  0  0
  192.0990  177.1290  140.0450 C   0  0  0  0  0  0  0  0  0  0  0  0
  187.8620  178.1970  137.7590 C   0  0  0  0  0  2  0  0  0  0  0  0
  184.6880  175.5040  136.9480 N   0  0  0  0  0  2  0  0  0  0  0  0
  186.0130  175.0790  136.4930 C   0  0  0  0  0  2  0  0  0  0  0  0
  184.4200  176.9030  136.5530 C   0  0  2  0  0  3  0  0  0  0  0  0
  186.6660  177.2630  137.6210 C   0  0  1  0  0  3  0  0  0  0  0  0
  185.6690  177.8000  136.5990 C   0  0  0  0  0  2  0  0  0  0  0  0
  187.1220  175.8590  137.2220 C   0  0  0  0  0  2  0  0  0  0  0  0
  182.3030  178.2690  136.8420 C   0  0  0  0  0  3  0  0  0  0  0  0
  183.3400  177.5090  137.4070 C   0  0  0  0  0  0  0  0  0  0  0  0
  181.2950  178.4880  138.9950 N   0  0  0  0  0  0  0  0  0  0  0  0
  182.2860  177.7450  139.5660 C   0  0  0  0  0  3  0  0  0  0  0  0
  181.2870  178.7640  137.6620 C   0  0  0  0  0  0  0  0  0  0  0  0
  183.3250  177.2440  138.7840 C   0  0  0  0  0  3  0  0  0  0  0  0
  180.1860  179.5900  137.0730 C   0  0  0  0  0  2  0  0  0  0  0  0
  180.6530  180.9780  136.6280 C   0  0  0  0  0  3  0  0  0  0  0  0
  179.6390  181.6660  135.7100 C   0  0  0  0  0  2  0  0  0  0  0  0
  181.0580  181.8600  137.8260 C   0  0  0  0  0  2  0  0  0  0  0  0
  180.8910  183.3630  137.5570 C   0  0  0  0  0  2  0  0  0  0  0  0
  181.1820  183.6940  136.0970 C   0  0  0  0  0  2  0  0  0  0  0  0
  180.1840  183.0000  135.1650 C   0  0  0  0  0  2  0  0  0  0  0  0
  188.5300  177.8450  141.4720 O   0  0  0  0  0  0  0  0  0  0  0  0
  187.9190  177.9850  142.7580 C   0  0  1  0  0  3  0  0  0  0  0  0
  185.6770  178.3040  143.8000 C   0  0  0  0  0  1  0  0  0  0  0  0
  186.4590  177.5580  142.7360 C   0  0  0  0  0  2  0  0  0  0  0  0
  188.6820  177.2120  143.8260 C   0  0  0  0  0  2  0  0  0  0  0  0
  189.2510  177.7150  146.2640 C   0  0  1  0  0  3  0  0  0  0  0  0
  190.0980  176.4680  146.5330 C   0  0  0  0  0  2  0  0  0  0  0  0
  191.6800  177.1330  144.7180 C   0  0  0  0  0  2  0  0  0  0  0  0
  192.3340  175.6230  146.4580 O   0  0  0  0  0  1  0  0  0  0  0  0
  191.5560  176.7520  146.1900 C   0  0  2  0  0  3  0  0  0  0  0  0
  190.8430  178.3820  144.4260 C   0  0  0  0  0  2  0  0  0  0  0  0
  189.3690  178.1690  144.8000 C   0  0  1  0  0  3  0  0  0  0  0  0
  187.8000  177.4960  146.6740 C   0  0  0  0  0  2  0  0  0  0  0  0
  187.4400  178.4080  147.6620 O   0  0  0  0  0  0  0  0  0  0  0  0
  188.0600  177.9330  148.8160 C   0  0  0  0  0  1  0  0  0  0  0  0
  1  2  2  0  0  0  0
  2 31  1  0  0  0  0
  3  2  1  0  0  0  0
  4  8  1  0  0  0  0
  5  4  2  0  0  0  0
  5  9  1  0  0  0  0
  8  3  1  0  0  0  0
  8  7  2  0  0  0  0
  9 10  2  0  0  0  0
 10  7  1  0  0  0  0
 10  6  1  0  0  0  0
 11  3  1  0  0  0  0
 13 12  1  0  0  0  0
 13 17  1  0  0  0  0
 14 16  1  0  0  0  0
 14 12  1  0  0  0  0
 14 19  1  1  0  0  0
 15 11  1  6  0  0  0
 16 15  1  0  0  0  0
 17 15  1  0  0  0  0
 18 19  2  0  0  0  0
 18 22  1  0  0  0  0
 19 23  1  0  0  0  0
 20 21  1  0  0  0  0
 22 20  2  0  0  0  0
 23 21  2  0  0  0  0
 24 22  1  0  0  0  0
 25 24  1  0  0  0  0
 25 27  1  0  0  0  0
 26 25  1  0  0  0  0
 28 27  1  0  0  0  0
 29 28  1  0  0  0  0
 30 26  1  0  0  0  0
 30 29  1  0  0  0  0
 31 32  1  0  0  0  0
 32 34  1  6  0  0  0
 32 35  1  0  0  0  0
 34 33  1  0  0  0  0
 36 37  1  0  0  0  0
 36 43  1  6  0  0  0
 38 40  1  0  0  0  0
 40 39  1  6  0  0  0
 40 37  1  0  0  0  0
 41 38  1  0  0  0  0
 41 42  1  0  0  0  0
 42 35  1  6  0  0  0
 42 36  1  0  0  0  0
 43 44  1  0  0  0  0
 44 45  1  0  0  0  0
M  END
>  <MODEL>
8

>  <REMARK>
 VINA RESULT:      -7.6      3.128      5.061
  Name = 
  13 active torsions:
  status: ('A' for Active; 'I' for Inactive)
    1  A    between atoms: C_2  and  C_17
    2  A    between atoms: C_3  and  C_36
    3  A    between atoms: C_4  and  C_18
    4  A    between atoms: C_4  and  N_23
    5  A    between atoms: C_10  and  C_14
    6  A    between atoms: C_10  and  C_15
    7  A    between atoms: C_11  and  O_42
    8  A    between atoms: C_16  and  C_35
    9  A    between atoms: C_16  and  C_43
   10  A    between atoms: N_23  and  C_33
   11  A    between atoms: O_25  and  C_36
   12  A    between atoms: C_35  and  C_41
   13  A    between atoms: C_35  and  O_42
                            x       y       z     vdW  Elec       q    Type
                         _______ _______ _______ _____ _____    ______ ____

>  <TORSDO>
F 13

$$$$
=
 OpenBabel11062414243D

 45 49  0  0  1  0  0  0  0  0999 V2000
  187.2080  178.6260  139.0620 O   0  0  0  0  0  0  0  0  0  0  0  0
  188.2710  177.9450  139.0240 C   0  0  0  0  0  0  0  0  0  0  0  0
  188.5260  177.0790  137.8990 N   0  0  0  0  0  0  0  0  0  0  0  0
  189.8260  174.9850  137.5960 C   0  0  0  0  0  3  0  0  0  0  0  0
  191.0470  174.3180  137.4790 C   0  0  0  0  0  3  0  0  0  0  0  0
  193.3720  177.1290  137.6580 F   0  0  0  0  0  0  0  0  0  0  0  0
  190.9920  177.0960  137.7470 C   0  0  0  0  0  3  0  0  0  0  0  0
  189.7810  176.3840  137.7240 C   0  0  0  0  0  0  0  0  0  0  0  0
  192.2420  175.0390  137.4990 C   0  0  0  0  0  3  0  0  0  0  0  0
  192.2140  176.4290  137.6290 C   0  0  0  0  0  0  0  0  0  0  0  0
  187.5080  176.9740  136.8520 C   0  0  0  0  0  2  0  0  0  0  0  0
  184.2570  174.4180  137.7890 N   0  0  0  0  0  2  0  0  0  0  0  0
  185.3640  173.7950  137.0620 C   0  0  0  0  0  2  0  0  0  0  0  0
  183.8670  175.6970  137.1590 C   0  0  2  0  0  3  0  0  0  0  0  0
  186.3370  176.1290  137.3370 C   0  0  1  0  0  3  0  0  0  0  0  0
  185.0590  176.4800  136.5800 C   0  0  0  0  0  2  0  0  0  0  0  0
  186.6460  174.6400  137.1830 C   0  0  0  0  0  2  0  0  0  0  0  0
  183.3200  177.9620  138.1600 C   0  0  0  0  0  3  0  0  0  0  0  0
  183.1200  176.5720  138.1270 C   0  0  0  0  0  0  0  0  0  0  0  0
  181.6220  178.1640  139.8250 N   0  0  0  0  0  0  0  0  0  0  0  0
  181.4010  176.8180  139.8050 C   0  0  0  0  0  3  0  0  0  0  0  0
  182.5630  178.7460  139.0330 C   0  0  0  0  0  0  0  0  0  0  0  0
  182.1460  175.9990  138.9580 C   0  0  0  0  0  3  0  0  0  0  0  0
  182.7820  180.2260  139.0890 C   0  0  0  0  0  2  0  0  0  0  0  0
  181.6350  181.0240  138.4640 C   0  0  0  0  0  3  0  0  0  0  0  0
  181.1500  180.4100  137.1470 C   0  0  0  0  0  2  0  0  0  0  0  0
  180.4850  181.2580  139.4640 C   0  0  0  0  0  2  0  0  0  0  0  0
  179.1170  181.4280  138.7880 C   0  0  0  0  0  2  0  0  0  0  0  0
  179.2550  182.1320  137.4420 C   0  0  0  0  0  2  0  0  0  0  0  0
  180.0920  181.2980  136.4660 C   0  0  0  0  0  2  0  0  0  0  0  0
  189.1920  178.0240  140.0780 O   0  0  0  0  0  0  0  0  0  0  0  0
  189.2590  177.0970  141.1660 C   0  0  1  0  0  3  0  0  0  0  0  0
  191.7180  177.5040  141.2400 C   0  0  0  0  0  1  0  0  0  0  0  0
  190.6310  176.4460  141.2650 C   0  0  0  0  0  2  0  0  0  0  0  0
  188.8880  177.7570  142.4870 C   0  0  0  0  0  2  0  0  0  0  0  0
  189.3290  177.1240  144.9210 C   0  0  1  0  0  3  0  0  0  0  0  0
  188.5550  178.2750  145.5710 C   0  0  0  0  0  2  0  0  0  0  0  0
  186.4580  177.5170  144.4430 C   0  0  0  0  0  2  0  0  0  0  0  0
  186.4000  178.9000  146.3970 O   0  0  0  0  0  1  0  0  0  0  0  0
  187.1020  177.8610  145.7830 C   0  0  2  0  0  3  0  0  0  0  0  0
  187.2160  176.3640  143.7770 C   0  0  0  0  0  2  0  0  0  0  0  0
  188.6990  176.7080  143.5820 C   0  0  1  0  0  3  0  0  0  0  0  0
  190.8060  177.4710  144.7690 C   0  0  0  0  0  2  0  0  0  0  0  0
  191.5900  176.3620  145.0780 O   0  0  0  0  0  0  0  0  0  0  0  0
  191.6810  176.3780  146.4680 C   0  0  0  0  0  1  0  0  0  0  0  0
  2  1  2  0  0  0  0
  2 31  1  0  0  0  0
  3  2  1  0  0  0  0
  4  8  1  0  0  0  0
  5  9  1  0  0  0  0
  5  4  2  0  0  0  0
  8  7  2  0  0  0  0
  8  3  1  0  0  0  0
  9 10  2  0  0  0  0
 10  6  1  0  0  0  0
 10  7  1  0  0  0  0
 11  3  1  0  0  0  0
 13 17  1  0  0  0  0
 13 12  1  0  0  0  0
 14 12  1  0  0  0  0
 14 19  1  1  0  0  0
 15 11  1  6  0  0  0
 16 14  1  0  0  0  0
 16 15  1  0  0  0  0
 17 15  1  0  0  0  0
 18 22  1  0  0  0  0
 19 18  2  0  0  0  0
 19 23  1  0  0  0  0
 21 20  1  0  0  0  0
 22 24  1  0  0  0  0
 22 20  2  0  0  0  0
 23 21  2  0  0  0  0
 25 24  1  0  0  0  0
 25 27  1  0  0  0  0
 26 25  1  0  0  0  0
 28 27  1  0  0  0  0
 29 28  1  0  0  0  0
 30 26  1  0  0  0  0
 30 29  1  0  0  0  0
 31 32  1  0  0  0  0
 32 34  1  1  0  0  0
 32 35  1  0  0  0  0
 33 34  1  0  0  0  0
 36 43  1  6  0  0  0
 36 37  1  0  0  0  0
 37 40  1  0  0  0  0
 38 40  1  0  0  0  0
 40 39  1  6  0  0  0
 41 38  1  0  0  0  0
 42 35  1  6  0  0  0
 42 41  1  0  0  0  0
 42 36  1  0  0  0  0
 43 44  1  0  0  0  0
 44 45  1  0  0  0  0
M  END
>  <MODEL>
9

>  <REMARK>
 VINA RESULT:      -7.6      2.794      4.566
  Name = 
  13 active torsions:
  status: ('A' for Active; 'I' for Inactive)
    1  A    between atoms: C_2  and  C_17
    2  A    between atoms: C_3  and  C_36
    3  A    between atoms: C_4  and  C_18
    4  A    between atoms: C_4  and  N_23
    5  A    between atoms: C_10  and  C_14
    6  A    between atoms: C_10  and  C_15
    7  A    between atoms: C_11  and  O_42
    8  A    between atoms: C_16  and  C_35
    9  A    between atoms: C_16  and  C_43
   10  A    between atoms: N_23  and  C_33
   11  A    between atoms: O_25  and  C_36
   12  A    between atoms: C_35  and  C_41
   13  A    between atoms: C_35  and  O_42
                            x       y       z     vdW  Elec       q    Type
                         _______ _______ _______ _____ _____    ______ ____

>  <TORSDO>
F 13

$$$$
