=
 OpenBabel11062417083D

 36 40  0  0  1  0  0  0  0  0999 V2000
  189.0760  177.4980  139.8450 N   0  0  0  0  0  0  0  0  0  0  0  0
  190.7480  176.0610  139.9130 N   0  0  0  0  0  0  0  0  0  0  0  0
  190.3580  176.1740  138.6330 C   0  0  0  0  0  0  0  0  0  0  0  0
  189.3060  177.0720  138.5910 C   0  0  0  0  0  0  0  0  0  0  0  0
  189.9660  176.8750  140.6050 N   0  0  0  0  0  0  0  0  0  0  0  0
  190.0450  177.0170  142.0540 C   0  0  1  0  0  3  0  0  0  0  0  0
  189.1910  178.3170  144.0690 C   0  0  1  0  0  3  0  0  0  0  0  0
  191.4490  177.3280  142.4720 C   0  0  0  0  0  3  0  0  0  0  0  0
  187.7100  177.4240  145.8590 C   0  0  0  0  0  1  0  0  0  0  0  0
  187.7860  177.8270  142.1770 O   0  0  0  0  0  1  0  0  0  0  0  0
  190.2310  177.2590  146.8050 O   0  0  0  0  0  1  0  0  0  0  0  0
  191.7010  177.8780  143.6660 C   0  0  0  0  0  3  0  0  0  0  0  0
  190.6120  178.2220  144.6580 C   0  0  2  0  0  3  0  0  0  0  0  0
  190.2020  176.9830  145.4350 C   0  0  2  0  0  3  0  0  0  0  0  0
  189.1020  178.1170  142.5430 C   0  0  2  0  0  3  0  0  0  0  0  0
  188.7890  177.0700  144.8440 C   0  0  2  0  0  3  0  0  0  0  0  0
  187.4410  179.2490  136.4850 C   0  0  0  0  0  2  0  0  0  0  0  0
  186.6610  178.3700  135.4920 C   0  0  0  0  0  2  0  0  0  0  0  0
  187.3390  175.3950  137.5990 O   0  0  0  0  0  1  0  0  0  0  0  0
  186.4840  176.9340  135.9960 C   0  0  1  0  0  3  0  0  0  0  0  0
  186.1240  176.1050  134.9370 O   0  0  0  0  0  1  0  0  0  0  0  0
  188.5240  177.5110  137.3910 C   0  0  2  0  0  3  0  0  0  0  0  0
  187.6840  178.5900  137.7050 O   0  0  0  0  0  0  0  0  0  0  0  0
  187.7340  176.3830  136.6930 C   0  0  1  0  0  3  0  0  0  0  0  0
  191.5010  173.3290  136.7630 C   0  0  0  0  0  2  0  0  0  0  0  0
  192.4140  175.2820  135.4820 C   0  0  0  0  0  0  0  0  0  0  0  0
  192.0640  176.1390  136.7230 C   0  0  1  0  0  3  0  0  0  0  0  0
  191.3530  175.3340  134.5940 F   0  0  0  0  0  0  0  0  0  0  0  0
  192.6500  173.8210  135.8800 C   0  0  0  0  0  2  0  0  0  0  0  0
  193.5370  175.7600  134.8290 F   0  0  0  0  0  0  0  0  0  0  0  0
  191.4080  174.1170  137.9240 O   0  0  0  0  0  0  0  0  0  0  0  0
  190.9620  175.3870  137.5090 C   0  0  1  0  0  3  0  0  0  0  0  0
  192.9200  177.4080  138.5770 F   0  0  0  0  0  0  0  0  0  0  0  0
  194.2430  177.1610  136.8010 F   0  0  0  0  0  0  0  0  0  0  0  0
  193.2930  176.5250  137.5800 C   0  0  0  0  0  0  0  0  0  0  0  0
  193.8630  175.4050  138.1570 F   0  0  0  0  0  0  0  0  0  0  0  0
  1  5  1  0  0  0  0
  2  5  1  0  0  0  0
  3  2  2  0  0  0  0
  4  3  1  0  0  0  0
  4  1  2  0  0  0  0
  6  5  1  6  0  0  0
  6  8  1  0  0  0  0
  6 15  1  0  0  0  0
  7 13  1  0  0  0  0
  7 16  1  0  0  0  0
  8 12  2  0  0  0  0
 10 15  1  0  0  0  0
 12 13  1  0  0  0  0
 13 14  1  0  0  0  0
 14 11  1  0  0  0  0
 15  7  1  0  0  0  0
 16 14  1  0  0  0  0
 16  9  1  0  0  0  0
 17 23  1  0  0  0  0
 18 20  1  0  0  0  0
 18 17  1  0  0  0  0
 20 24  1  0  0  0  0
 21 20  1  0  0  0  0
 22 23  1  0  0  0  0
 22  4  1  0  0  0  0
 24 22  1  0  0  0  0
 24 19  1  0  0  0  0
 25 31  1  0  0  0  0
 26 29  1  0  0  0  0
 26 27  1  0  0  0  0
 27 32  1  0  0  0  0
 27 35  1  0  0  0  0
 28 26  1  0  0  0  0
 29 25  1  0  0  0  0
 30 26  1  0  0  0  0
 32 31  1  0  0  0  0
 32  3  1  0  0  0  0
 34 35  1  0  0  0  0
 35 36  1  0  0  0  0
 35 33  1  0  0  0  0
M  END
>  <MODEL>
1

>  <REMARK>
 VINA RESULT:      -8.4      0.000      0.000
  Name = 
  4 active torsions:
  status: ('A' for Active; 'I' for Inactive)
    1  A    between atoms: C_1  and  N_33
    2  A    between atoms: C_15  and  C_19
    3  A    between atoms: C_23  and  C_34
    4  A    between atoms: C_28  and  C_31
                            x       y       z     vdW  Elec       q    Type
                         _______ _______ _______ _____ _____    ______ ____

>  <TORSDO>
F 4

$$$$
=
 OpenBabel11062417083D

 36 40  0  0  1  0  0  0  0  0999 V2000
  188.4680  178.1850  142.2240 N   0  0  0  0  0  0  0  0  0  0  0  0
  186.3520  178.2260  142.8440 N   0  0  0  0  0  0  0  0  0  0  0  0
  186.3860  178.2930  141.5020 C   0  0  0  0  0  0  0  0  0  0  0  0
  187.7130  178.2720  141.1140 C   0  0  0  0  0  0  0  0  0  0  0  0
  187.6130  178.1520  143.2370 N   0  0  0  0  0  0  0  0  0  0  0  0
  188.0110  178.1000  144.6390 C   0  0  1  0  0  3  0  0  0  0  0  0
  189.0090  176.6390  146.4680 C   0  0  1  0  0  3  0  0  0  0  0  0
  186.8340  178.3730  145.5250 C   0  0  0  0  0  3  0  0  0  0  0  0
  191.2420  176.9460  147.5230 C   0  0  0  0  0  1  0  0  0  0  0  0
  189.7250  176.4810  144.1750 O   0  0  0  0  0  1  0  0  0  0  0  0
  189.4560  178.1100  149.1750 O   0  0  0  0  0  1  0  0  0  0  0  0
  186.8470  178.0050  146.8110 C   0  0  0  0  0  3  0  0  0  0  0  0
  188.0220  177.2980  147.4510 C   0  0  2  0  0  3  0  0  0  0  0  0
  189.0900  178.3070  147.8400 C   0  0  2  0  0  3  0  0  0  0  0  0
  188.6130  176.7370  144.9820 C   0  0  2  0  0  3  0  0  0  0  0  0
  190.0730  177.6570  146.8560 C   0  0  2  0  0  3  0  0  0  0  0  0
  187.6810  178.4320  137.5610 C   0  0  0  0  0  2  0  0  0  0  0  0
  189.0740  178.0000  137.0690 C   0  0  0  0  0  2  0  0  0  0  0  0
  189.8270  176.6200  140.4280 O   0  0  0  0  0  1  0  0  0  0  0  0
  189.8290  177.1690  138.1110 C   0  0  1  0  0  3  0  0  0  0  0  0
  191.1830  177.1270  137.7880 O   0  0  0  0  0  1  0  0  0  0  0  0
  188.2610  178.3450  139.7220 C   0  0  2  0  0  3  0  0  0  0  0  0
  187.3410  177.8390  138.7920 O   0  0  0  0  0  0  0  0  0  0  0  0
  189.6460  177.6870  139.5420 C   0  0  1  0  0  3  0  0  0  0  0  0
  184.1630  179.6110  139.0070 C   0  0  0  0  0  2  0  0  0  0  0  0
  182.7470  177.9500  140.2420 C   0  0  0  0  0  0  0  0  0  0  0  0
  183.8540  177.9520  141.3240 C   0  0  1  0  0  3  0  0  0  0  0  0
  182.9940  176.9160  139.3560 F   0  0  0  0  0  0  0  0  0  0  0  0
  182.7430  179.2720  139.4660 C   0  0  0  0  0  2  0  0  0  0  0  0
  181.4930  177.7460  140.7920 F   0  0  0  0  0  0  0  0  0  0  0  0
  185.0190  179.7260  140.1170 O   0  0  0  0  0  0  0  0  0  0  0  0
  185.1620  178.4280  140.6470 C   0  0  1  0  0  3  0  0  0  0  0  0
  183.7110  177.9810  143.7240 F   0  0  0  0  0  0  0  0  0  0  0  0
  182.1360  179.0710  142.5860 F   0  0  0  0  0  0  0  0  0  0  0  0
  183.4810  178.7480  142.5970 C   0  0  0  0  0  0  0  0  0  0  0  0
  184.2210  179.9140  142.6830 F   0  0  0  0  0  0  0  0  0  0  0  0
  1  5  1  0  0  0  0
  2  5  1  0  0  0  0
  3  2  2  0  0  0  0
  4  3  1  0  0  0  0
  4  1  2  0  0  0  0
  6  5  1  6  0  0  0
  6 15  1  0  0  0  0
  6  8  1  0  0  0  0
  7 16  1  0  0  0  0
  7 13  1  0  0  0  0
  8 12  2  0  0  0  0
 10 15  1  0  0  0  0
 12 13  1  0  0  0  0
 13 14  1  0  0  0  0
 14 11  1  0  0  0  0
 15  7  1  0  0  0  0
 16  9  1  0  0  0  0
 16 14  1  0  0  0  0
 17 23  1  0  0  0  0
 18 17  1  0  0  0  0
 18 20  1  0  0  0  0
 20 24  1  0  0  0  0
 21 20  1  0  0  0  0
 22  4  1  0  0  0  0
 23 22  1  0  0  0  0
 24 22  1  0  0  0  0
 24 19  1  0  0  0  0
 25 29  1  0  0  0  0
 25 31  1  0  0  0  0
 26 30  1  0  0  0  0
 26 27  1  0  0  0  0
 27 35  1  0  0  0  0
 28 26  1  0  0  0  0
 29 26  1  0  0  0  0
 31 32  1  0  0  0  0
 32 27  1  0  0  0  0
 32  3  1  0  0  0  0
 34 35  1  0  0  0  0
 35 36  1  0  0  0  0
 35 33  1  0  0  0  0
M  END
>  <MODEL>
2

>  <REMARK>
 VINA RESULT:      -8.3      4.911      7.002
  Name = 
  4 active torsions:
  status: ('A' for Active; 'I' for Inactive)
    1  A    between atoms: C_1  and  N_33
    2  A    between atoms: C_15  and  C_19
    3  A    between atoms: C_23  and  C_34
    4  A    between atoms: C_28  and  C_31
                            x       y       z     vdW  Elec       q    Type
                         _______ _______ _______ _____ _____    ______ ____

>  <TORSDO>
F 4

$$$$
=
 OpenBabel11062417083D

 36 40  0  0  1  0  0  0  0  0999 V2000
  185.4760  178.2160  140.4540 N   0  0  0  0  0  0  0  0  0  0  0  0
  186.2370  178.2970  142.5230 N   0  0  0  0  0  0  0  0  0  0  0  0
  187.2970  178.2260  141.6990 C   0  0  0  0  0  0  0  0  0  0  0  0
  186.8190  178.1690  140.4030 C   0  0  0  0  0  0  0  0  0  0  0  0
  185.1690  178.3000  141.7410 N   0  0  0  0  0  0  0  0  0  0  0  0
  183.8050  178.3320  142.2540 C   0  0  1  0  0  3  0  0  0  0  0  0
  181.4910  179.3510  141.9580 C   0  0  1  0  0  3  0  0  0  0  0  0
  183.7960  178.7760  143.6850 C   0  0  0  0  0  3  0  0  0  0  0  0
  179.4530  178.1430  141.1950 C   0  0  0  0  0  1  0  0  0  0  0  0
  182.9160  178.8510  140.0820 O   0  0  0  0  0  1  0  0  0  0  0  0
  179.3350  178.2060  143.8880 O   0  0  0  0  0  1  0  0  0  0  0  0
  182.6780  179.2530  144.2460 C   0  0  0  0  0  3  0  0  0  0  0  0
  181.3720  179.3810  143.4940 C   0  0  2  0  0  3  0  0  0  0  0  0
  180.6550  178.0410  143.4600 C   0  0  2  0  0  3  0  0  0  0  0  0
  182.9320  179.2670  141.4160 C   0  0  2  0  0  3  0  0  0  0  0  0
  180.7790  178.0050  141.9300 C   0  0  2  0  0  3  0  0  0  0  0  0
  189.6070  178.5100  138.2210 C   0  0  0  0  0  2  0  0  0  0  0  0
  189.0800  178.3890  136.7800 C   0  0  0  0  0  2  0  0  0  0  0  0
  185.6160  178.8750  138.0100 O   0  0  0  0  0  1  0  0  0  0  0  0
  187.5810  178.6870  136.6790 C   0  0  1  0  0  3  0  0  0  0  0  0
  187.0860  178.2070  135.4690 O   0  0  0  0  0  1  0  0  0  0  0  0
  187.6140  178.0620  139.1380 C   0  0  2  0  0  3  0  0  0  0  0  0
  188.6370  179.0210  139.1030 O   0  0  0  0  0  0  0  0  0  0  0  0
  186.7720  178.1060  137.8450 C   0  0  1  0  0  3  0  0  0  0  0  0
  190.7980  177.4250  141.7200 C   0  0  0  0  0  2  0  0  0  0  0  0
  190.3770  178.2920  144.0360 C   0  0  0  0  0  0  0  0  0  0  0  0
  188.8700  178.1350  143.7180 C   0  0  1  0  0  3  0  0  0  0  0  0
  190.7610  179.5880  143.7380 F   0  0  0  0  0  0  0  0  0  0  0  0
  191.2130  177.3250  143.1900 C   0  0  0  0  0  2  0  0  0  0  0  0
  190.6440  178.0680  145.3750 F   0  0  0  0  0  0  0  0  0  0  0  0
  189.4350  177.1080  141.5770 O   0  0  0  0  0  0  0  0  0  0  0  0
  188.7160  178.1600  142.1780 C   0  0  1  0  0  3  0  0  0  0  0  0
  186.9840  177.2540  144.9220 F   0  0  0  0  0  0  0  0  0  0  0  0
  188.9990  176.4580  145.4420 F   0  0  0  0  0  0  0  0  0  0  0  0
  188.2140  176.9080  144.3950 C   0  0  0  0  0  0  0  0  0  0  0  0
  188.0450  175.8770  143.4870 F   0  0  0  0  0  0  0  0  0  0  0  0
  1  5  1  0  0  0  0
  3 32  1  0  0  0  0
  3  2  2  0  0  0  0
  4  1  2  0  0  0  0
  4  3  1  0  0  0  0
  5  2  1  0  0  0  0
  6  5  1  6  0  0  0
  6  8  1  0  0  0  0
  7 13  1  0  0  0  0
  8 12  2  0  0  0  0
  9 16  1  0  0  0  0
 10 15  1  0  0  0  0
 13 12  1  0  0  0  0
 14 13  1  0  0  0  0
 14 11  1  0  0  0  0
 15  7  1  0  0  0  0
 15  6  1  0  0  0  0
 16  7  1  0  0  0  0
 16 14  1  0  0  0  0
 17 23  1  0  0  0  0
 18 17  1  0  0  0  0
 20 18  1  0  0  0  0
 20 24  1  0  0  0  0
 21 20  1  0  0  0  0
 22  4  1  0  0  0  0
 23 22  1  0  0  0  0
 24 19  1  0  0  0  0
 24 22  1  0  0  0  0
 25 29  1  0  0  0  0
 26 30  1  0  0  0  0
 27 26  1  0  0  0  0
 27 35  1  0  0  0  0
 28 26  1  0  0  0  0
 29 26  1  0  0  0  0
 31 25  1  0  0  0  0
 31 32  1  0  0  0  0
 32 27  1  0  0  0  0
 35 33  1  0  0  0  0
 35 34  1  0  0  0  0
 36 35  1  0  0  0  0
M  END
>  <MODEL>
3

>  <REMARK>
 VINA RESULT:      -8.1      5.004      7.105
  Name = 
  4 active torsions:
  status: ('A' for Active; 'I' for Inactive)
    1  A    between atoms: C_1  and  N_33
    2  A    between atoms: C_15  and  C_19
    3  A    between atoms: C_23  and  C_34
    4  A    between atoms: C_28  and  C_31
                            x       y       z     vdW  Elec       q    Type
                         _______ _______ _______ _____ _____    ______ ____

>  <TORSDO>
F 4

$$$$
=
 OpenBabel11062417083D

 36 40  0  0  1  0  0  0  0  0999 V2000
  187.0520  177.9260  141.8960 N   0  0  0  0  0  0  0  0  0  0  0  0
  188.9300  177.1170  142.7220 N   0  0  0  0  0  0  0  0  0  0  0  0
  188.1430  177.4620  143.7550 C   0  0  0  0  0  0  0  0  0  0  0  0
  186.9680  177.9740  143.2370 C   0  0  0  0  0  0  0  0  0  0  0  0
  188.2390  177.3990  141.6290 N   0  0  0  0  0  0  0  0  0  0  0  0
  188.7610  177.2030  140.2820 C   0  0  1  0  0  3  0  0  0  0  0  0
  190.8720  176.9660  138.8800 C   0  0  1  0  0  3  0  0  0  0  0  0
  188.3110  178.3130  139.3810 C   0  0  0  0  0  3  0  0  0  0  0  0
  191.6350  174.8940  137.7320 C   0  0  0  0  0  1  0  0  0  0  0  0
  190.7190  176.0900  141.1170 O   0  0  0  0  0  1  0  0  0  0  0  0
  190.3470  176.3620  135.8730 O   0  0  0  0  0  1  0  0  0  0  0  0
  188.9560  178.5700  138.2380 C   0  0  0  0  0  3  0  0  0  0  0  0
  190.1630  177.7800  137.7800 C   0  0  2  0  0  3  0  0  0  0  0  0
  189.7200  176.4870  137.1160 C   0  0  2  0  0  3  0  0  0  0  0  0
  190.2880  177.1350  140.2970 C   0  0  2  0  0  3  0  0  0  0  0  0
  190.4190  175.6740  138.2140 C   0  0  2  0  0  3  0  0  0  0  0  0
  184.7780  178.5020  145.9890 C   0  0  0  0  0  2  0  0  0  0  0  0
  183.4390  179.0050  145.4210 C   0  0  0  0  0  2  0  0  0  0  0  0
  184.4760  177.9210  142.0300 O   0  0  0  0  0  1  0  0  0  0  0  0
  183.2570  178.6390  143.9450 C   0  0  1  0  0  3  0  0  0  0  0  0
  182.2450  179.4170  143.3890 O   0  0  0  0  0  1  0  0  0  0  0  0
  185.7900  178.5100  143.9920 C   0  0  2  0  0  3  0  0  0  0  0  0
  185.4710  177.6820  145.0790 O   0  0  0  0  0  0  0  0  0  0  0  0
  184.5440  178.7870  143.1250 C   0  0  1  0  0  3  0  0  0  0  0  0
  188.2250  178.0930  147.2900 C   0  0  0  0  0  2  0  0  0  0  0  0
  190.2380  176.6480  146.9020 C   0  0  0  0  0  0  0  0  0  0  0  0
  190.0410  176.9420  145.3950 C   0  0  1  0  0  3  0  0  0  0  0  0
  189.5860  175.4670  147.2120 F   0  0  0  0  0  0  0  0  0  0  0  0
  189.6470  177.7750  147.7570 C   0  0  0  0  0  2  0  0  0  0  0  0
  191.5750  176.4910  147.2230 F   0  0  0  0  0  0  0  0  0  0  0  0
  188.2320  178.4890  145.9410 O   0  0  0  0  0  0  0  0  0  0  0  0
  188.5590  177.3420  145.1910 C   0  0  1  0  0  3  0  0  0  0  0  0
  191.5710  177.5040  143.6270 F   0  0  0  0  0  0  0  0  0  0  0  0
  192.1110  178.1350  145.6940 F   0  0  0  0  0  0  0  0  0  0  0  0
  191.0510  177.9650  144.8220 C   0  0  0  0  0  0  0  0  0  0  0  0
  190.4440  179.1910  144.6090 F   0  0  0  0  0  0  0  0  0  0  0  0
  1  4  2  0  0  0  0
  2  3  2  0  0  0  0
  3 32  1  0  0  0  0
  4  3  1  0  0  0  0
  4 22  1  0  0  0  0
  5  1  1  0  0  0  0
  5  2  1  0  0  0  0
  6  8  1  6  0  0  0
  6 15  1  0  0  0  0
  6  5  1  0  0  0  0
  7 15  1  0  0  0  0
  9 16  1  0  0  0  0
 11 14  1  0  0  0  0
 12  8  2  0  0  0  0
 13 12  1  0  0  0  0
 13  7  1  0  0  0  0
 14 13  1  0  0  0  0
 14 16  1  0  0  0  0
 15 10  1  0  0  0  0
 16  7  1  0  0  0  0
 18 17  1  0  0  0  0
 19 24  1  0  0  0  0
 20 18  1  0  0  0  0
 21 20  1  0  0  0  0
 22 23  1  0  0  0  0
 23 17  1  0  0  0  0
 24 20  1  0  0  0  0
 24 22  1  0  0  0  0
 25 29  1  0  0  0  0
 26 28  1  0  0  0  0
 26 30  1  0  0  0  0
 26 29  1  0  0  0  0
 27 26  1  0  0  0  0
 31 25  1  0  0  0  0
 32 27  1  0  0  0  0
 32 31  1  0  0  0  0
 33 35  1  0  0  0  0
 35 27  1  0  0  0  0
 35 34  1  0  0  0  0
 36 35  1  0  0  0  0
M  END
>  <MODEL>
4

>  <REMARK>
 VINA RESULT:      -8.1      3.796      8.178
  Name = 
  4 active torsions:
  status: ('A' for Active; 'I' for Inactive)
    1  A    between atoms: C_1  and  N_33
    2  A    between atoms: C_15  and  C_19
    3  A    between atoms: C_23  and  C_34
    4  A    between atoms: C_28  and  C_31
                            x       y       z     vdW  Elec       q    Type
                         _______ _______ _______ _____ _____    ______ ____

>  <TORSDO>
F 4

$$$$
=
 OpenBabel11062417083D

 36 40  0  0  1  0  0  0  0  0999 V2000
  191.3480  176.1590  139.7730 N   0  0  0  0  0  0  0  0  0  0  0  0
  189.1730  176.5120  139.6630 N   0  0  0  0  0  0  0  0  0  0  0  0
  189.5970  176.1820  138.4310 C   0  0  0  0  0  0  0  0  0  0  0  0
  190.9620  175.9660  138.4990 C   0  0  0  0  0  0  0  0  0  0  0  0
  190.2460  176.4760  140.4380 N   0  0  0  0  0  0  0  0  0  0  0  0
  190.2160  176.8100  141.8570 C   0  0  1  0  0  3  0  0  0  0  0  0
  189.1840  178.3320  143.6170 C   0  0  1  0  0  3  0  0  0  0  0  0
  191.5780  177.2260  142.3240 C   0  0  0  0  0  3  0  0  0  0  0  0
  187.6040  177.6270  145.4080 C   0  0  0  0  0  1  0  0  0  0  0  0
  187.9320  177.5440  141.7180 O   0  0  0  0  0  1  0  0  0  0  0  0
  190.0540  177.6810  146.5340 O   0  0  0  0  0  1  0  0  0  0  0  0
  191.7280  177.9370  143.4470 C   0  0  0  0  0  3  0  0  0  0  0  0
  190.5610  178.3680  144.3080 C   0  0  2  0  0  3  0  0  0  0  0  0
  190.1320  177.2270  145.2150 C   0  0  2  0  0  3  0  0  0  0  0  0
  189.2110  177.9290  142.1300 C   0  0  2  0  0  3  0  0  0  0  0  0
  188.7620  177.1830  144.5230 C   0  0  2  0  0  3  0  0  0  0  0  0
  192.5950  173.8860  136.1210 C   0  0  0  0  0  2  0  0  0  0  0  0
  193.8660  174.6220  135.6630 C   0  0  0  0  0  2  0  0  0  0  0  0
  193.5520  176.9440  138.5380 O   0  0  0  0  0  1  0  0  0  0  0  0
  194.3210  175.6840  136.6700 C   0  0  1  0  0  3  0  0  0  0  0  0
  195.2170  176.5580  136.0590 O   0  0  0  0  0  1  0  0  0  0  0  0
  191.8880  175.5960  137.3810 C   0  0  2  0  0  3  0  0  0  0  0  0
  192.2190  174.2340  137.4330 O   0  0  0  0  0  0  0  0  0  0  0  0
  193.1570  176.4700  137.2840 C   0  0  1  0  0  3  0  0  0  0  0  0
  188.5010  175.4690  135.0860 C   0  0  0  0  0  2  0  0  0  0  0  0
  186.7360  177.0160  135.9680 C   0  0  0  0  0  0  0  0  0  0  0  0
  187.7210  177.3310  137.1200 C   0  0  1  0  0  3  0  0  0  0  0  0
  185.8910  175.9970  136.3730 F   0  0  0  0  0  0  0  0  0  0  0  0
  187.4930  176.5590  134.7160 C   0  0  0  0  0  2  0  0  0  0  0  0
  185.9550  178.1130  135.6480 F   0  0  0  0  0  0  0  0  0  0  0  0
  189.4200  175.9570  136.0320 O   0  0  0  0  0  0  0  0  0  0  0  0
  188.7010  176.1380  137.2300 C   0  0  1  0  0  3  0  0  0  0  0  0
  188.8740  179.1310  138.2200 F   0  0  0  0  0  0  0  0  0  0  0  0
  187.5250  179.6560  136.5270 F   0  0  0  0  0  0  0  0  0  0  0  0
  188.4180  178.7060  136.9860 C   0  0  0  0  0  0  0  0  0  0  0  0
  189.4860  178.6330  136.1090 F   0  0  0  0  0  0  0  0  0  0  0  0
  1  5  1  0  0  0  0
  2  5  1  0  0  0  0
  3  4  1  0  0  0  0
  3  2  2  0  0  0  0
  4  1  2  0  0  0  0
  6  5  1  6  0  0  0
  6 15  1  0  0  0  0
  6  8  1  0  0  0  0
  7 13  1  0  0  0  0
  7 16  1  0  0  0  0
  8 12  2  0  0  0  0
 10 15  1  0  0  0  0
 12 13  1  0  0  0  0
 13 14  1  0  0  0  0
 14 11  1  0  0  0  0
 15  7  1  0  0  0  0
 16 14  1  0  0  0  0
 16  9  1  0  0  0  0
 17 23  1  0  0  0  0
 18 17  1  0  0  0  0
 18 20  1  0  0  0  0
 20 24  1  0  0  0  0
 21 20  1  0  0  0  0
 22 23  1  0  0  0  0
 22  4  1  0  0  0  0
 24 22  1  0  0  0  0
 24 19  1  0  0  0  0
 25 31  1  0  0  0  0
 26 28  1  0  0  0  0
 26 27  1  0  0  0  0
 27 32  1  0  0  0  0
 29 25  1  0  0  0  0
 29 26  1  0  0  0  0
 30 26  1  0  0  0  0
 31 32  1  0  0  0  0
 32  3  1  0  0  0  0
 34 35  1  0  0  0  0
 35 27  1  0  0  0  0
 35 33  1  0  0  0  0
 36 35  1  0  0  0  0
M  END
>  <MODEL>
5

>  <REMARK>
 VINA RESULT:      -7.9      2.417      4.615
  Name = 
  4 active torsions:
  status: ('A' for Active; 'I' for Inactive)
    1  A    between atoms: C_1  and  N_33
    2  A    between atoms: C_15  and  C_19
    3  A    between atoms: C_23  and  C_34
    4  A    between atoms: C_28  and  C_31
                            x       y       z     vdW  Elec       q    Type
                         _______ _______ _______ _____ _____    ______ ____

>  <TORSDO>
F 4

$$$$
=
 OpenBabel11062417083D

 36 40  0  0  1  0  0  0  0  0999 V2000
  186.1490  178.5140  140.7920 N   0  0  0  0  0  0  0  0  0  0  0  0
  183.9840  178.8660  141.0260 N   0  0  0  0  0  0  0  0  0  0  0  0
  184.2390  178.7420  139.7120 C   0  0  0  0  0  0  0  0  0  0  0  0
  185.5970  178.5270  139.5660 C   0  0  0  0  0  0  0  0  0  0  0  0
  185.1480  178.7130  141.6380 N   0  0  0  0  0  0  0  0  0  0  0  0
  185.3080  178.8140  143.0830 C   0  0  1  0  0  3  0  0  0  0  0  0
  185.9130  177.5450  145.2060 C   0  0  1  0  0  3  0  0  0  0  0  0
  184.0200  179.2320  143.7230 C   0  0  0  0  0  3  0  0  0  0  0  0
  187.9580  177.8950  146.5800 C   0  0  0  0  0  1  0  0  0  0  0  0
  186.9830  177.0910  143.0970 O   0  0  0  0  0  1  0  0  0  0  0  0
  185.9930  179.3100  147.7680 O   0  0  0  0  0  1  0  0  0  0  0  0
  183.8030  179.0190  145.0260 C   0  0  0  0  0  3  0  0  0  0  0  0
  184.8170  178.3520  145.9290 C   0  0  2  0  0  3  0  0  0  0  0  0
  185.8610  179.3600  146.3780 C   0  0  2  0  0  3  0  0  0  0  0  0
  185.7710  177.4810  143.6720 C   0  0  2  0  0  3  0  0  0  0  0  0
  186.9540  178.5640  145.6510 C   0  0  2  0  0  3  0  0  0  0  0  0
  186.2400  177.5100  136.2190 C   0  0  0  0  0  2  0  0  0  0  0  0
  187.7670  177.5000  136.0270 C   0  0  0  0  0  2  0  0  0  0  0  0
  188.2250  177.6660  139.7030 O   0  0  0  0  0  1  0  0  0  0  0  0
  188.5220  177.3970  137.3560 C   0  0  1  0  0  3  0  0  0  0  0  0
  189.8520  177.7670  137.1710 O   0  0  0  0  0  1  0  0  0  0  0  0
  186.3640  178.3490  138.2910 C   0  0  2  0  0  3  0  0  0  0  0  0
  185.8680  177.2630  137.5540 O   0  0  0  0  0  0  0  0  0  0  0  0
  187.8930  178.2400  138.4720 C   0  0  1  0  0  3  0  0  0  0  0  0
  181.5540  180.1940  137.8190 C   0  0  0  0  0  2  0  0  0  0  0  0
  181.7150  177.8590  136.9190 C   0  0  0  0  0  0  0  0  0  0  0  0
  182.5980  177.5460  138.1510 C   0  0  1  0  0  3  0  0  0  0  0  0
  182.5380  178.2080  135.8610 F   0  0  0  0  0  0  0  0  0  0  0  0
  180.7690  179.0300  137.2110 C   0  0  0  0  0  2  0  0  0  0  0  0
  180.9690  176.7610  136.5300 F   0  0  0  0  0  0  0  0  0  0  0  0
  182.1770  179.7910  139.0140 O   0  0  0  0  0  0  0  0  0  0  0  0
  183.1930  178.8860  138.6470 C   0  0  1  0  0  3  0  0  0  0  0  0
  182.7800  176.0060  139.9880 F   0  0  0  0  0  0  0  0  0  0  0  0
  180.9830  175.8410  138.6820 F   0  0  0  0  0  0  0  0  0  0  0  0
  181.8690  176.7380  139.2510 C   0  0  0  0  0  0  0  0  0  0  0  0
  181.1710  177.5800  140.0990 F   0  0  0  0  0  0  0  0  0  0  0  0
  1  5  1  0  0  0  0
  2  5  1  0  0  0  0
  3  2  2  0  0  0  0
  4  3  1  0  0  0  0
  4  1  2  0  0  0  0
  6  5  1  6  0  0  0
  6 15  1  0  0  0  0
  6  8  1  0  0  0  0
  7 16  1  0  0  0  0
  7 13  1  0  0  0  0
  8 12  2  0  0  0  0
 10 15  1  0  0  0  0
 12 13  1  0  0  0  0
 13 14  1  0  0  0  0
 14 11  1  0  0  0  0
 15  7  1  0  0  0  0
 16 14  1  0  0  0  0
 16  9  1  0  0  0  0
 17 23  1  0  0  0  0
 18 17  1  0  0  0  0
 18 20  1  0  0  0  0
 20 24  1  0  0  0  0
 21 20  1  0  0  0  0
 22 24  1  0  0  0  0
 22  4  1  0  0  0  0
 23 22  1  0  0  0  0
 24 19  1  0  0  0  0
 25 31  1  0  0  0  0
 26 29  1  0  0  0  0
 26 27  1  0  0  0  0
 27 32  1  0  0  0  0
 27 35  1  0  0  0  0
 28 26  1  0  0  0  0
 29 25  1  0  0  0  0
 30 26  1  0  0  0  0
 32 31  1  0  0  0  0
 32  3  1  0  0  0  0
 34 35  1  0  0  0  0
 35 33  1  0  0  0  0
 35 36  1  0  0  0  0
M  END
>  <MODEL>
6

>  <REMARK>
 VINA RESULT:      -7.8      5.280      7.557
  Name = 
  4 active torsions:
  status: ('A' for Active; 'I' for Inactive)
    1  A    between atoms: C_1  and  N_33
    2  A    between atoms: C_15  and  C_19
    3  A    between atoms: C_23  and  C_34
    4  A    between atoms: C_28  and  C_31
                            x       y       z     vdW  Elec       q    Type
                         _______ _______ _______ _____ _____    ______ ____

>  <TORSDO>
F 4

$$$$
=
 OpenBabel11062417083D

 36 40  0  0  1  0  0  0  0  0999 V2000
  185.4120  178.8450  141.0500 N   0  0  0  0  0  0  0  0  0  0  0  0
  187.2310  177.8780  140.2650 N   0  0  0  0  0  0  0  0  0  0  0  0
  186.4210  178.1320  139.2230 C   0  0  0  0  0  0  0  0  0  0  0  0
  185.2780  178.7340  139.7170 C   0  0  0  0  0  0  0  0  0  0  0  0
  186.5980  178.3280  141.3360 N   0  0  0  0  0  0  0  0  0  0  0  0
  187.1320  178.2080  142.6880 C   0  0  1  0  0  3  0  0  0  0  0  0
  188.4970  176.7510  144.2660 C   0  0  1  0  0  3  0  0  0  0  0  0
  186.0190  178.2190  143.6910 C   0  0  0  0  0  3  0  0  0  0  0  0
  190.7560  177.2920  145.1620 C   0  0  0  0  0  1  0  0  0  0  0  0
  189.0050  176.9140  141.9180 O   0  0  0  0  0  1  0  0  0  0  0  0
  188.9900  178.0170  147.0670 O   0  0  0  0  0  1  0  0  0  0  0  0
  186.2070  177.7400  144.9260 C   0  0  0  0  0  3  0  0  0  0  0  0
  187.5260  177.1620  145.3900 C   0  0  2  0  0  3  0  0  0  0  0  0
  188.4730  178.2790  145.7950 C   0  0  2  0  0  3  0  0  0  0  0  0
  187.9510  176.9260  142.8350 C   0  0  2  0  0  3  0  0  0  0  0  0
  189.4390  177.8780  144.6710 C   0  0  2  0  0  3  0  0  0  0  0  0
  182.6080  180.8620  138.7180 C   0  0  0  0  0  2  0  0  0  0  0  0
  181.5810  179.9910  137.9720 C   0  0  0  0  0  2  0  0  0  0  0  0
  183.2120  176.9370  139.3000 O   0  0  0  0  0  1  0  0  0  0  0  0
  181.7120  178.5050  138.3220 C   0  0  1  0  0  3  0  0  0  0  0  0
  181.0460  177.7380  137.3690 O   0  0  0  0  0  1  0  0  0  0  0  0
  184.0750  179.1850  138.9460 C   0  0  2  0  0  3  0  0  0  0  0  0
  183.3350  180.1280  139.6750 O   0  0  0  0  0  0  0  0  0  0  0  0
  183.1680  178.0410  138.4440 C   0  0  1  0  0  3  0  0  0  0  0  0
  186.4720  176.1840  136.2060 C   0  0  0  0  0  2  0  0  0  0  0  0
  188.1680  177.9820  135.7770 C   0  0  0  0  0  0  0  0  0  0  0  0
  188.1010  178.2760  137.2950 C   0  0  1  0  0  3  0  0  0  0  0  0
  187.2780  178.8170  135.1240 F   0  0  0  0  0  0  0  0  0  0  0  0
  187.7800  176.5270  135.4880 C   0  0  0  0  0  2  0  0  0  0  0  0
  189.4300  178.2230  135.2640 F   0  0  0  0  0  0  0  0  0  0  0  0
  186.6190  176.3590  137.5940 O   0  0  0  0  0  0  0  0  0  0  0  0
  186.7410  177.7460  137.8100 C   0  0  1  0  0  3  0  0  0  0  0  0
  189.6500  178.6280  139.1010 F   0  0  0  0  0  0  0  0  0  0  0  0
  190.4240  177.6410  137.2590 F   0  0  0  0  0  0  0  0  0  0  0  0
  189.3210  177.7470  138.0870 C   0  0  0  0  0  0  0  0  0  0  0  0
  189.0510  176.5050  138.6360 F   0  0  0  0  0  0  0  0  0  0  0  0
  1  5  1  0  0  0  0
  2  5  1  0  0  0  0
  3  4  1  0  0  0  0
  3  2  2  0  0  0  0
  4  1  2  0  0  0  0
  6  5  1  6  0  0  0
  6 15  1  0  0  0  0
  6  8  1  0  0  0  0
  7 16  1  0  0  0  0
  7 13  1  0  0  0  0
  8 12  2  0  0  0  0
 10 15  1  0  0  0  0
 12 13  1  0  0  0  0
 13 14  1  0  0  0  0
 14 11  1  0  0  0  0
 15  7  1  0  0  0  0
 16  9  1  0  0  0  0
 16 14  1  0  0  0  0
 17 23  1  0  0  0  0
 18 20  1  0  0  0  0
 18 17  1  0  0  0  0
 20 24  1  0  0  0  0
 21 20  1  0  0  0  0
 22 23  1  0  0  0  0
 22  4  1  0  0  0  0
 24 22  1  0  0  0  0
 24 19  1  0  0  0  0
 25 31  1  0  0  0  0
 26 27  1  0  0  0  0
 27 32  1  0  0  0  0
 27 35  1  0  0  0  0
 28 26  1  0  0  0  0
 29 26  1  0  0  0  0
 29 25  1  0  0  0  0
 30 26  1  0  0  0  0
 31 32  1  0  0  0  0
 32  3  1  0  0  0  0
 34 35  1  0  0  0  0
 35 36  1  0  0  0  0
 35 33  1  0  0  0  0
M  END
>  <MODEL>
7

>  <REMARK>
 VINA RESULT:      -7.7      3.255      4.445
  Name = 
  4 active torsions:
  status: ('A' for Active; 'I' for Inactive)
    1  A    between atoms: C_1  and  N_33
    2  A    between atoms: C_15  and  C_19
    3  A    between atoms: C_23  and  C_34
    4  A    between atoms: C_28  and  C_31
                            x       y       z     vdW  Elec       q    Type
                         _______ _______ _______ _____ _____    ______ ____

>  <TORSDO>
F 4

$$$$
=
 OpenBabel11062417083D

 36 40  0  0  1  0  0  0  0  0999 V2000
  187.3740  178.0900  139.6570 N   0  0  0  0  0  0  0  0  0  0  0  0
  185.5590  178.7510  140.7210 N   0  0  0  0  0  0  0  0  0  0  0  0
  185.2920  178.7710  139.4040 C   0  0  0  0  0  0  0  0  0  0  0  0
  186.4330  178.3620  138.7370 C   0  0  0  0  0  0  0  0  0  0  0  0
  186.8080  178.3280  140.8320 N   0  0  0  0  0  0  0  0  0  0  0  0
  187.4960  178.2010  142.1110 C   0  0  1  0  0  3  0  0  0  0  0  0
  189.3220  176.9610  143.3790 C   0  0  1  0  0  3  0  0  0  0  0  0
  186.5250  177.8380  143.1920 C   0  0  0  0  0  3  0  0  0  0  0  0
  191.4770  177.9360  144.1550 C   0  0  0  0  0  1  0  0  0  0  0  0
  189.5240  177.4860  141.0380 O   0  0  0  0  0  1  0  0  0  0  0  0
  189.8050  178.0100  146.2700 O   0  0  0  0  0  1  0  0  0  0  0  0
  186.9500  177.2920  144.3380 C   0  0  0  0  0  3  0  0  0  0  0  0
  188.4080  177.0050  144.6200 C   0  0  2  0  0  3  0  0  0  0  0  0
  189.1100  178.2700  145.0860 C   0  0  2  0  0  3  0  0  0  0  0  0
  188.6010  177.1460  142.0300 C   0  0  2  0  0  3  0  0  0  0  0  0
  190.0160  178.2330  143.8480 C   0  0  2  0  0  3  0  0  0  0  0  0
  185.7110  177.4600  135.3730 C   0  0  0  0  0  2  0  0  0  0  0  0
  187.0380  177.4940  134.5940 C   0  0  0  0  0  2  0  0  0  0  0  0
  188.9100  177.5640  137.7940 O   0  0  0  0  0  1  0  0  0  0  0  0
  188.2580  177.3720  135.5120 C   0  0  1  0  0  3  0  0  0  0  0  0
  189.4020  177.7800  134.8310 O   0  0  0  0  0  1  0  0  0  0  0  0
  186.6350  178.2400  137.2580 C   0  0  2  0  0  3  0  0  0  0  0  0
  185.9000  177.1650  136.7370 O   0  0  0  0  0  0  0  0  0  0  0  0
  188.1120  178.1650  136.8160 C   0  0  1  0  0  3  0  0  0  0  0  0
  182.5740  180.9690  138.5780 C   0  0  0  0  0  2  0  0  0  0  0  0
  181.7100  178.7010  137.9480 C   0  0  0  0  0  0  0  0  0  0  0  0
  182.8980  178.1280  138.7580 C   0  0  1  0  0  3  0  0  0  0  0  0
  182.0890  178.8050  136.6200 F   0  0  0  0  0  0  0  0  0  0  0  0
  181.3250  180.0930  138.4610 C   0  0  0  0  0  2  0  0  0  0  0  0
  180.6020  177.8740  138.0090 F   0  0  0  0  0  0  0  0  0  0  0  0
  183.4960  180.3860  139.4660 O   0  0  0  0  0  0  0  0  0  0  0  0
  183.9840  179.2280  138.8300 C   0  0  1  0  0  3  0  0  0  0  0  0
  182.4110  178.5730  141.0700 F   0  0  0  0  0  0  0  0  0  0  0  0
  183.4490  176.6610  140.5880 F   0  0  0  0  0  0  0  0  0  0  0  0
  182.4940  177.5550  140.1380 C   0  0  0  0  0  0  0  0  0  0  0  0
  181.2730  176.9070  140.0640 F   0  0  0  0  0  0  0  0  0  0  0  0
  1  5  1  0  0  0  0
  2  5  1  0  0  0  0
  3  2  2  0  0  0  0
  4  3  1  0  0  0  0
  4  1  2  0  0  0  0
  6  5  1  6  0  0  0
  6  8  1  0  0  0  0
  7 16  1  0  0  0  0
  7 13  1  0  0  0  0
  8 12  2  0  0  0  0
 10 15  1  0  0  0  0
 12 13  1  0  0  0  0
 13 14  1  0  0  0  0
 14 11  1  0  0  0  0
 15  6  1  0  0  0  0
 15  7  1  0  0  0  0
 16  9  1  0  0  0  0
 16 14  1  0  0  0  0
 17 23  1  0  0  0  0
 18 17  1  0  0  0  0
 18 20  1  0  0  0  0
 20 24  1  0  0  0  0
 21 20  1  0  0  0  0
 22  4  1  0  0  0  0
 23 22  1  0  0  0  0
 24 22  1  0  0  0  0
 24 19  1  0  0  0  0
 25 31  1  0  0  0  0
 26 30  1  0  0  0  0
 26 29  1  0  0  0  0
 26 27  1  0  0  0  0
 27 32  1  0  0  0  0
 27 35  1  0  0  0  0
 28 26  1  0  0  0  0
 29 25  1  0  0  0  0
 32  3  1  0  0  0  0
 32 31  1  0  0  0  0
 35 34  1  0  0  0  0
 35 33  1  0  0  0  0
 36 35  1  0  0  0  0
M  END
>  <MODEL>
8

>  <REMARK>
 VINA RESULT:      -7.6      4.934      7.007
  Name = 
  4 active torsions:
  status: ('A' for Active; 'I' for Inactive)
    1  A    between atoms: C_1  and  N_33
    2  A    between atoms: C_15  and  C_19
    3  A    between atoms: C_23  and  C_34
    4  A    between atoms: C_28  and  C_31
                            x       y       z     vdW  Elec       q    Type
                         _______ _______ _______ _____ _____    ______ ____

>  <TORSDO>
F 4

$$$$
=
 OpenBabel11062417083D

 36 40  0  0  1  0  0  0  0  0999 V2000
  186.6470  178.1380  139.4960 N   0  0  0  0  0  0  0  0  0  0  0  0
  186.6910  178.6610  141.6390 N   0  0  0  0  0  0  0  0  0  0  0  0
  187.9090  178.2030  141.3040 C   0  0  0  0  0  0  0  0  0  0  0  0
  187.8790  177.8700  139.9620 C   0  0  0  0  0  0  0  0  0  0  0  0
  185.9690  178.6170  140.5300 N   0  0  0  0  0  0  0  0  0  0  0  0
  184.5630  179.0000  140.4780 C   0  0  1  0  0  3  0  0  0  0  0  0
  182.1750  178.2180  140.8800 C   0  0  1  0  0  3  0  0  0  0  0  0
  184.1800  179.3910  139.0830 C   0  0  0  0  0  3  0  0  0  0  0  0
  180.6570  179.0320  142.6780 C   0  0  0  0  0  1  0  0  0  0  0  0
  184.0050  177.4980  142.2680 O   0  0  0  0  0  1  0  0  0  0  0  0
  180.0210  180.4250  140.4580 O   0  0  0  0  0  1  0  0  0  0  0  0
  182.8970  179.4000  138.7040 C   0  0  0  0  0  3  0  0  0  0  0  0
  181.7640  179.0230  139.6320 C   0  0  2  0  0  3  0  0  0  0  0  0
  181.3990  180.2030  140.5180 C   0  0  2  0  0  3  0  0  0  0  0  0
  183.6710  177.8560  140.9600 C   0  0  2  0  0  3  0  0  0  0  0  0
  181.8160  179.4060  141.7630 C   0  0  2  0  0  3  0  0  0  0  0  0
  191.2180  177.2000  138.9350 C   0  0  0  0  0  2  0  0  0  0  0  0
  191.1640  176.7370  137.4690 C   0  0  0  0  0  2  0  0  0  0  0  0
  187.6890  178.0040  137.2020 O   0  0  0  0  0  1  0  0  0  0  0  0
  189.8810  177.1860  136.7620 C   0  0  1  0  0  3  0  0  0  0  0  0
  189.7030  176.4450  135.5960 O   0  0  0  0  0  1  0  0  0  0  0  0
  188.9900  177.2990  139.1350 C   0  0  2  0  0  3  0  0  0  0  0  0
  190.1580  178.0660  139.2620 O   0  0  0  0  0  0  0  0  0  0  0  0
  188.6350  177.0770  137.6490 C   0  0  1  0  0  3  0  0  0  0  0  0
  191.0010  177.0300  142.7050 C   0  0  0  0  0  2  0  0  0  0  0  0
  189.9230  178.2630  144.6040 C   0  0  0  0  0  0  0  0  0  0  0  0
  188.6240  178.2300  143.7630 C   0  0  1  0  0  3  0  0  0  0  0  0
  190.5860  179.4520  144.3520 F   0  0  0  0  0  0  0  0  0  0  0  0
  190.8440  177.0970  144.2260 C   0  0  0  0  0  2  0  0  0  0  0  0
  189.6570  178.2060  145.9610 F   0  0  0  0  0  0  0  0  0  0  0  0
  189.7480  176.8490  142.0940 O   0  0  0  0  0  0  0  0  0  0  0  0
  189.0350  178.0490  142.2820 C   0  0  1  0  0  3  0  0  0  0  0  0
  186.3230  177.7540  144.2750 F   0  0  0  0  0  0  0  0  0  0  0  0
  187.8800  176.7970  145.5500 F   0  0  0  0  0  0  0  0  0  0  0  0
  187.5870  177.1940  144.2570 C   0  0  0  0  0  0  0  0  0  0  0  0
  187.5760  176.0780  143.4380 F   0  0  0  0  0  0  0  0  0  0  0  0
  1  4  2  0  0  0  0
  1  5  1  0  0  0  0
  3  2  2  0  0  0  0
  3 32  1  0  0  0  0
  4  3  1  0  0  0  0
  5  2  1  0  0  0  0
  6  8  1  6  0  0  0
  6  5  1  0  0  0  0
  6 15  1  0  0  0  0
  7 15  1  0  0  0  0
  7 16  1  0  0  0  0
 11 14  1  0  0  0  0
 12  8  2  0  0  0  0
 12 13  1  0  0  0  0
 13 14  1  0  0  0  0
 13  7  1  0  0  0  0
 14 16  1  0  0  0  0
 15 10  1  0  0  0  0
 16  9  1  0  0  0  0
 17 23  1  0  0  0  0
 18 17  1  0  0  0  0
 19 24  1  0  0  0  0
 20 18  1  0  0  0  0
 20 24  1  0  0  0  0
 21 20  1  0  0  0  0
 22 23  1  0  0  0  0
 22  4  1  0  0  0  0
 24 22  1  0  0  0  0
 25 29  1  0  0  0  0
 26 30  1  0  0  0  0
 27 35  1  0  0  0  0
 27 26  1  0  0  0  0
 28 26  1  0  0  0  0
 29 26  1  0  0  0  0
 31 32  1  0  0  0  0
 31 25  1  0  0  0  0
 32 27  1  0  0  0  0
 35 33  1  0  0  0  0
 35 34  1  0  0  0  0
 36 35  1  0  0  0  0
M  END
>  <MODEL>
9

>  <REMARK>
 VINA RESULT:      -7.6      4.784      7.338
  Name = 
  4 active torsions:
  status: ('A' for Active; 'I' for Inactive)
    1  A    between atoms: C_1  and  N_33
    2  A    between atoms: C_15  and  C_19
    3  A    between atoms: C_23  and  C_34
    4  A    between atoms: C_28  and  C_31
                            x       y       z     vdW  Elec       q    Type
                         _______ _______ _______ _____ _____    ______ ____

>  <TORSDO>
F 4

$$$$
