=
 OpenBabel11062413173D

 30 32  0  0  1  0  0  0  0  0999 V2000
  187.6730  177.6330  140.4520 N   0  0  0  0  0  0  0  0  0  0  0  0
  187.9000  177.8000  141.7240 C   0  0  0  0  0  0  0  0  0  0  0  0
  188.8460  176.3970  136.9800 C   0  0  0  0  0  2  0  0  0  0  0  0
  188.6400  177.1410  139.4720 C   0  0  1  0  0  3  0  0  0  0  0  0
  191.4020  176.5190  140.0040 O   0  0  0  0  0  1  0  0  0  0  0  0
  190.1430  175.7270  137.4050 C   0  0  2  0  0  3  0  0  0  0  0  0
  191.1990  176.8070  137.6260 C   0  0  0  0  0  2  0  0  0  0  0  0
  187.9280  176.7640  138.1530 C   0  0  1  0  0  3  0  0  0  0  0  0
  191.1100  177.4520  139.0070 C   0  0  1  0  0  3  0  0  0  0  0  0
  189.7730  178.1490  139.2740 C   0  0  0  0  0  2  0  0  0  0  0  0
  187.2810  178.9010  137.4040 O   0  0  0  0  0  0  0  0  0  0  0  0
  186.9120  177.7800  137.7110 C   0  0  0  0  0  0  0  0  0  0  0  0
  185.2990  176.1050  137.2800 O   0  0  0  0  0  1  0  0  0  0  0  0
  185.4570  177.4390  137.6550 C   0  0  0  0  0  2  0  0  0  0  0  0
  190.5950  174.7980  136.2950 C   0  0  0  0  0  2  0  0  0  0  0  0
  191.2940  173.7170  136.8340 O   0  0  0  0  0  1  0  0  0  0  0  0
  190.6040  175.5070  143.1120 C   0  0  0  0  0  2  0  0  0  0  0  0
  191.3360  178.3380  143.4370 C   0  0  0  0  0  2  0  0  0  0  0  0
  189.2530  177.4350  142.2890 C   0  0  0  0  0  3  0  0  0  0  0  0
  189.2190  176.1340  143.0930 C   0  0  0  0  0  2  0  0  0  0  0  0
  191.3460  177.4380  144.6640 C   0  0  0  0  0  2  0  0  0  0  0  0
  189.8980  178.6160  143.0180 C   0  0  0  0  0  2  0  0  0  0  0  0
  191.4430  175.9520  144.3130 C   0  0  0  0  0  2  0  0  0  0  0  0
  185.6850  179.0570  142.1270 C   0  0  0  0  0  0  0  0  0  0  0  0
  184.7030  179.4120  142.9980 N   0  0  0  0  0  0  0  0  0  0  0  0
  185.7070  178.2340  144.7570 C   0  0  0  0  0  3  0  0  0  0  0  0
  184.7140  179.0180  144.2720 N   0  0  0  0  0  0  0  0  0  0  0  0
  186.7390  177.8390  143.9140 C   0  0  0  0  0  3  0  0  0  0  0  0
  185.5720  179.4760  140.7720 N   0  0  0  0  0  1  0  0  0  0  0  0
  186.7570  178.2500  142.5750 C   0  0  0  0  0  0  0  0  0  0  0  0
  1  2  2  0  0  0  0
  2 19  1  0  0  0  0
  2 30  1  0  0  0  0
  3  6  1  0  0  0  0
  3  8  1  0  0  0  0
  4  1  1  1  0  0  0
  6 15  1  6  0  0  0
  6  7  1  0  0  0  0
  7  9  1  0  0  0  0
  8 12  1  6  0  0  0
  8  4  1  0  0  0  0
  9 10  1  0  0  0  0
  9  5  1  1  0  0  0
 10  4  1  0  0  0  0
 11 12  2  0  0  0  0
 13 14  1  0  0  0  0
 14 12  1  0  0  0  0
 15 16  1  0  0  0  0
 17 23  1  0  0  0  0
 18 21  1  0  0  0  0
 19 22  1  0  0  0  0
 19 20  1  0  0  0  0
 20 17  1  0  0  0  0
 22 18  1  0  0  0  0
 23 21  1  0  0  0  0
 24 30  2  0  0  0  0
 24 25  1  0  0  0  0
 25 27  2  0  0  0  0
 27 26  1  0  0  0  0
 28 26  2  0  0  0  0
 29 24  1  0  0  0  0
 30 28  1  0  0  0  0
M  END
>  <MODEL>
1

>  <REMARK>
 VINA RESULT:      -7.2      0.000      0.000
  Name = 
  6 active torsions:
  status: ('A' for Active; 'I' for Inactive)
    1  A    between atoms: C_4  and  N_23
    2  A    between atoms: C_5  and  C_29
    3  A    between atoms: C_12  and  C_15
    4  A    between atoms: C_13  and  C_18
    5  A    between atoms: C_13  and  C_19
    6  A    between atoms: C_27  and  C_29
                            x       y       z     vdW  Elec       q    Type
                         _______ _______ _______ _____ _____    ______ ____

>  <TORSDO>
F 6

$$$$
=
 OpenBabel11062413173D

 30 32  0  0  1  0  0  0  0  0999 V2000
  188.3720  177.3400  140.2490 N   0  0  0  0  0  0  0  0  0  0  0  0
  188.3730  177.6370  141.5180 C   0  0  0  0  0  0  0  0  0  0  0  0
  190.1400  175.6570  137.2490 C   0  0  0  0  0  2  0  0  0  0  0  0
  189.5150  176.8310  139.4930 C   0  0  1  0  0  3  0  0  0  0  0  0
  192.2480  176.7890  140.4060 O   0  0  0  0  0  1  0  0  0  0  0  0
  191.4540  175.3060  137.9290 C   0  0  2  0  0  3  0  0  0  0  0  0
  192.3100  176.5670  138.0130 C   0  0  0  0  0  2  0  0  0  0  0  0
  189.0380  176.0900  138.2240 C   0  0  1  0  0  3  0  0  0  0  0  0
  191.9560  177.4480  139.2100 C   0  0  1  0  0  3  0  0  0  0  0  0
  190.5110  177.9530  139.1940 C   0  0  0  0  0  2  0  0  0  0  0  0
  186.7930  176.4630  137.6160 O   0  0  0  0  0  0  0  0  0  0  0  0
  187.9520  176.8180  137.4810 C   0  0  0  0  0  0  0  0  0  0  0  0
  187.7200  179.1370  137.0730 O   0  0  0  0  0  1  0  0  0  0  0  0
  188.2750  177.9600  136.5710 C   0  0  0  0  0  2  0  0  0  0  0  0
  192.1710  174.2650  137.0910 C   0  0  0  0  0  2  0  0  0  0  0  0
  191.2510  173.3470  136.5820 O   0  0  0  0  0  1  0  0  0  0  0  0
  191.0170  175.6520  143.4060 C   0  0  0  0  0  2  0  0  0  0  0  0
  191.3460  178.5440  143.8350 C   0  0  0  0  0  2  0  0  0  0  0  0
  189.6300  177.4220  142.3280 C   0  0  0  0  0  3  0  0  0  0  0  0
  189.5960  176.1170  143.1240 C   0  0  0  0  0  2  0  0  0  0  0  0
  191.2310  177.6370  145.0510 C   0  0  0  0  0  2  0  0  0  0  0  0
  189.9890  178.6610  143.1530 C   0  0  0  0  0  2  0  0  0  0  0  0
  191.5620  176.1750  144.7380 C   0  0  0  0  0  2  0  0  0  0  0  0
  186.0480  178.7490  141.4230 C   0  0  0  0  0  0  0  0  0  0  0  0
  184.9170  179.1120  142.0840 N   0  0  0  0  0  0  0  0  0  0  0  0
  185.6890  178.2040  144.1010 C   0  0  0  0  0  3  0  0  0  0  0  0
  184.7430  178.8530  143.3800 N   0  0  0  0  0  0  0  0  0  0  0  0
  186.8680  177.8080  143.4810 C   0  0  0  0  0  3  0  0  0  0  0  0
  186.1340  179.0170  140.0290 N   0  0  0  0  0  1  0  0  0  0  0  0
  187.0800  178.0790  142.1230 C   0  0  0  0  0  0  0  0  0  0  0  0
  1  2  2  0  0  0  0
  2 30  1  0  0  0  0
  2 19  1  0  0  0  0
  3  6  1  0  0  0  0
  3  8  1  0  0  0  0
  4  1  1  6  0  0  0
  6 15  1  6  0  0  0
  6  7  1  0  0  0  0
  7  9  1  0  0  0  0
  8 12  1  6  0  0  0
  8  4  1  0  0  0  0
  9  5  1  1  0  0  0
 10  9  1  0  0  0  0
 10  4  1  0  0  0  0
 12 11  2  0  0  0  0
 14 13  1  0  0  0  0
 14 12  1  0  0  0  0
 16 15  1  0  0  0  0
 17 23  1  0  0  0  0
 18 21  1  0  0  0  0
 19 20  1  0  0  0  0
 19 22  1  0  0  0  0
 20 17  1  0  0  0  0
 22 18  1  0  0  0  0
 23 21  1  0  0  0  0
 24 25  2  0  0  0  0
 24 30  1  0  0  0  0
 25 27  1  0  0  0  0
 27 26  2  0  0  0  0
 28 26  1  0  0  0  0
 29 24  1  0  0  0  0
 30 28  2  0  0  0  0
M  END
>  <MODEL>
2

>  <REMARK>
 VINA RESULT:      -7.0      0.931      1.340
  Name = 
  6 active torsions:
  status: ('A' for Active; 'I' for Inactive)
    1  A    between atoms: C_4  and  N_23
    2  A    between atoms: C_5  and  C_29
    3  A    between atoms: C_12  and  C_15
    4  A    between atoms: C_13  and  C_18
    5  A    between atoms: C_13  and  C_19
    6  A    between atoms: C_27  and  C_29
                            x       y       z     vdW  Elec       q    Type
                         _______ _______ _______ _____ _____    ______ ____

>  <TORSDO>
F 6

$$$$
=
 OpenBabel11062413173D

 30 32  0  0  1  0  0  0  0  0999 V2000
  190.5710  176.3730  140.3620 N   0  0  0  0  0  0  0  0  0  0  0  0
  190.5660  176.3700  139.0590 C   0  0  0  0  0  0  0  0  0  0  0  0
  188.7040  176.9140  143.7050 C   0  0  0  0  0  2  0  0  0  0  0  0
  189.4820  176.8430  141.2170 C   0  0  1  0  0  3  0  0  0  0  0  0
  187.0640  178.1190  140.3060 O   0  0  0  0  0  1  0  0  0  0  0  0
  187.3210  177.2060  143.1470 C   0  0  2  0  0  3  0  0  0  0  0  0
  187.2940  178.6460  142.6410 C   0  0  0  0  0  2  0  0  0  0  0  0
  189.6820  176.3490  142.6670 C   0  0  1  0  0  3  0  0  0  0  0  0
  187.8650  178.7920  141.2320 C   0  0  1  0  0  3  0  0  0  0  0  0
  189.3290  178.3610  141.1160 C   0  0  0  0  0  2  0  0  0  0  0  0
  191.7090  175.5070  143.5210 O   0  0  0  0  0  0  0  0  0  0  0  0
  191.0950  176.4970  143.1590 C   0  0  0  0  0  0  0  0  0  0  0  0
  191.7960  178.2820  144.5440 O   0  0  0  0  0  1  0  0  0  0  0  0
  191.7510  177.8390  143.2220 C   0  0  0  0  0  2  0  0  0  0  0  0
  186.3040  177.0430  144.2610 C   0  0  0  0  0  2  0  0  0  0  0  0
  185.3990  178.1060  144.2390 O   0  0  0  0  0  1  0  0  0  0  0  0
  187.1720  176.0770  137.3590 C   0  0  0  0  0  2  0  0  0  0  0  0
  188.3790  178.7190  136.8850 C   0  0  0  0  0  2  0  0  0  0  0  0
  189.3380  176.8520  138.3220 C   0  0  0  0  0  3  0  0  0  0  0  0
  188.6400  175.7290  137.5550 C   0  0  0  0  0  2  0  0  0  0  0  0
  187.9330  177.8970  135.6850 C   0  0  0  0  0  2  0  0  0  0  0  0
  189.6340  178.1030  137.4910 C   0  0  0  0  0  2  0  0  0  0  0  0
  186.9060  176.8210  136.0470 C   0  0  0  0  0  2  0  0  0  0  0  0
  193.0730  176.2860  138.4600 C   0  0  0  0  0  0  0  0  0  0  0  0
  194.0740  175.6720  137.7750 N   0  0  0  0  0  0  0  0  0  0  0  0
  192.6150  174.0640  136.8950 C   0  0  0  0  0  3  0  0  0  0  0  0
  193.8530  174.5990  137.0140 N   0  0  0  0  0  0  0  0  0  0  0  0
  191.5500  174.6480  137.5720 C   0  0  0  0  0  3  0  0  0  0  0  0
  193.4010  177.3950  139.2890 N   0  0  0  0  0  1  0  0  0  0  0  0
  191.7540  175.7830  138.3670 C   0  0  0  0  0  0  0  0  0  0  0  0
  2  1  2  0  0  0  0
  4  1  1  6  0  0  0
  4  8  1  0  0  0  0
  6  3  1  0  0  0  0
  6 15  1  1  0  0  0
  7  6  1  0  0  0  0
  8 12  1  1  0  0  0
  8  3  1  0  0  0  0
  9  5  1  6  0  0  0
  9  7  1  0  0  0  0
 10  4  1  0  0  0  0
 10  9  1  0  0  0  0
 12 14  1  0  0  0  0
 12 11  2  0  0  0  0
 14 13  1  0  0  0  0
 16 15  1  0  0  0  0
 17 20  1  0  0  0  0
 18 22  1  0  0  0  0
 19  2  1  0  0  0  0
 20 19  1  0  0  0  0
 21 23  1  0  0  0  0
 21 18  1  0  0  0  0
 22 19  1  0  0  0  0
 23 17  1  0  0  0  0
 24 29  1  0  0  0  0
 25 24  2  0  0  0  0
 26 27  2  0  0  0  0
 26 28  1  0  0  0  0
 27 25  1  0  0  0  0
 28 30  2  0  0  0  0
 30 24  1  0  0  0  0
 30  2  1  0  0  0  0
M  END
>  <MODEL>
3

>  <REMARK>
 VINA RESULT:      -6.9      3.157      7.631
  Name = 
  6 active torsions:
  status: ('A' for Active; 'I' for Inactive)
    1  A    between atoms: C_4  and  N_23
    2  A    between atoms: C_5  and  C_29
    3  A    between atoms: C_12  and  C_15
    4  A    between atoms: C_13  and  C_18
    5  A    between atoms: C_13  and  C_19
    6  A    between atoms: C_27  and  C_29
                            x       y       z     vdW  Elec       q    Type
                         _______ _______ _______ _____ _____    ______ ____

>  <TORSDO>
F 6

$$$$
=
 OpenBabel11062413173D

 30 32  0  0  1  0  0  0  0  0999 V2000
  186.3370  178.1720  141.9930 N   0  0  0  0  0  0  0  0  0  0  0  0
  187.0160  178.0550  143.0990 C   0  0  0  0  0  0  0  0  0  0  0  0
  186.1390  177.8570  138.1440 C   0  0  0  0  0  2  0  0  0  0  0  0
  186.8710  177.9940  140.6440 C   0  0  1  0  0  3  0  0  0  0  0  0
  189.6280  177.4820  139.9820 O   0  0  0  0  0  1  0  0  0  0  0  0
  187.4930  177.2110  137.9000 C   0  0  2  0  0  3  0  0  0  0  0  0
  188.5690  178.2900  137.9800 C   0  0  0  0  0  2  0  0  0  0  0  0
  185.7200  177.8740  139.6190 C   0  0  1  0  0  3  0  0  0  0  0  0
  189.0010  178.5930  139.4130 C   0  0  1  0  0  3  0  0  0  0  0  0
  187.8650  179.1040  140.3020 C   0  0  0  0  0  2  0  0  0  0  0  0
  184.8390  180.0580  139.5870 O   0  0  0  0  0  0  0  0  0  0  0  0
  184.6250  178.8820  139.8310 C   0  0  0  0  0  0  0  0  0  0  0  0
  183.2050  177.0730  140.3830 O   0  0  0  0  0  1  0  0  0  0  0  0
  183.2850  178.4650  140.3460 C   0  0  0  0  0  2  0  0  0  0  0  0
  187.4950  176.5980  136.5120 C   0  0  0  0  0  2  0  0  0  0  0  0
  188.8010  176.5200  136.0280 O   0  0  0  0  0  1  0  0  0  0  0  0
  190.0020  175.7080  142.8200 C   0  0  0  0  0  2  0  0  0  0  0  0
  190.8490  178.4320  143.5460 C   0  0  0  0  0  2  0  0  0  0  0  0
  188.4760  177.6690  143.0350 C   0  0  0  0  0  3  0  0  0  0  0  0
  188.7150  176.2180  143.4520 C   0  0  0  0  0  2  0  0  0  0  0  0
  191.2910  177.2730  144.4270 C   0  0  0  0  0  2  0  0  0  0  0  0
  189.3620  178.6920  143.7510 C   0  0  0  0  0  2  0  0  0  0  0  0
  191.2290  175.9210  143.7120 C   0  0  0  0  0  2  0  0  0  0  0  0
  185.0960  178.9800  144.5500 C   0  0  0  0  0  0  0  0  0  0  0  0
  184.5090  179.0540  145.7740 N   0  0  0  0  0  0  0  0  0  0  0  0
  186.1200  177.6510  146.7370 C   0  0  0  0  0  3  0  0  0  0  0  0
  185.0050  178.4150  146.8340 N   0  0  0  0  0  0  0  0  0  0  0  0
  186.7650  177.5370  145.5110 C   0  0  0  0  0  3  0  0  0  0  0  0
  184.4750  179.6510  143.4600 N   0  0  0  0  0  1  0  0  0  0  0  0
  186.2710  178.2090  144.3850 C   0  0  0  0  0  0  0  0  0  0  0  0
  1  2  2  0  0  0  0
  2 30  1  0  0  0  0
  3  8  1  0  0  0  0
  4  1  1  1  0  0  0
  6 15  1  6  0  0  0
  6  7  1  0  0  0  0
  6  3  1  0  0  0  0
  7  9  1  0  0  0  0
  8 12  1  6  0  0  0
  8  4  1  0  0  0  0
  9  5  1  1  0  0  0
  9 10  1  0  0  0  0
 10  4  1  0  0  0  0
 11 12  2  0  0  0  0
 12 14  1  0  0  0  0
 14 13  1  0  0  0  0
 16 15  1  0  0  0  0
 17 20  1  0  0  0  0
 17 23  1  0  0  0  0
 18 22  1  0  0  0  0
 18 21  1  0  0  0  0
 19  2  1  0  0  0  0
 19 20  1  0  0  0  0
 19 22  1  0  0  0  0
 23 21  1  0  0  0  0
 24 25  1  0  0  0  0
 25 27  2  0  0  0  0
 26 27  1  0  0  0  0
 28 26  2  0  0  0  0
 29 24  1  0  0  0  0
 30 24  2  0  0  0  0
 30 28  1  0  0  0  0
M  END
>  <MODEL>
4

>  <REMARK>
 VINA RESULT:      -6.9      1.889      2.505
  Name = 
  6 active torsions:
  status: ('A' for Active; 'I' for Inactive)
    1  A    between atoms: C_4  and  N_23
    2  A    between atoms: C_5  and  C_29
    3  A    between atoms: C_12  and  C_15
    4  A    between atoms: C_13  and  C_18
    5  A    between atoms: C_13  and  C_19
    6  A    between atoms: C_27  and  C_29
                            x       y       z     vdW  Elec       q    Type
                         _______ _______ _______ _____ _____    ______ ____

>  <TORSDO>
F 6

$$$$
=
 OpenBabel11062413173D

 30 32  0  0  1  0  0  0  0  0999 V2000
  188.2740  177.8110  141.8120 N   0  0  0  0  0  0  0  0  0  0  0  0
  187.0690  178.2580  142.0270 C   0  0  0  0  0  0  0  0  0  0  0  0
  191.4540  176.1650  143.2730 C   0  0  0  0  0  2  0  0  0  0  0  0
  189.2740  177.5310  142.8410 C   0  0  1  0  0  3  0  0  0  0  0  0
  189.2190  178.5140  145.5490 O   0  0  0  0  0  1  0  0  0  0  0  0
  191.1630  176.3810  144.7490 C   0  0  2  0  0  3  0  0  0  0  0  0
  191.4800  177.8320  145.1020 C   0  0  0  0  0  2  0  0  0  0  0  0
  190.2510  176.4340  142.3610 C   0  0  1  0  0  3  0  0  0  0  0  0
  190.3400  178.7890  144.7630 C   0  0  1  0  0  3  0  0  0  0  0  0
  189.9820  178.8150  143.2750 C   0  0  0  0  0  2  0  0  0  0  0  0
  190.1440  176.0330  140.0430 O   0  0  0  0  0  0  0  0  0  0  0  0
  190.7140  176.6260  140.9430 C   0  0  0  0  0  0  0  0  0  0  0  0
  192.5310  177.0540  139.4900 O   0  0  0  0  0  1  0  0  0  0  0  0
  191.8690  177.5210  140.6260 C   0  0  0  0  0  2  0  0  0  0  0  0
  192.0530  175.4580  145.5600 C   0  0  0  0  0  2  0  0  0  0  0  0
  192.3560  176.0460  146.7880 O   0  0  0  0  0  1  0  0  0  0  0  0
  186.5390  177.4360  145.7060 C   0  0  0  0  0  2  0  0  0  0  0  0
  185.0510  179.8530  144.9280 C   0  0  0  0  0  2  0  0  0  0  0  0
  186.6070  178.4890  143.4470 C   0  0  0  0  0  3  0  0  0  0  0  0
  186.3990  177.1820  144.2130 C   0  0  0  0  0  2  0  0  0  0  0  0
  184.2930  178.7150  145.5950 C   0  0  0  0  0  2  0  0  0  0  0  0
  185.4210  179.4560  143.5040 C   0  0  0  0  0  2  0  0  0  0  0  0
  185.2050  177.7700  146.3810 C   0  0  0  0  0  2  0  0  0  0  0  0
  186.6150  178.5640  139.5070 C   0  0  0  0  0  0  0  0  0  0  0  0
  185.7030  178.7100  138.5100 N   0  0  0  0  0  0  0  0  0  0  0  0
  183.9040  178.5680  140.0050 C   0  0  0  0  0  3  0  0  0  0  0  0
  184.3910  178.7160  138.7500 N   0  0  0  0  0  0  0  0  0  0  0  0
  184.7890  178.4140  141.0670 C   0  0  0  0  0  3  0  0  0  0  0  0
  187.9950  178.5170  139.1610 N   0  0  0  0  0  1  0  0  0  0  0  0
  186.1720  178.4170  140.8420 C   0  0  0  0  0  0  0  0  0  0  0  0
  1  2  2  0  0  0  0
  2 19  1  0  0  0  0
  3  6  1  0  0  0  0
  4  1  1  6  0  0  0
  4 10  1  0  0  0  0
  6  7  1  0  0  0  0
  6 15  1  1  0  0  0
  8 12  1  6  0  0  0
  8  4  1  0  0  0  0
  8  3  1  0  0  0  0
  9  7  1  0  0  0  0
  9  5  1  1  0  0  0
 10  9  1  0  0  0  0
 11 12  2  0  0  0  0
 13 14  1  0  0  0  0
 14 12  1  0  0  0  0
 15 16  1  0  0  0  0
 17 23  1  0  0  0  0
 18 21  1  0  0  0  0
 19 22  1  0  0  0  0
 19 20  1  0  0  0  0
 20 17  1  0  0  0  0
 21 23  1  0  0  0  0
 22 18  1  0  0  0  0
 24 30  1  0  0  0  0
 25 27  1  0  0  0  0
 25 24  2  0  0  0  0
 26 28  1  0  0  0  0
 27 26  2  0  0  0  0
 29 24  1  0  0  0  0
 30 28  2  0  0  0  0
 30  2  1  0  0  0  0
M  END
>  <MODEL>
5

>  <REMARK>
 VINA RESULT:      -6.4      2.751      5.663
  Name = 
  6 active torsions:
  status: ('A' for Active; 'I' for Inactive)
    1  A    between atoms: C_4  and  N_23
    2  A    between atoms: C_5  and  C_29
    3  A    between atoms: C_12  and  C_15
    4  A    between atoms: C_13  and  C_18
    5  A    between atoms: C_13  and  C_19
    6  A    between atoms: C_27  and  C_29
                            x       y       z     vdW  Elec       q    Type
                         _______ _______ _______ _____ _____    ______ ____

>  <TORSDO>
F 6

$$$$
=
 OpenBabel11062413173D

 30 32  0  0  1  0  0  0  0  0999 V2000
  187.7810  177.9280  141.3120 N   0  0  0  0  0  0  0  0  0  0  0  0
  189.0320  177.8140  140.9620 C   0  0  0  0  0  0  0  0  0  0  0  0
  185.4020  179.0720  144.1370 C   0  0  0  0  0  2  0  0  0  0  0  0
  187.2840  177.9990  142.6840 C   0  0  1  0  0  3  0  0  0  0  0  0
  188.5180  176.7760  144.9830 O   0  0  0  0  0  1  0  0  0  0  0  0
  186.2920  178.7510  145.3270 C   0  0  2  0  0  3  0  0  0  0  0  0
  186.2380  177.2470  145.5840 C   0  0  0  0  0  2  0  0  0  0  0  0
  186.1320  179.0230  142.7900 C   0  0  1  0  0  3  0  0  0  0  0  0
  187.1900  176.4560  144.6900 C   0  0  1  0  0  3  0  0  0  0  0  0
  186.8990  176.6100  143.1950 C   0  0  0  0  0  2  0  0  0  0  0  0
  185.3410  179.5130  140.6250 O   0  0  0  0  0  0  0  0  0  0  0  0
  185.1340  178.9170  141.6690 C   0  0  0  0  0  0  0  0  0  0  0  0
  183.5260  177.5590  140.5900 O   0  0  0  0  0  1  0  0  0  0  0  0
  183.8900  178.1030  141.8220 C   0  0  0  0  0  2  0  0  0  0  0  0
  185.7650  179.4900  146.5410 C   0  0  0  0  0  2  0  0  0  0  0  0
  184.7670  178.7370  147.1620 O   0  0  0  0  0  1  0  0  0  0  0  0
  191.6280  176.2460  143.2640 C   0  0  0  0  0  2  0  0  0  0  0  0
  191.1110  179.0510  143.9920 C   0  0  0  0  0  2  0  0  0  0  0  0
  190.0990  177.7830  142.0310 C   0  0  0  0  0  3  0  0  0  0  0  0
  190.2300  176.4080  142.6870 C   0  0  0  0  0  2  0  0  0  0  0  0
  190.9740  177.9830  145.0670 C   0  0  0  0  0  2  0  0  0  0  0  0
  189.9470  178.9460  143.0150 C   0  0  0  0  0  2  0  0  0  0  0  0
  191.7240  176.6930  144.7260 C   0  0  0  0  0  2  0  0  0  0  0  0
  190.1900  176.9010  138.8470 C   0  0  0  0  0  0  0  0  0  0  0  0
  190.4060  177.0190  137.5100 N   0  0  0  0  0  0  0  0  0  0  0  0
  189.0070  178.8910  137.3520 C   0  0  0  0  0  3  0  0  0  0  0  0
  189.8380  177.9830  136.7860 N   0  0  0  0  0  0  0  0  0  0  0  0
  188.7470  178.8220  138.7160 C   0  0  0  0  0  3  0  0  0  0  0  0
  190.7950  175.8140  139.5380 N   0  0  0  0  0  1  0  0  0  0  0  0
  189.3430  177.8260  139.5010 C   0  0  0  0  0  0  0  0  0  0  0  0
  2  1  2  0  0  0  0
  2 19  1  0  0  0  0
  3  6  1  0  0  0  0
  4  1  1  6  0  0  0
  4  8  1  0  0  0  0
  4 10  1  0  0  0  0
  6  7  1  0  0  0  0
  6 15  1  1  0  0  0
  8 12  1  6  0  0  0
  8  3  1  0  0  0  0
  9  5  1  6  0  0  0
  9  7  1  0  0  0  0
 10  9  1  0  0  0  0
 11 12  2  0  0  0  0
 12 14  1  0  0  0  0
 13 14  1  0  0  0  0
 15 16  1  0  0  0  0
 17 23  1  0  0  0  0
 18 21  1  0  0  0  0
 19 20  1  0  0  0  0
 19 22  1  0  0  0  0
 20 17  1  0  0  0  0
 22 18  1  0  0  0  0
 23 21  1  0  0  0  0
 24 30  1  0  0  0  0
 24 29  1  0  0  0  0
 25 24  2  0  0  0  0
 26 28  1  0  0  0  0
 27 26  2  0  0  0  0
 27 25  1  0  0  0  0
 28 30  2  0  0  0  0
 30  2  1  0  0  0  0
M  END
>  <MODEL>
6

>  <REMARK>
 VINA RESULT:      -6.4      2.885      6.177
  Name = 
  6 active torsions:
  status: ('A' for Active; 'I' for Inactive)
    1  A    between atoms: C_4  and  N_23
    2  A    between atoms: C_5  and  C_29
    3  A    between atoms: C_12  and  C_15
    4  A    between atoms: C_13  and  C_18
    5  A    between atoms: C_13  and  C_19
    6  A    between atoms: C_27  and  C_29
                            x       y       z     vdW  Elec       q    Type
                         _______ _______ _______ _____ _____    ______ ____

>  <TORSDO>
F 6

$$$$
=
 OpenBabel11062413173D

 30 32  0  0  1  0  0  0  0  0999 V2000
  185.0290  177.4940  137.7690 N   0  0  0  0  0  0  0  0  0  0  0  0
  185.6470  176.5410  137.1300 C   0  0  0  0  0  0  0  0  0  0  0  0
  182.1560  177.9770  140.3120 C   0  0  0  0  0  2  0  0  0  0  0  0
  183.6450  177.4450  138.2380 C   0  0  1  0  0  3  0  0  0  0  0  0
  181.4090  176.3810  136.7640 O   0  0  0  0  0  1  0  0  0  0  0  0
  181.1260  177.0650  139.6660 C   0  0  2  0  0  3  0  0  0  0  0  0
  180.5010  177.7980  138.4820 C   0  0  0  0  0  2  0  0  0  0  0  0
  183.5680  177.8200  139.7350 C   0  0  1  0  0  3  0  0  0  0  0  0
  181.3440  177.7030  137.2120 C   0  0  1  0  0  3  0  0  0  0  0  0
  182.7420  178.3090  137.3560 C   0  0  0  0  0  2  0  0  0  0  0  0
  184.2330  180.0670  139.5020 O   0  0  0  0  0  0  0  0  0  0  0  0
  184.4060  179.0150  140.0950 C   0  0  0  0  0  0  0  0  0  0  0  0
  186.7180  178.8720  140.5720 O   0  0  0  0  0  1  0  0  0  0  0  0
  185.4540  178.9280  141.1580 C   0  0  0  0  0  2  0  0  0  0  0  0
  180.0510  176.7470  140.6880 C   0  0  0  0  0  2  0  0  0  0  0  0
  179.7350  175.3890  140.6400 O   0  0  0  0  0  1  0  0  0  0  0  0
  184.7750  172.8640  137.5930 C   0  0  0  0  0  2  0  0  0  0  0  0
  183.5410  173.9550  135.1540 C   0  0  0  0  0  2  0  0  0  0  0  0
  184.9260  175.2420  136.8560 C   0  0  0  0  0  3  0  0  0  0  0  0
  185.7230  174.0230  137.3210 C   0  0  0  0  0  2  0  0  0  0  0  0
  184.4000  172.7050  135.0380 C   0  0  0  0  0  2  0  0  0  0  0  0
  184.4300  175.1650  135.4100 C   0  0  0  0  0  2  0  0  0  0  0  0
  184.5640  171.9670  136.3700 C   0  0  0  0  0  2  0  0  0  0  0  0
  187.5590  177.3390  135.5930 C   0  0  0  0  0  0  0  0  0  0  0  0
  188.8970  177.4770  135.3960 N   0  0  0  0  0  0  0  0  0  0  0  0
  189.3990  176.5350  137.4810 C   0  0  0  0  0  3  0  0  0  0  0  0
  189.7890  177.0850  136.3060 N   0  0  0  0  0  0  0  0  0  0  0  0
  188.0430  176.3670  137.7410 C   0  0  0  0  0  3  0  0  0  0  0  0
  186.6720  177.8290  134.5940 N   0  0  0  0  0  1  0  0  0  0  0  0
  187.0880  176.7590  136.7950 C   0  0  0  0  0  0  0  0  0  0  0  0
  2  1  2  0  0  0  0
  4  1  1  6  0  0  0
  4  8  1  0  0  0  0
  6  3  1  0  0  0  0
  6 15  1  1  0  0  0
  7  6  1  0  0  0  0
  8 12  1  6  0  0  0
  8  3  1  0  0  0  0
  9  5  1  1  0  0  0
  9 10  1  0  0  0  0
  9  7  1  0  0  0  0
 10  4  1  0  0  0  0
 11 12  2  0  0  0  0
 12 14  1  0  0  0  0
 13 14  1  0  0  0  0
 16 15  1  0  0  0  0
 18 22  1  0  0  0  0
 19  2  1  0  0  0  0
 19 20  1  0  0  0  0
 20 17  1  0  0  0  0
 21 18  1  0  0  0  0
 21 23  1  0  0  0  0
 22 19  1  0  0  0  0
 23 17  1  0  0  0  0
 24 30  1  0  0  0  0
 25 24  2  0  0  0  0
 25 27  1  0  0  0  0
 26 28  1  0  0  0  0
 27 26  2  0  0  0  0
 29 24  1  0  0  0  0
 30  2  1  0  0  0  0
 30 28  2  0  0  0  0
M  END
>  <MODEL>
7

>  <REMARK>
 VINA RESULT:      -6.1      4.192      8.342
  Name = 
  6 active torsions:
  status: ('A' for Active; 'I' for Inactive)
    1  A    between atoms: C_4  and  N_23
    2  A    between atoms: C_5  and  C_29
    3  A    between atoms: C_12  and  C_15
    4  A    between atoms: C_13  and  C_18
    5  A    between atoms: C_13  and  C_19
    6  A    between atoms: C_27  and  C_29
                            x       y       z     vdW  Elec       q    Type
                         _______ _______ _______ _____ _____    ______ ____

>  <TORSDO>
F 6

$$$$
=
 OpenBabel11062413173D

 30 32  0  0  1  0  0  0  0  0999 V2000
  186.0710  178.1660  144.3590 N   0  0  0  0  0  0  0  0  0  0  0  0
  187.2950  177.9820  144.7670 C   0  0  0  0  0  0  0  0  0  0  0  0
  183.4950  178.3730  141.4820 C   0  0  0  0  0  2  0  0  0  0  0  0
  185.6340  178.1940  142.9640 C   0  0  1  0  0  3  0  0  0  0  0  0
  187.3400  177.8810  140.6630 O   0  0  0  0  0  1  0  0  0  0  0  0
  184.3610  177.8170  140.3630 C   0  0  2  0  0  3  0  0  0  0  0  0
  185.3110  178.9150  139.8910 C   0  0  0  0  0  2  0  0  0  0  0  0
  184.0920  178.1720  142.8800 C   0  0  1  0  0  3  0  0  0  0  0  0
  186.5600  179.0360  140.7620 C   0  0  1  0  0  3  0  0  0  0  0  0
  186.2580  179.3770  142.2230 C   0  0  0  0  0  2  0  0  0  0  0  0
  183.8260  180.2480  143.9610 O   0  0  0  0  0  0  0  0  0  0  0  0
  183.4270  179.1000  143.8600 C   0  0  0  0  0  0  0  0  0  0  0  0
  181.1080  178.6510  143.9860 O   0  0  0  0  0  1  0  0  0  0  0  0
  182.2960  178.6310  144.7170 C   0  0  0  0  0  2  0  0  0  0  0  0
  183.4620  177.4000  139.2150 C   0  0  0  0  0  2  0  0  0  0  0  0
  182.6740  176.3140  139.5970 O   0  0  0  0  0  1  0  0  0  0  0  0
  189.3110  176.0090  142.2100 C   0  0  0  0  0  2  0  0  0  0  0  0
  190.6430  178.5420  142.8940 C   0  0  0  0  0  2  0  0  0  0  0  0
  188.3860  177.7380  143.7510 C   0  0  0  0  0  3  0  0  0  0  0  0
  188.7090  176.2530  143.5860 C   0  0  0  0  0  2  0  0  0  0  0  0
  191.4300  177.2470  143.0300 C   0  0  0  0  0  2  0  0  0  0  0  0
  189.6040  178.6300  144.0050 C   0  0  0  0  0  2  0  0  0  0  0  0
  190.8400  176.1010  142.2040 C   0  0  0  0  0  2  0  0  0  0  0  0
  186.7490  178.5940  147.2120 C   0  0  0  0  0  0  0  0  0  0  0  0
  187.0630  178.4680  148.5290 N   0  0  0  0  0  0  0  0  0  0  0  0
  188.8600  177.0390  148.0630 C   0  0  0  0  0  3  0  0  0  0  0  0
  188.0860  177.7190  148.9420 N   0  0  0  0  0  0  0  0  0  0  0  0
  188.5890  177.1290  146.7020 C   0  0  0  0  0  3  0  0  0  0  0  0
  185.6110  179.3710  146.8580 N   0  0  0  0  0  1  0  0  0  0  0  0
  187.5270  177.9190  146.2420 C   0  0  0  0  0  0  0  0  0  0  0  0
  1  2  2  0  0  0  0
  2 30  1  0  0  0  0
  3  8  1  0  0  0  0
  4  1  1  1  0  0  0
  6 15  1  6  0  0  0
  6  3  1  0  0  0  0
  7  6  1  0  0  0  0
  7  9  1  0  0  0  0
  8  4  1  0  0  0  0
  8 12  1  1  0  0  0
  9  5  1  1  0  0  0
  9 10  1  0  0  0  0
 10  4  1  0  0  0  0
 12 11  2  0  0  0  0
 12 14  1  0  0  0  0
 13 14  1  0  0  0  0
 15 16  1  0  0  0  0
 17 20  1  0  0  0  0
 18 21  1  0  0  0  0
 18 22  1  0  0  0  0
 19 22  1  0  0  0  0
 19  2  1  0  0  0  0
 20 19  1  0  0  0  0
 23 17  1  0  0  0  0
 23 21  1  0  0  0  0
 24 25  1  0  0  0  0
 25 27  2  0  0  0  0
 26 27  1  0  0  0  0
 28 26  2  0  0  0  0
 29 24  1  0  0  0  0
 30 28  1  0  0  0  0
 30 24  2  0  0  0  0
M  END
>  <MODEL>
8

>  <REMARK>
 VINA RESULT:      -6.1      3.287      5.459
  Name = 
  6 active torsions:
  status: ('A' for Active; 'I' for Inactive)
    1  A    between atoms: C_4  and  N_23
    2  A    between atoms: C_5  and  C_29
    3  A    between atoms: C_12  and  C_15
    4  A    between atoms: C_13  and  C_18
    5  A    between atoms: C_13  and  C_19
    6  A    between atoms: C_27  and  C_29
                            x       y       z     vdW  Elec       q    Type
                         _______ _______ _______ _____ _____    ______ ____

>  <TORSDO>
F 6

$$$$
=
 OpenBabel11062413173D

 30 32  0  0  1  0  0  0  0  0999 V2000
  185.4510  178.4030  138.9300 N   0  0  0  0  0  0  0  0  0  0  0  0
  185.8230  177.7660  137.8550 C   0  0  0  0  0  0  0  0  0  0  0  0
  182.5900  178.5210  141.5290 C   0  0  0  0  0  2  0  0  0  0  0  0
  184.0720  178.5750  139.3830 C   0  0  1  0  0  3  0  0  0  0  0  0
  181.7950  179.0640  137.6860 O   0  0  0  0  0  1  0  0  0  0  0  0
  181.4130  178.3810  140.5770 C   0  0  2  0  0  3  0  0  0  0  0  0
  181.1640  179.7300  139.9080 C   0  0  0  0  0  2  0  0  0  0  0  0
  183.9470  178.2190  140.8820 C   0  0  1  0  0  3  0  0  0  0  0  0
  182.0740  179.9760  138.7070 C   0  0  1  0  0  3  0  0  0  0  0  0
  183.5640  179.9800  139.0560 C   0  0  0  0  0  2  0  0  0  0  0  0
  185.6780  179.7540  141.3210 O   0  0  0  0  0  0  0  0  0  0  0  0
  185.0550  178.7870  141.7250 C   0  0  0  0  0  0  0  0  0  0  0  0
  186.6840  177.6110  142.9730 O   0  0  0  0  0  1  0  0  0  0  0  0
  185.4100  178.1750  143.0420 C   0  0  0  0  0  2  0  0  0  0  0  0
  180.1880  177.9790  141.3750 C   0  0  0  0  0  2  0  0  0  0  0  0
  180.3060  178.4320  142.6900 O   0  0  0  0  0  1  0  0  0  0  0  0
  182.9790  175.3760  137.0230 C   0  0  0  0  0  2  0  0  0  0  0  0
  184.0570  176.6380  134.5940 C   0  0  0  0  0  2  0  0  0  0  0  0
  184.7780  177.1020  136.9890 C   0  0  0  0  0  3  0  0  0  0  0  0
  184.3760  175.7230  137.5130 C   0  0  0  0  0  2  0  0  0  0  0  0
  183.9820  175.1200  134.6530 C   0  0  0  0  0  2  0  0  0  0  0  0
  185.1700  177.1320  135.5090 C   0  0  0  0  0  2  0  0  0  0  0  0
  182.9840  174.6120  135.6970 C   0  0  0  0  0  2  0  0  0  0  0  0
  188.0890  178.6310  136.9790 C   0  0  0  0  0  0  0  0  0  0  0  0
  189.4160  178.4010  136.7930 N   0  0  0  0  0  0  0  0  0  0  0  0
  189.2880  176.2870  137.7950 C   0  0  0  0  0  3  0  0  0  0  0  0
  189.9970  177.2670  137.1830 N   0  0  0  0  0  0  0  0  0  0  0  0
  187.9270  176.4640  138.0130 C   0  0  0  0  0  3  0  0  0  0  0  0
  187.5560  179.8890  136.5800 N   0  0  0  0  0  1  0  0  0  0  0  0
  187.2910  177.6420  137.6010 C   0  0  0  0  0  0  0  0  0  0  0  0
  2  1  2  0  0  0  0
  4  1  1  1  0  0  0
  4  8  1  0  0  0  0
  6 15  1  1  0  0  0
  6  3  1  0  0  0  0
  7  6  1  0  0  0  0
  8  3  1  0  0  0  0
  8 12  1  1  0  0  0
  9  5  1  6  0  0  0
  9 10  1  0  0  0  0
  9  7  1  0  0  0  0
 10  4  1  0  0  0  0
 11 12  2  0  0  0  0
 12 14  1  0  0  0  0
 13 14  1  0  0  0  0
 15 16  1  0  0  0  0
 17 20  1  0  0  0  0
 18 21  1  0  0  0  0
 18 22  1  0  0  0  0
 19 20  1  0  0  0  0
 19  2  1  0  0  0  0
 21 23  1  0  0  0  0
 22 19  1  0  0  0  0
 23 17  1  0  0  0  0
 24 30  1  0  0  0  0
 25 24  2  0  0  0  0
 25 27  1  0  0  0  0
 26 28  1  0  0  0  0
 27 26  2  0  0  0  0
 29 24  1  0  0  0  0
 30  2  1  0  0  0  0
 30 28  2  0  0  0  0
M  END
>  <MODEL>
9

>  <REMARK>
 VINA RESULT:      -6.1      3.884      8.276
  Name = 
  6 active torsions:
  status: ('A' for Active; 'I' for Inactive)
    1  A    between atoms: C_4  and  N_23
    2  A    between atoms: C_5  and  C_29
    3  A    between atoms: C_12  and  C_15
    4  A    between atoms: C_13  and  C_18
    5  A    between atoms: C_13  and  C_19
    6  A    between atoms: C_27  and  C_29
                            x       y       z     vdW  Elec       q    Type
                         _______ _______ _______ _____ _____    ______ ____

>  <TORSDO>
F 6

$$$$
