=
 OpenBabel11062413513D

 25 27  0  0  1  0  0  0  0  0999 V2000
  191.2980  178.1670  143.0990 C   0  0  0  0  0  2  0  0  0  0  0  0
  190.2450  176.7880  142.5590 S   0  0  0  0  0  0  0  0  0  0  0  0
  188.7470  177.8200  142.4620 C   0  0  0  0  0  2  0  0  0  0  0  0
  188.4290  178.1780  141.0190 C   0  0  0  0  0  2  0  0  0  0  0  0
  188.9980  179.2180  137.1050 C   0  0  0  0  0  2  0  0  0  0  0  0
  188.5310  177.1250  138.8130 C   0  0  2  0  0  3  0  0  0  0  0  0
  188.7440  176.5910  137.4060 C   0  0  1  0  0  3  0  0  0  0  0  0
  189.6670  178.0870  138.8860 N   0  0  1  0  0  0  0  0  0  0  0  0
  189.0130  179.2260  138.5370 O   0  0  0  0  0  0  0  0  0  0  0  0
  188.7910  177.8150  136.4980 C   0  0  0  0  0  0  0  0  0  0  0  0
  189.2580  177.3290  140.0660 C   0  0  1  0  0  3  0  0  0  0  0  0
  189.9310  175.8610  137.3130 O   0  0  0  0  0  1  0  0  0  0  0  0
  188.6900  177.6830  135.2890 O   0  0  0  0  0  0  0  0  0  0  0  0
  191.0990  178.4140  144.5790 C   0  0  0  0  0  2  0  0  0  0  0  0
  191.2690  177.1330  145.3270 C   0  0  0  0  0  3  0  0  0  0  0  0
  190.4540  176.7040  146.2490 N   0  0  0  0  0  0  0  0  0  0  0  0
  189.2310  177.7840  148.0620 C   0  0  0  0  0  3  0  0  0  0  0  0
  186.9530  178.0800  146.4990 C   0  0  0  0  0  0  0  0  0  0  0  0
  188.0960  177.4750  145.9640 C   0  0  0  0  0  3  0  0  0  0  0  0
  186.9870  178.5250  147.8240 C   0  0  0  0  0  3  0  0  0  0  0  0
  188.1130  178.3690  148.5700 N   0  0  0  0  0  0  0  0  0  0  0  0
  189.2520  177.3210  146.7430 C   0  0  0  0  0  0  0  0  0  0  0  0
  185.7380  178.2440  145.6860 C   0  0  0  0  0  0  0  0  0  0  0  0
  184.6050  178.8340  146.2330 O   0  0  0  0  0  1  0  0  0  0  0  0
  185.7130  177.8520  144.4890 O   0  0  0  0  0  0  0  0  0  0  0  0
  1 14  1  0  0  0  0
  2  1  1  0  0  0  0
  3  2  1  0  0  0  0
  4  3  1  0  0  0  0
  5  9  1  0  0  0  0
  6  8  1  0  0  0  0
  6 11  1  0  0  0  0
  7  6  1  0  0  0  0
  8 11  1  0  0  0  0
  9  8  1  0  0  0  0
 10  5  1  0  0  0  0
 10  7  1  0  0  0  0
 11  4  1  0  0  0  0
 12  7  1  0  0  0  0
 13 10  2  0  0  0  0
 14 15  1  0  0  0  0
 15 16  2  0  0  0  0
 16 22  1  0  0  0  0
 17 21  1  0  0  0  0
 18 20  1  0  0  0  0
 19 18  2  0  0  0  0
 19 22  1  0  0  0  0
 20 21  2  0  0  0  0
 22 17  2  0  0  0  0
 23 24  1  0  0  0  0
 23 18  1  0  0  0  0
 25 23  2  0  0  0  0
M  END
>  <MODEL>
1

>  <REMARK>
 VINA RESULT:      -7.2      0.000      0.000
  Name = 
  8 active torsions:
  status: ('A' for Active; 'I' for Inactive)
    1  A    between atoms: S_1  and  C_4
    2  A    between atoms: S_1  and  C_14
    3  A    between atoms: C_2  and  C_5
    4  A    between atoms: C_4  and  C_18
    5  A    between atoms: C_5  and  C_14
    6  A    between atoms: C_6  and  C_10
    7  A    between atoms: N_12  and  C_22
    8  A    between atoms: C_18  and  C_23
                            x       y       z     vdW  Elec       q    Type
                         _______ _______ _______ _____ _____    ______ ____

>  <TORSDO>
F 8

$$$$
=
 OpenBabel11062413513D

 25 27  0  0  1  0  0  0  0  0999 V2000
  190.3090  177.0370  144.1490 C   0  0  0  0  0  2  0  0  0  0  0  0
  189.2880  176.1900  142.9060 S   0  0  0  0  0  0  0  0  0  0  0  0
  189.8830  177.2380  141.5390 C   0  0  0  0  0  2  0  0  0  0  0  0
  188.7220  177.9340  140.8480 C   0  0  0  0  0  2  0  0  0  0  0  0
  185.8600  178.1940  137.9370 C   0  0  0  0  0  2  0  0  0  0  0  0
  188.3790  177.2800  138.5150 C   0  0  2  0  0  3  0  0  0  0  0  0
  188.0840  177.0490  137.0420 C   0  0  1  0  0  3  0  0  0  0  0  0
  187.8990  178.6850  138.6450 N   0  0  1  0  0  0  0  0  0  0  0  0
  186.6450  178.4460  139.1090 O   0  0  0  0  0  0  0  0  0  0  0  0
  186.6100  177.3910  136.8540 C   0  0  0  0  0  0  0  0  0  0  0  0
  189.0670  178.2250  139.3940 C   0  0  1  0  0  3  0  0  0  0  0  0
  188.8860  177.8530  136.2290 O   0  0  0  0  0  1  0  0  0  0  0  0
  186.0290  177.0520  135.8350 O   0  0  0  0  0  0  0  0  0  0  0  0
  189.4390  177.9460  144.9920 C   0  0  0  0  0  2  0  0  0  0  0  0
  188.9080  177.1860  146.1620 C   0  0  0  0  0  3  0  0  0  0  0  0
  187.6560  177.1710  146.5230 N   0  0  0  0  0  0  0  0  0  0  0  0
  185.5580  178.3960  146.7450 C   0  0  0  0  0  3  0  0  0  0  0  0
  185.2660  178.6130  143.9910 C   0  0  0  0  0  0  0  0  0  0  0  0
  186.3780  177.9550  144.5270 C   0  0  0  0  0  3  0  0  0  0  0  0
  184.3180  179.1520  144.8670 C   0  0  0  0  0  3  0  0  0  0  0  0
  184.4820  179.0320  146.2110 N   0  0  0  0  0  0  0  0  0  0  0  0
  186.5370  177.8400  145.9150 C   0  0  0  0  0  0  0  0  0  0  0  0
  185.0940  178.7360  142.5350 C   0  0  0  0  0  0  0  0  0  0  0  0
  184.3150  177.8170  141.8420 O   0  0  0  0  0  0  0  0  0  0  0  0
  185.6480  179.6750  141.9040 O   0  0  0  0  0  1  0  0  0  0  0  0
  1 14  1  0  0  0  0
  2  1  1  0  0  0  0
  3  2  1  0  0  0  0
  4  3  1  0  0  0  0
  5  9  1  0  0  0  0
  6  8  1  0  0  0  0
  6 11  1  0  0  0  0
  7  6  1  0  0  0  0
  8  9  1  0  0  0  0
  8 11  1  0  0  0  0
 10  7  1  0  0  0  0
 10  5  1  0  0  0  0
 11  4  1  0  0  0  0
 12  7  1  0  0  0  0
 13 10  2  0  0  0  0
 14 15  1  0  0  0  0
 15 16  2  0  0  0  0
 18 19  2  0  0  0  0
 18 20  1  0  0  0  0
 19 22  1  0  0  0  0
 20 21  2  0  0  0  0
 21 17  1  0  0  0  0
 22 16  1  0  0  0  0
 22 17  2  0  0  0  0
 23 18  1  0  0  0  0
 24 23  2  0  0  0  0
 25 23  1  0  0  0  0
M  END
>  <MODEL>
2

>  <REMARK>
 VINA RESULT:      -7.2      2.096      2.705
  Name = 
  8 active torsions:
  status: ('A' for Active; 'I' for Inactive)
    1  A    between atoms: S_1  and  C_4
    2  A    between atoms: S_1  and  C_14
    3  A    between atoms: C_2  and  C_5
    4  A    between atoms: C_4  and  C_18
    5  A    between atoms: C_5  and  C_14
    6  A    between atoms: C_6  and  C_10
    7  A    between atoms: N_12  and  C_22
    8  A    between atoms: C_18  and  C_23
                            x       y       z     vdW  Elec       q    Type
                         _______ _______ _______ _____ _____    ______ ____

>  <TORSDO>
F 8

$$$$
=
 OpenBabel11062413513D

 25 27  0  0  1  0  0  0  0  0999 V2000
  190.4310  176.8500  140.6690 C   0  0  0  0  0  2  0  0  0  0  0  0
  188.9220  177.6840  140.0920 S   0  0  0  0  0  0  0  0  0  0  0  0
  188.1750  177.7250  141.7530 C   0  0  0  0  0  2  0  0  0  0  0  0
  186.9170  178.5770  141.7590 C   0  0  0  0  0  2  0  0  0  0  0  0
  182.8340  178.3960  141.5960 C   0  0  0  0  0  2  0  0  0  0  0  0
  184.9730  179.2260  143.0960 C   0  0  2  0  0  3  0  0  0  0  0  0
  183.6890  179.4580  143.8750 C   0  0  1  0  0  3  0  0  0  0  0  0
  184.7200  177.8400  142.6110 N   0  0  1  0  0  0  0  0  0  0  0  0
  184.2240  178.1260  141.3780 O   0  0  0  0  0  0  0  0  0  0  0  0
  182.5510  179.1650  142.9030 C   0  0  0  0  0  0  0  0  0  0  0  0
  186.0680  178.2640  142.9840 C   0  0  1  0  0  3  0  0  0  0  0  0
  183.6130  178.6200  144.9910 O   0  0  0  0  0  1  0  0  0  0  0  0
  181.4140  179.5170  143.1700 O   0  0  0  0  0  0  0  0  0  0  0  0
  190.4680  176.8470  142.1820 C   0  0  0  0  0  2  0  0  0  0  0  0
  191.4590  177.8550  142.6610 C   0  0  0  0  0  3  0  0  0  0  0  0
  191.6360  178.1790  143.9100 N   0  0  0  0  0  0  0  0  0  0  0  0
  191.6540  176.7990  145.9220 C   0  0  0  0  0  3  0  0  0  0  0  0
  189.0310  177.4740  146.5420 C   0  0  0  0  0  0  0  0  0  0  0  0
  189.6390  178.0020  145.3980 C   0  0  0  0  0  3  0  0  0  0  0  0
  189.7700  176.6080  147.3550 C   0  0  0  0  0  3  0  0  0  0  0  0
  191.0520  176.2920  147.0310 N   0  0  0  0  0  0  0  0  0  0  0  0
  190.9620  177.6700  145.0750 C   0  0  0  0  0  0  0  0  0  0  0  0
  187.6430  177.8190  146.8850 C   0  0  0  0  0  0  0  0  0  0  0  0
  187.3670  178.5520  148.0340 O   0  0  0  0  0  1  0  0  0  0  0  0
  186.6930  177.4560  146.1420 O   0  0  0  0  0  0  0  0  0  0  0  0
  1 14  1  0  0  0  0
  2  1  1  0  0  0  0
  2  3  1  0  0  0  0
  3  4  1  0  0  0  0
  4 11  1  0  0  0  0
  5 10  1  0  0  0  0
  6  7  1  0  0  0  0
  7 12  1  0  0  0  0
  8 11  1  0  0  0  0
  8  6  1  0  0  0  0
  9  5  1  0  0  0  0
  9  8  1  0  0  0  0
 10 13  2  0  0  0  0
 10  7  1  0  0  0  0
 11  6  1  0  0  0  0
 14 15  1  0  0  0  0
 15 16  2  0  0  0  0
 16 22  1  0  0  0  0
 17 21  1  0  0  0  0
 18 23  1  0  0  0  0
 18 20  1  0  0  0  0
 19 18  2  0  0  0  0
 21 20  2  0  0  0  0
 22 19  1  0  0  0  0
 22 17  2  0  0  0  0
 23 24  1  0  0  0  0
 25 23  2  0  0  0  0
M  END
>  <MODEL>
3

>  <REMARK>
 VINA RESULT:      -7.1      3.363      5.234
  Name = 
  8 active torsions:
  status: ('A' for Active; 'I' for Inactive)
    1  A    between atoms: S_1  and  C_4
    2  A    between atoms: S_1  and  C_14
    3  A    between atoms: C_2  and  C_5
    4  A    between atoms: C_4  and  C_18
    5  A    between atoms: C_5  and  C_14
    6  A    between atoms: C_6  and  C_10
    7  A    between atoms: N_12  and  C_22
    8  A    between atoms: C_18  and  C_23
                            x       y       z     vdW  Elec       q    Type
                         _______ _______ _______ _____ _____    ______ ____

>  <TORSDO>
F 8

$$$$
=
 OpenBabel11062413513D

 25 27  0  0  1  0  0  0  0  0999 V2000
  183.9100  178.8800  143.7390 C   0  0  0  0  0  2  0  0  0  0  0  0
  184.1410  178.5840  141.9610 S   0  0  0  0  0  0  0  0  0  0  0  0
  185.9080  179.0260  142.0020 C   0  0  0  0  0  2  0  0  0  0  0  0
  186.5940  178.6320  140.7040 C   0  0  0  0  0  2  0  0  0  0  0  0
  189.1830  178.3080  137.5540 C   0  0  0  0  0  2  0  0  0  0  0  0
  188.6710  177.4800  140.1160 C   0  0  2  0  0  3  0  0  0  0  0  0
  190.0150  176.9310  139.6670 C   0  0  1  0  0  3  0  0  0  0  0  0
  188.8140  178.8900  139.6570 N   0  0  1  0  0  0  0  0  0  0  0  0
  188.1830  178.7960  138.4580 O   0  0  0  0  0  0  0  0  0  0  0  0
  190.1260  177.2620  138.1830 C   0  0  0  0  0  0  0  0  0  0  0  0
  188.1030  178.5800  140.8950 C   0  0  1  0  0  3  0  0  0  0  0  0
  191.0660  177.5100  140.3820 O   0  0  0  0  0  1  0  0  0  0  0  0
  190.9770  176.7190  137.4980 O   0  0  0  0  0  0  0  0  0  0  0  0
  185.1570  178.4680  144.4930 C   0  0  0  0  0  2  0  0  0  0  0  0
  184.9310  178.6310  145.9590 C   0  0  0  0  0  3  0  0  0  0  0  0
  185.8320  178.4030  146.8730 N   0  0  0  0  0  0  0  0  0  0  0  0
  187.9380  177.6440  147.8420 C   0  0  0  0  0  3  0  0  0  0  0  0
  189.1410  177.4400  145.3460 C   0  0  0  0  0  0  0  0  0  0  0  0
  187.8120  177.8640  145.4500 C   0  0  0  0  0  3  0  0  0  0  0  0
  189.8390  177.1260  146.5160 C   0  0  0  0  0  3  0  0  0  0  0  0
  189.2300  177.2340  147.7270 N   0  0  0  0  0  0  0  0  0  0  0  0
  187.1940  177.9700  146.7040 C   0  0  0  0  0  0  0  0  0  0  0  0
  189.7950  177.3280  144.0330 C   0  0  0  0  0  0  0  0  0  0  0  0
  190.5430  178.3860  143.5310 O   0  0  0  0  0  1  0  0  0  0  0  0
  189.6840  176.2730  143.3520 O   0  0  0  0  0  0  0  0  0  0  0  0
  1 14  1  0  0  0  0
  2  3  1  0  0  0  0
  2  1  1  0  0  0  0
  4 11  1  0  0  0  0
  4  3  1  0  0  0  0
  5 10  1  0  0  0  0
  5  9  1  0  0  0  0
  6 11  1  0  0  0  0
  7  6  1  0  0  0  0
  7 12  1  0  0  0  0
  8  6  1  0  0  0  0
  8 11  1  0  0  0  0
  9  8  1  0  0  0  0
 10  7  1  0  0  0  0
 13 10  2  0  0  0  0
 14 15  1  0  0  0  0
 15 16  2  0  0  0  0
 18 19  2  0  0  0  0
 18 20  1  0  0  0  0
 19 22  1  0  0  0  0
 20 21  2  0  0  0  0
 21 17  1  0  0  0  0
 22 16  1  0  0  0  0
 22 17  2  0  0  0  0
 23 18  1  0  0  0  0
 24 23  1  0  0  0  0
 25 23  2  0  0  0  0
M  END
>  <MODEL>
4

>  <REMARK>
 VINA RESULT:      -7.0      2.459      3.841
  Name = 
  8 active torsions:
  status: ('A' for Active; 'I' for Inactive)
    1  A    between atoms: S_1  and  C_4
    2  A    between atoms: S_1  and  C_14
    3  A    between atoms: C_2  and  C_5
    4  A    between atoms: C_4  and  C_18
    5  A    between atoms: C_5  and  C_14
    6  A    between atoms: C_6  and  C_10
    7  A    between atoms: N_12  and  C_22
    8  A    between atoms: C_18  and  C_23
                            x       y       z     vdW  Elec       q    Type
                         _______ _______ _______ _____ _____    ______ ____

>  <TORSDO>
F 8

$$$$
=
 OpenBabel11062413513D

 25 27  0  0  1  0  0  0  0  0999 V2000
  191.1240  178.0350  144.4630 C   0  0  0  0  0  2  0  0  0  0  0  0
  191.2890  176.7400  143.1980 S   0  0  0  0  0  0  0  0  0  0  0  0
  189.8830  177.3580  142.2190 C   0  0  0  0  0  2  0  0  0  0  0  0
  190.1800  177.2710  140.7310 C   0  0  0  0  0  2  0  0  0  0  0  0
  189.4350  176.1740  136.8620 C   0  0  0  0  0  2  0  0  0  0  0  0
  189.5140  178.2870  138.6070 C   0  0  2  0  0  3  0  0  0  0  0  0
  188.9860  178.7610  137.2640 C   0  0  1  0  0  3  0  0  0  0  0  0
  188.7080  177.0430  138.7630 N   0  0  1  0  0  0  0  0  0  0  0  0
  189.6030  176.1400  138.2840 O   0  0  0  0  0  0  0  0  0  0  0  0
  189.1660  177.5880  136.3060 C   0  0  0  0  0  0  0  0  0  0  0  0
  189.0360  177.8680  139.9240 C   0  0  1  0  0  3  0  0  0  0  0  0
  187.6410  179.1290  137.3460 O   0  0  0  0  0  1  0  0  0  0  0  0
  189.0740  177.7620  135.1020 O   0  0  0  0  0  0  0  0  0  0  0  0
  189.6600  178.2560  144.7810 C   0  0  0  0  0  2  0  0  0  0  0  0
  189.2460  177.3440  145.8880 C   0  0  0  0  0  3  0  0  0  0  0  0
  188.0180  177.1930  146.2970 N   0  0  0  0  0  0  0  0  0  0  0  0
  185.9210  178.3600  146.7300 C   0  0  0  0  0  3  0  0  0  0  0  0
  185.3370  178.5470  144.0200 C   0  0  0  0  0  0  0  0  0  0  0  0
  186.5170  177.9240  144.4410 C   0  0  0  0  0  3  0  0  0  0  0  0
  184.4700  179.0660  144.9880 C   0  0  0  0  0  3  0  0  0  0  0  0
  184.7770  178.9620  146.3080 N   0  0  0  0  0  0  0  0  0  0  0  0
  186.8230  177.8250  145.8060 C   0  0  0  0  0  0  0  0  0  0  0  0
  185.0100  178.6540  142.5900 C   0  0  0  0  0  0  0  0  0  0  0  0
  185.6450  179.6010  141.7960 O   0  0  0  0  0  0  0  0  0  0  0  0
  184.1550  177.8880  142.0720 O   0  0  0  0  0  1  0  0  0  0  0  0
  1 14  1  0  0  0  0
  2  1  1  0  0  0  0
  3  2  1  0  0  0  0
  4  3  1  0  0  0  0
  5  9  1  0  0  0  0
  6  8  1  0  0  0  0
  6 11  1  0  0  0  0
  7 12  1  0  0  0  0
  7  6  1  0  0  0  0
  8 11  1  0  0  0  0
  9  8  1  0  0  0  0
 10  5  1  0  0  0  0
 10  7  1  0  0  0  0
 11  4  1  0  0  0  0
 13 10  2  0  0  0  0
 14 15  1  0  0  0  0
 15 16  2  0  0  0  0
 18 19  2  0  0  0  0
 18 20  1  0  0  0  0
 19 22  1  0  0  0  0
 20 21  2  0  0  0  0
 21 17  1  0  0  0  0
 22 16  1  0  0  0  0
 22 17  2  0  0  0  0
 23 18  1  0  0  0  0
 24 23  2  0  0  0  0
 25 23  1  0  0  0  0
M  END
>  <MODEL>
5

>  <REMARK>
 VINA RESULT:      -7.0      1.784      2.625
  Name = 
  8 active torsions:
  status: ('A' for Active; 'I' for Inactive)
    1  A    between atoms: S_1  and  C_4
    2  A    between atoms: S_1  and  C_14
    3  A    between atoms: C_2  and  C_5
    4  A    between atoms: C_4  and  C_18
    5  A    between atoms: C_5  and  C_14
    6  A    between atoms: C_6  and  C_10
    7  A    between atoms: N_12  and  C_22
    8  A    between atoms: C_18  and  C_23
                            x       y       z     vdW  Elec       q    Type
                         _______ _______ _______ _____ _____    ______ ____

>  <TORSDO>
F 8

$$$$
=
 OpenBabel11062413513D

 25 27  0  0  1  0  0  0  0  0999 V2000
  191.1480  178.1640  142.9240 C   0  0  0  0  0  2  0  0  0  0  0  0
  190.3160  176.6000  142.5190 S   0  0  0  0  0  0  0  0  0  0  0  0
  190.2820  176.9500  140.7320 C   0  0  0  0  0  2  0  0  0  0  0  0
  189.1210  177.8660  140.3820 C   0  0  0  0  0  2  0  0  0  0  0  0
  185.6210  178.2820  138.3060 C   0  0  0  0  0  2  0  0  0  0  0  0
  188.1530  177.2340  138.2250 C   0  0  2  0  0  3  0  0  0  0  0  0
  187.4750  177.0220  136.8820 C   0  0  1  0  0  3  0  0  0  0  0  0
  187.7960  178.6620  138.4570 N   0  0  1  0  0  0  0  0  0  0  0  0
  186.6930  178.4900  139.2330 O   0  0  0  0  0  0  0  0  0  0  0  0
  186.0220  177.4420  137.0760 C   0  0  0  0  0  0  0  0  0  0  0  0
  189.0920  178.1410  138.8850 C   0  0  1  0  0  3  0  0  0  0  0  0
  188.0800  177.7840  135.8790 O   0  0  0  0  0  1  0  0  0  0  0  0
  185.1810  177.1360  136.2460 O   0  0  0  0  0  0  0  0  0  0  0  0
  191.0590  178.4200  144.4140 C   0  0  0  0  0  2  0  0  0  0  0  0
  191.3060  177.1490  145.1560 C   0  0  0  0  0  3  0  0  0  0  0  0
  190.5550  176.7030  146.1220 N   0  0  0  0  0  0  0  0  0  0  0  0
  189.3840  177.7050  148.0130 C   0  0  0  0  0  3  0  0  0  0  0  0
  187.0500  178.0270  146.5410 C   0  0  0  0  0  0  0  0  0  0  0  0
  188.1800  177.4550  145.9470 C   0  0  0  0  0  3  0  0  0  0  0  0
  187.1260  178.4270  147.8790 C   0  0  0  0  0  3  0  0  0  0  0  0
  188.2790  178.2590  148.5800 N   0  0  0  0  0  0  0  0  0  0  0  0
  189.3640  177.2880  146.6790 C   0  0  0  0  0  0  0  0  0  0  0  0
  185.8050  178.2030  145.7770 C   0  0  0  0  0  0  0  0  0  0  0  0
  184.6680  178.7060  146.3980 O   0  0  0  0  0  1  0  0  0  0  0  0
  185.7590  177.9020  144.5550 O   0  0  0  0  0  0  0  0  0  0  0  0
  1 14  1  0  0  0  0
  2  1  1  0  0  0  0
  3  2  1  0  0  0  0
  4  3  1  0  0  0  0
  5  9  1  0  0  0  0
  6  8  1  0  0  0  0
  6 11  1  0  0  0  0
  7 10  1  0  0  0  0
  7  6  1  0  0  0  0
  8 11  1  0  0  0  0
  8  9  1  0  0  0  0
 10  5  1  0  0  0  0
 11  4  1  0  0  0  0
 12  7  1  0  0  0  0
 13 10  2  0  0  0  0
 14 15  1  0  0  0  0
 15 16  2  0  0  0  0
 16 22  1  0  0  0  0
 17 21  1  0  0  0  0
 18 20  1  0  0  0  0
 19 18  2  0  0  0  0
 19 22  1  0  0  0  0
 20 21  2  0  0  0  0
 22 17  2  0  0  0  0
 23 24  1  0  0  0  0
 23 18  1  0  0  0  0
 25 23  2  0  0  0  0
M  END
>  <MODEL>
6

>  <REMARK>
 VINA RESULT:      -7.0      1.403      1.639
  Name = 
  8 active torsions:
  status: ('A' for Active; 'I' for Inactive)
    1  A    between atoms: S_1  and  C_4
    2  A    between atoms: S_1  and  C_14
    3  A    between atoms: C_2  and  C_5
    4  A    between atoms: C_4  and  C_18
    5  A    between atoms: C_5  and  C_14
    6  A    between atoms: C_6  and  C_10
    7  A    between atoms: N_12  and  C_22
    8  A    between atoms: C_18  and  C_23
                            x       y       z     vdW  Elec       q    Type
                         _______ _______ _______ _____ _____    ______ ____

>  <TORSDO>
F 8

$$$$
=
 OpenBabel11062413513D

 25 27  0  0  1  0  0  0  0  0999 V2000
  185.5360  178.3290  143.5690 C   0  0  0  0  0  2  0  0  0  0  0  0
  186.2060  178.6180  141.9040 S   0  0  0  0  0  0  0  0  0  0  0  0
  187.8010  177.8250  142.2850 C   0  0  0  0  0  2  0  0  0  0  0  0
  188.6360  177.6590  141.0260 C   0  0  0  0  0  2  0  0  0  0  0  0
  188.9690  176.3010  137.1820 C   0  0  0  0  0  2  0  0  0  0  0  0
  188.9400  178.5400  138.7640 C   0  0  2  0  0  3  0  0  0  0  0  0
  188.9970  178.9540  137.3030 C   0  0  1  0  0  3  0  0  0  0  0  0
  187.8740  177.5020  138.6840 N   0  0  1  0  0  0  0  0  0  0  0  0
  188.6530  176.3940  138.5770 O   0  0  0  0  0  0  0  0  0  0  0  0
  189.2160  177.6680  136.5130 C   0  0  0  0  0  0  0  0  0  0  0  0
  187.9790  178.3720  139.8530 C   0  0  1  0  0  3  0  0  0  0  0  0
  187.8150  179.5830  136.9050 O   0  0  0  0  0  1  0  0  0  0  0  0
  189.5610  177.7210  135.3440 O   0  0  0  0  0  0  0  0  0  0  0  0
  186.5010  177.4780  144.3680 C   0  0  0  0  0  2  0  0  0  0  0  0
  186.3490  177.7800  145.8210 C   0  0  0  0  0  3  0  0  0  0  0  0
  187.3270  177.7710  146.6820 N   0  0  0  0  0  0  0  0  0  0  0  0
  189.4070  176.7170  147.3990 C   0  0  0  0  0  3  0  0  0  0  0  0
  190.7790  177.6540  145.1720 C   0  0  0  0  0  0  0  0  0  0  0  0
  189.4230  177.9570  145.3380 C   0  0  0  0  0  3  0  0  0  0  0  0
  191.4170  176.8780  146.1440 C   0  0  0  0  0  3  0  0  0  0  0  0
  190.7250  176.4310  147.2260 N   0  0  0  0  0  0  0  0  0  0  0  0
  188.7200  177.4890  146.4570 C   0  0  0  0  0  0  0  0  0  0  0  0
  191.5210  178.1440  143.9990 C   0  0  0  0  0  0  0  0  0  0  0  0
  191.9530  177.2540  143.0230 O   0  0  0  0  0  0  0  0  0  0  0  0
  191.7710  179.3720  143.8690 O   0  0  0  0  0  1  0  0  0  0  0  0
  1 14  1  0  0  0  0
  2  3  1  0  0  0  0
  2  1  1  0  0  0  0
  4  3  1  0  0  0  0
  5  9  1  0  0  0  0
  6 11  1  0  0  0  0
  7  6  1  0  0  0  0
  8  6  1  0  0  0  0
  8 11  1  0  0  0  0
  9  8  1  0  0  0  0
 10  5  1  0  0  0  0
 10  7  1  0  0  0  0
 11  4  1  0  0  0  0
 12  7  1  0  0  0  0
 13 10  2  0  0  0  0
 14 15  1  0  0  0  0
 15 16  2  0  0  0  0
 18 19  2  0  0  0  0
 18 20  1  0  0  0  0
 19 22  1  0  0  0  0
 20 21  2  0  0  0  0
 21 17  1  0  0  0  0
 22 16  1  0  0  0  0
 22 17  2  0  0  0  0
 23 18  1  0  0  0  0
 24 23  2  0  0  0  0
 25 23  1  0  0  0  0
M  END
>  <MODEL>
7

>  <REMARK>
 VINA RESULT:      -7.0      2.457      3.817
  Name = 
  8 active torsions:
  status: ('A' for Active; 'I' for Inactive)
    1  A    between atoms: S_1  and  C_4
    2  A    between atoms: S_1  and  C_14
    3  A    between atoms: C_2  and  C_5
    4  A    between atoms: C_4  and  C_18
    5  A    between atoms: C_5  and  C_14
    6  A    between atoms: C_6  and  C_10
    7  A    between atoms: N_12  and  C_22
    8  A    between atoms: C_18  and  C_23
                            x       y       z     vdW  Elec       q    Type
                         _______ _______ _______ _____ _____    ______ ____

>  <TORSDO>
F 8

$$$$
=
 OpenBabel11062413513D

 25 27  0  0  1  0  0  0  0  0999 V2000
  191.8790  178.1550  143.1280 C   0  0  0  0  0  2  0  0  0  0  0  0
  190.8620  177.1910  141.9700 S   0  0  0  0  0  0  0  0  0  0  0  0
  192.0080  177.4440  140.5760 C   0  0  0  0  0  2  0  0  0  0  0  0
  191.3070  177.2030  139.2490 C   0  0  0  0  0  2  0  0  0  0  0  0
  188.3440  175.6270  136.9110 C   0  0  0  0  0  2  0  0  0  0  0  0
  189.3690  177.9460  137.9530 C   0  0  2  0  0  3  0  0  0  0  0  0
  188.0740  178.2520  137.2200 C   0  0  1  0  0  3  0  0  0  0  0  0
  188.9390  176.7470  138.7250 N   0  0  1  0  0  0  0  0  0  0  0  0
  189.3830  175.7740  137.8860 O   0  0  0  0  0  0  0  0  0  0  0  0
  187.6840  176.9610  136.5060 C   0  0  0  0  0  0  0  0  0  0  0  0
  189.8720  177.7090  139.3060 C   0  0  1  0  0  3  0  0  0  0  0  0
  187.0690  178.6490  138.1050 O   0  0  0  0  0  1  0  0  0  0  0  0
  186.8330  176.9800  135.6320 O   0  0  0  0  0  0  0  0  0  0  0  0
  191.0520  178.5390  144.3370 C   0  0  0  0  0  2  0  0  0  0  0  0
  190.8870  177.3520  145.2270 C   0  0  0  0  0  3  0  0  0  0  0  0
  189.7410  176.8080  145.5250 N   0  0  0  0  0  0  0  0  0  0  0  0
  188.0330  176.8710  143.7850 C   0  0  0  0  0  3  0  0  0  0  0  0
  186.2490  178.2240  145.4300 C   0  0  0  0  0  0  0  0  0  0  0  0
  187.5160  177.8740  145.9090 C   0  0  0  0  0  3  0  0  0  0  0  0
  185.9090  177.8800  144.1180 C   0  0  0  0  0  3  0  0  0  0  0  0
  186.7980  177.2180  143.3310 N   0  0  0  0  0  0  0  0  0  0  0  0
  188.4240  177.1900  145.0880 C   0  0  0  0  0  0  0  0  0  0  0  0
  185.2920  178.9420  146.2870 C   0  0  0  0  0  0  0  0  0  0  0  0
  183.9490  179.0060  145.9360 O   0  0  0  0  0  0  0  0  0  0  0  0
  185.6810  179.5040  147.3450 O   0  0  0  0  0  1  0  0  0  0  0  0
  1 14  1  0  0  0  0
  2  1  1  0  0  0  0
  3  2  1  0  0  0  0
  4 11  1  0  0  0  0
  4  3  1  0  0  0  0
  5  9  1  0  0  0  0
  6  8  1  0  0  0  0
  6 11  1  0  0  0  0
  7  6  1  0  0  0  0
  7 12  1  0  0  0  0
  8 11  1  0  0  0  0
  9  8  1  0  0  0  0
 10  5  1  0  0  0  0
 10  7  1  0  0  0  0
 13 10  2  0  0  0  0
 14 15  1  0  0  0  0
 15 16  2  0  0  0  0
 17 22  1  0  0  0  0
 18 19  1  0  0  0  0
 18 23  1  0  0  0  0
 20 18  2  0  0  0  0
 21 17  2  0  0  0  0
 21 20  1  0  0  0  0
 22 16  1  0  0  0  0
 22 19  2  0  0  0  0
 23 25  1  0  0  0  0
 24 23  2  0  0  0  0
M  END
>  <MODEL>
8

>  <REMARK>
 VINA RESULT:      -6.7      1.652      2.615
  Name = 
  8 active torsions:
  status: ('A' for Active; 'I' for Inactive)
    1  A    between atoms: S_1  and  C_4
    2  A    between atoms: S_1  and  C_14
    3  A    between atoms: C_2  and  C_5
    4  A    between atoms: C_4  and  C_18
    5  A    between atoms: C_5  and  C_14
    6  A    between atoms: C_6  and  C_10
    7  A    between atoms: N_12  and  C_22
    8  A    between atoms: C_18  and  C_23
                            x       y       z     vdW  Elec       q    Type
                         _______ _______ _______ _____ _____    ______ ____

>  <TORSDO>
F 8

$$$$
=
 OpenBabel11062413513D

 25 27  0  0  1  0  0  0  0  0999 V2000
  188.0370  177.5090  144.7930 C   0  0  0  0  0  2  0  0  0  0  0  0
  188.3380  176.3830  143.3990 S   0  0  0  0  0  0  0  0  0  0  0  0
  189.5720  177.4810  142.6310 C   0  0  0  0  0  2  0  0  0  0  0  0
  189.1020  177.9510  141.2650 C   0  0  0  0  0  2  0  0  0  0  0  0
  188.7690  178.9870  137.3220 C   0  0  0  0  0  2  0  0  0  0  0  0
  188.9090  176.8820  139.0720 C   0  0  2  0  0  3  0  0  0  0  0  0
  188.9120  176.3550  137.6470 C   0  0  1  0  0  3  0  0  0  0  0  0
  189.9060  177.9790  138.9310 N   0  0  1  0  0  0  0  0  0  0  0  0
  189.0590  179.0220  138.7240 O   0  0  0  0  0  0  0  0  0  0  0  0
  188.6280  177.5590  136.7550 C   0  0  0  0  0  0  0  0  0  0  0  0
  189.8310  177.1960  140.1620 C   0  0  1  0  0  3  0  0  0  0  0  0
  190.1420  175.7780  137.3200 O   0  0  0  0  0  1  0  0  0  0  0  0
  188.3140  177.3940  135.5880 O   0  0  0  0  0  0  0  0  0  0  0  0
  186.6230  177.3250  145.3030 C   0  0  0  0  0  2  0  0  0  0  0  0
  186.1330  178.6070  145.8900 C   0  0  0  0  0  3  0  0  0  0  0  0
  185.2170  179.3610  145.3510 N   0  0  0  0  0  0  0  0  0  0  0  0
  183.1290  178.8330  144.2060 C   0  0  0  0  0  3  0  0  0  0  0  0
  184.3190  179.0380  141.7040 C   0  0  0  0  0  0  0  0  0  0  0  0
  185.0770  179.2540  142.8610 C   0  0  0  0  0  3  0  0  0  0  0  0
  182.9640  178.7200  141.8400 C   0  0  0  0  0  3  0  0  0  0  0  0
  182.4030  178.6250  143.0750 N   0  0  0  0  0  0  0  0  0  0  0  0
  184.4870  179.1540  144.1280 C   0  0  0  0  0  0  0  0  0  0  0  0
  184.9330  179.1410  140.3710 C   0  0  0  0  0  0  0  0  0  0  0  0
  184.2740  179.8100  139.3470 O   0  0  0  0  0  0  0  0  0  0  0  0
  186.0600  178.6250  140.1470 O   0  0  0  0  0  1  0  0  0  0  0  0
  1 14  1  0  0  0  0
  2  1  1  0  0  0  0
  3  2  1  0  0  0  0
  4  3  1  0  0  0  0
  5  9  1  0  0  0  0
  6 11  1  0  0  0  0
  7  6  1  0  0  0  0
  8  6  1  0  0  0  0
  8 11  1  0  0  0  0
  9  8  1  0  0  0  0
 10  5  1  0  0  0  0
 10  7  1  0  0  0  0
 11  4  1  0  0  0  0
 12  7  1  0  0  0  0
 13 10  2  0  0  0  0
 14 15  1  0  0  0  0
 16 15  2  0  0  0  0
 18 20  2  0  0  0  0
 18 19  1  0  0  0  0
 19 22  2  0  0  0  0
 20 21  1  0  0  0  0
 21 17  2  0  0  0  0
 22 17  1  0  0  0  0
 22 16  1  0  0  0  0
 23 18  1  0  0  0  0
 24 23  2  0  0  0  0
 25 23  1  0  0  0  0
M  END
>  <MODEL>
9

>  <REMARK>
 VINA RESULT:      -6.6      2.875      4.284
  Name = 
  8 active torsions:
  status: ('A' for Active; 'I' for Inactive)
    1  A    between atoms: S_1  and  C_4
    2  A    between atoms: S_1  and  C_14
    3  A    between atoms: C_2  and  C_5
    4  A    between atoms: C_4  and  C_18
    5  A    between atoms: C_5  and  C_14
    6  A    between atoms: C_6  and  C_10
    7  A    between atoms: N_12  and  C_22
    8  A    between atoms: C_18  and  C_23
                            x       y       z     vdW  Elec       q    Type
                         _______ _______ _______ _____ _____    ______ ____

>  <TORSDO>
F 8

$$$$
