=
 OpenBabel11062413423D

 35 39  0  0  1  0  0  0  0  0999 V2000
  184.7680  178.8620  142.5980 C   0  0  1  0  0  0  0  0  0  0  0  0
  183.5470  179.3610  144.6580 C   0  0  0  0  0  3  0  0  0  0  0  0
  185.5820  179.7500  141.7640 N   0  0  0  0  0  2  0  0  0  0  0  0
  185.9580  178.3290  141.9300 C   0  0  1  0  0  3  0  0  0  0  0  0
  184.7250  179.3100  144.0290 C   0  0  0  0  0  3  0  0  0  0  0  0
  182.3220  179.0210  143.9860 N   0  0  0  0  0  0  0  0  0  0  0  0
  183.4860  178.5840  141.9620 N   0  0  0  0  0  2  0  0  0  0  0  0
  182.2710  178.6690  142.7320 C   0  0  0  0  0  0  0  0  0  0  0  0
  189.6310  177.2070  143.9450 C   0  0  0  0  0  3  0  0  0  0  0  0
  187.1850  178.2260  142.8390 C   0  0  2  0  0  3  0  0  0  0  0  0
  188.4740  178.3500  142.0160 C   0  0  1  0  0  3  0  0  0  0  0  0
  187.1600  176.9140  143.6340 C   0  0  0  0  0  2  0  0  0  0  0  0
  188.4840  176.6000  144.2860 C   0  0  0  0  0  3  0  0  0  0  0  0
  189.6870  178.3310  142.9520 C   0  0  0  0  0  2  0  0  0  0  0  0
  188.5570  177.2760  141.0250 N   0  0  0  0  0  2  0  0  0  0  0  0
  190.2590  176.5400  139.4540 C   0  0  0  0  0  2  0  0  0  0  0  0
  191.0600  176.8920  138.1930 C   0  0  2  0  0  3  0  0  0  0  0  0
  189.2510  178.4770  137.4430 C   0  0  0  0  0  2  0  0  0  0  0  0
  188.5480  178.1810  138.7320 C   0  0  0  0  0  0  0  0  0  0  0  0
  190.1160  177.2840  137.0520 C   0  0  0  0  0  2  0  0  0  0  0  0
  187.3410  178.3450  138.8230 O   0  0  0  0  0  0  0  0  0  0  0  0
  189.3800  177.7110  139.9030 C   0  0  1  0  0  3  0  0  0  0  0  0
  191.8230  175.7910  137.8010 O   0  0  0  0  0  0  0  0  0  0  0  0
  193.0770  176.3100  137.4730 C   0  0  0  0  0  1  0  0  0  0  0  0
  180.9470  177.8770  140.8910 C   0  0  0  0  0  0  0  0  0  0  0  0
  180.9800  178.3080  142.1230 C   0  0  0  0  0  0  0  0  0  0  0  0
  180.9730  177.4050  139.6710 C   0  0  0  0  0  3  0  0  0  0  0  0
  179.8390  178.1180  142.9500 N   0  0  0  0  0  1  0  0  0  0  0  0
  179.5480  175.4770  140.1470 C   0  0  0  0  0  3  0  0  0  0  0  0
  179.0420  174.1260  139.8420 C   0  0  0  0  0  3  0  0  0  0  0  0
  180.8410  175.4640  138.0240 C   0  0  0  0  0  2  0  0  0  0  0  0
  181.1030  173.2530  137.1410 O   0  0  0  0  0  0  0  0  0  0  0  0
  180.4300  176.0830  139.3360 C   0  0  0  0  0  0  0  0  0  0  0  0
  180.5100  173.9970  137.9680 C   0  0  0  0  0  0  0  0  0  0  0  0
  179.5110  173.4490  138.8350 N   0  0  0  0  0  0  0  0  0  0  0  0
  1  5  1  1  0  0  0
  3  1  1  0  0  0  0
  4  3  1  6  0  0  0
  4  1  1  0  0  0  0
  4 10  1  0  0  0  0
  5  2  2  0  0  0  0
  6  2  1  0  0  0  0
  7  1  1  0  0  0  0
  7  8  1  0  0  0  0
  8  6  2  0  0  0  0
  9 13  2  0  0  0  0
 10 12  1  6  0  0  0
 11 15  1  6  0  0  0
 11 10  1  0  0  0  0
 11 14  1  0  0  0  0
 12 13  1  0  0  0  0
 14  9  1  0  0  0  0
 16 22  1  0  0  0  0
 17 23  1  6  0  0  0
 17 16  1  0  0  0  0
 18 19  1  0  0  0  0
 19 21  2  0  0  0  0
 19 22  1  0  0  0  0
 20 18  1  0  0  0  0
 20 17  1  0  0  0  0
 22 15  1  1  0  0  0
 24 23  1  0  0  0  0
 25 26  2  0  0  0  0
 26  8  1  0  0  0  0
 26 28  1  0  0  0  0
 27 25  2  0  0  0  0
 30 29  1  0  0  0  0
 31 33  1  0  0  0  0
 32 34  2  0  0  0  0
 33 27  1  0  0  0  0
 33 29  2  0  0  0  0
 34 31  1  0  0  0  0
 34 35  1  0  0  0  0
 35 30  2  0  0  0  0
M  END
>  <MODEL>
1

>  <REMARK>
 VINA RESULT:      -8.3      0.000      0.000
  Name = 
  6 active torsions:
  status: ('A' for Active; 'I' for Inactive)
    1  A    between atoms: C_3  and  O_17
    2  A    between atoms: C_9  and  C_31
    3  A    between atoms: C_11  and  C_24
    4  A    between atoms: C_12  and  C_16
    5  A    between atoms: N_14  and  C_19
    6  A    between atoms: N_14  and  C_35
                            x       y       z     vdW  Elec       q    Type
                         _______ _______ _______ _____ _____    ______ ____

>  <TORSDO>
F 6

$$$$
=
 OpenBabel11062413423D

 35 39  0  0  1  0  0  0  0  0999 V2000
  184.1190  178.5470  139.5540 C   0  0  1  0  0  0  0  0  0  0  0  0
  182.0600  179.0930  138.3520 C   0  0  0  0  0  3  0  0  0  0  0  0
  185.2700  179.4020  139.8580 N   0  0  0  0  0  2  0  0  0  0  0  0
  184.8370  178.3650  140.8190 C   0  0  1  0  0  3  0  0  0  0  0  0
  182.8530  179.3360  139.4000 C   0  0  0  0  0  3  0  0  0  0  0  0
  182.4090  178.1130  137.3590 N   0  0  0  0  0  0  0  0  0  0  0  0
  184.4390  177.6080  138.4850 N   0  0  0  0  0  2  0  0  0  0  0  0
  183.5130  177.4210  137.3970 C   0  0  0  0  0  0  0  0  0  0  0  0
  183.1580  179.3790  144.6880 C   0  0  0  0  0  3  0  0  0  0  0  0
  184.1550  179.0300  142.0180 C   0  0  2  0  0  3  0  0  0  0  0  0
  185.1600  179.2350  143.1590 C   0  0  1  0  0  3  0  0  0  0  0  0
  182.9500  178.2020  142.4830 C   0  0  0  0  0  2  0  0  0  0  0  0
  182.4470  178.6160  143.8440 C   0  0  0  0  0  3  0  0  0  0  0  0
  184.4830  179.9780  144.3150 C   0  0  0  0  0  2  0  0  0  0  0  0
  185.7010  177.9490  143.6040 N   0  0  0  0  0  2  0  0  0  0  0  0
  186.8000  177.5570  145.7370 C   0  0  0  0  0  2  0  0  0  0  0  0
  188.1160  177.6440  146.5220 C   0  0  2  0  0  3  0  0  0  0  0  0
  189.4410  177.5420  144.3820 C   0  0  0  0  0  2  0  0  0  0  0  0
  188.1350  177.5580  143.6490 C   0  0  0  0  0  0  0  0  0  0  0  0
  189.2390  176.9300  145.7640 C   0  0  0  0  0  2  0  0  0  0  0  0
  188.0630  177.1070  142.5160 O   0  0  0  0  0  0  0  0  0  0  0  0
  186.9400  178.1720  144.3410 C   0  0  1  0  0  3  0  0  0  0  0  0
  187.9540  177.0480  147.7740 O   0  0  0  0  0  0  0  0  0  0  0  0
  188.3870  178.0030  148.6960 C   0  0  0  0  0  1  0  0  0  0  0  0
  184.2020  175.2270  136.7030 C   0  0  0  0  0  0  0  0  0  0  0  0
  183.7850  176.4150  136.3570 C   0  0  0  0  0  0  0  0  0  0  0  0
  184.5730  174.0380  137.1040 C   0  0  0  0  0  3  0  0  0  0  0  0
  183.2930  176.6150  135.0370 N   0  0  0  0  0  1  0  0  0  0  0  0
  184.4590  171.7040  136.3880 C   0  0  0  0  0  3  0  0  0  0  0  0
  183.7060  170.5040  135.9790 C   0  0  0  0  0  3  0  0  0  0  0  0
  182.3190  172.8720  136.8740 C   0  0  0  0  0  2  0  0  0  0  0  0
  180.4480  171.7970  135.8330 O   0  0  0  0  0  0  0  0  0  0  0  0
  183.8210  172.8290  136.7500 C   0  0  0  0  0  0  0  0  0  0  0  0
  181.6640  171.7210  136.1590 C   0  0  0  0  0  0  0  0  0  0  0  0
  182.4110  170.5350  135.8640 N   0  0  0  0  0  0  0  0  0  0  0  0
  1  5  1  1  0  0  0
  1  3  1  0  0  0  0
  1  4  1  0  0  0  0
  2  5  2  0  0  0  0
  4  3  1  6  0  0  0
  4 10  1  0  0  0  0
  6  8  2  0  0  0  0
  6  2  1  0  0  0  0
  7  1  1  0  0  0  0
  8  7  1  0  0  0  0
 10 12  1  1  0  0  0
 10 11  1  0  0  0  0
 11 15  1  1  0  0  0
 11 14  1  0  0  0  0
 12 13  1  0  0  0  0
 13  9  2  0  0  0  0
 14  9  1  0  0  0  0
 16 17  1  0  0  0  0
 17 23  1  1  0  0  0
 18 20  1  0  0  0  0
 19 22  1  0  0  0  0
 19 18  1  0  0  0  0
 20 17  1  0  0  0  0
 21 19  2  0  0  0  0
 22 15  1  6  0  0  0
 22 16  1  0  0  0  0
 23 24  1  0  0  0  0
 25 27  2  0  0  0  0
 26 25  2  0  0  0  0
 26  8  1  0  0  0  0
 28 26  1  0  0  0  0
 29 33  2  0  0  0  0
 30 29  1  0  0  0  0
 32 34  2  0  0  0  0
 33 31  1  0  0  0  0
 33 27  1  0  0  0  0
 34 31  1  0  0  0  0
 35 30  2  0  0  0  0
 35 34  1  0  0  0  0
M  END
>  <MODEL>
2

>  <REMARK>
 VINA RESULT:      -7.8      3.747      6.120
  Name = 
  6 active torsions:
  status: ('A' for Active; 'I' for Inactive)
    1  A    between atoms: C_3  and  O_17
    2  A    between atoms: C_9  and  C_31
    3  A    between atoms: C_11  and  C_24
    4  A    between atoms: C_12  and  C_16
    5  A    between atoms: N_14  and  C_19
    6  A    between atoms: N_14  and  C_35
                            x       y       z     vdW  Elec       q    Type
                         _______ _______ _______ _____ _____    ______ ____

>  <TORSDO>
F 6

$$$$
=
 OpenBabel11062413423D

 35 39  0  0  1  0  0  0  0  0999 V2000
  189.2710  177.6520  139.4140 C   0  0  1  0  0  0  0  0  0  0  0  0
  191.5020  176.7060  139.0820 C   0  0  0  0  0  3  0  0  0  0  0  0
  188.7590  178.9740  139.0440 N   0  0  0  0  0  2  0  0  0  0  0  0
  187.8770  177.7890  138.9840 C   0  0  1  0  0  3  0  0  0  0  0  0
  190.3960  177.2110  138.5270 C   0  0  0  0  0  3  0  0  0  0  0  0
  191.6440  176.6020  140.5090 N   0  0  0  0  0  0  0  0  0  0  0  0
  189.5010  177.5690  140.8510 N   0  0  0  0  0  2  0  0  0  0  0  0
  190.7320  177.0070  141.3480 C   0  0  0  0  0  0  0  0  0  0  0  0
  186.4050  176.1880  135.2310 C   0  0  0  0  0  3  0  0  0  0  0  0
  187.6400  177.4000  137.5220 C   0  0  2  0  0  3  0  0  0  0  0  0
  186.2940  177.9510  137.0330 C   0  0  1  0  0  3  0  0  0  0  0  0
  187.7110  175.8770  137.3480 C   0  0  0  0  0  2  0  0  0  0  0  0
  187.1640  175.4140  136.0210 C   0  0  0  0  0  3  0  0  0  0  0  0
  186.1140  177.6270  135.5470 C   0  0  0  0  0  2  0  0  0  0  0  0
  185.1950  177.4020  137.8280 N   0  0  0  0  0  2  0  0  0  0  0  0
  182.7650  177.3860  137.7660 C   0  0  0  0  0  2  0  0  0  0  0  0
  181.4890  178.2400  137.7590 C   0  0  2  0  0  3  0  0  0  0  0  0
  182.7100  180.1380  138.8760 C   0  0  0  0  0  2  0  0  0  0  0  0
  183.9550  179.3110  138.7760 C   0  0  0  0  0  0  0  0  0  0  0  0
  181.4950  179.2200  138.9350 C   0  0  0  0  0  2  0  0  0  0  0  0
  184.8880  179.5130  139.5370 O   0  0  0  0  0  0  0  0  0  0  0  0
  184.0220  178.2580  137.6940 C   0  0  1  0  0  3  0  0  0  0  0  0
  180.3710  177.4100  137.8560 O   0  0  0  0  0  0  0  0  0  0  0  0
  180.2440  177.1200  139.2150 C   0  0  0  0  0  1  0  0  0  0  0  0
  190.4070  177.6940  143.6260 C   0  0  0  0  0  0  0  0  0  0  0  0
  190.9400  176.8400  142.7960 C   0  0  0  0  0  0  0  0  0  0  0  0
  189.8120  178.5500  144.4180 C   0  0  0  0  0  3  0  0  0  0  0  0
  191.4290  175.6020  143.3000 N   0  0  0  0  0  1  0  0  0  0  0  0
  187.5810  177.8890  145.1650 C   0  0  0  0  0  3  0  0  0  0  0  0
  186.6200  177.5120  146.2180 C   0  0  0  0  0  3  0  0  0  0  0  0
  189.4130  177.8830  146.8450 C   0  0  0  0  0  2  0  0  0  0  0  0
  188.5800  177.9840  149.0890 O   0  0  0  0  0  0  0  0  0  0  0  0
  188.8700  178.1210  145.4580 C   0  0  0  0  0  0  0  0  0  0  0  0
  188.3150  177.7980  147.8700 C   0  0  0  0  0  0  0  0  0  0  0  0
  186.9750  177.4890  147.4690 N   0  0  0  0  0  0  0  0  0  0  0  0
  1  5  1  6  0  0  0
  1  7  1  0  0  0  0
  2  6  1  0  0  0  0
  3  1  1  0  0  0  0
  4  3  1  6  0  0  0
  4  1  1  0  0  0  0
  5  2  2  0  0  0  0
  6  8  2  0  0  0  0
  7  8  1  0  0  0  0
  8 26  1  0  0  0  0
  9 14  1  0  0  0  0
  9 13  2  0  0  0  0
 10 12  1  1  0  0  0
 10  4  1  0  0  0  0
 11 10  1  0  0  0  0
 11 15  1  1  0  0  0
 13 12  1  0  0  0  0
 14 11  1  0  0  0  0
 17 16  1  0  0  0  0
 17 23  1  1  0  0  0
 17 20  1  0  0  0  0
 18 20  1  0  0  0  0
 19 18  1  0  0  0  0
 19 21  2  0  0  0  0
 22 16  1  0  0  0  0
 22 15  1  1  0  0  0
 22 19  1  0  0  0  0
 23 24  1  0  0  0  0
 25 27  2  0  0  0  0
 26 28  1  0  0  0  0
 26 25  2  0  0  0  0
 27 33  1  0  0  0  0
 29 33  2  0  0  0  0
 29 30  1  0  0  0  0
 30 35  2  0  0  0  0
 31 34  1  0  0  0  0
 33 31  1  0  0  0  0
 34 32  2  0  0  0  0
 35 34  1  0  0  0  0
M  END
>  <MODEL>
3

>  <REMARK>
 VINA RESULT:      -7.7      3.485      9.111
  Name = 
  6 active torsions:
  status: ('A' for Active; 'I' for Inactive)
    1  A    between atoms: C_3  and  O_17
    2  A    between atoms: C_9  and  C_31
    3  A    between atoms: C_11  and  C_24
    4  A    between atoms: C_12  and  C_16
    5  A    between atoms: N_14  and  C_19
    6  A    between atoms: N_14  and  C_35
                            x       y       z     vdW  Elec       q    Type
                         _______ _______ _______ _____ _____    ______ ____

>  <TORSDO>
F 6

$$$$
=
 OpenBabel11062413423D

 35 39  0  0  1  0  0  0  0  0999 V2000
  184.2570  178.7510  139.7660 C   0  0  1  0  0  0  0  0  0  0  0  0
  182.1110  179.0500  138.6300 C   0  0  0  0  0  3  0  0  0  0  0  0
  185.2870  179.7450  140.0780 N   0  0  0  0  0  2  0  0  0  0  0  0
  185.0250  178.6250  141.0070 C   0  0  1  0  0  3  0  0  0  0  0  0
  182.8910  179.3620  139.6700 C   0  0  0  0  0  3  0  0  0  0  0  0
  182.5640  178.1630  137.5920 N   0  0  0  0  0  0  0  0  0  0  0  0
  184.6730  177.9040  138.6550 N   0  0  0  0  0  2  0  0  0  0  0  0
  183.7530  177.6290  137.5800 C   0  0  0  0  0  0  0  0  0  0  0  0
  183.2010  179.1930  144.9010 C   0  0  0  0  0  3  0  0  0  0  0  0
  184.2920  179.1470  142.2450 C   0  0  2  0  0  3  0  0  0  0  0  0
  185.2540  179.2480  143.4350 C   0  0  1  0  0  3  0  0  0  0  0  0
  183.0910  178.2520  142.5790 C   0  0  0  0  0  2  0  0  0  0  0  0
  182.5340  178.5110  143.9570 C   0  0  0  0  0  3  0  0  0  0  0  0
  184.5240  179.8520  144.6390 C   0  0  0  0  0  2  0  0  0  0  0  0
  185.8090  177.9330  143.7610 N   0  0  0  0  0  2  0  0  0  0  0  0
  187.0350  177.4830  145.8110 C   0  0  0  0  0  2  0  0  0  0  0  0
  188.4060  177.5090  146.5030 C   0  0  2  0  0  3  0  0  0  0  0  0
  189.5730  177.3630  144.2750 C   0  0  0  0  0  2  0  0  0  0  0  0
  188.2210  177.4380  143.6350 C   0  0  0  0  0  0  0  0  0  0  0  0
  189.4420  176.7530  145.6660 C   0  0  0  0  0  2  0  0  0  0  0  0
  188.0510  176.9970  142.5090 O   0  0  0  0  0  0  0  0  0  0  0  0
  187.1040  178.0990  144.4100 C   0  0  1  0  0  3  0  0  0  0  0  0
  188.3050  176.9130  147.7610 O   0  0  0  0  0  0  0  0  0  0  0  0
  188.1520  177.9720  148.6580 C   0  0  0  0  0  1  0  0  0  0  0  0
  185.3830  176.6210  136.1320 C   0  0  0  0  0  0  0  0  0  0  0  0
  184.1330  176.7080  136.4960 C   0  0  0  0  0  0  0  0  0  0  0  0
  186.6550  176.5370  135.8370 C   0  0  0  0  0  3  0  0  0  0  0  0
  183.2220  175.6970  136.0790 N   0  0  0  0  0  1  0  0  0  0  0  0
  186.8410  174.1360  135.4200 C   0  0  0  0  0  3  0  0  0  0  0  0
  187.5480  172.8460  135.5310 C   0  0  0  0  0  3  0  0  0  0  0  0
  188.7880  175.2840  136.4530 C   0  0  0  0  0  2  0  0  0  0  0  0
  190.2390  173.7550  137.5900 O   0  0  0  0  0  0  0  0  0  0  0  0
  187.3850  175.2650  135.8990 C   0  0  0  0  0  0  0  0  0  0  0  0
  189.2790  173.9020  136.7870 C   0  0  0  0  0  0  0  0  0  0  0  0
  188.6710  172.7550  136.1810 N   0  0  0  0  0  0  0  0  0  0  0  0
  1  5  1  1  0  0  0
  1  3  1  0  0  0  0
  1  4  1  0  0  0  0
  2  5  2  0  0  0  0
  4  3  1  6  0  0  0
  4 10  1  0  0  0  0
  6  2  1  0  0  0  0
  7  1  1  0  0  0  0
  8  6  2  0  0  0  0
  8  7  1  0  0  0  0
 10 12  1  1  0  0  0
 10 11  1  0  0  0  0
 11 15  1  1  0  0  0
 11 14  1  0  0  0  0
 12 13  1  0  0  0  0
 13  9  2  0  0  0  0
 14  9  1  0  0  0  0
 16 17  1  0  0  0  0
 17 23  1  1  0  0  0
 18 20  1  0  0  0  0
 19 18  1  0  0  0  0
 19 22  1  0  0  0  0
 20 17  1  0  0  0  0
 21 19  2  0  0  0  0
 22 15  1  6  0  0  0
 22 16  1  0  0  0  0
 23 24  1  0  0  0  0
 25 26  2  0  0  0  0
 26  8  1  0  0  0  0
 27 33  1  0  0  0  0
 27 25  2  0  0  0  0
 28 26  1  0  0  0  0
 29 30  1  0  0  0  0
 29 33  2  0  0  0  0
 30 35  2  0  0  0  0
 31 34  1  0  0  0  0
 33 31  1  0  0  0  0
 34 32  2  0  0  0  0
 35 34  1  0  0  0  0
M  END
>  <MODEL>
4

>  <REMARK>
 VINA RESULT:      -7.7      3.533      6.899
  Name = 
  6 active torsions:
  status: ('A' for Active; 'I' for Inactive)
    1  A    between atoms: C_3  and  O_17
    2  A    between atoms: C_9  and  C_31
    3  A    between atoms: C_11  and  C_24
    4  A    between atoms: C_12  and  C_16
    5  A    between atoms: N_14  and  C_19
    6  A    between atoms: N_14  and  C_35
                            x       y       z     vdW  Elec       q    Type
                         _______ _______ _______ _____ _____    ______ ____

>  <TORSDO>
F 6

$$$$
=
 OpenBabel11062413423D

 35 39  0  0  1  0  0  0  0  0999 V2000
  183.1610  178.3540  141.6210 C   0  0  1  0  0  0  0  0  0  0  0  0
  181.6850  179.0010  143.4610 C   0  0  0  0  0  3  0  0  0  0  0  0
  183.1290  177.1520  140.7850 N   0  0  0  0  0  2  0  0  0  0  0  0
  183.5410  178.4500  140.2090 C   0  0  1  0  0  3  0  0  0  0  0  0
  181.8080  178.7040  142.1640 C   0  0  0  0  0  3  0  0  0  0  0  0
  182.8160  178.9670  144.3490 N   0  0  0  0  0  0  0  0  0  0  0  0
  184.2540  178.2870  142.5840 N   0  0  0  0  0  2  0  0  0  0  0  0
  184.0140  178.6280  143.9640 C   0  0  0  0  0  0  0  0  0  0  0  0
  181.1720  180.2560  137.0560 C   0  0  0  0  0  3  0  0  0  0  0  0
  182.4280  178.9850  139.3040 C   0  0  2  0  0  3  0  0  0  0  0  0
  182.4520  178.2720  137.9460 C   0  0  1  0  0  3  0  0  0  0  0  0
  182.5550  180.5050  139.1330 C   0  0  0  0  0  2  0  0  0  0  0  0
  181.7080  181.0390  138.0050 C   0  0  0  0  0  3  0  0  0  0  0  0
  181.2810  178.7580  137.0870 C   0  0  0  0  0  2  0  0  0  0  0  0
  183.7310  178.4970  137.2700 N   0  0  0  0  0  2  0  0  0  0  0  0
  184.2370  176.5100  135.9640 C   0  0  0  0  0  2  0  0  0  0  0  0
  185.1210  175.2610  135.8430 C   0  0  2  0  0  3  0  0  0  0  0  0
  186.9220  176.3590  137.2200 C   0  0  0  0  0  2  0  0  0  0  0  0
  185.9900  177.5190  137.3960 C   0  0  0  0  0  0  0  0  0  0  0  0
  186.6010  175.6450  135.9110 C   0  0  0  0  0  2  0  0  0  0  0  0
  186.4340  178.6260  137.6570 O   0  0  0  0  0  0  0  0  0  0  0  0
  184.5060  177.2620  137.2710 C   0  0  1  0  0  3  0  0  0  0  0  0
  184.8650  174.6230  134.6280 O   0  0  0  0  0  0  0  0  0  0  0  0
  183.5350  174.2060  134.7040 C   0  0  0  0  0  1  0  0  0  0  0  0
  186.1050  177.7900  144.7980 C   0  0  0  0  0  0  0  0  0  0  0  0
  185.1270  178.6450  144.9280 C   0  0  0  0  0  0  0  0  0  0  0  0
  187.0830  176.9440  144.5970 C   0  0  0  0  0  3  0  0  0  0  0  0
  185.3040  179.7710  145.7800 N   0  0  0  0  0  1  0  0  0  0  0  0
  188.8970  177.8560  143.2370 C   0  0  0  0  0  3  0  0  0  0  0  0
  190.3050  178.2510  143.0400 C   0  0  0  0  0  3  0  0  0  0  0  0
  189.3760  177.3670  145.6260 C   0  0  0  0  0  2  0  0  0  0  0  0
  191.7220  177.1290  146.0460 O   0  0  0  0  0  0  0  0  0  0  0  0
  188.4710  177.3890  144.4200 C   0  0  0  0  0  0  0  0  0  0  0  0
  190.8250  177.5010  145.2430 C   0  0  0  0  0  0  0  0  0  0  0  0
  191.1870  178.0650  143.9770 N   0  0  0  0  0  0  0  0  0  0  0  0
  1  5  1  1  0  0  0
  1  7  1  0  0  0  0
  2  6  1  0  0  0  0
  3  1  1  0  0  0  0
  4  3  1  6  0  0  0
  4  1  1  0  0  0  0
  5  2  2  0  0  0  0
  7  8  1  0  0  0  0
  8  6  2  0  0  0  0
  8 26  1  0  0  0  0
  9 14  1  0  0  0  0
  9 13  2  0  0  0  0
 10 12  1  6  0  0  0
 10  4  1  0  0  0  0
 11 15  1  6  0  0  0
 11 10  1  0  0  0  0
 13 12  1  0  0  0  0
 14 11  1  0  0  0  0
 16 22  1  0  0  0  0
 17 23  1  6  0  0  0
 17 20  1  0  0  0  0
 17 16  1  0  0  0  0
 18 19  1  0  0  0  0
 19 21  2  0  0  0  0
 20 18  1  0  0  0  0
 22 15  1  6  0  0  0
 22 19  1  0  0  0  0
 23 24  1  0  0  0  0
 25 26  2  0  0  0  0
 26 28  1  0  0  0  0
 27 25  2  0  0  0  0
 29 33  2  0  0  0  0
 30 29  1  0  0  0  0
 30 35  2  0  0  0  0
 33 27  1  0  0  0  0
 33 31  1  0  0  0  0
 34 31  1  0  0  0  0
 34 32  2  0  0  0  0
 35 34  1  0  0  0  0
M  END
>  <MODEL>
5

>  <REMARK>
 VINA RESULT:      -7.6      3.216      7.762
  Name = 
  6 active torsions:
  status: ('A' for Active; 'I' for Inactive)
    1  A    between atoms: C_3  and  O_17
    2  A    between atoms: C_9  and  C_31
    3  A    between atoms: C_11  and  C_24
    4  A    between atoms: C_12  and  C_16
    5  A    between atoms: N_14  and  C_19
    6  A    between atoms: N_14  and  C_35
                            x       y       z     vdW  Elec       q    Type
                         _______ _______ _______ _____ _____    ______ ____

>  <TORSDO>
F 6

$$$$
=
 OpenBabel11062413423D

 35 39  0  0  1  0  0  0  0  0999 V2000
  185.1140  178.9240  142.2750 C   0  0  1  0  0  0  0  0  0  0  0  0
  183.6650  179.2810  144.2120 C   0  0  0  0  0  3  0  0  0  0  0  0
  186.0200  179.8630  141.6080 N   0  0  0  0  0  2  0  0  0  0  0  0
  186.3720  178.4310  141.7080 C   0  0  1  0  0  3  0  0  0  0  0  0
  184.9070  179.2650  143.7200 C   0  0  0  0  0  3  0  0  0  0  0  0
  182.5250  179.0040  143.3810 N   0  0  0  0  0  0  0  0  0  0  0  0
  183.9140  178.7060  141.4760 N   0  0  0  0  0  2  0  0  0  0  0  0
  182.6180  178.7460  142.1060 C   0  0  0  0  0  0  0  0  0  0  0  0
  189.7020  177.0500  144.1210 C   0  0  0  0  0  3  0  0  0  0  0  0
  187.4870  178.2480  142.7420 C   0  0  2  0  0  3  0  0  0  0  0  0
  188.8580  178.2260  142.0540 C   0  0  1  0  0  3  0  0  0  0  0  0
  187.2580  176.9730  143.5640 C   0  0  0  0  0  2  0  0  0  0  0  0
  188.4750  176.5630  144.3570 C   0  0  0  0  0  3  0  0  0  0  0  0
  189.9630  178.1300  143.1100 C   0  0  0  0  0  2  0  0  0  0  0  0
  188.9380  177.1140  141.1050 N   0  0  0  0  0  2  0  0  0  0  0  0
  190.6840  176.4300  139.5590 C   0  0  0  0  0  2  0  0  0  0  0  0
  191.4190  176.7510  138.2500 C   0  0  2  0  0  3  0  0  0  0  0  0
  189.4320  178.0550  137.4130 C   0  0  0  0  0  2  0  0  0  0  0  0
  188.7880  177.8020  138.7420 C   0  0  0  0  0  0  0  0  0  0  0  0
  190.4180  176.9330  137.1050 C   0  0  0  0  0  2  0  0  0  0  0  0
  187.5730  177.8400  138.8500 O   0  0  0  0  0  0  0  0  0  0  0  0
  189.6880  177.5330  139.9260 C   0  0  1  0  0  3  0  0  0  0  0  0
  192.2930  175.7100  137.9360 O   0  0  0  0  0  0  0  0  0  0  0  0
  193.3460  176.3090  137.2410 C   0  0  0  0  0  1  0  0  0  0  0  0
  180.5530  179.3980  141.0690 C   0  0  0  0  0  0  0  0  0  0  0  0
  181.4050  178.4440  141.3280 C   0  0  0  0  0  0  0  0  0  0  0  0
  179.7540  180.3980  140.7960 C   0  0  0  0  0  3  0  0  0  0  0  0
  181.3210  177.2270  140.5960 N   0  0  0  0  0  1  0  0  0  0  0  0
  179.2240  179.8180  138.4810 C   0  0  0  0  0  3  0  0  0  0  0  0
  178.9320  180.1830  137.0820 C   0  0  0  0  0  3  0  0  0  0  0  0
  179.2010  182.2240  139.1060 C   0  0  0  0  0  2  0  0  0  0  0  0
  179.4280  183.6540  137.1970 O   0  0  0  0  0  0  0  0  0  0  0  0
  179.4090  180.7630  139.4170 C   0  0  0  0  0  0  0  0  0  0  0  0
  179.2060  182.4890  137.6250 C   0  0  0  0  0  0  0  0  0  0  0  0
  178.9420  181.4260  136.7010 N   0  0  0  0  0  0  0  0  0  0  0  0
  1  5  1  1  0  0  0
  3  1  1  0  0  0  0
  4  3  1  6  0  0  0
  4  1  1  0  0  0  0
  4 10  1  0  0  0  0
  5  2  2  0  0  0  0
  6  2  1  0  0  0  0
  7  8  1  0  0  0  0
  7  1  1  0  0  0  0
  8  6  2  0  0  0  0
  9 13  2  0  0  0  0
 10 12  1  6  0  0  0
 11 15  1  6  0  0  0
 11 10  1  0  0  0  0
 11 14  1  0  0  0  0
 12 13  1  0  0  0  0
 14  9  1  0  0  0  0
 16 22  1  0  0  0  0
 17 23  1  6  0  0  0
 17 16  1  0  0  0  0
 18 19  1  0  0  0  0
 19 21  2  0  0  0  0
 19 22  1  0  0  0  0
 20 18  1  0  0  0  0
 20 17  1  0  0  0  0
 22 15  1  1  0  0  0
 24 23  1  0  0  0  0
 25 26  2  0  0  0  0
 26  8  1  0  0  0  0
 27 25  2  0  0  0  0
 28 26  1  0  0  0  0
 29 33  2  0  0  0  0
 30 29  1  0  0  0  0
 31 33  1  0  0  0  0
 32 34  2  0  0  0  0
 33 27  1  0  0  0  0
 34 31  1  0  0  0  0
 35 30  2  0  0  0  0
 35 34  1  0  0  0  0
M  END
>  <MODEL>
6

>  <REMARK>
 VINA RESULT:      -7.6      2.769      3.466
  Name = 
  6 active torsions:
  status: ('A' for Active; 'I' for Inactive)
    1  A    between atoms: C_3  and  O_17
    2  A    between atoms: C_9  and  C_31
    3  A    between atoms: C_11  and  C_24
    4  A    between atoms: C_12  and  C_16
    5  A    between atoms: N_14  and  C_19
    6  A    between atoms: N_14  and  C_35
                            x       y       z     vdW  Elec       q    Type
                         _______ _______ _______ _____ _____    ______ ____

>  <TORSDO>
F 6

$$$$
=
 OpenBabel11062413423D

 35 39  0  0  1  0  0  0  0  0999 V2000
  184.2480  178.7040  142.5340 C   0  0  1  0  0  0  0  0  0  0  0  0
  181.8210  179.0030  142.5730 C   0  0  0  0  0  3  0  0  0  0  0  0
  185.3060  179.7150  142.4570 N   0  0  0  0  0  2  0  0  0  0  0  0
  185.5080  178.4830  143.2490 C   0  0  1  0  0  3  0  0  0  0  0  0
  182.9970  179.2400  143.1620 C   0  0  0  0  0  3  0  0  0  0  0  0
  181.7350  178.2680  141.3400 N   0  0  0  0  0  0  0  0  0  0  0  0
  184.0960  178.0140  141.2590 N   0  0  0  0  0  2  0  0  0  0  0  0
  182.7800  177.8100  140.7090 C   0  0  0  0  0  0  0  0  0  0  0  0
  185.6570  178.4720  147.5840 C   0  0  0  0  0  3  0  0  0  0  0  0
  185.4390  178.8160  144.7420 C   0  0  2  0  0  3  0  0  0  0  0  0
  186.8370  178.7490  145.3710 C   0  0  1  0  0  3  0  0  0  0  0  0
  184.4620  177.8770  145.4610 C   0  0  0  0  0  2  0  0  0  0  0  0
  184.5980  177.9310  146.9630 C   0  0  0  0  0  3  0  0  0  0  0  0
  186.7610  179.1690  146.8420 C   0  0  0  0  0  2  0  0  0  0  0  0
  187.3970  177.4030  145.2360 N   0  0  0  0  0  2  0  0  0  0  0  0
  189.7460  177.1400  145.8010 C   0  0  0  0  0  2  0  0  0  0  0  0
  191.1830  177.0880  145.2640 C   0  0  2  0  0  3  0  0  0  0  0  0
  190.3480  176.3960  142.9910 C   0  0  0  0  0  2  0  0  0  0  0  0
  188.9570  176.5530  143.5260 C   0  0  0  0  0  0  0  0  0  0  0  0
  191.2960  176.0590  144.1360 C   0  0  0  0  0  2  0  0  0  0  0  0
  188.0290  175.9550  143.0050 O   0  0  0  0  0  0  0  0  0  0  0  0
  188.7480  177.4900  144.6940 C   0  0  1  0  0  3  0  0  0  0  0  0
  192.0560  176.7380  146.2960 O   0  0  0  0  0  0  0  0  0  0  0  0
  191.2380  176.4880  147.4010 C   0  0  0  0  0  1  0  0  0  0  0  0
  183.4020  177.2650  138.4540 C   0  0  0  0  0  0  0  0  0  0  0  0
  182.6070  177.0420  139.4640 C   0  0  0  0  0  0  0  0  0  0  0  0
  184.2540  177.4930  137.4870 C   0  0  0  0  0  3  0  0  0  0  0  0
  181.8140  175.8600  139.4700 N   0  0  0  0  0  1  0  0  0  0  0  0
  184.7020  175.1430  136.9840 C   0  0  0  0  0  3  0  0  0  0  0  0
  185.5640  174.0650  136.4630 C   0  0  0  0  0  3  0  0  0  0  0  0
  186.3530  176.8290  136.2020 C   0  0  0  0  0  2  0  0  0  0  0  0
  188.4970  175.8570  135.7620 O   0  0  0  0  0  0  0  0  0  0  0  0
  185.0880  176.4270  136.9190 C   0  0  0  0  0  0  0  0  0  0  0  0
  187.2730  175.6580  135.9870 C   0  0  0  0  0  0  0  0  0  0  0  0
  186.7580  174.3220  136.0180 N   0  0  0  0  0  0  0  0  0  0  0  0
  1  5  1  1  0  0  0
  1  4  1  0  0  0  0
  2  5  2  0  0  0  0
  3  1  1  0  0  0  0
  4  3  1  6  0  0  0
  4 10  1  0  0  0  0
  6  2  1  0  0  0  0
  7  1  1  0  0  0  0
  8  7  1  0  0  0  0
  8  6  2  0  0  0  0
 10 11  1  0  0  0  0
 10 12  1  1  0  0  0
 11 15  1  1  0  0  0
 11 14  1  0  0  0  0
 12 13  1  0  0  0  0
 13  9  2  0  0  0  0
 14  9  1  0  0  0  0
 17 16  1  0  0  0  0
 17 23  1  1  0  0  0
 18 19  1  0  0  0  0
 18 20  1  0  0  0  0
 19 22  1  0  0  0  0
 20 17  1  0  0  0  0
 21 19  2  0  0  0  0
 22 15  1  1  0  0  0
 22 16  1  0  0  0  0
 23 24  1  0  0  0  0
 25 26  2  0  0  0  0
 26 28  1  0  0  0  0
 26  8  1  0  0  0  0
 27 25  2  0  0  0  0
 30 29  1  0  0  0  0
 31 33  1  0  0  0  0
 32 34  2  0  0  0  0
 33 29  2  0  0  0  0
 33 27  1  0  0  0  0
 34 35  1  0  0  0  0
 34 31  1  0  0  0  0
 35 30  2  0  0  0  0
M  END
>  <MODEL>
7

>  <REMARK>
 VINA RESULT:      -7.6      3.291      5.287
  Name = 
  6 active torsions:
  status: ('A' for Active; 'I' for Inactive)
    1  A    between atoms: C_3  and  O_17
    2  A    between atoms: C_9  and  C_31
    3  A    between atoms: C_11  and  C_24
    4  A    between atoms: C_12  and  C_16
    5  A    between atoms: N_14  and  C_19
    6  A    between atoms: N_14  and  C_35
                            x       y       z     vdW  Elec       q    Type
                         _______ _______ _______ _____ _____    ______ ____

>  <TORSDO>
F 6

$$$$
=
 OpenBabel11062413423D

 35 39  0  0  1  0  0  0  0  0999 V2000
  189.1830  176.6820  143.0090 C   0  0  1  0  0  0  0  0  0  0  0  0
  191.6020  176.8500  143.3260 C   0  0  0  0  0  3  0  0  0  0  0  0
  188.2970  175.5340  143.2190 N   0  0  0  0  0  2  0  0  0  0  0  0
  187.8220  176.9040  143.5050 C   0  0  1  0  0  3  0  0  0  0  0  0
  190.4050  176.6210  143.8750 C   0  0  0  0  0  3  0  0  0  0  0  0
  191.7430  177.1280  141.9220 N   0  0  0  0  0  0  0  0  0  0  0  0
  189.4010  176.9150  141.5860 N   0  0  0  0  0  2  0  0  0  0  0  0
  190.7350  177.1520  141.0960 C   0  0  0  0  0  0  0  0  0  0  0  0
  187.2700  178.4240  147.5300 C   0  0  0  0  0  3  0  0  0  0  0  0
  187.7430  177.1120  145.0200 C   0  0  2  0  0  3  0  0  0  0  0  0
  186.2950  177.3840  145.4480 C   0  0  1  0  0  3  0  0  0  0  0  0
  188.6730  178.2510  145.4590 C   0  0  0  0  0  2  0  0  0  0  0  0
  188.3960  178.7230  146.8650 C   0  0  0  0  0  3  0  0  0  0  0  0
  186.2220  177.5040  146.9730 C   0  0  0  0  0  2  0  0  0  0  0  0
  185.7860  178.5940  144.8000 N   0  0  0  0  0  2  0  0  0  0  0  0
  183.3710  178.7940  144.6180 C   0  0  0  0  0  2  0  0  0  0  0  0
  182.1420  178.5800  143.7220 C   0  0  2  0  0  3  0  0  0  0  0  0
  183.5790  178.7210  141.6580 C   0  0  0  0  0  2  0  0  0  0  0  0
  184.7640  178.8290  142.5690 C   0  0  0  0  0  0  0  0  0  0  0  0
  182.3440  179.2640  142.3670 C   0  0  0  0  0  2  0  0  0  0  0  0
  185.7960  179.3480  142.1720 O   0  0  0  0  0  0  0  0  0  0  0  0
  184.6430  178.2530  143.9610 C   0  0  1  0  0  3  0  0  0  0  0  0
  181.0120  179.1130  144.3440 O   0  0  0  0  0  0  0  0  0  0  0  0
  179.9500  178.3040  143.9320 C   0  0  0  0  0  1  0  0  0  0  0  0
  192.0710  177.1050  139.1000 C   0  0  0  0  0  0  0  0  0  0  0  0
  190.9580  177.4730  139.6760 C   0  0  0  0  0  0  0  0  0  0  0  0
  193.1800  176.6740  138.5570 C   0  0  0  0  0  3  0  0  0  0  0  0
  189.8630  177.8780  138.8640 N   0  0  0  0  0  1  0  0  0  0  0  0
  193.9150  176.0890  136.3010 C   0  0  0  0  0  3  0  0  0  0  0  0
  193.8740  175.2330  135.1000 C   0  0  0  0  0  3  0  0  0  0  0  0
  192.3870  174.5120  137.4670 C   0  0  0  0  0  2  0  0  0  0  0  0
  191.2530  173.0580  135.9380 O   0  0  0  0  0  0  0  0  0  0  0  0
  193.1810  175.7920  137.3850 C   0  0  0  0  0  0  0  0  0  0  0  0
  192.1840  173.8900  136.1120 C   0  0  0  0  0  0  0  0  0  0  0  0
  193.0550  174.2260  135.0250 N   0  0  0  0  0  0  0  0  0  0  0  0
  1  3  1  0  0  0  0
  1  4  1  0  0  0  0
  1  5  1  1  0  0  0
  2  5  2  0  0  0  0
  4  3  1  1  0  0  0
  4 10  1  0  0  0  0
  6  2  1  0  0  0  0
  7  1  1  0  0  0  0
  8  7  1  0  0  0  0
  8  6  2  0  0  0  0
 10 11  1  0  0  0  0
 10 12  1  6  0  0  0
 11 15  1  6  0  0  0
 11 14  1  0  0  0  0
 12 13  1  0  0  0  0
 13  9  2  0  0  0  0
 14  9  1  0  0  0  0
 17 23  1  1  0  0  0
 17 16  1  0  0  0  0
 18 20  1  0  0  0  0
 18 19  1  0  0  0  0
 19 22  1  0  0  0  0
 20 17  1  0  0  0  0
 21 19  2  0  0  0  0
 22 16  1  0  0  0  0
 22 15  1  1  0  0  0
 24 23  1  0  0  0  0
 25 26  2  0  0  0  0
 26  8  1  0  0  0  0
 27 25  2  0  0  0  0
 28 26  1  0  0  0  0
 29 33  2  0  0  0  0
 30 29  1  0  0  0  0
 32 34  2  0  0  0  0
 33 31  1  0  0  0  0
 33 27  1  0  0  0  0
 34 31  1  0  0  0  0
 35 30  2  0  0  0  0
 35 34  1  0  0  0  0
M  END
>  <MODEL>
8

>  <REMARK>
 VINA RESULT:      -7.5      3.826      9.282
  Name = 
  6 active torsions:
  status: ('A' for Active; 'I' for Inactive)
    1  A    between atoms: C_3  and  O_17
    2  A    between atoms: C_9  and  C_31
    3  A    between atoms: C_11  and  C_24
    4  A    between atoms: C_12  and  C_16
    5  A    between atoms: N_14  and  C_19
    6  A    between atoms: N_14  and  C_35
                            x       y       z     vdW  Elec       q    Type
                         _______ _______ _______ _____ _____    ______ ____

>  <TORSDO>
F 6

$$$$
=
 OpenBabel11062413423D

 35 39  0  0  1  0  0  0  0  0999 V2000
  183.2530  178.3190  141.6150 C   0  0  1  0  0  0  0  0  0  0  0  0
  182.0590  179.0400  143.6240 C   0  0  0  0  0  3  0  0  0  0  0  0
  183.0120  177.1540  140.7600 N   0  0  0  0  0  2  0  0  0  0  0  0
  183.4830  178.4260  140.1710 C   0  0  1  0  0  3  0  0  0  0  0  0
  182.0090  178.7760  142.3140 C   0  0  0  0  0  3  0  0  0  0  0  0
  183.2730  178.8700  144.3770 N   0  0  0  0  0  0  0  0  0  0  0  0
  184.4340  178.1170  142.4460 N   0  0  0  0  0  2  0  0  0  0  0  0
  184.3820  178.4320  143.8510 C   0  0  0  0  0  0  0  0  0  0  0  0
  180.9210  180.3770  137.2650 C   0  0  0  0  0  3  0  0  0  0  0  0
  182.3340  179.0940  139.4100 C   0  0  2  0  0  3  0  0  0  0  0  0
  181.9540  178.2630  138.1780 C   0  0  1  0  0  3  0  0  0  0  0  0
  182.7090  180.5290  139.0170 C   0  0  0  0  0  2  0  0  0  0  0  0
  181.7710  181.1170  137.9920 C   0  0  0  0  0  3  0  0  0  0  0  0
  180.7490  178.9000  137.4790 C   0  0  0  0  0  2  0  0  0  0  0  0
  183.0920  178.1470  137.2650 N   0  0  0  0  0  2  0  0  0  0  0  0
  182.1770  175.9080  137.5080 C   0  0  0  0  0  2  0  0  0  0  0  0
  182.0820  174.5020  136.9000 C   0  0  2  0  0  3  0  0  0  0  0  0
  182.5720  175.4220  134.6070 C   0  0  0  0  0  2  0  0  0  0  0  0
  182.7530  176.7610  135.2540 C   0  0  0  0  0  0  0  0  0  0  0  0
  181.6160  174.5800  135.4440 C   0  0  0  0  0  2  0  0  0  0  0  0
  182.6130  177.7820  134.5980 O   0  0  0  0  0  0  0  0  0  0  0  0
  183.1390  176.7970  136.7150 C   0  0  1  0  0  3  0  0  0  0  0  0
  181.1760  173.7350  137.6340 O   0  0  0  0  0  0  0  0  0  0  0  0
  180.3970  174.6570  138.3360 C   0  0  0  0  0  1  0  0  0  0  0  0
  186.5450  177.4990  144.3200 C   0  0  0  0  0  0  0  0  0  0  0  0
  185.5910  178.3130  144.6830 C   0  0  0  0  0  0  0  0  0  0  0  0
  187.4920  176.7050  143.8880 C   0  0  0  0  0  3  0  0  0  0  0  0
  185.8640  179.2940  145.6760 N   0  0  0  0  0  1  0  0  0  0  0  0
  189.4310  178.0800  144.4570 C   0  0  0  0  0  3  0  0  0  0  0  0
  190.7800  178.6070  144.1770 C   0  0  0  0  0  3  0  0  0  0  0  0
  189.6080  176.5940  142.4730 C   0  0  0  0  0  2  0  0  0  0  0  0
  191.3400  177.2930  140.9730 O   0  0  0  0  0  0  0  0  0  0  0  0
  188.8550  177.1870  143.6370 C   0  0  0  0  0  0  0  0  0  0  0  0
  190.8230  177.4070  142.1170 C   0  0  0  0  0  0  0  0  0  0  0  0
  191.4040  178.2950  143.0800 N   0  0  0  0  0  0  0  0  0  0  0  0
  1  5  1  1  0  0  0
  1  7  1  0  0  0  0
  2  6  1  0  0  0  0
  3  1  1  0  0  0  0
  4  3  1  6  0  0  0
  4  1  1  0  0  0  0
  5  2  2  0  0  0  0
  7  8  1  0  0  0  0
  8  6  2  0  0  0  0
  8 26  1  0  0  0  0
  9 14  1  0  0  0  0
  9 13  2  0  0  0  0
 10 12  1  6  0  0  0
 10  4  1  0  0  0  0
 11 15  1  6  0  0  0
 11 10  1  0  0  0  0
 13 12  1  0  0  0  0
 14 11  1  0  0  0  0
 17 16  1  0  0  0  0
 17 23  1  1  0  0  0
 18 19  1  0  0  0  0
 18 20  1  0  0  0  0
 19 22  1  0  0  0  0
 20 17  1  0  0  0  0
 21 19  2  0  0  0  0
 22 15  1  1  0  0  0
 22 16  1  0  0  0  0
 23 24  1  0  0  0  0
 25 26  2  0  0  0  0
 26 28  1  0  0  0  0
 27 25  2  0  0  0  0
 30 29  1  0  0  0  0
 31 33  1  0  0  0  0
 32 34  2  0  0  0  0
 33 27  1  0  0  0  0
 33 29  2  0  0  0  0
 34 31  1  0  0  0  0
 34 35  1  0  0  0  0
 35 30  2  0  0  0  0
M  END
>  <MODEL>
9

>  <REMARK>
 VINA RESULT:      -7.3      2.790      8.329
  Name = 
  6 active torsions:
  status: ('A' for Active; 'I' for Inactive)
    1  A    between atoms: C_3  and  O_17
    2  A    between atoms: C_9  and  C_31
    3  A    between atoms: C_11  and  C_24
    4  A    between atoms: C_12  and  C_16
    5  A    between atoms: N_14  and  C_19
    6  A    between atoms: N_14  and  C_35
                            x       y       z     vdW  Elec       q    Type
                         _______ _______ _______ _____ _____    ______ ____

>  <TORSDO>
F 6

$$$$
