=
 OpenBabel11062413343D

 28 31  0  0  1  0  0  0  0  0999 V2000
  185.8550  178.0860  144.5520 C   0  0  0  0  0  0  0  0  0  0  0  0
  189.6140  177.7990  147.9940 C   0  0  0  0  0  3  0  0  0  0  0  0
  189.5000  177.4370  145.4130 C   0  0  1  0  0  3  0  0  0  0  0  0
  190.3090  175.6060  146.9830 C   0  0  0  0  0  2  0  0  0  0  0  0
  186.1930  178.6560  146.8870 C   0  0  0  0  0  3  0  0  0  0  0  0
  191.5120  176.5250  146.8170 C   0  0  0  0  0  2  0  0  0  0  0  0
  187.1960  177.7070  144.4520 C   0  0  0  0  0  3  0  0  0  0  0  0
  190.1110  177.0900  146.7740 C   0  0  0  0  0  0  0  0  0  0  0  0
  185.3570  178.5660  145.7690 C   0  0  0  0  0  3  0  0  0  0  0  0
  188.0430  177.7910  145.5640 C   0  0  0  0  0  0  0  0  0  0  0  0
  188.3900  178.3330  147.9920 C   0  0  0  0  0  3  0  0  0  0  0  0
  187.5320  178.2670  146.7930 C   0  0  0  0  0  0  0  0  0  0  0  0
  183.8110  178.4100  143.3850 O   0  0  0  0  0  0  0  0  0  0  0  0
  184.9930  177.9750  143.3740 C   0  0  0  0  0  3  0  0  0  0  0  0
  190.2470  178.6070  144.7900 C   0  0  0  0  0  2  0  0  0  0  0  0
  191.5240  177.9890  143.6540 S   0  0  0  0  0  0  0  0  0  0  0  0
  190.3540  176.8970  142.7950 C   0  0  0  0  0  2  0  0  0  0  0  0
  190.8080  176.5980  139.9260 N   0  0  0  0  0  2  0  0  0  0  0  0
  189.2140  178.2820  139.6140 O   0  0  0  0  0  0  0  0  0  0  0  0
  189.6030  177.6620  141.8150 N   0  0  0  0  0  2  0  0  0  0  0  0
  189.8510  177.5460  140.4150 C   0  0  0  0  0  0  0  0  0  0  0  0
  191.1350  176.4180  138.5150 C   0  0  2  0  0  0  0  0  0  0  0  0
  190.9680  177.6220  137.8440 F   0  0  0  0  0  0  0  0  0  0  0  0
  190.2110  175.3780  137.9030 C   0  0  0  0  0  1  0  0  0  0  0  0
  194.4280  176.0260  137.1500 O   0  0  0  0  0  1  0  0  0  0  0  0
  193.4430  176.7980  138.9540 O   0  0  0  0  0  0  0  0  0  0  0  0
  192.5740  175.9070  138.4100 C   0  0  2  0  0  3  0  0  0  0  0  0
  193.3740  176.7640  137.5700 N   0  0  0  0  0  0  0  0  0  0  0  0
  1  9  1  0  0  0  0
  3 15  1  1  0  0  0
  3 10  1  0  0  0  0
  3  8  1  0  0  0  0
  6  4  1  0  0  0  0
  7  1  2  0  0  0  0
  7 10  1  0  0  0  0
  8  6  1  0  0  0  0
  8  4  1  0  0  0  0
  8  2  1  0  0  0  0
  9  5  2  0  0  0  0
 10 12  2  0  0  0  0
 11  2  2  0  0  0  0
 12  5  1  0  0  0  0
 12 11  1  0  0  0  0
 14 13  2  0  0  0  0
 14  1  1  0  0  0  0
 16 15  1  0  0  0  0
 17 16  1  0  0  0  0
 18 21  1  0  0  0  0
 19 21  2  0  0  0  0
 20 17  1  0  0  0  0
 21 20  1  0  0  0  0
 22 24  1  6  0  0  0
 22 18  1  0  0  0  0
 23 22  1  0  0  0  0
 25 28  1  0  0  0  0
 27 22  1  1  0  0  0
 27 26  1  0  0  0  0
 28 27  1  0  0  0  0
 28 26  1  0  0  0  0
M  END
>  <MODEL>
1

>  <REMARK>
 VINA RESULT:      -8.5      0.000      0.000
  Name = 
  7 active torsions:
  status: ('A' for Active; 'I' for Inactive)
    1  A    between atoms: C_1  and  C_25
    2  A    between atoms: C_3  and  C_4
    3  A    between atoms: C_4  and  S_14
    4  A    between atoms: C_5  and  N_13
    5  A    between atoms: C_5  and  C_23
    6  A    between atoms: C_8  and  S_14
    7  A    between atoms: C_8  and  N_20
                            x       y       z     vdW  Elec       q    Type
                         _______ _______ _______ _____ _____    ______ ____

>  <TORSDO>
F 7

$$$$
=
 OpenBabel11062413343D

 28 31  0  0  1  0  0  0  0  0999 V2000
  185.7720  178.1000  144.5650 C   0  0  0  0  0  0  0  0  0  0  0  0
  189.3510  177.9050  148.2000 C   0  0  0  0  0  3  0  0  0  0  0  0
  189.3690  177.4820  145.6250 C   0  0  1  0  0  3  0  0  0  0  0  0
  190.1010  175.6920  147.2770 C   0  0  0  0  0  2  0  0  0  0  0  0
  185.9890  178.7250  146.9000 C   0  0  0  0  0  3  0  0  0  0  0  0
  191.3090  176.6100  147.1510 C   0  0  0  0  0  2  0  0  0  0  0  0
  187.1170  177.7220  144.5430 C   0  0  0  0  0  3  0  0  0  0  0  0
  189.9120  177.1690  147.0230 C   0  0  0  0  0  0  0  0  0  0  0  0
  185.2110  178.6060  145.7440 C   0  0  0  0  0  3  0  0  0  0  0  0
  187.9060  177.8360  145.6940 C   0  0  0  0  0  0  0  0  0  0  0  0
  188.1280  178.4340  148.1230 C   0  0  0  0  0  3  0  0  0  0  0  0
  187.3320  178.3380  146.8840 C   0  0  0  0  0  0  0  0  0  0  0  0
  183.8440  178.5110  143.2380 O   0  0  0  0  0  0  0  0  0  0  0  0
  184.9700  177.9580  143.3480 C   0  0  0  0  0  3  0  0  0  0  0  0
  190.1440  178.6400  145.0130 C   0  0  0  0  0  2  0  0  0  0  0  0
  191.4060  178.0030  143.8710 S   0  0  0  0  0  0  0  0  0  0  0  0
  190.1860  177.6890  142.5620 C   0  0  0  0  0  2  0  0  0  0  0  0
  189.1700  177.5800  139.8270 N   0  0  0  0  0  2  0  0  0  0  0  0
  190.7330  175.8860  139.4340 O   0  0  0  0  0  0  0  0  0  0  0  0
  190.7600  176.8020  141.5650 N   0  0  0  0  0  2  0  0  0  0  0  0
  190.2390  176.7190  140.2390 C   0  0  0  0  0  0  0  0  0  0  0  0
  188.5670  177.5590  138.4980 C   0  0  2  0  0  0  0  0  0  0  0  0
  188.1140  176.2780  138.2160 F   0  0  0  0  0  0  0  0  0  0  0  0
  189.6010  177.9590  137.4590 C   0  0  0  0  0  1  0  0  0  0  0  0
  185.2180  178.7890  138.1330 O   0  0  0  0  0  1  0  0  0  0  0  0
  186.7880  178.6300  139.6610 O   0  0  0  0  0  0  0  0  0  0  0  0
  187.4290  178.5820  138.4640 C   0  0  2  0  0  3  0  0  0  0  0  0
  186.1470  177.9450  138.6400 N   0  0  0  0  0  0  0  0  0  0  0  0
  1  9  1  0  0  0  0
  3 15  1  1  0  0  0
  3 10  1  0  0  0  0
  3  8  1  0  0  0  0
  6  4  1  0  0  0  0
  7  1  2  0  0  0  0
  7 10  1  0  0  0  0
  8  6  1  0  0  0  0
  8  4  1  0  0  0  0
  8  2  1  0  0  0  0
  9  5  2  0  0  0  0
 10 12  2  0  0  0  0
 11  2  2  0  0  0  0
 12  5  1  0  0  0  0
 12 11  1  0  0  0  0
 13 14  2  0  0  0  0
 14  1  1  0  0  0  0
 16 15  1  0  0  0  0
 17 16  1  0  0  0  0
 18 21  1  0  0  0  0
 19 21  2  0  0  0  0
 20 17  1  0  0  0  0
 21 20  1  0  0  0  0
 22 24  1  6  0  0  0
 22 18  1  0  0  0  0
 23 22  1  0  0  0  0
 25 28  1  0  0  0  0
 27 22  1  1  0  0  0
 27 28  1  0  0  0  0
 27 26  1  0  0  0  0
 28 26  1  0  0  0  0
M  END
>  <MODEL>
2

>  <REMARK>
 VINA RESULT:      -8.5      1.842      3.115
  Name = 
  7 active torsions:
  status: ('A' for Active; 'I' for Inactive)
    1  A    between atoms: C_1  and  C_25
    2  A    between atoms: C_3  and  C_4
    3  A    between atoms: C_4  and  S_14
    4  A    between atoms: C_5  and  N_13
    5  A    between atoms: C_5  and  C_23
    6  A    between atoms: C_8  and  S_14
    7  A    between atoms: C_8  and  N_20
                            x       y       z     vdW  Elec       q    Type
                         _______ _______ _______ _____ _____    ______ ____

>  <TORSDO>
F 7

$$$$
=
 OpenBabel11062413343D

 28 31  0  0  1  0  0  0  0  0999 V2000
  191.0520  177.8380  144.4440 C   0  0  0  0  0  0  0  0  0  0  0  0
  187.2040  177.2460  147.7440 C   0  0  0  0  0  3  0  0  0  0  0  0
  187.3640  178.1540  145.3030 C   0  0  1  0  0  3  0  0  0  0  0  0
  186.4390  179.5760  147.1980 C   0  0  0  0  0  2  0  0  0  0  0  0
  190.6840  176.7720  146.5930 C   0  0  0  0  0  3  0  0  0  0  0  0
  185.2810  178.6700  146.8020 C   0  0  0  0  0  2  0  0  0  0  0  0
  189.6990  178.1800  144.3830 C   0  0  0  0  0  3  0  0  0  0  0  0
  186.7050  178.1790  146.6860 C   0  0  0  0  0  0  0  0  0  0  0  0
  191.5410  177.1290  145.5480 C   0  0  0  0  0  3  0  0  0  0  0  0
  188.8300  177.8290  145.4230 C   0  0  0  0  0  0  0  0  0  0  0  0
  188.4480  176.7710  147.6700 C   0  0  0  0  0  3  0  0  0  0  0  0
  189.3320  177.1220  146.5400 C   0  0  0  0  0  0  0  0  0  0  0  0
  191.7400  177.8250  142.1690 O   0  0  0  0  0  0  0  0  0  0  0  0
  191.9380  178.2300  143.3450 C   0  0  0  0  0  3  0  0  0  0  0  0
  186.6830  177.1160  144.4220 C   0  0  0  0  0  2  0  0  0  0  0  0
  185.6690  177.9450  143.1630 S   0  0  0  0  0  0  0  0  0  0  0  0
  187.0930  178.2100  142.0660 C   0  0  0  0  0  2  0  0  0  0  0  0
  188.4740  177.4560  139.6070 N   0  0  0  0  0  2  0  0  0  0  0  0
  186.9110  178.7660  138.4610 O   0  0  0  0  0  0  0  0  0  0  0  0
  186.6270  178.6440  140.7600 N   0  0  0  0  0  2  0  0  0  0  0  0
  187.3230  178.3090  139.5610 C   0  0  0  0  0  0  0  0  0  0  0  0
  189.2550  177.0690  138.4360 C   0  0  2  0  0  0  0  0  0  0  0  0
  189.7370  178.2080  137.8060 F   0  0  0  0  0  0  0  0  0  0  0  0
  188.3750  176.3010  137.4640 C   0  0  0  0  0  1  0  0  0  0  0  0
  191.9400  174.7120  138.1330 O   0  0  0  0  0  1  0  0  0  0  0  0
  191.5900  176.7790  138.7870 O   0  0  0  0  0  0  0  0  0  0  0  0
  190.3910  176.1490  138.8900 C   0  0  2  0  0  3  0  0  0  0  0  0
  191.2890  175.8520  137.8020 N   0  0  0  0  0  0  0  0  0  0  0  0
  1  9  1  0  0  0  0
  3 15  1  6  0  0  0
  3 10  1  0  0  0  0
  3  8  1  0  0  0  0
  6  4  1  0  0  0  0
  7  1  2  0  0  0  0
  7 10  1  0  0  0  0
  8  6  1  0  0  0  0
  8  4  1  0  0  0  0
  8  2  1  0  0  0  0
  9  5  2  0  0  0  0
 10 12  2  0  0  0  0
 11  2  2  0  0  0  0
 12  5  1  0  0  0  0
 12 11  1  0  0  0  0
 13 14  2  0  0  0  0
 14  1  1  0  0  0  0
 16 15  1  0  0  0  0
 17 16  1  0  0  0  0
 19 21  2  0  0  0  0
 20 17  1  0  0  0  0
 21 18  1  0  0  0  0
 21 20  1  0  0  0  0
 22 24  1  6  0  0  0
 22 18  1  0  0  0  0
 23 22  1  0  0  0  0
 26 27  1  0  0  0  0
 27 22  1  6  0  0  0
 28 25  1  0  0  0  0
 28 26  1  0  0  0  0
 28 27  1  0  0  0  0
M  END
>  <MODEL>
3

>  <REMARK>
 VINA RESULT:      -8.0      2.248      3.982
  Name = 
  7 active torsions:
  status: ('A' for Active; 'I' for Inactive)
    1  A    between atoms: C_1  and  C_25
    2  A    between atoms: C_3  and  C_4
    3  A    between atoms: C_4  and  S_14
    4  A    between atoms: C_5  and  N_13
    5  A    between atoms: C_5  and  C_23
    6  A    between atoms: C_8  and  S_14
    7  A    between atoms: C_8  and  N_20
                            x       y       z     vdW  Elec       q    Type
                         _______ _______ _______ _____ _____    ______ ____

>  <TORSDO>
F 7

$$$$
=
 OpenBabel11062413343D

 28 31  0  0  1  0  0  0  0  0999 V2000
  186.3420  178.0040  146.4090 C   0  0  0  0  0  0  0  0  0  0  0  0
  191.0200  177.0490  144.6020 C   0  0  0  0  0  3  0  0  0  0  0  0
  188.6790  177.3390  143.4860 C   0  0  1  0  0  3  0  0  0  0  0  0
  190.0470  175.2160  143.1850 C   0  0  0  0  0  2  0  0  0  0  0  0
  188.6180  177.9870  147.2510 C   0  0  0  0  0  3  0  0  0  0  0  0
  190.6570  176.2040  142.2000 C   0  0  0  0  0  2  0  0  0  0  0  0
  186.8170  177.7280  145.1240 C   0  0  0  0  0  3  0  0  0  0  0  0
  190.0680  176.6930  143.5030 C   0  0  0  0  0  0  0  0  0  0  0  0
  187.2460  178.1390  147.4700 C   0  0  0  0  0  3  0  0  0  0  0  0
  188.1890  177.5730  144.8920 C   0  0  0  0  0  0  0  0  0  0  0  0
  190.5440  177.5050  145.7630 C   0  0  0  0  0  3  0  0  0  0  0  0
  189.0960  177.7000  145.9690 C   0  0  0  0  0  0  0  0  0  0  0  0
  184.2220  178.9810  145.9620 O   0  0  0  0  0  0  0  0  0  0  0  0
  184.9010  178.1490  146.6210 C   0  0  0  0  0  3  0  0  0  0  0  0
  188.7310  178.6630  142.7380 C   0  0  0  0  0  2  0  0  0  0  0  0
  187.4550  178.6900  141.4440 S   0  0  0  0  0  0  0  0  0  0  0  0
  188.6060  178.0820  140.1760 C   0  0  0  0  0  2  0  0  0  0  0  0
  189.3400  176.6760  137.7240 N   0  0  0  0  0  2  0  0  0  0  0  0
  188.2240  178.3680  136.5550 O   0  0  0  0  0  0  0  0  0  0  0  0
  188.1790  178.5470  138.8680 N   0  0  0  0  0  2  0  0  0  0  0  0
  188.5690  177.8840  137.6660 C   0  0  0  0  0  0  0  0  0  0  0  0
  189.7930  175.9370  136.5500 C   0  0  2  0  0  0  0  0  0  0  0  0
  190.4820  176.7930  135.7030 F   0  0  0  0  0  0  0  0  0  0  0  0
  188.5960  175.3660  135.8090 C   0  0  0  0  0  1  0  0  0  0  0  0
  192.7930  174.2070  137.4810 O   0  0  0  0  0  1  0  0  0  0  0  0
  190.8810  174.8370  138.3580 O   0  0  0  0  0  0  0  0  0  0  0  0
  190.6710  174.7730  137.0170 C   0  0  2  0  0  3  0  0  0  0  0  0
  191.9270  175.2460  137.5460 N   0  0  0  0  0  0  0  0  0  0  0  0
  1 14  1  0  0  0  0
  1  9  1  0  0  0  0
  2 11  2  0  0  0  0
  3 15  1  6  0  0  0
  3  8  1  0  0  0  0
  3 10  1  0  0  0  0
  4  8  1  0  0  0  0
  5  9  2  0  0  0  0
  6  4  1  0  0  0  0
  6  8  1  0  0  0  0
  7  1  2  0  0  0  0
  8  2  1  0  0  0  0
 10  7  1  0  0  0  0
 10 12  2  0  0  0  0
 11 12  1  0  0  0  0
 12  5  1  0  0  0  0
 13 14  2  0  0  0  0
 16 15  1  0  0  0  0
 17 16  1  0  0  0  0
 19 21  2  0  0  0  0
 20 17  1  0  0  0  0
 21 18  1  0  0  0  0
 21 20  1  0  0  0  0
 22 24  1  6  0  0  0
 22 18  1  0  0  0  0
 23 22  1  0  0  0  0
 25 28  1  0  0  0  0
 27 22  1  1  0  0  0
 27 28  1  0  0  0  0
 27 26  1  0  0  0  0
 28 26  1  0  0  0  0
M  END
>  <MODEL>
4

>  <REMARK>
 VINA RESULT:      -7.8      2.146      2.927
  Name = 
  7 active torsions:
  status: ('A' for Active; 'I' for Inactive)
    1  A    between atoms: C_1  and  C_25
    2  A    between atoms: C_3  and  C_4
    3  A    between atoms: C_4  and  S_14
    4  A    between atoms: C_5  and  N_13
    5  A    between atoms: C_5  and  C_23
    6  A    between atoms: C_8  and  S_14
    7  A    between atoms: C_8  and  N_20
                            x       y       z     vdW  Elec       q    Type
                         _______ _______ _______ _____ _____    ______ ____

>  <TORSDO>
F 7

$$$$
=
 OpenBabel11062413343D

 28 31  0  0  1  0  0  0  0  0999 V2000
  186.1310  177.9560  146.2010 C   0  0  0  0  0  0  0  0  0  0  0  0
  190.9070  177.1120  144.6100 C   0  0  0  0  0  3  0  0  0  0  0  0
  188.6090  177.3200  143.3910 C   0  0  1  0  0  3  0  0  0  0  0  0
  190.0480  175.2340  143.1790 C   0  0  0  0  0  2  0  0  0  0  0  0
  188.3680  178.0150  147.1400 C   0  0  0  0  0  3  0  0  0  0  0  0
  190.6720  176.2260  142.2070 C   0  0  0  0  0  2  0  0  0  0  0  0
  186.6680  177.6760  144.9420 C   0  0  0  0  0  3  0  0  0  0  0  0
  190.0140  176.7150  143.4760 C   0  0  0  0  0  0  0  0  0  0  0  0
  186.9840  178.1300  147.2980 C   0  0  0  0  0  3  0  0  0  0  0  0
  188.0530  177.5580  144.7710 C   0  0  0  0  0  0  0  0  0  0  0  0
  190.3690  177.5700  145.7420 C   0  0  0  0  0  3  0  0  0  0  0  0
  188.9080  177.7250  145.8840 C   0  0  0  0  0  0  0  0  0  0  0  0
  184.0400  179.0340  145.8670 O   0  0  0  0  0  0  0  0  0  0  0  0
  184.6780  178.0620  146.3500 C   0  0  0  0  0  3  0  0  0  0  0  0
  188.6550  178.6350  142.6270 C   0  0  0  0  0  2  0  0  0  0  0  0
  188.0270  178.3900  140.9400 S   0  0  0  0  0  0  0  0  0  0  0  0
  186.2980  178.5780  141.4630 C   0  0  0  0  0  2  0  0  0  0  0  0
  183.9030  178.0270  139.8860 N   0  0  0  0  0  2  0  0  0  0  0  0
  184.0290  180.2380  139.1320 O   0  0  0  0  0  0  0  0  0  0  0  0
  185.6550  179.6040  140.6600 N   0  0  0  0  0  2  0  0  0  0  0  0
  184.5070  179.3260  139.8590 C   0  0  0  0  0  0  0  0  0  0  0  0
  182.7370  177.6500  139.0940 C   0  0  2  0  0  0  0  0  0  0  0  0
  182.9350  178.0240  137.7720 F   0  0  0  0  0  0  0  0  0  0  0  0
  181.5020  178.3560  139.6280 C   0  0  0  0  0  1  0  0  0  0  0  0
  181.2650  174.4360  138.4870 O   0  0  0  0  0  1  0  0  0  0  0  0
  183.1870  175.4710  138.2480 O   0  0  0  0  0  0  0  0  0  0  0  0
  182.5250  176.1400  139.2290 C   0  0  2  0  0  3  0  0  0  0  0  0
  181.8160  175.6070  138.0910 N   0  0  0  0  0  0  0  0  0  0  0  0
  1 14  1  0  0  0  0
  1  9  1  0  0  0  0
  2 11  2  0  0  0  0
  3 15  1  1  0  0  0
  3  8  1  0  0  0  0
  3 10  1  0  0  0  0
  4  8  1  0  0  0  0
  5  9  2  0  0  0  0
  6  4  1  0  0  0  0
  6  8  1  0  0  0  0
  7  1  2  0  0  0  0
  8  2  1  0  0  0  0
 10  7  1  0  0  0  0
 10 12  2  0  0  0  0
 11 12  1  0  0  0  0
 12  5  1  0  0  0  0
 13 14  2  0  0  0  0
 16 17  1  0  0  0  0
 16 15  1  0  0  0  0
 19 21  2  0  0  0  0
 20 17  1  0  0  0  0
 21 18  1  0  0  0  0
 21 20  1  0  0  0  0
 22 24  1  1  0  0  0
 22 18  1  0  0  0  0
 23 22  1  0  0  0  0
 26 27  1  0  0  0  0
 27 22  1  6  0  0  0
 28 26  1  0  0  0  0
 28 25  1  0  0  0  0
 28 27  1  0  0  0  0
M  END
>  <MODEL>
5

>  <REMARK>
 VINA RESULT:      -7.7      4.505      6.085
  Name = 
  7 active torsions:
  status: ('A' for Active; 'I' for Inactive)
    1  A    between atoms: C_1  and  C_25
    2  A    between atoms: C_3  and  C_4
    3  A    between atoms: C_4  and  S_14
    4  A    between atoms: C_5  and  N_13
    5  A    between atoms: C_5  and  C_23
    6  A    between atoms: C_8  and  S_14
    7  A    between atoms: C_8  and  N_20
                            x       y       z     vdW  Elec       q    Type
                         _______ _______ _______ _____ _____    ______ ____

>  <TORSDO>
F 7

$$$$
=
 OpenBabel11062413343D

 28 31  0  0  1  0  0  0  0  0999 V2000
  191.0530  177.8510  144.5340 C   0  0  0  0  0  0  0  0  0  0  0  0
  187.2570  177.2300  147.8890 C   0  0  0  0  0  3  0  0  0  0  0  0
  187.3740  178.1290  145.4420 C   0  0  1  0  0  3  0  0  0  0  0  0
  186.4590  179.5500  147.3440 C   0  0  0  0  0  2  0  0  0  0  0  0
  190.7260  176.7910  146.6920 C   0  0  0  0  0  3  0  0  0  0  0  0
  185.3050  178.6290  146.9680 C   0  0  0  0  0  2  0  0  0  0  0  0
  189.6950  178.1780  144.4900 C   0  0  0  0  0  3  0  0  0  0  0  0
  186.7330  178.1540  146.8340 C   0  0  0  0  0  0  0  0  0  0  0  0
  191.5650  177.1520  145.6340 C   0  0  0  0  0  3  0  0  0  0  0  0
  188.8450  177.8220  145.5440 C   0  0  0  0  0  0  0  0  0  0  0  0
  188.5060  176.7690  147.7990 C   0  0  0  0  0  3  0  0  0  0  0  0
  189.3690  177.1250  146.6560 C   0  0  0  0  0  0  0  0  0  0  0  0
  191.7540  177.7790  142.2640 O   0  0  0  0  0  0  0  0  0  0  0  0
  191.9190  178.2480  143.4210 C   0  0  0  0  0  3  0  0  0  0  0  0
  186.6920  177.0800  144.5750 C   0  0  0  0  0  2  0  0  0  0  0  0
  186.8630  177.5240  142.8210 S   0  0  0  0  0  0  0  0  0  0  0  0
  185.3380  178.5100  142.8320 C   0  0  0  0  0  2  0  0  0  0  0  0
  183.7050  177.8820  140.4950 N   0  0  0  0  0  2  0  0  0  0  0  0
  184.6010  179.7980  139.4950 O   0  0  0  0  0  0  0  0  0  0  0  0
  185.3080  179.3730  141.6630 N   0  0  0  0  0  2  0  0  0  0  0  0
  184.5400  179.0470  140.5060 C   0  0  0  0  0  0  0  0  0  0  0  0
  182.8950  177.4650  139.3550 C   0  0  2  0  0  0  0  0  0  0  0  0
  182.2790  178.5760  138.7950 F   0  0  0  0  0  0  0  0  0  0  0  0
  181.8280  176.4860  139.8130 C   0  0  0  0  0  1  0  0  0  0  0  0
  183.7830  175.6180  136.4120 O   0  0  0  0  0  1  0  0  0  0  0  0
  184.1320  177.5850  137.3250 O   0  0  0  0  0  0  0  0  0  0  0  0
  183.8030  176.7530  138.3480 C   0  0  2  0  0  3  0  0  0  0  0  0
  183.1620  176.6300  137.0620 N   0  0  0  0  0  0  0  0  0  0  0  0
  1  9  1  0  0  0  0
  3 15  1  6  0  0  0
  3 10  1  0  0  0  0
  3  8  1  0  0  0  0
  6  4  1  0  0  0  0
  7  1  2  0  0  0  0
  7 10  1  0  0  0  0
  8  6  1  0  0  0  0
  8  4  1  0  0  0  0
  8  2  1  0  0  0  0
  9  5  2  0  0  0  0
 10 12  2  0  0  0  0
 11  2  2  0  0  0  0
 12  5  1  0  0  0  0
 12 11  1  0  0  0  0
 13 14  2  0  0  0  0
 14  1  1  0  0  0  0
 16 17  1  0  0  0  0
 16 15  1  0  0  0  0
 18 21  1  0  0  0  0
 19 21  2  0  0  0  0
 20 17  1  0  0  0  0
 21 20  1  0  0  0  0
 22 24  1  1  0  0  0
 22 18  1  0  0  0  0
 23 22  1  0  0  0  0
 25 28  1  0  0  0  0
 26 27  1  0  0  0  0
 27 22  1  1  0  0  0
 28 26  1  0  0  0  0
 28 27  1  0  0  0  0
M  END
>  <MODEL>
6

>  <REMARK>
 VINA RESULT:      -7.5      4.086      6.317
  Name = 
  7 active torsions:
  status: ('A' for Active; 'I' for Inactive)
    1  A    between atoms: C_1  and  C_25
    2  A    between atoms: C_3  and  C_4
    3  A    between atoms: C_4  and  S_14
    4  A    between atoms: C_5  and  N_13
    5  A    between atoms: C_5  and  C_23
    6  A    between atoms: C_8  and  S_14
    7  A    between atoms: C_8  and  N_20
                            x       y       z     vdW  Elec       q    Type
                         _______ _______ _______ _____ _____    ______ ____

>  <TORSDO>
F 7

$$$$
=
 OpenBabel11062413343D

 28 31  0  0  1  0  0  0  0  0999 V2000
  190.9860  177.8750  144.3500 C   0  0  0  0  0  0  0  0  0  0  0  0
  187.3320  177.2580  147.8610 C   0  0  0  0  0  3  0  0  0  0  0  0
  187.3640  178.2350  145.4410 C   0  0  1  0  0  3  0  0  0  0  0  0
  186.5840  179.6170  147.4290 C   0  0  0  0  0  2  0  0  0  0  0  0
  190.7260  176.7530  146.4860 C   0  0  0  0  0  3  0  0  0  0  0  0
  185.3860  178.7460  147.0790 C   0  0  0  0  0  2  0  0  0  0  0  0
  189.6390  178.2440  144.3810 C   0  0  0  0  0  3  0  0  0  0  0  0
  186.7900  178.2320  146.8620 C   0  0  0  0  0  0  0  0  0  0  0  0
  191.5260  177.1240  145.4010 C   0  0  0  0  0  3  0  0  0  0  0  0
  188.8280  177.8790  145.4620 C   0  0  0  0  0  0  0  0  0  0  0  0
  188.5600  176.7620  147.6960 C   0  0  0  0  0  3  0  0  0  0  0  0
  189.3810  177.1300  146.5260 C   0  0  0  0  0  0  0  0  0  0  0  0
  191.7290  177.6950  142.1000 O   0  0  0  0  0  0  0  0  0  0  0  0
  191.8110  178.2830  143.2110 C   0  0  0  0  0  3  0  0  0  0  0  0
  186.6090  177.2370  144.5740 C   0  0  0  0  0  2  0  0  0  0  0  0
  185.3680  178.1060  143.5710 S   0  0  0  0  0  0  0  0  0  0  0  0
  186.5220  178.3380  142.1880 C   0  0  0  0  0  2  0  0  0  0  0  0
  184.1810  177.8010  140.5270 N   0  0  0  0  0  2  0  0  0  0  0  0
  184.4870  179.9290  139.6060 O   0  0  0  0  0  0  0  0  0  0  0  0
  185.9880  179.3300  141.2700 N   0  0  0  0  0  2  0  0  0  0  0  0
  184.8680  179.0550  140.4290 C   0  0  0  0  0  0  0  0  0  0  0  0
  183.0360  177.4280  139.7020 C   0  0  2  0  0  0  0  0  0  0  0  0
  182.6830  176.1130  139.9700 F   0  0  0  0  0  0  0  0  0  0  0  0
  183.4000  177.5530  138.2320 C   0  0  0  0  0  1  0  0  0  0  0  0
  179.6500  178.5360  140.1040 O   0  0  0  0  0  1  0  0  0  0  0  0
  181.4790  178.2760  141.2900 O   0  0  0  0  0  0  0  0  0  0  0  0
  181.8870  178.3950  139.9990 C   0  0  2  0  0  3  0  0  0  0  0  0
  180.6770  177.6830  140.3280 N   0  0  0  0  0  0  0  0  0  0  0  0
  1  7  2  0  0  0  0
  1  9  1  0  0  0  0
  3 15  1  6  0  0  0
  3 10  1  0  0  0  0
  3  8  1  0  0  0  0
  5 12  1  0  0  0  0
  6  4  1  0  0  0  0
  7 10  1  0  0  0  0
  8  6  1  0  0  0  0
  8  4  1  0  0  0  0
  8  2  1  0  0  0  0
  9  5  2  0  0  0  0
 10 12  2  0  0  0  0
 11  2  2  0  0  0  0
 12 11  1  0  0  0  0
 13 14  2  0  0  0  0
 14  1  1  0  0  0  0
 16 15  1  0  0  0  0
 17 16  1  0  0  0  0
 19 21  2  0  0  0  0
 20 17  1  0  0  0  0
 21 18  1  0  0  0  0
 21 20  1  0  0  0  0
 22 24  1  6  0  0  0
 22 23  1  0  0  0  0
 22 18  1  0  0  0  0
 25 28  1  0  0  0  0
 27 22  1  1  0  0  0
 27 28  1  0  0  0  0
 27 26  1  0  0  0  0
 28 26  1  0  0  0  0
M  END
>  <MODEL>
7

>  <REMARK>
 VINA RESULT:      -7.5      3.947      6.990
  Name = 
  7 active torsions:
  status: ('A' for Active; 'I' for Inactive)
    1  A    between atoms: C_1  and  C_25
    2  A    between atoms: C_3  and  C_4
    3  A    between atoms: C_4  and  S_14
    4  A    between atoms: C_5  and  N_13
    5  A    between atoms: C_5  and  C_23
    6  A    between atoms: C_8  and  S_14
    7  A    between atoms: C_8  and  N_20
                            x       y       z     vdW  Elec       q    Type
                         _______ _______ _______ _____ _____    ______ ____

>  <TORSDO>
F 7

$$$$
=
 OpenBabel11062413343D

 28 31  0  0  1  0  0  0  0  0999 V2000
  185.2520  178.2480  144.9640 C   0  0  0  0  0  0  0  0  0  0  0  0
  190.2340  177.1570  144.7430 C   0  0  0  0  0  3  0  0  0  0  0  0
  188.3540  177.3790  142.9470 C   0  0  1  0  0  3  0  0  0  0  0  0
  189.6970  175.2360  143.2140 C   0  0  0  0  0  2  0  0  0  0  0  0
  187.1610  178.2800  146.4620 C   0  0  0  0  0  3  0  0  0  0  0  0
  190.6030  176.1540  142.4030 C   0  0  0  0  0  2  0  0  0  0  0  0
  186.0900  177.8840  143.9070 C   0  0  0  0  0  3  0  0  0  0  0  0
  189.6550  176.7320  143.4290 C   0  0  0  0  0  0  0  0  0  0  0  0
  185.7910  178.4510  146.2400 C   0  0  0  0  0  3  0  0  0  0  0  0
  187.4630  177.7090  144.1160 C   0  0  0  0  0  0  0  0  0  0  0  0
  189.4370  177.6930  145.6700 C   0  0  0  0  0  3  0  0  0  0  0  0
  188.0000  177.9060  145.4090 C   0  0  0  0  0  0  0  0  0  0  0  0
  183.3960  179.1520  143.7870 O   0  0  0  0  0  0  0  0  0  0  0  0
  183.8180  178.4120  144.7140 C   0  0  0  0  0  3  0  0  0  0  0  0
  188.6630  178.6500  142.1680 C   0  0  0  0  0  2  0  0  0  0  0  0
  187.7990  178.6190  140.5700 S   0  0  0  0  0  0  0  0  0  0  0  0
  189.3530  178.5780  139.6310 C   0  0  0  0  0  2  0  0  0  0  0  0
  190.8020  176.6740  137.9570 N   0  0  0  0  0  2  0  0  0  0  0  0
  189.5480  177.4790  136.1540 O   0  0  0  0  0  0  0  0  0  0  0  0
  189.0640  178.4260  138.2160 N   0  0  0  0  0  2  0  0  0  0  0  0
  189.7970  177.5240  137.3890 C   0  0  0  0  0  0  0  0  0  0  0  0
  191.6080  175.7310  137.1890 C   0  0  2  0  0  0  0  0  0  0  0  0
  191.8540  176.2540  135.9280 F   0  0  0  0  0  0  0  0  0  0  0  0
  190.8590  174.4160  137.0420 C   0  0  0  0  0  1  0  0  0  0  0  0
  195.1380  175.3980  137.7250 O   0  0  0  0  0  1  0  0  0  0  0  0
  193.4480  176.6250  138.4040 O   0  0  0  0  0  0  0  0  0  0  0  0
  192.9060  175.4630  137.9550 C   0  0  2  0  0  3  0  0  0  0  0  0
  194.0380  176.0550  137.2870 N   0  0  0  0  0  0  0  0  0  0  0  0
  1  9  1  0  0  0  0
  2 11  2  0  0  0  0
  3 15  1  1  0  0  0
  3  8  1  0  0  0  0
  3 10  1  0  0  0  0
  4  8  1  0  0  0  0
  6  4  1  0  0  0  0
  6  8  1  0  0  0  0
  7 10  1  0  0  0  0
  7  1  2  0  0  0  0
  8  2  1  0  0  0  0
  9  5  2  0  0  0  0
 10 12  2  0  0  0  0
 12 11  1  0  0  0  0
 12  5  1  0  0  0  0
 13 14  2  0  0  0  0
 14  1  1  0  0  0  0
 16 15  1  0  0  0  0
 17 16  1  0  0  0  0
 19 21  2  0  0  0  0
 20 17  1  0  0  0  0
 21 18  1  0  0  0  0
 21 20  1  0  0  0  0
 22 24  1  6  0  0  0
 22 18  1  0  0  0  0
 23 22  1  0  0  0  0
 27 22  1  6  0  0  0
 27 26  1  0  0  0  0
 28 25  1  0  0  0  0
 28 27  1  0  0  0  0
 28 26  1  0  0  0  0
M  END
>  <MODEL>
8

>  <REMARK>
 VINA RESULT:      -7.5      1.909      2.575
  Name = 
  7 active torsions:
  status: ('A' for Active; 'I' for Inactive)
    1  A    between atoms: C_1  and  C_25
    2  A    between atoms: C_3  and  C_4
    3  A    between atoms: C_4  and  S_14
    4  A    between atoms: C_5  and  N_13
    5  A    between atoms: C_5  and  C_23
    6  A    between atoms: C_8  and  S_14
    7  A    between atoms: C_8  and  N_20
                            x       y       z     vdW  Elec       q    Type
                         _______ _______ _______ _____ _____    ______ ____

>  <TORSDO>
F 7

$$$$
=
 OpenBabel11062413343D

 28 31  0  0  1  0  0  0  0  0999 V2000
  188.4850  177.7050  139.0430 C   0  0  0  0  0  0  0  0  0  0  0  0
  192.0590  177.4030  142.6750 C   0  0  0  0  0  3  0  0  0  0  0  0
  189.4630  177.6680  142.7150 C   0  0  1  0  0  3  0  0  0  0  0  0
  190.9960  179.3710  143.8190 C   0  0  0  0  0  2  0  0  0  0  0  0
  190.8510  177.1830  139.1890 C   0  0  0  0  0  3  0  0  0  0  0  0
  190.9110  178.2300  144.8230 C   0  0  0  0  0  2  0  0  0  0  0  0
  188.4240  177.8110  140.4350 C   0  0  0  0  0  3  0  0  0  0  0  0
  190.8340  177.9470  143.3410 C   0  0  0  0  0  0  0  0  0  0  0  0
  189.6990  177.3850  138.4230 C   0  0  0  0  0  3  0  0  0  0  0  0
  189.5710  177.6110  141.2140 C   0  0  0  0  0  0  0  0  0  0  0  0
  192.0290  177.1190  141.3720 C   0  0  0  0  0  3  0  0  0  0  0  0
  190.7960  177.2980  140.5810 C   0  0  0  0  0  0  0  0  0  0  0  0
  187.1670  178.9220  137.4850 O   0  0  0  0  0  0  0  0  0  0  0  0
  187.2710  177.9320  138.2560 C   0  0  0  0  0  3  0  0  0  0  0  0
  188.9130  176.3480  143.2370 C   0  0  0  0  0  2  0  0  0  0  0  0
  187.2210  176.5870  143.8550 S   0  0  0  0  0  0  0  0  0  0  0  0
  187.7790  177.6250  145.2370 C   0  0  0  0  0  2  0  0  0  0  0  0
  185.2490  178.7330  144.2900 N   0  0  0  0  0  2  0  0  0  0  0  0
  184.5370  178.7110  146.5180 O   0  0  0  0  0  0  0  0  0  0  0  0
  186.6670  177.8770  146.1370 N   0  0  0  0  0  2  0  0  0  0  0  0
  185.4440  178.4550  145.6830 C   0  0  0  0  0  0  0  0  0  0  0  0
  184.0390  179.3320  143.7370 C   0  0  2  0  0  0  0  0  0  0  0  0
  183.9940  180.6780  144.0730 F   0  0  0  0  0  0  0  0  0  0  0  0
  182.8140  178.6380  144.3090 C   0  0  0  0  0  1  0  0  0  0  0  0
  185.1790  179.6320  140.3500 O   0  0  0  0  0  1  0  0  0  0  0  0
  184.8520  178.0890  141.8770 O   0  0  0  0  0  0  0  0  0  0  0  0
  184.0450  179.1260  142.2200 C   0  0  2  0  0  3  0  0  0  0  0  0
  185.3550  179.3630  141.6650 N   0  0  0  0  0  0  0  0  0  0  0  0
  1  7  1  0  0  0  0
  2  8  1  0  0  0  0
  3 15  1  1  0  0  0
  3  8  1  0  0  0  0
  4  6  1  0  0  0  0
  5 12  2  0  0  0  0
  7 10  2  0  0  0  0
  8  4  1  0  0  0  0
  8  6  1  0  0  0  0
  9  1  2  0  0  0  0
  9  5  1  0  0  0  0
 10  3  1  0  0  0  0
 11  2  2  0  0  0  0
 12 10  1  0  0  0  0
 12 11  1  0  0  0  0
 13 14  2  0  0  0  0
 14  1  1  0  0  0  0
 15 16  1  0  0  0  0
 16 17  1  0  0  0  0
 17 20  1  0  0  0  0
 18 21  1  0  0  0  0
 21 20  1  0  0  0  0
 21 19  2  0  0  0  0
 22 23  1  0  0  0  0
 22 18  1  0  0  0  0
 22 24  1  1  0  0  0
 25 28  1  0  0  0  0
 26 27  1  0  0  0  0
 27 22  1  1  0  0  0
 28 26  1  0  0  0  0
 28 27  1  0  0  0  0
M  END
>  <MODEL>
9

>  <REMARK>
 VINA RESULT:      -7.5      4.044      7.113
  Name = 
  7 active torsions:
  status: ('A' for Active; 'I' for Inactive)
    1  A    between atoms: C_1  and  C_25
    2  A    between atoms: C_3  and  C_4
    3  A    between atoms: C_4  and  S_14
    4  A    between atoms: C_5  and  N_13
    5  A    between atoms: C_5  and  C_23
    6  A    between atoms: C_8  and  S_14
    7  A    between atoms: C_8  and  N_20
                            x       y       z     vdW  Elec       q    Type
                         _______ _______ _______ _____ _____    ______ ____

>  <TORSDO>
F 7

$$$$
