=
 OpenBabel11062416513D

 34 37  0  0  1  0  0  0  0  0999 V2000
  191.6950  177.5080  142.0520 N   0  0  0  0  0  0  0  0  0  0  0  0
  189.3300  177.1420  142.1680 C   0  0  0  0  0  0  0  0  0  0  0  0
  191.6890  177.4270  140.6950 C   0  0  0  0  0  0  0  0  0  0  0  0
  189.3150  177.0340  140.7740 C   0  0  0  0  0  3  0  0  0  0  0  0
  190.4760  177.1820  140.0180 C   0  0  0  0  0  0  0  0  0  0  0  0
  192.9960  177.5140  139.9860 C   0  0  0  0  0  1  0  0  0  0  0  0
  190.5720  177.3730  142.8090 C   0  0  0  0  0  0  0  0  0  0  0  0
  189.0520  177.8070  146.0580 C   0  0  0  0  0  3  0  0  0  0  0  0
  190.7300  177.3880  144.2760 C   0  0  0  0  0  0  0  0  0  0  0  0
  190.0080  178.4200  145.0900 C   0  0  0  0  0  2  0  0  0  0  0  0
  191.7270  176.2930  146.2980 C   0  0  0  0  0  3  0  0  0  0  0  0
  191.5320  176.4830  144.8470 C   0  0  0  0  0  3  0  0  0  0  0  0
  189.4360  176.9950  147.0420 C   0  0  0  0  0  3  0  0  0  0  0  0
  190.8150  176.5140  147.2530 C   0  0  0  0  0  3  0  0  0  0  0  0
  187.7080  176.0320  143.4940 O   0  0  0  0  0  0  0  0  0  0  0  0
  187.1240  178.1880  142.8200 N   0  0  0  0  0  2  0  0  0  0  0  0
  188.0350  177.0850  142.8800 C   0  0  0  0  0  0  0  0  0  0  0  0
  185.8810  178.1670  143.4690 C   0  0  0  0  0  0  0  0  0  0  0  0
  184.8560  178.1500  144.0040 N   0  0  0  0  0  0  0  0  0  0  0  0
  190.3640  177.0730  138.6240 O   0  0  0  0  0  0  0  0  0  0  0  0
  190.5630  175.7130  135.5370 C   0  0  0  0  0  2  0  0  0  0  0  0
  189.1060  175.5910  137.2220 C   0  0  0  0  0  2  0  0  0  0  0  0
  189.2210  175.9440  135.8680 O   0  0  0  0  0  0  0  0  0  0  0  0
  190.4300  175.8460  137.9090 C   0  0  1  0  0  3  0  0  0  0  0  0
  191.3990  175.9810  136.7670 C   0  0  1  0  0  3  0  0  0  0  0  0
  193.4590  172.7340  136.4130 C   0  0  0  0  0  2  0  0  0  0  0  0
  192.3930  173.7980  136.3520 C   0  0  0  0  0  3  0  0  0  0  0  0
  194.8500  173.3300  136.5890 C   0  0  0  0  0  2  0  0  0  0  0  0
  192.5480  175.0220  136.8860 C   0  0  0  0  0  0  0  0  0  0  0  0
  194.5010  176.3430  136.5190 O   0  0  0  0  0  1  0  0  0  0  0  0
  193.8890  175.4830  137.4340 C   0  0  2  0  0  3  0  0  0  0  0  0
  194.8200  174.3050  137.7590 C   0  0  2  0  0  3  0  0  0  0  0  0
  196.1090  174.7590  138.0430 O   0  0  0  0  0  0  0  0  0  0  0  0
  196.3190  174.4240  139.3820 C   0  0  0  0  0  1  0  0  0  0  0  0
  1  7  1  0  0  0  0
  2  7  2  0  0  0  0
  2 17  1  0  0  0  0
  3  1  2  0  0  0  0
  4  2  1  0  0  0  0
  5  3  1  0  0  0  0
  5  4  2  0  0  0  0
  6  3  1  0  0  0  0
  7  9  1  0  0  0  0
  8 13  2  0  0  0  0
  9 12  2  0  0  0  0
  9 10  1  0  0  0  0
 10  8  1  0  0  0  0
 11 14  2  0  0  0  0
 12 11  1  0  0  0  0
 13 14  1  0  0  0  0
 16 17  1  0  0  0  0
 16 18  1  0  0  0  0
 17 15  2  0  0  0  0
 18 19  3  0  0  0  0
 20  5  1  0  0  0  0
 21 23  1  0  0  0  0
 21 25  1  0  0  0  0
 22 24  1  0  0  0  0
 23 22  1  0  0  0  0
 24 20  1  6  0  0  0
 25 29  1  1  0  0  0
 25 24  1  0  0  0  0
 26 28  1  0  0  0  0
 27 26  1  0  0  0  0
 27 29  2  0  0  0  0
 28 32  1  0  0  0  0
 29 31  1  0  0  0  0
 31 30  1  6  0  0  0
 31 32  1  0  0  0  0
 32 33  1  6  0  0  0
 33 34  1  0  0  0  0
M  END
>  <MODEL>
1

>  <REMARK>
 VINA RESULT:      -8.7      0.000      0.000
  Name = 
  7 active torsions:
  status: ('A' for Active; 'I' for Inactive)
    1  A    between atoms: O_1  and  C_21
    2  A    between atoms: O_1  and  C_31
    3  A    between atoms: C_2  and  N_13
    4  A    between atoms: O_5  and  C_34
    5  A    between atoms: C_12  and  C_16
    6  A    between atoms: C_17  and  C_23
    7  A    between atoms: C_19  and  C_33
                            x       y       z     vdW  Elec       q    Type
                         _______ _______ _______ _____ _____    ______ ____

>  <TORSDO>
F 7

$$$$
=
 OpenBabel11062416513D

 34 37  0  0  1  0  0  0  0  0999 V2000
  190.2430  176.4040  141.2670 N   0  0  0  0  0  0  0  0  0  0  0  0
  188.9850  177.7410  139.7280 C   0  0  0  0  0  0  0  0  0  0  0  0
  189.5250  176.8620  142.3260 C   0  0  0  0  0  0  0  0  0  0  0  0
  188.2550  178.2370  140.8110 C   0  0  0  0  0  3  0  0  0  0  0  0
  188.4990  177.8070  142.1140 C   0  0  0  0  0  0  0  0  0  0  0  0
  189.9210  176.4050  143.6870 C   0  0  0  0  0  1  0  0  0  0  0  0
  190.0170  176.8050  139.9860 C   0  0  0  0  0  0  0  0  0  0  0  0
  190.4560  175.6390  136.5950 C   0  0  0  0  0  3  0  0  0  0  0  0
  190.9290  176.3030  138.9400 C   0  0  0  0  0  0  0  0  0  0  0  0
  190.4750  175.2070  138.0230 C   0  0  0  0  0  2  0  0  0  0  0  0
  193.1520  176.5180  137.8050 C   0  0  0  0  0  3  0  0  0  0  0  0
  192.1540  176.8300  138.8460 C   0  0  0  0  0  3  0  0  0  0  0  0
  191.5510  176.0220  135.9380 C   0  0  0  0  0  3  0  0  0  0  0  0
  192.8900  176.1680  136.5390 C   0  0  0  0  0  3  0  0  0  0  0  0
  189.0540  179.2320  137.8850 O   0  0  0  0  0  0  0  0  0  0  0  0
  187.6120  177.4160  137.6320 N   0  0  0  0  0  2  0  0  0  0  0  0
  188.5820  178.1660  138.3700 C   0  0  0  0  0  0  0  0  0  0  0  0
  187.1930  177.7950  136.3480 C   0  0  0  0  0  0  0  0  0  0  0  0
  186.8480  178.1070  135.2880 N   0  0  0  0  0  0  0  0  0  0  0  0
  187.7070  178.3470  143.1380 O   0  0  0  0  0  0  0  0  0  0  0  0
  185.1070  178.7740  145.2540 C   0  0  0  0  0  2  0  0  0  0  0  0
  186.6780  177.2130  144.9820 C   0  0  0  0  0  2  0  0  0  0  0  0
  186.1560  178.1220  145.9170 O   0  0  0  0  0  0  0  0  0  0  0  0
  186.4860  177.7770  143.5910 C   0  0  1  0  0  3  0  0  0  0  0  0
  185.4660  178.8640  143.7890 C   0  0  1  0  0  3  0  0  0  0  0  0
  181.7750  178.8160  142.6530 C   0  0  0  0  0  2  0  0  0  0  0  0
  183.0610  178.9690  143.4240 C   0  0  0  0  0  3  0  0  0  0  0  0
  182.0020  178.8780  141.1480 C   0  0  0  0  0  2  0  0  0  0  0  0
  184.2670  178.6800  142.9040 C   0  0  0  0  0  0  0  0  0  0  0  0
  184.9550  179.4570  140.7550 O   0  0  0  0  0  1  0  0  0  0  0  0
  184.4340  178.3500  141.4300 C   0  0  2  0  0  3  0  0  0  0  0  0
  183.1150  177.9050  140.7810 C   0  0  2  0  0  3  0  0  0  0  0  0
  183.2500  177.8270  139.3930 O   0  0  0  0  0  0  0  0  0  0  0  0
  182.8430  176.5320  139.0670 C   0  0  0  0  0  1  0  0  0  0  0  0
  1  3  1  0  0  0  0
  2  7  1  0  0  0  0
  2  4  2  0  0  0  0
  3  6  1  0  0  0  0
  4  5  1  0  0  0  0
  5  3  2  0  0  0  0
  5 20  1  0  0  0  0
  7  1  2  0  0  0  0
  8 10  1  0  0  0  0
  9  7  1  0  0  0  0
 10  9  1  0  0  0  0
 11 12  1  0  0  0  0
 12  9  2  0  0  0  0
 13 14  1  0  0  0  0
 13  8  2  0  0  0  0
 14 11  2  0  0  0  0
 15 17  2  0  0  0  0
 16 17  1  0  0  0  0
 17  2  1  0  0  0  0
 18 16  1  0  0  0  0
 19 18  3  0  0  0  0
 21 23  1  0  0  0  0
 22 23  1  0  0  0  0
 24 20  1  1  0  0  0
 24 25  1  0  0  0  0
 24 22  1  0  0  0  0
 25 29  1  6  0  0  0
 25 21  1  0  0  0  0
 26 27  1  0  0  0  0
 28 26  1  0  0  0  0
 29 27  2  0  0  0  0
 31 30  1  6  0  0  0
 31 29  1  0  0  0  0
 32 33  1  6  0  0  0
 32 28  1  0  0  0  0
 32 31  1  0  0  0  0
 34 33  1  0  0  0  0
M  END
>  <MODEL>
2

>  <REMARK>
 VINA RESULT:      -8.7      3.100      9.057
  Name = 
  7 active torsions:
  status: ('A' for Active; 'I' for Inactive)
    1  A    between atoms: O_1  and  C_21
    2  A    between atoms: O_1  and  C_31
    3  A    between atoms: C_2  and  N_13
    4  A    between atoms: O_5  and  C_34
    5  A    between atoms: C_12  and  C_16
    6  A    between atoms: C_17  and  C_23
    7  A    between atoms: C_19  and  C_33
                            x       y       z     vdW  Elec       q    Type
                         _______ _______ _______ _____ _____    ______ ____

>  <TORSDO>
F 7

$$$$
=
 OpenBabel11062416513D

 34 37  0  0  1  0  0  0  0  0999 V2000
  181.7370  179.0540  141.8840 N   0  0  0  0  0  0  0  0  0  0  0  0
  183.7600  178.8920  140.6130 C   0  0  0  0  0  0  0  0  0  0  0  0
  182.3690  178.6800  143.0280 C   0  0  0  0  0  0  0  0  0  0  0  0
  184.4170  178.4840  141.7770 C   0  0  0  0  0  3  0  0  0  0  0  0
  183.7460  178.3800  142.9950 C   0  0  0  0  0  0  0  0  0  0  0  0
  181.5450  178.5150  144.2590 C   0  0  0  0  0  1  0  0  0  0  0  0
  182.3730  179.1690  140.6870 C   0  0  0  0  0  0  0  0  0  0  0  0
  181.2230  181.6560  138.3330 C   0  0  0  0  0  3  0  0  0  0  0  0
  181.5520  179.4920  139.5040 C   0  0  0  0  0  0  0  0  0  0  0  0
  180.7880  180.7810  139.4600 C   0  0  0  0  0  2  0  0  0  0  0  0
  180.8090  178.8160  137.2080 C   0  0  0  0  0  3  0  0  0  0  0  0
  181.4970  178.6120  138.4980 C   0  0  0  0  0  3  0  0  0  0  0  0
  181.1090  181.3020  137.0530 C   0  0  0  0  0  3  0  0  0  0  0  0
  180.6420  179.9850  136.5780 C   0  0  0  0  0  3  0  0  0  0  0  0
  184.6200  180.2230  138.8480 O   0  0  0  0  0  0  0  0  0  0  0  0
  185.2500  177.9780  138.7890 N   0  0  0  0  0  2  0  0  0  0  0  0
  184.5730  179.0850  139.3930 C   0  0  0  0  0  0  0  0  0  0  0  0
  186.0190  178.1170  137.6240 C   0  0  0  0  0  0  0  0  0  0  0  0
  186.6540  178.2320  136.6630 N   0  0  0  0  0  0  0  0  0  0  0  0
  184.4890  177.9780  144.1150 O   0  0  0  0  0  0  0  0  0  0  0  0
  186.6120  178.2150  146.7340 C   0  0  0  0  0  2  0  0  0  0  0  0
  185.1700  179.6000  145.7430 C   0  0  0  0  0  2  0  0  0  0  0  0
  185.4730  178.9950  146.9750 O   0  0  0  0  0  0  0  0  0  0  0  0
  185.6140  178.6830  144.6250 C   0  0  1  0  0  3  0  0  0  0  0  0
  186.5440  177.7180  145.3080 C   0  0  1  0  0  3  0  0  0  0  0  0
  190.3780  177.9580  144.9110 C   0  0  0  0  0  2  0  0  0  0  0  0
  188.9650  177.9440  145.4350 C   0  0  0  0  0  3  0  0  0  0  0  0
  190.5260  177.1180  143.6480 C   0  0  0  0  0  2  0  0  0  0  0  0
  187.8980  177.6840  144.6590 C   0  0  0  0  0  0  0  0  0  0  0  0
  187.8230  175.8290  143.1600 O   0  0  0  0  0  1  0  0  0  0  0  0
  188.0590  177.2050  143.2260 C   0  0  2  0  0  3  0  0  0  0  0  0
  189.4470  177.5330  142.6560 C   0  0  2  0  0  3  0  0  0  0  0  0
  189.6430  176.8890  141.4330 O   0  0  0  0  0  0  0  0  0  0  0  0
  189.0160  177.7080  140.4930 C   0  0  0  0  0  1  0  0  0  0  0  0
  1  3  1  0  0  0  0
  2  7  1  0  0  0  0
  2  4  2  0  0  0  0
  3  6  1  0  0  0  0
  4  5  1  0  0  0  0
  5  3  2  0  0  0  0
  5 20  1  0  0  0  0
  7  1  2  0  0  0  0
  8 10  1  0  0  0  0
  9  7  1  0  0  0  0
 10  9  1  0  0  0  0
 11 12  1  0  0  0  0
 12  9  2  0  0  0  0
 13  8  2  0  0  0  0
 14 13  1  0  0  0  0
 14 11  2  0  0  0  0
 15 17  2  0  0  0  0
 16 17  1  0  0  0  0
 17  2  1  0  0  0  0
 18 16  1  0  0  0  0
 19 18  3  0  0  0  0
 21 23  1  0  0  0  0
 22 23  1  0  0  0  0
 24 20  1  1  0  0  0
 24 25  1  0  0  0  0
 24 22  1  0  0  0  0
 25 29  1  6  0  0  0
 25 21  1  0  0  0  0
 26 27  1  0  0  0  0
 28 26  1  0  0  0  0
 29 27  2  0  0  0  0
 31 30  1  1  0  0  0
 31 29  1  0  0  0  0
 32 33  1  6  0  0  0
 32 31  1  0  0  0  0
 32 28  1  0  0  0  0
 34 33  1  0  0  0  0
M  END
>  <MODEL>
3

>  <REMARK>
 VINA RESULT:      -8.4      4.609      9.771
  Name = 
  7 active torsions:
  status: ('A' for Active; 'I' for Inactive)
    1  A    between atoms: O_1  and  C_21
    2  A    between atoms: O_1  and  C_31
    3  A    between atoms: C_2  and  N_13
    4  A    between atoms: O_5  and  C_34
    5  A    between atoms: C_12  and  C_16
    6  A    between atoms: C_17  and  C_23
    7  A    between atoms: C_19  and  C_33
                            x       y       z     vdW  Elec       q    Type
                         _______ _______ _______ _____ _____    ______ ____

>  <TORSDO>
F 7

$$$$
=
 OpenBabel11062416513D

 34 37  0  0  1  0  0  0  0  0999 V2000
  185.3540  178.3210  142.4150 N   0  0  0  0  0  0  0  0  0  0  0  0
  187.7310  178.0210  142.4030 C   0  0  0  0  0  0  0  0  0  0  0  0
  185.3240  178.5220  141.0720 C   0  0  0  0  0  0  0  0  0  0  0  0
  187.7160  178.2480  141.0240 C   0  0  0  0  0  3  0  0  0  0  0  0
  186.5280  178.4900  140.3370 C   0  0  0  0  0  0  0  0  0  0  0  0
  184.0150  178.8580  140.4450 C   0  0  0  0  0  1  0  0  0  0  0  0
  186.5020  178.0770  143.1050 C   0  0  0  0  0  0  0  0  0  0  0  0
  188.1090  177.2520  146.2340 C   0  0  0  0  0  3  0  0  0  0  0  0
  186.4080  177.9720  144.5740 C   0  0  0  0  0  0  0  0  0  0  0  0
  187.0510  176.8140  145.2770 C   0  0  0  0  0  2  0  0  0  0  0  0
  185.6240  179.0120  146.7140 C   0  0  0  0  0  3  0  0  0  0  0  0
  185.7330  178.9090  145.2460 C   0  0  0  0  0  3  0  0  0  0  0  0
  187.8580  178.0250  147.2890 C   0  0  0  0  0  3  0  0  0  0  0  0
  186.5490  178.6290  147.6040 C   0  0  0  0  0  3  0  0  0  0  0  0
  189.6990  178.5480  143.6160 O   0  0  0  0  0  0  0  0  0  0  0  0
  189.5340  176.3280  142.9180 N   0  0  0  0  0  2  0  0  0  0  0  0
  189.0200  177.6590  143.0300 C   0  0  0  0  0  0  0  0  0  0  0  0
  190.7590  175.9500  143.4860 C   0  0  0  0  0  0  0  0  0  0  0  0
  191.7700  175.6370  143.9550 N   0  0  0  0  0  0  0  0  0  0  0  0
  186.6060  178.6920  138.9510 O   0  0  0  0  0  0  0  0  0  0  0  0
  187.8350  178.2520  135.8340 C   0  0  0  0  0  2  0  0  0  0  0  0
  186.0450  177.5120  136.9410 C   0  0  0  0  0  2  0  0  0  0  0  0
  186.4340  178.2300  135.7980 O   0  0  0  0  0  0  0  0  0  0  0  0
  187.0790  177.7200  138.0260 C   0  0  1  0  0  3  0  0  0  0  0  0
  188.2650  178.2690  137.2820 C   0  0  1  0  0  3  0  0  0  0  0  0
  191.3380  176.7760  139.0820 C   0  0  0  0  0  2  0  0  0  0  0  0
  190.0850  177.5300  138.7220 C   0  0  0  0  0  3  0  0  0  0  0  0
  191.5290  175.5390  138.2130 C   0  0  0  0  0  2  0  0  0  0  0  0
  189.5030  177.4510  137.5120 C   0  0  0  0  0  0  0  0  0  0  0  0
  189.0820  175.3670  136.4270 O   0  0  0  0  0  1  0  0  0  0  0  0
  189.9710  176.4450  136.4740 C   0  0  2  0  0  3  0  0  0  0  0  0
  191.3960  175.9440  136.7500 C   0  0  2  0  0  3  0  0  0  0  0  0
  191.7110  174.8660  135.9200 O   0  0  0  0  0  0  0  0  0  0  0  0
  192.2340  173.8970  136.7780 C   0  0  0  0  0  1  0  0  0  0  0  0
  1  7  1  0  0  0  0
  2 17  1  0  0  0  0
  2  7  2  0  0  0  0
  3  1  2  0  0  0  0
  4  2  1  0  0  0  0
  5  4  2  0  0  0  0
  5  3  1  0  0  0  0
  6  3  1  0  0  0  0
  7  9  1  0  0  0  0
  8 13  2  0  0  0  0
  9 12  2  0  0  0  0
  9 10  1  0  0  0  0
 10  8  1  0  0  0  0
 11 14  2  0  0  0  0
 12 11  1  0  0  0  0
 13 14  1  0  0  0  0
 16 17  1  0  0  0  0
 16 18  1  0  0  0  0
 17 15  2  0  0  0  0
 18 19  3  0  0  0  0
 20  5  1  0  0  0  0
 21 25  1  0  0  0  0
 22 24  1  0  0  0  0
 23 21  1  0  0  0  0
 23 22  1  0  0  0  0
 24 20  1  1  0  0  0
 25 29  1  6  0  0  0
 25 24  1  0  0  0  0
 27 26  1  0  0  0  0
 28 26  1  0  0  0  0
 29 27  2  0  0  0  0
 31 30  1  1  0  0  0
 31 32  1  0  0  0  0
 31 29  1  0  0  0  0
 32 33  1  6  0  0  0
 32 28  1  0  0  0  0
 33 34  1  0  0  0  0
M  END
>  <MODEL>
4

>  <REMARK>
 VINA RESULT:      -8.3      2.371      4.660
  Name = 
  7 active torsions:
  status: ('A' for Active; 'I' for Inactive)
    1  A    between atoms: O_1  and  C_21
    2  A    between atoms: O_1  and  C_31
    3  A    between atoms: C_2  and  N_13
    4  A    between atoms: O_5  and  C_34
    5  A    between atoms: C_12  and  C_16
    6  A    between atoms: C_17  and  C_23
    7  A    between atoms: C_19  and  C_33
                            x       y       z     vdW  Elec       q    Type
                         _______ _______ _______ _____ _____    ______ ____

>  <TORSDO>
F 7

$$$$
=
 OpenBabel11062416513D

 34 37  0  0  1  0  0  0  0  0999 V2000
  186.2230  178.1440  138.3050 N   0  0  0  0  0  0  0  0  0  0  0  0
  186.3990  178.6260  140.6450 C   0  0  0  0  0  0  0  0  0  0  0  0
  187.5710  178.0200  138.1800 C   0  0  0  0  0  0  0  0  0  0  0  0
  187.7880  178.5240  140.5250 C   0  0  0  0  0  3  0  0  0  0  0  0
  188.3940  178.2140  139.3090 C   0  0  0  0  0  0  0  0  0  0  0  0
  188.1260  177.7710  136.8200 C   0  0  0  0  0  1  0  0  0  0  0  0
  185.6100  178.4400  139.4830 C   0  0  0  0  0  0  0  0  0  0  0  0
  182.4270  178.0080  141.1380 C   0  0  0  0  0  3  0  0  0  0  0  0
  184.1480  178.6390  139.4630 C   0  0  0  0  0  0  0  0  0  0  0  0
  183.2440  177.5580  139.9740 C   0  0  0  0  0  2  0  0  0  0  0  0
  182.2410  180.1860  138.9640 C   0  0  0  0  0  3  0  0  0  0  0  0
  183.6600  179.7820  138.9700 C   0  0  0  0  0  3  0  0  0  0  0  0
  181.5430  179.0020  141.0630 C   0  0  0  0  0  3  0  0  0  0  0  0
  181.3190  179.8480  139.8750 C   0  0  0  0  0  3  0  0  0  0  0  0
  185.1120  179.8560  142.2110 O   0  0  0  0  0  0  0  0  0  0  0  0
  186.1630  177.9600  143.0710 N   0  0  0  0  0  2  0  0  0  0  0  0
  185.8360  178.8450  141.9950 C   0  0  0  0  0  0  0  0  0  0  0  0
  185.6620  178.1420  144.3670 C   0  0  0  0  0  0  0  0  0  0  0  0
  185.2480  178.2920  145.4370 N   0  0  0  0  0  0  0  0  0  0  0  0
  189.7940  178.1160  139.2850 O   0  0  0  0  0  0  0  0  0  0  0  0
  192.8390  177.3390  140.5270 C   0  0  0  0  0  2  0  0  0  0  0  0
  191.4870  176.4440  138.9950 C   0  0  0  0  0  2  0  0  0  0  0  0
  192.7730  176.9790  139.1740 O   0  0  0  0  0  0  0  0  0  0  0  0
  190.5380  177.1130  139.9650 C   0  0  1  0  0  3  0  0  0  0  0  0
  191.4560  177.7600  140.9660 C   0  0  1  0  0  3  0  0  0  0  0  0
  191.6580  175.7530  144.2590 C   0  0  0  0  0  2  0  0  0  0  0  0
  191.8670  176.3000  142.8700 C   0  0  0  0  0  3  0  0  0  0  0  0
  191.0310  176.7830  145.1890 C   0  0  0  0  0  2  0  0  0  0  0  0
  191.1540  177.3250  142.3710 C   0  0  0  0  0  0  0  0  0  0  0  0
  190.7960  179.3480  143.5850 O   0  0  0  0  0  1  0  0  0  0  0  0
  190.2050  178.1280  143.2450 C   0  0  2  0  0  3  0  0  0  0  0  0
  189.7960  177.3650  144.5130 C   0  0  2  0  0  3  0  0  0  0  0  0
  189.1130  178.2040  145.3960 O   0  0  0  0  0  0  0  0  0  0  0  0
  188.6770  177.3640  146.4220 C   0  0  0  0  0  1  0  0  0  0  0  0
  1  7  1  0  0  0  0
  2 17  1  0  0  0  0
  3  1  2  0  0  0  0
  3  5  1  0  0  0  0
  4  2  1  0  0  0  0
  5  4  2  0  0  0  0
  6  3  1  0  0  0  0
  7  2  2  0  0  0  0
  9  7  1  0  0  0  0
  9 10  1  0  0  0  0
 10  8  1  0  0  0  0
 11 12  1  0  0  0  0
 11 14  2  0  0  0  0
 12  9  2  0  0  0  0
 13  8  2  0  0  0  0
 14 13  1  0  0  0  0
 16 18  1  0  0  0  0
 17 15  2  0  0  0  0
 17 16  1  0  0  0  0
 18 19  3  0  0  0  0
 20  5  1  0  0  0  0
 21 25  1  0  0  0  0
 22 23  1  0  0  0  0
 22 24  1  0  0  0  0
 23 21  1  0  0  0  0
 24 20  1  6  0  0  0
 24 25  1  0  0  0  0
 25 29  1  1  0  0  0
 26 28  1  0  0  0  0
 27 26  1  0  0  0  0
 29 27  2  0  0  0  0
 29 31  1  0  0  0  0
 31 30  1  1  0  0  0
 31 32  1  0  0  0  0
 32 28  1  0  0  0  0
 32 33  1  1  0  0  0
 33 34  1  0  0  0  0
M  END
>  <MODEL>
5

>  <REMARK>
 VINA RESULT:      -8.2      3.125      7.125
  Name = 
  7 active torsions:
  status: ('A' for Active; 'I' for Inactive)
    1  A    between atoms: O_1  and  C_21
    2  A    between atoms: O_1  and  C_31
    3  A    between atoms: C_2  and  N_13
    4  A    between atoms: O_5  and  C_34
    5  A    between atoms: C_12  and  C_16
    6  A    between atoms: C_17  and  C_23
    7  A    between atoms: C_19  and  C_33
                            x       y       z     vdW  Elec       q    Type
                         _______ _______ _______ _____ _____    ______ ____

>  <TORSDO>
F 7

$$$$
=
 OpenBabel11062416513D

 34 37  0  0  1  0  0  0  0  0999 V2000
  188.5530  177.3110  138.8300 N   0  0  0  0  0  0  0  0  0  0  0  0
  186.8300  178.2950  140.1720 C   0  0  0  0  0  0  0  0  0  0  0  0
  189.4090  177.2560  139.8850 C   0  0  0  0  0  0  0  0  0  0  0  0
  187.7080  178.2650  141.2590 C   0  0  0  0  0  3  0  0  0  0  0  0
  188.9950  177.7420  141.1420 C   0  0  0  0  0  0  0  0  0  0  0  0
  190.7910  176.7580  139.6360 C   0  0  0  0  0  1  0  0  0  0  0  0
  187.2910  177.8110  138.9230 C   0  0  0  0  0  0  0  0  0  0  0  0
  187.2420  178.0130  135.3160 C   0  0  0  0  0  3  0  0  0  0  0  0
  186.4970  177.9020  137.6820 C   0  0  0  0  0  0  0  0  0  0  0  0
  186.9670  178.7830  136.5630 C   0  0  0  0  0  2  0  0  0  0  0  0
  184.5020  177.1020  136.3950 C   0  0  0  0  0  3  0  0  0  0  0  0
  185.3610  177.2040  137.5910 C   0  0  0  0  0  3  0  0  0  0  0  0
  186.3030  177.3280  134.6640 C   0  0  0  0  0  3  0  0  0  0  0  0
  184.9110  177.1540  135.1210 C   0  0  0  0  0  3  0  0  0  0  0  0
  185.0030  179.7530  139.7720 O   0  0  0  0  0  0  0  0  0  0  0  0
  184.6360  178.1400  141.4160 N   0  0  0  0  0  2  0  0  0  0  0  0
  185.4470  178.7610  140.4140 C   0  0  0  0  0  0  0  0  0  0  0  0
  183.3260  178.5610  141.6850 C   0  0  0  0  0  0  0  0  0  0  0  0
  182.2450  178.9090  141.9070 N   0  0  0  0  0  0  0  0  0  0  0  0
  189.8020  177.7370  142.2890 O   0  0  0  0  0  0  0  0  0  0  0  0
  191.3160  176.4960  145.0440 C   0  0  0  0  0  2  0  0  0  0  0  0
  190.5750  175.6280  143.1270 C   0  0  0  0  0  2  0  0  0  0  0  0
  191.7290  175.7800  143.9120 O   0  0  0  0  0  0  0  0  0  0  0  0
  189.6640  176.8130  143.3620 C   0  0  1  0  0  3  0  0  0  0  0  0
  190.2010  177.4260  144.6250 C   0  0  1  0  0  3  0  0  0  0  0  0
  188.5960  178.0080  148.0900 C   0  0  0  0  0  2  0  0  0  0  0  0
  189.5470  177.8660  146.9290 C   0  0  0  0  0  3  0  0  0  0  0  0
  187.1800  178.3310  147.6300 C   0  0  0  0  0  2  0  0  0  0  0  0
  189.1450  177.5500  145.6860 C   0  0  0  0  0  0  0  0  0  0  0  0
  187.3130  178.6420  144.6150 O   0  0  0  0  0  1  0  0  0  0  0  0
  187.6700  177.4910  145.3220 C   0  0  2  0  0  3  0  0  0  0  0  0
  186.7730  177.3280  146.5580 C   0  0  2  0  0  3  0  0  0  0  0  0
  185.4290  177.5030  146.2190 O   0  0  0  0  0  0  0  0  0  0  0  0
  185.0130  178.6050  146.9680 C   0  0  0  0  0  1  0  0  0  0  0  0
  1  7  2  0  0  0  0
  1  3  1  0  0  0  0
  2 17  1  0  0  0  0
  2  4  2  0  0  0  0
  3  5  2  0  0  0  0
  5  4  1  0  0  0  0
  5 20  1  0  0  0  0
  6  3  1  0  0  0  0
  7  2  1  0  0  0  0
  8 10  1  0  0  0  0
  9  7  1  0  0  0  0
 10  9  1  0  0  0  0
 11 12  1  0  0  0  0
 12  9  2  0  0  0  0
 13 14  1  0  0  0  0
 13  8  2  0  0  0  0
 14 11  2  0  0  0  0
 15 17  2  0  0  0  0
 16 18  1  0  0  0  0
 17 16  1  0  0  0  0
 18 19  3  0  0  0  0
 22 24  1  0  0  0  0
 22 23  1  0  0  0  0
 23 21  1  0  0  0  0
 24 20  1  6  0  0  0
 24 25  1  0  0  0  0
 25 21  1  0  0  0  0
 25 29  1  1  0  0  0
 27 26  1  0  0  0  0
 28 26  1  0  0  0  0
 29 27  2  0  0  0  0
 31 30  1  1  0  0  0
 31 29  1  0  0  0  0
 31 32  1  0  0  0  0
 32 33  1  6  0  0  0
 32 28  1  0  0  0  0
 33 34  1  0  0  0  0
M  END
>  <MODEL>
6

>  <REMARK>
 VINA RESULT:      -8.2      3.714      8.934
  Name = 
  7 active torsions:
  status: ('A' for Active; 'I' for Inactive)
    1  A    between atoms: O_1  and  C_21
    2  A    between atoms: O_1  and  C_31
    3  A    between atoms: C_2  and  N_13
    4  A    between atoms: O_5  and  C_34
    5  A    between atoms: C_12  and  C_16
    6  A    between atoms: C_17  and  C_23
    7  A    between atoms: C_19  and  C_33
                            x       y       z     vdW  Elec       q    Type
                         _______ _______ _______ _____ _____    ______ ____

>  <TORSDO>
F 7

$$$$
=
 OpenBabel11062416513D

 34 37  0  0  1  0  0  0  0  0999 V2000
  184.8100  178.3770  144.6010 N   0  0  0  0  0  0  0  0  0  0  0  0
  186.7570  177.9140  143.2840 C   0  0  0  0  0  0  0  0  0  0  0  0
  184.0790  178.6870  143.4980 C   0  0  0  0  0  0  0  0  0  0  0  0
  186.0230  178.2530  142.1440 C   0  0  0  0  0  3  0  0  0  0  0  0
  184.6840  178.6320  142.2250 C   0  0  0  0  0  0  0  0  0  0  0  0
  182.6820  179.1630  143.6990 C   0  0  0  0  0  1  0  0  0  0  0  0
  186.1160  177.9980  144.5440 C   0  0  0  0  0  0  0  0  0  0  0  0
  189.1780  177.1270  146.2530 C   0  0  0  0  0  3  0  0  0  0  0  0
  186.8220  177.7800  145.8220 C   0  0  0  0  0  0  0  0  0  0  0  0
  187.7990  176.6490  145.9470 C   0  0  0  0  0  2  0  0  0  0  0  0
  187.2390  178.5800  148.1600 C   0  0  0  0  0  3  0  0  0  0  0  0
  186.5580  178.5930  146.8500 C   0  0  0  0  0  3  0  0  0  0  0  0
  189.4860  177.7940  147.3650 C   0  0  0  0  0  3  0  0  0  0  0  0
  188.5140  178.2340  148.3840 C   0  0  0  0  0  3  0  0  0  0  0  0
  188.3400  176.1720  142.9970 O   0  0  0  0  0  0  0  0  0  0  0  0
  189.2430  178.3210  143.0880 N   0  0  0  0  0  2  0  0  0  0  0  0
  188.1360  177.4140  143.0940 C   0  0  0  0  0  0  0  0  0  0  0  0
  190.5660  177.8850  142.9250 C   0  0  0  0  0  0  0  0  0  0  0  0
  191.6570  177.5250  142.7900 N   0  0  0  0  0  0  0  0  0  0  0  0
  184.0210  178.9400  141.0270 O   0  0  0  0  0  0  0  0  0  0  0  0
  182.6700  178.5490  137.9540 C   0  0  0  0  0  2  0  0  0  0  0  0
  182.1660  177.8200  140.0020 C   0  0  0  0  0  2  0  0  0  0  0  0
  181.6550  178.5570  138.9210 O   0  0  0  0  0  0  0  0  0  0  0  0
  183.6690  177.9810  140.0380 C   0  0  1  0  0  3  0  0  0  0  0  0
  183.9980  178.5230  138.6740 C   0  0  1  0  0  3  0  0  0  0  0  0
  185.4480  175.8250  136.3210 C   0  0  0  0  0  2  0  0  0  0  0  0
  184.5470  176.7530  137.0940 C   0  0  0  0  0  3  0  0  0  0  0  0
  186.8530  176.3940  136.1660 C   0  0  0  0  0  2  0  0  0  0  0  0
  185.0090  177.6740  137.9580 C   0  0  0  0  0  0  0  0  0  0  0  0
  186.7960  179.1590  137.4140 O   0  0  0  0  0  1  0  0  0  0  0  0
  186.4950  177.9680  138.0800 C   0  0  2  0  0  3  0  0  0  0  0  0
  187.3620  176.8230  137.5370 C   0  0  2  0  0  3  0  0  0  0  0  0
  188.7000  177.2110  137.4540 O   0  0  0  0  0  0  0  0  0  0  0  0
  189.2500  176.8630  138.6890 C   0  0  0  0  0  1  0  0  0  0  0  0
  2  7  2  0  0  0  0
  3  6  1  0  0  0  0
  3  1  2  0  0  0  0
  4  5  2  0  0  0  0
  4  2  1  0  0  0  0
  5  3  1  0  0  0  0
  7  1  1  0  0  0  0
  7  9  1  0  0  0  0
  8 13  2  0  0  0  0
  9 10  1  0  0  0  0
  9 12  2  0  0  0  0
 10  8  1  0  0  0  0
 11 14  2  0  0  0  0
 12 11  1  0  0  0  0
 13 14  1  0  0  0  0
 15 17  2  0  0  0  0
 16 17  1  0  0  0  0
 17  2  1  0  0  0  0
 18 16  1  0  0  0  0
 19 18  3  0  0  0  0
 20  5  1  0  0  0  0
 21 25  1  0  0  0  0
 21 23  1  0  0  0  0
 22 24  1  0  0  0  0
 23 22  1  0  0  0  0
 24 20  1  1  0  0  0
 25 29  1  6  0  0  0
 25 24  1  0  0  0  0
 26 27  1  0  0  0  0
 27 29  2  0  0  0  0
 28 26  1  0  0  0  0
 28 32  1  0  0  0  0
 29 31  1  0  0  0  0
 31 30  1  6  0  0  0
 32 33  1  6  0  0  0
 32 31  1  0  0  0  0
 33 34  1  0  0  0  0
M  END
>  <MODEL>
7

>  <REMARK>
 VINA RESULT:      -8.2      3.627      6.594
  Name = 
  7 active torsions:
  status: ('A' for Active; 'I' for Inactive)
    1  A    between atoms: O_1  and  C_21
    2  A    between atoms: O_1  and  C_31
    3  A    between atoms: C_2  and  N_13
    4  A    between atoms: O_5  and  C_34
    5  A    between atoms: C_12  and  C_16
    6  A    between atoms: C_17  and  C_23
    7  A    between atoms: C_19  and  C_33
                            x       y       z     vdW  Elec       q    Type
                         _______ _______ _______ _____ _____    ______ ____

>  <TORSDO>
F 7

$$$$
=
 OpenBabel11062416513D

 34 37  0  0  1  0  0  0  0  0999 V2000
  191.7140  177.5090  142.0810 N   0  0  0  0  0  0  0  0  0  0  0  0
  189.3430  177.1750  142.1770 C   0  0  0  0  0  0  0  0  0  0  0  0
  191.7190  177.4230  140.7240 C   0  0  0  0  0  0  0  0  0  0  0  0
  189.3380  177.0620  140.7840 C   0  0  0  0  0  3  0  0  0  0  0  0
  190.5090  177.1920  140.0380 C   0  0  0  0  0  0  0  0  0  0  0  0
  193.0330  177.4890  140.0260 C   0  0  0  0  0  1  0  0  0  0  0  0
  190.5820  177.3920  142.8280 C   0  0  0  0  0  0  0  0  0  0  0  0
  189.0450  177.8780  146.0620 C   0  0  0  0  0  3  0  0  0  0  0  0
  190.7270  177.4100  144.2970 C   0  0  0  0  0  0  0  0  0  0  0  0
  190.0240  178.4630  145.1000 C   0  0  0  0  0  2  0  0  0  0  0  0
  191.6800  176.3010  146.3320 C   0  0  0  0  0  3  0  0  0  0  0  0
  191.5030  176.4890  144.8790 C   0  0  0  0  0  3  0  0  0  0  0  0
  189.4000  177.0620  147.0530 C   0  0  0  0  0  3  0  0  0  0  0  0
  190.7650  176.5480  147.2780 C   0  0  0  0  0  3  0  0  0  0  0  0
  187.6940  176.0930  143.4920 O   0  0  0  0  0  0  0  0  0  0  0  0
  187.1460  178.2530  142.8050 N   0  0  0  0  0  2  0  0  0  0  0  0
  188.0410  177.1390  142.8770 C   0  0  0  0  0  0  0  0  0  0  0  0
  185.8970  178.2520  143.4440 C   0  0  0  0  0  0  0  0  0  0  0  0
  184.8670  178.2510  143.9700 N   0  0  0  0  0  0  0  0  0  0  0  0
  190.4070  177.0790  138.6430 O   0  0  0  0  0  0  0  0  0  0  0  0
  189.0160  177.3690  135.5770 C   0  0  0  0  0  2  0  0  0  0  0  0
  188.8030  178.4570  137.5130 C   0  0  0  0  0  2  0  0  0  0  0  0
  189.1420  178.6360  136.1610 O   0  0  0  0  0  0  0  0  0  0  0  0
  189.1770  177.0510  137.9290 C   0  0  1  0  0  3  0  0  0  0  0  0
  189.3720  176.3360  136.6210 C   0  0  1  0  0  3  0  0  0  0  0  0
  188.3020  172.6320  136.8430 C   0  0  0  0  0  2  0  0  0  0  0  0
  189.0470  173.9400  136.9100 C   0  0  0  0  0  3  0  0  0  0  0  0
  186.7910  172.8350  136.8550 C   0  0  0  0  0  2  0  0  0  0  0  0
  188.5120  175.1090  136.5150 C   0  0  0  0  0  0  0  0  0  0  0  0
  186.3340  175.8150  137.1880 O   0  0  0  0  0  1  0  0  0  0  0  0
  187.0440  175.2210  136.1410 C   0  0  2  0  0  3  0  0  0  0  0  0
  186.4270  173.8600  135.7880 C   0  0  2  0  0  3  0  0  0  0  0  0
  185.0400  173.9610  135.6710 O   0  0  0  0  0  0  0  0  0  0  0  0
  184.5420  172.8450  136.3460 C   0  0  0  0  0  1  0  0  0  0  0  0
  1  7  1  0  0  0  0
  2  7  2  0  0  0  0
  2 17  1  0  0  0  0
  3  1  2  0  0  0  0
  4  2  1  0  0  0  0
  5  3  1  0  0  0  0
  5  4  2  0  0  0  0
  6  3  1  0  0  0  0
  7  9  1  0  0  0  0
  8 13  2  0  0  0  0
  9 12  2  0  0  0  0
  9 10  1  0  0  0  0
 10  8  1  0  0  0  0
 11 14  2  0  0  0  0
 12 11  1  0  0  0  0
 13 14  1  0  0  0  0
 16 17  1  0  0  0  0
 16 18  1  0  0  0  0
 17 15  2  0  0  0  0
 18 19  3  0  0  0  0
 20  5  1  0  0  0  0
 21 23  1  0  0  0  0
 21 25  1  0  0  0  0
 22 24  1  0  0  0  0
 23 22  1  0  0  0  0
 24 20  1  1  0  0  0
 25 29  1  1  0  0  0
 25 24  1  0  0  0  0
 26 28  1  0  0  0  0
 26 27  1  0  0  0  0
 29 27  2  0  0  0  0
 31 29  1  0  0  0  0
 31 30  1  1  0  0  0
 32 33  1  1  0  0  0
 32 31  1  0  0  0  0
 32 28  1  0  0  0  0
 33 34  1  0  0  0  0
M  END
>  <MODEL>
8

>  <REMARK>
 VINA RESULT:      -8.2      2.463      4.263
  Name = 
  7 active torsions:
  status: ('A' for Active; 'I' for Inactive)
    1  A    between atoms: O_1  and  C_21
    2  A    between atoms: O_1  and  C_31
    3  A    between atoms: C_2  and  N_13
    4  A    between atoms: O_5  and  C_34
    5  A    between atoms: C_12  and  C_16
    6  A    between atoms: C_17  and  C_23
    7  A    between atoms: C_19  and  C_33
                            x       y       z     vdW  Elec       q    Type
                         _______ _______ _______ _____ _____    ______ ____

>  <TORSDO>
F 7

$$$$
=
 OpenBabel11062416513D

 34 37  0  0  1  0  0  0  0  0999 V2000
  188.3040  177.7530  139.5160 N   0  0  0  0  0  0  0  0  0  0  0  0
  190.3320  176.5540  139.0790 C   0  0  0  0  0  0  0  0  0  0  0  0
  188.6540  177.9690  140.8110 C   0  0  0  0  0  0  0  0  0  0  0  0
  190.6930  176.7500  140.4160 C   0  0  0  0  0  3  0  0  0  0  0  0
  189.8770  177.4600  141.2950 C   0  0  0  0  0  0  0  0  0  0  0  0
  187.6740  178.6650  141.6920 C   0  0  0  0  0  1  0  0  0  0  0  0
  189.0880  177.0690  138.6380 C   0  0  0  0  0  0  0  0  0  0  0  0
  186.4000  175.7950  136.5880 C   0  0  0  0  0  3  0  0  0  0  0  0
  188.5490  176.8230  137.2870 C   0  0  0  0  0  0  0  0  0  0  0  0
  187.8120  175.5490  137.0020 C   0  0  0  0  0  2  0  0  0  0  0  0
  188.1980  177.7040  134.9680 C   0  0  0  0  0  3  0  0  0  0  0  0
  188.7480  177.7430  136.3370 C   0  0  0  0  0  3  0  0  0  0  0  0
  186.0740  176.4750  135.4900 C   0  0  0  0  0  3  0  0  0  0  0  0
  187.0330  177.1550  134.5990 C   0  0  0  0  0  3  0  0  0  0  0  0
  191.2210  174.6460  137.9880 O   0  0  0  0  0  0  0  0  0  0  0  0
  192.3890  176.6300  137.6140 N   0  0  0  0  0  2  0  0  0  0  0  0
  191.3090  175.8890  138.1900 C   0  0  0  0  0  0  0  0  0  0  0  0
  193.3430  176.0330  136.7780 C   0  0  0  0  0  0  0  0  0  0  0  0
  194.1310  175.5410  136.0880 N   0  0  0  0  0  0  0  0  0  0  0  0
  190.3270  177.6200  142.6140 O   0  0  0  0  0  0  0  0  0  0  0  0
  191.5650  176.3320  145.4830 C   0  0  0  0  0  2  0  0  0  0  0  0
  190.9730  175.4900  143.5030 C   0  0  0  0  0  2  0  0  0  0  0  0
  192.0580  175.6100  144.3870 O   0  0  0  0  0  0  0  0  0  0  0  0
  190.0730  176.6950  143.6650 C   0  0  1  0  0  3  0  0  0  0  0  0
  190.5130  177.2900  144.9740 C   0  0  1  0  0  3  0  0  0  0  0  0
  188.6270  177.8700  148.2940 C   0  0  0  0  0  2  0  0  0  0  0  0
  189.6720  177.7130  147.2200 C   0  0  0  0  0  3  0  0  0  0  0  0
  187.2710  178.2570  147.7180 C   0  0  0  0  0  2  0  0  0  0  0  0
  189.3710  177.4360  145.9390 C   0  0  0  0  0  0  0  0  0  0  0  0
  187.6850  178.6190  144.7340 O   0  0  0  0  0  1  0  0  0  0  0  0
  187.9340  177.4420  145.4450 C   0  0  2  0  0  3  0  0  0  0  0  0
  186.9240  177.2920  146.5920 C   0  0  2  0  0  3  0  0  0  0  0  0
  185.6240  177.5260  146.1390 O   0  0  0  0  0  0  0  0  0  0  0  0
  185.1370  178.5420  146.9620 C   0  0  0  0  0  1  0  0  0  0  0  0
  1  3  1  0  0  0  0
  2  4  2  0  0  0  0
  3  5  2  0  0  0  0
  3  6  1  0  0  0  0
  4  5  1  0  0  0  0
  5 20  1  0  0  0  0
  7  2  1  0  0  0  0
  7  1  2  0  0  0  0
  8 10  1  0  0  0  0
  9  7  1  0  0  0  0
 10  9  1  0  0  0  0
 11 12  1  0  0  0  0
 12  9  2  0  0  0  0
 13  8  2  0  0  0  0
 14 11  2  0  0  0  0
 14 13  1  0  0  0  0
 15 17  2  0  0  0  0
 16 17  1  0  0  0  0
 17  2  1  0  0  0  0
 18 16  1  0  0  0  0
 19 18  3  0  0  0  0
 22 24  1  0  0  0  0
 22 23  1  0  0  0  0
 23 21  1  0  0  0  0
 24 20  1  6  0  0  0
 24 25  1  0  0  0  0
 25 21  1  0  0  0  0
 25 29  1  1  0  0  0
 27 26  1  0  0  0  0
 28 26  1  0  0  0  0
 29 27  2  0  0  0  0
 31 30  1  1  0  0  0
 31 29  1  0  0  0  0
 31 32  1  0  0  0  0
 32 33  1  6  0  0  0
 32 28  1  0  0  0  0
 33 34  1  0  0  0  0
M  END
>  <MODEL>
9

>  <REMARK>
 VINA RESULT:      -8.1      2.655      9.397
  Name = 
  7 active torsions:
  status: ('A' for Active; 'I' for Inactive)
    1  A    between atoms: O_1  and  C_21
    2  A    between atoms: O_1  and  C_31
    3  A    between atoms: C_2  and  N_13
    4  A    between atoms: O_5  and  C_34
    5  A    between atoms: C_12  and  C_16
    6  A    between atoms: C_17  and  C_23
    7  A    between atoms: C_19  and  C_33
                            x       y       z     vdW  Elec       q    Type
                         _______ _______ _______ _____ _____    ______ ____

>  <TORSDO>
F 7

$$$$
