=
 OpenBabel11062417263D

 45 50  0  0  1  0  0  0  0  0999 V2000
  185.4010  179.4140  138.9970 O   0  0  0  0  0  0  0  0  0  0  0  0
  184.4070  177.3840  138.4060 N   0  0  0  0  0  0  0  0  0  0  0  0
  185.5470  178.2640  138.5020 C   0  0  0  0  0  0  0  0  0  0  0  0
  182.0960  176.9300  139.2660 C   0  0  1  0  0  3  0  0  0  0  0  0
  181.2550  179.1300  138.9080 O   0  0  0  0  0  1  0  0  0  0  0  0
  182.4450  178.6820  140.9090 C   0  0  0  0  0  2  0  0  0  0  0  0
  181.4490  178.1590  139.8900 C   0  0  2  0  0  3  0  0  0  0  0  0
  183.5850  177.0290  139.5760 C   0  0  2  0  0  3  0  0  0  0  0  0
  181.5740  175.7790  139.8640 O   0  0  0  0  0  1  0  0  0  0  0  0
  183.7120  178.0350  140.6100 N   0  0  0  0  0  0  0  0  0  0  0  0
  185.9180  178.0350  143.6420 C   0  0  0  0  0  0  0  0  0  0  0  0
  184.5750  178.7080  145.6370 C   0  0  0  0  0  2  0  0  0  0  0  0
  184.6990  178.2100  142.8050 C   0  0  0  0  0  0  0  0  0  0  0  0
  184.7730  177.9540  141.5290 N   0  0  0  0  0  0  0  0  0  0  0  0
  183.4190  178.7020  143.4340 C   0  0  0  0  0  2  0  0  0  0  0  0
  185.8570  178.3230  144.9550 C   0  0  0  0  0  3  0  0  0  0  0  0
  183.6990  179.5190  144.6930 C   0  0  0  0  0  2  0  0  0  0  0  0
  187.2260  177.6200  142.9870 C   0  0  2  0  0  0  0  0  0  0  0  0
  187.5630  176.1580  143.2300 C   0  0  0  0  0  2  0  0  0  0  0  0
  188.2170  177.2290  144.0750 C   0  0  1  0  0  3  0  0  0  0  0  0
  188.4260  178.5090  143.2900 C   0  0  1  0  0  3  0  0  0  0  0  0
  189.5030  178.3030  142.2420 C   0  0  0  0  0  2  0  0  0  0  0  0
  190.8440  178.0950  142.9190 C   0  0  0  0  0  2  0  0  0  0  0  0
  191.3640  176.6960  142.6490 C   0  0  0  0  0  2  0  0  0  0  0  0
  191.6640  175.9820  143.9520 C   0  0  0  0  0  1  0  0  0  0  0  0
  184.3550  175.4030  136.9160 C   0  0  2  0  0  3  0  0  0  0  0  0
  185.4490  175.8460  134.6440 C   0  0  0  0  0  2  0  0  0  0  0  0
  184.5350  177.0770  134.6310 C   0  0  0  0  0  2  0  0  0  0  0  0
  184.0170  176.8960  137.0850 C   0  0  2  0  0  3  0  0  0  0  0  0
  184.5650  177.7960  135.9680 C   0  0  0  0  0  2  0  0  0  0  0  0
  185.5840  175.1880  136.0280 C   0  0  0  0  0  2  0  0  0  0  0  0
  183.2100  174.6900  136.3740 N   0  0  0  0  0  2  0  0  0  0  0  0
  183.3320  170.7630  136.6400 C   0  0  0  0  0  3  0  0  0  0  0  0
  184.3810  172.1980  137.0680 S   0  0  0  0  0  0  0  0  0  0  0  0
  183.0910  173.2680  136.4360 C   0  0  0  0  0  0  0  0  0  0  0  0
  182.0790  171.2840  136.1220 N   0  0  0  0  0  0  0  0  0  0  0  0
  182.0300  172.6740  136.0200 N   0  0  0  0  0  0  0  0  0  0  0  0
  187.2960  178.6460  136.7050 C   0  0  0  0  0  1  0  0  0  0  0  0
  186.8990  177.8900  137.9670 C   0  0  1  0  0  3  0  0  0  0  0  0
  187.9840  177.8470  139.0570 C   0  0  2  0  0  3  0  0  0  0  0  0
  189.0290  178.9450  138.8540 C   0  0  0  0  0  1  0  0  0  0  0  0
  189.9680  176.7220  139.2320 O   0  0  0  0  0  1  0  0  0  0  0  0
  188.6290  176.5310  139.1240 N   0  0  0  0  0  0  0  0  0  0  0  0
  189.7490  175.3650  137.2950 C   0  0  0  0  0  1  0  0  0  0  0  0
  188.4240  175.8700  137.8370 C   0  0  0  0  0  2  0  0  0  0  0  0
  2  3  1  0  0  0  0
  3  1  2  0  0  0  0
  4  8  1  0  0  0  0
  4  9  1  1  0  0  0
  4  7  1  0  0  0  0
  7  5  1  6  0  0  0
  7  6  1  0  0  0  0
  8  2  1  6  0  0  0
  8 10  1  0  0  0  0
 10  6  1  0  0  0  0
 10 14  1  0  0  0  0
 11 16  2  0  0  0  0
 13 15  1  0  0  0  0
 13 11  1  0  0  0  0
 14 13  2  0  0  0  0
 15 17  1  0  0  0  0
 16 12  1  0  0  0  0
 17 12  1  0  0  0  0
 18 19  1  0  0  0  0
 18 21  1  0  0  0  0
 18 11  1  1  0  0  0
 18 20  1  0  0  0  0
 20 19  1  6  0  0  0
 21 22  1  6  0  0  0
 21 20  1  0  0  0  0
 22 23  1  0  0  0  0
 24 23  1  0  0  0  0
 24 25  1  0  0  0  0
 26 32  1  6  0  0  0
 26 29  1  0  0  0  0
 27 31  1  0  0  0  0
 28 27  1  0  0  0  0
 28 30  1  0  0  0  0
 29  2  1  1  0  0  0
 30 29  1  0  0  0  0
 31 26  1  0  0  0  0
 32 35  1  0  0  0  0
 33 34  1  0  0  0  0
 35 34  1  0  0  0  0
 36 33  2  0  0  0  0
 37 36  1  0  0  0  0
 37 35  2  0  0  0  0
 39 38  1  6  0  0  0
 39  3  1  0  0  0  0
 39 40  1  0  0  0  0
 40 41  1  6  0  0  0
 40 43  1  0  0  0  0
 43 42  1  0  0  0  0
 44 45  1  0  0  0  0
 45 43  1  0  0  0  0
M  END
>  <MODEL>
1

>  <REMARK>
 VINA RESULT:      -6.7      0.000      0.000
  Name = 
  12 active torsions:
  status: ('A' for Active; 'I' for Inactive)
    1  A    between atoms: C_1  and  N_9
    2  A    between atoms: C_3  and  C_4
    3  A    between atoms: C_11  and  C_43
    4  A    between atoms: C_19  and  N_32
    5  A    between atoms: N_20  and  C_23
    6  A    between atoms: N_20  and  C_35
    7  A    between atoms: C_23  and  C_26
    8  A    between atoms: N_24  and  N_38
    9  A    between atoms: C_26  and  C_33
   10  A    between atoms: C_30  and  N_32
   11  A    between atoms: C_37  and  C_40
   12  A    between atoms: C_37  and  C_43
                            x       y       z     vdW  Elec       q    Type
                         _______ _______ _______ _____ _____    ______ ____

>  <TORSDO>
F 12

$$$$
=
 OpenBabel11062417263D

 45 50  0  0  1  0  0  0  0  0999 V2000
  187.9280  179.0700  139.8320 O   0  0  0  0  0  0  0  0  0  0  0  0
  186.3230  177.8770  138.6230 N   0  0  0  0  0  0  0  0  0  0  0  0
  187.6870  178.1370  139.0190 C   0  0  0  0  0  0  0  0  0  0  0  0
  183.8520  177.7400  139.0220 C   0  0  1  0  0  3  0  0  0  0  0  0
  183.4040  180.0490  138.6420 O   0  0  0  0  0  1  0  0  0  0  0  0
  184.1250  179.3730  140.7970 C   0  0  0  0  0  2  0  0  0  0  0  0
  183.2750  179.0320  139.5870 C   0  0  2  0  0  3  0  0  0  0  0  0
  185.2550  177.6110  139.6030 C   0  0  2  0  0  3  0  0  0  0  0  0
  183.0730  176.6600  139.4500 O   0  0  0  0  0  1  0  0  0  0  0  0
  185.3230  178.5570  140.6970 N   0  0  0  0  0  0  0  0  0  0  0  0
  186.8470  177.9640  144.0720 C   0  0  0  0  0  0  0  0  0  0  0  0
  185.0960  178.2550  145.8280 C   0  0  0  0  0  2  0  0  0  0  0  0
  185.8250  178.3040  143.0440 C   0  0  0  0  0  0  0  0  0  0  0  0
  186.1710  178.2940  141.7880 N   0  0  0  0  0  0  0  0  0  0  0  0
  184.4260  178.6760  143.4690 C   0  0  0  0  0  2  0  0  0  0  0  0
  186.5040  177.9980  145.3730 C   0  0  0  0  0  3  0  0  0  0  0  0
  184.4100  179.2370  144.8900 C   0  0  0  0  0  2  0  0  0  0  0  0
  188.2770  177.6720  143.6420 C   0  0  2  0  0  0  0  0  0  0  0  0
  188.3980  176.3750  142.8590 C   0  0  0  0  0  2  0  0  0  0  0  0
  188.7450  176.3980  144.3320 C   0  0  1  0  0  3  0  0  0  0  0  0
  189.3240  177.7370  144.7470 C   0  0  1  0  0  3  0  0  0  0  0  0
  190.7050  177.9140  144.1440 C   0  0  0  0  0  2  0  0  0  0  0  0
  191.6700  176.9300  144.7780 C   0  0  0  0  0  2  0  0  0  0  0  0
  191.4940  176.9110  146.2840 C   0  0  0  0  0  2  0  0  0  0  0  0
  192.0640  175.6320  146.8660 C   0  0  0  0  0  1  0  0  0  0  0  0
  185.8530  176.5600  136.5760 C   0  0  2  0  0  3  0  0  0  0  0  0
  187.3350  177.2400  134.6010 C   0  0  0  0  0  2  0  0  0  0  0  0
  186.8690  178.6570  134.9550 C   0  0  0  0  0  2  0  0  0  0  0  0
  185.9860  177.9600  137.2040 C   0  0  2  0  0  3  0  0  0  0  0  0
  186.9400  178.9000  136.4530 C   0  0  0  0  0  2  0  0  0  0  0  0
  187.0610  176.2040  135.7040 C   0  0  0  0  0  2  0  0  0  0  0  0
  184.6280  176.4750  135.7970 N   0  0  0  0  0  2  0  0  0  0  0  0
  182.2820  173.4150  136.5910 C   0  0  0  0  0  3  0  0  0  0  0  0
  183.8920  174.0830  137.1390 S   0  0  0  0  0  0  0  0  0  0  0  0
  183.6580  175.4480  136.0020 C   0  0  0  0  0  0  0  0  0  0  0  0
  181.7210  174.3620  135.6430 N   0  0  0  0  0  0  0  0  0  0  0  0
  182.5490  175.4460  135.3530 N   0  0  0  0  0  0  0  0  0  0  0  0
  189.7030  178.1980  137.4810 C   0  0  0  0  0  1  0  0  0  0  0  0
  188.8490  177.3810  138.4430 C   0  0  1  0  0  3  0  0  0  0  0  0
  189.6450  176.6040  139.5070 C   0  0  2  0  0  3  0  0  0  0  0  0
  190.5170  177.5360  140.3490 C   0  0  0  0  0  1  0  0  0  0  0  0
  191.7110  176.0370  138.7050 O   0  0  0  0  0  1  0  0  0  0  0  0
  190.4610  175.5460  138.9030 N   0  0  0  0  0  0  0  0  0  0  0  0
  190.1240  173.8130  137.2170 C   0  0  0  0  0  1  0  0  0  0  0  0
  189.9250  175.2750  137.5710 C   0  0  0  0  0  2  0  0  0  0  0  0
  2  3  1  0  0  0  0
  3  1  2  0  0  0  0
  4  9  1  1  0  0  0
  4  7  1  0  0  0  0
  4  8  1  0  0  0  0
  7  5  1  6  0  0  0
  7  6  1  0  0  0  0
  8  2  1  6  0  0  0
  8 10  1  0  0  0  0
 10  6  1  0  0  0  0
 10 14  1  0  0  0  0
 11 16  2  0  0  0  0
 13 15  1  0  0  0  0
 13 11  1  0  0  0  0
 14 13  2  0  0  0  0
 15 17  1  0  0  0  0
 16 12  1  0  0  0  0
 17 12  1  0  0  0  0
 18 11  1  1  0  0  0
 18 20  1  0  0  0  0
 18 21  1  0  0  0  0
 19 18  1  0  0  0  0
 20 19  1  6  0  0  0
 20 21  1  0  0  0  0
 21 22  1  6  0  0  0
 22 23  1  0  0  0  0
 23 24  1  0  0  0  0
 24 25  1  0  0  0  0
 26 32  1  6  0  0  0
 26 29  1  0  0  0  0
 27 28  1  0  0  0  0
 27 31  1  0  0  0  0
 28 30  1  0  0  0  0
 29  2  1  1  0  0  0
 30 29  1  0  0  0  0
 31 26  1  0  0  0  0
 32 35  1  0  0  0  0
 33 34  1  0  0  0  0
 35 34  1  0  0  0  0
 36 33  2  0  0  0  0
 37 36  1  0  0  0  0
 37 35  2  0  0  0  0
 39 38  1  1  0  0  0
 39  3  1  0  0  0  0
 39 40  1  0  0  0  0
 40 41  1  6  0  0  0
 42 43  1  0  0  0  0
 43 40  1  0  0  0  0
 44 45  1  0  0  0  0
 45 43  1  0  0  0  0
M  END
>  <MODEL>
2

>  <REMARK>
 VINA RESULT:      -6.7      1.605      2.098
  Name = 
  12 active torsions:
  status: ('A' for Active; 'I' for Inactive)
    1  A    between atoms: C_1  and  N_9
    2  A    between atoms: C_3  and  C_4
    3  A    between atoms: C_11  and  C_43
    4  A    between atoms: C_19  and  N_32
    5  A    between atoms: N_20  and  C_23
    6  A    between atoms: N_20  and  C_35
    7  A    between atoms: C_23  and  C_26
    8  A    between atoms: N_24  and  N_38
    9  A    between atoms: C_26  and  C_33
   10  A    between atoms: C_30  and  N_32
   11  A    between atoms: C_37  and  C_40
   12  A    between atoms: C_37  and  C_43
                            x       y       z     vdW  Elec       q    Type
                         _______ _______ _______ _____ _____    ______ ____

>  <TORSDO>
F 12

$$$$
=
 OpenBabel11062417263D

 45 50  0  0  1  0  0  0  0  0999 V2000
  182.8880  176.2450  140.0010 O   0  0  0  0  0  0  0  0  0  0  0  0
  182.5310  177.5160  138.0730 N   0  0  0  0  0  0  0  0  0  0  0  0
  183.1650  177.2880  139.3490 C   0  0  0  0  0  0  0  0  0  0  0  0
  181.2700  175.8230  136.7210 C   0  0  1  0  0  3  0  0  0  0  0  0
  180.8750  174.3070  138.5150 O   0  0  0  0  0  1  0  0  0  0  0  0
  182.9410  174.1820  137.3590 C   0  0  0  0  0  2  0  0  0  0  0  0
  181.4440  174.4030  137.2460 C   0  0  2  0  0  3  0  0  0  0  0  0
  182.5930  176.5350  136.9750 C   0  0  2  0  0  3  0  0  0  0  0  0
  181.0260  175.7800  135.3450 O   0  0  0  0  0  1  0  0  0  0  0  0
  183.5560  175.4960  137.2780 N   0  0  0  0  0  0  0  0  0  0  0  0
  187.1150  175.2090  136.1330 C   0  0  0  0  0  0  0  0  0  0  0  0
  187.5020  172.9190  135.2140 C   0  0  0  0  0  2  0  0  0  0  0  0
  185.7120  174.8140  136.4350 C   0  0  0  0  0  0  0  0  0  0  0  0
  184.9120  175.6960  136.9640 N   0  0  0  0  0  0  0  0  0  0  0  0
  185.2490  173.4060  136.1520 C   0  0  0  0  0  2  0  0  0  0  0  0
  187.9550  174.2950  135.6120 C   0  0  0  0  0  3  0  0  0  0  0  0
  186.4200  172.4250  136.1640 C   0  0  0  0  0  2  0  0  0  0  0  0
  187.5990  176.6030  136.4990 C   0  0  2  0  0  0  0  0  0  0  0  0
  188.4770  177.2180  135.4220 C   0  0  0  0  0  2  0  0  0  0  0  0
  189.1150  176.5760  136.6350 C   0  0  1  0  0  3  0  0  0  0  0  0
  188.2500  176.7370  137.8700 C   0  0  1  0  0  3  0  0  0  0  0  0
  188.2400  178.1890  138.3100 C   0  0  0  0  0  2  0  0  0  0  0  0
  188.5300  178.2750  139.7970 C   0  0  0  0  0  2  0  0  0  0  0  0
  189.7410  177.4340  140.1510 C   0  0  0  0  0  2  0  0  0  0  0  0
  189.6700  176.9900  141.5980 C   0  0  0  0  0  1  0  0  0  0  0  0
  180.4070  178.6460  138.6750 C   0  0  2  0  0  3  0  0  0  0  0  0
  179.0960  179.4410  136.6240 C   0  0  0  0  0  2  0  0  0  0  0  0
  180.4330  180.0710  136.2200 C   0  0  0  0  0  2  0  0  0  0  0  0
  181.7360  178.7310  137.9010 C   0  0  2  0  0  3  0  0  0  0  0  0
  181.5810  179.0970  136.4180 C   0  0  0  0  0  2  0  0  0  0  0  0
  179.2170  178.3940  137.7440 C   0  0  0  0  0  2  0  0  0  0  0  0
  180.1970  179.8610  139.4440 N   0  0  0  0  0  2  0  0  0  0  0  0
  178.9310  179.3730  143.1400 C   0  0  0  0  0  3  0  0  0  0  0  0
  179.3510  178.3430  141.6890 S   0  0  0  0  0  0  0  0  0  0  0  0
  179.7820  179.8430  140.8100 C   0  0  0  0  0  0  0  0  0  0  0  0
  179.2380  180.7500  142.7950 N   0  0  0  0  0  0  0  0  0  0  0  0
  179.6830  180.9310  141.4850 N   0  0  0  0  0  0  0  0  0  0  0  0
  183.9950  179.6850  139.3800 C   0  0  0  0  0  1  0  0  0  0  0  0
  184.0990  178.2850  139.9730 C   0  0  1  0  0  3  0  0  0  0  0  0
  184.0860  178.2380  141.5110 C   0  0  2  0  0  3  0  0  0  0  0  0
  182.8100  178.8580  142.0820 C   0  0  0  0  0  1  0  0  0  0  0  0
  186.1960  177.9310  142.3390 O   0  0  0  0  0  1  0  0  0  0  0  0
  185.2700  178.8890  142.0800 N   0  0  0  0  0  0  0  0  0  0  0  0
  185.3510  178.5120  144.4900 C   0  0  0  0  0  1  0  0  0  0  0  0
  184.8950  179.4410  143.3790 C   0  0  0  0  0  2  0  0  0  0  0  0
  2  3  1  0  0  0  0
  3 39  1  0  0  0  0
  3  1  2  0  0  0  0
  4  9  1  6  0  0  0
  4  8  1  0  0  0  0
  4  7  1  0  0  0  0
  7  6  1  0  0  0  0
  7  5  1  1  0  0  0
  8 10  1  0  0  0  0
  8  2  1  1  0  0  0
 10  6  1  0  0  0  0
 11 13  1  0  0  0  0
 12 16  1  0  0  0  0
 12 17  1  0  0  0  0
 13 14  2  0  0  0  0
 14 10  1  0  0  0  0
 15 17  1  0  0  0  0
 15 13  1  0  0  0  0
 16 11  2  0  0  0  0
 18 11  1  6  0  0  0
 18 20  1  0  0  0  0
 18 21  1  0  0  0  0
 19 18  1  0  0  0  0
 20 19  1  6  0  0  0
 20 21  1  0  0  0  0
 21 22  1  6  0  0  0
 22 23  1  0  0  0  0
 23 24  1  0  0  0  0
 24 25  1  0  0  0  0
 26 32  1  6  0  0  0
 27 31  1  0  0  0  0
 28 30  1  0  0  0  0
 28 27  1  0  0  0  0
 29  2  1  6  0  0  0
 29 26  1  0  0  0  0
 30 29  1  0  0  0  0
 31 26  1  0  0  0  0
 32 35  1  0  0  0  0
 34 33  1  0  0  0  0
 35 37  2  0  0  0  0
 35 34  1  0  0  0  0
 36 33  2  0  0  0  0
 37 36  1  0  0  0  0
 39 38  1  1  0  0  0
 39 40  1  0  0  0  0
 40 43  1  0  0  0  0
 40 41  1  1  0  0  0
 43 42  1  0  0  0  0
 43 45  1  0  0  0  0
 45 44  1  0  0  0  0
M  END
>  <MODEL>
3

>  <REMARK>
 VINA RESULT:      -6.3      2.903      6.814
  Name = 
  12 active torsions:
  status: ('A' for Active; 'I' for Inactive)
    1  A    between atoms: C_1  and  N_9
    2  A    between atoms: C_3  and  C_4
    3  A    between atoms: C_11  and  C_43
    4  A    between atoms: C_19  and  N_32
    5  A    between atoms: N_20  and  C_23
    6  A    between atoms: N_20  and  C_35
    7  A    between atoms: C_23  and  C_26
    8  A    between atoms: N_24  and  N_38
    9  A    between atoms: C_26  and  C_33
   10  A    between atoms: C_30  and  N_32
   11  A    between atoms: C_37  and  C_40
   12  A    between atoms: C_37  and  C_43
                            x       y       z     vdW  Elec       q    Type
                         _______ _______ _______ _____ _____    ______ ____

>  <TORSDO>
F 12

$$$$
=
 OpenBabel11062417263D

 45 50  0  0  1  0  0  0  0  0999 V2000
  185.1690  178.3970  138.9820 O   0  0  0  0  0  0  0  0  0  0  0  0
  183.1380  177.2920  138.6400 N   0  0  0  0  0  0  0  0  0  0  0  0
  184.5270  177.5320  138.3270 C   0  0  0  0  0  0  0  0  0  0  0  0
  181.1710  176.8380  140.1250 C   0  0  1  0  0  3  0  0  0  0  0  0
  180.2600  179.0370  140.0210 O   0  0  0  0  0  1  0  0  0  0  0  0
  181.9730  178.5940  141.5980 C   0  0  0  0  0  2  0  0  0  0  0  0
  180.7280  178.0680  140.9080 C   0  0  2  0  0  3  0  0  0  0  0  0
  182.6860  176.9380  139.9970 C   0  0  2  0  0  3  0  0  0  0  0  0
  180.8430  175.6880  140.8490 O   0  0  0  0  0  1  0  0  0  0  0  0
  183.1020  177.9470  140.9500 N   0  0  0  0  0  0  0  0  0  0  0  0
  186.0910  177.9940  143.2150 C   0  0  0  0  0  0  0  0  0  0  0  0
  185.3960  178.7870  145.4780 C   0  0  0  0  0  2  0  0  0  0  0  0
  184.6860  178.1750  142.7570 C   0  0  0  0  0  0  0  0  0  0  0  0
  184.3820  177.8670  141.5280 N   0  0  0  0  0  0  0  0  0  0  0  0
  183.6520  178.7320  143.7040 C   0  0  0  0  0  2  0  0  0  0  0  0
  186.4180  178.3360  144.4740 C   0  0  0  0  0  3  0  0  0  0  0  0
  184.3000  179.5890  144.7890 C   0  0  0  0  0  2  0  0  0  0  0  0
  187.1450  177.5120  142.2300 C   0  0  2  0  0  0  0  0  0  0  0  0
  188.2270  176.6780  142.8960 C   0  0  0  0  0  2  0  0  0  0  0  0
  188.4830  178.1390  142.5990 C   0  0  1  0  0  3  0  0  0  0  0  0
  187.7610  178.5880  141.3440 C   0  0  1  0  0  3  0  0  0  0  0  0
  188.4000  177.9530  140.1240 C   0  0  0  0  0  2  0  0  0  0  0  0
  189.8120  177.5120  140.4570 C   0  0  0  0  0  2  0  0  0  0  0  0
  190.5070  176.9770  139.2200 C   0  0  0  0  0  2  0  0  0  0  0  0
  189.9430  177.6290  137.9740 C   0  0  0  0  0  1  0  0  0  0  0  0
  182.1500  176.3140  136.5880 C   0  0  2  0  0  3  0  0  0  0  0  0
  182.2040  177.9270  134.6000 C   0  0  0  0  0  2  0  0  0  0  0  0
  181.5710  178.9080  135.5920 C   0  0  0  0  0  2  0  0  0  0  0  0
  182.1460  177.4880  137.5850 C   0  0  2  0  0  3  0  0  0  0  0  0
  182.2850  178.8710  136.9320 C   0  0  0  0  0  2  0  0  0  0  0  0
  182.8250  176.6870  135.2640 C   0  0  0  0  0  2  0  0  0  0  0  0
  180.7910  175.8570  136.3480 N   0  0  0  0  0  2  0  0  0  0  0  0
  180.1280  172.0200  136.9310 C   0  0  0  0  0  3  0  0  0  0  0  0
  181.5250  173.1960  137.0130 S   0  0  0  0  0  0  0  0  0  0  0  0
  180.3880  174.5030  136.5590 C   0  0  0  0  0  0  0  0  0  0  0  0
  178.9330  172.7890  136.6280 N   0  0  0  0  0  0  0  0  0  0  0  0
  179.1610  174.1490  136.4160 N   0  0  0  0  0  0  0  0  0  0  0  0
  186.1830  177.7290  136.4160 C   0  0  0  0  0  1  0  0  0  0  0  0
  185.2280  176.8340  137.1960 C   0  0  1  0  0  3  0  0  0  0  0  0
  185.8130  175.4710  137.6030 C   0  0  2  0  0  3  0  0  0  0  0  0
  187.2980  175.3700  137.2550 C   0  0  0  0  0  1  0  0  0  0  0  0
  185.2540  173.2590  137.7640 O   0  0  0  0  0  1  0  0  0  0  0  0
  185.0670  174.3630  136.9970 N   0  0  0  0  0  0  0  0  0  0  0  0
  185.1670  172.7370  135.1790 C   0  0  0  0  0  1  0  0  0  0  0  0
  185.6860  174.0610  135.7090 C   0  0  0  0  0  2  0  0  0  0  0  0
  3  2  1  0  0  0  0
  3  1  2  0  0  0  0
  4  9  1  1  0  0  0
  4  7  1  0  0  0  0
  7  5  1  6  0  0  0
  7  6  1  0  0  0  0
  8  2  1  6  0  0  0
  8  4  1  0  0  0  0
  8 10  1  0  0  0  0
 10 14  1  0  0  0  0
 10  6  1  0  0  0  0
 11 16  2  0  0  0  0
 13 11  1  0  0  0  0
 13 15  1  0  0  0  0
 14 13  2  0  0  0  0
 15 17  1  0  0  0  0
 16 12  1  0  0  0  0
 17 12  1  0  0  0  0
 18 20  1  0  0  0  0
 18 19  1  0  0  0  0
 18 11  1  1  0  0  0
 20 19  1  6  0  0  0
 21 22  1  6  0  0  0
 21 18  1  0  0  0  0
 21 20  1  0  0  0  0
 22 23  1  0  0  0  0
 24 23  1  0  0  0  0
 25 24  1  0  0  0  0
 26 32  1  6  0  0  0
 26 29  1  0  0  0  0
 27 31  1  0  0  0  0
 27 28  1  0  0  0  0
 28 30  1  0  0  0  0
 29  2  1  1  0  0  0
 30 29  1  0  0  0  0
 31 26  1  0  0  0  0
 32 35  1  0  0  0  0
 33 34  1  0  0  0  0
 35 34  1  0  0  0  0
 36 33  2  0  0  0  0
 37 35  2  0  0  0  0
 37 36  1  0  0  0  0
 39 38  1  1  0  0  0
 39 40  1  0  0  0  0
 39  3  1  0  0  0  0
 40 41  1  6  0  0  0
 43 40  1  0  0  0  0
 43 42  1  0  0  0  0
 44 45  1  0  0  0  0
 45 43  1  0  0  0  0
M  END
>  <MODEL>
4

>  <REMARK>
 VINA RESULT:      -6.2      1.993      2.792
  Name = 
  12 active torsions:
  status: ('A' for Active; 'I' for Inactive)
    1  A    between atoms: C_1  and  N_9
    2  A    between atoms: C_3  and  C_4
    3  A    between atoms: C_11  and  C_43
    4  A    between atoms: C_19  and  N_32
    5  A    between atoms: N_20  and  C_23
    6  A    between atoms: N_20  and  C_35
    7  A    between atoms: C_23  and  C_26
    8  A    between atoms: N_24  and  N_38
    9  A    between atoms: C_26  and  C_33
   10  A    between atoms: C_30  and  N_32
   11  A    between atoms: C_37  and  C_40
   12  A    between atoms: C_37  and  C_43
                            x       y       z     vdW  Elec       q    Type
                         _______ _______ _______ _____ _____    ______ ____

>  <TORSDO>
F 12

$$$$
=
 OpenBabel11062417263D

 45 50  0  0  1  0  0  0  0  0999 V2000
  186.0710  178.5370  138.4860 O   0  0  0  0  0  0  0  0  0  0  0  0
  186.6050  176.5610  137.3590 N   0  0  0  0  0  0  0  0  0  0  0  0
  186.9240  177.6330  138.2710 C   0  0  0  0  0  0  0  0  0  0  0  0
  185.6180  174.2740  137.0750 C   0  0  1  0  0  3  0  0  0  0  0  0
  185.7410  174.2370  134.6960 O   0  0  0  0  0  1  0  0  0  0  0  0
  183.8740  175.2790  135.7180 C   0  0  0  0  0  2  0  0  0  0  0  0
  184.8540  174.1210  135.7660 C   0  0  2  0  0  3  0  0  0  0  0  0
  185.4090  175.7150  137.5240 C   0  0  2  0  0  3  0  0  0  0  0  0
  185.0740  173.4090  138.0300 O   0  0  0  0  0  1  0  0  0  0  0  0
  184.3130  176.2270  136.7280 N   0  0  0  0  0  0  0  0  0  0  0  0
  181.8890  178.2780  138.7240 C   0  0  0  0  0  0  0  0  0  0  0  0
  180.9080  176.8630  140.5330 C   0  0  0  0  0  2  0  0  0  0  0  0
  182.6700  177.0950  138.2690 C   0  0  0  0  0  0  0  0  0  0  0  0
  183.4820  177.2300  137.2580 N   0  0  0  0  0  0  0  0  0  0  0  0
  182.4940  175.7660  138.9610 C   0  0  0  0  0  2  0  0  0  0  0  0
  181.0290  178.1390  139.7500 C   0  0  0  0  0  3  0  0  0  0  0  0
  181.1210  175.6630  139.6210 C   0  0  0  0  0  2  0  0  0  0  0  0
  182.0080  179.5920  137.9690 C   0  0  2  0  0  0  0  0  0  0  0  0
  182.8400  180.6210  138.7160 C   0  0  0  0  0  2  0  0  0  0  0  0
  181.3290  180.6870  138.7810 C   0  0  1  0  0  3  0  0  0  0  0  0
  180.6940  180.2010  137.4930 C   0  0  1  0  0  3  0  0  0  0  0  0
  180.9570  181.1960  136.3790 C   0  0  0  0  0  2  0  0  0  0  0  0
  180.0520  182.4020  136.5460 C   0  0  0  0  0  2  0  0  0  0  0  0
  180.7550  183.6620  136.0800 C   0  0  0  0  0  2  0  0  0  0  0  0
  181.5570  184.2690  137.2140 C   0  0  0  0  0  1  0  0  0  0  0  0
  188.6920  175.5050  136.5370 C   0  0  2  0  0  3  0  0  0  0  0  0
  190.2560  177.1750  135.3850 C   0  0  0  0  0  2  0  0  0  0  0  0
  188.9990  177.5510  134.5940 C   0  0  0  0  0  2  0  0  0  0  0  0
  187.4620  176.3660  136.1920 C   0  0  2  0  0  3  0  0  0  0  0  0
  187.7970  177.7000  135.5110 C   0  0  0  0  0  2  0  0  0  0  0  0
  189.9680  176.3460  136.6490 C   0  0  0  0  0  2  0  0  0  0  0  0
  188.8640  174.4580  135.5440 N   0  0  0  0  0  2  0  0  0  0  0  0
  192.1960  172.3750  135.7860 C   0  0  0  0  0  3  0  0  0  0  0  0
  191.3910  173.7740  136.6440 S   0  0  0  0  0  0  0  0  0  0  0  0
  189.9990  173.5910  135.5310 C   0  0  0  0  0  0  0  0  0  0  0  0
  191.2640  171.8880  134.7840 N   0  0  0  0  0  0  0  0  0  0  0  0
  190.0830  172.6240  134.6890 N   0  0  0  0  0  0  0  0  0  0  0  0
  189.0460  179.0010  138.5150 C   0  0  0  0  0  1  0  0  0  0  0  0
  188.2690  177.7570  138.9280 C   0  0  1  0  0  3  0  0  0  0  0  0
  188.2200  177.5050  140.4450 C   0  0  2  0  0  3  0  0  0  0  0  0
  187.4610  178.6130  141.1760 C   0  0  0  0  0  1  0  0  0  0  0  0
  190.2020  176.3710  140.3130 O   0  0  0  0  0  1  0  0  0  0  0  0
  189.5650  177.3470  141.0080 N   0  0  0  0  0  0  0  0  0  0  0  0
  190.1140  177.7680  143.3490 C   0  0  0  0  0  1  0  0  0  0  0  0
  189.4220  176.8380  142.3690 C   0  0  0  0  0  2  0  0  0  0  0  0
  2  3  1  0  0  0  0
  3  1  2  0  0  0  0
  3 39  1  0  0  0  0
  4  8  1  0  0  0  0
  4  9  1  1  0  0  0
  6  7  1  0  0  0  0
  6 10  1  0  0  0  0
  7  5  1  6  0  0  0
  7  4  1  0  0  0  0
  8  2  1  6  0  0  0
 10 14  1  0  0  0  0
 10  8  1  0  0  0  0
 11 16  2  0  0  0  0
 13 11  1  0  0  0  0
 13 15  1  0  0  0  0
 14 13  2  0  0  0  0
 15 17  1  0  0  0  0
 16 12  1  0  0  0  0
 17 12  1  0  0  0  0
 18 19  1  0  0  0  0
 18 11  1  1  0  0  0
 18 20  1  0  0  0  0
 20 19  1  6  0  0  0
 21 22  1  6  0  0  0
 21 18  1  0  0  0  0
 21 20  1  0  0  0  0
 22 23  1  0  0  0  0
 24 23  1  0  0  0  0
 24 25  1  0  0  0  0
 26 32  1  6  0  0  0
 26 31  1  0  0  0  0
 27 31  1  0  0  0  0
 28 27  1  0  0  0  0
 28 30  1  0  0  0  0
 29 26  1  0  0  0  0
 29  2  1  1  0  0  0
 30 29  1  0  0  0  0
 33 34  1  0  0  0  0
 35 32  1  0  0  0  0
 35 34  1  0  0  0  0
 36 33  2  0  0  0  0
 37 36  1  0  0  0  0
 37 35  2  0  0  0  0
 39 38  1  1  0  0  0
 39 40  1  0  0  0  0
 40 43  1  0  0  0  0
 40 41  1  1  0  0  0
 42 43  1  0  0  0  0
 43 45  1  0  0  0  0
 45 44  1  0  0  0  0
M  END
>  <MODEL>
5

>  <REMARK>
 VINA RESULT:      -6.0      3.302      6.783
  Name = 
  12 active torsions:
  status: ('A' for Active; 'I' for Inactive)
    1  A    between atoms: C_1  and  N_9
    2  A    between atoms: C_3  and  C_4
    3  A    between atoms: C_11  and  C_43
    4  A    between atoms: C_19  and  N_32
    5  A    between atoms: N_20  and  C_23
    6  A    between atoms: N_20  and  C_35
    7  A    between atoms: C_23  and  C_26
    8  A    between atoms: N_24  and  N_38
    9  A    between atoms: C_26  and  C_33
   10  A    between atoms: C_30  and  N_32
   11  A    between atoms: C_37  and  C_40
   12  A    between atoms: C_37  and  C_43
                            x       y       z     vdW  Elec       q    Type
                         _______ _______ _______ _____ _____    ______ ____

>  <TORSDO>
F 12

$$$$
=
 OpenBabel11062417263D

 45 50  0  0  1  0  0  0  0  0999 V2000
  182.7980  176.6080  140.1990 O   0  0  0  0  0  0  0  0  0  0  0  0
  182.4620  178.2460  138.5670 N   0  0  0  0  0  0  0  0  0  0  0  0
  182.6250  177.8300  139.9390 C   0  0  0  0  0  0  0  0  0  0  0  0
  182.8310  177.3390  136.2600 C   0  0  1  0  0  3  0  0  0  0  0  0
  182.1040  175.1210  136.7390 O   0  0  0  0  0  1  0  0  0  0  0  0
  184.3480  175.7090  137.2260 C   0  0  0  0  0  2  0  0  0  0  0  0
  183.1870  175.8570  136.2600 C   0  0  2  0  0  3  0  0  0  0  0  0
  183.4510  177.9250  137.5230 C   0  0  2  0  0  3  0  0  0  0  0  0
  183.4010  177.9500  135.1380 O   0  0  0  0  0  1  0  0  0  0  0  0
  184.3930  176.9360  138.0030 N   0  0  0  0  0  0  0  0  0  0  0  0
  187.7120  178.2700  139.1310 C   0  0  0  0  0  0  0  0  0  0  0  0
  189.0310  178.9870  137.1360 C   0  0  0  0  0  2  0  0  0  0  0  0
  186.6200  177.8430  138.2130 C   0  0  0  0  0  0  0  0  0  0  0  0
  185.5260  177.3520  138.7240 N   0  0  0  0  0  0  0  0  0  0  0  0
  186.8040  177.9600  136.7200 C   0  0  0  0  0  2  0  0  0  0  0  0
  188.8540  178.7530  138.6090 C   0  0  0  0  0  3  0  0  0  0  0  0
  188.2820  177.9280  136.3400 C   0  0  0  0  0  2  0  0  0  0  0  0
  187.5530  178.0710  140.6300 C   0  0  2  0  0  0  0  0  0  0  0  0
  187.3720  179.3820  141.3770 C   0  0  0  0  0  2  0  0  0  0  0  0
  188.7330  178.7220  141.3380 C   0  0  1  0  0  3  0  0  0  0  0  0
  188.6190  177.2110  141.2980 C   0  0  1  0  0  3  0  0  0  0  0  0
  188.1110  176.6940  142.6300 C   0  0  0  0  0  2  0  0  0  0  0  0
  189.1650  176.9090  143.6990 C   0  0  0  0  0  2  0  0  0  0  0  0
  188.5200  177.3410  145.0010 C   0  0  0  0  0  2  0  0  0  0  0  0
  187.0310  177.5490  144.8100 C   0  0  0  0  0  1  0  0  0  0  0  0
  181.4570  180.4620  138.0900 C   0  0  2  0  0  3  0  0  0  0  0  0
  179.3760  180.9290  139.5080 C   0  0  0  0  0  2  0  0  0  0  0  0
  178.9310  179.5500  139.0090 C   0  0  0  0  0  2  0  0  0  0  0  0
  181.2320  178.9420  138.1960 C   0  0  2  0  0  3  0  0  0  0  0  0
  180.0620  178.5400  139.1060 C   0  0  0  0  0  2  0  0  0  0  0  0
  180.8720  181.2150  139.2890 C   0  0  0  0  0  2  0  0  0  0  0  0
  180.8880  180.9670  136.8520 N   0  0  0  0  0  2  0  0  0  0  0  0
  181.1220  184.8580  136.2990 C   0  0  0  0  0  3  0  0  0  0  0  0
  181.5820  183.6260  137.5680 S   0  0  0  0  0  0  0  0  0  0  0  0
  180.9360  182.3480  136.4910 C   0  0  0  0  0  0  0  0  0  0  0  0
  180.5860  184.1280  135.1620 N   0  0  0  0  0  0  0  0  0  0  0  0
  180.4950  182.7500  135.3530 N   0  0  0  0  0  0  0  0  0  0  0  0
  181.2780  178.6140  141.9390 C   0  0  0  0  0  1  0  0  0  0  0  0
  182.5290  178.7920  141.0890 C   0  0  1  0  0  3  0  0  0  0  0  0
  183.8390  178.9030  141.8890 C   0  0  2  0  0  3  0  0  0  0  0  0
  184.5070  177.5390  142.0650 C   0  0  0  0  0  1  0  0  0  0  0  0
  184.7600  180.1880  143.5410 O   0  0  0  0  0  1  0  0  0  0  0  0
  183.6210  179.5390  143.1920 N   0  0  0  0  0  0  0  0  0  0  0  0
  183.7950  178.9960  145.5660 C   0  0  0  0  0  1  0  0  0  0  0  0
  183.4480  178.4780  144.1820 C   0  0  0  0  0  2  0  0  0  0  0  0
  2  3  1  0  0  0  0
  3  1  2  0  0  0  0
  3 39  1  0  0  0  0
  4  9  1  6  0  0  0
  4  7  1  0  0  0  0
  4  8  1  0  0  0  0
  6 10  1  0  0  0  0
  7  5  1  1  0  0  0
  7  6  1  0  0  0  0
  8 10  1  0  0  0  0
  8  2  1  1  0  0  0
 10 14  1  0  0  0  0
 12 16  1  0  0  0  0
 13 14  2  0  0  0  0
 13 11  1  0  0  0  0
 15 13  1  0  0  0  0
 16 11  2  0  0  0  0
 17 15  1  0  0  0  0
 17 12  1  0  0  0  0
 18 11  1  6  0  0  0
 18 21  1  0  0  0  0
 18 20  1  0  0  0  0
 18 19  1  0  0  0  0
 20 19  1  1  0  0  0
 21 20  1  0  0  0  0
 21 22  1  1  0  0  0
 22 23  1  0  0  0  0
 23 24  1  0  0  0  0
 25 24  1  0  0  0  0
 26 32  1  6  0  0  0
 26 29  1  0  0  0  0
 26 31  1  0  0  0  0
 28 30  1  0  0  0  0
 28 27  1  0  0  0  0
 29  2  1  1  0  0  0
 29 30  1  0  0  0  0
 31 27  1  0  0  0  0
 33 34  1  0  0  0  0
 35 32  1  0  0  0  0
 35 34  1  0  0  0  0
 36 37  1  0  0  0  0
 36 33  2  0  0  0  0
 37 35  2  0  0  0  0
 39 40  1  0  0  0  0
 39 38  1  1  0  0  0
 40 41  1  1  0  0  0
 40 43  1  0  0  0  0
 43 42  1  0  0  0  0
 43 45  1  0  0  0  0
 45 44  1  0  0  0  0
M  END
>  <MODEL>
6

>  <REMARK>
 VINA RESULT:      -5.7      3.429      6.790
  Name = 
  12 active torsions:
  status: ('A' for Active; 'I' for Inactive)
    1  A    between atoms: C_1  and  N_9
    2  A    between atoms: C_3  and  C_4
    3  A    between atoms: C_11  and  C_43
    4  A    between atoms: C_19  and  N_32
    5  A    between atoms: N_20  and  C_23
    6  A    between atoms: N_20  and  C_35
    7  A    between atoms: C_23  and  C_26
    8  A    between atoms: N_24  and  N_38
    9  A    between atoms: C_26  and  C_33
   10  A    between atoms: C_30  and  N_32
   11  A    between atoms: C_37  and  C_40
   12  A    between atoms: C_37  and  C_43
                            x       y       z     vdW  Elec       q    Type
                         _______ _______ _______ _____ _____    ______ ____

>  <TORSDO>
F 12

$$$$
=
 OpenBabel11062417263D

 45 50  0  0  1  0  0  0  0  0999 V2000
  182.7010  180.5730  138.4300 O   0  0  0  0  0  0  0  0  0  0  0  0
  182.5010  178.2830  138.0120 N   0  0  0  0  0  0  0  0  0  0  0  0
  182.5580  179.4140  138.9060 C   0  0  0  0  0  0  0  0  0  0  0  0
  181.1290  179.5600  136.3470 C   0  0  1  0  0  3  0  0  0  0  0  0
  179.7390  180.6510  137.9450 O   0  0  0  0  0  1  0  0  0  0  0  0
  179.1580  178.4630  137.2440 C   0  0  0  0  0  2  0  0  0  0  0  0
  179.7060  179.8160  136.8290 C   0  0  2  0  0  3  0  0  0  0  0  0
  181.5300  178.2000  136.9060 C   0  0  2  0  0  3  0  0  0  0  0  0
  181.1400  179.5060  134.9500 O   0  0  0  0  0  1  0  0  0  0  0  0
  180.3030  177.5750  137.3550 N   0  0  0  0  0  0  0  0  0  0  0  0
  179.7310  173.9530  138.1450 C   0  0  0  0  0  0  0  0  0  0  0  0
  178.9530  173.7390  140.5080 C   0  0  0  0  0  2  0  0  0  0  0  0
  179.8240  175.4260  138.3450 C   0  0  0  0  0  0  0  0  0  0  0  0
  180.1960  176.1720  137.3430 N   0  0  0  0  0  0  0  0  0  0  0  0
  179.5170  176.0230  139.6960 C   0  0  0  0  0  2  0  0  0  0  0  0
  179.3740  173.1740  139.1820 C   0  0  0  0  0  3  0  0  0  0  0  0
  179.7400  175.0060  140.8130 C   0  0  0  0  0  2  0  0  0  0  0  0
  180.1240  173.3510  136.8050 C   0  0  2  0  0  0  0  0  0  0  0  0
  178.9600  173.2880  135.8290 C   0  0  0  0  0  2  0  0  0  0  0  0
  179.3540  172.0520  136.6080 C   0  0  1  0  0  3  0  0  0  0  0  0
  180.8470  172.0110  136.8710 C   0  0  1  0  0  3  0  0  0  0  0  0
  181.5950  171.7600  135.5760 C   0  0  0  0  0  2  0  0  0  0  0  0
  182.1920  170.3660  135.5920 C   0  0  0  0  0  2  0  0  0  0  0  0
  183.6020  170.3990  136.1480 C   0  0  0  0  0  2  0  0  0  0  0  0
  184.4280  171.4490  135.4320 C   0  0  0  0  0  1  0  0  0  0  0  0
  184.4500  177.1670  136.9600 C   0  0  2  0  0  3  0  0  0  0  0  0
  184.1530  174.6310  136.7720 C   0  0  0  0  0  2  0  0  0  0  0  0
  183.7950  174.7300  138.2590 C   0  0  0  0  0  2  0  0  0  0  0  0
  183.4960  177.2250  138.1690 C   0  0  2  0  0  3  0  0  0  0  0  0
  182.8400  175.8820  138.5180 C   0  0  0  0  0  2  0  0  0  0  0  0
  184.1390  175.9830  136.0400 C   0  0  0  0  0  2  0  0  0  0  0  0
  185.8290  177.1050  137.4140 N   0  0  0  0  0  2  0  0  0  0  0  0
  188.5820  177.1940  134.6000 C   0  0  0  0  0  3  0  0  0  0  0  0
  186.7590  177.2090  134.7330 S   0  0  0  0  0  0  0  0  0  0  0  0
  186.9370  177.1710  136.5150 C   0  0  0  0  0  0  0  0  0  0  0  0
  189.1130  177.2310  135.9520 N   0  0  0  0  0  0  0  0  0  0  0  0
  188.1440  177.1940  136.9540 N   0  0  0  0  0  0  0  0  0  0  0  0
  181.2180  178.6840  140.9320 C   0  0  0  0  0  1  0  0  0  0  0  0
  182.5240  179.2610  140.4000 C   0  0  1  0  0  3  0  0  0  0  0  0
  183.7940  178.6020  140.9640 C   0  0  2  0  0  3  0  0  0  0  0  0
  183.5760  178.0890  142.3880 C   0  0  0  0  0  1  0  0  0  0  0  0
  185.7590  179.1160  139.9130 O   0  0  0  0  0  1  0  0  0  0  0  0
  184.9410  179.5150  140.9180 N   0  0  0  0  0  0  0  0  0  0  0  0
  187.0000  178.5970  141.8550 C   0  0  0  0  0  1  0  0  0  0  0  0
  185.7050  179.3330  142.1500 C   0  0  0  0  0  2  0  0  0  0  0  0
  1  3  2  0  0  0  0
  2  3  1  0  0  0  0
  3 39  1  0  0  0  0
  4  9  1  6  0  0  0
  4  7  1  0  0  0  0
  4  8  1  0  0  0  0
  6 10  1  0  0  0  0
  7  6  1  0  0  0  0
  7  5  1  1  0  0  0
  8 10  1  0  0  0  0
  8  2  1  1  0  0  0
 11 13  1  0  0  0  0
 11 16  2  0  0  0  0
 12 17  1  0  0  0  0
 13 15  1  0  0  0  0
 14 10  1  0  0  0  0
 14 13  2  0  0  0  0
 15 17  1  0  0  0  0
 16 12  1  0  0  0  0
 18 21  1  0  0  0  0
 18 11  1  1  0  0  0
 19 18  1  0  0  0  0
 20 19  1  6  0  0  0
 20 18  1  0  0  0  0
 20 21  1  0  0  0  0
 21 22  1  6  0  0  0
 22 23  1  0  0  0  0
 23 24  1  0  0  0  0
 25 24  1  0  0  0  0
 26 32  1  1  0  0  0
 26 29  1  0  0  0  0
 27 28  1  0  0  0  0
 28 30  1  0  0  0  0
 29  2  1  6  0  0  0
 29 30  1  0  0  0  0
 31 27  1  0  0  0  0
 31 26  1  0  0  0  0
 33 34  1  0  0  0  0
 33 36  2  0  0  0  0
 34 35  1  0  0  0  0
 35 37  2  0  0  0  0
 35 32  1  0  0  0  0
 36 37  1  0  0  0  0
 39 38  1  6  0  0  0
 39 40  1  0  0  0  0
 40 41  1  1  0  0  0
 42 43  1  0  0  0  0
 43 40  1  0  0  0  0
 43 45  1  0  0  0  0
 44 45  1  0  0  0  0
M  END
>  <MODEL>
7

>  <REMARK>
 VINA RESULT:      -5.4      2.877      7.299
  Name = 
  12 active torsions:
  status: ('A' for Active; 'I' for Inactive)
    1  A    between atoms: C_1  and  N_9
    2  A    between atoms: C_3  and  C_4
    3  A    between atoms: C_11  and  C_43
    4  A    between atoms: C_19  and  N_32
    5  A    between atoms: N_20  and  C_23
    6  A    between atoms: N_20  and  C_35
    7  A    between atoms: C_23  and  C_26
    8  A    between atoms: N_24  and  N_38
    9  A    between atoms: C_26  and  C_33
   10  A    between atoms: C_30  and  N_32
   11  A    between atoms: C_37  and  C_40
   12  A    between atoms: C_37  and  C_43
                            x       y       z     vdW  Elec       q    Type
                         _______ _______ _______ _____ _____    ______ ____

>  <TORSDO>
F 12

$$$$
=
 OpenBabel11062417263D

 45 50  0  0  1  0  0  0  0  0999 V2000
  184.5880  180.3100  138.7160 O   0  0  0  0  0  0  0  0  0  0  0  0
  183.7840  178.2210  138.0450 N   0  0  0  0  0  0  0  0  0  0  0  0
  184.5130  179.0740  138.9530 C   0  0  0  0  0  0  0  0  0  0  0  0
  181.9710  179.9370  137.8100 C   0  0  1  0  0  3  0  0  0  0  0  0
  181.8330  180.4800  140.1250 O   0  0  0  0  0  1  0  0  0  0  0  0
  180.6210  178.6060  139.3260 C   0  0  0  0  0  2  0  0  0  0  0  0
  181.0810  180.0240  139.0430 C   0  0  2  0  0  3  0  0  0  0  0  0
  182.3780  178.4730  137.6820 C   0  0  2  0  0  3  0  0  0  0  0  0
  181.2360  180.3120  136.6820 O   0  0  0  0  0  1  0  0  0  0  0  0
  181.4890  177.7330  138.5540 N   0  0  0  0  0  0  0  0  0  0  0  0
  180.2030  174.2110  138.4920 C   0  0  0  0  0  0  0  0  0  0  0  0
  178.9550  173.7540  140.6050 C   0  0  0  0  0  2  0  0  0  0  0  0
  180.4900  175.5820  138.9980 C   0  0  0  0  0  0  0  0  0  0  0  0
  181.1650  176.4010  138.2420 N   0  0  0  0  0  0  0  0  0  0  0  0
  180.0230  175.9890  140.3740 C   0  0  0  0  0  2  0  0  0  0  0  0
  179.5310  173.3510  139.2780 C   0  0  0  0  0  3  0  0  0  0  0  0
  179.8580  174.7740  141.2840 C   0  0  0  0  0  2  0  0  0  0  0  0
  180.7490  173.7800  137.1400 C   0  0  2  0  0  0  0  0  0  0  0  0
  179.6560  173.3270  136.1860 C   0  0  0  0  0  2  0  0  0  0  0  0
  180.4630  172.2970  136.9460 C   0  0  1  0  0  3  0  0  0  0  0  0
  181.8860  172.7660  137.1810 C   0  0  1  0  0  3  0  0  0  0  0  0
  182.6470  172.7860  135.8690 C   0  0  0  0  0  2  0  0  0  0  0  0
  183.9800  172.0820  136.0400 C   0  0  0  0  0  2  0  0  0  0  0  0
  184.7180  172.6290  137.2460 C   0  0  0  0  0  2  0  0  0  0  0  0
  186.1940  172.7830  136.9360 C   0  0  0  0  0  1  0  0  0  0  0  0
  185.9470  177.5120  137.0610 C   0  0  2  0  0  3  0  0  0  0  0  0
  185.6940  176.5810  134.6890 C   0  0  0  0  0  2  0  0  0  0  0  0
  184.6030  175.7130  135.3240 C   0  0  0  0  0  2  0  0  0  0  0  0
  184.4990  177.1170  137.4070 C   0  0  2  0  0  3  0  0  0  0  0  0
  183.7040  176.5380  136.2280 C   0  0  0  0  0  2  0  0  0  0  0  0
  186.1280  177.7700  135.5620 C   0  0  0  0  0  2  0  0  0  0  0  0
  186.8670  176.4800  137.5090 N   0  0  0  0  0  2  0  0  0  0  0  0
  190.6730  177.4830  137.6120 C   0  0  0  0  0  3  0  0  0  0  0  0
  189.0720  178.2340  137.1510 S   0  0  0  0  0  0  0  0  0  0  0  0
  188.2710  176.7080  137.6410 C   0  0  0  0  0  0  0  0  0  0  0  0
  190.3920  176.1650  138.1540 N   0  0  0  0  0  0  0  0  0  0  0  0
  189.0460  175.8010  138.1160 N   0  0  0  0  0  0  0  0  0  0  0  0
  186.7660  178.6270  140.0280 C   0  0  0  0  0  1  0  0  0  0  0  0
  185.2500  178.5350  140.1460 C   0  0  1  0  0  3  0  0  0  0  0  0
  184.6780  179.0390  141.4820 C   0  0  2  0  0  3  0  0  0  0  0  0
  185.7700  179.6350  142.3710 C   0  0  0  0  0  1  0  0  0  0  0  0
  182.6430  178.0710  141.8760 O   0  0  0  0  0  1  0  0  0  0  0  0
  183.9590  177.9780  142.1950 N   0  0  0  0  0  0  0  0  0  0  0  0
  182.8180  179.0410  144.0720 C   0  0  0  0  0  1  0  0  0  0  0  0
  184.0430  178.2650  143.6240 C   0  0  0  0  0  2  0  0  0  0  0  0
  1  3  2  0  0  0  0
  2  3  1  0  0  0  0
  3 39  1  0  0  0  0
  4  9  1  6  0  0  0
  4  7  1  0  0  0  0
  7  6  1  0  0  0  0
  7  5  1  1  0  0  0
  8  4  1  0  0  0  0
  8  2  1  1  0  0  0
  8 10  1  0  0  0  0
 10  6  1  0  0  0  0
 11 13  1  0  0  0  0
 11 16  2  0  0  0  0
 12 17  1  0  0  0  0
 13 15  1  0  0  0  0
 14 10  1  0  0  0  0
 14 13  2  0  0  0  0
 15 17  1  0  0  0  0
 16 12  1  0  0  0  0
 18 21  1  0  0  0  0
 18 11  1  1  0  0  0
 19 18  1  0  0  0  0
 20 19  1  6  0  0  0
 20 18  1  0  0  0  0
 20 21  1  0  0  0  0
 21 22  1  6  0  0  0
 22 23  1  0  0  0  0
 23 24  1  0  0  0  0
 25 24  1  0  0  0  0
 26 29  1  0  0  0  0
 26 32  1  6  0  0  0
 27 28  1  0  0  0  0
 27 31  1  0  0  0  0
 28 30  1  0  0  0  0
 29  2  1  6  0  0  0
 30 29  1  0  0  0  0
 31 26  1  0  0  0  0
 32 35  1  0  0  0  0
 33 36  2  0  0  0  0
 34 33  1  0  0  0  0
 34 35  1  0  0  0  0
 35 37  2  0  0  0  0
 37 36  1  0  0  0  0
 39 38  1  6  0  0  0
 39 40  1  0  0  0  0
 40 43  1  0  0  0  0
 40 41  1  1  0  0  0
 42 43  1  0  0  0  0
 43 45  1  0  0  0  0
 45 44  1  0  0  0  0
M  END
>  <MODEL>
8

>  <REMARK>
 VINA RESULT:      -5.2      2.999      6.796
  Name = 
  12 active torsions:
  status: ('A' for Active; 'I' for Inactive)
    1  A    between atoms: C_1  and  N_9
    2  A    between atoms: C_3  and  C_4
    3  A    between atoms: C_11  and  C_43
    4  A    between atoms: C_19  and  N_32
    5  A    between atoms: N_20  and  C_23
    6  A    between atoms: N_20  and  C_35
    7  A    between atoms: C_23  and  C_26
    8  A    between atoms: N_24  and  N_38
    9  A    between atoms: C_26  and  C_33
   10  A    between atoms: C_30  and  N_32
   11  A    between atoms: C_37  and  C_40
   12  A    between atoms: C_37  and  C_43
                            x       y       z     vdW  Elec       q    Type
                         _______ _______ _______ _____ _____    ______ ____

>  <TORSDO>
F 12

$$$$
=
 OpenBabel11062417263D

 45 50  0  0  1  0  0  0  0  0999 V2000
  184.7410  177.7170  139.9040 O   0  0  0  0  0  0  0  0  0  0  0  0
  185.3420  177.2460  137.6960 N   0  0  0  0  0  0  0  0  0  0  0  0
  184.3630  177.5380  138.7150 C   0  0  0  0  0  0  0  0  0  0  0  0
  186.5760  178.6260  136.0060 C   0  0  1  0  0  3  0  0  0  0  0  0
  187.2040  176.8070  134.6010 O   0  0  0  0  0  1  0  0  0  0  0  0
  188.5550  177.3040  136.4840 C   0  0  0  0  0  2  0  0  0  0  0  0
  187.7200  177.8650  135.3470 C   0  0  2  0  0  3  0  0  0  0  0  0
  186.5000  178.1210  137.4420 C   0  0  2  0  0  3  0  0  0  0  0  0
  186.8730  179.9930  136.0110 O   0  0  0  0  0  1  0  0  0  0  0  0
  187.7380  177.4080  137.6810 N   0  0  0  0  0  0  0  0  0  0  0  0
  189.9150  177.2540  140.7300 C   0  0  0  0  0  0  0  0  0  0  0  0
  192.3060  177.1090  140.0280 C   0  0  0  0  0  2  0  0  0  0  0  0
  189.5280  177.2600  139.2930 C   0  0  0  0  0  0  0  0  0  0  0  0
  188.2650  177.3550  138.9830 N   0  0  0  0  0  0  0  0  0  0  0  0
  190.5890  177.1300  138.2280 C   0  0  0  0  0  2  0  0  0  0  0  0
  191.2140  177.1290  141.0580 C   0  0  0  0  0  3  0  0  0  0  0  0
  191.8250  176.4120  138.7630 C   0  0  0  0  0  2  0  0  0  0  0  0
  188.8340  177.2990  141.7990 C   0  0  2  0  0  0  0  0  0  0  0  0
  188.0900  178.6240  141.8210 C   0  0  0  0  0  2  0  0  0  0  0  0
  189.1980  178.3690  142.8190 C   0  0  1  0  0  3  0  0  0  0  0  0
  189.2770  176.9050  143.2030 C   0  0  1  0  0  3  0  0  0  0  0  0
  188.0720  176.5230  144.0400 C   0  0  0  0  0  2  0  0  0  0  0  0
  188.1700  177.1760  145.4060 C   0  0  0  0  0  2  0  0  0  0  0  0
  186.8660  177.8640  145.7600 C   0  0  0  0  0  2  0  0  0  0  0  0
  185.9280  177.8620  144.5700 C   0  0  0  0  0  1  0  0  0  0  0  0
  183.8320  175.3530  137.1660 C   0  0  2  0  0  3  0  0  0  0  0  0
  184.9000  173.0740  137.6380 C   0  0  0  0  0  2  0  0  0  0  0  0
  186.0610  173.6330  136.8080 C   0  0  0  0  0  2  0  0  0  0  0  0
  185.2140  175.9960  136.9500 C   0  0  2  0  0  3  0  0  0  0  0  0
  186.3970  175.0550  137.2220 C   0  0  0  0  0  2  0  0  0  0  0  0
  183.9000  174.1450  138.1060 C   0  0  0  0  0  2  0  0  0  0  0  0
  183.2560  174.9650  135.8890 N   0  0  0  0  0  2  0  0  0  0  0  0
  179.5030  173.7770  135.9720 C   0  0  0  0  0  3  0  0  0  0  0  0
  180.7850  174.3470  137.1440 S   0  0  0  0  0  0  0  0  0  0  0  0
  181.8950  174.5550  135.7530 C   0  0  0  0  0  0  0  0  0  0  0  0
  180.0630  173.8800  134.6360 N   0  0  0  0  0  0  0  0  0  0  0  0
  181.3940  174.2950  134.5990 N   0  0  0  0  0  0  0  0  0  0  0  0
  182.0230  177.0740  139.5790 C   0  0  0  0  0  1  0  0  0  0  0  0
  182.8890  177.5710  138.4270 C   0  0  1  0  0  3  0  0  0  0  0  0
  182.4280  178.9010  137.8070 C   0  0  2  0  0  3  0  0  0  0  0  0
  182.6580  180.0750  138.7590 C   0  0  0  0  0  1  0  0  0  0  0  0
  180.9120  177.9280  136.3980 O   0  0  0  0  0  1  0  0  0  0  0  0
  181.0230  178.8440  137.3930 N   0  0  0  0  0  0  0  0  0  0  0  0
  180.8170  180.0470  135.2790 C   0  0  0  0  0  1  0  0  0  0  0  0
  180.6840  180.1300  136.7880 C   0  0  0  0  0  2  0  0  0  0  0  0
  2  3  1  0  0  0  0
  3  1  2  0  0  0  0
  4  9  1  1  0  0  0
  4  8  1  0  0  0  0
  6 10  1  0  0  0  0
  7  5  1  6  0  0  0
  7  4  1  0  0  0  0
  7  6  1  0  0  0  0
  8 10  1  0  0  0  0
  8  2  1  6  0  0  0
 10 14  1  0  0  0  0
 11 16  2  0  0  0  0
 12 16  1  0  0  0  0
 13 11  1  0  0  0  0
 14 13  2  0  0  0  0
 15 17  1  0  0  0  0
 15 13  1  0  0  0  0
 17 12  1  0  0  0  0
 18 11  1  6  0  0  0
 18 19  1  0  0  0  0
 18 20  1  0  0  0  0
 18 21  1  0  0  0  0
 20 19  1  1  0  0  0
 20 21  1  0  0  0  0
 21 22  1  1  0  0  0
 22 23  1  0  0  0  0
 23 24  1  0  0  0  0
 25 24  1  0  0  0  0
 26 32  1  6  0  0  0
 26 31  1  0  0  0  0
 27 31  1  0  0  0  0
 28 30  1  0  0  0  0
 28 27  1  0  0  0  0
 29 26  1  0  0  0  0
 29 30  1  0  0  0  0
 29  2  1  1  0  0  0
 33 34  1  0  0  0  0
 35 32  1  0  0  0  0
 35 34  1  0  0  0  0
 36 33  2  0  0  0  0
 37 36  1  0  0  0  0
 37 35  2  0  0  0  0
 39  3  1  0  0  0  0
 39 38  1  1  0  0  0
 40 39  1  0  0  0  0
 40 41  1  1  0  0  0
 42 43  1  0  0  0  0
 43 40  1  0  0  0  0
 44 45  1  0  0  0  0
 45 43  1  0  0  0  0
M  END
>  <MODEL>
9

>  <REMARK>
 VINA RESULT:      -5.2      2.270      5.651
  Name = 
  12 active torsions:
  status: ('A' for Active; 'I' for Inactive)
    1  A    between atoms: C_1  and  N_9
    2  A    between atoms: C_3  and  C_4
    3  A    between atoms: C_11  and  C_43
    4  A    between atoms: C_19  and  N_32
    5  A    between atoms: N_20  and  C_23
    6  A    between atoms: N_20  and  C_35
    7  A    between atoms: C_23  and  C_26
    8  A    between atoms: N_24  and  N_38
    9  A    between atoms: C_26  and  C_33
   10  A    between atoms: C_30  and  N_32
   11  A    between atoms: C_37  and  C_40
   12  A    between atoms: C_37  and  C_43
                            x       y       z     vdW  Elec       q    Type
                         _______ _______ _______ _____ _____    ______ ____

>  <TORSDO>
F 12

$$$$
