=
 OpenBabel11062413073D

 40 43  0  0  1  0  0  0  0  0999 V2000
  182.8970  178.3750  141.0640 C   0  0  2  0  0  3  0  0  0  0  0  0
  180.3740  178.6780  141.0070 C   0  0  0  0  0  0  0  0  0  0  0  0
  181.3450  176.6920  139.9920 C   0  0  0  0  0  3  0  0  0  0  0  0
  178.9460  176.9860  139.9920 C   0  0  0  0  0  3  0  0  0  0  0  0
  180.0710  176.2370  139.6480 C   0  0  0  0  0  3  0  0  0  0  0  0
  179.0960  178.1950  140.6740 C   0  0  0  0  0  3  0  0  0  0  0  0
  181.5130  177.9040  140.6810 C   0  0  0  0  0  0  0  0  0  0  0  0
  179.2130  180.4460  142.1020 O   0  0  0  0  0  0  0  0  0  0  0  0
  180.4990  179.9580  141.7910 C   0  0  1  0  0  3  0  0  0  0  0  0
  179.9230  179.8430  143.1540 C   0  0  0  0  0  2  0  0  0  0  0  0
  184.5260  179.8610  139.1090 O   0  0  0  0  0  0  0  0  0  0  0  0
  183.9550  177.8640  140.1930 N   0  0  0  0  0  2  0  0  0  0  0  0
  184.6930  178.6190  139.2200 C   0  0  0  0  0  0  0  0  0  0  0  0
  185.6630  177.9370  138.3000 C   0  0  2  0  0  3  0  0  0  0  0  0
  189.7940  177.8070  138.3400 C   0  0  0  0  0  2  0  0  0  0  0  0
  188.7480  177.4050  139.3740 C   0  0  0  0  0  2  0  0  0  0  0  0
  187.7660  178.4090  139.4890 O   0  0  0  0  0  0  0  0  0  0  0  0
  187.7650  178.1010  137.1080 O   0  0  0  0  0  0  0  0  0  0  0  0
  189.0900  178.5510  137.2130 C   0  0  0  0  0  2  0  0  0  0  0  0
  187.0630  178.5650  138.2520 C   0  0  0  0  0  3  0  0  0  0  0  0
  184.6880  176.2170  136.9040 C   0  0  0  0  0  1  0  0  0  0  0  0
  185.1070  177.6100  136.9800 N   0  0  0  0  0  2  0  0  0  0  0  0
  183.2480  178.2950  142.5530 C   0  0  0  0  0  2  0  0  0  0  0  0
  184.7360  178.4410  142.8130 C   0  0  0  0  0  2  0  0  0  0  0  0
  183.7700  180.0590  144.2840 O   0  0  0  0  0  1  0  0  0  0  0  0
  184.9770  179.4580  143.9140 C   0  0  1  0  0  3  0  0  0  0  0  0
  184.6050  178.2670  146.0840 C   0  0  0  0  0  1  0  0  0  0  0  0
  185.6470  178.7950  145.1160 C   0  0  1  0  0  3  0  0  0  0  0  0
  186.5980  177.6800  144.6960 C   0  0  0  0  0  2  0  0  0  0  0  0
  190.1130  177.2690  147.4130 O   0  0  0  0  0  0  0  0  0  0  0  0
  191.6770  176.0440  146.2780 O   0  0  0  0  0  0  0  0  0  0  0  0
  190.4940  177.6570  144.9470 C   0  0  2  0  0  3  0  0  0  0  0  0
  187.9840  177.2240  146.5730 O   0  0  0  0  0  0  0  0  0  0  0  0
  188.8690  177.9490  147.3800 C   0  0  1  0  0  3  0  0  0  0  0  0
  189.0860  177.3460  144.4070 C   0  0  1  0  0  3  0  0  0  0  0  0
  191.4670  177.3350  143.9920 O   0  0  0  0  0  1  0  0  0  0  0  0
  187.9710  177.8820  145.3330 C   0  0  1  0  0  3  0  0  0  0  0  0
  190.7980  176.9480  146.2410 C   0  0  0  0  0  0  0  0  0  0  0  0
  188.9460  177.9750  143.0240 C   0  0  0  0  0  1  0  0  0  0  0  0
  188.3090  178.0320  148.7870 C   0  0  0  0  0  1  0  0  0  0  0  0
  1 23  1  1  0  0  0
  3  7  2  0  0  0  0
  4  6  1  0  0  0  0
  5  4  2  0  0  0  0
  5  3  1  0  0  0  0
  6  2  2  0  0  0  0
  7  2  1  0  0  0  0
  7  1  1  0  0  0  0
  8 10  1  0  0  0  0
  9  2  1  6  0  0  0
  9  8  1  0  0  0  0
  9 10  1  0  0  0  0
 11 13  2  0  0  0  0
 12  1  1  0  0  0  0
 13 12  1  0  0  0  0
 14 22  1  6  0  0  0
 14 13  1  0  0  0  0
 15 16  1  0  0  0  0
 16 17  1  0  0  0  0
 18 19  1  0  0  0  0
 18 20  1  0  0  0  0
 19 15  1  0  0  0  0
 20 14  1  0  0  0  0
 20 17  1  0  0  0  0
 21 22  1  0  0  0  0
 23 24  1  0  0  0  0
 24 26  1  0  0  0  0
 26 25  1  1  0  0  0
 26 28  1  0  0  0  0
 28 27  1  1  0  0  0
 29 28  1  0  0  0  0
 32 36  1  6  0  0  0
 32 38  1  0  0  0  0
 33 34  1  0  0  0  0
 34 30  1  0  0  0  0
 34 40  1  1  0  0  0
 35 39  1  6  0  0  0
 35 32  1  0  0  0  0
 35 37  1  0  0  0  0
 37 29  1  6  0  0  0
 37 33  1  0  0  0  0
 38 31  2  0  0  0  0
 38 30  1  0  0  0  0
M  END
>  <MODEL>
1

>  <REMARK>
 VINA RESULT:      -8.3      0.000      0.000
  Name = 
  12 active torsions:
  status: ('A' for Active; 'I' for Inactive)
    1  A    between atoms: C_4  and  C_11
    2  A    between atoms: C_9  and  C_19
    3  A    between atoms: C_9  and  C_34
    4  A    between atoms: C_14  and  C_27
    5  A    between atoms: C_14  and  C_38
    6  A    between atoms: C_20  and  N_33
    7  A    between atoms: C_20  and  C_35
    8  A    between atoms: C_20  and  C_40
    9  A    between atoms: C_23  and  C_34
   10  A    between atoms: C_23  and  C_38
   11  A    between atoms: C_27  and  C_37
   12  A    between atoms: C_27  and  N_39
                            x       y       z     vdW  Elec       q    Type
                         _______ _______ _______ _____ _____    ______ ____

>  <TORSDO>
F 12

$$$$
=
 OpenBabel11062413073D

 40 43  0  0  1  0  0  0  0  0999 V2000
  183.5690  178.3790  141.0850 C   0  0  2  0  0  3  0  0  0  0  0  0
  181.1220  178.2800  140.4050 C   0  0  0  0  0  0  0  0  0  0  0  0
  182.5740  176.4070  139.8570 C   0  0  0  0  0  3  0  0  0  0  0  0
  180.2330  176.3220  139.2620 C   0  0  0  0  0  3  0  0  0  0  0  0
  181.4990  175.7360  139.2720 C   0  0  0  0  0  3  0  0  0  0  0  0
  180.0440  177.5830  139.8320 C   0  0  0  0  0  3  0  0  0  0  0  0
  182.4000  177.6730  140.4380 C   0  0  0  0  0  0  0  0  0  0  0  0
  179.4880  179.7990  141.2390 O   0  0  0  0  0  0  0  0  0  0  0  0
  180.8750  179.6150  141.0600 C   0  0  1  0  0  3  0  0  0  0  0  0
  180.2290  179.4780  142.3890 C   0  0  0  0  0  2  0  0  0  0  0  0
  184.5850  179.9260  138.7930 O   0  0  0  0  0  0  0  0  0  0  0  0
  184.8320  178.2090  140.3670 N   0  0  0  0  0  2  0  0  0  0  0  0
  185.2650  178.9600  139.2230 C   0  0  0  0  0  0  0  0  0  0  0  0
  186.5290  178.5910  138.5020 C   0  0  2  0  0  3  0  0  0  0  0  0
  184.7900  176.8800  135.1650 C   0  0  0  0  0  2  0  0  0  0  0  0
  184.2340  177.2340  136.5410 C   0  0  0  0  0  2  0  0  0  0  0  0
  185.1220  176.8100  137.5490 O   0  0  0  0  0  0  0  0  0  0  0  0
  186.6410  178.0330  136.1480 O   0  0  0  0  0  0  0  0  0  0  0  0
  186.3020  177.0510  135.2030 C   0  0  0  0  0  2  0  0  0  0  0  0
  186.3720  177.4980  137.4360 C   0  0  0  0  0  3  0  0  0  0  0  0
  188.4620  177.2270  139.0140 C   0  0  0  0  0  1  0  0  0  0  0  0
  187.6890  178.4060  139.3830 N   0  0  0  0  0  2  0  0  0  0  0  0
  183.7070  178.2030  142.6010 C   0  0  0  0  0  2  0  0  0  0  0  0
  185.0000  178.7840  143.1440 C   0  0  0  0  0  2  0  0  0  0  0  0
  183.4390  179.1880  144.9090 O   0  0  0  0  0  1  0  0  0  0  0  0
  184.7660  179.3860  144.5180 C   0  0  1  0  0  3  0  0  0  0  0  0
  184.9700  178.2020  146.7140 C   0  0  0  0  0  1  0  0  0  0  0  0
  185.7310  178.7810  145.5360 C   0  0  1  0  0  3  0  0  0  0  0  0
  186.6310  177.7220  144.9110 C   0  0  0  0  0  2  0  0  0  0  0  0
  190.4000  177.2300  147.2490 O   0  0  0  0  0  0  0  0  0  0  0  0
  191.8010  175.9520  145.9690 O   0  0  0  0  0  0  0  0  0  0  0  0
  190.5310  177.5890  144.7520 C   0  0  2  0  0  3  0  0  0  0  0  0
  188.1940  177.2410  146.6360 O   0  0  0  0  0  0  0  0  0  0  0  0
  189.1780  177.9450  147.3390 C   0  0  1  0  0  3  0  0  0  0  0  0
  189.0650  177.3140  144.3660 C   0  0  1  0  0  3  0  0  0  0  0  0
  191.3880  177.2320  143.7050 O   0  0  0  0  0  1  0  0  0  0  0  0
  188.0690  177.8890  145.3980 C   0  0  1  0  0  3  0  0  0  0  0  0
  190.9480  176.8800  146.0150 C   0  0  0  0  0  0  0  0  0  0  0  0
  188.7990  177.9370  142.9990 C   0  0  0  0  0  1  0  0  0  0  0  0
  188.7710  178.0540  148.7960 C   0  0  0  0  0  1  0  0  0  0  0  0
  1 23  1  1  0  0  0
  2  7  1  0  0  0  0
  3  7  2  0  0  0  0
  4  5  2  0  0  0  0
  4  6  1  0  0  0  0
  5  3  1  0  0  0  0
  6  2  2  0  0  0  0
  7  1  1  0  0  0  0
  8 10  1  0  0  0  0
  9  2  1  6  0  0  0
  9  8  1  0  0  0  0
  9 10  1  0  0  0  0
 11 13  2  0  0  0  0
 12  1  1  0  0  0  0
 13 12  1  0  0  0  0
 14 13  1  1  0  0  0
 14 22  1  0  0  0  0
 15 19  1  0  0  0  0
 15 16  1  0  0  0  0
 16 17  1  0  0  0  0
 18 20  1  0  0  0  0
 19 18  1  0  0  0  0
 20 17  1  0  0  0  0
 20 14  1  0  0  0  0
 21 22  1  0  0  0  0
 23 24  1  0  0  0  0
 24 26  1  0  0  0  0
 26 25  1  1  0  0  0
 26 28  1  0  0  0  0
 28 27  1  1  0  0  0
 29 28  1  0  0  0  0
 30 34  1  0  0  0  0
 31 38  2  0  0  0  0
 32 36  1  6  0  0  0
 32 38  1  0  0  0  0
 33 34  1  0  0  0  0
 34 40  1  1  0  0  0
 35 39  1  6  0  0  0
 35 32  1  0  0  0  0
 35 37  1  0  0  0  0
 37 29  1  6  0  0  0
 37 33  1  0  0  0  0
 38 30  1  0  0  0  0
M  END
>  <MODEL>
2

>  <REMARK>
 VINA RESULT:      -8.3      1.150      1.933
  Name = 
  12 active torsions:
  status: ('A' for Active; 'I' for Inactive)
    1  A    between atoms: C_4  and  C_11
    2  A    between atoms: C_9  and  C_19
    3  A    between atoms: C_9  and  C_34
    4  A    between atoms: C_14  and  C_27
    5  A    between atoms: C_14  and  C_38
    6  A    between atoms: C_20  and  N_33
    7  A    between atoms: C_20  and  C_35
    8  A    between atoms: C_20  and  C_40
    9  A    between atoms: C_23  and  C_34
   10  A    between atoms: C_23  and  C_38
   11  A    between atoms: C_27  and  C_37
   12  A    between atoms: C_27  and  N_39
                            x       y       z     vdW  Elec       q    Type
                         _______ _______ _______ _____ _____    ______ ____

>  <TORSDO>
F 12

$$$$
=
 OpenBabel11062413073D

 40 43  0  0  1  0  0  0  0  0999 V2000
  186.6890  178.0590  142.4920 C   0  0  2  0  0  3  0  0  0  0  0  0
  184.1600  178.3130  142.4260 C   0  0  0  0  0  0  0  0  0  0  0  0
  185.3300  178.7180  144.5200 C   0  0  0  0  0  3  0  0  0  0  0  0
  182.9310  178.9940  144.4150 C   0  0  0  0  0  3  0  0  0  0  0  0
  184.1200  179.0260  145.1440 C   0  0  0  0  0  3  0  0  0  0  0  0
  182.9520  178.6480  143.0620 C   0  0  0  0  0  3  0  0  0  0  0  0
  185.3680  178.3710  143.1600 C   0  0  0  0  0  0  0  0  0  0  0  0
  182.8280  177.9880  140.4780 O   0  0  0  0  0  0  0  0  0  0  0  0
  184.1560  177.9980  140.9520 C   0  0  1  0  0  3  0  0  0  0  0  0
  183.6040  179.1090  140.1400 C   0  0  0  0  0  2  0  0  0  0  0  0
  188.2110  175.6560  143.2580 O   0  0  0  0  0  0  0  0  0  0  0  0
  187.8110  177.9580  143.4250 N   0  0  0  0  0  2  0  0  0  0  0  0
  188.4950  176.7540  143.8020 C   0  0  0  0  0  0  0  0  0  0  0  0
  189.5470  176.7770  144.8720 C   0  0  2  0  0  3  0  0  0  0  0  0
  188.0910  177.8520  148.5890 C   0  0  0  0  0  2  0  0  0  0  0  0
  187.4000  177.3440  147.3270 C   0  0  0  0  0  2  0  0  0  0  0  0
  187.8890  178.0260  146.1960 O   0  0  0  0  0  0  0  0  0  0  0  0
  189.9630  177.3380  147.1920 O   0  0  0  0  0  0  0  0  0  0  0  0
  189.5410  178.1630  148.2470 C   0  0  0  0  0  2  0  0  0  0  0  0
  189.2850  177.7640  146.0180 C   0  0  0  0  0  3  0  0  0  0  0  0
  191.3900  178.1690  144.1510 C   0  0  0  0  0  1  0  0  0  0  0  0
  190.9230  176.8050  144.3590 N   0  0  0  0  0  2  0  0  0  0  0  0
  187.0160  178.8720  141.2360 C   0  0  0  0  0  2  0  0  0  0  0  0
  188.2180  178.3280  140.4830 C   0  0  0  0  0  2  0  0  0  0  0  0
  186.8040  178.5990  138.5750 O   0  0  0  0  0  1  0  0  0  0  0  0
  187.7840  177.7760  139.1370 C   0  0  1  0  0  3  0  0  0  0  0  0
  189.1090  178.8660  137.3140 C   0  0  0  0  0  1  0  0  0  0  0  0
  188.9860  177.6430  138.2040 C   0  0  1  0  0  3  0  0  0  0  0  0
  190.2820  177.4100  138.9710 C   0  0  0  0  0  2  0  0  0  0  0  0
  191.5120  174.0030  136.3650 O   0  0  0  0  0  0  0  0  0  0  0  0
  193.5330  174.5720  135.4560 O   0  0  0  0  0  0  0  0  0  0  0  0
  193.2540  175.1830  137.7620 C   0  0  2  0  0  3  0  0  0  0  0  0
  190.3110  175.7050  137.3140 O   0  0  0  0  0  0  0  0  0  0  0  0
  190.4840  174.3170  137.2900 C   0  0  1  0  0  3  0  0  0  0  0  0
  192.4710  176.4530  138.1470 C   0  0  1  0  0  3  0  0  0  0  0  0
  194.6240  175.4580  137.6830 O   0  0  0  0  0  1  0  0  0  0  0  0
  190.9880  176.1560  138.4580 C   0  0  1  0  0  3  0  0  0  0  0  0
  192.7820  174.5710  136.4690 C   0  0  0  0  0  0  0  0  0  0  0  0
  193.1340  177.0790  139.3710 C   0  0  0  0  0  1  0  0  0  0  0  0
  189.1930  173.6600  136.8410 C   0  0  0  0  0  1  0  0  0  0  0  0
  1 23  1  6  0  0  0
  1  7  1  0  0  0  0
  1 12  1  0  0  0  0
  2  6  2  0  0  0  0
  2  7  1  0  0  0  0
  3  5  1  0  0  0  0
  4  5  2  0  0  0  0
  6  4  1  0  0  0  0
  7  3  2  0  0  0  0
  8  9  1  0  0  0  0
  9  2  1  1  0  0  0
 10  8  1  0  0  0  0
 10  9  1  0  0  0  0
 11 13  2  0  0  0  0
 12 13  1  0  0  0  0
 14 13  1  6  0  0  0
 14 20  1  0  0  0  0
 16 15  1  0  0  0  0
 17 16  1  0  0  0  0
 18 19  1  0  0  0  0
 19 15  1  0  0  0  0
 20 17  1  0  0  0  0
 20 18  1  0  0  0  0
 21 22  1  0  0  0  0
 22 14  1  0  0  0  0
 24 23  1  0  0  0  0
 26 25  1  6  0  0  0
 26 24  1  0  0  0  0
 28 27  1  1  0  0  0
 28 29  1  0  0  0  0
 28 26  1  0  0  0  0
 30 38  1  0  0  0  0
 30 34  1  0  0  0  0
 31 38  2  0  0  0  0
 32 36  1  6  0  0  0
 32 35  1  0  0  0  0
 33 37  1  0  0  0  0
 34 40  1  6  0  0  0
 34 33  1  0  0  0  0
 35 37  1  0  0  0  0
 35 39  1  1  0  0  0
 37 29  1  6  0  0  0
 38 32  1  0  0  0  0
M  END
>  <MODEL>
3

>  <REMARK>
 VINA RESULT:      -8.2      3.168      7.843
  Name = 
  12 active torsions:
  status: ('A' for Active; 'I' for Inactive)
    1  A    between atoms: C_4  and  C_11
    2  A    between atoms: C_9  and  C_19
    3  A    between atoms: C_9  and  C_34
    4  A    between atoms: C_14  and  C_27
    5  A    between atoms: C_14  and  C_38
    6  A    between atoms: C_20  and  N_33
    7  A    between atoms: C_20  and  C_35
    8  A    between atoms: C_20  and  C_40
    9  A    between atoms: C_23  and  C_34
   10  A    between atoms: C_23  and  C_38
   11  A    between atoms: C_27  and  C_37
   12  A    between atoms: C_27  and  N_39
                            x       y       z     vdW  Elec       q    Type
                         _______ _______ _______ _____ _____    ______ ____

>  <TORSDO>
F 12

$$$$
=
 OpenBabel11062413073D

 40 43  0  0  1  0  0  0  0  0999 V2000
  183.2590  178.6430  140.9770 C   0  0  2  0  0  3  0  0  0  0  0  0
  181.2290  177.4990  139.9590 C   0  0  0  0  0  0  0  0  0  0  0  0
  181.1590  179.9000  140.3450 C   0  0  0  0  0  3  0  0  0  0  0  0
  179.2610  178.7920  139.3380 C   0  0  0  0  0  3  0  0  0  0  0  0
  179.8700  179.9540  139.8110 C   0  0  0  0  0  3  0  0  0  0  0  0
  179.9400  177.5730  139.4040 C   0  0  0  0  0  3  0  0  0  0  0  0
  181.8560  178.6830  140.4150 C   0  0  0  0  0  0  0  0  0  0  0  0
  181.1280  175.1850  139.4060 O   0  0  0  0  0  0  0  0  0  0  0  0
  181.9560  176.1790  139.9660 C   0  0  1  0  0  3  0  0  0  0  0  0
  182.1780  175.6510  138.5970 C   0  0  0  0  0  2  0  0  0  0  0  0
  184.7610  179.9180  138.7870 O   0  0  0  0  0  0  0  0  0  0  0  0
  184.2370  178.0340  140.0770 N   0  0  0  0  0  2  0  0  0  0  0  0
  184.9130  178.6860  138.9910 C   0  0  0  0  0  0  0  0  0  0  0  0
  185.7960  177.9050  138.0620 C   0  0  2  0  0  3  0  0  0  0  0  0
  189.9000  177.5690  138.4320 C   0  0  0  0  0  2  0  0  0  0  0  0
  188.7720  177.5160  139.4580 C   0  0  0  0  0  2  0  0  0  0  0  0
  187.8590  178.5650  139.2330 O   0  0  0  0  0  0  0  0  0  0  0  0
  187.9670  177.6300  137.0240 O   0  0  0  0  0  0  0  0  0  0  0  0
  189.3140  178.0210  137.1020 C   0  0  0  0  0  2  0  0  0  0  0  0
  187.2380  178.4210  137.9510 C   0  0  0  0  0  3  0  0  0  0  0  0
  185.1170  176.1460  136.5450 C   0  0  0  0  0  1  0  0  0  0  0  0
  185.1740  177.5840  136.7720 N   0  0  0  0  0  2  0  0  0  0  0  0
  183.3900  178.1640  142.4270 C   0  0  0  0  0  2  0  0  0  0  0  0
  184.7910  178.3510  142.9810 C   0  0  0  0  0  2  0  0  0  0  0  0
  183.4540  179.4060  144.6590 O   0  0  0  0  0  1  0  0  0  0  0  0
  184.7600  179.2890  144.1740 C   0  0  1  0  0  3  0  0  0  0  0  0
  184.9220  178.2980  146.4660 C   0  0  0  0  0  1  0  0  0  0  0  0
  185.7050  178.7950  145.2660 C   0  0  1  0  0  3  0  0  0  0  0  0
  186.6470  177.7090  144.7580 C   0  0  0  0  0  2  0  0  0  0  0  0
  190.2360  177.2390  147.3680 O   0  0  0  0  0  0  0  0  0  0  0  0
  191.7490  176.0000  146.1810 O   0  0  0  0  0  0  0  0  0  0  0  0
  190.5490  177.6340  144.8930 C   0  0  2  0  0  3  0  0  0  0  0  0
  188.0820  177.2260  146.5910 O   0  0  0  0  0  0  0  0  0  0  0  0
  189.0000  177.9350  147.3750 C   0  0  1  0  0  3  0  0  0  0  0  0
  189.1210  177.3440  144.3940 C   0  0  1  0  0  3  0  0  0  0  0  0
  191.4880  177.3050  143.9090 O   0  0  0  0  0  1  0  0  0  0  0  0
  188.0410  177.8900  145.3550 C   0  0  1  0  0  3  0  0  0  0  0  0
  190.8810  176.9150  146.1750 C   0  0  0  0  0  0  0  0  0  0  0  0
  188.9490  177.9830  143.0190 C   0  0  0  0  0  1  0  0  0  0  0  0
  188.4830  178.0180  148.7980 C   0  0  0  0  0  1  0  0  0  0  0  0
  1 23  1  1  0  0  0
  2  7  1  0  0  0  0
  3  7  2  0  0  0  0
  4  6  1  0  0  0  0
  4  5  2  0  0  0  0
  5  3  1  0  0  0  0
  6  2  2  0  0  0  0
  7  1  1  0  0  0  0
  8  9  1  0  0  0  0
  9  2  1  6  0  0  0
 10  8  1  0  0  0  0
 10  9  1  0  0  0  0
 11 13  2  0  0  0  0
 12  1  1  0  0  0  0
 13 12  1  0  0  0  0
 14 22  1  6  0  0  0
 14 13  1  0  0  0  0
 15 16  1  0  0  0  0
 17 16  1  0  0  0  0
 18 19  1  0  0  0  0
 18 20  1  0  0  0  0
 19 15  1  0  0  0  0
 20 14  1  0  0  0  0
 20 17  1  0  0  0  0
 21 22  1  0  0  0  0
 23 24  1  0  0  0  0
 24 26  1  0  0  0  0
 26 25  1  1  0  0  0
 26 28  1  0  0  0  0
 28 27  1  1  0  0  0
 29 28  1  0  0  0  0
 30 34  1  0  0  0  0
 32 36  1  6  0  0  0
 32 38  1  0  0  0  0
 33 34  1  0  0  0  0
 34 40  1  1  0  0  0
 35 39  1  6  0  0  0
 35 32  1  0  0  0  0
 35 37  1  0  0  0  0
 37 29  1  6  0  0  0
 37 33  1  0  0  0  0
 38 31  2  0  0  0  0
 38 30  1  0  0  0  0
M  END
>  <MODEL>
4

>  <REMARK>
 VINA RESULT:      -7.9      1.144      1.870
  Name = 
  12 active torsions:
  status: ('A' for Active; 'I' for Inactive)
    1  A    between atoms: C_4  and  C_11
    2  A    between atoms: C_9  and  C_19
    3  A    between atoms: C_9  and  C_34
    4  A    between atoms: C_14  and  C_27
    5  A    between atoms: C_14  and  C_38
    6  A    between atoms: C_20  and  N_33
    7  A    between atoms: C_20  and  C_35
    8  A    between atoms: C_20  and  C_40
    9  A    between atoms: C_23  and  C_34
   10  A    between atoms: C_23  and  C_38
   11  A    between atoms: C_27  and  C_37
   12  A    between atoms: C_27  and  N_39
                            x       y       z     vdW  Elec       q    Type
                         _______ _______ _______ _____ _____    ______ ____

>  <TORSDO>
F 12

$$$$
=
 OpenBabel11062413073D

 40 43  0  0  1  0  0  0  0  0999 V2000
  183.1980  178.7630  142.1310 C   0  0  2  0  0  3  0  0  0  0  0  0
  180.8230  179.1710  141.3210 C   0  0  0  0  0  0  0  0  0  0  0  0
  181.1890  178.5990  143.6570 C   0  0  0  0  0  3  0  0  0  0  0  0
  178.9470  179.0370  142.8670 C   0  0  0  0  0  3  0  0  0  0  0  0
  179.8180  178.6920  143.9000 C   0  0  0  0  0  3  0  0  0  0  0  0
  179.4470  179.2830  141.5870 C   0  0  0  0  0  3  0  0  0  0  0  0
  181.7090  178.8470  142.3760 C   0  0  0  0  0  0  0  0  0  0  0  0
  180.2520  179.6160  139.0520 O   0  0  0  0  0  0  0  0  0  0  0  0
  181.3390  179.4970  139.9420 C   0  0  1  0  0  3  0  0  0  0  0  0
  180.8600  180.8150  139.4590 C   0  0  0  0  0  2  0  0  0  0  0  0
  185.2460  179.6080  140.1890 O   0  0  0  0  0  0  0  0  0  0  0  0
  183.5510  178.1360  140.8580 N   0  0  0  0  0  2  0  0  0  0  0  0
  184.5290  178.6110  139.9200 C   0  0  0  0  0  0  0  0  0  0  0  0
  184.6970  177.9410  138.5880 C   0  0  2  0  0  3  0  0  0  0  0  0
  188.2270  177.3750  136.5130 C   0  0  0  0  0  2  0  0  0  0  0  0
  187.8460  177.1280  137.9690 C   0  0  0  0  0  2  0  0  0  0  0  0
  187.1390  178.2340  138.4810 O   0  0  0  0  0  0  0  0  0  0  0  0
  185.8800  177.8320  136.4770 O   0  0  0  0  0  0  0  0  0  0  0  0
  187.0950  178.1430  135.8460 C   0  0  0  0  0  2  0  0  0  0  0  0
  185.9090  178.4140  137.7720 C   0  0  0  0  0  3  0  0  0  0  0  0
  182.9770  176.4590  137.7500 C   0  0  0  0  0  1  0  0  0  0  0  0
  183.4560  177.8340  137.8100 N   0  0  0  0  0  2  0  0  0  0  0  0
  184.0460  178.2660  143.3060 C   0  0  0  0  0  2  0  0  0  0  0  0
  185.0190  179.3160  143.8120 C   0  0  0  0  0  2  0  0  0  0  0  0
  183.8980  178.6180  145.8050 O   0  0  0  0  0  1  0  0  0  0  0  0
  184.9460  179.4100  145.3260 C   0  0  1  0  0  3  0  0  0  0  0  0
  186.3110  179.3590  147.4220 C   0  0  0  0  0  1  0  0  0  0  0  0
  186.2750  178.9930  145.9500 C   0  0  1  0  0  3  0  0  0  0  0  0
  186.5540  177.5070  145.7630 C   0  0  0  0  0  2  0  0  0  0  0  0
  190.0670  178.0620  143.0690 O   0  0  0  0  0  0  0  0  0  0  0  0
  191.7390  178.9530  144.3500 O   0  0  0  0  0  0  0  0  0  0  0  0
  190.4360  177.2490  145.4310 C   0  0  2  0  0  3  0  0  0  0  0  0
  187.9570  178.1450  143.9540 O   0  0  0  0  0  0  0  0  0  0  0  0
  188.7690  177.4910  143.0210 C   0  0  1  0  0  3  0  0  0  0  0  0
  189.0640  177.5830  146.0460 C   0  0  1  0  0  3  0  0  0  0  0  0
  191.4410  177.3290  146.4020 O   0  0  0  0  0  1  0  0  0  0  0  0
  187.8990  177.2980  145.0720 C   0  0  1  0  0  3  0  0  0  0  0  0
  190.7860  178.1310  144.2610 C   0  0  0  0  0  0  0  0  0  0  0  0
  188.8840  176.7510  147.3120 C   0  0  0  0  0  1  0  0  0  0  0  0
  188.1910  177.6840  141.6320 C   0  0  0  0  0  1  0  0  0  0  0  0
  1  7  1  0  0  0  0
  1 23  1  1  0  0  0
  2  6  2  0  0  0  0
  2  7  1  0  0  0  0
  3  5  1  0  0  0  0
  4  5  2  0  0  0  0
  6  4  1  0  0  0  0
  7  3  2  0  0  0  0
  8 10  1  0  0  0  0
  8  9  1  0  0  0  0
  9  2  1  1  0  0  0
 10  9  1  0  0  0  0
 12  1  1  0  0  0  0
 13 11  2  0  0  0  0
 13 12  1  0  0  0  0
 14 22  1  6  0  0  0
 14 13  1  0  0  0  0
 15 16  1  0  0  0  0
 16 17  1  0  0  0  0
 18 20  1  0  0  0  0
 19 18  1  0  0  0  0
 19 15  1  0  0  0  0
 20 17  1  0  0  0  0
 20 14  1  0  0  0  0
 21 22  1  0  0  0  0
 23 24  1  0  0  0  0
 24 26  1  0  0  0  0
 26 25  1  1  0  0  0
 26 28  1  0  0  0  0
 28 27  1  1  0  0  0
 29 28  1  0  0  0  0
 30 38  1  0  0  0  0
 32 35  1  0  0  0  0
 32 36  1  1  0  0  0
 33 37  1  0  0  0  0
 34 40  1  6  0  0  0
 34 30  1  0  0  0  0
 34 33  1  0  0  0  0
 35 39  1  1  0  0  0
 37 29  1  1  0  0  0
 37 35  1  0  0  0  0
 38 31  2  0  0  0  0
 38 32  1  0  0  0  0
M  END
>  <MODEL>
5

>  <REMARK>
 VINA RESULT:      -7.6      1.643      2.682
  Name = 
  12 active torsions:
  status: ('A' for Active; 'I' for Inactive)
    1  A    between atoms: C_4  and  C_11
    2  A    between atoms: C_9  and  C_19
    3  A    between atoms: C_9  and  C_34
    4  A    between atoms: C_14  and  C_27
    5  A    between atoms: C_14  and  C_38
    6  A    between atoms: C_20  and  N_33
    7  A    between atoms: C_20  and  C_35
    8  A    between atoms: C_20  and  C_40
    9  A    between atoms: C_23  and  C_34
   10  A    between atoms: C_23  and  C_38
   11  A    between atoms: C_27  and  C_37
   12  A    between atoms: C_27  and  N_39
                            x       y       z     vdW  Elec       q    Type
                         _______ _______ _______ _____ _____    ______ ____

>  <TORSDO>
F 12

$$$$
=
 OpenBabel11062413073D

 40 43  0  0  1  0  0  0  0  0999 V2000
  182.2710  178.9720  140.0660 C   0  0  2  0  0  3  0  0  0  0  0  0
  180.3520  177.7120  141.1590 C   0  0  0  0  0  0  0  0  0  0  0  0
  181.6140  176.6280  139.3830 C   0  0  0  0  0  3  0  0  0  0  0  0
  179.8120  175.4390  140.4710 C   0  0  0  0  0  3  0  0  0  0  0  0
  180.8260  175.4840  139.5140 C   0  0  0  0  0  3  0  0  0  0  0  0
  179.5820  176.5440  141.2940 C   0  0  0  0  0  3  0  0  0  0  0  0
  181.3970  177.7460  140.2050 C   0  0  0  0  0  0  0  0  0  0  0  0
  179.1830  178.4850  143.0840 O   0  0  0  0  0  0  0  0  0  0  0  0
  180.1150  178.8670  142.0980 C   0  0  1  0  0  3  0  0  0  0  0  0
  180.5260  178.5550  143.4890 C   0  0  0  0  0  2  0  0  0  0  0  0
  179.9180  180.5330  139.2260 O   0  0  0  0  0  0  0  0  0  0  0  0
  182.0690  179.7010  138.8140 N   0  0  0  0  0  2  0  0  0  0  0  0
  180.8830  180.4120  138.4290 C   0  0  0  0  0  0  0  0  0  0  0  0
  180.7630  181.0070  137.0560 C   0  0  2  0  0  3  0  0  0  0  0  0
  180.9270  185.0710  136.3200 C   0  0  0  0  0  2  0  0  0  0  0  0
  181.6980  184.1740  137.2820 C   0  0  0  0  0  2  0  0  0  0  0  0
  180.8150  183.3010  137.9480 O   0  0  0  0  0  0  0  0  0  0  0  0
  180.1560  182.9010  135.6740 O   0  0  0  0  0  0  0  0  0  0  0  0
  179.7920  184.2570  135.7130 C   0  0  0  0  0  2  0  0  0  0  0  0
  180.1770  182.4250  137.0120 C   0  0  0  0  0  3  0  0  0  0  0  0
  181.1420  179.0490  135.6830 C   0  0  0  0  0  1  0  0  0  0  0  0
  180.1960  180.0930  136.0550 N   0  0  0  0  0  2  0  0  0  0  0  0
  183.7490  178.7900  140.4290 C   0  0  0  0  0  2  0  0  0  0  0  0
  183.9590  178.5110  141.9060 C   0  0  0  0  0  2  0  0  0  0  0  0
  186.0090  179.7240  141.7110 O   0  0  0  0  0  1  0  0  0  0  0  0
  185.4380  178.5640  142.2430 C   0  0  1  0  0  3  0  0  0  0  0  0
  184.3100  178.5300  144.4770 C   0  0  0  0  0  1  0  0  0  0  0  0
  185.6440  178.4980  143.7550 C   0  0  1  0  0  3  0  0  0  0  0  0
  186.4440  177.2690  144.1700 C   0  0  0  0  0  2  0  0  0  0  0  0
  189.8020  177.4930  147.0990 O   0  0  0  0  0  0  0  0  0  0  0  0
  191.5700  176.3920  146.1530 O   0  0  0  0  0  0  0  0  0  0  0  0
  190.2910  177.7460  144.6350 C   0  0  2  0  0  3  0  0  0  0  0  0
  187.7510  177.1250  146.1500 O   0  0  0  0  0  0  0  0  0  0  0  0
  188.4900  178.0100  146.9440 C   0  0  1  0  0  3  0  0  0  0  0  0
  188.9680  177.2250  144.0450 C   0  0  1  0  0  3  0  0  0  0  0  0
  191.3550  177.4790  143.7630 O   0  0  0  0  0  1  0  0  0  0  0  0
  187.7400  177.6840  144.8620 C   0  0  1  0  0  3  0  0  0  0  0  0
  190.5930  177.1750  145.9960 C   0  0  0  0  0  0  0  0  0  0  0  0
  188.8430  177.7310  142.6100 C   0  0  0  0  0  1  0  0  0  0  0  0
  187.8350  178.1240  148.3070 C   0  0  0  0  0  1  0  0  0  0  0  0
  1  7  1  0  0  0  0
  1 23  1  6  0  0  0
  2  6  1  0  0  0  0
  3  5  2  0  0  0  0
  3  7  1  0  0  0  0
  4  6  2  0  0  0  0
  5  4  1  0  0  0  0
  7  2  2  0  0  0  0
  8 10  1  0  0  0  0
  9  2  1  6  0  0  0
  9  8  1  0  0  0  0
  9 10  1  0  0  0  0
 12  1  1  0  0  0  0
 13 12  1  0  0  0  0
 13 11  2  0  0  0  0
 14 22  1  6  0  0  0
 14 13  1  0  0  0  0
 15 16  1  0  0  0  0
 16 17  1  0  0  0  0
 18 19  1  0  0  0  0
 18 20  1  0  0  0  0
 19 15  1  0  0  0  0
 20 14  1  0  0  0  0
 20 17  1  0  0  0  0
 21 22  1  0  0  0  0
 23 24  1  0  0  0  0
 24 26  1  0  0  0  0
 26 25  1  1  0  0  0
 26 28  1  0  0  0  0
 28 29  1  0  0  0  0
 28 27  1  1  0  0  0
 32 36  1  6  0  0  0
 32 38  1  0  0  0  0
 33 34  1  0  0  0  0
 34 30  1  0  0  0  0
 34 40  1  1  0  0  0
 35 39  1  6  0  0  0
 35 32  1  0  0  0  0
 35 37  1  0  0  0  0
 37 29  1  6  0  0  0
 37 33  1  0  0  0  0
 38 31  2  0  0  0  0
 38 30  1  0  0  0  0
M  END
>  <MODEL>
6

>  <REMARK>
 VINA RESULT:      -7.5      3.100      4.372
  Name = 
  12 active torsions:
  status: ('A' for Active; 'I' for Inactive)
    1  A    between atoms: C_4  and  C_11
    2  A    between atoms: C_9  and  C_19
    3  A    between atoms: C_9  and  C_34
    4  A    between atoms: C_14  and  C_27
    5  A    between atoms: C_14  and  C_38
    6  A    between atoms: C_20  and  N_33
    7  A    between atoms: C_20  and  C_35
    8  A    between atoms: C_20  and  C_40
    9  A    between atoms: C_23  and  C_34
   10  A    between atoms: C_23  and  C_38
   11  A    between atoms: C_27  and  C_37
   12  A    between atoms: C_27  and  N_39
                            x       y       z     vdW  Elec       q    Type
                         _______ _______ _______ _____ _____    ______ ____

>  <TORSDO>
F 12

$$$$
=
 OpenBabel11062413073D

 40 43  0  0  1  0  0  0  0  0999 V2000
  186.5950  177.5040  143.2580 C   0  0  2  0  0  3  0  0  0  0  0  0
  185.5410  178.2170  145.4590 C   0  0  0  0  0  0  0  0  0  0  0  0
  187.9030  177.6360  145.4170 C   0  0  0  0  0  3  0  0  0  0  0  0
  186.8830  178.3590  147.4860 C   0  0  0  0  0  3  0  0  0  0  0  0
  188.0020  177.9160  146.7810 C   0  0  0  0  0  3  0  0  0  0  0  0
  185.6610  178.5170  146.8270 C   0  0  0  0  0  3  0  0  0  0  0  0
  186.6830  177.7930  144.7390 C   0  0  0  0  0  0  0  0  0  0  0  0
  183.3710  179.1870  145.6120 O   0  0  0  0  0  0  0  0  0  0  0  0
  184.2230  178.4490  144.7650 C   0  0  1  0  0  3  0  0  0  0  0  0
  183.9500  179.8900  144.5430 C   0  0  0  0  0  2  0  0  0  0  0  0
  188.5650  178.8790  141.5520 O   0  0  0  0  0  0  0  0  0  0  0  0
  187.8300  176.9670  142.6880 N   0  0  0  0  0  2  0  0  0  0  0  0
  188.7390  177.6630  141.8220 C   0  0  0  0  0  0  0  0  0  0  0  0
  189.9030  176.9470  141.2020 C   0  0  2  0  0  3  0  0  0  0  0  0
  191.7230  176.8330  144.9120 C   0  0  0  0  0  2  0  0  0  0  0  0
  191.2010  177.9880  144.0640 C   0  0  0  0  0  2  0  0  0  0  0  0
  191.6190  177.8380  142.7270 O   0  0  0  0  0  0  0  0  0  0  0  0
  190.6700  175.6650  143.1100 O   0  0  0  0  0  0  0  0  0  0  0  0
  191.6930  175.5670  144.0660 C   0  0  0  0  0  2  0  0  0  0  0  0
  191.0640  176.6460  142.1600 C   0  0  0  0  0  3  0  0  0  0  0  0
  190.7950  176.4490  139.0080 C   0  0  0  0  0  1  0  0  0  0  0  0
  190.3230  177.4950  139.9060 N   0  0  0  0  0  2  0  0  0  0  0  0
  185.9560  178.5980  142.3960 C   0  0  0  0  0  2  0  0  0  0  0  0
  184.8650  178.0640  141.4860 C   0  0  0  0  0  2  0  0  0  0  0  0
  185.9710  178.9880  139.5790 O   0  0  0  0  0  1  0  0  0  0  0  0
  184.7450  178.9340  140.2480 C   0  0  1  0  0  3  0  0  0  0  0  0
  184.2440  177.7690  138.0900 C   0  0  0  0  0  1  0  0  0  0  0  0
  183.6450  178.4060  139.3300 C   0  0  1  0  0  3  0  0  0  0  0  0
  182.7280  177.4200  140.0440 C   0  0  0  0  0  2  0  0  0  0  0  0
  179.7030  180.0800  141.9650 O   0  0  0  0  0  0  0  0  0  0  0  0
  179.2460  181.7420  140.4610 O   0  0  0  0  0  0  0  0  0  0  0  0
  179.5030  179.5540  139.5030 C   0  0  2  0  0  3  0  0  0  0  0  0
  181.5900  178.8450  141.5700 O   0  0  0  0  0  0  0  0  0  0  0  0
  180.3540  178.8480  142.2270 C   0  0  1  0  0  3  0  0  0  0  0  0
  180.9050  178.9750  139.2390 C   0  0  1  0  0  3  0  0  0  0  0  0
  179.0080  180.1820  138.3530 O   0  0  0  0  0  1  0  0  0  0  0  0
  181.4020  178.0880  140.4030 C   0  0  1  0  0  3  0  0  0  0  0  0
  179.4740  180.5180  140.6610 C   0  0  0  0  0  0  0  0  0  0  0  0
  180.8550  178.1490  137.9560 C   0  0  0  0  0  1  0  0  0  0  0  0
  180.5820  178.7120  143.7200 C   0  0  0  0  0  1  0  0  0  0  0  0
  1 23  1  6  0  0  0
  1  7  1  0  0  0  0
  2  6  1  0  0  0  0
  3  5  2  0  0  0  0
  5  4  1  0  0  0  0
  6  4  2  0  0  0  0
  7  3  1  0  0  0  0
  7  2  2  0  0  0  0
  9  2  1  1  0  0  0
  9  8  1  0  0  0  0
 10  9  1  0  0  0  0
 10  8  1  0  0  0  0
 11 13  2  0  0  0  0
 12  1  1  0  0  0  0
 13 12  1  0  0  0  0
 14 22  1  6  0  0  0
 14 13  1  0  0  0  0
 14 20  1  0  0  0  0
 16 15  1  0  0  0  0
 17 16  1  0  0  0  0
 18 19  1  0  0  0  0
 19 15  1  0  0  0  0
 20 17  1  0  0  0  0
 20 18  1  0  0  0  0
 21 22  1  0  0  0  0
 24 23  1  0  0  0  0
 26 25  1  6  0  0  0
 26 24  1  0  0  0  0
 28 27  1  6  0  0  0
 28 29  1  0  0  0  0
 28 26  1  0  0  0  0
 30 34  1  0  0  0  0
 31 38  2  0  0  0  0
 32 36  1  6  0  0  0
 32 38  1  0  0  0  0
 33 34  1  0  0  0  0
 34 40  1  1  0  0  0
 35 39  1  6  0  0  0
 35 32  1  0  0  0  0
 35 37  1  0  0  0  0
 37 29  1  6  0  0  0
 37 33  1  0  0  0  0
 38 30  1  0  0  0  0
M  END
>  <MODEL>
7

>  <REMARK>
 VINA RESULT:      -7.4      2.323      8.042
  Name = 
  12 active torsions:
  status: ('A' for Active; 'I' for Inactive)
    1  A    between atoms: C_4  and  C_11
    2  A    between atoms: C_9  and  C_19
    3  A    between atoms: C_9  and  C_34
    4  A    between atoms: C_14  and  C_27
    5  A    between atoms: C_14  and  C_38
    6  A    between atoms: C_20  and  N_33
    7  A    between atoms: C_20  and  C_35
    8  A    between atoms: C_20  and  C_40
    9  A    between atoms: C_23  and  C_34
   10  A    between atoms: C_23  and  C_38
   11  A    between atoms: C_27  and  C_37
   12  A    between atoms: C_27  and  N_39
                            x       y       z     vdW  Elec       q    Type
                         _______ _______ _______ _____ _____    ______ ____

>  <TORSDO>
F 12

$$$$
=
 OpenBabel11062413073D

 40 43  0  0  1  0  0  0  0  0999 V2000
  182.4840  178.9910  140.2610 C   0  0  2  0  0  3  0  0  0  0  0  0
  182.0150  176.6530  139.3790 C   0  0  0  0  0  0  0  0  0  0  0  0
  180.4760  177.6370  140.9860 C   0  0  0  0  0  3  0  0  0  0  0  0
  180.0320  175.4340  140.0960 C   0  0  0  0  0  3  0  0  0  0  0  0
  179.6780  176.4930  140.9320 C   0  0  0  0  0  3  0  0  0  0  0  0
  181.1890  175.5170  139.3180 C   0  0  0  0  0  3  0  0  0  0  0  0
  181.6400  177.7370  140.2070 C   0  0  0  0  0  0  0  0  0  0  0  0
  183.1500  175.7320  137.4990 O   0  0  0  0  0  0  0  0  0  0  0  0
  183.2260  176.7350  138.4860 C   0  0  1  0  0  3  0  0  0  0  0  0
  182.8700  177.0430  137.0800 C   0  0  0  0  0  2  0  0  0  0  0  0
  180.4090  181.0640  139.9890 O   0  0  0  0  0  0  0  0  0  0  0  0
  182.2580  179.9020  139.1410 N   0  0  0  0  0  2  0  0  0  0  0  0
  181.2020  180.8690  139.0330 C   0  0  0  0  0  0  0  0  0  0  0  0
  181.0090  181.6510  137.7660 C   0  0  2  0  0  3  0  0  0  0  0  0
  179.7270  185.3830  136.5350 C   0  0  0  0  0  2  0  0  0  0  0  0
  180.8540  184.4770  136.0500 C   0  0  0  0  0  2  0  0  0  0  0  0
  181.5750  183.9650  137.1480 O   0  0  0  0  0  0  0  0  0  0  0  0
  179.3400  183.4050  137.8230 O   0  0  0  0  0  0  0  0  0  0  0  0
  179.1650  184.7980  137.8240 C   0  0  0  0  0  2  0  0  0  0  0  0
  180.7300  183.1470  137.9630 C   0  0  0  0  0  3  0  0  0  0  0  0
  180.8060  180.7740  135.5190 C   0  0  0  0  0  1  0  0  0  0  0  0
  180.1270  181.0000  136.7890 N   0  0  0  0  0  2  0  0  0  0  0  0
  183.9670  178.7900  140.5890 C   0  0  0  0  0  2  0  0  0  0  0  0
  184.1840  178.0420  141.8930 C   0  0  0  0  0  2  0  0  0  0  0  0
  182.8310  178.7310  143.7400 O   0  0  0  0  0  1  0  0  0  0  0  0
  184.0300  178.9900  143.0690 C   0  0  1  0  0  3  0  0  0  0  0  0
  184.7580  178.8260  145.4580 C   0  0  0  0  0  1  0  0  0  0  0  0
  185.2220  178.8640  144.0140 C   0  0  1  0  0  3  0  0  0  0  0  0
  186.0770  177.6420  143.6970 C   0  0  0  0  0  2  0  0  0  0  0  0
  190.0290  177.2460  145.7310 O   0  0  0  0  0  0  0  0  0  0  0  0
  191.4340  176.2330  144.2380 O   0  0  0  0  0  0  0  0  0  0  0  0
  189.9530  177.8670  143.2850 C   0  0  2  0  0  3  0  0  0  0  0  0
  187.7910  177.1270  145.2620 O   0  0  0  0  0  0  0  0  0  0  0  0
  188.7630  177.8390  145.9730 C   0  0  1  0  0  3  0  0  0  0  0  0
  188.4910  177.5060  142.9630 C   0  0  1  0  0  3  0  0  0  0  0  0
  190.7610  177.6950  142.1540 O   0  0  0  0  0  1  0  0  0  0  0  0
  187.5270  177.8840  144.1090 C   0  0  1  0  0  3  0  0  0  0  0  0
  190.5140  177.0730  144.4360 C   0  0  0  0  0  0  0  0  0  0  0  0
  188.0790  178.2390  141.6890 C   0  0  0  0  0  1  0  0  0  0  0  0
  188.4520  177.7640  147.4560 C   0  0  0  0  0  1  0  0  0  0  0  0
  1 23  1  6  0  0  0
  2  7  1  0  0  0  0
  4  5  2  0  0  0  0
  5  3  1  0  0  0  0
  6  2  2  0  0  0  0
  6  4  1  0  0  0  0
  7  1  1  0  0  0  0
  7  3  2  0  0  0  0
  8  9  1  0  0  0  0
  9  2  1  1  0  0  0
 10  8  1  0  0  0  0
 10  9  1  0  0  0  0
 12  1  1  0  0  0  0
 13 12  1  0  0  0  0
 13 11  2  0  0  0  0
 14 22  1  1  0  0  0
 14 20  1  0  0  0  0
 14 13  1  0  0  0  0
 15 19  1  0  0  0  0
 16 15  1  0  0  0  0
 16 17  1  0  0  0  0
 17 20  1  0  0  0  0
 18 19  1  0  0  0  0
 18 20  1  0  0  0  0
 21 22  1  0  0  0  0
 23 24  1  0  0  0  0
 24 26  1  0  0  0  0
 26 25  1  1  0  0  0
 26 28  1  0  0  0  0
 28 27  1  1  0  0  0
 29 28  1  0  0  0  0
 30 34  1  0  0  0  0
 31 38  2  0  0  0  0
 32 36  1  6  0  0  0
 32 38  1  0  0  0  0
 33 34  1  0  0  0  0
 34 40  1  1  0  0  0
 35 39  1  6  0  0  0
 35 32  1  0  0  0  0
 35 37  1  0  0  0  0
 37 29  1  6  0  0  0
 37 33  1  0  0  0  0
 38 30  1  0  0  0  0
M  END
>  <MODEL>
8

>  <REMARK>
 VINA RESULT:      -7.4      3.202      5.076
  Name = 
  12 active torsions:
  status: ('A' for Active; 'I' for Inactive)
    1  A    between atoms: C_4  and  C_11
    2  A    between atoms: C_9  and  C_19
    3  A    between atoms: C_9  and  C_34
    4  A    between atoms: C_14  and  C_27
    5  A    between atoms: C_14  and  C_38
    6  A    between atoms: C_20  and  N_33
    7  A    between atoms: C_20  and  C_35
    8  A    between atoms: C_20  and  C_40
    9  A    between atoms: C_23  and  C_34
   10  A    between atoms: C_23  and  C_38
   11  A    between atoms: C_27  and  C_37
   12  A    between atoms: C_27  and  N_39
                            x       y       z     vdW  Elec       q    Type
                         _______ _______ _______ _____ _____    ______ ____

>  <TORSDO>
F 12

$$$$
=
 OpenBabel11062413073D

 40 43  0  0  1  0  0  0  0  0999 V2000
  190.6350  176.3100  137.3820 C   0  0  2  0  0  3  0  0  0  0  0  0
  188.3910  176.3970  136.1900 C   0  0  0  0  0  0  0  0  0  0  0  0
  189.2600  174.2420  136.9090 C   0  0  0  0  0  3  0  0  0  0  0  0
  187.1090  174.3610  135.8120 C   0  0  0  0  0  3  0  0  0  0  0  0
  188.1210  173.6090  136.4090 C   0  0  0  0  0  3  0  0  0  0  0  0
  187.2400  175.7480  135.7110 C   0  0  0  0  0  3  0  0  0  0  0  0
  189.4050  175.6350  136.8180 C   0  0  0  0  0  0  0  0  0  0  0  0
  187.1860  178.4350  135.9330 O   0  0  0  0  0  0  0  0  0  0  0  0
  188.4780  177.9000  136.1150 C   0  0  1  0  0  3  0  0  0  0  0  0
  187.7390  178.5620  137.2180 C   0  0  0  0  0  2  0  0  0  0  0  0
  193.4450  176.6700  138.1890 O   0  0  0  0  0  0  0  0  0  0  0  0
  191.8400  176.1030  136.5790 N   0  0  0  0  0  2  0  0  0  0  0  0
  193.1920  176.3360  137.0030 C   0  0  0  0  0  0  0  0  0  0  0  0
  194.3280  176.2080  136.0310 C   0  0  2  0  0  3  0  0  0  0  0  0
  195.8230  172.9930  138.1570 C   0  0  0  0  0  2  0  0  0  0  0  0
  195.9270  174.4990  138.3720 C   0  0  0  0  0  2  0  0  0  0  0  0
  196.2410  175.1440  137.1590 O   0  0  0  0  0  0  0  0  0  0  0  0
  194.3640  173.8220  136.4530 O   0  0  0  0  0  0  0  0  0  0  0  0
  195.2030  172.7480  136.7880 C   0  0  0  0  0  2  0  0  0  0  0  0
  195.1920  174.9500  136.2050 C   0  0  0  0  0  3  0  0  0  0  0  0
  195.8450  177.4290  134.5940 C   0  0  0  0  0  1  0  0  0  0  0  0
  195.1000  177.4430  135.8460 N   0  0  0  0  0  2  0  0  0  0  0  0
  190.8700  176.1320  138.8850 C   0  0  0  0  0  2  0  0  0  0  0  0
  190.0090  177.0560  139.7260 C   0  0  0  0  0  2  0  0  0  0  0  0
  191.6240  177.4840  141.4360 O   0  0  0  0  0  1  0  0  0  0  0  0
  190.3700  176.9150  141.1940 C   0  0  1  0  0  3  0  0  0  0  0  0
  188.1550  178.0800  141.2210 C   0  0  0  0  0  1  0  0  0  0  0  0
  189.3000  177.5610  142.0710 C   0  0  1  0  0  3  0  0  0  0  0  0
  188.7800  176.6050  143.1380 C   0  0  0  0  0  2  0  0  0  0  0  0
  186.8270  177.9930  146.9020 O   0  0  0  0  0  0  0  0  0  0  0  0
  187.9270  176.9690  148.6260 O   0  0  0  0  0  0  0  0  0  0  0  0
  189.3380  177.7290  146.8360 C   0  0  2  0  0  3  0  0  0  0  0  0
  187.1750  177.1200  144.8140 O   0  0  0  0  0  0  0  0  0  0  0  0
  186.7680  178.2640  145.5110 C   0  0  1  0  0  3  0  0  0  0  0  0
  189.4840  176.8980  145.5470 C   0  0  1  0  0  3  0  0  0  0  0  0
  190.3650  177.4220  147.7360 O   0  0  0  0  0  1  0  0  0  0  0  0
  188.5080  177.3540  144.4400 C   0  0  1  0  0  3  0  0  0  0  0  0
  188.0010  177.5430  147.5050 C   0  0  0  0  0  0  0  0  0  0  0  0
  190.9200  177.0300  145.0460 C   0  0  0  0  0  1  0  0  0  0  0  0
  185.3390  178.5990  145.1280 C   0  0  0  0  0  1  0  0  0  0  0  0
  1 23  1  1  0  0  0
  2  7  1  0  0  0  0
  4  5  2  0  0  0  0
  5  3  1  0  0  0  0
  6  4  1  0  0  0  0
  6  2  2  0  0  0  0
  7  3  2  0  0  0  0
  7  1  1  0  0  0  0
  8  9  1  0  0  0  0
  8 10  1  0  0  0  0
  9  2  1  1  0  0  0
  9 10  1  0  0  0  0
 12 13  1  0  0  0  0
 12  1  1  0  0  0  0
 13 11  2  0  0  0  0
 14 22  1  1  0  0  0
 14 20  1  0  0  0  0
 14 13  1  0  0  0  0
 15 16  1  0  0  0  0
 17 16  1  0  0  0  0
 18 19  1  0  0  0  0
 19 15  1  0  0  0  0
 20 18  1  0  0  0  0
 20 17  1  0  0  0  0
 21 22  1  0  0  0  0
 23 24  1  0  0  0  0
 24 26  1  0  0  0  0
 26 25  1  6  0  0  0
 26 28  1  0  0  0  0
 28 27  1  6  0  0  0
 28 29  1  0  0  0  0
 30 38  1  0  0  0  0
 32 38  1  0  0  0  0
 32 36  1  1  0  0  0
 33 34  1  0  0  0  0
 34 40  1  6  0  0  0
 34 30  1  0  0  0  0
 35 39  1  6  0  0  0
 35 32  1  0  0  0  0
 37 29  1  6  0  0  0
 37 33  1  0  0  0  0
 37 35  1  0  0  0  0
 38 31  2  0  0  0  0
M  END
>  <MODEL>
9

>  <REMARK>
 VINA RESULT:      -7.4      4.330      7.597
  Name = 
  12 active torsions:
  status: ('A' for Active; 'I' for Inactive)
    1  A    between atoms: C_4  and  C_11
    2  A    between atoms: C_9  and  C_19
    3  A    between atoms: C_9  and  C_34
    4  A    between atoms: C_14  and  C_27
    5  A    between atoms: C_14  and  C_38
    6  A    between atoms: C_20  and  N_33
    7  A    between atoms: C_20  and  C_35
    8  A    between atoms: C_20  and  C_40
    9  A    between atoms: C_23  and  C_34
   10  A    between atoms: C_23  and  C_38
   11  A    between atoms: C_27  and  C_37
   12  A    between atoms: C_27  and  N_39
                            x       y       z     vdW  Elec       q    Type
                         _______ _______ _______ _____ _____    ______ ____

>  <TORSDO>
F 12

$$$$
