=
 OpenBabel11062413283D

 30 34  0  0  1  0  0  0  0  0999 V2000
  190.5110  177.6450  147.2600 N   0  0  0  0  0  2  0  0  0  0  0  0
  188.4460  176.6420  145.4710 N   0  0  0  0  0  2  0  0  0  0  0  0
  191.9050  176.9400  145.5390 O   0  0  0  0  0  0  0  0  0  0  0  0
  189.4080  178.3060  149.1840 O   0  0  0  0  0  0  0  0  0  0  0  0
  190.7920  177.8460  142.8100 C   0  0  0  0  0  1  0  0  0  0  0  0
  190.5410  175.5750  143.4370 O   0  0  0  0  0  1  0  0  0  0  0  0
  187.7700  177.8550  142.6070 C   0  0  2  0  0  3  0  0  0  0  0  0
  189.2990  177.9960  147.9670 C   0  0  0  0  0  0  0  0  0  0  0  0
  189.8750  176.8010  143.4360 C   0  0  1  0  0  0  0  0  0  0  0  0
  187.9320  178.0000  147.3740 C   0  0  0  0  0  0  0  0  0  0  0  0
  188.0580  177.0380  141.4120 N   0  0  2  0  0  0  0  0  0  0  0  0
  189.6230  177.2490  144.8960 C   0  0  2  0  0  3  0  0  0  0  0  0
  187.7040  177.7950  145.9110 C   0  0  2  0  0  3  0  0  0  0  0  0
  186.0660  178.4560  144.3530 C   0  0  1  0  0  3  0  0  0  0  0  0
  186.3000  177.6440  145.5480 N   0  0  0  0  0  2  0  0  0  0  0  0
  186.9430  178.2340  148.1230 O   0  0  0  0  0  0  0  0  0  0  0  0
  188.4680  176.5770  142.7700 C   0  0  2  0  0  3  0  0  0  0  0  0
  186.3300  177.6690  143.0650 C   0  0  0  0  0  2  0  0  0  0  0  0
  190.7380  177.2500  145.8950 C   0  0  0  0  0  0  0  0  0  0  0  0
  189.1060  177.6850  140.6360 C   0  0  2  0  0  3  0  0  0  0  0  0
  188.5080  178.7290  139.7160 C   0  0  0  0  0  2  0  0  0  0  0  0
  188.9380  177.5800  137.5550 C   0  0  2  0  0  3  0  0  0  0  0  0
  189.3530  178.7270  138.4560 C   0  0  2  0  0  3  0  0  0  0  0  0
  190.1480  177.4330  138.4570 C   0  0  1  0  0  3  0  0  0  0  0  0
  189.7660  176.6800  139.7170 C   0  0  0  0  0  2  0  0  0  0  0  0
  189.3620  177.8400  136.2530 O   0  0  0  0  0  0  0  0  0  0  0  0
  189.9340  176.6420  135.8240 C   0  0  0  0  0  1  0  0  0  0  0  0
  184.6620  178.9620  144.3570 C   0  0  0  0  0  0  0  0  0  0  0  0
  183.9610  179.0320  145.5540 O   0  0  0  0  0  1  0  0  0  0  0  0
  184.1120  179.3350  143.2870 O   0  0  0  0  0  0  0  0  0  0  0  0
  1  8  1  0  0  0  0
  3 19  2  0  0  0  0
  7 17  1  0  0  0  0
  7 18  1  1  0  0  0
  8  4  2  0  0  0  0
  9  5  1  6  0  0  0
  9  6  1  0  0  0  0
  9 12  1  0  0  0  0
 10  8  1  0  0  0  0
 10 16  2  0  0  0  0
 11 20  1  6  0  0  0
 11  7  1  0  0  0  0
 11 17  1  0  0  0  0
 12  2  1  1  0  0  0
 12 19  1  0  0  0  0
 13  2  1  1  0  0  0
 13 10  1  0  0  0  0
 14 28  1  6  0  0  0
 14 15  1  0  0  0  0
 15 13  1  0  0  0  0
 17  9  1  0  0  0  0
 18 14  1  0  0  0  0
 19  1  1  0  0  0  0
 21 20  1  0  0  0  0
 22 23  1  0  0  0  0
 22 24  1  0  0  0  0
 23 24  1  0  0  0  0
 23 21  1  0  0  0  0
 24 25  1  0  0  0  0
 25 20  1  0  0  0  0
 26 22  1  0  0  0  0
 27 26  1  0  0  0  0
 28 29  1  0  0  0  0
 30 28  2  0  0  0  0
M  END
>  <MODEL>
1

>  <REMARK>
 VINA RESULT:      -8.3      0.000      0.000
  Name = 
  3 active torsions:
  status: ('A' for Active; 'I' for Inactive)
    1  A    between atoms: C_1  and  N_17
    2  A    between atoms: O_5  and  C_8
    3  A    between atoms: C_6  and  CA_22
                            x       y       z     vdW  Elec       q    Type
                         _______ _______ _______ _____ _____    ______ ____

>  <TORSDO>
F 3

$$$$
=
 OpenBabel11062413283D

 30 34  0  0  1  0  0  0  0  0999 V2000
  189.6770  175.6860  137.2600 N   0  0  0  0  0  2  0  0  0  0  0  0
  188.9350  178.0460  138.7940 N   0  0  0  0  0  2  0  0  0  0  0  0
  191.3750  175.5760  138.8430 O   0  0  0  0  0  0  0  0  0  0  0  0
  188.2060  175.6110  135.4760 O   0  0  0  0  0  0  0  0  0  0  0  0
  190.2450  176.0380  141.6740 C   0  0  0  0  0  1  0  0  0  0  0  0
  191.4330  177.8020  140.6280 O   0  0  0  0  0  1  0  0  0  0  0  0
  187.9560  178.0170  141.8230 C   0  0  2  0  0  3  0  0  0  0  0  0
  188.4520  176.0990  136.6110 C   0  0  0  0  0  0  0  0  0  0  0  0
  190.1430  177.3160  140.8470 C   0  0  1  0  0  0  0  0  0  0  0  0
  187.4710  177.0720  137.1700 C   0  0  0  0  0  0  0  0  0  0  0  0
  188.8270  178.6250  142.8480 N   0  0  2  0  0  0  0  0  0  0  0  0
  189.5080  176.9200  139.4930 C   0  0  2  0  0  3  0  0  0  0  0  0
  187.5860  177.5970  138.5660 C   0  0  2  0  0  3  0  0  0  0  0  0
  186.0840  178.4020  140.1910 C   0  0  1  0  0  3  0  0  0  0  0  0
  186.6520  178.6740  138.8700 N   0  0  0  0  0  2  0  0  0  0  0  0
  186.4870  177.4210  136.4610 O   0  0  0  0  0  0  0  0  0  0  0  0
  189.2860  178.4960  141.4350 C   0  0  2  0  0  3  0  0  0  0  0  0
  186.9270  179.0170  141.3130 C   0  0  0  0  0  2  0  0  0  0  0  0
  190.2490  176.0440  138.5310 C   0  0  0  0  0  0  0  0  0  0  0  0
  189.2970  177.5830  143.7500 C   0  0  2  0  0  3  0  0  0  0  0  0
  188.1900  177.1720  144.6980 C   0  0  0  0  0  2  0  0  0  0  0  0
  189.1610  178.0930  146.7920 C   0  0  2  0  0  3  0  0  0  0  0  0
  188.8580  176.8260  146.0160 C   0  0  2  0  0  3  0  0  0  0  0  0
  190.2530  177.4260  145.9770 C   0  0  1  0  0  3  0  0  0  0  0  0
  190.3970  178.1230  144.6370 C   0  0  0  0  0  2  0  0  0  0  0  0
  189.3350  177.7790  148.1390 O   0  0  0  0  0  0  0  0  0  0  0  0
  188.0600  177.8910  148.6930 C   0  0  0  0  0  1  0  0  0  0  0  0
  184.6900  178.9310  140.2580 C   0  0  0  0  0  0  0  0  0  0  0  0
  184.3200  179.9930  139.4430 O   0  0  0  0  0  0  0  0  0  0  0  0
  183.8470  178.4160  141.0380 O   0  0  0  0  0  1  0  0  0  0  0  0
  1 19  1  0  0  0  0
  2 12  1  0  0  0  0
  4  8  2  0  0  0  0
  6  9  1  0  0  0  0
  7 18  1  6  0  0  0
  7 11  1  0  0  0  0
  8 10  1  0  0  0  0
  8  1  1  0  0  0  0
  9 17  1  0  0  0  0
  9  5  1  1  0  0  0
 11 20  1  1  0  0  0
 12 19  1  6  0  0  0
 12  9  1  0  0  0  0
 13 10  1  6  0  0  0
 13  2  1  0  0  0  0
 13 15  1  0  0  0  0
 14 28  1  6  0  0  0
 14 18  1  0  0  0  0
 15 14  1  0  0  0  0
 16 10  2  0  0  0  0
 17  7  1  0  0  0  0
 17 11  1  0  0  0  0
 19  3  2  0  0  0  0
 20 25  1  0  0  0  0
 20 21  1  0  0  0  0
 21 23  1  0  0  0  0
 22 26  1  0  0  0  0
 23 22  1  0  0  0  0
 24 23  1  0  0  0  0
 24 22  1  0  0  0  0
 25 24  1  0  0  0  0
 26 27  1  0  0  0  0
 28 30  1  0  0  0  0
 29 28  2  0  0  0  0
M  END
>  <MODEL>
2

>  <REMARK>
 VINA RESULT:      -8.2      2.442      7.429
  Name = 
  3 active torsions:
  status: ('A' for Active; 'I' for Inactive)
    1  A    between atoms: C_1  and  N_17
    2  A    between atoms: O_5  and  C_8
    3  A    between atoms: C_6  and  CA_22
                            x       y       z     vdW  Elec       q    Type
                         _______ _______ _______ _____ _____    ______ ____

>  <TORSDO>
F 3

$$$$
=
 OpenBabel11062413283D

 30 34  0  0  1  0  0  0  0  0999 V2000
  185.5470  177.2300  136.4220 N   0  0  0  0  0  2  0  0  0  0  0  0
  186.0080  178.9540  138.7210 N   0  0  0  0  0  2  0  0  0  0  0  0
  187.8700  177.1630  136.4010 O   0  0  0  0  0  0  0  0  0  0  0  0
  183.2560  177.2180  136.0970 O   0  0  0  0  0  0  0  0  0  0  0  0
  188.9630  176.7110  139.2480 C   0  0  0  0  0  1  0  0  0  0  0  0
  189.0900  178.8880  138.3200 O   0  0  0  0  0  1  0  0  0  0  0  0
  187.3550  178.0280  141.4520 C   0  0  2  0  0  3  0  0  0  0  0  0
  184.2010  177.4850  136.8860 C   0  0  0  0  0  0  0  0  0  0  0  0
  188.3030  178.0830  139.1450 C   0  0  1  0  0  0  0  0  0  0  0  0
  183.8470  178.0560  138.2170 C   0  0  0  0  0  0  0  0  0  0  0  0
  188.6800  178.5750  141.8030 N   0  0  2  0  0  0  0  0  0  0  0  0
  186.9230  177.8630  138.4820 C   0  0  2  0  0  3  0  0  0  0  0  0
  184.8730  178.2700  139.2840 C   0  0  2  0  0  3  0  0  0  0  0  0
  184.8670  178.3250  141.6380 C   0  0  1  0  0  3  0  0  0  0  0  0
  184.3770  179.0070  140.4390 N   0  0  0  0  0  2  0  0  0  0  0  0
  182.6380  178.3190  138.4660 O   0  0  0  0  0  0  0  0  0  0  0  0
  188.0560  178.8730  140.4820 C   0  0  2  0  0  3  0  0  0  0  0  0
  186.2370  178.8520  142.0770 C   0  0  0  0  0  2  0  0  0  0  0  0
  186.8250  177.4170  137.0550 C   0  0  0  0  0  0  0  0  0  0  0  0
  189.6560  177.4950  141.7980 C   0  0  2  0  0  3  0  0  0  0  0  0
  189.2360  176.4040  142.7600 C   0  0  0  0  0  2  0  0  0  0  0  0
  191.0210  176.7270  144.4590 C   0  0  2  0  0  3  0  0  0  0  0  0
  190.5140  175.8300  143.3460 C   0  0  2  0  0  3  0  0  0  0  0  0
  191.6180  176.8350  143.0690 C   0  0  1  0  0  3  0  0  0  0  0  0
  190.9840  177.9950  142.3220 C   0  0  0  0  0  2  0  0  0  0  0  0
  191.8870  176.0020  145.2760 O   0  0  0  0  0  0  0  0  0  0  0  0
  191.6400  176.4820  146.5620 C   0  0  0  0  0  1  0  0  0  0  0  0
  183.8830  178.4920  142.7480 C   0  0  0  0  0  0  0  0  0  0  0  0
  182.5530  178.7600  142.4510 O   0  0  0  0  0  0  0  0  0  0  0  0
  184.2470  178.3810  143.9480 O   0  0  0  0  0  1  0  0  0  0  0  0
  1  8  1  0  0  0  0
  1 19  1  0  0  0  0
  2 13  1  0  0  0  0
  3 19  2  0  0  0  0
  4  8  2  0  0  0  0
  6  9  1  0  0  0  0
  7 11  1  0  0  0  0
  7 18  1  1  0  0  0
  8 10  1  0  0  0  0
  9  5  1  1  0  0  0
  9 17  1  0  0  0  0
 10 16  2  0  0  0  0
 11 20  1  6  0  0  0
 12 19  1  6  0  0  0
 12  2  1  0  0  0  0
 12  9  1  0  0  0  0
 13 10  1  6  0  0  0
 13 15  1  0  0  0  0
 14 18  1  0  0  0  0
 14 28  1  1  0  0  0
 15 14  1  0  0  0  0
 17  7  1  0  0  0  0
 17 11  1  0  0  0  0
 20 25  1  0  0  0  0
 20 21  1  0  0  0  0
 21 23  1  0  0  0  0
 22 26  1  0  0  0  0
 23 22  1  0  0  0  0
 24 23  1  0  0  0  0
 24 22  1  0  0  0  0
 25 24  1  0  0  0  0
 26 27  1  0  0  0  0
 28 30  1  0  0  0  0
 29 28  2  0  0  0  0
M  END
>  <MODEL>
3

>  <REMARK>
 VINA RESULT:      -7.8      2.832      7.223
  Name = 
  3 active torsions:
  status: ('A' for Active; 'I' for Inactive)
    1  A    between atoms: C_1  and  N_17
    2  A    between atoms: O_5  and  C_8
    3  A    between atoms: C_6  and  CA_22
                            x       y       z     vdW  Elec       q    Type
                         _______ _______ _______ _____ _____    ______ ____

>  <TORSDO>
F 3

$$$$
=
 OpenBabel11062413283D

 30 34  0  0  1  0  0  0  0  0999 V2000
  185.1120  178.7340  140.2660 N   0  0  0  0  0  2  0  0  0  0  0  0
  187.9640  178.9950  140.7830 N   0  0  0  0  0  2  0  0  0  0  0  0
  185.8240  178.8200  138.0550 O   0  0  0  0  0  0  0  0  0  0  0  0
  184.0930  178.7670  142.3430 O   0  0  0  0  0  0  0  0  0  0  0  0
  188.2670  176.9880  137.6340 C   0  0  0  0  0  1  0  0  0  0  0  0
  188.6170  179.3280  137.7620 O   0  0  0  0  0  1  0  0  0  0  0  0
  190.1660  176.8380  139.9900 C   0  0  2  0  0  3  0  0  0  0  0  0
  185.1710  178.6260  141.7070 C   0  0  0  0  0  0  0  0  0  0  0  0
  188.6350  178.1640  138.5330 C   0  0  1  0  0  0  0  0  0  0  0  0
  186.4110  178.3820  142.4980 C   0  0  0  0  0  0  0  0  0  0  0  0
  191.1510  177.1890  138.9480 N   0  0  2  0  0  0  0  0  0  0  0  0
  187.5390  178.2520  139.6210 C   0  0  2  0  0  3  0  0  0  0  0  0
  187.7150  178.0540  141.8440 C   0  0  2  0  0  3  0  0  0  0  0  0
  189.6470  176.8490  142.4480 C   0  0  1  0  0  3  0  0  0  0  0  0
  188.8480  178.0350  142.7610 N   0  0  0  0  0  2  0  0  0  0  0  0
  186.3440  178.4030  143.7590 O   0  0  0  0  0  0  0  0  0  0  0  0
  190.0220  178.1080  139.2730 C   0  0  2  0  0  3  0  0  0  0  0  0
  190.7070  177.1400  141.3810 C   0  0  0  0  0  2  0  0  0  0  0  0
  186.1350  178.6280  139.2590 C   0  0  0  0  0  0  0  0  0  0  0  0
  190.9400  176.3350  137.7890 C   0  0  2  0  0  3  0  0  0  0  0  0
  190.9070  174.8800  138.2080 C   0  0  0  0  0  2  0  0  0  0  0  0
  193.0410  174.1620  137.1550 C   0  0  2  0  0  3  0  0  0  0  0  0
  191.5280  174.0890  137.0710 C   0  0  2  0  0  3  0  0  0  0  0  0
  192.2910  175.0790  136.2080 C   0  0  1  0  0  3  0  0  0  0  0  0
  192.1150  176.4470  136.8420 C   0  0  0  0  0  2  0  0  0  0  0  0
  193.5940  173.1070  136.4330 O   0  0  0  0  0  0  0  0  0  0  0  0
  192.5170  172.5510  135.7420 C   0  0  0  0  0  1  0  0  0  0  0  0
  190.3040  176.3450  143.6900 C   0  0  0  0  0  0  0  0  0  0  0  0
  191.3410  175.4270  143.5920 O   0  0  0  0  0  0  0  0  0  0  0  0
  189.9330  176.7540  144.8220 O   0  0  0  0  0  1  0  0  0  0  0  0
  1  8  1  0  0  0  0
  3 19  2  0  0  0  0
  6  9  1  0  0  0  0
  7 18  1  1  0  0  0
  8  4  2  0  0  0  0
  8 10  1  0  0  0  0
  9  5  1  6  0  0  0
  9 17  1  0  0  0  0
  9 12  1  0  0  0  0
 10 16  2  0  0  0  0
 11 20  1  6  0  0  0
 11 17  1  0  0  0  0
 11  7  1  0  0  0  0
 12 19  1  6  0  0  0
 12  2  1  0  0  0  0
 13  2  1  6  0  0  0
 13 10  1  0  0  0  0
 13 15  1  0  0  0  0
 14 15  1  0  0  0  0
 14 28  1  1  0  0  0
 17  7  1  0  0  0  0
 18 14  1  0  0  0  0
 19  1  1  0  0  0  0
 20 21  1  0  0  0  0
 23 22  1  0  0  0  0
 23 21  1  0  0  0  0
 24 25  1  0  0  0  0
 24 23  1  0  0  0  0
 24 22  1  0  0  0  0
 25 20  1  0  0  0  0
 26 22  1  0  0  0  0
 27 26  1  0  0  0  0
 28 30  1  0  0  0  0
 29 28  2  0  0  0  0
M  END
>  <MODEL>
4

>  <REMARK>
 VINA RESULT:      -7.3      2.622      5.917
  Name = 
  3 active torsions:
  status: ('A' for Active; 'I' for Inactive)
    1  A    between atoms: C_1  and  N_17
    2  A    between atoms: O_5  and  C_8
    3  A    between atoms: C_6  and  CA_22
                            x       y       z     vdW  Elec       q    Type
                         _______ _______ _______ _____ _____    ______ ____

>  <TORSDO>
F 3

$$$$
=
 OpenBabel11062413283D

 30 34  0  0  1  0  0  0  0  0999 V2000
  186.1990  177.7220  146.8580 N   0  0  0  0  0  2  0  0  0  0  0  0
  187.1060  179.0030  144.4080 N   0  0  0  0  0  2  0  0  0  0  0  0
  184.1810  178.7030  146.2530 O   0  0  0  0  0  0  0  0  0  0  0  0
  188.0800  176.7510  147.7920 O   0  0  0  0  0  0  0  0  0  0  0  0
  183.6200  178.2580  143.2540 C   0  0  0  0  0  1  0  0  0  0  0  0
  184.3620  180.3940  143.9620 O   0  0  0  0  0  1  0  0  0  0  0  0
  186.0780  178.2780  141.4840 C   0  0  2  0  0  3  0  0  0  0  0  0
  187.5650  177.2570  146.7600 C   0  0  0  0  0  0  0  0  0  0  0  0
  184.8190  179.1840  143.4380 C   0  0  1  0  0  0  0  0  0  0  0  0
  188.4160  177.3490  145.5390 C   0  0  0  0  0  0  0  0  0  0  0  0
  185.2820  179.2820  140.7500 N   0  0  2  0  0  0  0  0  0  0  0  0
  185.7540  178.5010  144.4640 C   0  0  2  0  0  3  0  0  0  0  0  0
  187.8640  177.7920  144.2220 C   0  0  2  0  0  3  0  0  0  0  0  0
  188.3820  177.3950  141.9590 C   0  0  1  0  0  3  0  0  0  0  0  0
  188.8780  177.9990  143.1960 N   0  0  0  0  0  2  0  0  0  0  0  0
  189.6250  176.9930  145.6100 O   0  0  0  0  0  0  0  0  0  0  0  0
  185.6850  179.5130  142.1670 C   0  0  2  0  0  3  0  0  0  0  0  0
  187.5560  178.3840  141.1310 C   0  0  0  0  0  2  0  0  0  0  0  0
  185.3290  178.3360  145.8900 C   0  0  0  0  0  0  0  0  0  0  0  0
  183.9310  178.7730  140.5640 C   0  0  2  0  0  3  0  0  0  0  0  0
  183.9640  177.4610  139.8080 C   0  0  0  0  0  2  0  0  0  0  0  0
  182.9330  178.2510  137.6900 C   0  0  2  0  0  3  0  0  0  0  0  0
  182.7160  177.4300  138.9460 C   0  0  2  0  0  3  0  0  0  0  0  0
  182.1940  178.8540  138.8690 C   0  0  1  0  0  3  0  0  0  0  0  0
  183.1390  179.7160  139.6860 C   0  0  0  0  0  2  0  0  0  0  0  0
  182.0110  177.8620  136.7190 O   0  0  0  0  0  0  0  0  0  0  0  0
  181.1620  178.9590  136.5800 C   0  0  0  0  0  1  0  0  0  0  0  0
  189.5310  176.8930  141.1490 C   0  0  0  0  0  0  0  0  0  0  0  0
  190.4340  176.0050  141.7170 O   0  0  0  0  0  1  0  0  0  0  0  0
  189.6800  177.2610  139.9540 O   0  0  0  0  0  0  0  0  0  0  0  0
  7 18  1  6  0  0  0
  7 17  1  0  0  0  0
  8  1  1  0  0  0  0
  8  4  2  0  0  0  0
  9  5  1  6  0  0  0
  9  6  1  0  0  0  0
  9 12  1  0  0  0  0
 10 16  2  0  0  0  0
 10  8  1  0  0  0  0
 11 20  1  1  0  0  0
 11  7  1  0  0  0  0
 11 17  1  0  0  0  0
 12  2  1  1  0  0  0
 12 19  1  0  0  0  0
 13 15  1  6  0  0  0
 13  2  1  0  0  0  0
 13 10  1  0  0  0  0
 14 28  1  6  0  0  0
 14 15  1  0  0  0  0
 17  9  1  0  0  0  0
 18 14  1  0  0  0  0
 19  3  2  0  0  0  0
 19  1  1  0  0  0  0
 21 20  1  0  0  0  0
 22 24  1  0  0  0  0
 22 23  1  0  0  0  0
 23 21  1  0  0  0  0
 24 23  1  0  0  0  0
 24 25  1  0  0  0  0
 25 20  1  0  0  0  0
 26 22  1  0  0  0  0
 27 26  1  0  0  0  0
 28 29  1  0  0  0  0
 30 28  2  0  0  0  0
M  END
>  <MODEL>
5

>  <REMARK>
 VINA RESULT:      -6.9      3.387      5.535
  Name = 
  3 active torsions:
  status: ('A' for Active; 'I' for Inactive)
    1  A    between atoms: C_1  and  N_17
    2  A    between atoms: O_5  and  C_8
    3  A    between atoms: C_6  and  CA_22
                            x       y       z     vdW  Elec       q    Type
                         _______ _______ _______ _____ _____    ______ ____

>  <TORSDO>
F 3

$$$$
=
 OpenBabel11062413283D

 30 34  0  0  1  0  0  0  0  0999 V2000
  188.8320  176.7540  138.2730 N   0  0  0  0  0  2  0  0  0  0  0  0
  188.4020  178.6490  140.4390 N   0  0  0  0  0  2  0  0  0  0  0  0
  190.8040  176.3530  139.4360 O   0  0  0  0  0  0  0  0  0  0  0  0
  187.0430  177.0340  136.8320 O   0  0  0  0  0  0  0  0  0  0  0  0
  190.2430  176.0830  142.4550 C   0  0  0  0  0  1  0  0  0  0  0  0
  191.2080  178.0950  141.6590 O   0  0  0  0  0  1  0  0  0  0  0  0
  188.0270  177.8640  143.5010 C   0  0  2  0  0  3  0  0  0  0  0  0
  187.5050  177.2520  137.9840 C   0  0  0  0  0  0  0  0  0  0  0  0
  189.9840  177.5130  141.9930 C   0  0  1  0  0  0  0  0  0  0  0  0
  186.6510  178.0190  138.9340 C   0  0  0  0  0  0  0  0  0  0  0  0
  189.0800  178.2520  144.4610 N   0  0  2  0  0  0  0  0  0  0  0  0
  189.0990  177.4180  140.7280 C   0  0  2  0  0  3  0  0  0  0  0  0
  187.0340  178.2060  140.3680 C   0  0  2  0  0  3  0  0  0  0  0  0
  185.8750  178.5360  142.3910 C   0  0  1  0  0  3  0  0  0  0  0  0
  186.1770  179.1370  141.0910 N   0  0  0  0  0  2  0  0  0  0  0  0
  185.5480  178.4800  138.5280 O   0  0  0  0  0  0  0  0  0  0  0  0
  189.2570  178.4810  142.9980 C   0  0  2  0  0  3  0  0  0  0  0  0
  186.9190  178.9080  143.4490 C   0  0  0  0  0  2  0  0  0  0  0  0
  189.6390  176.8290  139.4620 C   0  0  0  0  0  0  0  0  0  0  0  0
  189.7140  177.0500  144.9810 C   0  0  2  0  0  3  0  0  0  0  0  0
  189.2660  176.7940  146.4050 C   0  0  0  0  0  2  0  0  0  0  0  0
  191.4210  177.2750  147.5440 C   0  0  2  0  0  3  0  0  0  0  0  0
  190.4530  176.1850  147.1270 C   0  0  2  0  0  3  0  0  0  0  0  0
  191.6820  176.4730  146.2830 C   0  0  1  0  0  3  0  0  0  0  0  0
  191.2110  177.2510  145.0680 C   0  0  0  0  0  2  0  0  0  0  0  0
  192.2370  176.7990  148.5690 O   0  0  0  0  0  0  0  0  0  0  0  0
  192.7900  175.6230  148.0610 C   0  0  0  0  0  1  0  0  0  0  0  0
  184.5210  178.9700  142.8430 C   0  0  0  0  0  0  0  0  0  0  0  0
  183.4090  178.6640  142.0700 O   0  0  0  0  0  0  0  0  0  0  0  0
  184.3790  179.6010  143.9240 O   0  0  0  0  0  1  0  0  0  0  0  0
  1 19  1  0  0  0  0
  2 12  1  0  0  0  0
  3 19  2  0  0  0  0
  4  8  2  0  0  0  0
  6  9  1  0  0  0  0
  7 18  1  1  0  0  0
  7 11  1  0  0  0  0
  8  1  1  0  0  0  0
  8 10  1  0  0  0  0
  9  5  1  1  0  0  0
  9 17  1  0  0  0  0
 11 20  1  6  0  0  0
 12 19  1  6  0  0  0
 12  9  1  0  0  0  0
 13 10  1  6  0  0  0
 13  2  1  0  0  0  0
 13 15  1  0  0  0  0
 14 28  1  1  0  0  0
 14 18  1  0  0  0  0
 15 14  1  0  0  0  0
 16 10  2  0  0  0  0
 17  7  1  0  0  0  0
 17 11  1  0  0  0  0
 20 25  1  0  0  0  0
 20 21  1  0  0  0  0
 21 23  1  0  0  0  0
 22 26  1  0  0  0  0
 23 22  1  0  0  0  0
 24 23  1  0  0  0  0
 24 22  1  0  0  0  0
 25 24  1  0  0  0  0
 27 26  1  0  0  0  0
 28 30  1  0  0  0  0
 29 28  2  0  0  0  0
M  END
>  <MODEL>
6

>  <REMARK>
 VINA RESULT:      -6.9      2.164      6.890
  Name = 
  3 active torsions:
  status: ('A' for Active; 'I' for Inactive)
    1  A    between atoms: C_1  and  N_17
    2  A    between atoms: O_5  and  C_8
    3  A    between atoms: C_6  and  CA_22
                            x       y       z     vdW  Elec       q    Type
                         _______ _______ _______ _____ _____    ______ ____

>  <TORSDO>
F 3

$$$$
=
 OpenBabel11062413283D

 30 34  0  0  1  0  0  0  0  0999 V2000
  189.2020  176.8300  147.4600 N   0  0  0  0  0  2  0  0  0  0  0  0
  188.7800  178.5070  145.1200 N   0  0  0  0  0  2  0  0  0  0  0  0
  187.0940  177.6320  148.0260 O   0  0  0  0  0  0  0  0  0  0  0  0
  191.3440  175.9820  147.2460 O   0  0  0  0  0  0  0  0  0  0  0  0
  185.2020  177.5030  145.5950 C   0  0  0  0  0  1  0  0  0  0  0  0
  186.0910  179.6060  146.2270 O   0  0  0  0  0  1  0  0  0  0  0  0
  186.5240  178.0380  142.9240 C   0  0  2  0  0  3  0  0  0  0  0  0
  190.3780  176.5480  146.6680 C   0  0  0  0  0  0  0  0  0  0  0  0
  186.3000  178.5340  145.3590 C   0  0  1  0  0  0  0  0  0  0  0  0
  190.5440  176.8930  145.2270 C   0  0  0  0  0  0  0  0  0  0  0  0
  185.4300  179.0230  142.8180 N   0  0  2  0  0  0  0  0  0  0  0  0
  187.6400  177.8450  145.7080 C   0  0  2  0  0  3  0  0  0  0  0  0
  189.4140  177.4290  144.4070 C   0  0  2  0  0  3  0  0  0  0  0  0
  188.8160  177.3830  142.1290 C   0  0  1  0  0  3  0  0  0  0  0  0
  189.8110  177.8830  143.0800 N   0  0  0  0  0  2  0  0  0  0  0  0
  191.6570  176.6780  144.6730 O   0  0  0  0  0  0  0  0  0  0  0  0
  186.4450  179.1220  143.9060 C   0  0  2  0  0  3  0  0  0  0  0  0
  187.6520  178.3630  141.9530 C   0  0  0  0  0  2  0  0  0  0  0  0
  187.9500  177.4530  147.1200 C   0  0  0  0  0  0  0  0  0  0  0  0
  184.1780  178.3840  143.1940 C   0  0  2  0  0  3  0  0  0  0  0  0
  183.4640  177.8660  141.9630 C   0  0  0  0  0  2  0  0  0  0  0  0
  181.5510  179.4530  141.9720 C   0  0  2  0  0  3  0  0  0  0  0  0
  181.9780  178.0210  142.2300 C   0  0  2  0  0  3  0  0  0  0  0  0
  181.8340  178.9920  143.3890 C   0  0  1  0  0  3  0  0  0  0  0  0
  183.2370  179.4040  143.7970 C   0  0  0  0  0  2  0  0  0  0  0  0
  180.1730  179.4940  141.7670 O   0  0  0  0  0  0  0  0  0  0  0  0
  179.6800  180.2320  142.8430 C   0  0  0  0  0  1  0  0  0  0  0  0
  189.4660  177.1280  140.8100 C   0  0  0  0  0  0  0  0  0  0  0  0
  188.9130  177.6670  139.6570 O   0  0  0  0  0  0  0  0  0  0  0  0
  190.5170  176.4370  140.7370 O   0  0  0  0  0  1  0  0  0  0  0  0
  7 18  1  6  0  0  0
  7 17  1  0  0  0  0
  8  4  2  0  0  0  0
  8  1  1  0  0  0  0
  9  5  1  1  0  0  0
  9 12  1  0  0  0  0
  9  6  1  0  0  0  0
 10  8  1  0  0  0  0
 11  7  1  0  0  0  0
 11 20  1  1  0  0  0
 11 17  1  0  0  0  0
 12  2  1  1  0  0  0
 12 19  1  0  0  0  0
 13 15  1  6  0  0  0
 13  2  1  0  0  0  0
 13 10  1  0  0  0  0
 14 28  1  6  0  0  0
 14 15  1  0  0  0  0
 16 10  2  0  0  0  0
 17  9  1  0  0  0  0
 18 14  1  0  0  0  0
 19  1  1  0  0  0  0
 19  3  2  0  0  0  0
 20 25  1  0  0  0  0
 21 23  1  0  0  0  0
 21 20  1  0  0  0  0
 22 23  1  0  0  0  0
 22 24  1  0  0  0  0
 23 24  1  0  0  0  0
 24 25  1  0  0  0  0
 26 22  1  0  0  0  0
 26 27  1  0  0  0  0
 29 28  2  0  0  0  0
 30 28  1  0  0  0  0
M  END
>  <MODEL>
7

>  <REMARK>
 VINA RESULT:      -6.7      2.310      6.055
  Name = 
  3 active torsions:
  status: ('A' for Active; 'I' for Inactive)
    1  A    between atoms: C_1  and  N_17
    2  A    between atoms: O_5  and  C_8
    3  A    between atoms: C_6  and  CA_22
                            x       y       z     vdW  Elec       q    Type
                         _______ _______ _______ _____ _____    ______ ____

>  <TORSDO>
F 3

$$$$
=
 OpenBabel11062413283D

 30 34  0  0  1  0  0  0  0  0999 V2000
  183.1380  178.1180  139.2430 N   0  0  0  0  0  2  0  0  0  0  0  0
  185.7050  179.1550  140.1400 N   0  0  0  0  0  2  0  0  0  0  0  0
  184.2600  177.9740  137.2130 O   0  0  0  0  0  0  0  0  0  0  0  0
  181.7250  178.2770  141.0690 O   0  0  0  0  0  0  0  0  0  0  0  0
  187.0600  176.7460  137.6110 C   0  0  0  0  0  1  0  0  0  0  0  0
  186.8880  179.0840  137.2670 O   0  0  0  0  0  1  0  0  0  0  0  0
  188.4170  177.4910  140.2140 C   0  0  2  0  0  3  0  0  0  0  0  0
  182.9180  178.2900  140.6620 C   0  0  0  0  0  0  0  0  0  0  0  0
  186.9840  178.1190  138.2710 C   0  0  1  0  0  0  0  0  0  0  0  0
  183.9890  178.5030  141.6770 C   0  0  0  0  0  0  0  0  0  0  0  0
  189.5040  177.8770  139.2920 N   0  0  2  0  0  0  0  0  0  0  0  0
  185.6920  178.1330  139.1210 C   0  0  2  0  0  3  0  0  0  0  0  0
  185.4400  178.3890  141.3310 C   0  0  2  0  0  3  0  0  0  0  0  0
  187.4080  177.8210  142.4920 C   0  0  1  0  0  3  0  0  0  0  0  0
  186.3360  178.8130  142.3990 N   0  0  0  0  0  2  0  0  0  0  0  0
  183.6590  178.7340  142.8730 O   0  0  0  0  0  0  0  0  0  0  0  0
  188.1680  178.5360  139.2180 C   0  0  2  0  0  3  0  0  0  0  0  0
  188.5850  178.1620  141.5710 C   0  0  0  0  0  2  0  0  0  0  0  0
  184.3470  178.0840  138.4640 C   0  0  0  0  0  0  0  0  0  0  0  0
  189.7180  176.8020  138.3350 C   0  0  2  0  0  3  0  0  0  0  0  0
  190.6830  175.7810  138.9000 C   0  0  0  0  0  2  0  0  0  0  0  0
  192.5980  176.2280  137.3810 C   0  0  2  0  0  3  0  0  0  0  0  0
  191.4890  175.2540  137.7270 C   0  0  2  0  0  3  0  0  0  0  0  0
  191.3070  176.2390  136.5860 C   0  0  1  0  0  3  0  0  0  0  0  0
  190.3960  177.3410  137.0940 C   0  0  0  0  0  2  0  0  0  0  0  0
  193.5830  175.5650  136.6510 O   0  0  0  0  0  0  0  0  0  0  0  0
  193.9310  174.4710  137.4430 C   0  0  0  0  0  1  0  0  0  0  0  0
  187.8830  177.7240  143.9030 C   0  0  0  0  0  0  0  0  0  0  0  0
  189.1820  177.3100  144.1640 O   0  0  0  0  0  0  0  0  0  0  0  0
  187.1180  178.0260  144.8570 O   0  0  0  0  0  1  0  0  0  0  0  0
  1  8  1  0  0  0  0
  3 19  2  0  0  0  0
  6  9  1  0  0  0  0
  7 18  1  1  0  0  0
  8  4  2  0  0  0  0
  8 10  1  0  0  0  0
  9  5  1  6  0  0  0
  9 12  1  0  0  0  0
  9 17  1  0  0  0  0
 10 16  2  0  0  0  0
 11 20  1  6  0  0  0
 11  7  1  0  0  0  0
 12 19  1  6  0  0  0
 12  2  1  0  0  0  0
 13  2  1  6  0  0  0
 13 10  1  0  0  0  0
 13 15  1  0  0  0  0
 14 28  1  1  0  0  0
 15 14  1  0  0  0  0
 17 11  1  0  0  0  0
 17  7  1  0  0  0  0
 18 14  1  0  0  0  0
 19  1  1  0  0  0  0
 20 21  1  0  0  0  0
 22 23  1  0  0  0  0
 23 21  1  0  0  0  0
 24 25  1  0  0  0  0
 24 22  1  0  0  0  0
 24 23  1  0  0  0  0
 25 20  1  0  0  0  0
 26 22  1  0  0  0  0
 26 27  1  0  0  0  0
 28 29  2  0  0  0  0
 28 30  1  0  0  0  0
M  END
>  <MODEL>
8

>  <REMARK>
 VINA RESULT:      -6.6      2.946      6.156
  Name = 
  3 active torsions:
  status: ('A' for Active; 'I' for Inactive)
    1  A    between atoms: C_1  and  N_17
    2  A    between atoms: O_5  and  C_8
    3  A    between atoms: C_6  and  CA_22
                            x       y       z     vdW  Elec       q    Type
                         _______ _______ _______ _____ _____    ______ ____

>  <TORSDO>
F 3

$$$$
=
 OpenBabel11062413283D

 30 34  0  0  1  0  0  0  0  0999 V2000
  184.8030  178.0540  138.2830 N   0  0  0  0  0  2  0  0  0  0  0  0
  187.6420  178.6640  138.4800 N   0  0  0  0  0  2  0  0  0  0  0  0
  185.4200  177.3670  136.1490 O   0  0  0  0  0  0  0  0  0  0  0  0
  183.8660  178.7830  140.2690 O   0  0  0  0  0  0  0  0  0  0  0  0
  187.9870  175.6630  136.2620 C   0  0  0  0  0  1  0  0  0  0  0  0
  188.1480  177.9040  135.5080 O   0  0  0  0  0  1  0  0  0  0  0  0
  189.9810  176.5060  138.3810 C   0  0  2  0  0  3  0  0  0  0  0  0
  184.9270  178.4870  139.6570 C   0  0  0  0  0  0  0  0  0  0  0  0
  188.2910  177.1080  136.6460 C   0  0  1  0  0  0  0  0  0  0  0  0
  186.2130  178.6270  140.3990 C   0  0  0  0  0  0  0  0  0  0  0  0
  190.8930  176.5110  137.2200 N   0  0  2  0  0  0  0  0  0  0  0  0
  187.2350  177.5210  137.6970 C   0  0  2  0  0  3  0  0  0  0  0  0
  187.5130  178.1630  139.8240 C   0  0  2  0  0  3  0  0  0  0  0  0
  189.5580  177.3870  140.6960 C   0  0  1  0  0  3  0  0  0  0  0  0
  188.6770  178.5530  140.6090 N   0  0  0  0  0  2  0  0  0  0  0  0
  186.1930  179.1050  141.5670 O   0  0  0  0  0  0  0  0  0  0  0  0
  189.7060  177.4130  137.2630 C   0  0  2  0  0  3  0  0  0  0  0  0
  190.5490  177.3310  139.5280 C   0  0  0  0  0  2  0  0  0  0  0  0
  185.7920  177.6500  137.3180 C   0  0  0  0  0  0  0  0  0  0  0  0
  190.7080  175.2800  136.4660 C   0  0  2  0  0  3  0  0  0  0  0  0
  191.2070  174.0950  137.2670 C   0  0  0  0  0  2  0  0  0  0  0  0
  193.1810  173.5310  135.8670 C   0  0  2  0  0  3  0  0  0  0  0  0
  191.7800  173.1090  136.2660 C   0  0  2  0  0  3  0  0  0  0  0  0
  192.0060  173.8710  134.9720 C   0  0  1  0  0  3  0  0  0  0  0  0
  191.5640  175.3020  135.2190 C   0  0  0  0  0  2  0  0  0  0  0  0
  193.8610  172.4350  135.3390 O   0  0  0  0  0  0  0  0  0  0  0  0
  194.0620  171.5880  136.4290 C   0  0  0  0  0  1  0  0  0  0  0  0
  190.3020  177.4150  141.9890 C   0  0  0  0  0  0  0  0  0  0  0  0
  189.6110  177.2480  143.1820 O   0  0  0  0  0  1  0  0  0  0  0  0
  191.5510  177.5780  142.0060 O   0  0  0  0  0  0  0  0  0  0  0  0
  1  8  1  0  0  0  0
  3 19  2  0  0  0  0
  6  9  1  0  0  0  0
  7 18  1  1  0  0  0
  8  4  2  0  0  0  0
  8 10  1  0  0  0  0
  9  5  1  6  0  0  0
  9 17  1  0  0  0  0
  9 12  1  0  0  0  0
 10 16  2  0  0  0  0
 11 20  1  6  0  0  0
 11 17  1  0  0  0  0
 11  7  1  0  0  0  0
 12 19  1  6  0  0  0
 12  2  1  0  0  0  0
 13  2  1  6  0  0  0
 13 10  1  0  0  0  0
 13 15  1  0  0  0  0
 14 28  1  1  0  0  0
 15 14  1  0  0  0  0
 17  7  1  0  0  0  0
 18 14  1  0  0  0  0
 19  1  1  0  0  0  0
 20 21  1  0  0  0  0
 22 23  1  0  0  0  0
 23 21  1  0  0  0  0
 24 25  1  0  0  0  0
 24 22  1  0  0  0  0
 24 23  1  0  0  0  0
 25 20  1  0  0  0  0
 26 22  1  0  0  0  0
 26 27  1  0  0  0  0
 28 30  2  0  0  0  0
 28 29  1  0  0  0  0
M  END
>  <MODEL>
9

>  <REMARK>
 VINA RESULT:      -6.6      3.701      7.216
  Name = 
  3 active torsions:
  status: ('A' for Active; 'I' for Inactive)
    1  A    between atoms: C_1  and  N_17
    2  A    between atoms: O_5  and  C_8
    3  A    between atoms: C_6  and  CA_22
                            x       y       z     vdW  Elec       q    Type
                         _______ _______ _______ _____ _____    ______ ____

>  <TORSDO>
F 3

$$$$
