=
 OpenBabel11062416143D

 44 48  0  0  1  0  0  0  0  0999 V2000
  185.1170  177.4700  136.3840 C   0  0  1  0  0  3  0  0  0  0  0  0
  181.9900  170.4040  135.5140 C   0  0  0  0  0  2  0  0  0  0  0  0
  188.3960  174.5320  135.5720 O   0  0  0  0  0  0  0  0  0  0  0  0
  183.4500  170.1560  135.1550 C   0  0  0  0  0  2  0  0  0  0  0  0
  188.5740  175.9250  135.7250 C   0  0  1  0  0  3  0  0  0  0  0  0
  184.0910  176.5670  135.7150 C   0  0  2  0  0  3  0  0  0  0  0  0
  185.3310  173.0630  136.7300 C   0  0  0  0  0  3  0  0  0  0  0  0
  184.1500  172.3700  136.1380 C   0  0  1  0  0  3  0  0  0  0  0  0
  184.4700  177.7470  137.7360 C   0  0  1  0  0  3  0  0  0  0  0  0
  182.0470  175.3560  136.6310 C   0  0  1  0  0  3  0  0  0  0  0  0
  181.3060  176.5100  136.3420 O   0  0  0  0  0  1  0  0  0  0  0  0
  181.5840  171.8010  135.0710 C   0  0  0  0  0  2  0  0  0  0  0  0
  186.3560  176.7790  136.5550 O   0  0  0  0  0  0  0  0  0  0  0  0
  183.7340  176.4780  138.1260 C   0  0  0  0  0  2  0  0  0  0  0  0
  181.8830  174.2940  135.5350 C   0  0  1  0  0  3  0  0  0  0  0  0
  184.4110  170.8690  136.0980 C   0  0  0  0  0  2  0  0  0  0  0  0
  181.8910  172.8770  136.1300 C   0  0  2  0  0  3  0  0  0  0  0  0
  187.2760  177.5740  134.5940 O   0  0  0  0  0  0  0  0  0  0  0  0
  183.5230  175.7030  136.8330 C   0  0  2  0  0  3  0  0  0  0  0  0
  183.0240  172.6160  136.9450 O   0  0  0  0  0  0  0  0  0  0  0  0
  186.3830  173.3690  135.9800 C   0  0  0  0  0  3  0  0  0  0  0  0
  180.6910  174.4980  134.8320 O   0  0  0  0  0  1  0  0  0  0  0  0
  187.5420  174.0790  136.5840 C   0  0  0  0  0  2  0  0  0  0  0  0
  187.3660  176.8090  135.5900 C   0  0  0  0  0  0  0  0  0  0  0  0
  184.6640  175.7740  134.7190 O   0  0  0  0  0  1  0  0  0  0  0  0
  191.0900  175.8700  136.0070 C   0  0  0  0  0  1  0  0  0  0  0  0
  189.7780  176.4150  136.5420 C   0  0  2  0  0  3  0  0  0  0  0  0
  190.5470  175.3360  138.5510 O   0  0  0  0  0  1  0  0  0  0  0  0
  189.6810  176.3170  138.0700 C   0  0  1  0  0  3  0  0  0  0  0  0
  189.9210  177.6250  138.8180 C   0  0  0  0  0  2  0  0  0  0  0  0
  189.7880  177.0230  142.5180 C   0  0  1  0  0  0  0  0  0  0  0  0
  190.1070  177.3890  140.2440 N   0  0  0  0  0  0  0  0  0  0  0  0
  189.0260  177.2230  141.2050 C   0  0  2  0  0  3  0  0  0  0  0  0
  188.9200  178.0720  144.6850 O   0  0  0  0  0  0  0  0  0  0  0  0
  191.3490  177.3740  140.9380 C   0  0  0  0  0  0  0  0  0  0  0  0
  188.2330  178.4410  141.2610 N   0  0  0  0  0  1  0  0  0  0  0  0
  192.4920  177.5280  140.3540 N   0  0  0  0  0  2  0  0  0  0  0  0
  189.2700  177.2840  143.7710 C   0  0  0  0  0  0  0  0  0  0  0  0
  189.4430  175.8660  143.2050 N   0  0  0  0  0  2  0  0  0  0  0  0
  191.2230  177.1530  142.3320 N   0  0  0  0  0  2  0  0  0  0  0  0
  185.4480  178.1870  138.8200 C   0  0  0  0  0  2  0  0  0  0  0  0
  184.7770  179.1180  139.7760 C   0  0  0  0  0  0  0  0  0  0  0  0
  184.3500  180.1930  139.3860 O   0  0  0  0  0  0  0  0  0  0  0  0
  184.6200  178.7310  141.2080 C   0  0  0  0  0  1  0  0  0  0  0  0
  1 13  1  1  0  0  0
  1  9  1  0  0  0  0
  3  5  1  0  0  0  0
  3 23  1  0  0  0  0
  4  2  1  0  0  0  0
  4 16  1  0  0  0  0
  5 27  1  1  0  0  0
  6 25  1  6  0  0  0
  6  1  1  0  0  0  0
  6 19  1  0  0  0  0
  8 16  1  1  0  0  0
  8  7  1  0  0  0  0
  8 20  1  0  0  0  0
  9 14  1  0  0  0  0
  9 41  1  1  0  0  0
 10 11  1  6  0  0  0
 10 19  1  0  0  0  0
 12  2  1  0  0  0  0
 15 22  1  1  0  0  0
 15 17  1  0  0  0  0
 15 10  1  0  0  0  0
 17 12  1  6  0  0  0
 17 20  1  0  0  0  0
 18 24  2  0  0  0  0
 19 14  1  1  0  0  0
 21 23  1  0  0  0  0
 21  7  2  0  0  0  0
 24  5  1  0  0  0  0
 24 13  1  0  0  0  0
 27 26  1  6  0  0  0
 27 29  1  0  0  0  0
 29 28  1  1  0  0  0
 29 30  1  0  0  0  0
 30 32  1  0  0  0  0
 31 40  1  6  0  0  0
 31 39  1  0  0  0  0
 31 38  1  0  0  0  0
 32 35  1  0  0  0  0
 32 33  1  0  0  0  0
 33 36  1  1  0  0  0
 33 31  1  0  0  0  0
 35 40  1  0  0  0  0
 37 35  2  0  0  0  0
 38 34  2  0  0  0  0
 39 38  1  0  0  0  0
 41 42  1  0  0  0  0
 42 44  1  0  0  0  0
 43 42  2  0  0  0  0
M  END
>  <MODEL>
1

>  <REMARK>
 VINA RESULT:      -7.8      0.000      0.000
  Name = 
  6 active torsions:
  status: ('A' for Active; 'I' for Inactive)
    1  A    between atoms: C_7  and  C_25
    2  A    between atoms: C_9  and  C_32
    3  A    between atoms: N_12  and  C_27
    4  A    between atoms: C_14  and  C_32
    5  A    between atoms: C_18  and  C_25
    6  A    between atoms: C_18  and  C_27
                            x       y       z     vdW  Elec       q    Type
                         _______ _______ _______ _____ _____    ______ ____

>  <TORSDO>
F 6

$$$$
=
 OpenBabel11062416143D

 44 48  0  0  1  0  0  0  0  0999 V2000
  186.2190  174.6120  135.9500 C   0  0  1  0  0  3  0  0  0  0  0  0
  193.7160  175.4760  137.8230 C   0  0  0  0  0  2  0  0  0  0  0  0
  186.6980  178.4160  138.2620 O   0  0  0  0  0  0  0  0  0  0  0  0
  193.1140  176.7980  138.2860 C   0  0  0  0  0  2  0  0  0  0  0  0
  185.4870  177.9550  137.7000 C   0  0  1  0  0  3  0  0  0  0  0  0
  187.6780  174.6440  135.5230 C   0  0  2  0  0  3  0  0  0  0  0  0
  189.3980  176.0810  138.6570 C   0  0  0  0  0  3  0  0  0  0  0  0
  190.7710  175.8830  138.1100 C   0  0  1  0  0  3  0  0  0  0  0  0
  186.0850  173.2120  136.5380 C   0  0  1  0  0  3  0  0  0  0  0  0
  189.6230  173.0770  136.0160 C   0  0  1  0  0  3  0  0  0  0  0  0
  189.2460  172.3450  134.8820 O   0  0  0  0  0  1  0  0  0  0  0  0
  192.9860  174.9890  136.5810 C   0  0  0  0  0  2  0  0  0  0  0  0
  185.9690  175.6000  136.9520 O   0  0  0  0  0  0  0  0  0  0  0  0
  187.4110  172.9010  137.2070 C   0  0  0  0  0  2  0  0  0  0  0  0
  190.7870  174.0290  135.7090 C   0  0  1  0  0  3  0  0  0  0  0  0
  191.7770  176.6140  138.9920 C   0  0  0  0  0  2  0  0  0  0  0  0
  191.7350  174.1530  136.9120 C   0  0  2  0  0  3  0  0  0  0  0  0
  185.2550  177.2010  135.4510 O   0  0  0  0  0  0  0  0  0  0  0  0
  188.4280  173.8460  136.5810 C   0  0  2  0  0  3  0  0  0  0  0  0
  191.0720  174.5090  138.1150 O   0  0  0  0  0  0  0  0  0  0  0  0
  188.7030  177.1760  138.3670 C   0  0  0  0  0  3  0  0  0  0  0  0
  191.5030  173.5810  134.5940 O   0  0  0  0  0  1  0  0  0  0  0  0
  187.3270  177.3440  138.9040 C   0  0  0  0  0  2  0  0  0  0  0  0
  185.5620  176.8980  136.6340 C   0  0  0  0  0  0  0  0  0  0  0  0
  188.1720  175.9480  135.4440 O   0  0  0  0  0  1  0  0  0  0  0  0
  182.9660  178.1920  137.6580 C   0  0  0  0  0  1  0  0  0  0  0  0
  184.2040  178.0970  138.5310 C   0  0  2  0  0  3  0  0  0  0  0  0
  184.3580  180.4200  139.1400 O   0  0  0  0  0  1  0  0  0  0  0  0
  184.2060  179.1360  139.6610 C   0  0  1  0  0  3  0  0  0  0  0  0
  182.9890  179.0940  140.5790 C   0  0  0  0  0  2  0  0  0  0  0  0
  184.5920  179.0120  143.9690 C   0  0  1  0  0  0  0  0  0  0  0  0
  183.3890  179.0670  141.9800 N   0  0  0  0  0  0  0  0  0  0  0  0
  184.7680  179.0540  142.4490 C   0  0  2  0  0  3  0  0  0  0  0  0
  186.1550  177.5850  145.4090 O   0  0  0  0  0  0  0  0  0  0  0  0
  182.5190  178.9560  143.1010 C   0  0  0  0  0  0  0  0  0  0  0  0
  185.4290  177.8460  141.9820 N   0  0  0  0  0  1  0  0  0  0  0  0
  181.2310  178.9120  143.0000 N   0  0  0  0  0  2  0  0  0  0  0  0
  185.5360  178.5270  144.8530 C   0  0  0  0  0  0  0  0  0  0  0  0
  185.2600  180.0240  144.6470 N   0  0  0  0  0  2  0  0  0  0  0  0
  183.1920  178.9190  144.3480 N   0  0  0  0  0  2  0  0  0  0  0  0
  184.9150  173.0460  137.5010 C   0  0  0  0  0  2  0  0  0  0  0  0
  183.8480  172.2050  136.8810 C   0  0  0  0  0  0  0  0  0  0  0  0
  182.6730  172.4220  137.1340 O   0  0  0  0  0  0  0  0  0  0  0  0
  184.2160  171.1050  135.9440 C   0  0  0  0  0  1  0  0  0  0  0  0
  1  9  1  0  0  0  0
  1 13  1  1  0  0  0
  2  4  1  0  0  0  0
  3 23  1  0  0  0  0
  4 16  1  0  0  0  0
  5  3  1  0  0  0  0
  5 27  1  1  0  0  0
  6 25  1  1  0  0  0
  6  1  1  0  0  0  0
  6 19  1  0  0  0  0
  8 20  1  0  0  0  0
  8  7  1  1  0  0  0
  8 16  1  0  0  0  0
  9 14  1  0  0  0  0
  9 41  1  1  0  0  0
 10 11  1  6  0  0  0
 10 19  1  0  0  0  0
 12  2  1  0  0  0  0
 15 22  1  6  0  0  0
 15 10  1  0  0  0  0
 15 17  1  0  0  0  0
 17 12  1  6  0  0  0
 17 20  1  0  0  0  0
 18 24  2  0  0  0  0
 19 14  1  6  0  0  0
 21  7  2  0  0  0  0
 21 23  1  0  0  0  0
 24 13  1  0  0  0  0
 24  5  1  0  0  0  0
 27 26  1  6  0  0  0
 27 29  1  0  0  0  0
 29 28  1  6  0  0  0
 29 30  1  0  0  0  0
 30 32  1  0  0  0  0
 31 40  1  1  0  0  0
 31 39  1  0  0  0  0
 31 38  1  0  0  0  0
 32 33  1  0  0  0  0
 32 35  1  0  0  0  0
 33 36  1  6  0  0  0
 33 31  1  0  0  0  0
 35 40  1  0  0  0  0
 37 35  2  0  0  0  0
 38 34  2  0  0  0  0
 39 38  1  0  0  0  0
 42 43  2  0  0  0  0
 42 41  1  0  0  0  0
 44 42  1  0  0  0  0
M  END
>  <MODEL>
2

>  <REMARK>
 VINA RESULT:      -7.2      2.675      7.307
  Name = 
  6 active torsions:
  status: ('A' for Active; 'I' for Inactive)
    1  A    between atoms: C_7  and  C_25
    2  A    between atoms: C_9  and  C_32
    3  A    between atoms: N_12  and  C_27
    4  A    between atoms: C_14  and  C_32
    5  A    between atoms: C_18  and  C_25
    6  A    between atoms: C_18  and  C_27
                            x       y       z     vdW  Elec       q    Type
                         _______ _______ _______ _____ _____    ______ ____

>  <TORSDO>
F 6

$$$$
=
 OpenBabel11062416143D

 44 48  0  0  1  0  0  0  0  0999 V2000
  187.7040  177.4460  137.3240 C   0  0  1  0  0  3  0  0  0  0  0  0
  191.5510  177.7800  144.0730 C   0  0  0  0  0  2  0  0  0  0  0  0
  185.0600  179.3450  140.3990 O   0  0  0  0  0  0  0  0  0  0  0  0
  190.2810  178.5620  144.3880 C   0  0  0  0  0  2  0  0  0  0  0  0
  184.7260  179.1700  139.0370 C   0  0  1  0  0  3  0  0  0  0  0  0
  188.9520  177.8390  138.1000 C   0  0  2  0  0  3  0  0  0  0  0  0
  187.7840  177.4350  141.7500 C   0  0  0  0  0  3  0  0  0  0  0  0
  189.1400  177.6970  142.3120 C   0  0  1  0  0  3  0  0  0  0  0  0
  187.9120  175.9510  137.1150 C   0  0  1  0  0  3  0  0  0  0  0  0
  190.7470  176.4420  139.2430 C   0  0  1  0  0  3  0  0  0  0  0  0
  191.4370  176.4350  138.0230 O   0  0  0  0  0  1  0  0  0  0  0  0
  191.9430  178.0040  142.6210 C   0  0  0  0  0  2  0  0  0  0  0  0
  186.5320  177.6830  138.1080 O   0  0  0  0  0  0  0  0  0  0  0  0
  188.6130  175.4380  138.3610 C   0  0  0  0  0  2  0  0  0  0  0  0
  191.3090  177.5020  140.2000 C   0  0  1  0  0  3  0  0  0  0  0  0
  189.0320  177.8990  143.8190 C   0  0  0  0  0  2  0  0  0  0  0  0
  191.2550  177.0190  141.6580 C   0  0  2  0  0  3  0  0  0  0  0  0
  186.1440  179.7770  137.2200 O   0  0  0  0  0  0  0  0  0  0  0  0
  189.2510  176.6570  139.0130 C   0  0  2  0  0  3  0  0  0  0  0  0
  189.9640  176.5850  142.0580 O   0  0  0  0  0  0  0  0  0  0  0  0
  186.9660  178.4390  141.4540 C   0  0  0  0  0  3  0  0  0  0  0  0
  192.6290  177.8150  139.8600 O   0  0  0  0  0  1  0  0  0  0  0  0
  185.6270  178.1570  140.8740 C   0  0  0  0  0  2  0  0  0  0  0  0
  185.8410  178.8960  138.0670 C   0  0  0  0  0  0  0  0  0  0  0  0
  188.7590  179.0040  138.8470 O   0  0  0  0  0  1  0  0  0  0  0  0
  183.2590  177.8780  137.4270 C   0  0  0  0  0  1  0  0  0  0  0  0
  183.3010  178.7120  138.6960 C   0  0  2  0  0  3  0  0  0  0  0  0
  182.0880  180.4200  137.5130 O   0  0  0  0  0  1  0  0  0  0  0  0
  182.1890  179.7690  138.7410 C   0  0  1  0  0  3  0  0  0  0  0  0
  180.8190  179.2470  139.1610 C   0  0  0  0  0  2  0  0  0  0  0  0
  180.5020  179.0200  142.8920 C   0  0  1  0  0  0  0  0  0  0  0  0
  180.6220  179.3850  140.5980 N   0  0  0  0  0  0  0  0  0  0  0  0
  180.8940  178.3410  141.5770 C   0  0  2  0  0  3  0  0  0  0  0  0
  179.3000  177.6910  144.7200 O   0  0  0  0  0  0  0  0  0  0  0  0
  180.0540  180.5060  141.2650 C   0  0  0  0  0  0  0  0  0  0  0  0
  180.0330  177.1970  141.3200 N   0  0  0  0  0  1  0  0  0  0  0  0
  179.6800  181.5820  140.6540 N   0  0  0  0  0  2  0  0  0  0  0  0
  180.1270  178.3470  144.0370 C   0  0  0  0  0  0  0  0  0  0  0  0
  181.5010  179.0100  143.8560 N   0  0  0  0  0  2  0  0  0  0  0  0
  179.9540  180.3470  142.6700 N   0  0  0  0  0  2  0  0  0  0  0  0
  186.6310  175.1740  136.8310 C   0  0  0  0  0  2  0  0  0  0  0  0
  186.9460  173.7430  136.5380 C   0  0  0  0  0  0  0  0  0  0  0  0
  187.6750  173.4560  135.6010 O   0  0  0  0  0  0  0  0  0  0  0  0
  186.3790  172.6640  137.3970 C   0  0  0  0  0  1  0  0  0  0  0  0
  1  6  1  0  0  0  0
  1 13  1  1  0  0  0
  2  4  1  0  0  0  0
  3 23  1  0  0  0  0
  5 27  1  1  0  0  0
  5  3  1  0  0  0  0
  6 25  1  1  0  0  0
  6 19  1  0  0  0  0
  8  7  1  1  0  0  0
  8 16  1  0  0  0  0
  9 41  1  1  0  0  0
  9  1  1  0  0  0  0
  9 14  1  0  0  0  0
 10 11  1  6  0  0  0
 10 15  1  0  0  0  0
 12  2  1  0  0  0  0
 15 22  1  6  0  0  0
 15 17  1  0  0  0  0
 16  4  1  0  0  0  0
 17 20  1  0  0  0  0
 17 12  1  1  0  0  0
 18 24  2  0  0  0  0
 19 14  1  6  0  0  0
 19 10  1  0  0  0  0
 20  8  1  0  0  0  0
 21  7  2  0  0  0  0
 23 21  1  0  0  0  0
 24 13  1  0  0  0  0
 24  5  1  0  0  0  0
 27 26  1  6  0  0  0
 27 29  1  0  0  0  0
 29 28  1  6  0  0  0
 29 30  1  0  0  0  0
 30 32  1  0  0  0  0
 31 40  1  6  0  0  0
 31 39  1  0  0  0  0
 31 38  1  0  0  0  0
 32 35  1  0  0  0  0
 32 33  1  0  0  0  0
 33 36  1  6  0  0  0
 33 31  1  0  0  0  0
 35 40  1  0  0  0  0
 37 35  2  0  0  0  0
 38 34  2  0  0  0  0
 39 38  1  0  0  0  0
 42 41  1  0  0  0  0
 42 44  1  0  0  0  0
 43 42  2  0  0  0  0
M  END
>  <MODEL>
3

>  <REMARK>
 VINA RESULT:      -6.7      4.204      9.011
  Name = 
  6 active torsions:
  status: ('A' for Active; 'I' for Inactive)
    1  A    between atoms: C_7  and  C_25
    2  A    between atoms: C_9  and  C_32
    3  A    between atoms: N_12  and  C_27
    4  A    between atoms: C_14  and  C_32
    5  A    between atoms: C_18  and  C_25
    6  A    between atoms: C_18  and  C_27
                            x       y       z     vdW  Elec       q    Type
                         _______ _______ _______ _____ _____    ______ ____

>  <TORSDO>
F 6

$$$$
=
 OpenBabel11062416143D

 44 48  0  0  1  0  0  0  0  0999 V2000
  184.5390  178.2620  138.1590 C   0  0  1  0  0  3  0  0  0  0  0  0
  182.8300  171.4790  134.7620 C   0  0  0  0  0  2  0  0  0  0  0  0
  188.3570  176.1860  137.0820 O   0  0  0  0  0  0  0  0  0  0  0  0
  184.3430  171.5510  134.5940 C   0  0  0  0  0  2  0  0  0  0  0  0
  188.2670  177.4720  137.6610 C   0  0  1  0  0  3  0  0  0  0  0  0
  183.7740  177.4880  137.0960 C   0  0  2  0  0  3  0  0  0  0  0  0
  185.4840  174.0370  137.2360 C   0  0  0  0  0  3  0  0  0  0  0  0
  184.5210  173.4160  136.2810 C   0  0  1  0  0  3  0  0  0  0  0  0
  183.6990  178.0130  139.4060 C   0  0  1  0  0  3  0  0  0  0  0  0
  181.8820  175.7920  137.2660 C   0  0  1  0  0  3  0  0  0  0  0  0
  180.9880  176.8700  137.2080 O   0  0  0  0  0  1  0  0  0  0  0  0
  182.2390  172.8790  134.6840 C   0  0  0  0  0  2  0  0  0  0  0  0
  185.8510  177.7220  138.3240 O   0  0  0  0  0  0  0  0  0  0  0  0
  183.1580  176.6000  139.2820 C   0  0  0  0  0  2  0  0  0  0  0  0
  182.0370  175.1160  135.8980 C   0  0  1  0  0  3  0  0  0  0  0  0
  185.0460  172.0520  135.8490 C   0  0  0  0  0  2  0  0  0  0  0  0
  182.2250  173.5970  136.0460 C   0  0  2  0  0  3  0  0  0  0  0  0
  186.8410  179.2060  136.8600 O   0  0  0  0  0  0  0  0  0  0  0  0
  183.2400  176.2490  137.8020 C   0  0  2  0  0  3  0  0  0  0  0  0
  183.2820  173.2460  136.9260 O   0  0  0  0  0  0  0  0  0  0  0  0
  186.5470  174.6990  136.7930 C   0  0  0  0  0  3  0  0  0  0  0  0
  180.9190  175.3720  135.0970 O   0  0  0  0  0  1  0  0  0  0  0  0
  187.4820  175.3300  137.7610 C   0  0  0  0  0  2  0  0  0  0  0  0
  186.9460  178.1850  137.5910 C   0  0  0  0  0  0  0  0  0  0  0  0
  184.5900  177.1300  136.0200 O   0  0  0  0  0  1  0  0  0  0  0  0
  190.6800  177.4160  138.4290 C   0  0  0  0  0  1  0  0  0  0  0  0
  189.2610  177.8350  138.7730 C   0  0  2  0  0  3  0  0  0  0  0  0
  189.5900  176.3510  140.6400 O   0  0  0  0  0  1  0  0  0  0  0  0
  188.8750  177.4700  140.2130 C   0  0  1  0  0  3  0  0  0  0  0  0
  189.0300  178.5970  141.2290 C   0  0  0  0  0  2  0  0  0  0  0  0
  190.2490  177.4330  144.5790 C   0  0  1  0  0  0  0  0  0  0  0  0
  189.2800  178.0700  142.5640 N   0  0  0  0  0  0  0  0  0  0  0  0
  190.5600  178.1370  143.2560 C   0  0  2  0  0  3  0  0  0  0  0  0
  191.9790  175.8770  145.6480 O   0  0  0  0  0  0  0  0  0  0  0  0
  188.3620  177.3320  143.3630 C   0  0  0  0  0  0  0  0  0  0  0  0
  191.5580  177.3900  142.5060 N   0  0  0  0  0  1  0  0  0  0  0  0
  187.1470  177.0800  142.9990 N   0  0  0  0  0  2  0  0  0  0  0  0
  191.1930  176.8210  145.3800 C   0  0  0  0  0  0  0  0  0  0  0  0
  190.5580  178.1820  145.7080 N   0  0  0  0  0  2  0  0  0  0  0  0
  188.8920  176.9150  144.6090 N   0  0  0  0  0  2  0  0  0  0  0  0
  184.4490  178.2150  140.7180 C   0  0  0  0  0  2  0  0  0  0  0  0
  183.5050  178.6330  141.7970 C   0  0  0  0  0  0  0  0  0  0  0  0
  182.3630  178.9620  141.5170 O   0  0  0  0  0  0  0  0  0  0  0  0
  183.9530  178.6380  143.2190 C   0  0  0  0  0  1  0  0  0  0  0  0
  1 13  1  1  0  0  0
  1  9  1  0  0  0  0
  3  5  1  0  0  0  0
  3 23  1  0  0  0  0
  4  2  1  0  0  0  0
  4 16  1  0  0  0  0
  5 27  1  1  0  0  0
  6 25  1  6  0  0  0
  6 19  1  0  0  0  0
  6  1  1  0  0  0  0
  8 16  1  1  0  0  0
  8 20  1  0  0  0  0
  8  7  1  0  0  0  0
  9 41  1  1  0  0  0
 10 11  1  6  0  0  0
 10 19  1  0  0  0  0
 12  2  1  0  0  0  0
 14  9  1  0  0  0  0
 15 22  1  6  0  0  0
 15 17  1  0  0  0  0
 15 10  1  0  0  0  0
 17 12  1  6  0  0  0
 17 20  1  0  0  0  0
 18 24  2  0  0  0  0
 19 14  1  1  0  0  0
 21  7  2  0  0  0  0
 21 23  1  0  0  0  0
 24  5  1  0  0  0  0
 24 13  1  0  0  0  0
 27 26  1  6  0  0  0
 27 29  1  0  0  0  0
 29 28  1  1  0  0  0
 29 30  1  0  0  0  0
 30 32  1  0  0  0  0
 31 40  1  1  0  0  0
 31 38  1  0  0  0  0
 31 39  1  0  0  0  0
 32 33  1  0  0  0  0
 32 35  1  0  0  0  0
 33 36  1  6  0  0  0
 33 31  1  0  0  0  0
 35 40  1  0  0  0  0
 37 35  2  0  0  0  0
 38 34  2  0  0  0  0
 38 39  1  0  0  0  0
 41 42  1  0  0  0  0
 42 44  1  0  0  0  0
 43 42  2  0  0  0  0
M  END
>  <MODEL>
4

>  <REMARK>
 VINA RESULT:      -6.7      1.766      2.417
  Name = 
  6 active torsions:
  status: ('A' for Active; 'I' for Inactive)
    1  A    between atoms: C_7  and  C_25
    2  A    between atoms: C_9  and  C_32
    3  A    between atoms: N_12  and  C_27
    4  A    between atoms: C_14  and  C_32
    5  A    between atoms: C_18  and  C_25
    6  A    between atoms: C_18  and  C_27
                            x       y       z     vdW  Elec       q    Type
                         _______ _______ _______ _____ _____    ______ ____

>  <TORSDO>
F 6

$$$$
=
 OpenBabel11062416143D

 44 48  0  0  1  0  0  0  0  0999 V2000
  188.0990  177.4230  137.2330 C   0  0  1  0  0  3  0  0  0  0  0  0
  191.5820  177.8350  144.1720 C   0  0  0  0  0  2  0  0  0  0  0  0
  185.3050  179.3780  140.1340 O   0  0  0  0  0  0  0  0  0  0  0  0
  190.3010  178.6280  144.4080 C   0  0  0  0  0  2  0  0  0  0  0  0
  185.0440  179.1850  138.7600 C   0  0  1  0  0  3  0  0  0  0  0  0
  189.3060  177.8210  138.0680 C   0  0  2  0  0  3  0  0  0  0  0  0
  187.9430  177.4750  141.6560 C   0  0  0  0  0  3  0  0  0  0  0  0
  189.2680  177.7380  142.2860 C   0  0  1  0  0  3  0  0  0  0  0  0
  188.3090  175.9240  137.0560 C   0  0  1  0  0  3  0  0  0  0  0  0
  191.0300  176.4320  139.3250 C   0  0  1  0  0  3  0  0  0  0  0  0
  191.7830  176.4040  138.1430 O   0  0  0  0  0  1  0  0  0  0  0  0
  192.0520  178.0370  142.7400 C   0  0  0  0  0  2  0  0  0  0  0  0
  186.8890  177.6770  137.9490 O   0  0  0  0  0  0  0  0  0  0  0  0
  188.9400  175.4260  138.3440 C   0  0  0  0  0  2  0  0  0  0  0  0
  191.5460  177.5030  140.2950 C   0  0  1  0  0  3  0  0  0  0  0  0
  189.0820  177.9630  143.7820 C   0  0  0  0  0  2  0  0  0  0  0  0
  191.4110  177.0410  141.7550 C   0  0  2  0  0  3  0  0  0  0  0  0
  186.5590  179.7590  137.0120 O   0  0  0  0  0  0  0  0  0  0  0  0
  189.5490  176.6510  139.0120 C   0  0  2  0  0  3  0  0  0  0  0  0
  190.0990  176.6190  142.0920 O   0  0  0  0  0  0  0  0  0  0  0  0
  187.1480  178.4780  141.3030 C   0  0  0  0  0  3  0  0  0  0  0  0
  192.8840  177.8050  140.0220 O   0  0  0  0  0  1  0  0  0  0  0  0
  185.8390  178.1940  140.6560 C   0  0  0  0  0  2  0  0  0  0  0  0
  186.2070  178.8920  137.8550 C   0  0  0  0  0  0  0  0  0  0  0  0
  189.0790  178.9970  138.7870 O   0  0  0  0  0  1  0  0  0  0  0  0
  182.5510  179.4870  139.0920 C   0  0  0  0  0  1  0  0  0  0  0  0
  183.6360  178.7280  138.3490 C   0  0  2  0  0  3  0  0  0  0  0  0
  182.9190  176.7650  139.5420 O   0  0  0  0  0  1  0  0  0  0  0  0
  183.3700  177.2170  138.3030 C   0  0  1  0  0  3  0  0  0  0  0  0
  182.4070  176.7640  137.2100 C   0  0  0  0  0  2  0  0  0  0  0  0
  182.9210  173.0990  136.5980 C   0  0  1  0  0  0  0  0  0  0  0  0
  182.4000  175.3120  137.0860 N   0  0  0  0  0  0  0  0  0  0  0  0
  183.4540  174.5280  136.4580 C   0  0  2  0  0  3  0  0  0  0  0  0
  183.2360  171.4140  134.6970 O   0  0  0  0  0  0  0  0  0  0  0  0
  181.3400  174.4420  137.4650 C   0  0  0  0  0  0  0  0  0  0  0  0
  183.5610  174.8930  135.0540 N   0  0  0  0  0  1  0  0  0  0  0  0
  180.2490  174.8520  138.0240 N   0  0  0  0  0  2  0  0  0  0  0  0
  183.2840  172.0460  135.7830 C   0  0  0  0  0  0  0  0  0  0  0  0
  183.8020  172.2230  137.2180 N   0  0  0  0  0  2  0  0  0  0  0  0
  181.5970  173.0740  137.1950 N   0  0  0  0  0  2  0  0  0  0  0  0
  187.0410  175.1480  136.7140 C   0  0  0  0  0  2  0  0  0  0  0  0
  187.3220  174.1360  135.6520 C   0  0  0  0  0  0  0  0  0  0  0  0
  186.6850  173.0960  135.6140 O   0  0  0  0  0  0  0  0  0  0  0  0
  188.3770  174.4010  134.6310 C   0  0  0  0  0  1  0  0  0  0  0  0
  1 13  1  1  0  0  0
  1  6  1  0  0  0  0
  2  4  1  0  0  0  0
  3 23  1  0  0  0  0
  5 27  1  1  0  0  0
  5  3  1  0  0  0  0
  6 25  1  1  0  0  0
  6 19  1  0  0  0  0
  8  7  1  6  0  0  0
  8 16  1  0  0  0  0
  9 41  1  1  0  0  0
  9  1  1  0  0  0  0
  9 14  1  0  0  0  0
 10 11  1  6  0  0  0
 10 15  1  0  0  0  0
 12  2  1  0  0  0  0
 15 22  1  6  0  0  0
 15 17  1  0  0  0  0
 16  4  1  0  0  0  0
 17 20  1  0  0  0  0
 17 12  1  1  0  0  0
 18 24  2  0  0  0  0
 19 14  1  6  0  0  0
 19 10  1  0  0  0  0
 20  8  1  0  0  0  0
 21  7  2  0  0  0  0
 23 21  1  0  0  0  0
 24 13  1  0  0  0  0
 24  5  1  0  0  0  0
 27 26  1  1  0  0  0
 29 27  1  0  0  0  0
 29 28  1  1  0  0  0
 30 29  1  0  0  0  0
 31 38  1  6  0  0  0
 31 40  1  0  0  0  0
 31 39  1  0  0  0  0
 32 30  1  0  0  0  0
 32 35  1  0  0  0  0
 33 36  1  6  0  0  0
 33 31  1  0  0  0  0
 33 32  1  0  0  0  0
 34 38  2  0  0  0  0
 35 37  2  0  0  0  0
 38 39  1  0  0  0  0
 40 35  1  0  0  0  0
 42 41  1  0  0  0  0
 43 42  2  0  0  0  0
 44 42  1  0  0  0  0
M  END
>  <MODEL>
5

>  <REMARK>
 VINA RESULT:      -6.5      3.657      9.120
  Name = 
  6 active torsions:
  status: ('A' for Active; 'I' for Inactive)
    1  A    between atoms: C_7  and  C_25
    2  A    between atoms: C_9  and  C_32
    3  A    between atoms: N_12  and  C_27
    4  A    between atoms: C_14  and  C_32
    5  A    between atoms: C_18  and  C_25
    6  A    between atoms: C_18  and  C_27
                            x       y       z     vdW  Elec       q    Type
                         _______ _______ _______ _____ _____    ______ ____

>  <TORSDO>
F 6

$$$$
=
 OpenBabel11062416143D

 44 48  0  0  1  0  0  0  0  0999 V2000
  185.4380  177.2360  136.3910 C   0  0  1  0  0  3  0  0  0  0  0  0
  180.6150  171.1550  135.9280 C   0  0  0  0  0  2  0  0  0  0  0  0
  187.8650  173.5040  135.9110 O   0  0  0  0  0  0  0  0  0  0  0  0
  181.9680  170.5150  135.6390 C   0  0  0  0  0  2  0  0  0  0  0  0
  188.3920  174.8140  135.9680 C   0  0  1  0  0  3  0  0  0  0  0  0
  184.2260  176.5750  135.7540 C   0  0  2  0  0  3  0  0  0  0  0  0
  184.5080  172.9620  137.0640 C   0  0  0  0  0  3  0  0  0  0  0  0
  183.1980  172.5490  136.4830 C   0  0  1  0  0  3  0  0  0  0  0  0
  184.8640  177.7750  137.6960 C   0  0  1  0  0  3  0  0  0  0  0  0
  181.9250  176.0010  136.6830 C   0  0  1  0  0  3  0  0  0  0  0  0
  181.5100  177.2790  136.2850 O   0  0  0  0  0  1  0  0  0  0  0  0
  180.5890  172.5700  135.3700 C   0  0  0  0  0  2  0  0  0  0  0  0
  186.4560  176.2680  136.6550 O   0  0  0  0  0  0  0  0  0  0  0  0
  183.8210  176.7700  138.1510 C   0  0  0  0  0  2  0  0  0  0  0  0
  181.5100  174.9320  135.6620 C   0  0  1  0  0  3  0  0  0  0  0  0
  183.0660  171.0320  136.5610 C   0  0  0  0  0  2  0  0  0  0  0  0
  181.1450  173.6120  136.3590 C   0  0  2  0  0  3  0  0  0  0  0  0
  187.5790  176.6440  134.6750 O   0  0  0  0  0  0  0  0  0  0  0  0
  183.4370  175.9750  136.9110 C   0  0  2  0  0  3  0  0  0  0  0  0
  182.1600  173.1370  137.2290 O   0  0  0  0  0  0  0  0  0  0  0  0
  185.6150  172.9290  136.3310 C   0  0  0  0  0  3  0  0  0  0  0  0
  180.4220  175.3780  134.9050 O   0  0  0  0  0  1  0  0  0  0  0  0
  186.9080  173.3660  136.9220 C   0  0  0  0  0  2  0  0  0  0  0  0
  187.4540  175.9630  135.7270 C   0  0  0  0  0  0  0  0  0  0  0  0
  184.5900  175.5850  134.8390 O   0  0  0  0  0  1  0  0  0  0  0  0
  189.5530  176.2550  137.6960 C   0  0  0  0  0  1  0  0  0  0  0  0
  189.6690  175.0440  136.7890 C   0  0  2  0  0  3  0  0  0  0  0  0
  190.8040  175.1520  134.6690 O   0  0  0  0  0  1  0  0  0  0  0  0
  191.0080  174.9980  136.0390 C   0  0  1  0  0  3  0  0  0  0  0  0
  192.0520  176.0010  136.5190 C   0  0  0  0  0  2  0  0  0  0  0  0
  195.0590  174.4040  138.0930 C   0  0  1  0  0  0  0  0  0  0  0  0
  193.2860  175.3310  136.9070 N   0  0  0  0  0  0  0  0  0  0  0  0
  193.7250  175.1320  138.2810 C   0  0  2  0  0  3  0  0  0  0  0  0
  197.0490  174.9460  139.6080 O   0  0  0  0  0  0  0  0  0  0  0  0
  194.2950  174.8510  136.0260 C   0  0  0  0  0  0  0  0  0  0  0  0
  193.9380  176.4230  138.9160 N   0  0  0  0  0  1  0  0  0  0  0  0
  194.2040  174.9170  134.7380 N   0  0  0  0  0  2  0  0  0  0  0  0
  196.0840  174.3990  139.0170 C   0  0  0  0  0  0  0  0  0  0  0  0
  195.1520  173.2010  138.7810 N   0  0  0  0  0  2  0  0  0  0  0  0
  195.4060  174.2710  136.6880 N   0  0  0  0  0  2  0  0  0  0  0  0
  185.9050  178.0360  138.7790 C   0  0  0  0  0  2  0  0  0  0  0  0
  185.3620  178.9770  139.8040 C   0  0  0  0  0  0  0  0  0  0  0  0
  184.6280  179.8920  139.4670 O   0  0  0  0  0  0  0  0  0  0  0  0
  185.7100  178.7930  141.2430 C   0  0  0  0  0  1  0  0  0  0  0  0
  1 13  1  1  0  0  0
  1  9  1  0  0  0  0
  3  5  1  0  0  0  0
  3 23  1  0  0  0  0
  4  2  1  0  0  0  0
  4 16  1  0  0  0  0
  5 27  1  1  0  0  0
  6 25  1  6  0  0  0
  6  1  1  0  0  0  0
  6 19  1  0  0  0  0
  8 16  1  1  0  0  0
  8  7  1  0  0  0  0
  8 20  1  0  0  0  0
  9 14  1  0  0  0  0
  9 41  1  1  0  0  0
 10 11  1  6  0  0  0
 10 19  1  0  0  0  0
 12  2  1  0  0  0  0
 15 22  1  1  0  0  0
 15 17  1  0  0  0  0
 15 10  1  0  0  0  0
 17 12  1  6  0  0  0
 17 20  1  0  0  0  0
 18 24  2  0  0  0  0
 19 14  1  1  0  0  0
 21 23  1  0  0  0  0
 21  7  2  0  0  0  0
 24  5  1  0  0  0  0
 24 13  1  0  0  0  0
 27 26  1  6  0  0  0
 29 28  1  6  0  0  0
 29 30  1  0  0  0  0
 29 27  1  0  0  0  0
 30 32  1  0  0  0  0
 31 40  1  6  0  0  0
 31 33  1  0  0  0  0
 31 39  1  0  0  0  0
 31 38  1  0  0  0  0
 32 33  1  0  0  0  0
 33 36  1  6  0  0  0
 35 40  1  0  0  0  0
 35 32  1  0  0  0  0
 37 35  2  0  0  0  0
 38 34  2  0  0  0  0
 39 38  1  0  0  0  0
 41 42  1  0  0  0  0
 42 44  1  0  0  0  0
 43 42  2  0  0  0  0
M  END
>  <MODEL>
6

>  <REMARK>
 VINA RESULT:      -6.5      2.549      3.694
  Name = 
  6 active torsions:
  status: ('A' for Active; 'I' for Inactive)
    1  A    between atoms: C_7  and  C_25
    2  A    between atoms: C_9  and  C_32
    3  A    between atoms: N_12  and  C_27
    4  A    between atoms: C_14  and  C_32
    5  A    between atoms: C_18  and  C_25
    6  A    between atoms: C_18  and  C_27
                            x       y       z     vdW  Elec       q    Type
                         _______ _______ _______ _____ _____    ______ ____

>  <TORSDO>
F 6

$$$$
=
 OpenBabel11062416143D

 44 48  0  0  1  0  0  0  0  0999 V2000
  184.6620  179.0670  139.2780 C   0  0  1  0  0  3  0  0  0  0  0  0
  179.1360  173.9200  137.4270 C   0  0  0  0  0  2  0  0  0  0  0  0
  186.3960  176.0350  136.4770 O   0  0  0  0  0  0  0  0  0  0  0  0
  180.2820  173.5040  136.5120 C   0  0  0  0  0  2  0  0  0  0  0  0
  187.0840  177.1610  136.9810 C   0  0  1  0  0  3  0  0  0  0  0  0
  183.2560  178.7840  138.7750 C   0  0  2  0  0  3  0  0  0  0  0  0
  183.3870  174.9860  138.1330 C   0  0  0  0  0  3  0  0  0  0  0  0
  181.9330  174.8940  137.8180 C   0  0  1  0  0  3  0  0  0  0  0  0
  184.5030  178.9130  140.7860 C   0  0  1  0  0  3  0  0  0  0  0  0
  181.2020  177.8210  139.9330 C   0  0  1  0  0  3  0  0  0  0  0  0
  180.8690  179.1310  140.3030 O   0  0  0  0  0  1  0  0  0  0  0  0
  179.1540  175.4290  137.6180 C   0  0  0  0  0  2  0  0  0  0  0  0
  185.5800  178.0970  138.7710 O   0  0  0  0  0  0  0  0  0  0  0  0
  183.4850  177.8060  140.9970 C   0  0  0  0  0  2  0  0  0  0  0  0
  180.4140  177.3690  138.6970 C   0  0  1  0  0  3  0  0  0  0  0  0
  181.6300  173.5240  137.2210 C   0  0  0  0  0  2  0  0  0  0  0  0
  180.0670  175.8740  138.7760 C   0  0  2  0  0  3  0  0  0  0  0  0
  186.2180  179.3810  136.9630 O   0  0  0  0  0  0  0  0  0  0  0  0
  182.7080  177.6990  139.6920 C   0  0  2  0  0  3  0  0  0  0  0  0
  181.1960  175.0460  139.0070 O   0  0  0  0  0  0  0  0  0  0  0  0
  184.2650  175.3150  137.1920 C   0  0  0  0  0  3  0  0  0  0  0  0
  179.2390  178.1160  138.5670 O   0  0  0  0  0  1  0  0  0  0  0  0
  185.7090  175.4240  137.5320 C   0  0  0  0  0  2  0  0  0  0  0  0
  186.2700  178.2790  137.5700 C   0  0  0  0  0  0  0  0  0  0  0  0
  183.2520  178.3550  137.4450 O   0  0  0  0  0  1  0  0  0  0  0  0
  189.2380  178.3070  137.6620 C   0  0  0  0  0  1  0  0  0  0  0  0
  188.5430  176.9780  137.4230 C   0  0  2  0  0  3  0  0  0  0  0  0
  190.2500  176.6970  135.7500 O   0  0  0  0  0  1  0  0  0  0  0  0
  189.4080  176.0000  136.6160 C   0  0  1  0  0  3  0  0  0  0  0  0
  190.2260  175.0210  137.4510 C   0  0  0  0  0  2  0  0  0  0  0  0
  193.9050  175.6340  137.0560 C   0  0  1  0  0  0  0  0  0  0  0  0
  191.6310  175.4050  137.4840 N   0  0  0  0  0  0  0  0  0  0  0  0
  192.6420  174.9340  136.5470 C   0  0  2  0  0  3  0  0  0  0  0  0
  196.1490  174.4020  137.0550 O   0  0  0  0  0  0  0  0  0  0  0  0
  192.2590  176.2130  138.4720 C   0  0  0  0  0  0  0  0  0  0  0  0
  192.7800  173.4910  136.6640 N   0  0  0  0  0  1  0  0  0  0  0  0
  191.6210  176.7530  139.4590 N   0  0  0  0  0  2  0  0  0  0  0  0
  195.1920  175.1850  136.8320 C   0  0  0  0  0  0  0  0  0  0  0  0
  194.5700  176.3790  136.0900 N   0  0  0  0  0  2  0  0  0  0  0  0
  193.6500  176.3930  138.2670 N   0  0  0  0  0  2  0  0  0  0  0  0
  185.8040  178.6290  141.5290 C   0  0  0  0  0  2  0  0  0  0  0  0
  185.6150  178.8200  142.9980 C   0  0  0  0  0  0  0  0  0  0  0  0
  184.9300  179.7420  143.4120 O   0  0  0  0  0  0  0  0  0  0  0  0
  186.2550  177.8780  143.9600 C   0  0  0  0  0  1  0  0  0  0  0  0
  1 13  1  6  0  0  0
  1  9  1  0  0  0  0
  2 12  1  0  0  0  0
  3  5  1  0  0  0  0
  3 23  1  0  0  0  0
  4 16  1  0  0  0  0
  4  2  1  0  0  0  0
  5 27  1  1  0  0  0
  5 24  1  0  0  0  0
  6 25  1  6  0  0  0
  6  1  1  0  0  0  0
  6 19  1  0  0  0  0
  8 16  1  1  0  0  0
  8  7  1  0  0  0  0
  8 20  1  0  0  0  0
  9 14  1  0  0  0  0
  9 41  1  1  0  0  0
 10 11  1  6  0  0  0
 15 22  1  1  0  0  0
 15 17  1  0  0  0  0
 15 10  1  0  0  0  0
 17 12  1  6  0  0  0
 17 20  1  0  0  0  0
 18 24  2  0  0  0  0
 19 10  1  0  0  0  0
 19 14  1  1  0  0  0
 21 23  1  0  0  0  0
 21  7  2  0  0  0  0
 24 13  1  0  0  0  0
 27 26  1  6  0  0  0
 29 28  1  1  0  0  0
 29 27  1  0  0  0  0
 29 30  1  0  0  0  0
 30 32  1  0  0  0  0
 31 39  1  6  0  0  0
 31 40  1  0  0  0  0
 32 35  1  0  0  0  0
 33 36  1  1  0  0  0
 33 31  1  0  0  0  0
 33 32  1  0  0  0  0
 35 37  2  0  0  0  0
 38 34  2  0  0  0  0
 38 31  1  0  0  0  0
 39 38  1  0  0  0  0
 40 35  1  0  0  0  0
 41 42  1  0  0  0  0
 42 43  2  0  0  0  0
 42 44  1  0  0  0  0
M  END
>  <MODEL>
7

>  <REMARK>
 VINA RESULT:      -6.4      2.756      4.617
  Name = 
  6 active torsions:
  status: ('A' for Active; 'I' for Inactive)
    1  A    between atoms: C_7  and  C_25
    2  A    between atoms: C_9  and  C_32
    3  A    between atoms: N_12  and  C_27
    4  A    between atoms: C_14  and  C_32
    5  A    between atoms: C_18  and  C_25
    6  A    between atoms: C_18  and  C_27
                            x       y       z     vdW  Elec       q    Type
                         _______ _______ _______ _____ _____    ______ ____

>  <TORSDO>
F 6

$$$$
=
 OpenBabel11062416143D

 44 48  0  0  1  0  0  0  0  0999 V2000
  187.9270  177.4080  137.2500 C   0  0  1  0  0  3  0  0  0  0  0  0
  191.6310  177.8560  144.0720 C   0  0  0  0  0  2  0  0  0  0  0  0
  185.2280  179.3800  140.2300 O   0  0  0  0  0  0  0  0  0  0  0  0
  190.3590  178.6500  144.3440 C   0  0  0  0  0  2  0  0  0  0  0  0
  184.9230  179.1800  138.8650 C   0  0  1  0  0  3  0  0  0  0  0  0
  189.1600  177.8100  138.0440 C   0  0  2  0  0  3  0  0  0  0  0  0
  187.9130  177.4840  141.6760 C   0  0  0  0  0  3  0  0  0  0  0  0
  189.2580  177.7500  142.2610 C   0  0  1  0  0  3  0  0  0  0  0  0
  188.1310  175.9080  137.0750 C   0  0  1  0  0  3  0  0  0  0  0  0
  190.9230  176.4270  139.2530 C   0  0  1  0  0  3  0  0  0  0  0  0
  191.6380  176.3920  138.0480 O   0  0  0  0  0  1  0  0  0  0  0  0
  192.0550  178.0490  142.6240 C   0  0  0  0  0  2  0  0  0  0  0  0
  186.7400  177.6660  138.0040 O   0  0  0  0  0  0  0  0  0  0  0  0
  188.8030  175.4160  138.3450 C   0  0  0  0  0  2  0  0  0  0  0  0
  191.4700  177.5030  140.2000 C   0  0  1  0  0  3  0  0  0  0  0  0
  189.1200  177.9820  143.7610 C   0  0  0  0  0  2  0  0  0  0  0  0
  191.3820  177.0490  141.6660 C   0  0  2  0  0  3  0  0  0  0  0  0
  186.3810  179.7440  137.0670 O   0  0  0  0  0  0  0  0  0  0  0  0
  189.4330  176.6450  138.9860 C   0  0  2  0  0  3  0  0  0  0  0  0
  190.0810  176.6290  142.0470 O   0  0  0  0  0  0  0  0  0  0  0  0
  187.1070  178.4860  141.3430 C   0  0  0  0  0  3  0  0  0  0  0  0
  192.7990  177.8030  139.8820 O   0  0  0  0  0  1  0  0  0  0  0  0
  185.7790  178.1990  140.7400 C   0  0  0  0  0  2  0  0  0  0  0  0
  186.0560  178.8810  137.9250 C   0  0  0  0  0  0  0  0  0  0  0  0
  188.9570  178.9900  138.7640 O   0  0  0  0  0  1  0  0  0  0  0  0
  183.5090  177.4650  137.6500 C   0  0  0  0  0  1  0  0  0  0  0  0
  183.5030  178.7210  138.5020 C   0  0  2  0  0  3  0  0  0  0  0  0
  181.2690  179.2300  137.7650 O   0  0  0  0  0  1  0  0  0  0  0  0
  182.5310  179.7850  137.9730 C   0  0  1  0  0  3  0  0  0  0  0  0
  182.4060  181.0350  138.8380 C   0  0  0  0  0  2  0  0  0  0  0  0
  179.7450  183.2820  137.4480 C   0  0  1  0  0  0  0  0  0  0  0  0
  181.2330  181.8150  138.4670 N   0  0  0  0  0  0  0  0  0  0  0  0
  181.1810  182.7590  137.3590 C   0  0  2  0  0  3  0  0  0  0  0  0
  179.2450  185.7540  137.0040 O   0  0  0  0  0  0  0  0  0  0  0  0
  179.9950  181.8570  139.1680 C   0  0  0  0  0  0  0  0  0  0  0  0
  182.1290  183.8370  137.5930 N   0  0  0  0  0  1  0  0  0  0  0  0
  179.7500  181.1480  140.2210 N   0  0  0  0  0  2  0  0  0  0  0  0
  179.3250  184.5000  136.9510 C   0  0  0  0  0  0  0  0  0  0  0  0
  179.0210  183.1570  136.2690 N   0  0  0  0  0  2  0  0  0  0  0  0
  179.0410  182.7340  138.5950 N   0  0  0  0  0  2  0  0  0  0  0  0
  186.8520  175.1310  136.7780 C   0  0  0  0  0  2  0  0  0  0  0  0
  187.1310  173.6640  136.7510 C   0  0  0  0  0  0  0  0  0  0  0  0
  186.5240  172.9120  137.4970 O   0  0  0  0  0  0  0  0  0  0  0  0
  188.1450  173.1150  135.8050 C   0  0  0  0  0  1  0  0  0  0  0  0
  1 13  1  1  0  0  0
  1  6  1  0  0  0  0
  2  4  1  0  0  0  0
  3 23  1  0  0  0  0
  5 27  1  1  0  0  0
  5  3  1  0  0  0  0
  6 25  1  1  0  0  0
  6 19  1  0  0  0  0
  8  7  1  1  0  0  0
  8 16  1  0  0  0  0
  9 41  1  1  0  0  0
  9  1  1  0  0  0  0
  9 14  1  0  0  0  0
 10 11  1  6  0  0  0
 10 15  1  0  0  0  0
 12  2  1  0  0  0  0
 15 22  1  6  0  0  0
 15 17  1  0  0  0  0
 16  4  1  0  0  0  0
 17 20  1  0  0  0  0
 17 12  1  1  0  0  0
 18 24  2  0  0  0  0
 19 14  1  6  0  0  0
 19 10  1  0  0  0  0
 20  8  1  0  0  0  0
 21  7  2  0  0  0  0
 23 21  1  0  0  0  0
 24 13  1  0  0  0  0
 24  5  1  0  0  0  0
 27 26  1  6  0  0  0
 29 28  1  1  0  0  0
 29 27  1  0  0  0  0
 29 30  1  0  0  0  0
 31 39  1  6  0  0  0
 31 40  1  0  0  0  0
 32 30  1  0  0  0  0
 32 35  1  0  0  0  0
 33 31  1  0  0  0  0
 33 36  1  1  0  0  0
 33 32  1  0  0  0  0
 35 37  2  0  0  0  0
 38 34  2  0  0  0  0
 38 31  1  0  0  0  0
 39 38  1  0  0  0  0
 40 35  1  0  0  0  0
 42 41  1  0  0  0  0
 42 43  2  0  0  0  0
 44 42  1  0  0  0  0
M  END
>  <MODEL>
8

>  <REMARK>
 VINA RESULT:      -6.3      4.577      9.714
  Name = 
  6 active torsions:
  status: ('A' for Active; 'I' for Inactive)
    1  A    between atoms: C_7  and  C_25
    2  A    between atoms: C_9  and  C_32
    3  A    between atoms: N_12  and  C_27
    4  A    between atoms: C_14  and  C_32
    5  A    between atoms: C_18  and  C_25
    6  A    between atoms: C_18  and  C_27
                            x       y       z     vdW  Elec       q    Type
                         _______ _______ _______ _____ _____    ______ ____

>  <TORSDO>
F 6

$$$$
=
 OpenBabel11062416143D

 44 48  0  0  1  0  0  0  0  0999 V2000
  188.1240  177.4550  137.2470 C   0  0  1  0  0  3  0  0  0  0  0  0
  191.5450  177.8380  144.2190 C   0  0  0  0  0  2  0  0  0  0  0  0
  185.3000  179.3860  140.1350 O   0  0  0  0  0  0  0  0  0  0  0  0
  190.2600  178.6260  144.4480 C   0  0  0  0  0  2  0  0  0  0  0  0
  185.0510  179.2000  138.7570 C   0  0  1  0  0  3  0  0  0  0  0  0
  189.3220  177.8510  138.0960 C   0  0  2  0  0  3  0  0  0  0  0  0
  187.9290  177.4810  141.6690 C   0  0  0  0  0  3  0  0  0  0  0  0
  189.2480  177.7450  142.3120 C   0  0  1  0  0  3  0  0  0  0  0  0
  188.3400  175.9570  137.0640 C   0  0  1  0  0  3  0  0  0  0  0  0
  191.0390  176.4600  139.3600 C   0  0  1  0  0  3  0  0  0  0  0  0
  191.8030  176.4410  138.1850 O   0  0  0  0  0  1  0  0  0  0  0  0
  192.0270  178.0490  142.7920 C   0  0  0  0  0  2  0  0  0  0  0  0
  186.9070  177.7010  137.9550 O   0  0  0  0  0  0  0  0  0  0  0  0
  188.9610  175.4540  138.3550 C   0  0  0  0  0  2  0  0  0  0  0  0
  191.5440  177.5270  140.3410 C   0  0  1  0  0  3  0  0  0  0  0  0
  189.0480  177.9610  143.8080 C   0  0  0  0  0  2  0  0  0  0  0  0
  191.3980  177.0570  141.7960 C   0  0  2  0  0  3  0  0  0  0  0  0
  186.5800  179.7880  137.0270 O   0  0  0  0  0  0  0  0  0  0  0  0
  189.5610  176.6770  139.0350 C   0  0  2  0  0  3  0  0  0  0  0  0
  190.0830  176.6300  142.1190 O   0  0  0  0  0  0  0  0  0  0  0  0
  187.1340  178.4850  141.3150 C   0  0  0  0  0  3  0  0  0  0  0  0
  192.8830  177.8350  140.0810 O   0  0  0  0  0  1  0  0  0  0  0  0
  185.8320  178.2010  140.6550 C   0  0  0  0  0  2  0  0  0  0  0  0
  186.2220  178.9150  137.8610 C   0  0  0  0  0  0  0  0  0  0  0  0
  189.0860  179.0230  138.8190 O   0  0  0  0  0  1  0  0  0  0  0  0
  182.5540  179.5000  139.0620 C   0  0  0  0  0  1  0  0  0  0  0  0
  183.6480  178.7410  138.3320 C   0  0  2  0  0  3  0  0  0  0  0  0
  182.6990  176.8210  139.4290 O   0  0  0  0  0  1  0  0  0  0  0  0
  183.3830  177.2300  138.2850 C   0  0  1  0  0  3  0  0  0  0  0  0
  182.6460  176.7420  137.0430 C   0  0  0  0  0  2  0  0  0  0  0  0
  180.0130  174.2420  137.9860 C   0  0  1  0  0  0  0  0  0  0  0  0
  181.4730  175.9550  137.4030 N   0  0  0  0  0  0  0  0  0  0  0  0
  181.4880  174.5280  137.6900 C   0  0  2  0  0  3  0  0  0  0  0  0
  178.9320  172.0710  137.1670 O   0  0  0  0  0  0  0  0  0  0  0  0
  180.1290  176.4200  137.4430 C   0  0  0  0  0  0  0  0  0  0  0  0
  181.9180  173.7980  136.5070 N   0  0  0  0  0  1  0  0  0  0  0  0
  179.7930  177.6450  137.2020 N   0  0  0  0  0  2  0  0  0  0  0  0
  179.4150  173.0040  137.8570 C   0  0  0  0  0  0  0  0  0  0  0  0
  179.7890  173.6260  139.2110 N   0  0  0  0  0  2  0  0  0  0  0  0
  179.1870  175.4210  137.7950 N   0  0  0  0  0  2  0  0  0  0  0  0
  187.0770  175.1800  136.7070 C   0  0  0  0  0  2  0  0  0  0  0  0
  187.4040  173.7430  136.4640 C   0  0  0  0  0  0  0  0  0  0  0  0
  188.2260  173.4370  135.6150 O   0  0  0  0  0  0  0  0  0  0  0  0
  186.7320  172.6800  137.2670 C   0  0  0  0  0  1  0  0  0  0  0  0
  1 13  1  1  0  0  0
  1  6  1  0  0  0  0
  2  4  1  0  0  0  0
  3 23  1  0  0  0  0
  5 27  1  1  0  0  0
  5  3  1  0  0  0  0
  6 25  1  1  0  0  0
  6 19  1  0  0  0  0
  8  7  1  6  0  0  0
  8 16  1  0  0  0  0
  9 41  1  1  0  0  0
  9  1  1  0  0  0  0
  9 14  1  0  0  0  0
 10 11  1  6  0  0  0
 10 15  1  0  0  0  0
 12  2  1  0  0  0  0
 15 22  1  6  0  0  0
 15 17  1  0  0  0  0
 16  4  1  0  0  0  0
 17 20  1  0  0  0  0
 17 12  1  1  0  0  0
 18 24  2  0  0  0  0
 19 14  1  6  0  0  0
 19 10  1  0  0  0  0
 20  8  1  0  0  0  0
 21  7  2  0  0  0  0
 23 21  1  0  0  0  0
 24 13  1  0  0  0  0
 24  5  1  0  0  0  0
 27 26  1  1  0  0  0
 29 27  1  0  0  0  0
 29 28  1  1  0  0  0
 30 32  1  0  0  0  0
 30 29  1  0  0  0  0
 31 40  1  6  0  0  0
 31 39  1  0  0  0  0
 32 35  1  0  0  0  0
 32 33  1  0  0  0  0
 33 36  1  6  0  0  0
 33 31  1  0  0  0  0
 34 38  2  0  0  0  0
 35 40  1  0  0  0  0
 37 35  2  0  0  0  0
 38 31  1  0  0  0  0
 38 39  1  0  0  0  0
 42 41  1  0  0  0  0
 42 44  1  0  0  0  0
 43 42  2  0  0  0  0
M  END
>  <MODEL>
9

>  <REMARK>
 VINA RESULT:      -6.2      4.056      9.349
  Name = 
  6 active torsions:
  status: ('A' for Active; 'I' for Inactive)
    1  A    between atoms: C_7  and  C_25
    2  A    between atoms: C_9  and  C_32
    3  A    between atoms: N_12  and  C_27
    4  A    between atoms: C_14  and  C_32
    5  A    between atoms: C_18  and  C_25
    6  A    between atoms: C_18  and  C_27
                            x       y       z     vdW  Elec       q    Type
                         _______ _______ _______ _____ _____    ______ ____

>  <TORSDO>
F 6

$$$$
