=
 OpenBabel11062416033D

 36 39  0  0  1  0  0  0  0  0999 V2000
  191.1350  177.2990  140.6770 C   0  0  0  0  0  0  0  0  0  0  0  0
  188.9970  176.8780  138.3270 C   0  0  2  0  0  3  0  0  0  0  0  0
  189.6700  177.5540  140.6590 C   0  0  2  0  0  3  0  0  0  0  0  0
  191.8690  177.0190  139.6390 N   0  0  0  0  0  0  0  0  0  0  0  0
  189.2950  177.4580  142.1270 C   0  0  1  0  0  3  0  0  0  0  0  0
  191.3720  176.7680  138.2800 C   0  0  0  0  0  2  0  0  0  0  0  0
  191.6820  177.3830  141.9770 N   0  0  0  0  0  2  0  0  0  0  0  0
  188.9350  176.5180  139.8210 C   0  0  0  0  0  2  0  0  0  0  0  0
  190.6090  177.6490  142.9240 C   0  0  1  0  0  0  0  0  0  0  0  0
  190.2200  177.6080  137.9690 N   0  0  0  0  0  2  0  0  0  0  0  0
  190.7300  178.9590  143.4010 O   0  0  0  0  0  1  0  0  0  0  0  0
  186.5360  177.0450  137.7650 N   0  0  0  0  0  2  0  0  0  0  0  0
  187.8000  177.6870  137.9540 C   0  0  0  0  0  0  0  0  0  0  0  0
  187.9210  178.9300  137.7810 O   0  0  0  0  0  0  0  0  0  0  0  0
  183.3300  175.8220  137.9590 O   0  0  0  0  0  0  0  0  0  0  0  0
  183.5780  177.7080  135.7190 F   0  0  0  0  0  0  0  0  0  0  0  0
  184.6280  176.9700  136.2340 C   0  0  2  0  0  3  0  0  0  0  0  0
  184.1170  175.6380  136.7820 C   0  0  0  0  0  2  0  0  0  0  0  0
  183.0740  176.7640  140.0360 O   0  0  0  0  0  0  0  0  0  0  0  0
  185.3420  177.7590  137.3340 C   0  0  1  0  0  3  0  0  0  0  0  0
  184.4150  178.0280  138.5220 C   0  0  0  0  0  2  0  0  0  0  0  0
  183.6010  176.8240  138.8960 C   0  0  0  0  0  0  0  0  0  0  0  0
  190.6490  176.6440  144.0750 C   0  0  0  0  0  2  0  0  0  0  0  0
  191.5990  177.0580  145.1960 C   0  0  0  0  0  2  0  0  0  0  0  0
  191.9510  175.8660  147.3650 C   0  0  0  0  0  1  0  0  0  0  0  0
  191.0100  176.7520  146.5660 C   0  0  0  0  0  2  0  0  0  0  0  0
  188.2010  178.4670  142.4670 C   0  0  0  0  0  2  0  0  0  0  0  0
  186.7470  178.2320  144.4810 C   0  0  2  0  0  3  0  0  0  0  0  0
  186.9770  177.7650  143.0290 C   0  0  1  0  0  3  0  0  0  0  0  0
  187.5980  177.1520  145.6120 Cl  0  0  0  0  0  0  0  0  0  0  0  0
  183.7720  179.2110  141.7160 F   0  0  0  0  0  0  0  0  0  0  0  0
  185.7750  177.9780  142.0860 C   0  0  0  0  0  2  0  0  0  0  0  0
  184.8480  179.0890  142.5750 C   0  0  2  0  0  3  0  0  0  0  0  0
  185.2920  178.3230  144.8590 C   0  0  0  0  0  3  0  0  0  0  0  0
  182.6970  178.8460  144.4260 Cl  0  0  0  0  0  0  0  0  0  0  0  0
  184.3930  178.7620  143.9710 C   0  0  0  0  0  0  0  0  0  0  0  0
  1  7  1  0  0  0  0
  2 13  1  1  0  0  0
  2  8  1  0  0  0  0
  3  8  1  6  0  0  0
  3  1  1  0  0  0  0
  3  5  1  0  0  0  0
  4  1  2  0  0  0  0
  5 27  1  1  0  0  0
  5  9  1  0  0  0  0
  6  4  1  0  0  0  0
  7  9  1  0  0  0  0
  9 11  1  1  0  0  0
  9 23  1  0  0  0  0
 10  6  1  0  0  0  0
 10  2  1  0  0  0  0
 12 13  1  0  0  0  0
 14 13  2  0  0  0  0
 15 22  1  0  0  0  0
 17 16  1  1  0  0  0
 17 18  1  0  0  0  0
 17 20  1  0  0  0  0
 18 15  1  0  0  0  0
 20 12  1  1  0  0  0
 20 21  1  0  0  0  0
 21 22  1  0  0  0  0
 22 19  2  0  0  0  0
 23 24  1  0  0  0  0
 24 26  1  0  0  0  0
 26 25  1  0  0  0  0
 28 34  1  0  0  0  0
 28 30  1  1  0  0  0
 29 27  1  6  0  0  0
 29 28  1  0  0  0  0
 32 33  1  0  0  0  0
 32 29  1  0  0  0  0
 33 31  1  6  0  0  0
 33 36  1  0  0  0  0
 36 35  1  0  0  0  0
 36 34  2  0  0  0  0
M  END
>  <MODEL>
1

>  <REMARK>
 VINA RESULT:      -8.3      0.000      0.000
  Name = 
  7 active torsions:
  status: ('A' for Active; 'I' for Inactive)
    1  A    between atoms: C_3  and  C_16
    2  A    between atoms: C_6  and  C_23
    3  A    between atoms: C_6  and  C_28
    4  A    between atoms: N_8  and  C_20
    5  A    between atoms: C_9  and  C_31
    6  A    between atoms: C_18  and  C_31
    7  A    between atoms: C_28  and  C_30
                            x       y       z     vdW  Elec       q    Type
                         _______ _______ _______ _____ _____    ______ ____

>  <TORSDO>
F 7

$$$$
=
 OpenBabel11062416033D

 36 39  0  0  1  0  0  0  0  0999 V2000
  191.2040  177.4980  141.5530 C   0  0  0  0  0  0  0  0  0  0  0  0
  189.4620  176.8870  138.9340 C   0  0  2  0  0  3  0  0  0  0  0  0
  189.7500  177.6820  141.3070 C   0  0  2  0  0  3  0  0  0  0  0  0
  192.0960  177.2140  140.6470 N   0  0  0  0  0  0  0  0  0  0  0  0
  189.1630  177.6240  142.7070 C   0  0  1  0  0  3  0  0  0  0  0  0
  191.8200  176.8890  139.2430 C   0  0  0  0  0  2  0  0  0  0  0  0
  191.5470  177.6580  142.9140 N   0  0  0  0  0  2  0  0  0  0  0  0
  189.1920  176.5810  140.4170 C   0  0  0  0  0  2  0  0  0  0  0  0
  190.3350  177.9070  143.6790 C   0  0  1  0  0  0  0  0  0  0  0  0
  190.6930  177.6600  138.7280 N   0  0  0  0  0  2  0  0  0  0  0  0
  190.3280  179.2400  144.1100 O   0  0  0  0  0  1  0  0  0  0  0  0
  187.2440  176.8990  137.7160 N   0  0  0  0  0  2  0  0  0  0  0  0
  188.3010  177.6220  138.3530 C   0  0  0  0  0  0  0  0  0  0  0  0
  188.2770  178.8820  138.4030 O   0  0  0  0  0  0  0  0  0  0  0  0
  184.5870  175.2700  136.2680 O   0  0  0  0  0  0  0  0  0  0  0  0
  185.0580  177.8500  134.9430 F   0  0  0  0  0  0  0  0  0  0  0  0
  186.0340  177.1240  135.6010 C   0  0  2  0  0  3  0  0  0  0  0  0
  185.7360  175.6290  135.5000 C   0  0  0  0  0  2  0  0  0  0  0  0
  183.4270  175.3580  138.2470 O   0  0  0  0  0  0  0  0  0  0  0  0
  186.1150  177.5530  137.0670 C   0  0  1  0  0  3  0  0  0  0  0  0
  184.8140  177.2500  137.8130 C   0  0  0  0  0  2  0  0  0  0  0  0
  184.2640  175.8940  137.4770 C   0  0  0  0  0  0  0  0  0  0  0  0
  190.2440  176.9500  144.8680 C   0  0  0  0  0  2  0  0  0  0  0  0
  191.6110  176.5210  145.3940 C   0  0  0  0  0  2  0  0  0  0  0  0
  190.3160  176.9850  147.4810 C   0  0  0  0  0  1  0  0  0  0  0  0
  191.6370  176.4900  146.9160 C   0  0  0  0  0  2  0  0  0  0  0  0
  187.9890  178.5910  142.8360 C   0  0  0  0  0  2  0  0  0  0  0  0
  186.3000  178.4010  144.6630 C   0  0  2  0  0  3  0  0  0  0  0  0
  186.7360  177.8600  143.2850 C   0  0  1  0  0  3  0  0  0  0  0  0
  187.0460  177.4370  145.9600 Cl  0  0  0  0  0  0  0  0  0  0  0  0
  183.6650  179.0530  141.4860 F   0  0  0  0  0  0  0  0  0  0  0  0
  185.6570  177.9530  142.1860 C   0  0  0  0  0  2  0  0  0  0  0  0
  184.6270  179.0400  142.4790 C   0  0  2  0  0  3  0  0  0  0  0  0
  184.8060  178.4370  144.8470 C   0  0  0  0  0  3  0  0  0  0  0  0
  182.2680  178.7940  144.0570 Cl  0  0  0  0  0  0  0  0  0  0  0  0
  184.0110  178.7740  143.8260 C   0  0  0  0  0  0  0  0  0  0  0  0
  1  7  1  0  0  0  0
  2 13  1  1  0  0  0
  2  8  1  0  0  0  0
  3  8  1  6  0  0  0
  3  1  1  0  0  0  0
  3  5  1  0  0  0  0
  4  1  2  0  0  0  0
  5 27  1  6  0  0  0
  5  9  1  0  0  0  0
  6  4  1  0  0  0  0
  7  9  1  0  0  0  0
  9 11  1  1  0  0  0
  9 23  1  0  0  0  0
 10  2  1  0  0  0  0
 10  6  1  0  0  0  0
 12 13  1  0  0  0  0
 13 14  2  0  0  0  0
 15 22  1  0  0  0  0
 17 16  1  6  0  0  0
 17 20  1  0  0  0  0
 18 17  1  0  0  0  0
 18 15  1  0  0  0  0
 20 12  1  1  0  0  0
 20 21  1  0  0  0  0
 22 21  1  0  0  0  0
 22 19  2  0  0  0  0
 23 24  1  0  0  0  0
 24 26  1  0  0  0  0
 26 25  1  0  0  0  0
 28 34  1  0  0  0  0
 28 30  1  1  0  0  0
 29 27  1  6  0  0  0
 29 28  1  0  0  0  0
 32 33  1  0  0  0  0
 32 29  1  0  0  0  0
 33 31  1  6  0  0  0
 33 36  1  0  0  0  0
 36 35  1  0  0  0  0
 36 34  2  0  0  0  0
M  END
>  <MODEL>
2

>  <REMARK>
 VINA RESULT:      -8.0      0.923      1.082
  Name = 
  7 active torsions:
  status: ('A' for Active; 'I' for Inactive)
    1  A    between atoms: C_3  and  C_16
    2  A    between atoms: C_6  and  C_23
    3  A    between atoms: C_6  and  C_28
    4  A    between atoms: N_8  and  C_20
    5  A    between atoms: C_9  and  C_31
    6  A    between atoms: C_18  and  C_31
    7  A    between atoms: C_28  and  C_30
                            x       y       z     vdW  Elec       q    Type
                         _______ _______ _______ _____ _____    ______ ____

>  <TORSDO>
F 7

$$$$
=
 OpenBabel11062416033D

 36 39  0  0  1  0  0  0  0  0999 V2000
  186.6320  177.9570  145.2970 C   0  0  0  0  0  0  0  0  0  0  0  0
  184.3060  179.1780  143.4620 C   0  0  2  0  0  3  0  0  0  0  0  0
  186.5150  178.0200  143.8160 C   0  0  2  0  0  3  0  0  0  0  0  0
  185.6840  178.2360  146.1450 N   0  0  0  0  0  0  0  0  0  0  0  0
  187.9630  177.9610  143.3630 C   0  0  1  0  0  3  0  0  0  0  0  0
  184.3690  178.7950  145.8080 C   0  0  0  0  0  2  0  0  0  0  0  0
  187.9200  177.5570  145.7210 N   0  0  0  0  0  2  0  0  0  0  0  0
  185.8360  179.3050  143.3650 C   0  0  0  0  0  2  0  0  0  0  0  0
  188.7660  177.3770  144.5510 C   0  0  1  0  0  0  0  0  0  0  0  0
  183.8770  178.2740  144.5370 N   0  0  0  0  0  2  0  0  0  0  0  0
  189.0200  176.0120  144.3730 O   0  0  0  0  0  1  0  0  0  0  0  0
  182.3450  178.7220  141.9300 N   0  0  0  0  0  2  0  0  0  0  0  0
  183.7570  178.7070  142.1570 C   0  0  0  0  0  0  0  0  0  0  0  0
  184.5450  178.2710  141.2740 O   0  0  0  0  0  0  0  0  0  0  0  0
  179.3380  179.7760  140.6420 O   0  0  0  0  0  0  0  0  0  0  0  0
  179.8520  176.9790  139.9000 F   0  0  0  0  0  0  0  0  0  0  0  0
  180.3710  177.5930  141.0250 C   0  0  2  0  0  3  0  0  0  0  0  0
  179.4060  178.6630  141.5340 C   0  0  0  0  0  2  0  0  0  0  0  0
  180.4130  181.3600  139.3760 O   0  0  0  0  0  0  0  0  0  0  0  0
  181.7340  178.2130  140.7090 C   0  0  1  0  0  3  0  0  0  0  0  0
  181.6170  179.3220  139.6610 C   0  0  0  0  0  2  0  0  0  0  0  0
  180.4440  180.2240  139.9120 C   0  0  0  0  0  0  0  0  0  0  0  0
  190.0710  178.1580  144.7090 C   0  0  0  0  0  2  0  0  0  0  0  0
  191.2620  177.2670  145.0510 C   0  0  0  0  0  2  0  0  0  0  0  0
  192.0990  175.6980  146.8080 C   0  0  0  0  0  1  0  0  0  0  0  0
  191.3350  176.9850  146.5450 C   0  0  0  0  0  2  0  0  0  0  0  0
  188.0870  177.1620  142.0670 C   0  0  0  0  0  2  0  0  0  0  0  0
  189.9890  177.1210  140.4530 C   0  0  2  0  0  3  0  0  0  0  0  0
  188.8230  177.9650  141.0080 C   0  0  1  0  0  3  0  0  0  0  0  0
  191.4700  177.4370  141.3890 Cl  0  0  0  0  0  0  0  0  0  0  0  0
  186.9480  178.1000  137.7590 F   0  0  0  0  0  0  0  0  0  0  0  0
  187.8240  178.4620  139.9440 C   0  0  0  0  0  2  0  0  0  0  0  0
  187.8300  177.5870  138.6920 C   0  0  2  0  0  3  0  0  0  0  0  0
  190.2510  177.3510  138.9880 C   0  0  0  0  0  3  0  0  0  0  0  0
  189.5580  177.8210  136.4390 Cl  0  0  0  0  0  0  0  0  0  0  0  0
  189.2310  177.5380  138.1440 C   0  0  0  0  0  0  0  0  0  0  0  0
  1  7  1  0  0  0  0
  1  4  2  0  0  0  0
  2 13  1  6  0  0  0
  2 10  1  0  0  0  0
  3  8  1  1  0  0  0
  3  1  1  0  0  0  0
  5 27  1  6  0  0  0
  5  3  1  0  0  0  0
  5  9  1  0  0  0  0
  6  4  1  0  0  0  0
  8  2  1  0  0  0  0
  9 11  1  6  0  0  0
  9 23  1  0  0  0  0
  9  7  1  0  0  0  0
 10  6  1  0  0  0  0
 12 13  1  0  0  0  0
 14 13  2  0  0  0  0
 15 18  1  0  0  0  0
 17 16  1  6  0  0  0
 17 18  1  0  0  0  0
 19 22  2  0  0  0  0
 20 17  1  0  0  0  0
 20 12  1  1  0  0  0
 21 22  1  0  0  0  0
 21 20  1  0  0  0  0
 22 15  1  0  0  0  0
 23 24  1  0  0  0  0
 24 26  1  0  0  0  0
 26 25  1  0  0  0  0
 28 29  1  0  0  0  0
 28 30  1  1  0  0  0
 29 27  1  1  0  0  0
 32 29  1  0  0  0  0
 33 31  1  6  0  0  0
 33 32  1  0  0  0  0
 34 28  1  0  0  0  0
 35 36  1  0  0  0  0
 36 33  1  0  0  0  0
 36 34  2  0  0  0  0
M  END
>  <MODEL>
3

>  <REMARK>
 VINA RESULT:      -7.8      3.792      5.746
  Name = 
  7 active torsions:
  status: ('A' for Active; 'I' for Inactive)
    1  A    between atoms: C_3  and  C_16
    2  A    between atoms: C_6  and  C_23
    3  A    between atoms: C_6  and  C_28
    4  A    between atoms: N_8  and  C_20
    5  A    between atoms: C_9  and  C_31
    6  A    between atoms: C_18  and  C_31
    7  A    between atoms: C_28  and  C_30
                            x       y       z     vdW  Elec       q    Type
                         _______ _______ _______ _____ _____    ______ ____

>  <TORSDO>
F 7

$$$$
=
 OpenBabel11062416033D

 36 39  0  0  1  0  0  0  0  0999 V2000
  184.5620  178.5430  145.0630 C   0  0  0  0  0  0  0  0  0  0  0  0
  183.8810  179.2960  142.0230 C   0  0  2  0  0  3  0  0  0  0  0  0
  185.3160  178.2570  143.8140 C   0  0  2  0  0  3  0  0  0  0  0  0
  183.3480  179.0110  145.1250 N   0  0  0  0  0  0  0  0  0  0  0  0
  186.7410  178.0950  144.3140 C   0  0  1  0  0  3  0  0  0  0  0  0
  182.5470  179.4730  143.9840 C   0  0  0  0  0  2  0  0  0  0  0  0
  185.3110  178.2550  146.2260 N   0  0  0  0  0  2  0  0  0  0  0  0
  185.1950  179.3990  142.8160 C   0  0  0  0  0  2  0  0  0  0  0  0
  186.6390  177.8070  145.8320 C   0  0  1  0  0  0  0  0  0  0  0  0
  182.8000  178.6680  142.7930 N   0  0  0  0  0  2  0  0  0  0  0  0
  186.7610  176.4390  146.1000 O   0  0  0  0  0  1  0  0  0  0  0  0
  183.0740  177.7080  140.2270 N   0  0  0  0  0  2  0  0  0  0  0  0
  184.1130  178.5310  140.7630 C   0  0  0  0  0  0  0  0  0  0  0  0
  185.2380  178.5960  140.1970 O   0  0  0  0  0  0  0  0  0  0  0  0
  180.5740  176.8460  138.0310 O   0  0  0  0  0  0  0  0  0  0  0  0
  182.6510  174.7680  138.0930 F   0  0  0  0  0  0  0  0  0  0  0  0
  182.3790  175.6270  139.1420 C   0  0  2  0  0  3  0  0  0  0  0  0
  180.8990  176.0080  139.1400 C   0  0  0  0  0  2  0  0  0  0  0  0
  181.0410  178.6890  136.7450 O   0  0  0  0  0  0  0  0  0  0  0  0
  183.2510  176.8800  139.0410 C   0  0  1  0  0  3  0  0  0  0  0  0
  182.9410  177.6800  137.7740 C   0  0  0  0  0  2  0  0  0  0  0  0
  181.4670  177.7920  137.5150 C   0  0  0  0  0  0  0  0  0  0  0  0
  187.7140  178.6060  146.5690 C   0  0  0  0  0  2  0  0  0  0  0  0
  187.8010  178.2610  148.0530 C   0  0  0  0  0  2  0  0  0  0  0  0
  189.9720  177.1440  147.5180 C   0  0  0  0  0  1  0  0  0  0  0  0
  189.2440  178.0540  148.4930 C   0  0  0  0  0  2  0  0  0  0  0  0
  187.4690  177.0160  143.5160 C   0  0  0  0  0  2  0  0  0  0  0  0
  189.7480  176.4130  142.6980 C   0  0  2  0  0  3  0  0  0  0  0  0
  188.7450  177.5670  142.9040 C   0  0  1  0  0  3  0  0  0  0  0  0
  190.7860  176.2430  144.1350 Cl  0  0  0  0  0  0  0  0  0  0  0  0
  188.3660  178.3190  139.2460 F   0  0  0  0  0  0  0  0  0  0  0  0
  188.4090  178.3630  141.6270 C   0  0  0  0  0  2  0  0  0  0  0  0
  188.6460  177.5460  140.3580 C   0  0  2  0  0  3  0  0  0  0  0  0
  190.6010  176.5710  141.4680 C   0  0  0  0  0  3  0  0  0  0  0  0
  191.0910  177.2680  138.9240 Cl  0  0  0  0  0  0  0  0  0  0  0  0
  190.0750  177.0750  140.3460 C   0  0  0  0  0  0  0  0  0  0  0  0
  1  4  2  0  0  0  0
  1  7  1  0  0  0  0
  2 13  1  6  0  0  0
  2 10  1  0  0  0  0
  2  8  1  0  0  0  0
  3  8  1  6  0  0  0
  3  5  1  0  0  0  0
  3  1  1  0  0  0  0
  5 27  1  6  0  0  0
  5  9  1  0  0  0  0
  6  4  1  0  0  0  0
  9 11  1  1  0  0  0
  9  7  1  0  0  0  0
  9 23  1  0  0  0  0
 10  6  1  0  0  0  0
 12 13  1  0  0  0  0
 14 13  2  0  0  0  0
 15 18  1  0  0  0  0
 17 16  1  6  0  0  0
 18 17  1  0  0  0  0
 19 22  2  0  0  0  0
 20 17  1  0  0  0  0
 20 12  1  1  0  0  0
 21 20  1  0  0  0  0
 22 21  1  0  0  0  0
 22 15  1  0  0  0  0
 23 24  1  0  0  0  0
 24 26  1  0  0  0  0
 25 26  1  0  0  0  0
 28 29  1  0  0  0  0
 28 30  1  1  0  0  0
 29 27  1  6  0  0  0
 32 29  1  0  0  0  0
 33 31  1  6  0  0  0
 33 32  1  0  0  0  0
 34 28  1  0  0  0  0
 35 36  1  0  0  0  0
 36 33  1  0  0  0  0
 36 34  2  0  0  0  0
M  END
>  <MODEL>
4

>  <REMARK>
 VINA RESULT:      -7.8      3.614      5.499
  Name = 
  7 active torsions:
  status: ('A' for Active; 'I' for Inactive)
    1  A    between atoms: C_3  and  C_16
    2  A    between atoms: C_6  and  C_23
    3  A    between atoms: C_6  and  C_28
    4  A    between atoms: N_8  and  C_20
    5  A    between atoms: C_9  and  C_31
    6  A    between atoms: C_18  and  C_31
    7  A    between atoms: C_28  and  C_30
                            x       y       z     vdW  Elec       q    Type
                         _______ _______ _______ _____ _____    ______ ____

>  <TORSDO>
F 7

$$$$
=
 OpenBabel11062416033D

 36 39  0  0  1  0  0  0  0  0999 V2000
  186.0470  178.5360  140.0190 C   0  0  0  0  0  0  0  0  0  0  0  0
  188.9610  178.1730  138.7360 C   0  0  2  0  0  3  0  0  0  0  0  0
  187.3140  178.0680  140.6400 C   0  0  2  0  0  3  0  0  0  0  0  0
  185.8480  178.7140  138.7450 N   0  0  0  0  0  0  0  0  0  0  0  0
  187.1060  178.3900  142.1100 C   0  0  1  0  0  3  0  0  0  0  0  0
  186.8700  178.6210  137.6950 C   0  0  0  0  0  2  0  0  0  0  0  0
  185.0360  178.7860  140.9750 N   0  0  0  0  0  2  0  0  0  0  0  0
  188.5180  178.8020  140.0680 C   0  0  0  0  0  2  0  0  0  0  0  0
  185.5790  178.5540  142.3060 C   0  0  1  0  0  0  0  0  0  0  0  0
  187.8450  177.5760  137.9910 N   0  0  0  0  0  2  0  0  0  0  0  0
  185.0070  177.3920  142.8390 O   0  0  0  0  0  1  0  0  0  0  0  0
  190.7760  176.6190  137.9040 N   0  0  0  0  0  2  0  0  0  0  0  0
  190.0070  177.1390  138.9910 C   0  0  0  0  0  0  0  0  0  0  0  0
  190.1830  176.7120  140.1640 O   0  0  0  0  0  0  0  0  0  0  0  0
  193.0220  175.6300  135.4980 O   0  0  0  0  0  0  0  0  0  0  0  0
  192.3640  173.3850  137.2770 F   0  0  0  0  0  0  0  0  0  0  0  0
  191.5250  174.4570  137.0340 C   0  0  2  0  0  3  0  0  0  0  0  0
  191.7500  174.9940  135.6220 C   0  0  0  0  0  2  0  0  0  0  0  0
  194.5710  177.1220  136.3020 O   0  0  0  0  0  0  0  0  0  0  0  0
  191.7640  175.5610  138.0670 C   0  0  1  0  0  3  0  0  0  0  0  0
  193.1820  176.1270  137.9660 C   0  0  0  0  0  2  0  0  0  0  0  0
  193.6080  176.3500  136.5440 C   0  0  0  0  0  0  0  0  0  0  0  0
  185.3140  179.7570  143.2100 C   0  0  0  0  0  2  0  0  0  0  0  0
  184.2030  179.5070  144.2270 C   0  0  0  0  0  2  0  0  0  0  0  0
  181.8750  178.6280  143.9870 C   0  0  0  0  0  1  0  0  0  0  0  0
  182.8290  179.7530  143.6210 C   0  0  0  0  0  2  0  0  0  0  0  0
  187.7420  177.3160  142.9890 C   0  0  0  0  0  2  0  0  0  0  0  0
  188.0430  177.2440  145.4650 C   0  0  2  0  0  3  0  0  0  0  0  0
  188.4770  177.9440  144.1600 C   0  0  1  0  0  3  0  0  0  0  0  0
  186.6530  178.0970  146.1800 Cl  0  0  0  0  0  0  0  0  0  0  0  0
  192.0530  176.8220  144.3700 F   0  0  0  0  0  0  0  0  0  0  0  0
  189.9960  177.9230  143.8930 C   0  0  0  0  0  2  0  0  0  0  0  0
  190.6930  176.7700  144.6110 C   0  0  2  0  0  3  0  0  0  0  0  0
  189.1490  177.1280  146.4790 C   0  0  0  0  0  3  0  0  0  0  0  0
  191.6800  176.7520  147.2830 Cl  0  0  0  0  0  0  0  0  0  0  0  0
  190.4000  176.8680  146.0840 C   0  0  0  0  0  0  0  0  0  0  0  0
  1  3  1  0  0  0  0
  1  7  1  0  0  0  0
  2 13  1  1  0  0  0
  2  8  1  0  0  0  0
  3  8  1  6  0  0  0
  3  5  1  0  0  0  0
  4  1  2  0  0  0  0
  5  9  1  0  0  0  0
  5 27  1  1  0  0  0
  6 10  1  0  0  0  0
  6  4  1  0  0  0  0
  7  9  1  0  0  0  0
  9 11  1  1  0  0  0
  9 23  1  0  0  0  0
 10  2  1  0  0  0  0
 12 13  1  0  0  0  0
 13 14  2  0  0  0  0
 15 18  1  0  0  0  0
 15 22  1  0  0  0  0
 17 16  1  1  0  0  0
 17 20  1  0  0  0  0
 18 17  1  0  0  0  0
 19 22  2  0  0  0  0
 20 12  1  6  0  0  0
 21 20  1  0  0  0  0
 22 21  1  0  0  0  0
 23 24  1  0  0  0  0
 26 25  1  0  0  0  0
 26 24  1  0  0  0  0
 28 30  1  1  0  0  0
 28 34  1  0  0  0  0
 29 27  1  6  0  0  0
 29 28  1  0  0  0  0
 32 29  1  0  0  0  0
 32 33  1  0  0  0  0
 33 31  1  1  0  0  0
 33 36  1  0  0  0  0
 36 34  2  0  0  0  0
 36 35  1  0  0  0  0
M  END
>  <MODEL>
5

>  <REMARK>
 VINA RESULT:      -7.7      3.412      6.619
  Name = 
  7 active torsions:
  status: ('A' for Active; 'I' for Inactive)
    1  A    between atoms: C_3  and  C_16
    2  A    between atoms: C_6  and  C_23
    3  A    between atoms: C_6  and  C_28
    4  A    between atoms: N_8  and  C_20
    5  A    between atoms: C_9  and  C_31
    6  A    between atoms: C_18  and  C_31
    7  A    between atoms: C_28  and  C_30
                            x       y       z     vdW  Elec       q    Type
                         _______ _______ _______ _____ _____    ______ ____

>  <TORSDO>
F 7

$$$$
=
 OpenBabel11062416033D

 36 39  0  0  1  0  0  0  0  0999 V2000
  186.6410  177.9920  144.3230 C   0  0  0  0  0  0  0  0  0  0  0  0
  184.6930  179.0950  142.0290 C   0  0  2  0  0  3  0  0  0  0  0  0
  186.7920  177.9650  142.8440 C   0  0  2  0  0  3  0  0  0  0  0  0
  185.5580  178.3200  144.9680 N   0  0  0  0  0  0  0  0  0  0  0  0
  188.2980  177.8820  142.6630 C   0  0  1  0  0  3  0  0  0  0  0  0
  184.3290  178.8540  144.3670 C   0  0  0  0  0  2  0  0  0  0  0  0
  187.8270  177.6210  144.9950 N   0  0  0  0  0  2  0  0  0  0  0  0
  186.2170  179.2190  142.2020 C   0  0  0  0  0  2  0  0  0  0  0  0
  188.8690  177.3730  144.0100 C   0  0  1  0  0  0  0  0  0  0  0  0
  184.0700  178.2560  143.0610 N   0  0  0  0  0  2  0  0  0  0  0  0
  189.1390  176.0000  143.9620 O   0  0  0  0  0  1  0  0  0  0  0  0
  183.3720  177.5450  140.5280 N   0  0  0  0  0  2  0  0  0  0  0  0
  184.3840  178.5450  140.6770 C   0  0  0  0  0  0  0  0  0  0  0  0
  185.0410  178.9470  139.6790 O   0  0  0  0  0  0  0  0  0  0  0  0
  180.2250  177.2560  139.1780 O   0  0  0  0  0  0  0  0  0  0  0  0
  181.9360  175.0410  138.2830 F   0  0  0  0  0  0  0  0  0  0  0  0
  182.1150  175.7330  139.4670 C   0  0  2  0  0  3  0  0  0  0  0  0
  180.7700  176.2240  139.9990 C   0  0  0  0  0  2  0  0  0  0  0  0
  180.4980  179.2440  138.0620 O   0  0  0  0  0  0  0  0  0  0  0  0
  183.0650  176.9130  139.2520 C   0  0  1  0  0  3  0  0  0  0  0  0
  182.4790  177.9330  138.2720 C   0  0  0  0  0  2  0  0  0  0  0  0
  181.0250  178.2010  138.5270 C   0  0  0  0  0  0  0  0  0  0  0  0
  190.1310  178.1650  144.3530 C   0  0  0  0  0  2  0  0  0  0  0  0
  191.2510  177.2910  144.9090 C   0  0  0  0  0  2  0  0  0  0  0  0
  192.0550  176.0020  146.8950 C   0  0  0  0  0  1  0  0  0  0  0  0
  191.0950  177.0740  146.4080 C   0  0  0  0  0  2  0  0  0  0  0  0
  188.6460  177.0080  141.4610 C   0  0  0  0  0  2  0  0  0  0  0  0
  190.4230  177.0730  139.7110 C   0  0  2  0  0  3  0  0  0  0  0  0
  189.2450  177.8430  140.3430 C   0  0  1  0  0  3  0  0  0  0  0  0
  191.9430  177.5040  140.5320 Cl  0  0  0  0  0  0  0  0  0  0  0  0
  187.1330  177.8000  137.2400 F   0  0  0  0  0  0  0  0  0  0  0  0
  188.1380  178.2540  139.3500 C   0  0  0  0  0  2  0  0  0  0  0  0
  188.1150  177.3630  138.1100 C   0  0  2  0  0  3  0  0  0  0  0  0
  190.5610  177.2990  138.2290 C   0  0  0  0  0  3  0  0  0  0  0  0
  189.6530  177.6820  135.7340 Cl  0  0  0  0  0  0  0  0  0  0  0  0
  189.4710  177.4020  137.4600 C   0  0  0  0  0  0  0  0  0  0  0  0
  1  4  2  0  0  0  0
  1  7  1  0  0  0  0
  2 13  1  6  0  0  0
  2  8  1  0  0  0  0
  2 10  1  0  0  0  0
  3  8  1  6  0  0  0
  3  1  1  0  0  0  0
  5 27  1  6  0  0  0
  5  3  1  0  0  0  0
  5  9  1  0  0  0  0
  6  4  1  0  0  0  0
  9 11  1  6  0  0  0
  9 23  1  0  0  0  0
  9  7  1  0  0  0  0
 10  6  1  0  0  0  0
 12 13  1  0  0  0  0
 14 13  2  0  0  0  0
 15 18  1  0  0  0  0
 17 16  1  6  0  0  0
 17 18  1  0  0  0  0
 19 22  2  0  0  0  0
 20 17  1  0  0  0  0
 20 12  1  1  0  0  0
 21 22  1  0  0  0  0
 21 20  1  0  0  0  0
 22 15  1  0  0  0  0
 23 24  1  0  0  0  0
 24 26  1  0  0  0  0
 26 25  1  0  0  0  0
 28 29  1  0  0  0  0
 28 30  1  1  0  0  0
 29 27  1  1  0  0  0
 32 29  1  0  0  0  0
 33 31  1  6  0  0  0
 33 32  1  0  0  0  0
 34 28  1  0  0  0  0
 35 36  1  0  0  0  0
 36 33  1  0  0  0  0
 36 34  2  0  0  0  0
M  END
>  <MODEL>
6

>  <REMARK>
 VINA RESULT:      -7.7      3.448      5.214
  Name = 
  7 active torsions:
  status: ('A' for Active; 'I' for Inactive)
    1  A    between atoms: C_3  and  C_16
    2  A    between atoms: C_6  and  C_23
    3  A    between atoms: C_6  and  C_28
    4  A    between atoms: N_8  and  C_20
    5  A    between atoms: C_9  and  C_31
    6  A    between atoms: C_18  and  C_31
    7  A    between atoms: C_28  and  C_30
                            x       y       z     vdW  Elec       q    Type
                         _______ _______ _______ _____ _____    ______ ____

>  <TORSDO>
F 7

$$$$
=
 OpenBabel11062416033D

 36 39  0  0  1  0  0  0  0  0999 V2000
  184.8610  178.5750  144.5800 C   0  0  0  0  0  0  0  0  0  0  0  0
  186.9100  177.5490  146.8200 C   0  0  2  0  0  3  0  0  0  0  0  0
  186.3130  178.2690  144.4810 C   0  0  2  0  0  3  0  0  0  0  0  0
  184.1780  178.6590  145.6850 N   0  0  0  0  0  0  0  0  0  0  0  0
  186.4860  177.9420  143.0080 C   0  0  1  0  0  3  0  0  0  0  0  0
  184.6750  178.3330  147.0280 C   0  0  0  0  0  2  0  0  0  0  0  0
  184.2620  178.7700  143.3150 N   0  0  0  0  0  2  0  0  0  0  0  0
  186.6950  177.0920  145.3670 C   0  0  0  0  0  2  0  0  0  0  0  0
  185.2630  178.5540  142.2820 C   0  0  1  0  0  0  0  0  0  0  0  0
  186.0780  178.7030  147.1830 N   0  0  0  0  0  2  0  0  0  0  0  0
  185.5850  179.7810  141.6880 O   0  0  0  0  0  1  0  0  0  0  0  0
  189.3510  177.2650  146.2190 N   0  0  0  0  0  2  0  0  0  0  0  0
  188.3490  177.8770  147.0360 C   0  0  0  0  0  0  0  0  0  0  0  0
  188.6720  178.6720  147.9600 O   0  0  0  0  0  0  0  0  0  0  0  0
  191.7340  174.7900  146.3020 O   0  0  0  0  0  0  0  0  0  0  0  0
  192.5670  177.0750  147.9510 F   0  0  0  0  0  0  0  0  0  0  0  0
  191.2500  176.7540  147.6760 C   0  0  2  0  0  3  0  0  0  0  0  0
  191.1030  175.2430  147.5000 C   0  0  0  0  0  2  0  0  0  0  0  0
  192.0720  175.0110  144.0420 O   0  0  0  0  0  0  0  0  0  0  0  0
  190.7780  177.4840  146.4170 C   0  0  1  0  0  3  0  0  0  0  0  0
  191.5680  177.0440  145.1830 C   0  0  0  0  0  2  0  0  0  0  0  0
  191.7700  175.5580  145.1330 C   0  0  0  0  0  0  0  0  0  0  0  0
  184.7500  177.5610  141.2380 C   0  0  0  0  0  2  0  0  0  0  0  0
  183.3450  177.8910  140.7410 C   0  0  0  0  0  2  0  0  0  0  0  0
  183.2460  179.7530  139.0750 C   0  0  0  0  0  1  0  0  0  0  0  0
  183.3490  178.2480  139.2610 C   0  0  0  0  0  2  0  0  0  0  0  0
  187.8360  178.4470  142.5030 C   0  0  0  0  0  2  0  0  0  0  0  0
  188.6000  178.2710  140.1340 C   0  0  2  0  0  3  0  0  0  0  0  0
  188.4060  177.5030  141.4580 C   0  0  1  0  0  3  0  0  0  0  0  0
  187.1390  178.1290  139.1270 Cl  0  0  0  0  0  0  0  0  0  0  0  0
  192.0630  176.8380  141.9810 F   0  0  0  0  0  0  0  0  0  0  0  0
  189.6830  176.8310  142.0050 C   0  0  0  0  0  2  0  0  0  0  0  0
  190.9540  177.5030  141.4920 C   0  0  2  0  0  3  0  0  0  0  0  0
  189.8050  177.8230  139.3520 C   0  0  0  0  0  3  0  0  0  0  0  0
  192.3270  176.9550  139.0560 Cl  0  0  0  0  0  0  0  0  0  0  0  0
  190.9340  177.4910  139.9870 C   0  0  0  0  0  0  0  0  0  0  0  0
  1  4  2  0  0  0  0
  2 13  1  6  0  0  0
  2 10  1  0  0  0  0
  3  1  1  0  0  0  0
  3  8  1  1  0  0  0
  4  6  1  0  0  0  0
  5 27  1  6  0  0  0
  5  3  1  0  0  0  0
  6 10  1  0  0  0  0
  7  1  1  0  0  0  0
  8  2  1  0  0  0  0
  9 11  1  6  0  0  0
  9  5  1  0  0  0  0
  9  7  1  0  0  0  0
 12 13  1  0  0  0  0
 13 14  2  0  0  0  0
 15 18  1  0  0  0  0
 17 16  1  6  0  0  0
 18 17  1  0  0  0  0
 19 22  2  0  0  0  0
 20 12  1  6  0  0  0
 20 17  1  0  0  0  0
 21 20  1  0  0  0  0
 22 21  1  0  0  0  0
 22 15  1  0  0  0  0
 23  9  1  0  0  0  0
 24 23  1  0  0  0  0
 25 26  1  0  0  0  0
 26 24  1  0  0  0  0
 28 30  1  6  0  0  0
 28 29  1  0  0  0  0
 29 32  1  0  0  0  0
 29 27  1  1  0  0  0
 33 31  1  1  0  0  0
 33 32  1  0  0  0  0
 34 36  2  0  0  0  0
 34 28  1  0  0  0  0
 35 36  1  0  0  0  0
 36 33  1  0  0  0  0
M  END
>  <MODEL>
7

>  <REMARK>
 VINA RESULT:      -7.4      4.195      8.955
  Name = 
  7 active torsions:
  status: ('A' for Active; 'I' for Inactive)
    1  A    between atoms: C_3  and  C_16
    2  A    between atoms: C_6  and  C_23
    3  A    between atoms: C_6  and  C_28
    4  A    between atoms: N_8  and  C_20
    5  A    between atoms: C_9  and  C_31
    6  A    between atoms: C_18  and  C_31
    7  A    between atoms: C_28  and  C_30
                            x       y       z     vdW  Elec       q    Type
                         _______ _______ _______ _____ _____    ______ ____

>  <TORSDO>
F 7

$$$$
=
 OpenBabel11062416033D

 36 39  0  0  1  0  0  0  0  0999 V2000
  190.6090  177.3820  140.4460 C   0  0  0  0  0  0  0  0  0  0  0  0
  190.0610  177.6470  143.5920 C   0  0  2  0  0  3  0  0  0  0  0  0
  189.3260  177.5040  141.1870 C   0  0  2  0  0  3  0  0  0  0  0  0
  191.7760  177.1680  140.9820 N   0  0  0  0  0  0  0  0  0  0  0  0
  188.3930  178.0970  140.1450 C   0  0  1  0  0  3  0  0  0  0  0  0
  192.0690  177.1440  142.4200 C   0  0  0  0  0  2  0  0  0  0  0  0
  190.4440  177.5300  139.0500 N   0  0  0  0  0  2  0  0  0  0  0  0
  189.4670  178.4140  142.3980 C   0  0  0  0  0  2  0  0  0  0  0  0
  189.0450  177.8160  138.7690 C   0  0  1  0  0  0  0  0  0  0  0  0
  190.9650  176.5650  143.1800 N   0  0  0  0  0  2  0  0  0  0  0  0
  188.4640  176.7030  138.1480 O   0  0  0  0  0  1  0  0  0  0  0  0
  188.9410  177.3380  145.8390 N   0  0  0  0  0  2  0  0  0  0  0  0
  188.9590  177.0910  144.4310 C   0  0  0  0  0  0  0  0  0  0  0  0
  188.0670  176.3820  143.8920 O   0  0  0  0  0  0  0  0  0  0  0  0
  187.4230  179.0180  148.4250 O   0  0  0  0  0  0  0  0  0  0  0  0
  187.5550  176.1400  149.0050 F   0  0  0  0  0  0  0  0  0  0  0  0
  188.4370  176.8080  148.1750 C   0  0  2  0  0  3  0  0  0  0  0  0
  188.6080  178.2530  148.6410 C   0  0  0  0  0  2  0  0  0  0  0  0
  185.7270  179.6790  147.0270 O   0  0  0  0  0  0  0  0  0  0  0  0
  187.9370  176.7710  146.7300 C   0  0  1  0  0  3  0  0  0  0  0  0
  186.6040  177.5070  146.5790 C   0  0  0  0  0  2  0  0  0  0  0  0
  186.5810  178.8070  147.3280 C   0  0  0  0  0  0  0  0  0  0  0  0
  188.9180  179.0600  137.8890 C   0  0  0  0  0  2  0  0  0  0  0  0
  188.6630  178.7280  136.4210 C   0  0  0  0  0  2  0  0  0  0  0  0
  186.7660  177.6070  135.2420 C   0  0  0  0  0  1  0  0  0  0  0  0
  187.1810  178.8020  136.0830 C   0  0  0  0  0  2  0  0  0  0  0  0
  186.9840  177.5290  140.3020 C   0  0  0  0  0  2  0  0  0  0  0  0
  184.6210  178.2870  140.0480 C   0  0  2  0  0  3  0  0  0  0  0  0
  185.9970  178.6270  140.6560 C   0  0  1  0  0  3  0  0  0  0  0  0
  184.4770  179.0020  138.4240 Cl  0  0  0  0  0  0  0  0  0  0  0  0
  184.8370  178.4090  144.2190 F   0  0  0  0  0  0  0  0  0  0  0  0
  185.9900  178.8490  142.1830 C   0  0  0  0  0  2  0  0  0  0  0  0
  184.8160  178.1460  142.8620 C   0  0  2  0  0  3  0  0  0  0  0  0
  183.4620  178.7250  140.9040 C   0  0  0  0  0  3  0  0  0  0  0  0
  182.1780  179.1600  143.2190 Cl  0  0  0  0  0  0  0  0  0  0  0  0
  183.5360  178.6280  142.2360 C   0  0  0  0  0  0  0  0  0  0  0  0
  1  4  2  0  0  0  0
  1  3  1  0  0  0  0
  2 13  1  6  0  0  0
  3  8  1  1  0  0  0
  4  6  1  0  0  0  0
  5 27  1  6  0  0  0
  5  3  1  0  0  0  0
  6 10  1  0  0  0  0
  7  1  1  0  0  0  0
  8  2  1  0  0  0  0
  9 11  1  6  0  0  0
  9  7  1  0  0  0  0
  9  5  1  0  0  0  0
 10  2  1  0  0  0  0
 13 12  1  0  0  0  0
 14 13  2  0  0  0  0
 15 18  1  0  0  0  0
 17 18  1  0  0  0  0
 17 16  1  1  0  0  0
 19 22  2  0  0  0  0
 20 12  1  6  0  0  0
 20 17  1  0  0  0  0
 21 20  1  0  0  0  0
 21 22  1  0  0  0  0
 22 15  1  0  0  0  0
 23  9  1  0  0  0  0
 24 23  1  0  0  0  0
 25 26  1  0  0  0  0
 26 24  1  0  0  0  0
 28 30  1  6  0  0  0
 28 29  1  0  0  0  0
 28 34  1  0  0  0  0
 29 27  1  1  0  0  0
 29 32  1  0  0  0  0
 32 33  1  0  0  0  0
 33 31  1  1  0  0  0
 34 36  2  0  0  0  0
 36 33  1  0  0  0  0
 36 35  1  0  0  0  0
M  END
>  <MODEL>
8

>  <REMARK>
 VINA RESULT:      -6.8      3.069      7.207
  Name = 
  7 active torsions:
  status: ('A' for Active; 'I' for Inactive)
    1  A    between atoms: C_3  and  C_16
    2  A    between atoms: C_6  and  C_23
    3  A    between atoms: C_6  and  C_28
    4  A    between atoms: N_8  and  C_20
    5  A    between atoms: C_9  and  C_31
    6  A    between atoms: C_18  and  C_31
    7  A    between atoms: C_28  and  C_30
                            x       y       z     vdW  Elec       q    Type
                         _______ _______ _______ _____ _____    ______ ____

>  <TORSDO>
F 7

$$$$
=
 OpenBabel11062416033D

 36 39  0  0  1  0  0  0  0  0999 V2000
  184.4490  178.5980  144.8800 C   0  0  0  0  0  0  0  0  0  0  0  0
  183.8360  179.2010  141.7930 C   0  0  2  0  0  3  0  0  0  0  0  0
  185.1390  178.1140  143.6550 C   0  0  2  0  0  3  0  0  0  0  0  0
  183.3130  179.2340  144.9090 N   0  0  0  0  0  0  0  0  0  0  0  0
  186.5350  177.7950  144.1610 C   0  0  1  0  0  3  0  0  0  0  0  0
  182.5670  179.7130  143.7380 C   0  0  0  0  0  2  0  0  0  0  0  0
  185.1680  178.3000  146.0590 N   0  0  0  0  0  2  0  0  0  0  0  0
  185.1630  179.1810  142.5710 C   0  0  0  0  0  2  0  0  0  0  0  0
  186.4150  177.6430  145.6970 C   0  0  1  0  0  0  0  0  0  0  0  0
  182.6890  178.7910  142.6140 N   0  0  0  0  0  2  0  0  0  0  0  0
  186.3510  176.2950  146.0720 O   0  0  0  0  0  1  0  0  0  0  0  0
  182.8390  177.4850  140.2240 N   0  0  0  0  0  2  0  0  0  0  0  0
  183.9410  178.3160  140.5960 C   0  0  0  0  0  0  0  0  0  0  0  0
  185.0170  178.2890  139.9380 O   0  0  0  0  0  0  0  0  0  0  0  0
  180.4550  177.1960  137.7660 O   0  0  0  0  0  0  0  0  0  0  0  0
  181.8100  174.6230  138.1920 F   0  0  0  0  0  0  0  0  0  0  0  0
  181.6880  175.6080  139.1560 C   0  0  2  0  0  3  0  0  0  0  0  0
  180.3950  176.3940  138.9450 C   0  0  0  0  0  2  0  0  0  0  0  0
  181.5820  178.7160  136.4660 O   0  0  0  0  0  0  0  0  0  0  0  0
  182.8950  176.5460  139.1110 C   0  0  1  0  0  3  0  0  0  0  0  0
  182.9750  177.2940  137.7780 C   0  0  0  0  0  2  0  0  0  0  0  0
  181.6370  177.8010  137.3260 C   0  0  0  0  0  0  0  0  0  0  0  0
  187.6010  178.3390  146.3650 C   0  0  0  0  0  2  0  0  0  0  0  0
  187.3440  178.6810  147.8300 C   0  0  0  0  0  2  0  0  0  0  0  0
  189.7180  178.2170  148.4620 C   0  0  0  0  0  1  0  0  0  0  0  0
  188.2620  177.8940  148.7550 C   0  0  0  0  0  2  0  0  0  0  0  0
  187.0950  176.5670  143.4480 C   0  0  0  0  0  2  0  0  0  0  0  0
  188.6590  178.3360  142.6410 C   0  0  2  0  0  3  0  0  0  0  0  0
  188.5040  176.8320  142.9470 C   0  0  1  0  0  3  0  0  0  0  0  0
  188.2430  178.6590  140.9410 Cl  0  0  0  0  0  0  0  0  0  0  0  0
  191.0350  176.8050  145.7180 F   0  0  0  0  0  0  0  0  0  0  0  0
  189.5300  176.2700  143.9530 C   0  0  0  0  0  2  0  0  0  0  0  0
  190.0960  177.3550  144.8660 C   0  0  2  0  0  3  0  0  0  0  0  0
  190.0340  178.8710  142.9410 C   0  0  0  0  0  3  0  0  0  0  0  0
  192.3170  179.0600  144.3380 Cl  0  0  0  0  0  0  0  0  0  0  0  0
  190.7050  178.4360  144.0130 C   0  0  0  0  0  0  0  0  0  0  0  0
  1  4  2  0  0  0  0
  1  7  1  0  0  0  0
  2 13  1  6  0  0  0
  2  8  1  0  0  0  0
  2 10  1  0  0  0  0
  3  8  1  6  0  0  0
  3  5  1  0  0  0  0
  3  1  1  0  0  0  0
  5 27  1  6  0  0  0
  5  9  1  0  0  0  0
  6  4  1  0  0  0  0
  9  7  1  0  0  0  0
  9 11  1  1  0  0  0
  9 23  1  0  0  0  0
 10  6  1  0  0  0  0
 12 13  1  0  0  0  0
 14 13  2  0  0  0  0
 15 18  1  0  0  0  0
 17 16  1  6  0  0  0
 18 17  1  0  0  0  0
 19 22  2  0  0  0  0
 20 17  1  0  0  0  0
 20 12  1  1  0  0  0
 21 20  1  0  0  0  0
 22 15  1  0  0  0  0
 22 21  1  0  0  0  0
 23 24  1  0  0  0  0
 24 26  1  0  0  0  0
 25 26  1  0  0  0  0
 28 30  1  6  0  0  0
 28 34  1  0  0  0  0
 28 29  1  0  0  0  0
 29 27  1  1  0  0  0
 29 32  1  0  0  0  0
 32 33  1  0  0  0  0
 33 31  1  1  0  0  0
 34 36  2  0  0  0  0
 36 35  1  0  0  0  0
 36 33  1  0  0  0  0
M  END
>  <MODEL>
9

>  <REMARK>
 VINA RESULT:      -6.6      3.918      5.682
  Name = 
  7 active torsions:
  status: ('A' for Active; 'I' for Inactive)
    1  A    between atoms: C_3  and  C_16
    2  A    between atoms: C_6  and  C_23
    3  A    between atoms: C_6  and  C_28
    4  A    between atoms: N_8  and  C_20
    5  A    between atoms: C_9  and  C_31
    6  A    between atoms: C_18  and  C_31
    7  A    between atoms: C_28  and  C_30
                            x       y       z     vdW  Elec       q    Type
                         _______ _______ _______ _____ _____    ______ ____

>  <TORSDO>
F 7

$$$$
