=
 OpenBabel11062417243D

 45 50  0  0  1  0  0  0  0  0999 V2000
  188.7240  176.1210  137.3180 C   0  0  0  0  0  0  0  0  0  0  0  0
  183.7360  176.8130  137.4500 C   0  0  0  0  0  3  0  0  0  0  0  0
  184.2430  177.4220  138.7380 C   0  0  1  0  0  3  0  0  0  0  0  0
  188.8540  179.2560  138.4180 O   0  0  0  0  0  1  0  0  0  0  0  0
  186.0140  176.2620  136.7350 C   0  0  0  0  0  0  0  0  0  0  0  0
  185.6210  178.5680  138.3450 S   0  0  0  0  0  0  0  0  0  0  0  0
  187.9310  177.1220  137.9660 C   0  0  0  0  0  0  0  0  0  0  0  0
  184.5560  176.2490  136.5560 C   0  0  0  0  0  3  0  0  0  0  0  0
  186.7750  175.3320  136.1270 C   0  0  0  0  0  3  0  0  0  0  0  0
  188.7900  177.9350  138.8640 C   0  0  1  0  0  0  0  0  0  0  0  0
  188.1570  175.2510  136.3850 O   0  0  0  0  0  0  0  0  0  0  0  0
  190.1800  177.2570  138.7070 C   0  0  2  0  0  3  0  0  0  0  0  0
  189.9840  176.1580  137.6960 C   0  0  0  0  0  3  0  0  0  0  0  0
  186.6310  177.2410  137.6760 C   0  0  0  0  0  0  0  0  0  0  0  0
  188.3120  177.8930  140.1640 F   0  0  0  0  0  0  0  0  0  0  0  0
  190.6480  176.6830  139.9630 N   0  0  0  0  0  2  0  0  0  0  0  0
  193.2410  177.1700  139.8190 S   0  0  0  0  0  0  0  0  0  0  0  0
  191.8190  177.1540  140.6330 C   0  0  0  0  0  0  0  0  0  0  0  0
  191.7320  177.6180  141.9870 N   0  0  0  0  0  2  0  0  0  0  0  0
  189.6060  177.1140  145.6450 C   0  0  0  0  0  2  0  0  0  0  0  0
  191.6370  176.6520  144.2320 C   0  0  0  0  0  2  0  0  0  0  0  0
  190.8360  177.0520  142.9830 C   0  0  1  0  0  3  0  0  0  0  0  0
  189.7020  178.0340  143.2860 C   0  0  0  0  0  2  0  0  0  0  0  0
  191.1210  177.2880  145.5250 C   0  0  0  0  0  2  0  0  0  0  0  0
  188.9210  177.5570  144.4260 N   0  0  0  0  0  0  0  0  0  0  0  0
  186.9010  177.9890  143.3280 O   0  0  0  0  0  0  0  0  0  0  0  0
  186.6620  177.1180  145.5200 C   0  0  0  0  0  1  0  0  0  0  0  0
  187.4870  177.5790  144.3650 C   0  0  0  0  0  0  0  0  0  0  0  0
  183.1510  178.0830  139.4720 N   0  0  0  0  0  0  0  0  0  0  0  0
  179.9340  180.8330  137.5760 C   0  0  0  0  0  2  0  0  0  0  0  0
  180.9230  178.6870  138.5980 C   0  0  2  0  0  0  0  0  0  0  0  0
  181.4790  179.9320  139.2540 C   0  0  1  0  0  3  0  0  0  0  0  0
  182.4270  178.9620  138.5420 C   0  0  1  0  0  3  0  0  0  0  0  0
  179.9840  179.0920  137.0890 S   0  0  0  0  0  0  0  0  0  0  0  0
  181.2010  181.1180  138.3510 C   0  0  0  0  0  2  0  0  0  0  0  0
  180.3330  177.7230  139.6360 C   0  0  1  0  0  3  0  0  0  0  0  0
  179.1040  178.3080  140.3150 C   0  0  0  0  0  1  0  0  0  0  0  0
  178.9400  176.2000  138.4510 O   0  0  0  0  0  0  0  0  0  0  0  0
  180.0250  176.3780  139.0620 C   0  0  0  0  0  0  0  0  0  0  0  0
  180.9510  175.3020  139.1800 N   0  0  0  0  0  1  0  0  0  0  0  0
  183.7740  178.9300  140.4930 C   0  0  0  0  0  2  0  0  0  0  0  0
  183.8360  178.1960  141.8240 C   0  0  0  0  0  2  0  0  0  0  0  0
  182.9730  178.8970  142.8590 C   0  0  0  0  0  2  0  0  0  0  0  0
  183.8400  179.5270  143.9340 C   0  0  0  0  0  2  0  0  0  0  0  0
  183.6010  178.8510  145.2710 C   0  0  0  0  0  1  0  0  0  0  0  0
  1 13  2  0  0  0  0
  1  7  1  0  0  0  0
  2  3  1  0  0  0  0
  3 29  1  6  0  0  0
  5 14  1  0  0  0  0
  6  3  1  0  0  0  0
  7 10  1  0  0  0  0
  8  5  1  0  0  0  0
  8  2  2  0  0  0  0
  9 11  1  0  0  0  0
  9  5  2  0  0  0  0
 10  4  1  6  0  0  0
 10 15  1  0  0  0  0
 11  1  1  0  0  0  0
 12 10  1  0  0  0  0
 12 16  1  1  0  0  0
 13 12  1  0  0  0  0
 14  7  2  0  0  0  0
 14  6  1  0  0  0  0
 16 18  1  0  0  0  0
 17 18  2  0  0  0  0
 18 19  1  0  0  0  0
 21 24  1  0  0  0  0
 22 19  1  6  0  0  0
 22 23  1  0  0  0  0
 22 21  1  0  0  0  0
 23 25  1  0  0  0  0
 24 20  1  0  0  0  0
 25 20  1  0  0  0  0
 26 28  2  0  0  0  0
 28 25  1  0  0  0  0
 28 27  1  0  0  0  0
 29 41  1  0  0  0  0
 30 35  1  0  0  0  0
 31 32  1  0  0  0  0
 31 36  1  1  0  0  0
 32 35  1  6  0  0  0
 33 31  1  0  0  0  0
 33 32  1  0  0  0  0
 33 29  1  1  0  0  0
 34 30  1  0  0  0  0
 34 31  1  0  0  0  0
 36 37  1  6  0  0  0
 38 39  2  0  0  0  0
 39 40  1  0  0  0  0
 39 36  1  0  0  0  0
 41 42  1  0  0  0  0
 42 43  1  0  0  0  0
 43 44  1  0  0  0  0
 44 45  1  0  0  0  0
M  END
>  <MODEL>
1

>  <REMARK>
 VINA RESULT:      -7.5      0.000      0.000
  Name = 
  12 active torsions:
  status: ('A' for Active; 'I' for Inactive)
    1  A    between atoms: C_1  and  C_35
    2  A    between atoms: C_1  and  N_45
    3  A    between atoms: C_5  and  N_45
    4  A    between atoms: C_10  and  C_24
    5  A    between atoms: N_12  and  C_23
    6  A    between atoms: N_12  and  C_32
    7  A    between atoms: C_13  and  N_14
    8  A    between atoms: N_14  and  C_23
    9  A    between atoms: C_18  and  C_33
   10  A    between atoms: C_24  and  C_35
   11  A    between atoms: C_30  and  N_45
   12  A    between atoms: C_33  and  C_38
                            x       y       z     vdW  Elec       q    Type
                         _______ _______ _______ _____ _____    ______ ____

>  <TORSDO>
F 12

$$$$
=
 OpenBabel11062417243D

 45 50  0  0  1  0  0  0  0  0999 V2000
  190.2140  176.4290  139.5090 C   0  0  0  0  0  0  0  0  0  0  0  0
  186.7150  175.7840  135.9440 C   0  0  0  0  0  3  0  0  0  0  0  0
  185.9520  176.3040  137.1420 C   0  0  1  0  0  3  0  0  0  0  0  0
  188.6240  179.2900  140.0860 O   0  0  0  0  0  1  0  0  0  0  0  0
  188.8450  175.9520  137.1430 C   0  0  0  0  0  0  0  0  0  0  0  0
  186.7920  177.8120  137.7650 S   0  0  0  0  0  0  0  0  0  0  0  0
  188.9590  177.0840  139.2960 C   0  0  0  0  0  0  0  0  0  0  0  0
  188.0370  175.5910  135.9700 C   0  0  0  0  0  3  0  0  0  0  0  0
  190.0320  175.3510  137.3540 C   0  0  0  0  0  3  0  0  0  0  0  0
  188.6420  177.9470  140.4620 C   0  0  1  0  0  0  0  0  0  0  0  0
  190.7610  175.5910  138.5350 O   0  0  0  0  0  0  0  0  0  0  0  0
  189.8410  177.6810  141.4150 C   0  0  2  0  0  3  0  0  0  0  0  0
  190.7460  176.7320  140.6750 C   0  0  0  0  0  3  0  0  0  0  0  0
  188.2950  176.9050  138.1490 C   0  0  0  0  0  0  0  0  0  0  0  0
  187.4220  177.5890  141.0150 F   0  0  0  0  0  0  0  0  0  0  0  0
  189.4130  177.0670  142.6660 N   0  0  0  0  0  2  0  0  0  0  0  0
  190.8100  178.8610  144.0120 S   0  0  0  0  0  0  0  0  0  0  0  0
  189.7620  177.6030  143.9430 C   0  0  0  0  0  0  0  0  0  0  0  0
  189.1840  177.0520  145.1340 N   0  0  0  0  0  2  0  0  0  0  0  0
  185.4980  178.6650  146.5370 C   0  0  0  0  0  2  0  0  0  0  0  0
  187.6170  177.3840  146.9830 C   0  0  0  0  0  2  0  0  0  0  0  0
  187.7720  177.1500  145.4720 C   0  0  1  0  0  3  0  0  0  0  0  0
  187.1050  178.2360  144.6250 C   0  0  0  0  0  2  0  0  0  0  0  0
  186.8030  178.6310  147.3330 C   0  0  0  0  0  2  0  0  0  0  0  0
  185.7440  178.4740  145.1030 N   0  0  0  0  0  0  0  0  0  0  0  0
  184.8870  178.4440  142.9270 O   0  0  0  0  0  0  0  0  0  0  0  0
  183.2700  178.8410  144.6150 C   0  0  0  0  0  1  0  0  0  0  0  0
  184.6670  178.5770  144.1600 C   0  0  0  0  0  0  0  0  0  0  0  0
  184.5390  176.5440  136.8020 N   0  0  0  0  0  0  0  0  0  0  0  0
  181.1030  176.3050  139.9070 C   0  0  0  0  0  2  0  0  0  0  0  0
  183.0290  177.3700  138.5710 C   0  0  2  0  0  0  0  0  0  0  0  0
  182.2170  176.4130  137.7250 C   0  0  1  0  0  3  0  0  0  0  0  0
  183.7090  176.1490  137.9500 C   0  0  1  0  0  3  0  0  0  0  0  0
  182.5990  177.2270  140.3370 S   0  0  0  0  0  0  0  0  0  0  0  0
  181.4040  175.5250  138.6480 C   0  0  0  0  0  2  0  0  0  0  0  0
  183.1300  178.7520  137.9120 C   0  0  1  0  0  3  0  0  0  0  0  0
  181.8230  179.1560  137.2470 C   0  0  0  0  0  1  0  0  0  0  0  0
  182.9630  180.9050  138.9150 O   0  0  0  0  0  0  0  0  0  0  0  0
  183.5830  179.8110  138.8640 C   0  0  0  0  0  0  0  0  0  0  0  0
  184.6940  179.5910  139.7290 N   0  0  0  0  0  1  0  0  0  0  0  0
  184.2110  175.6530  135.6870 C   0  0  0  0  0  2  0  0  0  0  0  0
  183.7680  174.2940  136.2080 C   0  0  0  0  0  2  0  0  0  0  0  0
  184.4230  173.1790  135.4120 C   0  0  0  0  0  2  0  0  0  0  0  0
  185.1800  172.2400  136.3350 C   0  0  0  0  0  2  0  0  0  0  0  0
  185.2620  172.8250  137.7330 C   0  0  0  0  0  1  0  0  0  0  0  0
  1 13  2  0  0  0  0
  2  8  2  0  0  0  0
  2  3  1  0  0  0  0
  3 29  1  6  0  0  0
  3  6  1  0  0  0  0
  5  9  2  0  0  0  0
  5 14  1  0  0  0  0
  6 14  1  0  0  0  0
  7  1  1  0  0  0  0
  7 10  1  0  0  0  0
  8  5  1  0  0  0  0
  9 11  1  0  0  0  0
 10  4  1  6  0  0  0
 10 15  1  0  0  0  0
 10 12  1  0  0  0  0
 11  1  1  0  0  0  0
 12 16  1  1  0  0  0
 13 12  1  0  0  0  0
 14  7  2  0  0  0  0
 16 18  1  0  0  0  0
 18 17  2  0  0  0  0
 18 19  1  0  0  0  0
 20 24  1  0  0  0  0
 21 24  1  0  0  0  0
 22 19  1  1  0  0  0
 22 21  1  0  0  0  0
 23 25  1  0  0  0  0
 23 22  1  0  0  0  0
 25 20  1  0  0  0  0
 26 28  2  0  0  0  0
 28 27  1  0  0  0  0
 28 25  1  0  0  0  0
 30 34  1  0  0  0  0
 31 36  1  6  0  0  0
 31 34  1  0  0  0  0
 32 33  1  0  0  0  0
 32 31  1  0  0  0  0
 32 35  1  1  0  0  0
 33 29  1  6  0  0  0
 33 31  1  0  0  0  0
 35 30  1  0  0  0  0
 36 37  1  1  0  0  0
 36 39  1  0  0  0  0
 39 38  2  0  0  0  0
 39 40  1  0  0  0  0
 41 42  1  0  0  0  0
 41 29  1  0  0  0  0
 43 42  1  0  0  0  0
 43 44  1  0  0  0  0
 44 45  1  0  0  0  0
M  END
>  <MODEL>
2

>  <REMARK>
 VINA RESULT:      -7.4      2.231      4.547
  Name = 
  12 active torsions:
  status: ('A' for Active; 'I' for Inactive)
    1  A    between atoms: C_1  and  C_35
    2  A    between atoms: C_1  and  N_45
    3  A    between atoms: C_5  and  N_45
    4  A    between atoms: C_10  and  C_24
    5  A    between atoms: N_12  and  C_23
    6  A    between atoms: N_12  and  C_32
    7  A    between atoms: C_13  and  N_14
    8  A    between atoms: N_14  and  C_23
    9  A    between atoms: C_18  and  C_33
   10  A    between atoms: C_24  and  C_35
   11  A    between atoms: C_30  and  N_45
   12  A    between atoms: C_33  and  C_38
                            x       y       z     vdW  Elec       q    Type
                         _______ _______ _______ _____ _____    ______ ____

>  <TORSDO>
F 12

$$$$
=
 OpenBabel11062417243D

 45 50  0  0  1  0  0  0  0  0999 V2000
  189.5500  176.4980  137.3360 C   0  0  0  0  0  0  0  0  0  0  0  0
  184.6840  176.7040  136.0550 C   0  0  0  0  0  3  0  0  0  0  0  0
  184.6960  176.9140  137.5520 C   0  0  1  0  0  3  0  0  0  0  0  0
  188.8190  179.1230  139.2390 O   0  0  0  0  0  1  0  0  0  0  0  0
  187.1300  176.5940  135.9820 C   0  0  0  0  0  0  0  0  0  0  0  0
  185.9070  178.2340  137.9520 S   0  0  0  0  0  0  0  0  0  0  0  0
  188.4460  177.1750  137.9470 C   0  0  0  0  0  0  0  0  0  0  0  0
  185.8050  176.5210  135.3510 C   0  0  0  0  0  3  0  0  0  0  0  0
  188.1810  175.9700  135.4160 C   0  0  0  0  0  3  0  0  0  0  0  0
  188.8650  177.7290  139.2590 C   0  0  1  0  0  0  0  0  0  0  0  0
  189.4280  175.9240  136.0690 O   0  0  0  0  0  0  0  0  0  0  0  0
  190.3390  177.2510  139.3730 C   0  0  2  0  0  3  0  0  0  0  0  0
  190.6280  176.5150  138.0910 C   0  0  0  0  0  3  0  0  0  0  0  0
  187.2790  177.2730  137.3010 C   0  0  0  0  0  0  0  0  0  0  0  0
  188.0580  177.2390  140.2730 F   0  0  0  0  0  0  0  0  0  0  0  0
  190.5310  176.3490  140.5030 N   0  0  0  0  0  2  0  0  0  0  0  0
  191.8250  177.8460  142.2540 S   0  0  0  0  0  0  0  0  0  0  0  0
  190.6170  176.8150  141.8510 C   0  0  0  0  0  0  0  0  0  0  0  0
  189.6460  176.3940  142.8180 N   0  0  0  0  0  2  0  0  0  0  0  0
  187.2420  177.7570  146.0600 C   0  0  0  0  0  2  0  0  0  0  0  0
  187.6690  177.6120  143.5850 C   0  0  0  0  0  2  0  0  0  0  0  0
  189.1330  177.2480  143.8780 C   0  0  1  0  0  3  0  0  0  0  0  0
  189.3230  176.5700  145.2360 C   0  0  0  0  0  2  0  0  0  0  0  0
  186.7060  177.2540  144.7190 C   0  0  0  0  0  2  0  0  0  0  0  0
  188.6290  177.3300  146.2740 N   0  0  0  0  0  0  0  0  0  0  0  0
  190.4710  177.2090  147.7100 O   0  0  0  0  0  0  0  0  0  0  0  0
  188.6010  178.3600  148.6050 C   0  0  0  0  0  1  0  0  0  0  0  0
  189.2900  177.6040  147.5180 C   0  0  0  0  0  0  0  0  0  0  0  0
  183.3440  177.2180  138.0520 N   0  0  0  0  0  0  0  0  0  0  0  0
  179.8920  178.9090  135.4580 C   0  0  0  0  0  2  0  0  0  0  0  0
  181.3050  177.1270  136.6650 C   0  0  2  0  0  0  0  0  0  0  0  0
  181.2320  178.4170  137.4530 C   0  0  1  0  0  3  0  0  0  0  0  0
  182.5910  177.8910  136.9840 C   0  0  1  0  0  3  0  0  0  0  0  0
  180.6510  177.3400  134.9760 S   0  0  0  0  0  0  0  0  0  0  0  0
  180.7710  179.5240  136.5240 C   0  0  0  0  0  2  0  0  0  0  0  0
  180.8670  175.9260  137.5150 C   0  0  1  0  0  3  0  0  0  0  0  0
  179.3750  175.9580  137.8080 C   0  0  0  0  0  1  0  0  0  0  0  0
  182.3630  174.1020  137.1950 O   0  0  0  0  0  0  0  0  0  0  0  0
  181.2530  174.6190  136.9030 C   0  0  0  0  0  0  0  0  0  0  0  0
  180.3750  173.9410  136.0090 N   0  0  0  0  0  1  0  0  0  0  0  0
  183.5010  178.1700  139.1550 C   0  0  0  0  0  2  0  0  0  0  0  0
  183.0390  177.5440  140.4630 C   0  0  0  0  0  2  0  0  0  0  0  0
  182.8530  178.6120  141.5270 C   0  0  0  0  0  2  0  0  0  0  0  0
  183.9990  178.5770  142.5220 C   0  0  0  0  0  2  0  0  0  0  0  0
  183.5000  178.9000  143.9170 C   0  0  0  0  0  1  0  0  0  0  0  0
  1  7  1  0  0  0  0
  1 13  2  0  0  0  0
  2  3  1  0  0  0  0
  3  6  1  0  0  0  0
  3 29  1  6  0  0  0
  5 14  1  0  0  0  0
  7 10  1  0  0  0  0
  8  5  1  0  0  0  0
  8  2  2  0  0  0  0
  9  5  2  0  0  0  0
  9 11  1  0  0  0  0
 10  4  1  6  0  0  0
 10 12  1  0  0  0  0
 10 15  1  0  0  0  0
 11  1  1  0  0  0  0
 12 16  1  1  0  0  0
 13 12  1  0  0  0  0
 14  7  2  0  0  0  0
 14  6  1  0  0  0  0
 16 18  1  0  0  0  0
 18 17  2  0  0  0  0
 18 19  1  0  0  0  0
 20 25  1  0  0  0  0
 21 22  1  0  0  0  0
 21 24  1  0  0  0  0
 22 19  1  6  0  0  0
 22 23  1  0  0  0  0
 23 25  1  0  0  0  0
 24 20  1  0  0  0  0
 25 28  1  0  0  0  0
 28 26  2  0  0  0  0
 28 27  1  0  0  0  0
 29 41  1  0  0  0  0
 30 35  1  0  0  0  0
 31 33  1  0  0  0  0
 31 32  1  0  0  0  0
 31 36  1  1  0  0  0
 32 35  1  6  0  0  0
 33 32  1  0  0  0  0
 33 29  1  1  0  0  0
 34 30  1  0  0  0  0
 34 31  1  0  0  0  0
 36 37  1  6  0  0  0
 39 38  2  0  0  0  0
 39 36  1  0  0  0  0
 40 39  1  0  0  0  0
 41 42  1  0  0  0  0
 42 43  1  0  0  0  0
 43 44  1  0  0  0  0
 44 45  1  0  0  0  0
M  END
>  <MODEL>
3

>  <REMARK>
 VINA RESULT:      -7.4      1.934      2.435
  Name = 
  12 active torsions:
  status: ('A' for Active; 'I' for Inactive)
    1  A    between atoms: C_1  and  C_35
    2  A    between atoms: C_1  and  N_45
    3  A    between atoms: C_5  and  N_45
    4  A    between atoms: C_10  and  C_24
    5  A    between atoms: N_12  and  C_23
    6  A    between atoms: N_12  and  C_32
    7  A    between atoms: C_13  and  N_14
    8  A    between atoms: N_14  and  C_23
    9  A    between atoms: C_18  and  C_33
   10  A    between atoms: C_24  and  C_35
   11  A    between atoms: C_30  and  N_45
   12  A    between atoms: C_33  and  C_38
                            x       y       z     vdW  Elec       q    Type
                         _______ _______ _______ _____ _____    ______ ____

>  <TORSDO>
F 12

$$$$
=
 OpenBabel11062417243D

 45 50  0  0  1  0  0  0  0  0999 V2000
  188.3730  176.0350  137.5250 C   0  0  0  0  0  0  0  0  0  0  0  0
  183.5840  174.5970  136.9200 C   0  0  0  0  0  3  0  0  0  0  0  0
  183.4990  175.9290  137.6310 C   0  0  1  0  0  3  0  0  0  0  0  0
  187.2500  179.0170  136.5770 O   0  0  0  0  0  1  0  0  0  0  0  0
  186.0280  174.7380  136.8070 C   0  0  0  0  0  0  0  0  0  0  0  0
  184.5280  177.1480  136.7250 S   0  0  0  0  0  0  0  0  0  0  0  0
  187.1700  176.8020  137.4110 C   0  0  0  0  0  0  0  0  0  0  0  0
  184.7530  174.0430  136.5800 C   0  0  0  0  0  3  0  0  0  0  0  0
  187.1700  174.0320  136.9090 C   0  0  0  0  0  3  0  0  0  0  0  0
  187.4560  178.2280  137.7100 C   0  0  1  0  0  0  0  0  0  0  0  0
  188.3810  174.6660  137.2490 O   0  0  0  0  0  0  0  0  0  0  0  0
  188.9690  178.2010  138.0660 C   0  0  2  0  0  3  0  0  0  0  0  0
  189.4040  176.7710  137.8860 C   0  0  0  0  0  3  0  0  0  0  0  0
  186.0320  176.2130  137.0270 C   0  0  0  0  0  0  0  0  0  0  0  0
  186.6620  178.6750  138.7540 F   0  0  0  0  0  0  0  0  0  0  0  0
  189.2080  178.6110  139.4460 N   0  0  0  0  0  2  0  0  0  0  0  0
  191.0960  177.2400  140.6850 S   0  0  0  0  0  0  0  0  0  0  0  0
  189.5300  177.6780  140.4780 C   0  0  0  0  0  0  0  0  0  0  0  0
  188.4960  177.1570  141.3220 N   0  0  0  0  0  2  0  0  0  0  0  0
  185.8390  178.2310  144.4760 C   0  0  0  0  0  2  0  0  0  0  0  0
  186.5710  178.4640  142.0800 C   0  0  0  0  0  2  0  0  0  0  0  0
  187.9380  177.8730  142.4600 C   0  0  1  0  0  3  0  0  0  0  0  0
  187.8760  176.9510  143.6800 C   0  0  0  0  0  2  0  0  0  0  0  0
  185.4360  178.0390  143.0140 C   0  0  0  0  0  2  0  0  0  0  0  0
  187.1340  177.6020  144.7580 N   0  0  0  0  0  0  0  0  0  0  0  0
  188.7480  177.0030  146.3410 O   0  0  0  0  0  0  0  0  0  0  0  0
  186.9070  178.2080  147.2230 C   0  0  0  0  0  1  0  0  0  0  0  0
  187.6510  177.5710  146.0970 C   0  0  0  0  0  0  0  0  0  0  0  0
  182.0980  176.3630  137.7680 N   0  0  0  0  0  0  0  0  0  0  0  0
  180.5120  178.2460  141.6980 C   0  0  0  0  0  2  0  0  0  0  0  0
  181.7800  178.1310  139.4610 C   0  0  2  0  0  0  0  0  0  0  0  0
  180.4910  177.3380  139.4200 C   0  0  1  0  0  3  0  0  0  0  0  0
  181.8270  176.6260  139.1890 C   0  0  1  0  0  3  0  0  0  0  0  0
  182.1910  178.6460  141.1600 S   0  0  0  0  0  0  0  0  0  0  0  0
  180.0300  177.0950  140.8440 C   0  0  0  0  0  2  0  0  0  0  0  0
  181.8500  179.1450  138.3100 C   0  0  1  0  0  3  0  0  0  0  0  0
  180.4650  179.5430  137.8250 C   0  0  0  0  0  1  0  0  0  0  0  0
  182.0950  181.4850  138.6720 O   0  0  0  0  0  0  0  0  0  0  0  0
  182.6520  180.3560  138.6610 C   0  0  0  0  0  0  0  0  0  0  0  0
  184.0310  180.2480  139.0010 N   0  0  0  0  0  1  0  0  0  0  0  0
  181.2590  175.2340  137.3570 C   0  0  0  0  0  2  0  0  0  0  0  0
  180.2480  175.6800  136.3110 C   0  0  0  0  0  2  0  0  0  0  0  0
  179.8060  174.5010  135.4620 C   0  0  0  0  0  2  0  0  0  0  0  0
  180.2770  173.1960  136.0770 C   0  0  0  0  0  2  0  0  0  0  0  0
  181.0840  172.3970  135.0710 C   0  0  0  0  0  1  0  0  0  0  0  0
  1 13  2  0  0  0  0
  2  3  1  0  0  0  0
  3 29  1  6  0  0  0
  5  9  2  0  0  0  0
  5 14  1  0  0  0  0
  6 14  1  0  0  0  0
  6  3  1  0  0  0  0
  7  1  1  0  0  0  0
  7 10  1  0  0  0  0
  8  5  1  0  0  0  0
  8  2  2  0  0  0  0
  9 11  1  0  0  0  0
 10  4  1  6  0  0  0
 10 12  1  0  0  0  0
 10 15  1  0  0  0  0
 11  1  1  0  0  0  0
 12 16  1  1  0  0  0
 13 12  1  0  0  0  0
 14  7  2  0  0  0  0
 16 18  1  0  0  0  0
 18 17  2  0  0  0  0
 18 19  1  0  0  0  0
 20 25  1  0  0  0  0
 21 22  1  0  0  0  0
 21 24  1  0  0  0  0
 22 19  1  6  0  0  0
 22 23  1  0  0  0  0
 23 25  1  0  0  0  0
 24 20  1  0  0  0  0
 25 28  1  0  0  0  0
 28 26  2  0  0  0  0
 28 27  1  0  0  0  0
 31 36  1  6  0  0  0
 31 34  1  0  0  0  0
 32 31  1  0  0  0  0
 32 35  1  1  0  0  0
 33 29  1  6  0  0  0
 33 32  1  0  0  0  0
 33 31  1  0  0  0  0
 34 30  1  0  0  0  0
 35 30  1  0  0  0  0
 36 37  1  1  0  0  0
 36 39  1  0  0  0  0
 39 38  2  0  0  0  0
 39 40  1  0  0  0  0
 41 29  1  0  0  0  0
 42 41  1  0  0  0  0
 43 44  1  0  0  0  0
 43 42  1  0  0  0  0
 45 44  1  0  0  0  0
M  END
>  <MODEL>
4

>  <REMARK>
 VINA RESULT:      -7.2      2.401      4.308
  Name = 
  12 active torsions:
  status: ('A' for Active; 'I' for Inactive)
    1  A    between atoms: C_1  and  C_35
    2  A    between atoms: C_1  and  N_45
    3  A    between atoms: C_5  and  N_45
    4  A    between atoms: C_10  and  C_24
    5  A    between atoms: N_12  and  C_23
    6  A    between atoms: N_12  and  C_32
    7  A    between atoms: C_13  and  N_14
    8  A    between atoms: N_14  and  C_23
    9  A    between atoms: C_18  and  C_33
   10  A    between atoms: C_24  and  C_35
   11  A    between atoms: C_30  and  N_45
   12  A    between atoms: C_33  and  C_38
                            x       y       z     vdW  Elec       q    Type
                         _______ _______ _______ _____ _____    ______ ____

>  <TORSDO>
F 12

$$$$
=
 OpenBabel11062417243D

 45 50  0  0  1  0  0  0  0  0999 V2000
  189.3390  176.0940  138.1000 C   0  0  0  0  0  0  0  0  0  0  0  0
  185.0090  174.4600  136.1140 C   0  0  0  0  0  3  0  0  0  0  0  0
  184.6070  175.5910  137.0340 C   0  0  1  0  0  3  0  0  0  0  0  0
  188.0790  179.1160  137.5220 O   0  0  0  0  0  1  0  0  0  0  0  0
  187.3820  174.8100  136.6090 C   0  0  0  0  0  0  0  0  0  0  0  0
  185.6440  177.0560  136.6540 S   0  0  0  0  0  0  0  0  0  0  0  0
  188.1010  176.7730  137.8600 C   0  0  0  0  0  0  0  0  0  0  0  0
  186.2820  174.0860  135.9570 C   0  0  0  0  0  3  0  0  0  0  0  0
  188.5560  174.1900  136.8360 C   0  0  0  0  0  3  0  0  0  0  0  0
  188.1360  178.1150  138.4930 C   0  0  1  0  0  0  0  0  0  0  0  0
  189.5770  174.8250  137.5700 O   0  0  0  0  0  0  0  0  0  0  0  0
  189.5280  178.1270  139.1830 C   0  0  2  0  0  3  0  0  0  0  0  0
  190.1680  176.8100  138.8310 C   0  0  0  0  0  3  0  0  0  0  0  0
  187.1540  176.1960  137.1110 C   0  0  0  0  0  0  0  0  0  0  0  0
  187.0880  178.2580  139.3880 F   0  0  0  0  0  0  0  0  0  0  0  0
  189.4150  178.2400  140.6320 N   0  0  0  0  0  2  0  0  0  0  0  0
  191.6290  177.4690  141.8500 S   0  0  0  0  0  0  0  0  0  0  0  0
  190.0300  177.3110  141.5250 C   0  0  0  0  0  0  0  0  0  0  0  0
  189.2490  176.2740  142.1320 N   0  0  0  0  0  2  0  0  0  0  0  0
  187.8410  177.9900  145.7690 C   0  0  0  0  0  2  0  0  0  0  0  0
  189.4730  176.5070  144.5570 C   0  0  0  0  0  2  0  0  0  0  0  0
  188.5000  176.4400  143.3690 C   0  0  1  0  0  3  0  0  0  0  0  0
  187.5880  177.6650  143.2690 C   0  0  0  0  0  2  0  0  0  0  0  0
  189.3110  177.7640  145.4150 C   0  0  0  0  0  2  0  0  0  0  0  0
  186.9920  177.9500  144.5730 N   0  0  0  0  0  0  0  0  0  0  0  0
  184.8710  178.2380  143.6320 O   0  0  0  0  0  0  0  0  0  0  0  0
  184.9560  178.5590  145.9790 C   0  0  0  0  0  1  0  0  0  0  0  0
  185.5910  178.2440  144.6650 C   0  0  0  0  0  0  0  0  0  0  0  0
  183.1660  175.8740  136.9210 N   0  0  0  0  0  0  0  0  0  0  0  0
  180.7140  177.0770  140.6690 C   0  0  0  0  0  2  0  0  0  0  0  0
  182.4400  177.3310  138.7760 C   0  0  2  0  0  0  0  0  0  0  0  0
  181.2130  176.5710  138.3210 C   0  0  1  0  0  3  0  0  0  0  0  0
  182.5860  175.8940  138.2720 C   0  0  1  0  0  3  0  0  0  0  0  0
  182.4590  177.5440  140.5870 S   0  0  0  0  0  0  0  0  0  0  0  0
  180.4600  176.0940  139.5480 C   0  0  0  0  0  2  0  0  0  0  0  0
  182.7320  178.5260  137.8570 C   0  0  1  0  0  3  0  0  0  0  0  0
  181.5460  178.8510  136.9630 C   0  0  0  0  0  1  0  0  0  0  0  0
  182.3350  180.6520  138.8500 O   0  0  0  0  0  0  0  0  0  0  0  0
  183.1670  179.7390  138.6130 C   0  0  0  0  0  0  0  0  0  0  0  0
  184.5060  179.8660  139.0840 N   0  0  0  0  0  1  0  0  0  0  0  0
  182.5650  174.7520  136.1950 C   0  0  0  0  0  2  0  0  0  0  0  0
  181.9100  173.7830  137.1680 C   0  0  0  0  0  2  0  0  0  0  0  0
  181.9610  172.3660  136.6230 C   0  0  0  0  0  2  0  0  0  0  0  0
  183.1670  171.6270  137.1770 C   0  0  0  0  0  2  0  0  0  0  0  0
  183.8250  170.7980  136.0910 C   0  0  0  0  0  1  0  0  0  0  0  0
  1 13  2  0  0  0  0
  2  3  1  0  0  0  0
  3 29  1  6  0  0  0
  5  9  2  0  0  0  0
  5 14  1  0  0  0  0
  6  3  1  0  0  0  0
  6 14  1  0  0  0  0
  7  1  1  0  0  0  0
  7 10  1  0  0  0  0
  8  2  2  0  0  0  0
  8  5  1  0  0  0  0
  9 11  1  0  0  0  0
 10  4  1  6  0  0  0
 10 12  1  0  0  0  0
 10 15  1  0  0  0  0
 11  1  1  0  0  0  0
 12 16  1  1  0  0  0
 13 12  1  0  0  0  0
 14  7  2  0  0  0  0
 16 18  1  0  0  0  0
 18 17  2  0  0  0  0
 18 19  1  0  0  0  0
 21 24  1  0  0  0  0
 22 19  1  6  0  0  0
 22 21  1  0  0  0  0
 23 22  1  0  0  0  0
 23 25  1  0  0  0  0
 24 20  1  0  0  0  0
 25 28  1  0  0  0  0
 25 20  1  0  0  0  0
 26 28  2  0  0  0  0
 28 27  1  0  0  0  0
 31 36  1  6  0  0  0
 31 34  1  0  0  0  0
 32 31  1  0  0  0  0
 32 35  1  1  0  0  0
 33 29  1  6  0  0  0
 33 32  1  0  0  0  0
 33 31  1  0  0  0  0
 34 30  1  0  0  0  0
 35 30  1  0  0  0  0
 36 37  1  1  0  0  0
 36 39  1  0  0  0  0
 39 38  2  0  0  0  0
 39 40  1  0  0  0  0
 41 29  1  0  0  0  0
 41 42  1  0  0  0  0
 43 42  1  0  0  0  0
 43 44  1  0  0  0  0
 45 44  1  0  0  0  0
M  END
>  <MODEL>
5

>  <REMARK>
 VINA RESULT:      -7.1      2.319      4.111
  Name = 
  12 active torsions:
  status: ('A' for Active; 'I' for Inactive)
    1  A    between atoms: C_1  and  C_35
    2  A    between atoms: C_1  and  N_45
    3  A    between atoms: C_5  and  N_45
    4  A    between atoms: C_10  and  C_24
    5  A    between atoms: N_12  and  C_23
    6  A    between atoms: N_12  and  C_32
    7  A    between atoms: C_13  and  N_14
    8  A    between atoms: N_14  and  C_23
    9  A    between atoms: C_18  and  C_33
   10  A    between atoms: C_24  and  C_35
   11  A    between atoms: C_30  and  N_45
   12  A    between atoms: C_33  and  C_38
                            x       y       z     vdW  Elec       q    Type
                         _______ _______ _______ _____ _____    ______ ____

>  <TORSDO>
F 12

$$$$
=
 OpenBabel11062417243D

 45 50  0  0  1  0  0  0  0  0999 V2000
  189.7920  176.7910  137.1460 C   0  0  0  0  0  0  0  0  0  0  0  0
  185.0910  176.2100  135.4350 C   0  0  0  0  0  3  0  0  0  0  0  0
  184.9500  176.2470  136.9400 C   0  0  1  0  0  3  0  0  0  0  0  0
  188.4120  178.9950  139.2180 O   0  0  0  0  0  1  0  0  0  0  0  0
  187.5080  176.5780  135.5840 C   0  0  0  0  0  0  0  0  0  0  0  0
  185.8400  177.7190  137.5790 S   0  0  0  0  0  0  0  0  0  0  0  0
  188.5330  177.1710  137.7120 C   0  0  0  0  0  0  0  0  0  0  0  0
  186.2750  176.3250  134.8260 C   0  0  0  0  0  3  0  0  0  0  0  0
  188.7020  176.2330  135.0630 C   0  0  0  0  0  3  0  0  0  0  0  0
  188.7340  177.6420  139.1060 C   0  0  1  0  0  0  0  0  0  0  0  0
  189.8810  176.3530  135.8240 O   0  0  0  0  0  0  0  0  0  0  0  0
  190.2610  177.4440  139.3130 C   0  0  2  0  0  3  0  0  0  0  0  0
  190.7860  176.9270  137.9990 C   0  0  0  0  0  3  0  0  0  0  0  0
  187.4200  177.1180  136.9720 C   0  0  0  0  0  0  0  0  0  0  0  0
  187.9670  176.8950  139.9870 F   0  0  0  0  0  0  0  0  0  0  0  0
  190.5450  176.4730  140.3640 N   0  0  0  0  0  2  0  0  0  0  0  0
  191.8730  177.5880  142.3560 S   0  0  0  0  0  0  0  0  0  0  0  0
  190.5580  176.8220  141.7480 C   0  0  0  0  0  0  0  0  0  0  0  0
  189.4280  176.5170  142.5750 N   0  0  0  0  0  2  0  0  0  0  0  0
  187.1570  177.8770  145.9150 C   0  0  0  0  0  2  0  0  0  0  0  0
  187.5210  177.7920  143.4270 C   0  0  0  0  0  2  0  0  0  0  0  0
  188.9750  177.3590  143.6730 C   0  0  1  0  0  3  0  0  0  0  0  0
  189.1670  176.6310  145.0050 C   0  0  0  0  0  2  0  0  0  0  0  0
  186.5710  177.4380  144.5730 C   0  0  0  0  0  2  0  0  0  0  0  0
  188.5300  177.3860  146.0820 N   0  0  0  0  0  0  0  0  0  0  0  0
  190.3980  177.1450  147.4680 O   0  0  0  0  0  0  0  0  0  0  0  0
  188.5990  178.3430  148.4430 C   0  0  0  0  0  1  0  0  0  0  0  0
  189.2310  177.5940  147.3170 C   0  0  0  0  0  0  0  0  0  0  0  0
  183.5310  176.2280  137.3360 N   0  0  0  0  0  0  0  0  0  0  0  0
  181.4790  179.2890  140.1500 C   0  0  0  0  0  2  0  0  0  0  0  0
  182.0480  178.1070  137.9350 C   0  0  2  0  0  0  0  0  0  0  0  0
  182.0040  177.1370  139.0970 C   0  0  1  0  0  3  0  0  0  0  0  0
  183.3020  177.3120  138.3020 C   0  0  1  0  0  3  0  0  0  0  0  0
  182.0060  179.8370  138.5090 S   0  0  0  0  0  0  0  0  0  0  0  0
  182.0940  177.9280  140.3870 C   0  0  0  0  0  2  0  0  0  0  0  0
  181.1290  177.6520  136.7920 C   0  0  1  0  0  3  0  0  0  0  0  0
  179.6660  177.6610  137.2070 C   0  0  0  0  0  1  0  0  0  0  0  0
  180.6100  179.4670  135.3420 O   0  0  0  0  0  0  0  0  0  0  0  0
  181.3250  178.4520  135.5450 C   0  0  0  0  0  0  0  0  0  0  0  0
  182.3230  178.0910  134.5940 N   0  0  0  0  0  1  0  0  0  0  0  0
  183.2980  174.9570  138.0270 C   0  0  0  0  0  2  0  0  0  0  0  0
  182.8100  173.9030  137.0460 C   0  0  0  0  0  2  0  0  0  0  0  0
  181.3370  174.1070  136.7350 C   0  0  0  0  0  2  0  0  0  0  0  0
  180.4770  173.2770  137.6720 C   0  0  0  0  0  2  0  0  0  0  0  0
  179.6880  174.1770  138.6050 C   0  0  0  0  0  1  0  0  0  0  0  0
  1  7  1  0  0  0  0
  1 13  2  0  0  0  0
  2  3  1  0  0  0  0
  3 29  1  6  0  0  0
  3  6  1  0  0  0  0
  5 14  1  0  0  0  0
  7 10  1  0  0  0  0
  8  2  2  0  0  0  0
  8  5  1  0  0  0  0
  9  5  2  0  0  0  0
  9 11  1  0  0  0  0
 10  4  1  1  0  0  0
 10 12  1  0  0  0  0
 10 15  1  0  0  0  0
 11  1  1  0  0  0  0
 12 16  1  1  0  0  0
 13 12  1  0  0  0  0
 14  6  1  0  0  0  0
 14  7  2  0  0  0  0
 16 18  1  0  0  0  0
 18 17  2  0  0  0  0
 18 19  1  0  0  0  0
 20 25  1  0  0  0  0
 21 22  1  0  0  0  0
 21 24  1  0  0  0  0
 22 19  1  6  0  0  0
 22 23  1  0  0  0  0
 23 25  1  0  0  0  0
 24 20  1  0  0  0  0
 25 28  1  0  0  0  0
 28 26  2  0  0  0  0
 28 27  1  0  0  0  0
 29 41  1  0  0  0  0
 30 35  1  0  0  0  0
 31 36  1  6  0  0  0
 31 33  1  0  0  0  0
 31 34  1  0  0  0  0
 31 32  1  0  0  0  0
 32 35  1  1  0  0  0
 33 29  1  6  0  0  0
 33 32  1  0  0  0  0
 34 30  1  0  0  0  0
 36 37  1  1  0  0  0
 38 39  2  0  0  0  0
 39 36  1  0  0  0  0
 40 39  1  0  0  0  0
 42 41  1  0  0  0  0
 43 42  1  0  0  0  0
 43 44  1  0  0  0  0
 44 45  1  0  0  0  0
M  END
>  <MODEL>
6

>  <REMARK>
 VINA RESULT:      -6.8      2.231      3.706
  Name = 
  12 active torsions:
  status: ('A' for Active; 'I' for Inactive)
    1  A    between atoms: C_1  and  C_35
    2  A    between atoms: C_1  and  N_45
    3  A    between atoms: C_5  and  N_45
    4  A    between atoms: C_10  and  C_24
    5  A    between atoms: N_12  and  C_23
    6  A    between atoms: N_12  and  C_32
    7  A    between atoms: C_13  and  N_14
    8  A    between atoms: N_14  and  C_23
    9  A    between atoms: C_18  and  C_33
   10  A    between atoms: C_24  and  C_35
   11  A    between atoms: C_30  and  N_45
   12  A    between atoms: C_33  and  C_38
                            x       y       z     vdW  Elec       q    Type
                         _______ _______ _______ _____ _____    ______ ____

>  <TORSDO>
F 12

$$$$
=
 OpenBabel11062417243D

 45 50  0  0  1  0  0  0  0  0999 V2000
  186.4140  177.8860  143.8030 C   0  0  0  0  0  0  0  0  0  0  0  0
  190.5250  176.5360  141.2250 C   0  0  0  0  0  3  0  0  0  0  0  0
  189.4590  176.7370  140.1710 C   0  0  1  0  0  3  0  0  0  0  0  0
  186.0450  180.1410  141.3880 O   0  0  0  0  0  1  0  0  0  0  0  0
  188.9850  177.2100  143.0070 C   0  0  0  0  0  0  0  0  0  0  0  0
  188.6710  178.3730  140.4360 S   0  0  0  0  0  0  0  0  0  0  0  0
  186.8180  178.1760  142.4600 C   0  0  0  0  0  0  0  0  0  0  0  0
  190.2840  176.7190  142.5270 C   0  0  0  0  0  3  0  0  0  0  0  0
  188.5930  176.9520  144.2700 C   0  0  0  0  0  3  0  0  0  0  0  0
  185.7020  178.8330  141.7340 C   0  0  1  0  0  0  0  0  0  0  0  0
  187.3020  177.3050  144.7100 O   0  0  0  0  0  0  0  0  0  0  0  0
  184.5690  178.8490  142.7980 C   0  0  2  0  0  3  0  0  0  0  0  0
  185.1700  178.2450  144.0400 C   0  0  0  0  0  3  0  0  0  0  0  0
  188.0630  177.8990  142.0590 C   0  0  0  0  0  0  0  0  0  0  0  0
  185.3680  178.1110  140.5990 F   0  0  0  0  0  0  0  0  0  0  0  0
  183.4200  178.0540  142.3790 N   0  0  0  0  0  2  0  0  0  0  0  0
  180.9260  178.8870  142.6350 S   0  0  0  0  0  0  0  0  0  0  0  0
  182.2780  178.6310  141.7440 C   0  0  0  0  0  0  0  0  0  0  0  0
  182.3330  178.9900  140.3580 N   0  0  0  0  0  2  0  0  0  0  0  0
  182.5610  175.7950  137.5480 C   0  0  0  0  0  2  0  0  0  0  0  0
  183.0100  178.1980  138.1440 C   0  0  0  0  0  2  0  0  0  0  0  0
  181.9700  178.0930  139.2710 C   0  0  1  0  0  3  0  0  0  0  0  0
  181.8020  176.6680  139.8030 C   0  0  0  0  0  2  0  0  0  0  0  0
  183.6400  176.8570  137.7610 C   0  0  0  0  0  2  0  0  0  0  0  0
  181.6390  175.7360  138.6880 N   0  0  0  0  0  0  0  0  0  0  0  0
  179.8420  174.6680  139.7360 O   0  0  0  0  0  0  0  0  0  0  0  0
  180.4340  173.7560  137.6290 C   0  0  0  0  0  1  0  0  0  0  0  0
  180.6130  174.7350  138.7420 C   0  0  0  0  0  0  0  0  0  0  0  0
  190.0240  176.5950  138.8180 N   0  0  0  0  0  0  0  0  0  0  0  0
  187.9670  174.0540  135.5290 C   0  0  0  0  0  2  0  0  0  0  0  0
  188.3930  176.1000  137.0340 C   0  0  2  0  0  0  0  0  0  0  0  0
  189.6820  175.4090  136.6420 C   0  0  1  0  0  3  0  0  0  0  0  0
  189.3010  175.5220  138.1210 C   0  0  1  0  0  3  0  0  0  0  0  0
  186.9380  175.0930  136.5940 S   0  0  0  0  0  0  0  0  0  0  0  0
  189.3490  174.0180  136.1400 C   0  0  0  0  0  2  0  0  0  0  0  0
  188.4300  177.5940  136.6840 C   0  0  1  0  0  3  0  0  0  0  0  0
  189.2340  177.8580  135.4210 C   0  0  0  0  0  1  0  0  0  0  0  0
  186.5050  178.6550  137.5990 O   0  0  0  0  0  0  0  0  0  0  0  0
  187.0640  178.1910  136.5720 C   0  0  0  0  0  0  0  0  0  0  0  0
  186.3960  178.2580  135.3150 N   0  0  0  0  0  1  0  0  0  0  0  0
  191.4150  176.1630  138.9790 C   0  0  0  0  0  2  0  0  0  0  0  0
  192.2730  176.7130  137.8500 C   0  0  0  0  0  2  0  0  0  0  0  0
  193.5750  175.9370  137.7450 C   0  0  0  0  0  2  0  0  0  0  0  0
  193.2980  174.4530  137.5850 C   0  0  0  0  0  2  0  0  0  0  0  0
  193.1670  174.0940  136.1170 C   0  0  0  0  0  1  0  0  0  0  0  0
  1 13  2  0  0  0  0
  1 11  1  0  0  0  0
  2  8  2  0  0  0  0
  3 29  1  6  0  0  0
  3  6  1  0  0  0  0
  3  2  1  0  0  0  0
  4 10  1  0  0  0  0
  5  9  2  0  0  0  0
  6 14  1  0  0  0  0
  7  1  1  0  0  0  0
  8  5  1  0  0  0  0
  9 11  1  0  0  0  0
 10 15  1  6  0  0  0
 10  7  1  0  0  0  0
 10 12  1  0  0  0  0
 12 16  1  6  0  0  0
 12 13  1  0  0  0  0
 14  7  2  0  0  0  0
 14  5  1  0  0  0  0
 18 16  1  0  0  0  0
 18 17  2  0  0  0  0
 19 18  1  0  0  0  0
 20 24  1  0  0  0  0
 20 25  1  0  0  0  0
 21 22  1  0  0  0  0
 22 23  1  0  0  0  0
 22 19  1  1  0  0  0
 24 21  1  0  0  0  0
 25 28  1  0  0  0  0
 25 23  1  0  0  0  0
 27 28  1  0  0  0  0
 28 26  2  0  0  0  0
 29 41  1  0  0  0  0
 30 35  1  0  0  0  0
 30 34  1  0  0  0  0
 31 36  1  6  0  0  0
 31 33  1  0  0  0  0
 32 35  1  6  0  0  0
 32 31  1  0  0  0  0
 32 33  1  0  0  0  0
 33 29  1  1  0  0  0
 34 31  1  0  0  0  0
 36 37  1  6  0  0  0
 39 36  1  0  0  0  0
 39 38  2  0  0  0  0
 40 39  1  0  0  0  0
 42 41  1  0  0  0  0
 43 42  1  0  0  0  0
 44 43  1  0  0  0  0
 45 44  1  0  0  0  0
M  END
>  <MODEL>
7

>  <REMARK>
 VINA RESULT:      -6.4      2.452      8.845
  Name = 
  12 active torsions:
  status: ('A' for Active; 'I' for Inactive)
    1  A    between atoms: C_1  and  C_35
    2  A    between atoms: C_1  and  N_45
    3  A    between atoms: C_5  and  N_45
    4  A    between atoms: C_10  and  C_24
    5  A    between atoms: N_12  and  C_23
    6  A    between atoms: N_12  and  C_32
    7  A    between atoms: C_13  and  N_14
    8  A    between atoms: N_14  and  C_23
    9  A    between atoms: C_18  and  C_33
   10  A    between atoms: C_24  and  C_35
   11  A    between atoms: C_30  and  N_45
   12  A    between atoms: C_33  and  C_38
                            x       y       z     vdW  Elec       q    Type
                         _______ _______ _______ _____ _____    ______ ____

>  <TORSDO>
F 12

$$$$
=
 OpenBabel11062417243D

 45 50  0  0  1  0  0  0  0  0999 V2000
  189.4560  177.1930  139.2350 C   0  0  0  0  0  0  0  0  0  0  0  0
  184.9040  177.0880  137.0820 C   0  0  0  0  0  3  0  0  0  0  0  0
  184.6270  177.2700  138.5580 C   0  0  1  0  0  3  0  0  0  0  0  0
  188.2040  179.7260  140.9870 O   0  0  0  0  0  1  0  0  0  0  0  0
  187.3240  177.1480  137.4600 C   0  0  0  0  0  0  0  0  0  0  0  0
  185.6470  178.6620  139.1810 S   0  0  0  0  0  0  0  0  0  0  0  0
  188.2140  177.7810  139.6360 C   0  0  0  0  0  0  0  0  0  0  0  0
  186.1450  176.9950  136.5950 C   0  0  0  0  0  3  0  0  0  0  0  0
  188.5020  176.6080  137.0930 C   0  0  0  0  0  3  0  0  0  0  0  0
  188.3450  178.3380  141.0070 C   0  0  1  0  0  0  0  0  0  0  0  0
  189.6090  176.6360  137.9630 O   0  0  0  0  0  0  0  0  0  0  0  0
  189.8030  177.9600  141.3870 C   0  0  2  0  0  3  0  0  0  0  0  0
  190.3740  177.2700  140.1750 C   0  0  0  0  0  3  0  0  0  0  0  0
  187.1800  177.8110  138.7880 C   0  0  0  0  0  0  0  0  0  0  0  0
  187.4020  177.7740  141.8520 F   0  0  0  0  0  0  0  0  0  0  0  0
  189.8490  177.0530  142.5280 N   0  0  0  0  0  2  0  0  0  0  0  0
  191.6970  178.5460  143.6840 S   0  0  0  0  0  0  0  0  0  0  0  0
  190.5670  177.3590  143.7240 C   0  0  0  0  0  0  0  0  0  0  0  0
  190.2820  176.6460  144.9340 N   0  0  0  0  0  2  0  0  0  0  0  0
  187.1920  178.1300  147.4650 C   0  0  0  0  0  2  0  0  0  0  0  0
  189.2740  176.7490  147.1600 C   0  0  0  0  0  2  0  0  0  0  0  0
  189.0150  176.7280  145.6460 C   0  0  1  0  0  3  0  0  0  0  0  0
  188.2170  177.9390  145.1560 C   0  0  0  0  0  2  0  0  0  0  0  0
  188.6550  177.9530  147.8740 C   0  0  0  0  0  2  0  0  0  0  0  0
  187.0450  178.1390  146.0060 N   0  0  0  0  0  0  0  0  0  0  0  0
  185.6500  178.4370  144.1520 O   0  0  0  0  0  0  0  0  0  0  0  0
  184.5560  178.6300  146.2470 C   0  0  0  0  0  1  0  0  0  0  0  0
  185.7670  178.4000  145.4060 C   0  0  0  0  0  0  0  0  0  0  0  0
  183.1890  177.4700  138.8020 N   0  0  0  0  0  0  0  0  0  0  0  0
  180.1040  177.2830  135.3440 C   0  0  0  0  0  2  0  0  0  0  0  0
  181.7710  176.3930  137.0930 C   0  0  2  0  0  0  0  0  0  0  0  0
  180.9910  177.5820  137.6120 C   0  0  1  0  0  3  0  0  0  0  0  0
  182.5170  177.6620  137.5090 C   0  0  1  0  0  3  0  0  0  0  0  0
  181.5250  176.1660  135.3010 S   0  0  0  0  0  0  0  0  0  0  0  0
  180.3680  178.3020  136.4310 C   0  0  0  0  0  2  0  0  0  0  0  0
  181.6600  175.1930  138.0440 C   0  0  1  0  0  3  0  0  0  0  0  0
  180.2140  174.8950  138.4090 C   0  0  0  0  0  1  0  0  0  0  0  0
  183.5750  173.8440  137.6210 O   0  0  0  0  0  0  0  0  0  0  0  0
  182.3280  173.9700  137.5050 C   0  0  0  0  0  0  0  0  0  0  0  0
  181.5710  172.9380  136.8800 N   0  0  0  0  0  1  0  0  0  0  0  0
  183.0540  178.7150  139.5640 C   0  0  0  0  0  2  0  0  0  0  0  0
  182.0820  178.5260  140.7180 C   0  0  0  0  0  2  0  0  0  0  0  0
  182.8070  178.6380  142.0480 C   0  0  0  0  0  2  0  0  0  0  0  0
  181.8140  178.6320  143.1970 C   0  0  0  0  0  2  0  0  0  0  0  0
  180.4350  179.0330  142.7070 C   0  0  0  0  0  1  0  0  0  0  0  0
  1  7  1  0  0  0  0
  1 13  2  0  0  0  0
  2  3  1  0  0  0  0
  3 29  1  6  0  0  0
  3  6  1  0  0  0  0
  5 14  1  0  0  0  0
  7 10  1  0  0  0  0
  8  2  2  0  0  0  0
  8  5  1  0  0  0  0
  9  5  2  0  0  0  0
  9 11  1  0  0  0  0
 10  4  1  6  0  0  0
 10 12  1  0  0  0  0
 10 15  1  0  0  0  0
 11  1  1  0  0  0  0
 12 16  1  1  0  0  0
 13 12  1  0  0  0  0
 14  6  1  0  0  0  0
 14  7  2  0  0  0  0
 16 18  1  0  0  0  0
 17 18  2  0  0  0  0
 18 19  1  0  0  0  0
 20 24  1  0  0  0  0
 21 24  1  0  0  0  0
 22 19  1  6  0  0  0
 22 21  1  0  0  0  0
 23 22  1  0  0  0  0
 23 25  1  0  0  0  0
 25 20  1  0  0  0  0
 26 28  2  0  0  0  0
 28 25  1  0  0  0  0
 28 27  1  0  0  0  0
 29 41  1  0  0  0  0
 30 35  1  0  0  0  0
 31 33  1  0  0  0  0
 31 32  1  0  0  0  0
 31 36  1  1  0  0  0
 32 35  1  6  0  0  0
 33 32  1  0  0  0  0
 33 29  1  1  0  0  0
 34 30  1  0  0  0  0
 34 31  1  0  0  0  0
 36 37  1  6  0  0  0
 39 38  2  0  0  0  0
 39 36  1  0  0  0  0
 40 39  1  0  0  0  0
 41 42  1  0  0  0  0
 42 43  1  0  0  0  0
 43 44  1  0  0  0  0
 45 44  1  0  0  0  0
M  END
>  <MODEL>
8

>  <REMARK>
 VINA RESULT:      -6.4      2.109      2.821
  Name = 
  12 active torsions:
  status: ('A' for Active; 'I' for Inactive)
    1  A    between atoms: C_1  and  C_35
    2  A    between atoms: C_1  and  N_45
    3  A    between atoms: C_5  and  N_45
    4  A    between atoms: C_10  and  C_24
    5  A    between atoms: N_12  and  C_23
    6  A    between atoms: N_12  and  C_32
    7  A    between atoms: C_13  and  N_14
    8  A    between atoms: N_14  and  C_23
    9  A    between atoms: C_18  and  C_33
   10  A    between atoms: C_24  and  C_35
   11  A    between atoms: C_30  and  N_45
   12  A    between atoms: C_33  and  C_38
                            x       y       z     vdW  Elec       q    Type
                         _______ _______ _______ _____ _____    ______ ____

>  <TORSDO>
F 12

$$$$
=
 OpenBabel11062417243D

 45 50  0  0  1  0  0  0  0  0999 V2000
  188.7150  175.8600  137.5970 C   0  0  0  0  0  0  0  0  0  0  0  0
  184.0740  175.0800  135.8010 C   0  0  0  0  0  3  0  0  0  0  0  0
  183.9100  176.1790  136.8280 C   0  0  1  0  0  3  0  0  0  0  0  0
  187.9190  179.0770  137.3310 O   0  0  0  0  0  1  0  0  0  0  0  0
  186.4980  175.0200  136.1550 C   0  0  0  0  0  0  0  0  0  0  0  0
  185.1430  177.4940  136.4850 S   0  0  0  0  0  0  0  0  0  0  0  0
  187.5880  176.7380  137.4930 C   0  0  0  0  0  0  0  0  0  0  0  0
  185.2620  174.5300  135.5290 C   0  0  0  0  0  3  0  0  0  0  0  0
  187.5690  174.2100  136.2540 C   0  0  0  0  0  3  0  0  0  0  0  0
  187.8720  178.0010  138.2190 C   0  0  1  0  0  0  0  0  0  0  0  0
  188.7180  174.6170  136.9590 O   0  0  0  0  0  0  0  0  0  0  0  0
  189.2860  177.7420  138.8100 C   0  0  2  0  0  3  0  0  0  0  0  0
  189.6870  176.3760  138.3190 C   0  0  0  0  0  3  0  0  0  0  0  0
  186.5210  176.3780  136.7720 C   0  0  0  0  0  0  0  0  0  0  0  0
  186.9120  178.2280  139.1930 F   0  0  0  0  0  0  0  0  0  0  0  0
  189.2740  177.7490  140.2680 N   0  0  0  0  0  2  0  0  0  0  0  0
  191.8220  177.5030  140.9210 S   0  0  0  0  0  0  0  0  0  0  0  0
  190.2500  177.0570  141.0470 C   0  0  0  0  0  0  0  0  0  0  0  0
  189.8460  176.0040  141.9330 N   0  0  0  0  0  2  0  0  0  0  0  0
  189.5190  177.8730  145.7480 C   0  0  0  0  0  2  0  0  0  0  0  0
  190.8070  176.4260  144.1430 C   0  0  0  0  0  2  0  0  0  0  0  0
  189.5180  176.2050  143.3360 C   0  0  1  0  0  3  0  0  0  0  0  0
  188.5150  177.3530  143.4810 C   0  0  0  0  0  2  0  0  0  0  0  0
  190.8140  177.7260  144.9500 C   0  0  0  0  0  2  0  0  0  0  0  0
  188.3410  177.6870  144.8930 N   0  0  0  0  0  0  0  0  0  0  0  0
  186.0140  177.7570  144.6750 O   0  0  0  0  0  0  0  0  0  0  0  0
  186.8120  178.2500  146.8520 C   0  0  0  0  0  1  0  0  0  0  0  0
  187.0210  177.8880  145.4190 C   0  0  0  0  0  0  0  0  0  0  0  0
  182.5280  176.6880  136.8360 N   0  0  0  0  0  0  0  0  0  0  0  0
  179.1370  174.8550  139.4130 C   0  0  0  0  0  2  0  0  0  0  0  0
  181.1310  176.3810  138.8470 C   0  0  2  0  0  0  0  0  0  0  0  0
  180.2190  176.1800  137.6560 C   0  0  1  0  0  3  0  0  0  0  0  0
  181.6840  175.7380  137.5740 C   0  0  1  0  0  3  0  0  0  0  0  0
  180.7190  175.2340  140.2030 S   0  0  0  0  0  0  0  0  0  0  0  0
  179.3420  174.9710  137.9200 C   0  0  0  0  0  2  0  0  0  0  0  0
  181.3500  177.8720  139.1390 C   0  0  1  0  0  3  0  0  0  0  0  0
  180.0410  178.5840  139.4440 C   0  0  0  0  0  1  0  0  0  0  0  0
  181.9330  178.2680  141.4130 O   0  0  0  0  0  0  0  0  0  0  0  0
  182.3400  178.1030  140.2340 C   0  0  0  0  0  0  0  0  0  0  0  0
  183.7390  178.1210  139.9630 N   0  0  0  0  0  1  0  0  0  0  0  0
  182.0700  176.7030  135.4440 C   0  0  0  0  0  2  0  0  0  0  0  0
  181.9470  178.1340  134.9430 C   0  0  0  0  0  2  0  0  0  0  0  0
  181.5370  179.0610  136.0750 C   0  0  0  0  0  2  0  0  0  0  0  0
  180.7640  180.2510  135.5350 C   0  0  0  0  0  2  0  0  0  0  0  0
  180.5360  181.2760  136.6300 C   0  0  0  0  0  1  0  0  0  0  0  0
  1 13  2  0  0  0  0
  2  3  1  0  0  0  0
  3 29  1  6  0  0  0
  5  9  2  0  0  0  0
  5 14  1  0  0  0  0
  6 14  1  0  0  0  0
  6  3  1  0  0  0  0
  7  1  1  0  0  0  0
  7 10  1  0  0  0  0
  8  2  2  0  0  0  0
  8  5  1  0  0  0  0
  9 11  1  0  0  0  0
 10  4  1  6  0  0  0
 10 12  1  0  0  0  0
 10 15  1  0  0  0  0
 11  1  1  0  0  0  0
 12 16  1  1  0  0  0
 13 12  1  0  0  0  0
 14  7  2  0  0  0  0
 16 18  1  0  0  0  0
 17 18  2  0  0  0  0
 18 19  1  0  0  0  0
 21 24  1  0  0  0  0
 22 19  1  6  0  0  0
 22 23  1  0  0  0  0
 22 21  1  0  0  0  0
 23 25  1  0  0  0  0
 24 20  1  0  0  0  0
 25 28  1  0  0  0  0
 25 20  1  0  0  0  0
 26 28  2  0  0  0  0
 28 27  1  0  0  0  0
 30 34  1  0  0  0  0
 31 36  1  1  0  0  0
 31 34  1  0  0  0  0
 32 35  1  1  0  0  0
 32 31  1  0  0  0  0
 33 29  1  6  0  0  0
 33 32  1  0  0  0  0
 33 31  1  0  0  0  0
 35 30  1  0  0  0  0
 36 37  1  1  0  0  0
 36 39  1  0  0  0  0
 39 38  2  0  0  0  0
 40 39  1  0  0  0  0
 41 29  1  0  0  0  0
 42 41  1  0  0  0  0
 42 43  1  0  0  0  0
 44 43  1  0  0  0  0
 44 45  1  0  0  0  0
M  END
>  <MODEL>
9

>  <REMARK>
 VINA RESULT:      -6.4      1.916      3.560
  Name = 
  12 active torsions:
  status: ('A' for Active; 'I' for Inactive)
    1  A    between atoms: C_1  and  C_35
    2  A    between atoms: C_1  and  N_45
    3  A    between atoms: C_5  and  N_45
    4  A    between atoms: C_10  and  C_24
    5  A    between atoms: N_12  and  C_23
    6  A    between atoms: N_12  and  C_32
    7  A    between atoms: C_13  and  N_14
    8  A    between atoms: N_14  and  C_23
    9  A    between atoms: C_18  and  C_33
   10  A    between atoms: C_24  and  C_35
   11  A    between atoms: C_30  and  N_45
   12  A    between atoms: C_33  and  C_38
                            x       y       z     vdW  Elec       q    Type
                         _______ _______ _______ _____ _____    ______ ____

>  <TORSDO>
F 12

$$$$
