=
 OpenBabel11062415273D

 37 42  0  0  1  0  0  0  0  0999 V2000
  186.8330  176.0120  135.6450 C   0  0  1  0  0  3  0  0  0  0  0  0
  186.6520  178.4290  140.1560 N   0  0  0  0  0  2  0  0  0  0  0  0
  189.4270  178.1540  136.9400 C   0  0  0  0  0  2  0  0  0  0  0  0
  186.2080  178.5540  138.8050 C   0  0  0  0  0  3  0  0  0  0  0  0
  188.8930  177.8690  139.3000 C   0  0  0  0  0  3  0  0  0  0  0  0
  186.5780  178.4390  136.3640 C   0  0  0  0  0  2  0  0  0  0  0  0
  187.3560  177.4590  135.4580 C   0  0  1  0  0  3  0  0  0  0  0  0
  187.9410  177.8150  140.4740 C   0  0  1  0  0  3  0  0  0  0  0  0
  189.0980  174.9970  135.2690 C   0  0  1  0  0  3  0  0  0  0  0  0
  188.4470  178.0000  138.0510 C   0  0  0  0  0  0  0  0  0  0  0  0
  188.9040  177.5920  135.6120 C   0  0  2  0  0  3  0  0  0  0  0  0
  185.4890  175.9390  135.2590 O   0  0  0  0  0  1  0  0  0  0  0  0
  190.8800  176.5060  134.9110 O   0  0  0  0  0  0  0  0  0  0  0  0
  187.6390  175.0160  134.8270 C   0  0  0  0  0  2  0  0  0  0  0  0
  187.0280  178.2780  137.7840 C   0  0  0  0  0  0  0  0  0  0  0  0
  189.6970  176.3710  135.2010 C   0  0  0  0  0  0  0  0  0  0  0  0
  189.2520  174.4610  136.6830 C   0  0  0  0  0  2  0  0  0  0  0  0
  190.5310  173.6540  136.8160 C   0  0  0  0  0  2  0  0  0  0  0  0
  192.8770  174.2100  137.4740 O   0  0  0  0  0  0  0  0  0  0  0  0
  191.1080  175.2950  138.4500 O   0  0  0  0  0  1  0  0  0  0  0  0
  191.5130  174.4200  137.6360 C   0  0  0  0  0  0  0  0  0  0  0  0
  188.5750  178.5250  141.6490 C   0  0  0  0  0  2  0  0  0  0  0  0
  190.1540  176.8930  142.6450 O   0  0  0  0  0  0  0  0  0  0  0  0
  188.9300  177.5760  142.7940 C   0  0  1  0  0  0  0  0  0  0  0  0
  190.1550  177.9880  143.5460 C   0  0  1  0  0  3  0  0  0  0  0  0
  190.3770  177.5130  144.9610 C   0  0  0  0  0  0  0  0  0  0  0  0
  189.7050  177.9630  145.9820 N   0  0  0  0  0  0  0  0  0  0  0  0
  191.7480  176.0990  146.3420 C   0  0  0  0  0  0  0  0  0  0  0  0
  189.3120  178.0110  148.3010 N   0  0  0  0  0  2  0  0  0  0  0  0
  191.2350  176.7450  147.5880 C   0  0  0  0  0  2  0  0  0  0  0  0
  192.7050  175.1440  146.4400 F   0  0  0  0  0  0  0  0  0  0  0  0
  189.9970  177.5420  147.3110 C   0  0  0  0  0  0  0  0  0  0  0  0
  191.3710  176.4970  145.1620 N   0  0  0  0  0  0  0  0  0  0  0  0
  187.8310  176.7440  143.4690 C   0  0  0  0  0  2  0  0  0  0  0  0
  186.1830  177.3440  145.1570 C   0  0  0  0  0  2  0  0  0  0  0  0
  186.5860  177.5620  143.7630 C   0  0  1  0  0  3  0  0  0  0  0  0
  186.8760  178.5040  144.7750 O   0  0  0  0  0  0  0  0  0  0  0  0
  1 12  1  6  0  0  0
  2  8  1  0  0  0  0
  3 10  1  0  0  0  0
  4  2  1  0  0  0  0
  5  8  1  0  0  0  0
  6 15  1  0  0  0  0
  7 11  1  0  0  0  0
  7  1  1  0  0  0  0
  7  6  1  1  0  0  0
  8 22  1  1  0  0  0
  9 17  1  1  0  0  0
 10  5  2  0  0  0  0
 11  3  1  1  0  0  0
 13 16  2  0  0  0  0
 14  9  1  0  0  0  0
 14  1  1  0  0  0  0
 15 10  1  0  0  0  0
 15  4  2  0  0  0  0
 16  9  1  0  0  0  0
 16 11  1  0  0  0  0
 17 18  1  0  0  0  0
 18 21  1  0  0  0  0
 19 21  2  0  0  0  0
 21 20  1  0  0  0  0
 23 24  1  0  0  0  0
 23 25  1  0  0  0  0
 24 22  1  6  0  0  0
 24 34  1  0  0  0  0
 24 25  1  0  0  0  0
 25 26  1  1  0  0  0
 26 33  1  0  0  0  0
 26 27  2  0  0  0  0
 27 32  1  0  0  0  0
 28 31  1  0  0  0  0
 28 30  1  0  0  0  0
 32 30  1  0  0  0  0
 32 29  2  0  0  0  0
 33 28  2  0  0  0  0
 36 34  1  1  0  0  0
 36 37  1  0  0  0  0
 36 35  1  0  0  0  0
 37 35  1  0  0  0  0
M  END
>  <MODEL>
1

>  <REMARK>
 VINA RESULT:      -7.7      0.000      0.000
  Name = 
  8 active torsions:
  status: ('A' for Active; 'I' for Inactive)
    1  A    between atoms: C_1  and  C_17
    2  A    between atoms: C_7  and  C_32
    3  A    between atoms: C_7  and  C_34
    4  A    between atoms: C_11  and  C_34
    5  A    between atoms: C_23  and  C_27
    6  A    between atoms: C_23  and  C_36
    7  A    between atoms: C_25  and  C_32
    8  A    between atoms: C_26  and  C_27
                            x       y       z     vdW  Elec       q    Type
                         _______ _______ _______ _____ _____    ______ ____

>  <TORSDO>
F 8

$$$$
=
 OpenBabel11062415273D

 37 42  0  0  1  0  0  0  0  0999 V2000
  186.8460  175.9370  135.6210 C   0  0  1  0  0  3  0  0  0  0  0  0
  186.6440  178.4400  140.0830 N   0  0  0  0  0  2  0  0  0  0  0  0
  189.4170  178.1350  136.8690 C   0  0  0  0  0  2  0  0  0  0  0  0
  186.1960  178.5330  138.7310 C   0  0  0  0  0  3  0  0  0  0  0  0
  188.8900  177.8910  139.2350 C   0  0  0  0  0  3  0  0  0  0  0  0
  186.5630  178.3740  136.2920 C   0  0  0  0  0  2  0  0  0  0  0  0
  187.3520  177.3860  135.4040 C   0  0  1  0  0  3  0  0  0  0  0  0
  187.9400  177.8490  140.4110 C   0  0  1  0  0  3  0  0  0  0  0  0
  189.1230  174.9420  135.2610 C   0  0  1  0  0  3  0  0  0  0  0  0
  188.4400  177.9910  137.9850 C   0  0  0  0  0  0  0  0  0  0  0  0
  188.8990  177.5400  135.5530 C   0  0  2  0  0  3  0  0  0  0  0  0
  185.5030  175.8400  135.2390 O   0  0  0  0  0  1  0  0  0  0  0  0
  190.8860  176.4650  134.8700 O   0  0  0  0  0  0  0  0  0  0  0  0
  187.6630  174.9350  134.8210 C   0  0  0  0  0  2  0  0  0  0  0  0
  187.0180  178.2470  137.7140 C   0  0  0  0  0  0  0  0  0  0  0  0
  189.7050  176.3220  135.1650 C   0  0  0  0  0  0  0  0  0  0  0  0
  189.2860  174.4360  136.6850 C   0  0  0  0  0  2  0  0  0  0  0  0
  190.5590  173.6210  136.8250 C   0  0  0  0  0  2  0  0  0  0  0  0
  191.1240  175.3210  138.5670 O   0  0  0  0  0  1  0  0  0  0  0  0
  192.7860  174.1760  137.4780 O   0  0  0  0  0  0  0  0  0  0  0  0
  191.5520  174.3940  137.6240 C   0  0  0  0  0  0  0  0  0  0  0  0
  188.5680  178.5880  141.5710 C   0  0  0  0  0  2  0  0  0  0  0  0
  190.2510  177.0690  142.5710 O   0  0  0  0  0  0  0  0  0  0  0  0
  188.9800  177.6610  142.7130 C   0  0  1  0  0  0  0  0  0  0  0  0
  190.1660  178.1550  143.4780 C   0  0  1  0  0  3  0  0  0  0  0  0
  190.4100  177.6880  144.8920 C   0  0  0  0  0  0  0  0  0  0  0  0
  191.3680  176.8690  145.2220 N   0  0  0  0  0  0  0  0  0  0  0  0
  189.5630  177.7820  147.1420 C   0  0  0  0  0  0  0  0  0  0  0  0
  192.4780  175.5800  146.8470 N   0  0  0  0  0  2  0  0  0  0  0  0
  190.4400  176.6480  147.5660 C   0  0  0  0  0  2  0  0  0  0  0  0
  188.6970  178.3150  148.0370 F   0  0  0  0  0  0  0  0  0  0  0  0
  191.5180  176.3950  146.5560 C   0  0  0  0  0  0  0  0  0  0  0  0
  189.5410  178.2050  145.9120 N   0  0  0  0  0  0  0  0  0  0  0  0
  187.9390  176.7470  143.3750 C   0  0  0  0  0  2  0  0  0  0  0  0
  186.2420  177.3400  145.0160 C   0  0  0  0  0  2  0  0  0  0  0  0
  186.6130  177.4530  143.6010 C   0  0  1  0  0  3  0  0  0  0  0  0
  186.8030  178.5220  144.5040 O   0  0  0  0  0  0  0  0  0  0  0  0
  1 12  1  6  0  0  0
  2  8  1  0  0  0  0
  3 10  1  0  0  0  0
  4  2  1  0  0  0  0
  5  8  1  0  0  0  0
  6 15  1  0  0  0  0
  7 11  1  0  0  0  0
  7  1  1  0  0  0  0
  7  6  1  1  0  0  0
  8 22  1  1  0  0  0
  9 17  1  1  0  0  0
 10  5  2  0  0  0  0
 11  3  1  1  0  0  0
 13 16  2  0  0  0  0
 14  9  1  0  0  0  0
 14  1  1  0  0  0  0
 15 10  1  0  0  0  0
 15  4  2  0  0  0  0
 16  9  1  0  0  0  0
 16 11  1  0  0  0  0
 17 18  1  0  0  0  0
 18 21  1  0  0  0  0
 20 21  2  0  0  0  0
 21 19  1  0  0  0  0
 23 24  1  0  0  0  0
 23 25  1  0  0  0  0
 24 22  1  6  0  0  0
 24 34  1  0  0  0  0
 24 25  1  0  0  0  0
 25 26  1  1  0  0  0
 26 27  2  0  0  0  0
 26 33  1  0  0  0  0
 27 32  1  0  0  0  0
 28 30  1  0  0  0  0
 28 31  1  0  0  0  0
 32 29  2  0  0  0  0
 32 30  1  0  0  0  0
 33 28  2  0  0  0  0
 36 34  1  1  0  0  0
 36 37  1  0  0  0  0
 36 35  1  0  0  0  0
 37 35  1  0  0  0  0
M  END
>  <MODEL>
2

>  <REMARK>
 VINA RESULT:      -7.6      0.990      1.490
  Name = 
  8 active torsions:
  status: ('A' for Active; 'I' for Inactive)
    1  A    between atoms: C_1  and  C_17
    2  A    between atoms: C_7  and  C_32
    3  A    between atoms: C_7  and  C_34
    4  A    between atoms: C_11  and  C_34
    5  A    between atoms: C_23  and  C_27
    6  A    between atoms: C_23  and  C_36
    7  A    between atoms: C_25  and  C_32
    8  A    between atoms: C_26  and  C_27
                            x       y       z     vdW  Elec       q    Type
                         _______ _______ _______ _____ _____    ______ ____

>  <TORSDO>
F 8

$$$$
=
 OpenBabel11062415273D

 37 42  0  0  1  0  0  0  0  0999 V2000
  180.4650  176.8880  139.6470 C   0  0  1  0  0  3  0  0  0  0  0  0
  183.6580  178.5900  143.2700 N   0  0  0  0  0  2  0  0  0  0  0  0
  183.2500  179.1020  139.0640 C   0  0  0  0  0  2  0  0  0  0  0  0
  182.3790  178.8580  142.6940 C   0  0  0  0  0  3  0  0  0  0  0  0
  184.5770  178.4200  140.9910 C   0  0  0  0  0  3  0  0  0  0  0  0
  180.8710  179.1400  140.7570 C   0  0  0  0  0  2  0  0  0  0  0  0
  180.7300  178.3960  139.4100 C   0  0  1  0  0  3  0  0  0  0  0  0
  184.7630  178.0880  142.4550 C   0  0  1  0  0  3  0  0  0  0  0  0
  181.7360  176.2030  137.5920 C   0  0  1  0  0  3  0  0  0  0  0  0
  183.3700  178.6770  140.4870 C   0  0  0  0  0  0  0  0  0  0  0  0
  181.9160  178.6810  138.4350 C   0  0  2  0  0  3  0  0  0  0  0  0
  179.2560  176.7180  140.3300 O   0  0  0  0  0  1  0  0  0  0  0  0
  182.7490  177.9410  136.3540 O   0  0  0  0  0  0  0  0  0  0  0  0
  180.4070  176.1190  138.3360 C   0  0  0  0  0  2  0  0  0  0  0  0
  182.2030  178.8280  141.3680 C   0  0  0  0  0  0  0  0  0  0  0  0
  182.1360  177.6320  137.3690 C   0  0  0  0  0  0  0  0  0  0  0  0
  182.8480  175.4890  138.3410 C   0  0  0  0  0  2  0  0  0  0  0  0
  183.3870  174.3270  137.5270 C   0  0  0  0  0  2  0  0  0  0  0  0
  185.2340  175.7270  136.5910 O   0  0  0  0  0  0  0  0  0  0  0  0
  185.6930  173.7190  137.6000 O   0  0  0  0  0  1  0  0  0  0  0  0
  184.8290  174.5610  137.2300 C   0  0  0  0  0  0  0  0  0  0  0  0
  186.0690  178.6880  142.9270 C   0  0  0  0  0  2  0  0  0  0  0  0
  187.4070  176.6060  143.0750 O   0  0  0  0  0  0  0  0  0  0  0  0
  186.8950  177.7200  143.7730 C   0  0  1  0  0  0  0  0  0  0  0  0
  188.3290  177.6460  143.3560 C   0  0  1  0  0  3  0  0  0  0  0  0
  189.3820  177.1740  144.3290 C   0  0  0  0  0  0  0  0  0  0  0  0
  189.3760  177.4780  145.5950 N   0  0  0  0  0  0  0  0  0  0  0  0
  191.4560  175.9680  144.5120 C   0  0  0  0  0  0  0  0  0  0  0  0
  190.3930  177.3950  147.7160 N   0  0  0  0  0  2  0  0  0  0  0  0
  191.6850  176.4850  145.8960 C   0  0  0  0  0  2  0  0  0  0  0  0
  192.3980  175.1820  143.9380 F   0  0  0  0  0  0  0  0  0  0  0  0
  190.4300  177.0740  146.4650 C   0  0  0  0  0  0  0  0  0  0  0  0
  190.4230  176.3310  143.8100 N   0  0  0  0  0  0  0  0  0  0  0  0
  186.4750  177.4090  145.2160 C   0  0  0  0  0  2  0  0  0  0  0  0
  184.9900  178.3190  146.9170 C   0  0  0  0  0  2  0  0  0  0  0  0
  186.0660  178.6580  145.9790 C   0  0  1  0  0  3  0  0  0  0  0  0
  186.3160  178.4650  147.3550 O   0  0  0  0  0  0  0  0  0  0  0  0
  1 12  1  6  0  0  0
  3 10  1  0  0  0  0
  4  2  1  0  0  0  0
  5  8  1  0  0  0  0
  6 15  1  0  0  0  0
  7  1  1  0  0  0  0
  7  6  1  1  0  0  0
  8 22  1  1  0  0  0
  8  2  1  0  0  0  0
  9 14  1  0  0  0  0
  9 17  1  1  0  0  0
 10  5  2  0  0  0  0
 10 15  1  0  0  0  0
 11  3  1  1  0  0  0
 11  7  1  0  0  0  0
 13 16  2  0  0  0  0
 14  1  1  0  0  0  0
 15  4  2  0  0  0  0
 16  9  1  0  0  0  0
 16 11  1  0  0  0  0
 18 17  1  0  0  0  0
 19 21  2  0  0  0  0
 21 18  1  0  0  0  0
 21 20  1  0  0  0  0
 23 25  1  0  0  0  0
 23 24  1  0  0  0  0
 24 22  1  6  0  0  0
 24 34  1  0  0  0  0
 25 24  1  0  0  0  0
 25 26  1  1  0  0  0
 26 27  2  0  0  0  0
 27 32  1  0  0  0  0
 28 30  1  0  0  0  0
 30 32  1  0  0  0  0
 31 28  1  0  0  0  0
 32 29  2  0  0  0  0
 33 26  1  0  0  0  0
 33 28  2  0  0  0  0
 35 37  1  0  0  0  0
 36 34  1  6  0  0  0
 36 35  1  0  0  0  0
 36 37  1  0  0  0  0
M  END
>  <MODEL>
3

>  <REMARK>
 VINA RESULT:      -7.2      3.767      5.341
  Name = 
  8 active torsions:
  status: ('A' for Active; 'I' for Inactive)
    1  A    between atoms: C_1  and  C_17
    2  A    between atoms: C_7  and  C_32
    3  A    between atoms: C_7  and  C_34
    4  A    between atoms: C_11  and  C_34
    5  A    between atoms: C_23  and  C_27
    6  A    between atoms: C_23  and  C_36
    7  A    between atoms: C_25  and  C_32
    8  A    between atoms: C_26  and  C_27
                            x       y       z     vdW  Elec       q    Type
                         _______ _______ _______ _____ _____    ______ ____

>  <TORSDO>
F 8

$$$$
=
 OpenBabel11062415273D

 37 42  0  0  1  0  0  0  0  0999 V2000
  187.6870  175.9290  135.3730 C   0  0  1  0  0  3  0  0  0  0  0  0
  189.2490  178.3580  139.6020 N   0  0  0  0  0  2  0  0  0  0  0  0
  191.0980  176.0630  136.5320 C   0  0  0  0  0  2  0  0  0  0  0  0
  188.9330  178.5970  138.2300 C   0  0  0  0  0  3  0  0  0  0  0  0
  190.5960  176.4230  138.8890 C   0  0  0  0  0  3  0  0  0  0  0  0
  189.0530  178.0260  135.8290 C   0  0  0  0  0  2  0  0  0  0  0  0
  189.0010  176.6890  135.0570 C   0  0  1  0  0  3  0  0  0  0  0  0
  189.8690  177.1040  140.0270 C   0  0  1  0  0  3  0  0  0  0  0  0
  188.7820  173.6770  135.1850 C   0  0  1  0  0  3  0  0  0  0  0  0
  190.2850  176.6780  137.6180 C   0  0  0  0  0  0  0  0  0  0  0  0
  190.2880  175.8270  135.2520 C   0  0  2  0  0  3  0  0  0  0  0  0
  186.5870  176.6840  134.9500 O   0  0  0  0  0  1  0  0  0  0  0  0
  191.1020  173.6720  134.7360 O   0  0  0  0  0  0  0  0  0  0  0  0
  187.6490  174.5710  134.6910 C   0  0  0  0  0  2  0  0  0  0  0  0
  189.3540  177.7620  137.2730 C   0  0  0  0  0  0  0  0  0  0  0  0
  190.1130  174.3460  134.9970 C   0  0  0  0  0  0  0  0  0  0  0  0
  188.6160  173.3130  136.6500 C   0  0  0  0  0  2  0  0  0  0  0  0
  187.7480  172.0780  136.8030 C   0  0  0  0  0  2  0  0  0  0  0  0
  185.3880  172.0760  135.9780 O   0  0  0  0  0  0  0  0  0  0  0  0
  185.9460  173.1870  137.9060 O   0  0  0  0  0  1  0  0  0  0  0  0
  186.3200  172.4920  136.9220 C   0  0  0  0  0  0  0  0  0  0  0  0
  190.8540  177.3670  141.1440 C   0  0  0  0  0  2  0  0  0  0  0  0
  190.2930  175.6580  142.8500 O   0  0  0  0  0  0  0  0  0  0  0  0
  190.2900  177.0290  142.5240 C   0  0  1  0  0  0  0  0  0  0  0  0
  191.3060  176.4450  143.4530 C   0  0  1  0  0  3  0  0  0  0  0  0
  191.1050  176.5190  144.9470 C   0  0  0  0  0  0  0  0  0  0  0  0
  190.0770  177.0900  145.5040 N   0  0  0  0  0  0  0  0  0  0  0  0
  192.1160  176.0080  147.0690 C   0  0  0  0  0  0  0  0  0  0  0  0
  188.9290  177.7790  147.4400 N   0  0  0  0  0  2  0  0  0  0  0  0
  191.1340  176.8700  147.7930 C   0  0  0  0  0  2  0  0  0  0  0  0
  193.1050  175.4040  147.7700 F   0  0  0  0  0  0  0  0  0  0  0  0
  189.9620  177.2030  146.9200 C   0  0  0  0  0  0  0  0  0  0  0  0
  192.1040  175.9010  145.7730 N   0  0  0  0  0  0  0  0  0  0  0  0
  189.0730  177.7940  143.0640 C   0  0  0  0  0  2  0  0  0  0  0  0
  186.8210  177.4790  143.9340 C   0  0  0  0  0  2  0  0  0  0  0  0
  187.7880  176.9920  142.9430 C   0  0  1  0  0  3  0  0  0  0  0  0
  186.7320  177.8570  142.5850 O   0  0  0  0  0  0  0  0  0  0  0  0
  1 12  1  6  0  0  0
  2  8  1  0  0  0  0
  3 10  1  0  0  0  0
  4  2  1  0  0  0  0
  5  8  1  0  0  0  0
  6 15  1  0  0  0  0
  7 11  1  0  0  0  0
  7  1  1  0  0  0  0
  7  6  1  1  0  0  0
  8 22  1  1  0  0  0
  9 17  1  1  0  0  0
 10  5  2  0  0  0  0
 11  3  1  1  0  0  0
 13 16  2  0  0  0  0
 14  9  1  0  0  0  0
 14  1  1  0  0  0  0
 15 10  1  0  0  0  0
 15  4  2  0  0  0  0
 16  9  1  0  0  0  0
 16 11  1  0  0  0  0
 17 18  1  0  0  0  0
 18 21  1  0  0  0  0
 19 21  2  0  0  0  0
 21 20  1  0  0  0  0
 23 25  1  0  0  0  0
 24 22  1  6  0  0  0
 24 23  1  0  0  0  0
 24 34  1  0  0  0  0
 24 25  1  0  0  0  0
 25 26  1  1  0  0  0
 26 27  2  0  0  0  0
 26 33  1  0  0  0  0
 27 32  1  0  0  0  0
 28 31  1  0  0  0  0
 28 30  1  0  0  0  0
 32 29  2  0  0  0  0
 32 30  1  0  0  0  0
 33 28  2  0  0  0  0
 36 34  1  1  0  0  0
 36 35  1  0  0  0  0
 37 36  1  0  0  0  0
 37 35  1  0  0  0  0
M  END
>  <MODEL>
4

>  <REMARK>
 VINA RESULT:      -7.0      1.787      2.585
  Name = 
  8 active torsions:
  status: ('A' for Active; 'I' for Inactive)
    1  A    between atoms: C_1  and  C_17
    2  A    between atoms: C_7  and  C_32
    3  A    between atoms: C_7  and  C_34
    4  A    between atoms: C_11  and  C_34
    5  A    between atoms: C_23  and  C_27
    6  A    between atoms: C_23  and  C_36
    7  A    between atoms: C_25  and  C_32
    8  A    between atoms: C_26  and  C_27
                            x       y       z     vdW  Elec       q    Type
                         _______ _______ _______ _____ _____    ______ ____

>  <TORSDO>
F 8

$$$$
=
 OpenBabel11062415273D

 37 42  0  0  1  0  0  0  0  0999 V2000
  186.7650  176.3950  135.4200 C   0  0  1  0  0  3  0  0  0  0  0  0
  189.3660  178.7450  139.1520 N   0  0  0  0  0  2  0  0  0  0  0  0
  190.0840  175.4940  136.5010 C   0  0  0  0  0  2  0  0  0  0  0  0
  189.0570  178.8630  137.7640 C   0  0  0  0  0  3  0  0  0  0  0  0
  189.9050  176.3730  138.7670 C   0  0  0  0  0  3  0  0  0  0  0  0
  188.8020  177.9180  135.4940 C   0  0  0  0  0  2  0  0  0  0  0  0
  188.2350  176.5820  134.9630 C   0  0  1  0  0  3  0  0  0  0  0  0
  189.5420  177.4360  139.7790 C   0  0  1  0  0  3  0  0  0  0  0  0
  186.9970  173.9020  135.6080 C   0  0  1  0  0  3  0  0  0  0  0  0
  189.6130  176.5190  137.4740 C   0  0  0  0  0  0  0  0  0  0  0  0
  189.1540  175.3620  135.2890 C   0  0  2  0  0  3  0  0  0  0  0  0
  185.9680  177.4140  134.8850 O   0  0  0  0  0  1  0  0  0  0  0  0
  189.1330  173.0060  135.1420 O   0  0  0  0  0  0  0  0  0  0  0  0
  186.2110  175.0490  134.9810 C   0  0  0  0  0  2  0  0  0  0  0  0
  189.0940  177.7940  136.9590 C   0  0  0  0  0  0  0  0  0  0  0  0
  188.4590  174.0190  135.2940 C   0  0  0  0  0  0  0  0  0  0  0  0
  186.8190  173.8540  137.1160 C   0  0  0  0  0  2  0  0  0  0  0  0
  186.0230  172.6280  137.5260 C   0  0  0  0  0  2  0  0  0  0  0  0
  184.1690  174.2450  137.9680 O   0  0  0  0  0  1  0  0  0  0  0  0
  183.7110  172.1300  137.2100 O   0  0  0  0  0  0  0  0  0  0  0  0
  184.5730  172.9760  137.5730 C   0  0  0  0  0  0  0  0  0  0  0  0
  190.6320  177.5050  140.8250 C   0  0  0  0  0  2  0  0  0  0  0  0
  190.1600  175.8310  142.5900 O   0  0  0  0  0  0  0  0  0  0  0  0
  190.1260  177.1940  142.2320 C   0  0  1  0  0  0  0  0  0  0  0  0
  191.1850  176.6460  143.1350 C   0  0  1  0  0  3  0  0  0  0  0  0
  191.0410  176.7530  144.6330 C   0  0  0  0  0  0  0  0  0  0  0  0
  191.8930  176.2400  145.4740 N   0  0  0  0  0  0  0  0  0  0  0  0
  189.6000  177.5330  146.3950 C   0  0  0  0  0  0  0  0  0  0  0  0
  192.5450  175.7760  147.6870 N   0  0  0  0  0  2  0  0  0  0  0  0
  190.3570  176.7520  147.4190 C   0  0  0  0  0  2  0  0  0  0  0  0
  188.5040  178.2310  146.7760 F   0  0  0  0  0  0  0  0  0  0  0  0
  191.6800  176.2990  146.8810 C   0  0  0  0  0  0  0  0  0  0  0  0
  189.9080  177.4800  145.1320 N   0  0  0  0  0  0  0  0  0  0  0  0
  188.9210  177.9550  142.8010 C   0  0  0  0  0  2  0  0  0  0  0  0
  186.7330  177.6040  143.8090 C   0  0  0  0  0  2  0  0  0  0  0  0
  187.6470  177.1280  142.7630 C   0  0  1  0  0  3  0  0  0  0  0  0
  186.5540  177.9710  142.4650 O   0  0  0  0  0  0  0  0  0  0  0  0
  1 12  1  6  0  0  0
  2  8  1  0  0  0  0
  3 10  1  0  0  0  0
  4  2  1  0  0  0  0
  5  8  1  0  0  0  0
  6 15  1  0  0  0  0
  7 11  1  0  0  0  0
  7  1  1  0  0  0  0
  7  6  1  1  0  0  0
  8 22  1  1  0  0  0
  9 17  1  1  0  0  0
 10  5  2  0  0  0  0
 11 16  1  0  0  0  0
 11  3  1  1  0  0  0
 13 16  2  0  0  0  0
 14  1  1  0  0  0  0
 14  9  1  0  0  0  0
 15 10  1  0  0  0  0
 15  4  2  0  0  0  0
 16  9  1  0  0  0  0
 17 18  1  0  0  0  0
 18 21  1  0  0  0  0
 20 21  2  0  0  0  0
 21 19  1  0  0  0  0
 23 25  1  0  0  0  0
 24 22  1  6  0  0  0
 24 23  1  0  0  0  0
 24 34  1  0  0  0  0
 24 25  1  0  0  0  0
 25 26  1  1  0  0  0
 26 33  1  0  0  0  0
 26 27  2  0  0  0  0
 27 32  1  0  0  0  0
 28 31  1  0  0  0  0
 28 30  1  0  0  0  0
 32 30  1  0  0  0  0
 32 29  2  0  0  0  0
 33 28  2  0  0  0  0
 36 34  1  1  0  0  0
 36 35  1  0  0  0  0
 37 36  1  0  0  0  0
 37 35  1  0  0  0  0
M  END
>  <MODEL>
5

>  <REMARK>
 VINA RESULT:      -6.9      2.177      3.291
  Name = 
  8 active torsions:
  status: ('A' for Active; 'I' for Inactive)
    1  A    between atoms: C_1  and  C_17
    2  A    between atoms: C_7  and  C_32
    3  A    between atoms: C_7  and  C_34
    4  A    between atoms: C_11  and  C_34
    5  A    between atoms: C_23  and  C_27
    6  A    between atoms: C_23  and  C_36
    7  A    between atoms: C_25  and  C_32
    8  A    between atoms: C_26  and  C_27
                            x       y       z     vdW  Elec       q    Type
                         _______ _______ _______ _____ _____    ______ ____

>  <TORSDO>
F 8

$$$$
=
 OpenBabel11062415273D

 37 42  0  0  1  0  0  0  0  0999 V2000
  190.3960  178.7070  144.3030 C   0  0  1  0  0  3  0  0  0  0  0  0
  185.5010  178.9000  145.7940 N   0  0  0  0  0  2  0  0  0  0  0  0
  187.9370  176.1560  143.6370 C   0  0  0  0  0  2  0  0  0  0  0  0
  186.8010  178.5550  146.2740 C   0  0  0  0  0  3  0  0  0  0  0  0
  185.9770  177.5980  143.7580 C   0  0  0  0  0  3  0  0  0  0  0  0
  189.0020  177.4580  146.0260 C   0  0  0  0  0  2  0  0  0  0  0  0
  189.9830  177.3130  144.8400 C   0  0  1  0  0  3  0  0  0  0  0  0
  185.1250  178.6700  144.4000 C   0  0  1  0  0  3  0  0  0  0  0  0
  190.5730  177.8930  141.9340 C   0  0  1  0  0  3  0  0  0  0  0  0
  187.1810  177.2900  144.2390 C   0  0  0  0  0  0  0  0  0  0  0  0
  189.4560  176.3450  143.7350 C   0  0  2  0  0  3  0  0  0  0  0  0
  191.0710  179.4200  145.3010 O   0  0  0  0  0  1  0  0  0  0  0  0
  190.0190  175.6280  141.5570 O   0  0  0  0  0  0  0  0  0  0  0  0
  191.2950  178.5910  143.0830 C   0  0  0  0  0  2  0  0  0  0  0  0
  187.6490  177.8520  145.5150 C   0  0  0  0  0  0  0  0  0  0  0  0
  190.0570  176.5510  142.3620 C   0  0  0  0  0  0  0  0  0  0  0  0
  189.4140  178.7230  141.4100 C   0  0  0  0  0  2  0  0  0  0  0  0
  188.6520  177.9660  140.3360 C   0  0  0  0  0  2  0  0  0  0  0  0
  189.0550  179.3780  138.3140 O   0  0  0  0  0  0  0  0  0  0  0  0
  190.1090  177.3550  138.5490 O   0  0  0  0  0  1  0  0  0  0  0  0
  189.3000  178.2030  139.0150 C   0  0  0  0  0  0  0  0  0  0  0  0
  183.6740  178.2530  144.3180 C   0  0  0  0  0  2  0  0  0  0  0  0
  183.8020  179.4880  142.1730 O   0  0  0  0  0  0  0  0  0  0  0  0
  182.9690  178.7960  143.0760 C   0  0  1  0  0  0  0  0  0  0  0  0
  183.4430  178.1670  141.8040 C   0  0  1  0  0  3  0  0  0  0  0  0
  182.5660  178.1770  140.5760 C   0  0  0  0  0  0  0  0  0  0  0  0
  181.8220  177.1690  140.2190 N   0  0  0  0  0  0  0  0  0  0  0  0
  181.9460  179.4670  138.6430 C   0  0  0  0  0  0  0  0  0  0  0  0
  180.3400  176.1730  138.6860 N   0  0  0  0  0  2  0  0  0  0  0  0
  181.2880  178.2830  138.0100 C   0  0  0  0  0  2  0  0  0  0  0  0
  181.9980  180.6350  137.9590 F   0  0  0  0  0  0  0  0  0  0  0  0
  181.0660  177.1910  139.0120 C   0  0  0  0  0  0  0  0  0  0  0  0
  182.5540  179.3780  139.7890 N   0  0  0  0  0  0  0  0  0  0  0  0
  181.5540  179.3790  143.1890 C   0  0  0  0  0  2  0  0  0  0  0  0
  179.2630  179.0150  143.9280 C   0  0  0  0  0  2  0  0  0  0  0  0
  180.6370  178.5080  144.0310 C   0  0  1  0  0  3  0  0  0  0  0  0
  179.6810  177.8940  143.1930 O   0  0  0  0  0  0  0  0  0  0  0  0
  1  7  1  0  0  0  0
  1 12  1  1  0  0  0
  2  4  1  0  0  0  0
  3 10  1  0  0  0  0
  5 10  2  0  0  0  0
  5  8  1  0  0  0  0
  7  6  1  1  0  0  0
  8 22  1  1  0  0  0
  8  2  1  0  0  0  0
  9 17  1  1  0  0  0
  9 16  1  0  0  0  0
  9 14  1  0  0  0  0
 10 15  1  0  0  0  0
 11  3  1  6  0  0  0
 11  7  1  0  0  0  0
 13 16  2  0  0  0  0
 14  1  1  0  0  0  0
 15  6  1  0  0  0  0
 15  4  2  0  0  0  0
 16 11  1  0  0  0  0
 18 17  1  0  0  0  0
 19 21  2  0  0  0  0
 20 21  1  0  0  0  0
 21 18  1  0  0  0  0
 23 24  1  0  0  0  0
 24 34  1  1  0  0  0
 24 22  1  0  0  0  0
 25 26  1  6  0  0  0
 25 23  1  0  0  0  0
 25 24  1  0  0  0  0
 27 26  2  0  0  0  0
 28 33  2  0  0  0  0
 29 32  2  0  0  0  0
 30 28  1  0  0  0  0
 30 32  1  0  0  0  0
 31 28  1  0  0  0  0
 32 27  1  0  0  0  0
 33 26  1  0  0  0  0
 35 36  1  0  0  0  0
 36 34  1  6  0  0  0
 37 35  1  0  0  0  0
 37 36  1  0  0  0  0
M  END
>  <MODEL>
6

>  <REMARK>
 VINA RESULT:      -6.8      4.370      8.593
  Name = 
  8 active torsions:
  status: ('A' for Active; 'I' for Inactive)
    1  A    between atoms: C_1  and  C_17
    2  A    between atoms: C_7  and  C_32
    3  A    between atoms: C_7  and  C_34
    4  A    between atoms: C_11  and  C_34
    5  A    between atoms: C_23  and  C_27
    6  A    between atoms: C_23  and  C_36
    7  A    between atoms: C_25  and  C_32
    8  A    between atoms: C_26  and  C_27
                            x       y       z     vdW  Elec       q    Type
                         _______ _______ _______ _____ _____    ______ ____

>  <TORSDO>
F 8

$$$$
=
 OpenBabel11062415273D

 37 42  0  0  1  0  0  0  0  0999 V2000
  190.0180  178.6570  144.6920 C   0  0  1  0  0  3  0  0  0  0  0  0
  184.9610  179.1540  145.3250 N   0  0  0  0  0  0  0  0  0  0  0  0
  187.5580  176.2700  143.5780 C   0  0  0  0  0  2  0  0  0  0  0  0
  186.1350  178.7260  146.0150 C   0  0  0  0  0  3  0  0  0  0  0  0
  185.6990  177.8320  143.3810 C   0  0  0  0  0  3  0  0  0  0  0  0
  188.2740  177.4920  146.1320 C   0  0  0  0  0  2  0  0  0  0  0  0
  189.4330  177.2900  145.1300 C   0  0  1  0  0  3  0  0  0  0  0  0
  184.8170  178.9540  143.8830 C   0  0  1  0  0  3  0  0  0  0  0  0
  190.5500  177.8430  142.3770 C   0  0  1  0  0  3  0  0  0  0  0  0
  186.7810  177.4470  144.0570 C   0  0  0  0  0  0  0  0  0  0  0  0
  189.0460  176.3610  143.9370 C   0  0  2  0  0  3  0  0  0  0  0  0
  190.5540  179.3230  145.8010 O   0  0  0  0  0  1  0  0  0  0  0  0
  189.9300  175.6180  141.8780 O   0  0  0  0  0  0  0  0  0  0  0  0
  191.1050  178.4890  143.6430 C   0  0  0  0  0  2  0  0  0  0  0  0
  187.0560  177.9730  145.4020 C   0  0  1  0  0  3  0  0  0  0  0  0
  189.8850  176.5340  142.6910 C   0  0  0  0  0  0  0  0  0  0  0  0
  189.5510  178.7460  141.6740 C   0  0  0  0  0  2  0  0  0  0  0  0
  188.7510  177.9670  140.6460 C   0  0  0  0  0  2  0  0  0  0  0  0
  190.1900  177.2190  138.7450 O   0  0  0  0  0  1  0  0  0  0  0  0
  189.0520  179.2070  138.6300 O   0  0  0  0  0  0  0  0  0  0  0  0
  189.3470  178.1770  139.2960 C   0  0  0  0  0  0  0  0  0  0  0  0
  183.3780  178.6290  143.5480 C   0  0  0  0  0  2  0  0  0  0  0  0
  182.5000  177.5200  141.5130 O   0  0  0  0  0  0  0  0  0  0  0  0
  183.0920  178.6820  142.0480 C   0  0  1  0  0  0  0  0  0  0  0  0
  181.6340  178.6240  141.7210 C   0  0  1  0  0  3  0  0  0  0  0  0
  181.1260  179.1580  140.4040 C   0  0  0  0  0  0  0  0  0  0  0  0
  181.1070  178.4570  139.3060 N   0  0  0  0  0  0  0  0  0  0  0  0
  180.2820  181.1210  139.2990 C   0  0  0  0  0  0  0  0  0  0  0  0
  180.6850  178.2990  136.9960 N   0  0  0  0  0  2  0  0  0  0  0  0
  180.4780  180.5020  137.9540 C   0  0  0  0  0  2  0  0  0  0  0  0
  179.8320  182.3960  139.3790 F   0  0  0  0  0  0  0  0  0  0  0  0
  180.6890  179.0220  138.0670 C   0  0  0  0  0  0  0  0  0  0  0  0
  180.6240  180.5030  140.3920 N   0  0  0  0  0  0  0  0  0  0  0  0
  184.0880  179.3650  141.1000 C   0  0  0  0  0  2  0  0  0  0  0  0
  184.5350  179.0140  138.7330 C   0  0  0  0  0  2  0  0  0  0  0  0
  184.6470  178.4050  140.0630 C   0  0  1  0  0  3  0  0  0  0  0  0
  185.7560  179.0030  139.4260 O   0  0  0  0  0  0  0  0  0  0  0  0
  1  7  1  0  0  0  0
  1 12  1  1  0  0  0
  2  4  2  0  0  0  0
  3 10  1  0  0  0  0
  5  8  1  0  0  0  0
  5 10  2  0  0  0  0
  7  6  1  6  0  0  0
  8 22  1  1  0  0  0
  8  2  1  0  0  0  0
  9 17  1  1  0  0  0
  9 16  1  0  0  0  0
  9 14  1  0  0  0  0
 10 15  1  0  0  0  0
 11  3  1  6  0  0  0
 11  7  1  0  0  0  0
 13 16  2  0  0  0  0
 14  1  1  0  0  0  0
 15  4  1  1  0  0  0
 15  6  1  0  0  0  0
 16 11  1  0  0  0  0
 18 17  1  0  0  0  0
 19 21  1  0  0  0  0
 20 21  2  0  0  0  0
 21 18  1  0  0  0  0
 23 25  1  0  0  0  0
 23 24  1  0  0  0  0
 24 34  1  6  0  0  0
 24 22  1  0  0  0  0
 25 26  1  6  0  0  0
 25 24  1  0  0  0  0
 27 26  2  0  0  0  0
 28 31  1  0  0  0  0
 28 33  2  0  0  0  0
 29 32  2  0  0  0  0
 30 32  1  0  0  0  0
 30 28  1  0  0  0  0
 32 27  1  0  0  0  0
 33 26  1  0  0  0  0
 35 37  1  0  0  0  0
 35 36  1  0  0  0  0
 36 34  1  1  0  0  0
 37 36  1  0  0  0  0
M  END
>  <MODEL>
7

>  <REMARK>
 VINA RESULT:      -6.5      4.501      8.979
  Name = 
  8 active torsions:
  status: ('A' for Active; 'I' for Inactive)
    1  A    between atoms: C_1  and  C_17
    2  A    between atoms: C_7  and  C_32
    3  A    between atoms: C_7  and  C_34
    4  A    between atoms: C_11  and  C_34
    5  A    between atoms: C_23  and  C_27
    6  A    between atoms: C_23  and  C_36
    7  A    between atoms: C_25  and  C_32
    8  A    between atoms: C_26  and  C_27
                            x       y       z     vdW  Elec       q    Type
                         _______ _______ _______ _____ _____    ______ ____

>  <TORSDO>
F 8

$$$$
=
 OpenBabel11062415273D

 37 42  0  0  1  0  0  0  0  0999 V2000
  189.1160  175.7870  137.8160 C   0  0  1  0  0  3  0  0  0  0  0  0
  184.1100  175.0000  137.0810 N   0  0  0  0  0  2  0  0  0  0  0  0
  186.8040  178.2550  136.5680 C   0  0  0  0  0  2  0  0  0  0  0  0
  185.3760  174.7990  136.4510 C   0  0  0  0  0  3  0  0  0  0  0  0
  184.7950  177.3130  137.5760 C   0  0  0  0  0  3  0  0  0  0  0  0
  187.6230  175.5680  135.7680 C   0  0  0  0  0  2  0  0  0  0  0  0
  188.7040  176.4250  136.4650 C   0  0  1  0  0  3  0  0  0  0  0  0
  183.8590  176.1740  137.9150 C   0  0  1  0  0  3  0  0  0  0  0  0
  189.5170  178.0150  138.9030 C   0  0  1  0  0  3  0  0  0  0  0  0
  185.9640  177.0940  136.9760 C   0  0  0  0  0  0  0  0  0  0  0  0
  188.3020  177.9300  136.5770 C   0  0  2  0  0  3  0  0  0  0  0  0
  189.6820  174.5260  137.5930 O   0  0  0  0  0  1  0  0  0  0  0  0
  189.0680  179.9240  137.5840 O   0  0  0  0  0  0  0  0  0  0  0  0
  190.1180  176.6560  138.5610 C   0  0  0  0  0  2  0  0  0  0  0  0
  186.3060  175.7610  136.4570 C   0  0  0  0  0  0  0  0  0  0  0  0
  189.0090  178.7020  137.6690 C   0  0  0  0  0  0  0  0  0  0  0  0
  188.3790  177.8940  139.9030 C   0  0  0  0  0  2  0  0  0  0  0  0
  188.9060  177.5060  141.2730 C   0  0  0  0  0  2  0  0  0  0  0  0
  186.8030  178.5840  142.0860 O   0  0  0  0  0  0  0  0  0  0  0  0
  187.7840  176.8940  143.2870 O   0  0  0  0  0  1  0  0  0  0  0  0
  187.8150  177.6510  142.2790 C   0  0  0  0  0  0  0  0  0  0  0  0
  182.4340  176.6440  137.7300 C   0  0  0  0  0  2  0  0  0  0  0  0
  182.5490  176.8760  140.1950 O   0  0  0  0  0  0  0  0  0  0  0  0
  181.7210  176.9140  139.0540 C   0  0  1  0  0  0  0  0  0  0  0  0
  182.1830  178.1650  139.7310 C   0  0  1  0  0  3  0  0  0  0  0  0
  181.2970  178.8610  140.7350 C   0  0  0  0  0  0  0  0  0  0  0  0
  180.4870  179.8320  140.4240 N   0  0  0  0  0  0  0  0  0  0  0  0
  180.7420  178.9940  143.0720 C   0  0  0  0  0  0  0  0  0  0  0  0
  178.9310  181.4740  141.0720 N   0  0  0  0  0  2  0  0  0  0  0  0
  180.0050  180.2780  142.8690 C   0  0  0  0  0  2  0  0  0  0  0  0
  180.8630  178.4950  144.3260 F   0  0  0  0  0  0  0  0  0  0  0  0
  179.7230  180.5120  141.4160 C   0  0  0  0  0  0  0  0  0  0  0  0
  181.3550  178.3960  142.0920 N   0  0  0  0  0  0  0  0  0  0  0  0
  180.3090  176.3630  139.2930 C   0  0  0  0  0  2  0  0  0  0  0  0
  179.0500  174.2950  139.5450 C   0  0  0  0  0  2  0  0  0  0  0  0
  180.3280  174.9500  139.8490 C   0  0  1  0  0  3  0  0  0  0  0  0
  180.2020  174.0290  138.7860 O   0  0  0  0  0  0  0  0  0  0  0  0
  1 12  1  6  0  0  0
  1 14  1  0  0  0  0
  2  8  1  0  0  0  0
  3 10  1  0  0  0  0
  4 15  2  0  0  0  0
  4  2  1  0  0  0  0
  5  8  1  0  0  0  0
  6 15  1  0  0  0  0
  7  6  1  1  0  0  0
  7 11  1  0  0  0  0
  7  1  1  0  0  0  0
  8 22  1  6  0  0  0
  9 17  1  1  0  0  0
 10  5  2  0  0  0  0
 11  3  1  1  0  0  0
 11 16  1  0  0  0  0
 13 16  2  0  0  0  0
 14  9  1  0  0  0  0
 15 10  1  0  0  0  0
 16  9  1  0  0  0  0
 17 18  1  0  0  0  0
 18 21  1  0  0  0  0
 19 21  2  0  0  0  0
 21 20  1  0  0  0  0
 24 22  1  6  0  0  0
 24 34  1  0  0  0  0
 24 25  1  0  0  0  0
 24 23  1  0  0  0  0
 25 23  1  0  0  0  0
 25 26  1  1  0  0  0
 26 33  1  0  0  0  0
 27 26  2  0  0  0  0
 27 32  1  0  0  0  0
 28 31  1  0  0  0  0
 29 32  2  0  0  0  0
 30 28  1  0  0  0  0
 32 30  1  0  0  0  0
 33 28  2  0  0  0  0
 35 36  1  0  0  0  0
 36 34  1  6  0  0  0
 37 35  1  0  0  0  0
 37 36  1  0  0  0  0
M  END
>  <MODEL>
8

>  <REMARK>
 VINA RESULT:      -6.4      4.845      7.663
  Name = 
  8 active torsions:
  status: ('A' for Active; 'I' for Inactive)
    1  A    between atoms: C_1  and  C_17
    2  A    between atoms: C_7  and  C_32
    3  A    between atoms: C_7  and  C_34
    4  A    between atoms: C_11  and  C_34
    5  A    between atoms: C_23  and  C_27
    6  A    between atoms: C_23  and  C_36
    7  A    between atoms: C_25  and  C_32
    8  A    between atoms: C_26  and  C_27
                            x       y       z     vdW  Elec       q    Type
                         _______ _______ _______ _____ _____    ______ ____

>  <TORSDO>
F 8

$$$$
=
 OpenBabel11062415273D

 37 42  0  0  1  0  0  0  0  0999 V2000
  187.8490  175.4680  137.2360 C   0  0  1  0  0  3  0  0  0  0  0  0
  189.1770  177.2500  141.8490 N   0  0  0  0  0  2  0  0  0  0  0  0
  190.5900  177.7240  137.8620 C   0  0  0  0  0  2  0  0  0  0  0  0
  188.2610  177.4920  140.7810 C   0  0  0  0  0  3  0  0  0  0  0  0
  190.9800  177.0790  140.1790 C   0  0  0  0  0  3  0  0  0  0  0  0
  187.7160  177.7350  138.3820 C   0  0  0  0  0  2  0  0  0  0  0  0
  188.1700  176.9790  137.1130 C   0  0  1  0  0  3  0  0  0  0  0  0
  190.5300  176.7610  141.5870 C   0  0  1  0  0  3  0  0  0  0  0  0
  189.8800  174.7900  135.9250 C   0  0  1  0  0  3  0  0  0  0  0  0
  190.0990  177.3120  139.2060 C   0  0  0  0  0  0  0  0  0  0  0  0
  189.6550  177.2770  136.7310 C   0  0  2  0  0  3  0  0  0  0  0  0
  186.4650  175.2830  137.3420 O   0  0  0  0  0  1  0  0  0  0  0  0
  191.3020  176.5360  135.2120 O   0  0  0  0  0  0  0  0  0  0  0  0
  188.3620  174.6890  136.0350 C   0  0  0  0  0  2  0  0  0  0  0  0
  188.6650  177.4490  139.5060 C   0  0  0  0  0  0  0  0  0  0  0  0
  190.3200  176.2240  135.8740 C   0  0  0  0  0  0  0  0  0  0  0  0
  190.5770  174.1010  137.0860 C   0  0  0  0  0  2  0  0  0  0  0  0
  191.8890  173.4820  136.6360 C   0  0  0  0  0  2  0  0  0  0  0  0
  194.1680  173.3300  137.6500 O   0  0  0  0  0  0  0  0  0  0  0  0
  192.9160  175.2370  137.8840 O   0  0  0  0  0  1  0  0  0  0  0  0
  193.0060  174.0610  137.4360 C   0  0  0  0  0  0  0  0  0  0  0  0
  191.5030  177.3860  142.5620 C   0  0  0  0  0  2  0  0  0  0  0  0
  191.2470  178.5410  144.7400 O   0  0  0  0  0  0  0  0  0  0  0  0
  190.9960  177.3660  144.0030 C   0  0  1  0  0  0  0  0  0  0  0  0
  189.9210  178.3720  144.2660 C   0  0  1  0  0  3  0  0  0  0  0  0
  188.9650  178.1820  145.4180 C   0  0  0  0  0  0  0  0  0  0  0  0
  187.6840  178.0020  145.2640 N   0  0  0  0  0  0  0  0  0  0  0  0
  188.7940  178.1630  147.8180 C   0  0  0  0  0  0  0  0  0  0  0  0
  185.5390  177.7260  146.1910 N   0  0  0  0  0  2  0  0  0  0  0  0
  187.3020  178.2300  147.7550 C   0  0  0  0  0  2  0  0  0  0  0  0
  189.4050  178.1820  149.0260 F   0  0  0  0  0  0  0  0  0  0  0  0
  186.8050  177.9020  146.3800 C   0  0  0  0  0  0  0  0  0  0  0  0
  189.5230  178.1850  146.7410 N   0  0  0  0  0  0  0  0  0  0  0  0
  191.0930  176.0790  144.8340 C   0  0  0  0  0  2  0  0  0  0  0  0
  191.5280  175.5230  147.1630 C   0  0  0  0  0  2  0  0  0  0  0  0
  192.0730  176.2110  145.9870 C   0  0  1  0  0  3  0  0  0  0  0  0
  192.5200  174.9260  146.3680 O   0  0  0  0  0  0  0  0  0  0  0  0
  1 12  1  6  0  0  0
  3 10  1  0  0  0  0
  4  2  1  0  0  0  0
  5  8  1  0  0  0  0
  6 15  1  0  0  0  0
  7  1  1  0  0  0  0
  7  6  1  1  0  0  0
  8  2  1  0  0  0  0
  8 22  1  1  0  0  0
  9 14  1  0  0  0  0
  9 17  1  1  0  0  0
 10 15  1  0  0  0  0
 10  5  2  0  0  0  0
 11  7  1  0  0  0  0
 11  3  1  1  0  0  0
 13 16  2  0  0  0  0
 14  1  1  0  0  0  0
 15  4  2  0  0  0  0
 16  9  1  0  0  0  0
 16 11  1  0  0  0  0
 18 17  1  0  0  0  0
 18 21  1  0  0  0  0
 21 19  2  0  0  0  0
 21 20  1  0  0  0  0
 24 22  1  6  0  0  0
 24 25  1  0  0  0  0
 24 23  1  0  0  0  0
 24 34  1  0  0  0  0
 25 23  1  0  0  0  0
 25 26  1  1  0  0  0
 26 33  1  0  0  0  0
 27 26  2  0  0  0  0
 27 32  1  0  0  0  0
 28 31  1  0  0  0  0
 29 32  2  0  0  0  0
 30 28  1  0  0  0  0
 32 30  1  0  0  0  0
 33 28  2  0  0  0  0
 36 34  1  6  0  0  0
 36 37  1  0  0  0  0
 36 35  1  0  0  0  0
 37 35  1  0  0  0  0
M  END
>  <MODEL>
9

>  <REMARK>
 VINA RESULT:      -6.4      2.048      3.074
  Name = 
  8 active torsions:
  status: ('A' for Active; 'I' for Inactive)
    1  A    between atoms: C_1  and  C_17
    2  A    between atoms: C_7  and  C_32
    3  A    between atoms: C_7  and  C_34
    4  A    between atoms: C_11  and  C_34
    5  A    between atoms: C_23  and  C_27
    6  A    between atoms: C_23  and  C_36
    7  A    between atoms: C_25  and  C_32
    8  A    between atoms: C_26  and  C_27
                            x       y       z     vdW  Elec       q    Type
                         _______ _______ _______ _____ _____    ______ ____

>  <TORSDO>
F 8

$$$$
