=
 OpenBabel11062418073D

 63 70  0  0  1  0  0  0  0  0999 V2000
  180.8050  177.5080  139.6970 N   0  0  0  0  0  2  0  0  0  0  0  0
  186.6060  174.4910  136.8500 C   0  0  0  0  0  2  0  0  0  0  0  0
  184.9610  175.6120  135.9380 C   0  0  2  0  0  3  0  0  0  0  0  0
  179.0800  172.7170  135.4430 O   0  0  0  0  0  1  0  0  0  0  0  0
  180.4260  179.5230  138.2730 C   0  0  0  0  0  0  0  0  0  0  0  0
  183.1050  177.5090  140.8730 C   0  0  0  0  0  2  0  0  0  0  0  0
  184.1490  173.8010  137.3100 C   0  0  1  0  0  3  0  0  0  0  0  0
  180.7080  180.8920  138.2300 O   0  0  0  0  0  1  0  0  0  0  0  0
  181.2070  175.6990  136.3490 C   0  0  2  0  0  3  0  0  0  0  0  0
  180.2090  173.5400  135.4340 C   0  0  2  0  0  3  0  0  0  0  0  0
  183.7690  175.2300  136.8290 C   0  0  2  0  0  0  0  0  0  0  0  0
  182.5360  175.0230  135.9160 C   0  0  1  0  0  3  0  0  0  0  0  0
  183.5680  176.1610  138.0600 C   0  0  2  0  0  3  0  0  0  0  0  0
  181.2410  172.9540  136.1740 O   0  0  0  0  0  0  0  0  0  0  0  0
  179.9100  174.9340  135.9960 C   0  0  1  0  0  3  0  0  0  0  0  0
  183.9380  178.5180  138.6870 C   0  0  0  0  0  3  0  0  0  0  0  0
  181.1520  177.0160  135.8700 O   0  0  0  0  0  0  0  0  0  0  0  0
  183.6190  172.8170  136.2630 C   0  0  1  0  0  3  0  0  0  0  0  0
  186.0530  175.8330  136.9170 N   0  0  2  0  0  0  0  0  0  0  0  0
  185.6580  173.5890  137.6840 C   0  0  0  0  0  2  0  0  0  0  0  0
  180.3960  177.7240  136.8110 C   0  0  0  0  0  2  0  0  0  0  0  0
  185.8480  176.7440  135.7790 C   0  0  1  0  0  3  0  0  0  0  0  0
  184.2930  178.0670  140.0750 C   0  0  1  0  0  3  0  0  0  0  0  0
  182.4140  173.5040  135.6410 C   0  0  2  0  0  3  0  0  0  0  0  0
  182.4510  175.7230  139.0270 C   0  0  0  0  0  2  0  0  0  0  0  0
  182.0160  176.7570  140.0740 C   0  0  2  0  0  3  0  0  0  0  0  0
  179.0280  179.3710  138.2640 O   0  0  0  0  0  1  0  0  0  0  0  0
  181.0240  178.9540  139.5820 C   0  0  1  0  0  3  0  0  0  0  0  0
  181.0290  178.9350  137.1320 O   0  0  0  0  0  0  0  0  0  0  0  0
  183.5940  177.6330  137.7470 C   0  0  0  0  0  3  0  0  0  0  0  0
  186.8830  176.4880  134.6930 C   0  0  0  0  0  2  0  0  0  0  0  0
  187.8060  177.6130  134.5940 N   0  0  0  0  0  1  0  0  0  0  0  0
  180.4330  179.6570  140.7730 C   0  0  0  0  0  3  0  0  0  0  0  0
  179.9060  178.9850  141.7960 C   0  0  0  0  0  2  0  0  0  0  0  0
  184.8980  179.2210  140.8520 C   0  0  0  0  0  2  0  0  0  0  0  0
  186.3270  178.9170  141.2780 C   0  0  2  0  0  3  0  0  0  0  0  0
  187.1330  178.6070  140.1430 O   0  0  0  0  0  0  0  0  0  0  0  0
  189.1450  178.8220  141.2630 O   0  0  0  0  0  0  0  0  0  0  0  0
  188.5190  178.4510  140.2320 C   0  0  0  0  0  0  0  0  0  0  0  0
  189.2260  177.9060  139.1610 O   0  0  0  0  0  0  0  0  0  0  0  0
  189.3750  176.1040  137.9470 C   0  0  0  0  0  1  0  0  0  0  0  0
  188.5960  177.2390  138.1840 O   0  0  0  0  0  0  0  0  0  0  0  0
  186.3030  177.7550  142.2780 C   0  0  0  0  0  2  0  0  0  0  0  0
  186.7270  178.1480  143.6260 N   0  0  0  0  0  0  0  0  0  0  0  0
  185.4700  178.8650  145.5800 C   0  0  0  0  0  2  0  0  0  0  0  0
  184.4830  178.6590  144.4510 C   0  0  0  0  0  2  0  0  0  0  0  0
  185.6930  177.7460  144.5770 C   0  0  0  0  0  3  0  0  0  0  0  0
  188.0020  177.5070  143.9970 C   0  0  0  0  0  2  0  0  0  0  0  0
  188.1610  177.2520  145.4990 C   0  0  0  0  0  2  0  0  0  0  0  0
  189.4250  177.7670  147.4600 C   0  0  0  0  0  2  0  0  0  0  0  0
  191.1650  176.7860  145.5020 C   0  0  0  0  0  2  0  0  0  0  0  0
  189.1570  178.1540  146.0670 N   0  0  0  0  0  0  0  0  0  0  0  0
  189.9640  176.4680  147.5380 O   0  0  0  0  0  0  0  0  0  0  0  0
  191.2550  176.5500  147.0020 C   0  0  0  0  0  2  0  0  0  0  0  0
  190.3890  178.0820  145.2670 C   0  0  0  0  0  2  0  0  0  0  0  0
  184.6420  172.5090  135.1690 C   0  0  0  0  0  2  0  0  0  0  0  0
  184.9090  171.0190  135.0660 C   0  0  0  0  0  2  0  0  0  0  0  0
  187.2940  171.8330  135.1310 N   0  0  0  0  0  1  0  0  0  0  0  0
  186.3670  170.7750  134.9010 C   0  0  0  0  0  0  0  0  0  0  0  0
  186.7870  169.6280  134.5940 O   0  0  0  0  0  0  0  0  0  0  0  0
  179.0480  174.8610  137.2550 C   0  0  0  0  0  2  0  0  0  0  0  0
  179.7380  174.0480  138.3450 C   0  0  0  0  0  2  0  0  0  0  0  0
  179.1270  174.3450  139.7030 C   0  0  0  0  0  1  0  0  0  0  0  0
  1 26  1  0  0  0  0
  2 19  1  0  0  0  0
  2 20  1  0  0  0  0
  3 11  1  0  0  0  0
  3 19  1  0  0  0  0
  5 28  1  0  0  0  0
  7 20  1  0  0  0  0
  8  5  1  0  0  0  0
 10  4  1  0  0  0  0
 10 15  1  0  0  0  0
 10 14  1  0  0  0  0
 11  7  1  0  0  0  0
 11 13  1  0  0  0  0
 12  9  1  0  0  0  0
 12 11  1  0  0  0  0
 13 25  1  0  0  0  0
 15  9  1  0  0  0  0
 15 61  1  0  0  0  0
 16 23  1  0  0  0  0
 17  9  1  0  0  0  0
 17 21  1  0  0  0  0
 18  7  1  0  0  0  0
 21 29  1  0  0  0  0
 22  3  1  0  0  0  0
 22 19  1  0  0  0  0
 23 35  1  0  0  0  0
 23  6  1  0  0  0  0
 24 12  1  0  0  0  0
 24 14  1  0  0  0  0
 24 18  1  0  0  0  0
 25 26  1  0  0  0  0
 26  6  1  0  0  0  0
 27  5  1  0  0  0  0
 28  1  1  0  0  0  0
 28 33  1  0  0  0  0
 29  5  1  0  0  0  0
 30 13  1  0  0  0  0
 30 16  2  0  0  0  0
 31 22  1  0  0  0  0
 32 31  1  0  0  0  0
 33 34  2  0  0  0  0
 35 36  1  0  0  0  0
 36 43  1  0  0  0  0
 37 39  1  0  0  0  0
 37 36  1  0  0  0  0
 39 38  2  0  0  0  0
 40 39  1  0  0  0  0
 41 42  1  0  0  0  0
 42 40  1  0  0  0  0
 43 44  1  0  0  0  0
 44 48  1  0  0  0  0
 44 47  1  0  0  0  0
 46 47  1  0  0  0  0
 46 45  1  0  0  0  0
 47 45  1  0  0  0  0
 48 49  1  0  0  0  0
 49 52  1  0  0  0  0
 50 53  1  0  0  0  0
 51 54  1  0  0  0  0
 52 50  1  0  0  0  0
 54 53  1  0  0  0  0
 55 51  1  0  0  0  0
 55 52  1  0  0  0  0
 56 18  1  0  0  0  0
 57 56  1  0  0  0  0
 59 57  1  0  0  0  0
 59 58  1  0  0  0  0
 60 59  2  0  0  0  0
 61 62  1  0  0  0  0
 62 63  1  0  0  0  0
M  END
>  <MODEL>
1

>  <REMARK>
 VINA RESULT:      -6.7      0.000      0.000
  Name = 
  19 active torsions:
  status: ('A' for Active; 'I' for Inactive)
    1  A    between atoms: C_1  and  C_44
    2  A    between atoms: C_7  and  C_27
    3  A    between atoms: C_7  and  N_60
    4  A    between atoms: C_12  and  C_34
    5  A    between atoms: C_12  and  C_43
    6  A    between atoms: C_13  and  O_21
    7  A    between atoms: C_13  and  O_56
    8  A    between atoms: N_18  and  C_27
    9  A    between atoms: C_20  and  C_24
   10  A    between atoms: C_20  and  C_55
   11  A    between atoms: O_21  and  O_23
   12  A    between atoms: C_24  and  C_37
   13  A    between atoms: C_25  and  C_40
   14  A    between atoms: C_25  and  N_60
   15  A    between atoms: C_29  and  C_40
   16  A    between atoms: C_29  and  C_45
   17  A    between atoms: C_39  and  C_59
   18  A    between atoms: C_40  and  O_56
   19  A    between atoms: C_54  and  N_60
                            x       y       z     vdW  Elec       q    Type
                         _______ _______ _______ _____ _____    ______ ____

>  <TORSDO>
F 19

$$$$
=
 OpenBabel11062418073D

 63 70  0  0  1  0  0  0  0  0999 V2000
  181.0720  177.5870  139.5310 N   0  0  0  0  0  2  0  0  0  0  0  0
  186.8070  174.3590  136.7820 C   0  0  0  0  0  2  0  0  0  0  0  0
  185.2260  175.5490  135.8440 C   0  0  2  0  0  3  0  0  0  0  0  0
  179.2470  172.8900  135.2130 O   0  0  0  0  0  1  0  0  0  0  0  0
  180.8010  179.6230  138.1130 C   0  0  0  0  0  0  0  0  0  0  0  0
  183.3450  177.4900  140.7530 C   0  0  0  0  0  2  0  0  0  0  0  0
  184.3150  173.7640  137.1880 C   0  0  1  0  0  3  0  0  0  0  0  0
  181.1380  180.9800  138.0850 O   0  0  0  0  0  1  0  0  0  0  0  0
  181.4700  175.7820  136.1800 C   0  0  2  0  0  3  0  0  0  0  0  0
  180.4070  173.6680  135.2320 C   0  0  2  0  0  3  0  0  0  0  0  0
  184.0020  175.2090  136.7080 C   0  0  2  0  0  0  0  0  0  0  0  0
  182.7810  175.0560  135.7700 C   0  0  1  0  0  3  0  0  0  0  0  0
  183.8120  176.1410  137.9410 C   0  0  2  0  0  3  0  0  0  0  0  0
  181.4000  173.0380  135.9880 O   0  0  0  0  0  0  0  0  0  0  0  0
  180.1520  175.0700  135.7960 C   0  0  1  0  0  3  0  0  0  0  0  0
  184.2620  178.4780  138.5910 C   0  0  0  0  0  3  0  0  0  0  0  0
  181.4770  177.1020  135.7080 O   0  0  0  0  0  0  0  0  0  0  0  0
  183.7680  172.8070  136.1240 C   0  0  1  0  0  3  0  0  0  0  0  0
  186.3050  175.7210  136.8460 N   0  0  2  0  0  0  0  0  0  0  0  0
  185.8070  173.4900  137.5900 C   0  0  0  0  0  2  0  0  0  0  0  0
  180.7300  177.8340  136.6390 C   0  0  0  0  0  2  0  0  0  0  0  0
  186.1600  176.6470  135.7100 C   0  0  1  0  0  3  0  0  0  0  0  0
  184.5710  178.0050  139.9820 C   0  0  1  0  0  3  0  0  0  0  0  0
  182.6050  173.5450  135.4830 C   0  0  2  0  0  3  0  0  0  0  0  0
  182.6590  175.7410  138.8820 C   0  0  0  0  0  2  0  0  0  0  0  0
  182.2450  176.7860  139.9280 C   0  0  2  0  0  3  0  0  0  0  0  0
  179.3990  179.5260  138.0750 O   0  0  0  0  0  1  0  0  0  0  0  0
  181.3500  179.0230  139.4300 C   0  0  1  0  0  3  0  0  0  0  0  0
  181.4040  179.0180  136.9800 O   0  0  0  0  0  0  0  0  0  0  0  0
  183.9020  177.6120  137.6380 C   0  0  0  0  0  3  0  0  0  0  0  0
  187.2050  176.3550  134.6430 C   0  0  0  0  0  2  0  0  0  0  0  0
  188.5100  176.8560  135.0610 N   0  0  0  0  0  1  0  0  0  0  0  0
  180.7620  179.7420  140.6130 C   0  0  0  0  0  3  0  0  0  0  0  0
  179.5240  179.4970  141.0410 C   0  0  0  0  0  2  0  0  0  0  0  0
  185.2040  179.1300  140.7790 C   0  0  0  0  0  2  0  0  0  0  0  0
  186.2330  178.6010  141.7680 C   0  0  2  0  0  3  0  0  0  0  0  0
  186.1030  179.2590  143.0260 O   0  0  0  0  0  0  0  0  0  0  0  0
  184.0930  178.2460  143.5560 O   0  0  0  0  0  0  0  0  0  0  0  0
  185.0470  178.9940  143.9030 C   0  0  0  0  0  0  0  0  0  0  0  0
  185.0300  179.5840  145.1670 O   0  0  0  0  0  0  0  0  0  0  0  0
  185.6810  178.3160  146.8130 C   0  0  0  0  0  1  0  0  0  0  0  0
  184.5630  178.9200  146.2340 O   0  0  0  0  0  0  0  0  0  0  0  0
  187.6320  178.8050  141.1750 C   0  0  0  0  0  2  0  0  0  0  0  0
  188.1800  177.5890  140.5630 N   0  0  0  0  0  0  0  0  0  0  0  0
  189.5730  178.2750  138.6910 C   0  0  0  0  0  2  0  0  0  0  0  0
  189.2150  176.8180  138.4860 C   0  0  0  0  0  2  0  0  0  0  0  0
  188.2040  177.7660  139.1120 C   0  0  0  0  0  3  0  0  0  0  0  0
  189.5470  177.3170  141.0400 C   0  0  0  0  0  2  0  0  0  0  0  0
  189.7950  177.7270  142.4950 C   0  0  0  0  0  2  0  0  0  0  0  0
  191.0650  176.4250  144.0460 C   0  0  0  0  0  2  0  0  0  0  0  0
  189.0230  177.7360  145.4360 C   0  0  0  0  0  2  0  0  0  0  0  0
  189.7680  176.5570  143.3670 N   0  0  0  0  0  0  0  0  0  0  0  0
  191.3300  177.5360  144.8690 O   0  0  0  0  0  0  0  0  0  0  0  0
  190.4300  177.4530  145.9380 C   0  0  0  0  0  2  0  0  0  0  0  0
  188.6850  176.7120  144.3520 C   0  0  0  0  0  2  0  0  0  0  0  0
  184.8010  172.4660  135.0490 C   0  0  0  0  0  2  0  0  0  0  0  0
  185.1220  170.9820  135.0430 C   0  0  0  0  0  2  0  0  0  0  0  0
  187.4560  171.8240  134.5940 N   0  0  0  0  0  1  0  0  0  0  0  0
  186.5960  170.7830  135.0500 C   0  0  0  0  0  0  0  0  0  0  0  0
  187.0880  169.7110  135.4900 O   0  0  0  0  0  0  0  0  0  0  0  0
  179.2620  175.0250  137.0380 C   0  0  0  0  0  2  0  0  0  0  0  0
  179.8980  174.1800  138.1370 C   0  0  0  0  0  2  0  0  0  0  0  0
  178.9300  173.9840  139.2890 C   0  0  0  0  0  1  0  0  0  0  0  0
  1 26  1  0  0  0  0
  2 19  1  0  0  0  0
  2 20  1  0  0  0  0
  3 11  1  0  0  0  0
  3 19  1  0  0  0  0
  4 10  1  0  0  0  0
  5 28  1  0  0  0  0
  7 20  1  0  0  0  0
  8  5  1  0  0  0  0
 10 15  1  0  0  0  0
 10 14  1  0  0  0  0
 11  7  1  0  0  0  0
 11 13  1  0  0  0  0
 12  9  1  0  0  0  0
 12 11  1  0  0  0  0
 13 25  1  0  0  0  0
 15  9  1  0  0  0  0
 15 61  1  0  0  0  0
 16 23  1  0  0  0  0
 17  9  1  0  0  0  0
 17 21  1  0  0  0  0
 18  7  1  0  0  0  0
 21 29  1  0  0  0  0
 22  3  1  0  0  0  0
 22 19  1  0  0  0  0
 23  6  1  0  0  0  0
 23 35  1  0  0  0  0
 24 12  1  0  0  0  0
 24 14  1  0  0  0  0
 24 18  1  0  0  0  0
 25 26  1  0  0  0  0
 26  6  1  0  0  0  0
 27  5  1  0  0  0  0
 28  1  1  0  0  0  0
 28 33  1  0  0  0  0
 29  5  1  0  0  0  0
 30 13  1  0  0  0  0
 30 16  2  0  0  0  0
 31 32  1  0  0  0  0
 31 22  1  0  0  0  0
 33 34  2  0  0  0  0
 35 36  1  0  0  0  0
 36 37  1  0  0  0  0
 37 39  1  0  0  0  0
 38 39  2  0  0  0  0
 39 40  1  0  0  0  0
 40 42  1  0  0  0  0
 42 41  1  0  0  0  0
 43 36  1  0  0  0  0
 44 48  1  0  0  0  0
 44 43  1  0  0  0  0
 45 47  1  0  0  0  0
 46 45  1  0  0  0  0
 46 47  1  0  0  0  0
 47 44  1  0  0  0  0
 48 49  1  0  0  0  0
 49 52  1  0  0  0  0
 50 53  1  0  0  0  0
 51 54  1  0  0  0  0
 52 50  1  0  0  0  0
 52 55  1  0  0  0  0
 53 54  1  0  0  0  0
 55 51  1  0  0  0  0
 56 18  1  0  0  0  0
 57 56  1  0  0  0  0
 57 59  1  0  0  0  0
 58 59  1  0  0  0  0
 59 60  2  0  0  0  0
 61 62  1  0  0  0  0
 62 63  1  0  0  0  0
M  END
>  <MODEL>
2

>  <REMARK>
 VINA RESULT:      -6.0      1.607      2.991
  Name = 
  19 active torsions:
  status: ('A' for Active; 'I' for Inactive)
    1  A    between atoms: C_1  and  C_44
    2  A    between atoms: C_7  and  C_27
    3  A    between atoms: C_7  and  N_60
    4  A    between atoms: C_12  and  C_34
    5  A    between atoms: C_12  and  C_43
    6  A    between atoms: C_13  and  O_21
    7  A    between atoms: C_13  and  O_56
    8  A    between atoms: N_18  and  C_27
    9  A    between atoms: C_20  and  C_24
   10  A    between atoms: C_20  and  C_55
   11  A    between atoms: O_21  and  O_23
   12  A    between atoms: C_24  and  C_37
   13  A    between atoms: C_25  and  C_40
   14  A    between atoms: C_25  and  N_60
   15  A    between atoms: C_29  and  C_40
   16  A    between atoms: C_29  and  C_45
   17  A    between atoms: C_39  and  C_59
   18  A    between atoms: C_40  and  O_56
   19  A    between atoms: C_54  and  N_60
                            x       y       z     vdW  Elec       q    Type
                         _______ _______ _______ _____ _____    ______ ____

>  <TORSDO>
F 19

$$$$
=
 OpenBabel11062418073D

 63 70  0  0  1  0  0  0  0  0999 V2000
  182.0370  174.4690  137.9150 N   0  0  0  0  0  2  0  0  0  0  0  0
  188.6730  177.0620  137.5870 C   0  0  0  0  0  2  0  0  0  0  0  0
  187.2470  176.5290  136.0130 C   0  0  2  0  0  3  0  0  0  0  0  0
  186.0640  170.1640  134.8700 O   0  0  0  0  0  1  0  0  0  0  0  0
  180.9040  175.4910  135.9400 C   0  0  0  0  0  0  0  0  0  0  0  0
  182.9430  176.2180  139.5870 C   0  0  0  0  0  2  0  0  0  0  0  0
  187.5550  174.7220  137.5820 C   0  0  1  0  0  3  0  0  0  0  0  0
  180.1030  176.5820  135.5900 O   0  0  0  0  0  1  0  0  0  0  0  0
  184.8290  173.6870  135.4180 C   0  0  2  0  0  3  0  0  0  0  0  0
  186.1390  171.5580  134.9180 C   0  0  2  0  0  3  0  0  0  0  0  0
  186.4880  175.3500  136.6430 C   0  0  2  0  0  0  0  0  0  0  0  0
  186.2570  174.2870  135.5420 C   0  0  1  0  0  3  0  0  0  0  0  0
  185.2390  175.7670  137.4730 C   0  0  2  0  0  3  0  0  0  0  0  0
  186.8860  171.9640  136.0280 O   0  0  0  0  0  0  0  0  0  0  0  0
  184.7520  172.2070  134.9750 C   0  0  1  0  0  3  0  0  0  0  0  0
  183.5290  177.5440  137.4930 C   0  0  0  0  0  3  0  0  0  0  0  0
  184.0330  174.4940  134.5940 O   0  0  0  0  0  0  0  0  0  0  0  0
  188.3450  173.7050  136.7520 C   0  0  1  0  0  3  0  0  0  0  0  0
  187.3610  177.4910  137.1350 N   0  0  2  0  0  0  0  0  0  0  0  0
  188.4520  175.7410  138.3700 C   0  0  0  0  0  2  0  0  0  0  0  0
  182.7270  174.3460  135.0780 C   0  0  0  0  0  2  0  0  0  0  0  0
  187.0140  177.9370  135.7750 C   0  0  1  0  0  3  0  0  0  0  0  0
  183.5390  177.5030  138.9930 C   0  0  1  0  0  3  0  0  0  0  0  0
  187.3790  173.2280  135.6790 C   0  0  2  0  0  3  0  0  0  0  0  0
  184.5360  174.6090  138.2080 C   0  0  0  0  0  2  0  0  0  0  0  0
  183.1450  174.9150  138.7800 C   0  0  2  0  0  3  0  0  0  0  0  0
  180.1970  174.3180  135.6190 O   0  0  0  0  0  1  0  0  0  0  0  0
  181.1720  175.5630  137.4620 C   0  0  1  0  0  3  0  0  0  0  0  0
  182.1090  175.6010  135.1980 O   0  0  0  0  0  0  0  0  0  0  0  0
  184.3160  176.7320  136.7800 C   0  0  0  0  0  3  0  0  0  0  0  0
  188.2130  178.5900  135.1030 C   0  0  0  0  0  2  0  0  0  0  0  0
  189.2490  177.5980  134.8360 N   0  0  0  0  0  1  0  0  0  0  0  0
  179.8730  175.5340  138.2200 C   0  0  0  0  0  3  0  0  0  0  0  0
  179.8220  175.7360  139.5360 C   0  0  0  0  0  2  0  0  0  0  0  0
  182.7730  178.6900  139.5460 C   0  0  0  0  0  2  0  0  0  0  0  0
  182.4740  178.5190  141.0280 C   0  0  2  0  0  3  0  0  0  0  0  0
  181.0690  178.5670  141.2660 O   0  0  0  0  0  0  0  0  0  0  0  0
  179.8270  179.6950  139.6730 O   0  0  0  0  0  0  0  0  0  0  0  0
  180.2770  179.6410  140.8510 C   0  0  0  0  0  0  0  0  0  0  0  0
  180.0030  180.6840  141.7360 O   0  0  0  0  0  0  0  0  0  0  0  0
  179.1460  179.9050  143.5810 C   0  0  0  0  0  1  0  0  0  0  0  0
  180.2570  180.5620  143.0470 O   0  0  0  0  0  0  0  0  0  0  0  0
  183.2070  179.6200  141.8050 C   0  0  0  0  0  2  0  0  0  0  0  0
  184.2070  179.0950  142.7410 N   0  0  0  0  0  0  0  0  0  0  0  0
  184.3960  178.4620  145.0820 C   0  0  0  0  0  2  0  0  0  0  0  0
  183.2400  179.4320  144.9610 C   0  0  0  0  0  2  0  0  0  0  0  0
  183.5130  178.4350  143.8450 C   0  0  0  0  0  3  0  0  0  0  0  0
  185.1020  178.1260  142.0840 C   0  0  0  0  0  2  0  0  0  0  0  0
  186.5930  178.4280  142.2640 C   0  0  0  0  0  2  0  0  0  0  0  0
  188.7060  177.3150  142.1920 C   0  0  0  0  0  2  0  0  0  0  0  0
  188.1870  178.0840  144.8300 C   0  0  0  0  0  2  0  0  0  0  0  0
  187.3150  177.2230  142.6570 N   0  0  0  0  0  0  0  0  0  0  0  0
  189.3770  178.4000  142.7880 O   0  0  0  0  0  0  0  0  0  0  0  0
  189.5410  178.0630  144.1370 C   0  0  0  0  0  2  0  0  0  0  0  0
  187.2700  177.0870  144.1220 C   0  0  0  0  0  2  0  0  0  0  0  0
  189.5770  174.3170  136.0830 C   0  0  0  0  0  2  0  0  0  0  0  0
  190.3710  173.2690  135.3250 C   0  0  0  0  0  2  0  0  0  0  0  0
  192.0500  175.0020  134.5940 N   0  0  0  0  0  1  0  0  0  0  0  0
  191.7780  173.7220  135.1590 C   0  0  0  0  0  0  0  0  0  0  0  0
  192.7280  172.9930  135.5490 O   0  0  0  0  0  0  0  0  0  0  0  0
  183.8250  171.4740  135.9440 C   0  0  0  0  0  2  0  0  0  0  0  0
  182.4400  171.2810  135.3360 C   0  0  0  0  0  2  0  0  0  0  0  0
  181.3910  171.1480  136.4250 C   0  0  0  0  0  1  0  0  0  0  0  0
  1 26  1  0  0  0  0
  2 20  1  0  0  0  0
  3 11  1  0  0  0  0
  3 19  1  0  0  0  0
  4 10  1  0  0  0  0
  5 28  1  0  0  0  0
  7 20  1  0  0  0  0
  8  5  1  0  0  0  0
  9 12  1  0  0  0  0
 10 15  1  0  0  0  0
 10 14  1  0  0  0  0
 11 13  1  0  0  0  0
 11  7  1  0  0  0  0
 12 24  1  0  0  0  0
 12 11  1  0  0  0  0
 13 25  1  0  0  0  0
 15  9  1  0  0  0  0
 15 61  1  0  0  0  0
 16 23  1  0  0  0  0
 17 21  1  0  0  0  0
 17  9  1  0  0  0  0
 18  7  1  0  0  0  0
 19  2  1  0  0  0  0
 21 29  1  0  0  0  0
 22  3  1  0  0  0  0
 22 19  1  0  0  0  0
 23 35  1  0  0  0  0
 23  6  1  0  0  0  0
 24 14  1  0  0  0  0
 24 18  1  0  0  0  0
 25 26  1  0  0  0  0
 26  6  1  0  0  0  0
 27  5  1  0  0  0  0
 28  1  1  0  0  0  0
 28 33  1  0  0  0  0
 29  5  1  0  0  0  0
 30 13  1  0  0  0  0
 30 16  2  0  0  0  0
 31 22  1  0  0  0  0
 32 31  1  0  0  0  0
 33 34  2  0  0  0  0
 35 36  1  0  0  0  0
 36 37  1  0  0  0  0
 36 43  1  0  0  0  0
 38 39  2  0  0  0  0
 39 37  1  0  0  0  0
 39 40  1  0  0  0  0
 40 42  1  0  0  0  0
 42 41  1  0  0  0  0
 43 44  1  0  0  0  0
 44 47  1  0  0  0  0
 46 45  1  0  0  0  0
 47 46  1  0  0  0  0
 47 45  1  0  0  0  0
 48 49  1  0  0  0  0
 48 44  1  0  0  0  0
 49 52  1  0  0  0  0
 50 52  1  0  0  0  0
 50 53  1  0  0  0  0
 52 55  1  0  0  0  0
 53 54  1  0  0  0  0
 54 51  1  0  0  0  0
 55 51  1  0  0  0  0
 56 18  1  0  0  0  0
 57 56  1  0  0  0  0
 58 59  1  0  0  0  0
 59 57  1  0  0  0  0
 59 60  2  0  0  0  0
 62 61  1  0  0  0  0
 62 63  1  0  0  0  0
M  END
>  <MODEL>
3

>  <REMARK>
 VINA RESULT:      -4.0      2.211      4.949
  Name = 
  19 active torsions:
  status: ('A' for Active; 'I' for Inactive)
    1  A    between atoms: C_1  and  C_44
    2  A    between atoms: C_7  and  C_27
    3  A    between atoms: C_7  and  N_60
    4  A    between atoms: C_12  and  C_34
    5  A    between atoms: C_12  and  C_43
    6  A    between atoms: C_13  and  O_21
    7  A    between atoms: C_13  and  O_56
    8  A    between atoms: N_18  and  C_27
    9  A    between atoms: C_20  and  C_24
   10  A    between atoms: C_20  and  C_55
   11  A    between atoms: O_21  and  O_23
   12  A    between atoms: C_24  and  C_37
   13  A    between atoms: C_25  and  C_40
   14  A    between atoms: C_25  and  N_60
   15  A    between atoms: C_29  and  C_40
   16  A    between atoms: C_29  and  C_45
   17  A    between atoms: C_39  and  C_59
   18  A    between atoms: C_40  and  O_56
   19  A    between atoms: C_54  and  N_60
                            x       y       z     vdW  Elec       q    Type
                         _______ _______ _______ _____ _____    ______ ____

>  <TORSDO>
F 19

$$$$
