=
 OpenBabel11062415203D

 41 47  0  0  1  0  0  0  0  0999 V2000
  187.5510  176.9790  138.1770 C   0  0  0  0  0  2  0  0  0  0  0  0
  182.2290  181.5280  137.8420 C   0  0  0  0  0  1  0  0  0  0  0  0
  180.0740  179.9690  140.7320 C   0  0  0  0  0  0  0  0  0  0  0  0
  186.6270  178.4740  139.9930 C   0  0  0  0  0  2  0  0  0  0  0  0
  181.4690  175.8280  140.0280 S   0  0  0  0  0  0  0  0  0  0  0  0
  183.0580  176.3750  139.9040 C   0  0  0  0  0  3  0  0  0  0  0  0
  185.7250  176.1300  136.5920 C   0  0  2  0  0  3  0  0  0  0  0  0
  181.9730  179.3920  135.9220 C   0  0  0  0  0  2  0  0  0  0  0  0
  179.0820  178.9660  140.7220 C   0  0  0  0  0  3  0  0  0  0  0  0
  182.7950  175.8860  134.6010 C   0  0  0  0  0  2  0  0  0  0  0  0
  185.3920  177.9250  139.4270 N   0  0  2  0  0  0  0  0  0  0  0  0
  181.4230  179.6330  140.5270 C   0  0  0  0  0  3  0  0  0  0  0  0
  180.5870  177.8950  134.5940 N   0  0  0  0  0  2  0  0  0  0  0  0
  178.9580  181.7960  139.7610 O   0  0  0  0  0  0  0  0  0  0  0  0
  179.6810  181.3960  140.8830 C   0  0  0  0  0  2  0  0  0  0  0  0
  180.1370  182.4390  136.7750 C   0  0  0  0  0  2  0  0  0  0  0  0
  180.7160  180.0190  136.4820 C   0  0  2  0  0  3  0  0  0  0  0  0
  179.4290  177.6250  140.5140 C   0  0  0  0  0  3  0  0  0  0  0  0
  182.9780  177.3570  134.8500 C   0  0  1  0  0  3  0  0  0  0  0  0
  178.9310  183.7150  138.3460 C   0  0  0  0  0  2  0  0  0  0  0  0
  181.7590  178.2890  140.3130 C   0  0  0  0  0  0  0  0  0  0  0  0
  179.0180  183.1960  139.7670 C   0  0  0  0  0  2  0  0  0  0  0  0
  185.3600  178.2340  137.9970 C   0  0  0  0  0  2  0  0  0  0  0  0
  184.9340  176.4810  135.3960 N   0  0  2  0  0  0  0  0  0  0  0  0
  181.7320  177.9420  135.5100 C   0  0  1  0  0  3  0  0  0  0  0  0
  184.2780  178.6220  140.0600 C   0  0  0  0  0  2  0  0  0  0  0  0
  187.8510  178.0790  139.1980 C   0  0  0  0  0  2  0  0  0  0  0  0
  184.0750  177.4950  135.7120 O   0  0  0  0  0  0  0  0  0  0  0  0
  180.7920  181.2130  137.4090 C   0  0  1  0  0  3  0  0  0  0  0  0
  180.7710  177.3210  140.3100 C   0  0  0  0  0  0  0  0  0  0  0  0
  180.2150  183.5850  137.6770 N   0  0  2  0  0  0  0  0  0  0  0  0
  186.3940  177.3690  137.2440 C   0  0  1  0  0  3  0  0  0  0  0  0
  183.0400  177.7680  140.0790 C   0  0  0  0  0  0  0  0  0  0  0  0
  179.5290  179.5010  136.1660 C   0  0  0  0  0  3  0  0  0  0  0  0
  184.1100  175.3350  135.0340 C   0  0  0  0  0  2  0  0  0  0  0  0
  179.4550  178.3650  135.2940 N   0  0  0  0  0  0  0  0  0  0  0  0
  180.3790  184.7900  136.8740 C   0  0  0  0  0  3  0  0  0  0  0  0
  181.7230  185.1050  136.7960 O   0  0  0  0  0  0  0  0  0  0  0  0
  181.1240  184.5200  135.7420 O   0  0  0  0  0  0  0  0  0  0  0  0
  186.7140  173.9940  137.1120 O   0  0  0  0  0  1  0  0  0  0  0  0
  186.7620  175.0640  136.2160 C   0  0  0  0  0  2  0  0  0  0  0  0
  1 27  1  0  0  0  0
  3 15  1  0  0  0  0
  5 30  1  0  0  0  0
  6  5  1  0  0  0  0
  6 33  2  0  0  0  0
  7 41  1  6  0  0  0
  7 32  1  0  0  0  0
  9  3  1  0  0  0  0
 10 35  1  0  0  0  0
 11 23  1  6  0  0  0
 11  4  1  0  0  0  0
 11 26  1  0  0  0  0
 12  3  2  0  0  0  0
 13 36  1  0  0  0  0
 13 25  1  0  0  0  0
 14 22  1  0  0  0  0
 14 15  1  0  0  0  0
 16 29  1  0  0  0  0
 16 31  1  0  0  0  0
 17  8  1  1  0  0  0
 17 29  1  0  0  0  0
 18  9  2  0  0  0  0
 19 10  1  1  0  0  0
 19 25  1  0  0  0  0
 19 28  1  0  0  0  0
 20 22  1  0  0  0  0
 21 12  1  0  0  0  0
 24 35  1  1  0  0  0
 24 28  1  0  0  0  0
 24  7  1  0  0  0  0
 25  8  1  6  0  0  0
 26 33  1  0  0  0  0
 27  4  1  0  0  0  0
 29  2  1  6  0  0  0
 30 21  2  0  0  0  0
 30 18  1  0  0  0  0
 31 37  1  6  0  0  0
 31 20  1  0  0  0  0
 32 23  1  1  0  0  0
 32  1  1  0  0  0  0
 33 21  1  0  0  0  0
 34 17  1  0  0  0  0
 36 34  2  0  0  0  0
 38 37  1  0  0  0  0
 39 38  1  0  0  0  0
 39 37  1  0  0  0  0
 41 40  1  0  0  0  0
M  END
>  <MODEL>
1

>  <REMARK>
 VINA RESULT:      -4.3      0.000      0.000
  Name = 
  2 active torsions:
  status: ('A' for Active; 'I' for Inactive)
    1  A    between atoms: C_7  and  C_11
    2  A    between atoms: C_12  and  N_36
                            x       y       z     vdW  Elec       q    Type
                         _______ _______ _______ _____ _____    ______ ____

>  <TORSDO>
F 2

$$$$
=
 OpenBabel11062415203D

 41 47  0  0  1  0  0  0  0  0999 V2000
  184.2790  171.6590  136.2900 C   0  0  0  0  0  2  0  0  0  0  0  0
  182.2690  176.7340  140.6860 C   0  0  0  0  0  1  0  0  0  0  0  0
  179.5440  178.3420  138.3590 C   0  0  0  0  0  0  0  0  0  0  0  0
  181.9750  172.1380  137.2100 C   0  0  0  0  0  2  0  0  0  0  0  0
  181.6230  177.2990  134.5940 S   0  0  0  0  0  0  0  0  0  0  0  0
  181.9110  175.7440  135.1740 C   0  0  0  0  0  3  0  0  0  0  0  0
  185.6320  173.7980  135.8910 C   0  0  2  0  0  3  0  0  0  0  0  0
  184.6080  177.4610  139.1640 C   0  0  0  0  0  2  0  0  0  0  0  0
  179.6270  179.3600  137.3860 C   0  0  0  0  0  3  0  0  0  0  0  0
  186.9780  177.0720  136.1720 C   0  0  0  0  0  2  0  0  0  0  0  0
  182.4070  173.4840  136.8250 N   0  0  2  0  0  0  0  0  0  0  0  0
  180.1010  177.0760  138.1100 C   0  0  0  0  0  3  0  0  0  0  0  0
  185.9870  179.1470  138.0760 N   0  0  0  0  0  2  0  0  0  0  0  0
  179.7290  179.5460  140.3700 O   0  0  0  0  0  0  0  0  0  0  0  0
  178.9310  178.6340  139.6830 C   0  0  0  0  0  2  0  0  0  0  0  0
  182.5990  178.9530  141.8310 C   0  0  0  0  0  2  0  0  0  0  0  0
  183.6550  178.5520  139.5940 C   0  0  2  0  0  3  0  0  0  0  0  0
  180.2600  179.1210  136.1600 C   0  0  0  0  0  3  0  0  0  0  0  0
  186.3780  176.7780  137.5190 C   0  0  1  0  0  3  0  0  0  0  0  0
  180.5280  179.7670  142.6060 C   0  0  0  0  0  2  0  0  0  0  0  0
  180.7390  176.8500  136.8830 C   0  0  0  0  0  0  0  0  0  0  0  0
  179.3520  179.4230  141.7130 C   0  0  0  0  0  2  0  0  0  0  0  0
  183.6610  173.7840  137.5180 C   0  0  0  0  0  2  0  0  0  0  0  0
  186.5000  174.7940  136.5500 N   0  0  2  0  0  0  0  0  0  0  0  0
  185.3450  177.8420  137.8810 C   0  0  1  0  0  3  0  0  0  0  0  0
  181.3960  174.4180  137.3050 C   0  0  0  0  0  2  0  0  0  0  0  0
  183.0790  171.1140  137.0660 C   0  0  0  0  0  2  0  0  0  0  0  0
  185.7510  175.5280  137.4260 O   0  0  0  0  0  0  0  0  0  0  0  0
  182.4720  178.2410  140.4860 C   0  0  1  0  0  3  0  0  0  0  0  0
  180.8070  177.8600  135.9410 C   0  0  0  0  0  0  0  0  0  0  0  0
  181.4530  178.6480  142.6820 N   0  0  2  0  0  0  0  0  0  0  0  0
  184.8150  172.9590  136.9080 C   0  0  1  0  0  3  0  0  0  0  0  0
  181.3620  175.6650  136.4640 C   0  0  0  0  0  0  0  0  0  0  0  0
  183.8540  179.8000  139.1690 C   0  0  0  0  0  3  0  0  0  0  0  0
  186.9880  175.7240  135.5390 C   0  0  0  0  0  2  0  0  0  0  0  0
  184.9700  180.0960  138.3190 N   0  0  0  0  0  0  0  0  0  0  0  0
  181.9110  178.5930  144.0650 C   0  0  0  0  0  3  0  0  0  0  0  0
  183.2610  178.2960  144.0850 O   0  0  0  0  0  0  0  0  0  0  0  0
  182.8650  179.5640  144.2980 O   0  0  0  0  0  0  0  0  0  0  0  0
  187.4750  172.2520  135.7260 O   0  0  0  0  0  1  0  0  0  0  0  0
  186.4880  172.9050  134.9840 C   0  0  0  0  0  2  0  0  0  0  0  0
  1 27  1  0  0  0  0
  3 15  1  0  0  0  0
  5  6  1  0  0  0  0
  5 30  1  0  0  0  0
  6 33  2  0  0  0  0
  7 41  1  1  0  0  0
  7 24  1  0  0  0  0
  7 32  1  0  0  0  0
  9  3  2  0  0  0  0
 11  4  1  1  0  0  0
 11 26  1  0  0  0  0
 11 23  1  0  0  0  0
 12  3  1  0  0  0  0
 13 36  1  0  0  0  0
 14 22  1  0  0  0  0
 15 14  1  0  0  0  0
 16 31  1  0  0  0  0
 17  8  1  6  0  0  0
 17 29  1  0  0  0  0
 18  9  1  0  0  0  0
 19 10  1  6  0  0  0
 19 25  1  0  0  0  0
 20 31  1  0  0  0  0
 21 12  2  0  0  0  0
 22 20  1  0  0  0  0
 24 35  1  6  0  0  0
 24 28  1  0  0  0  0
 25 13  1  0  0  0  0
 25  8  1  1  0  0  0
 27  4  1  0  0  0  0
 28 19  1  0  0  0  0
 29  2  1  1  0  0  0
 29 16  1  0  0  0  0
 30 18  2  0  0  0  0
 30 21  1  0  0  0  0
 31 37  1  1  0  0  0
 32  1  1  6  0  0  0
 32 23  1  0  0  0  0
 33 21  1  0  0  0  0
 33 26  1  0  0  0  0
 34 17  1  0  0  0  0
 35 10  1  0  0  0  0
 36 34  2  0  0  0  0
 37 38  1  0  0  0  0
 37 39  1  0  0  0  0
 38 39  1  0  0  0  0
 41 40  1  0  0  0  0
M  END
>  <MODEL>
2

>  <REMARK>
 VINA RESULT:      -3.8      3.115      5.493
  Name = 
  2 active torsions:
  status: ('A' for Active; 'I' for Inactive)
    1  A    between atoms: C_7  and  C_11
    2  A    between atoms: C_12  and  N_36
                            x       y       z     vdW  Elec       q    Type
                         _______ _______ _______ _____ _____    ______ ____

>  <TORSDO>
F 2

$$$$
