=
 OpenBabel11062416563D

 56 60  0  0  1  0  0  0  0  0999 V2000
  189.6070  178.0190  142.0810 C   0  0  1  0  0  3  0  0  0  0  0  0
  191.0220  179.5040  143.5640 C   0  0  0  0  0  2  0  0  0  0  0  0
  191.9040  178.9450  144.6650 C   0  0  0  0  0  2  0  0  0  0  0  0
  191.4060  177.5360  144.8990 C   0  0  2  0  0  3  0  0  0  0  0  0
  189.9090  177.5670  144.6000 C   0  0  2  0  0  3  0  0  0  0  0  0
  189.7880  178.6090  143.4900 C   0  0  2  0  0  3  0  0  0  0  0  0
  191.7030  177.0920  146.2540 N   0  0  0  0  0  1  0  0  0  0  0  0
  189.1000  178.0480  145.8120 C   0  0  0  0  0  2  0  0  0  0  0  0
  187.7280  177.3880  145.8900 C   0  0  0  0  0  2  0  0  0  0  0  0
  186.5890  178.3630  145.6120 C   0  0  2  0  0  3  0  0  0  0  0  0
  185.8210  178.7360  146.8720 C   0  0  0  0  0  1  0  0  0  0  0  0
  185.6860  177.8660  144.4730 C   0  0  0  0  0  2  0  0  0  0  0  0
  184.8800  178.9320  143.7090 C   0  0  2  0  0  3  0  0  0  0  0  0
  183.9100  179.5040  144.5340 O   0  0  0  0  0  0  0  0  0  0  0  0
  182.7410  178.7980  144.2490 C   0  0  0  0  0  1  0  0  0  0  0  0
  184.2370  178.4010  142.4330 C   0  0  0  0  0  2  0  0  0  0  0  0
  184.7110  179.1760  141.2160 C   0  0  0  0  0  2  0  0  0  0  0  0
  183.4720  179.0070  139.0840 N   0  0  0  0  0  0  0  0  0  0  0  0
  184.2690  178.4830  139.9680 C   0  0  0  0  0  3  0  0  0  0  0  0
  182.9530  180.3170  139.1110 N   0  0  0  0  0  2  0  0  0  0  0  0
  181.8440  180.7900  138.2930 C   0  0  0  0  0  2  0  0  0  0  0  0
  179.9580  180.3840  141.1630 C   0  0  1  0  0  3  0  0  0  0  0  0
  179.7470  179.0030  137.2980 O   0  0  0  0  0  0  0  0  0  0  0  0
  179.1710  179.0740  140.9030 C   0  0  2  0  0  3  0  0  0  0  0  0
  180.5740  180.4690  138.9370 N   0  0  0  0  0  0  0  0  0  0  0  0
  180.6700  179.0330  141.2070 C   0  0  0  0  0  2  0  0  0  0  0  0
  180.1340  181.2010  139.9980 O   0  0  0  0  0  0  0  0  0  0  0  0
  179.7440  179.4060  138.4930 C   0  0  0  0  0  0  0  0  0  0  0  0
  178.9470  178.7710  139.4820 N   0  0  0  0  0  2  0  0  0  0  0  0
  189.8880  175.4420  142.6640 C   0  0  0  0  0  1  0  0  0  0  0  0
  190.6770  176.3090  140.3950 C   0  0  2  0  0  3  0  0  0  0  0  0
  190.2780  176.6520  141.8290 C   0  0  1  0  0  0  0  0  0  0  0  0
  191.7370  176.6710  141.4250 C   0  0  0  0  0  2  0  0  0  0  0  0
  190.5110  177.4770  139.4200 C   0  0  0  0  0  2  0  0  0  0  0  0
  189.2090  177.9770  137.2960 C   0  0  2  0  0  3  0  0  0  0  0  0
  187.9960  178.0160  135.2220 O   0  0  0  0  0  0  0  0  0  0  0  0
  189.9820  176.8880  135.1510 O   0  0  0  0  0  0  0  0  0  0  0  0
  189.0140  177.6130  135.8460 C   0  0  0  0  0  0  0  0  0  0  0  0
  191.1790  176.4750  135.7380 C   0  0  0  0  0  0  0  0  0  0  0  0
  190.1930  177.0180  137.9900 C   0  0  1  0  0  3  0  0  0  0  0  0
  191.4810  176.7840  137.1800 C   0  0  1  0  0  3  0  0  0  0  0  0
  192.0420  175.9010  135.0200 O   0  0  0  0  0  0  0  0  0  0  0  0
  193.6930  175.9490  138.0780 N   0  0  0  0  0  2  0  0  0  0  0  0
  191.8130  174.5580  138.0180 O   0  0  0  0  0  0  0  0  0  0  0  0
  192.3140  175.6960  137.7970 C   0  0  0  0  0  0  0  0  0  0  0  0
  194.5640  174.9310  138.6540 C   0  0  2  0  0  3  0  0  0  0  0  0
  195.2660  175.4840  139.8900 C   0  0  0  0  0  1  0  0  0  0  0  0
  195.5240  174.4350  137.6080 C   0  0  0  0  0  0  0  0  0  0  0  0
  196.0480  175.2510  136.8620 O   0  0  0  0  0  0  0  0  0  0  0  0
  195.8650  172.9790  137.4720 C   0  0  2  0  0  3  0  0  0  0  0  0
  195.2560  172.2170  138.5490 N   0  0  0  0  0  1  0  0  0  0  0  0
  197.3690  172.7850  137.4910 C   0  0  0  0  0  1  0  0  0  0  0  0
  187.8750  177.9670  138.0400 C   0  0  0  0  0  2  0  0  0  0  0  0
  187.2210  176.5990  137.9270 C   0  0  0  0  0  1  0  0  0  0  0  0
  188.1630  178.0060  141.6870 C   0  0  0  0  0  3  0  0  0  0  0  0
  187.6840  178.9450  141.0720 O   0  0  0  0  0  0  0  0  0  0  0  0
  1 55  1  1  0  0  0
  2  3  1  0  0  0  0
  3  4  1  0  0  0  0
  4  7  1  1  0  0  0
  5  4  1  0  0  0  0
  5  8  1  1  0  0  0
  6  1  1  6  0  0  0
  6  2  1  0  0  0  0
  6  5  1  0  0  0  0
  8  9  1  0  0  0  0
 10  9  1  0  0  0  0
 10 11  1  1  0  0  0
 12 10  1  0  0  0  0
 13 16  1  6  0  0  0
 13 12  1  0  0  0  0
 13 14  1  0  0  0  0
 15 14  1  0  0  0  0
 17 16  1  0  0  0  0
 18 20  1  0  0  0  0
 18 19  2  0  0  0  0
 19 17  1  0  0  0  0
 21 25  1  0  0  0  0
 21 20  1  0  0  0  0
 22 26  1  6  0  0  0
 23 28  2  0  0  0  0
 24 22  1  0  0  0  0
 24 26  1  6  0  0  0
 25 27  1  0  0  0  0
 27 22  1  0  0  0  0
 28 25  1  0  0  0  0
 28 29  1  0  0  0  0
 29 24  1  0  0  0  0
 31 34  1  6  0  0  0
 31 33  1  0  0  0  0
 31 32  1  0  0  0  0
 32  1  1  0  0  0  0
 32 30  1  1  0  0  0
 33 32  1  0  0  0  0
 35 40  1  0  0  0  0
 35 53  1  1  0  0  0
 36 38  2  0  0  0  0
 37 39  1  0  0  0  0
 37 38  1  0  0  0  0
 38 35  1  0  0  0  0
 39 41  1  0  0  0  0
 40 34  1  1  0  0  0
 41 45  1  1  0  0  0
 41 40  1  0  0  0  0
 42 39  2  0  0  0  0
 43 46  1  0  0  0  0
 45 44  2  0  0  0  0
 45 43  1  0  0  0  0
 46 47  1  1  0  0  0
 48 46  1  0  0  0  0
 49 48  2  0  0  0  0
 50 52  1  1  0  0  0
 50 48  1  0  0  0  0
 50 51  1  0  0  0  0
 54 53  1  0  0  0  0
 56 55  2  0  0  0  0
M  END
>  <MODEL>
1

>  <REMARK>
 VINA RESULT:      -6.9      0.000      0.000
  Name = 
  22 active torsions:
  status: ('A' for Active; 'I' for Inactive)
    1  A    between atoms: C_3  and  C_9
    2  A    between atoms: C_4  and  C_7
    3  A    between atoms: C_4  and  C_38
    4  A    between atoms: N_5  and  C_10
    5  A    between atoms: C_7  and  O_13
    6  A    between atoms: C_7  and  C_35
    7  A    between atoms: C_8  and  C_17
    8  A    between atoms: C_9  and  C_41
    9  A    between atoms: C_10  and  C_18
   10  A    between atoms: C_11  and  N_34
   11  A    between atoms: C_11  and  N_45
   12  A    between atoms: C_12  and  C_35
   13  A    between atoms: C_12  and  C_39
   14  A    between atoms: C_18  and  C_24
   15  A    between atoms: C_19  and  C_46
   16  A    between atoms: N_21  and  N_45
   17  A    between atoms: C_25  and  C_31
   18  A    between atoms: C_25  and  C_40
   19  A    between atoms: C_25  and  C_49
   20  A    between atoms: C_28  and  C_44
   21  A    between atoms: C_33  and  C_38
   22  A    between atoms: C_39  and  C_44
                            x       y       z     vdW  Elec       q    Type
                         _______ _______ _______ _____ _____    ______ ____

>  <TORSDO>
F 22

$$$$
=
 OpenBabel11062416563D

 56 60  0  0  1  0  0  0  0  0999 V2000
  189.6130  177.8810  142.2870 C   0  0  1  0  0  3  0  0  0  0  0  0
  191.0120  179.4200  143.7290 C   0  0  0  0  0  2  0  0  0  0  0  0
  191.8840  178.9030  144.8580 C   0  0  0  0  0  2  0  0  0  0  0  0
  191.3850  177.5030  145.1380 C   0  0  2  0  0  3  0  0  0  0  0  0
  189.8910  177.5210  144.8240 C   0  0  2  0  0  3  0  0  0  0  0  0
  189.7800  178.5220  143.6760 C   0  0  2  0  0  3  0  0  0  0  0  0
  191.6690  177.1080  146.5110 N   0  0  0  0  0  1  0  0  0  0  0  0
  189.0690  178.0440  146.0090 C   0  0  0  0  0  2  0  0  0  0  0  0
  187.6790  177.4240  146.0680 C   0  0  0  0  0  2  0  0  0  0  0  0
  186.5720  178.4310  145.7690 C   0  0  2  0  0  3  0  0  0  0  0  0
  185.9140  178.9640  147.0340 C   0  0  0  0  0  1  0  0  0  0  0  0
  185.5680  177.8790  144.7460 C   0  0  0  0  0  2  0  0  0  0  0  0
  185.0570  178.8600  143.6760 C   0  0  2  0  0  3  0  0  0  0  0  0
  184.1510  179.7670  144.2300 O   0  0  0  0  0  0  0  0  0  0  0  0
  183.0310  178.9990  144.5520 C   0  0  0  0  0  1  0  0  0  0  0  0
  184.4320  178.1650  142.4710 C   0  0  0  0  0  2  0  0  0  0  0  0
  184.9720  178.7310  141.1700 C   0  0  0  0  0  2  0  0  0  0  0  0
  183.1820  178.5520  139.4760 N   0  0  0  0  0  0  0  0  0  0  0  0
  183.8490  179.2600  140.3390 C   0  0  0  0  0  3  0  0  0  0  0  0
  183.3510  177.1750  139.2280 N   0  0  0  0  0  2  0  0  0  0  0  0
  182.2650  176.2090  139.1210 C   0  0  0  0  0  2  0  0  0  0  0  0
  184.3050  174.9650  136.6210 C   0  0  1  0  0  3  0  0  0  0  0  0
  180.5300  174.1270  138.0100 O   0  0  0  0  0  0  0  0  0  0  0  0
  183.3170  174.2630  135.6550 C   0  0  2  0  0  3  0  0  0  0  0  0
  182.6460  175.1240  138.2220 N   0  0  0  0  0  0  0  0  0  0  0  0
  183.3830  175.7900  135.7250 C   0  0  0  0  0  2  0  0  0  0  0  0
  183.9600  174.8360  138.0070 O   0  0  0  0  0  0  0  0  0  0  0  0
  181.6870  174.3210  137.5490 C   0  0  0  0  0  0  0  0  0  0  0  0
  182.0770  173.7930  136.2900 N   0  0  0  0  0  2  0  0  0  0  0  0
  190.4680  175.4090  142.7520 C   0  0  0  0  0  1  0  0  0  0  0  0
  190.9930  176.5170  140.5130 C   0  0  2  0  0  3  0  0  0  0  0  0
  190.5630  176.7060  141.9660 C   0  0  1  0  0  0  0  0  0  0  0  0
  191.9710  177.0630  141.5430 C   0  0  0  0  0  2  0  0  0  0  0  0
  190.5520  177.6580  139.5930 C   0  0  0  0  0  2  0  0  0  0  0  0
  188.9410  178.1180  137.6820 C   0  0  2  0  0  3  0  0  0  0  0  0
  187.4170  178.1170  135.8240 O   0  0  0  0  0  0  0  0  0  0  0  0
  189.3460  176.9390  135.4840 O   0  0  0  0  0  0  0  0  0  0  0  0
  188.5130  177.7110  136.2950 C   0  0  0  0  0  0  0  0  0  0  0  0
  190.6130  176.5170  135.8910 C   0  0  0  0  0  0  0  0  0  0  0  0
  190.0030  177.1590  138.2480 C   0  0  1  0  0  3  0  0  0  0  0  0
  191.1430  176.8660  137.2550 C   0  0  1  0  0  3  0  0  0  0  0  0
  191.3400  175.8980  135.0680 O   0  0  0  0  0  0  0  0  0  0  0  0
  193.4430  176.0360  137.9010 N   0  0  0  0  0  2  0  0  0  0  0  0
  191.5720  174.6400  138.0470 O   0  0  0  0  0  0  0  0  0  0  0  0
  192.0420  175.7790  137.7740 C   0  0  0  0  0  0  0  0  0  0  0  0
  194.3750  175.0190  138.3740 C   0  0  2  0  0  3  0  0  0  0  0  0
  195.0840  175.5070  139.6340 C   0  0  0  0  0  1  0  0  0  0  0  0
  195.3280  174.6520  137.2710 C   0  0  0  0  0  0  0  0  0  0  0  0
  195.6860  175.5260  136.4930 O   0  0  0  0  0  0  0  0  0  0  0  0
  195.8620  173.2570  137.1160 C   0  0  2  0  0  3  0  0  0  0  0  0
  195.0510  172.3210  137.8760 N   0  0  0  0  0  1  0  0  0  0  0  0
  197.3030  173.1870  137.5830 C   0  0  0  0  0  1  0  0  0  0  0  0
  187.7410  178.1650  138.6260 C   0  0  0  0  0  2  0  0  0  0  0  0
  186.4760  177.7590  137.8870 C   0  0  0  0  0  1  0  0  0  0  0  0
  188.1830  177.5200  142.0320 C   0  0  0  0  0  3  0  0  0  0  0  0
  187.6470  176.6320  142.6750 O   0  0  0  0  0  0  0  0  0  0  0  0
  1 55  1  1  0  0  0
  2  3  1  0  0  0  0
  3  4  1  0  0  0  0
  4  7  1  1  0  0  0
  5  4  1  0  0  0  0
  5  8  1  1  0  0  0
  6  1  1  6  0  0  0
  6  2  1  0  0  0  0
  6  5  1  0  0  0  0
  8  9  1  0  0  0  0
 10  9  1  0  0  0  0
 10 11  1  1  0  0  0
 12 10  1  0  0  0  0
 13 16  1  6  0  0  0
 13 14  1  0  0  0  0
 13 12  1  0  0  0  0
 14 15  1  0  0  0  0
 17 16  1  0  0  0  0
 18 19  2  0  0  0  0
 19 17  1  0  0  0  0
 20 18  1  0  0  0  0
 21 20  1  0  0  0  0
 22 26  1  6  0  0  0
 22 27  1  0  0  0  0
 24 26  1  6  0  0  0
 24 29  1  0  0  0  0
 24 22  1  0  0  0  0
 25 21  1  0  0  0  0
 27 25  1  0  0  0  0
 28 23  2  0  0  0  0
 28 25  1  0  0  0  0
 29 28  1  0  0  0  0
 31 34  1  6  0  0  0
 31 33  1  0  0  0  0
 31 32  1  0  0  0  0
 32  1  1  0  0  0  0
 32 30  1  1  0  0  0
 33 32  1  0  0  0  0
 35 40  1  0  0  0  0
 35 53  1  1  0  0  0
 36 38  2  0  0  0  0
 37 39  1  0  0  0  0
 37 38  1  0  0  0  0
 38 35  1  0  0  0  0
 39 41  1  0  0  0  0
 40 34  1  1  0  0  0
 41 45  1  1  0  0  0
 41 40  1  0  0  0  0
 42 39  2  0  0  0  0
 43 46  1  0  0  0  0
 45 43  1  0  0  0  0
 45 44  2  0  0  0  0
 46 47  1  1  0  0  0
 48 46  1  0  0  0  0
 49 48  2  0  0  0  0
 50 48  1  0  0  0  0
 50 52  1  1  0  0  0
 50 51  1  0  0  0  0
 54 53  1  0  0  0  0
 55 56  2  0  0  0  0
M  END
>  <MODEL>
2

>  <REMARK>
 VINA RESULT:      -6.6      2.043      2.766
  Name = 
  22 active torsions:
  status: ('A' for Active; 'I' for Inactive)
    1  A    between atoms: C_3  and  C_9
    2  A    between atoms: C_4  and  C_7
    3  A    between atoms: C_4  and  C_38
    4  A    between atoms: N_5  and  C_10
    5  A    between atoms: C_7  and  O_13
    6  A    between atoms: C_7  and  C_35
    7  A    between atoms: C_8  and  C_17
    8  A    between atoms: C_9  and  C_41
    9  A    between atoms: C_10  and  C_18
   10  A    between atoms: C_11  and  N_34
   11  A    between atoms: C_11  and  N_45
   12  A    between atoms: C_12  and  C_35
   13  A    between atoms: C_12  and  C_39
   14  A    between atoms: C_18  and  C_24
   15  A    between atoms: C_19  and  C_46
   16  A    between atoms: N_21  and  N_45
   17  A    between atoms: C_25  and  C_31
   18  A    between atoms: C_25  and  C_40
   19  A    between atoms: C_25  and  C_49
   20  A    between atoms: C_28  and  C_44
   21  A    between atoms: C_33  and  C_38
   22  A    between atoms: C_39  and  C_44
                            x       y       z     vdW  Elec       q    Type
                         _______ _______ _______ _____ _____    ______ ____

>  <TORSDO>
F 22

$$$$
=
 OpenBabel11062416563D

 56 60  0  0  1  0  0  0  0  0999 V2000
  189.2520  177.7730  142.4270 C   0  0  1  0  0  3  0  0  0  0  0  0
  190.8170  179.3260  143.6690 C   0  0  0  0  0  2  0  0  0  0  0  0
  191.7850  178.8260  144.7260 C   0  0  0  0  0  2  0  0  0  0  0  0
  191.2870  177.4490  145.1020 C   0  0  2  0  0  3  0  0  0  0  0  0
  189.7700  177.4920  144.9350 C   0  0  2  0  0  3  0  0  0  0  0  0
  189.5670  178.4560  143.7690 C   0  0  2  0  0  3  0  0  0  0  0  0
  191.6970  177.0940  146.4540 N   0  0  0  0  0  1  0  0  0  0  0  0
  189.0800  178.0740  146.1760 C   0  0  0  0  0  2  0  0  0  0  0  0
  187.7030  177.4650  146.4110 C   0  0  0  0  0  2  0  0  0  0  0  0
  186.5690  178.4320  146.0840 C   0  0  2  0  0  3  0  0  0  0  0  0
  186.1880  179.3050  147.2710 C   0  0  0  0  0  1  0  0  0  0  0  0
  185.3710  177.7040  145.4540 C   0  0  0  0  0  2  0  0  0  0  0  0
  184.5840  178.4680  144.3740 C   0  0  2  0  0  3  0  0  0  0  0  0
  185.3610  179.4930  143.8290 O   0  0  0  0  0  0  0  0  0  0  0  0
  185.1560  179.4010  142.4520 C   0  0  0  0  0  1  0  0  0  0  0  0
  183.2580  179.0260  144.8770 C   0  0  0  0  0  2  0  0  0  0  0  0
  182.1050  178.5850  143.9930 C   0  0  0  0  0  2  0  0  0  0  0  0
  180.6900  179.8170  142.3850 N   0  0  0  0  0  0  0  0  0  0  0  0
  181.3520  179.7780  143.5040 C   0  0  0  0  0  3  0  0  0  0  0  0
  180.5120  178.7420  141.4910 N   0  0  0  0  0  2  0  0  0  0  0  0
  180.3430  178.8780  140.0500 C   0  0  0  0  0  2  0  0  0  0  0  0
  178.9310  175.8350  139.2080 C   0  0  1  0  0  3  0  0  0  0  0  0
  182.7560  177.2590  139.6830 O   0  0  0  0  0  0  0  0  0  0  0  0
  180.0520  174.8110  139.5200 C   0  0  2  0  0  3  0  0  0  0  0  0
  180.4440  177.5710  139.4090 N   0  0  0  0  0  0  0  0  0  0  0  0
  179.2830  175.4910  140.6550 C   0  0  0  0  0  2  0  0  0  0  0  0
  179.4060  177.0790  138.6770 O   0  0  0  0  0  0  0  0  0  0  0  0
  181.6100  176.7650  139.5030 C   0  0  0  0  0  0  0  0  0  0  0  0
  181.4140  175.3600  139.4480 N   0  0  0  0  0  2  0  0  0  0  0  0
  190.6160  175.5090  142.6930 C   0  0  0  0  0  1  0  0  0  0  0  0
  190.4600  176.6170  140.3980 C   0  0  2  0  0  3  0  0  0  0  0  0
  190.3110  176.7760  141.9090 C   0  0  1  0  0  0  0  0  0  0  0  0
  191.5140  177.3630  141.2040 C   0  0  0  0  0  2  0  0  0  0  0  0
  189.6400  177.6290  139.5950 C   0  0  0  0  0  2  0  0  0  0  0  0
  187.7640  177.8030  137.8900 C   0  0  2  0  0  3  0  0  0  0  0  0
  186.0460  177.5330  136.2310 O   0  0  0  0  0  0  0  0  0  0  0  0
  188.0690  176.6290  135.6730 O   0  0  0  0  0  0  0  0  0  0  0  0
  187.2370  177.2990  136.5700 C   0  0  0  0  0  0  0  0  0  0  0  0
  189.4230  176.4010  135.9270 C   0  0  0  0  0  0  0  0  0  0  0  0
  189.0120  177.0190  138.3330 C   0  0  1  0  0  3  0  0  0  0  0  0
  190.0560  176.8620  137.2120 C   0  0  1  0  0  3  0  0  0  0  0  0
  190.1280  175.8670  135.0290 O   0  0  0  0  0  0  0  0  0  0  0  0
  192.5090  176.3930  137.6140 N   0  0  0  0  0  2  0  0  0  0  0  0
  190.8940  174.7330  137.9440 O   0  0  0  0  0  0  0  0  0  0  0  0
  191.1560  175.9270  137.6300 C   0  0  0  0  0  0  0  0  0  0  0  0
  193.6270  175.5320  137.9840 C   0  0  2  0  0  3  0  0  0  0  0  0
  194.3300  176.0940  139.2160 C   0  0  0  0  0  1  0  0  0  0  0  0
  194.5490  175.3660  136.8080 C   0  0  0  0  0  0  0  0  0  0  0  0
  194.4190  176.1180  135.8520 O   0  0  0  0  0  0  0  0  0  0  0  0
  195.6280  174.3210  136.7890 C   0  0  2  0  0  3  0  0  0  0  0  0
  196.2050  174.2190  135.4590 N   0  0  0  0  0  1  0  0  0  0  0  0
  195.0690  172.9770  137.2120 C   0  0  0  0  0  1  0  0  0  0  0  0
  186.6900  177.7080  138.9720 C   0  0  0  0  0  2  0  0  0  0  0  0
  185.7940  178.9340  138.9310 C   0  0  0  0  0  1  0  0  0  0  0  0
  187.8840  177.1660  142.4440 C   0  0  0  0  0  3  0  0  0  0  0  0
  187.6180  176.2680  143.2260 O   0  0  0  0  0  0  0  0  0  0  0  0
  1 55  1  1  0  0  0
  2  6  1  0  0  0  0
  2  3  1  0  0  0  0
  3  4  1  0  0  0  0
  4  7  1  1  0  0  0
  5  4  1  0  0  0  0
  5  8  1  1  0  0  0
  6  1  1  6  0  0  0
  6  5  1  0  0  0  0
  8  9  1  0  0  0  0
 10  9  1  0  0  0  0
 10 11  1  1  0  0  0
 12 10  1  0  0  0  0
 13 16  1  1  0  0  0
 13 12  1  0  0  0  0
 14 13  1  0  0  0  0
 15 14  1  0  0  0  0
 17 16  1  0  0  0  0
 18 19  2  0  0  0  0
 19 17  1  0  0  0  0
 20 18  1  0  0  0  0
 21 20  1  0  0  0  0
 22 24  1  0  0  0  0
 22 26  1  1  0  0  0
 24 26  1  1  0  0  0
 25 28  1  0  0  0  0
 25 21  1  0  0  0  0
 27 22  1  0  0  0  0
 27 25  1  0  0  0  0
 28 23  2  0  0  0  0
 29 28  1  0  0  0  0
 29 24  1  0  0  0  0
 31 34  1  6  0  0  0
 31 33  1  0  0  0  0
 31 32  1  0  0  0  0
 32  1  1  0  0  0  0
 32 30  1  1  0  0  0
 33 32  1  0  0  0  0
 35 40  1  0  0  0  0
 35 53  1  1  0  0  0
 36 38  2  0  0  0  0
 37 39  1  0  0  0  0
 37 38  1  0  0  0  0
 38 35  1  0  0  0  0
 39 41  1  0  0  0  0
 40 34  1  1  0  0  0
 41 45  1  1  0  0  0
 41 40  1  0  0  0  0
 42 39  2  0  0  0  0
 43 45  1  0  0  0  0
 43 46  1  0  0  0  0
 45 44  2  0  0  0  0
 46 47  1  1  0  0  0
 48 46  1  0  0  0  0
 49 48  2  0  0  0  0
 50 48  1  0  0  0  0
 50 52  1  6  0  0  0
 51 50  1  0  0  0  0
 54 53  1  0  0  0  0
 55 56  2  0  0  0  0
M  END
>  <MODEL>
3

>  <REMARK>
 VINA RESULT:      -6.3      1.889      2.419
  Name = 
  22 active torsions:
  status: ('A' for Active; 'I' for Inactive)
    1  A    between atoms: C_3  and  C_9
    2  A    between atoms: C_4  and  C_7
    3  A    between atoms: C_4  and  C_38
    4  A    between atoms: N_5  and  C_10
    5  A    between atoms: C_7  and  O_13
    6  A    between atoms: C_7  and  C_35
    7  A    between atoms: C_8  and  C_17
    8  A    between atoms: C_9  and  C_41
    9  A    between atoms: C_10  and  C_18
   10  A    between atoms: C_11  and  N_34
   11  A    between atoms: C_11  and  N_45
   12  A    between atoms: C_12  and  C_35
   13  A    between atoms: C_12  and  C_39
   14  A    between atoms: C_18  and  C_24
   15  A    between atoms: C_19  and  C_46
   16  A    between atoms: N_21  and  N_45
   17  A    between atoms: C_25  and  C_31
   18  A    between atoms: C_25  and  C_40
   19  A    between atoms: C_25  and  C_49
   20  A    between atoms: C_28  and  C_44
   21  A    between atoms: C_33  and  C_38
   22  A    between atoms: C_39  and  C_44
                            x       y       z     vdW  Elec       q    Type
                         _______ _______ _______ _____ _____    ______ ____

>  <TORSDO>
F 22

$$$$
=
 OpenBabel11062416563D

 56 60  0  0  1  0  0  0  0  0999 V2000
  189.5920  177.9720  141.9840 C   0  0  1  0  0  3  0  0  0  0  0  0
  190.9280  179.2990  143.6760 C   0  0  0  0  0  2  0  0  0  0  0  0
  191.5870  178.6490  144.8790 C   0  0  0  0  0  2  0  0  0  0  0  0
  190.9220  177.2970  145.0150 C   0  0  2  0  0  3  0  0  0  0  0  0
  189.4920  177.4810  144.5120 C   0  0  2  0  0  3  0  0  0  0  0  0
  189.6330  178.5350  143.4150 C   0  0  2  0  0  3  0  0  0  0  0  0
  190.9800  176.8190  146.3900 N   0  0  0  0  0  1  0  0  0  0  0  0
  188.5740  178.0370  145.6090 C   0  0  0  0  0  2  0  0  0  0  0  0
  187.1230  177.6130  145.4170 C   0  0  0  0  0  2  0  0  0  0  0  0
  186.1330  178.6510  145.9360 C   0  0  2  0  0  3  0  0  0  0  0  0
  186.4660  179.1200  147.3450 C   0  0  0  0  0  1  0  0  0  0  0  0
  184.6810  178.1740  145.7800 C   0  0  0  0  0  2  0  0  0  0  0  0
  183.9210  178.6580  144.5320 C   0  0  2  0  0  3  0  0  0  0  0  0
  184.4900  179.8310  144.0310 O   0  0  0  0  0  0  0  0  0  0  0  0
  184.9750  179.4810  142.7710 C   0  0  0  0  0  1  0  0  0  0  0  0
  182.4300  178.8620  144.7770 C   0  0  0  0  0  2  0  0  0  0  0  0
  181.6370  178.7150  143.4900 C   0  0  0  0  0  2  0  0  0  0  0  0
  179.2460  178.5110  142.8990 N   0  0  0  0  0  0  0  0  0  0  0  0
  180.1800  178.6010  143.7990 C   0  0  0  0  0  3  0  0  0  0  0  0
  179.4440  178.4360  141.5060 N   0  0  0  0  0  2  0  0  0  0  0  0
  178.9310  179.3990  140.5390 C   0  0  0  0  0  2  0  0  0  0  0  0
  181.7020  178.3260  138.7700 C   0  0  1  0  0  3  0  0  0  0  0  0
  179.8680  181.9430  139.4310 O   0  0  0  0  0  0  0  0  0  0  0  0
  182.5530  179.6110  138.6050 C   0  0  2  0  0  3  0  0  0  0  0  0
  179.8990  179.5940  139.4650 N   0  0  0  0  0  0  0  0  0  0  0  0
  182.4520  178.9150  139.9640 C   0  0  0  0  0  2  0  0  0  0  0  0
  180.2870  178.5460  138.6870 O   0  0  0  0  0  0  0  0  0  0  0  0
  180.4660  180.8640  139.1730 C   0  0  0  0  0  0  0  0  0  0  0  0
  181.7790  180.8600  138.6310 N   0  0  0  0  0  2  0  0  0  0  0  0
  190.1760  175.4500  142.5820 C   0  0  0  0  0  1  0  0  0  0  0  0
  190.8490  176.3870  140.3040 C   0  0  2  0  0  3  0  0  0  0  0  0
  190.4180  176.6910  141.7370 C   0  0  1  0  0  0  0  0  0  0  0  0
  191.8630  176.8780  141.3270 C   0  0  0  0  0  2  0  0  0  0  0  0
  190.5440  177.5220  139.3230 C   0  0  0  0  0  2  0  0  0  0  0  0
  189.2540  177.9530  137.1770 C   0  0  2  0  0  3  0  0  0  0  0  0
  188.0510  177.9260  135.0960 O   0  0  0  0  0  0  0  0  0  0  0  0
  190.0360  176.7910  135.0730 O   0  0  0  0  0  0  0  0  0  0  0  0
  189.0650  177.5420  135.7380 C   0  0  0  0  0  0  0  0  0  0  0  0
  191.2290  176.3960  135.6800 C   0  0  0  0  0  0  0  0  0  0  0  0
  190.2320  177.0160  137.9070 C   0  0  1  0  0  3  0  0  0  0  0  0
  191.5240  176.7520  137.1120 C   0  0  1  0  0  3  0  0  0  0  0  0
  192.0930  175.7960  134.9860 O   0  0  0  0  0  0  0  0  0  0  0  0
  193.7370  175.9300  138.0170 N   0  0  0  0  0  2  0  0  0  0  0  0
  191.8380  174.5650  138.0540 O   0  0  0  0  0  0  0  0  0  0  0  0
  192.3500  175.6830  137.7690 C   0  0  0  0  0  0  0  0  0  0  0  0
  194.6030  174.9280  138.6290 C   0  0  2  0  0  3  0  0  0  0  0  0
  195.2080  175.4790  139.9170 C   0  0  0  0  0  1  0  0  0  0  0  0
  195.6410  174.4820  137.6380 C   0  0  0  0  0  0  0  0  0  0  0  0
  196.7790  174.9190  137.7460 O   0  0  0  0  0  0  0  0  0  0  0  0
  195.3220  173.5080  136.5400 C   0  0  2  0  0  3  0  0  0  0  0  0
  194.3580  172.5250  137.0050 N   0  0  0  0  0  1  0  0  0  0  0  0
  196.5830  172.8090  136.0700 C   0  0  0  0  0  1  0  0  0  0  0  0
  187.9160  177.9710  137.9130 C   0  0  0  0  0  2  0  0  0  0  0  0
  187.3070  176.5780  137.9280 C   0  0  0  0  0  1  0  0  0  0  0  0
  188.1820  177.8200  141.5090 C   0  0  0  0  0  3  0  0  0  0  0  0
  187.5990  178.7630  140.9990 O   0  0  0  0  0  0  0  0  0  0  0  0
  1 55  1  1  0  0  0
  2  3  1  0  0  0  0
  3  4  1  0  0  0  0
  4  7  1  1  0  0  0
  5  4  1  0  0  0  0
  5  8  1  1  0  0  0
  6  1  1  6  0  0  0
  6  2  1  0  0  0  0
  6  5  1  0  0  0  0
  9  8  1  0  0  0  0
  9 10  1  0  0  0  0
 10 11  1  1  0  0  0
 12 10  1  0  0  0  0
 13 16  1  1  0  0  0
 13 12  1  0  0  0  0
 14 13  1  0  0  0  0
 15 14  1  0  0  0  0
 17 19  1  0  0  0  0
 17 16  1  0  0  0  0
 18 19  2  0  0  0  0
 20 18  1  0  0  0  0
 21 20  1  0  0  0  0
 22 26  1  1  0  0  0
 24 29  1  0  0  0  0
 24 22  1  0  0  0  0
 24 26  1  1  0  0  0
 25 21  1  0  0  0  0
 27 22  1  0  0  0  0
 27 25  1  0  0  0  0
 28 23  2  0  0  0  0
 28 25  1  0  0  0  0
 29 28  1  0  0  0  0
 31 34  1  6  0  0  0
 31 33  1  0  0  0  0
 31 32  1  0  0  0  0
 32  1  1  0  0  0  0
 32 30  1  1  0  0  0
 33 32  1  0  0  0  0
 35 40  1  0  0  0  0
 35 53  1  1  0  0  0
 36 38  2  0  0  0  0
 37 39  1  0  0  0  0
 37 38  1  0  0  0  0
 38 35  1  0  0  0  0
 39 41  1  0  0  0  0
 40 34  1  1  0  0  0
 41 45  1  1  0  0  0
 41 40  1  0  0  0  0
 42 39  2  0  0  0  0
 43 46  1  0  0  0  0
 45 43  1  0  0  0  0
 45 44  2  0  0  0  0
 46 47  1  1  0  0  0
 48 49  2  0  0  0  0
 48 46  1  0  0  0  0
 50 52  1  1  0  0  0
 50 51  1  0  0  0  0
 50 48  1  0  0  0  0
 53 54  1  0  0  0  0
 56 55  2  0  0  0  0
M  END
>  <MODEL>
4

>  <REMARK>
 VINA RESULT:      -6.3      1.072      2.005
  Name = 
  22 active torsions:
  status: ('A' for Active; 'I' for Inactive)
    1  A    between atoms: C_3  and  C_9
    2  A    between atoms: C_4  and  C_7
    3  A    between atoms: C_4  and  C_38
    4  A    between atoms: N_5  and  C_10
    5  A    between atoms: C_7  and  O_13
    6  A    between atoms: C_7  and  C_35
    7  A    between atoms: C_8  and  C_17
    8  A    between atoms: C_9  and  C_41
    9  A    between atoms: C_10  and  C_18
   10  A    between atoms: C_11  and  N_34
   11  A    between atoms: C_11  and  N_45
   12  A    between atoms: C_12  and  C_35
   13  A    between atoms: C_12  and  C_39
   14  A    between atoms: C_18  and  C_24
   15  A    between atoms: C_19  and  C_46
   16  A    between atoms: N_21  and  N_45
   17  A    between atoms: C_25  and  C_31
   18  A    between atoms: C_25  and  C_40
   19  A    between atoms: C_25  and  C_49
   20  A    between atoms: C_28  and  C_44
   21  A    between atoms: C_33  and  C_38
   22  A    between atoms: C_39  and  C_44
                            x       y       z     vdW  Elec       q    Type
                         _______ _______ _______ _____ _____    ______ ____

>  <TORSDO>
F 22

$$$$
=
 OpenBabel11062416563D

 56 60  0  0  1  0  0  0  0  0999 V2000
  189.0960  177.1300  139.6870 C   0  0  1  0  0  3  0  0  0  0  0  0
  190.9510  176.0930  138.3130 C   0  0  0  0  0  2  0  0  0  0  0  0
  191.0860  176.3330  136.8200 C   0  0  0  0  0  2  0  0  0  0  0  0
  189.7450  176.8780  136.3820 C   0  0  2  0  0  3  0  0  0  0  0  0
  188.7110  176.2340  137.3010 C   0  0  2  0  0  3  0  0  0  0  0  0
  189.4580  176.0770  138.6240 C   0  0  2  0  0  3  0  0  0  0  0  0
  189.5000  176.6000  134.9730 N   0  0  0  0  0  1  0  0  0  0  0  0
  188.3010  174.8410  136.8040 C   0  0  0  0  0  2  0  0  0  0  0  0
  186.8150  174.5690  137.0080 C   0  0  0  0  0  2  0  0  0  0  0  0
  186.5210  173.1010  137.2990 C   0  0  2  0  0  3  0  0  0  0  0  0
  187.7500  172.2180  137.1380 C   0  0  0  0  0  1  0  0  0  0  0  0
  185.3030  172.6010  136.5060 C   0  0  0  0  0  2  0  0  0  0  0  0
  183.9150  172.9830  137.0500 C   0  0  2  0  0  3  0  0  0  0  0  0
  183.1600  171.8410  137.3220 O   0  0  0  0  0  0  0  0  0  0  0  0
  183.1870  171.1060  136.1370 C   0  0  0  0  0  1  0  0  0  0  0  0
  183.1410  173.9150  136.1250 C   0  0  0  0  0  2  0  0  0  0  0  0
  182.5630  175.0930  136.8890 C   0  0  0  0  0  2  0  0  0  0  0  0
  182.6840  175.6930  139.2830 N   0  0  0  0  0  0  0  0  0  0  0  0
  183.2510  175.2310  138.2080 C   0  0  0  0  0  3  0  0  0  0  0  0
  181.3320  176.0700  139.4090 N   0  0  0  0  0  2  0  0  0  0  0  0
  180.8360  177.1010  140.3120 C   0  0  0  0  0  2  0  0  0  0  0  0
  181.1050  178.9830  137.4230 C   0  0  1  0  0  3  0  0  0  0  0  0
  180.4400  179.7920  141.3970 O   0  0  0  0  0  0  0  0  0  0  0  0
  181.4470  180.4040  137.9410 C   0  0  2  0  0  3  0  0  0  0  0  0
  180.5490  178.3230  139.5680 N   0  0  0  0  0  0  0  0  0  0  0  0
  182.4940  179.2880  137.9820 C   0  0  0  0  0  2  0  0  0  0  0  0
  180.1860  178.2630  138.2560 O   0  0  0  0  0  0  0  0  0  0  0  0
  180.6210  179.6110  140.1630 C   0  0  0  0  0  0  0  0  0  0  0  0
  180.9720  180.6860  139.3030 N   0  0  0  0  0  2  0  0  0  0  0  0
  191.4100  177.9100  140.7320 C   0  0  0  0  0  1  0  0  0  0  0  0
  189.4430  177.4020  142.2790 C   0  0  2  0  0  3  0  0  0  0  0  0
  190.0570  177.2350  140.8910 C   0  0  1  0  0  0  0  0  0  0  0  0
  190.0620  176.0750  141.8630 C   0  0  0  0  0  2  0  0  0  0  0  0
  187.9190  177.2550  142.2930 C   0  0  0  0  0  2  0  0  0  0  0  0
  185.7340  178.1820  143.2000 C   0  0  2  0  0  3  0  0  0  0  0  0
  183.9210  179.3670  144.2410 O   0  0  0  0  0  0  0  0  0  0  0  0
  185.6500  178.8380  145.6390 O   0  0  0  0  0  0  0  0  0  0  0  0
  185.0610  178.8470  144.3740 C   0  0  0  0  0  0  0  0  0  0  0  0
  186.8700  178.2100  145.8980 C   0  0  0  0  0  0  0  0  0  0  0  0
  187.2540  178.0680  143.4140 C   0  0  1  0  0  3  0  0  0  0  0  0
  187.6300  177.5140  144.8000 C   0  0  1  0  0  3  0  0  0  0  0  0
  187.2930  178.1700  147.0840 O   0  0  0  0  0  0  0  0  0  0  0  0
  189.8490  176.4160  145.3140 N   0  0  0  0  0  2  0  0  0  0  0  0
  189.6870  178.7320  145.0300 O   0  0  0  0  0  0  0  0  0  0  0  0
  189.1110  177.6090  145.0330 C   0  0  0  0  0  0  0  0  0  0  0  0
  191.2840  176.4380  145.5730 C   0  0  2  0  0  3  0  0  0  0  0  0
  191.9770  175.3470  144.7620 C   0  0  0  0  0  1  0  0  0  0  0  0
  191.5330  176.3170  147.0510 C   0  0  0  0  0  0  0  0  0  0  0  0
  191.7000  175.2030  147.5260 O   0  0  0  0  0  0  0  0  0  0  0  0
  191.6010  177.5230  147.9440 C   0  0  2  0  0  3  0  0  0  0  0  0
  192.5440  177.2950  149.0260 N   0  0  0  0  0  1  0  0  0  0  0  0
  190.2310  177.8380  148.5130 C   0  0  0  0  0  1  0  0  0  0  0  0
  185.4560  178.9520  141.9110 C   0  0  0  0  0  2  0  0  0  0  0  0
  184.2890  178.3240  141.1650 C   0  0  0  0  0  1  0  0  0  0  0  0
  188.8520  178.4650  139.0560 C   0  0  0  0  0  3  0  0  0  0  0  0
  187.7150  178.8350  138.8160 O   0  0  0  0  0  0  0  0  0  0  0  0
  1 55  1  6  0  0  0
  1 32  1  0  0  0  0
  2  6  1  0  0  0  0
  3  2  1  0  0  0  0
  4  7  1  6  0  0  0
  4  3  1  0  0  0  0
  4  5  1  0  0  0  0
  5  8  1  6  0  0  0
  5  6  1  0  0  0  0
  6  1  1  1  0  0  0
  8  9  1  0  0  0  0
  9 10  1  0  0  0  0
 10 11  1  6  0  0  0
 12 13  1  0  0  0  0
 12 10  1  0  0  0  0
 13 16  1  6  0  0  0
 13 14  1  0  0  0  0
 15 14  1  0  0  0  0
 16 17  1  0  0  0  0
 17 19  1  0  0  0  0
 18 20  1  0  0  0  0
 19 18  2  0  0  0  0
 20 21  1  0  0  0  0
 22 24  1  0  0  0  0
 22 26  1  1  0  0  0
 22 27  1  0  0  0  0
 24 26  1  1  0  0  0
 24 29  1  0  0  0  0
 25 28  1  0  0  0  0
 25 21  1  0  0  0  0
 27 25  1  0  0  0  0
 28 23  2  0  0  0  0
 29 28  1  0  0  0  0
 31 34  1  6  0  0  0
 32 30  1  6  0  0  0
 32 33  1  0  0  0  0
 32 31  1  0  0  0  0
 33 31  1  0  0  0  0
 35 53  1  6  0  0  0
 35 40  1  0  0  0  0
 35 38  1  0  0  0  0
 36 38  2  0  0  0  0
 37 39  1  0  0  0  0
 38 37  1  0  0  0  0
 39 42  2  0  0  0  0
 40 34  1  6  0  0  0
 40 41  1  0  0  0  0
 41 45  1  1  0  0  0
 41 39  1  0  0  0  0
 43 46  1  0  0  0  0
 44 45  2  0  0  0  0
 45 43  1  0  0  0  0
 46 47  1  6  0  0  0
 46 48  1  0  0  0  0
 48 49  2  0  0  0  0
 48 50  1  0  0  0  0
 50 52  1  1  0  0  0
 50 51  1  0  0  0  0
 54 53  1  0  0  0  0
 56 55  2  0  0  0  0
M  END
>  <MODEL>
5

>  <REMARK>
 VINA RESULT:      -6.3      3.110      7.793
  Name = 
  22 active torsions:
  status: ('A' for Active; 'I' for Inactive)
    1  A    between atoms: C_3  and  C_9
    2  A    between atoms: C_4  and  C_7
    3  A    between atoms: C_4  and  C_38
    4  A    between atoms: N_5  and  C_10
    5  A    between atoms: C_7  and  O_13
    6  A    between atoms: C_7  and  C_35
    7  A    between atoms: C_8  and  C_17
    8  A    between atoms: C_9  and  C_41
    9  A    between atoms: C_10  and  C_18
   10  A    between atoms: C_11  and  N_34
   11  A    between atoms: C_11  and  N_45
   12  A    between atoms: C_12  and  C_35
   13  A    between atoms: C_12  and  C_39
   14  A    between atoms: C_18  and  C_24
   15  A    between atoms: C_19  and  C_46
   16  A    between atoms: N_21  and  N_45
   17  A    between atoms: C_25  and  C_31
   18  A    between atoms: C_25  and  C_40
   19  A    between atoms: C_25  and  C_49
   20  A    between atoms: C_28  and  C_44
   21  A    between atoms: C_33  and  C_38
   22  A    between atoms: C_39  and  C_44
                            x       y       z     vdW  Elec       q    Type
                         _______ _______ _______ _____ _____    ______ ____

>  <TORSDO>
F 22

$$$$
=
 OpenBabel11062416563D

 56 60  0  0  1  0  0  0  0  0999 V2000
  189.9620  177.5160  142.0170 C   0  0  1  0  0  3  0  0  0  0  0  0
  191.3070  177.0710  139.9200 C   0  0  0  0  0  2  0  0  0  0  0  0
  191.0570  177.8170  138.6220 C   0  0  0  0  0  2  0  0  0  0  0  0
  189.6890  178.4440  138.7810 C   0  0  2  0  0  3  0  0  0  0  0  0
  188.8940  177.4930  139.6720 C   0  0  2  0  0  3  0  0  0  0  0  0
  189.9530  176.9080  140.6040 C   0  0  2  0  0  3  0  0  0  0  0  0
  189.0590  178.6650  137.4870 N   0  0  0  0  0  1  0  0  0  0  0  0
  188.2690  176.3490  138.8630 C   0  0  0  0  0  2  0  0  0  0  0  0
  188.9980  176.1070  137.5470 C   0  0  0  0  0  2  0  0  0  0  0  0
  189.3730  174.6420  137.3430 C   0  0  2  0  0  3  0  0  0  0  0  0
  190.8730  174.4410  137.1860 C   0  0  0  0  0  1  0  0  0  0  0  0
  188.5510  174.0020  136.2130 C   0  0  0  0  0  2  0  0  0  0  0  0
  187.5320  172.9230  136.6210 C   0  0  2  0  0  3  0  0  0  0  0  0
  187.3960  171.9650  135.6140 O   0  0  0  0  0  0  0  0  0  0  0  0
  188.6990  171.5380  135.3530 C   0  0  0  0  0  1  0  0  0  0  0  0
  186.1670  173.4930  136.9880 C   0  0  0  0  0  2  0  0  0  0  0  0
  185.7170  174.5360  135.9800 C   0  0  0  0  0  2  0  0  0  0  0  0
  184.0460  175.9540  137.1210 N   0  0  0  0  0  0  0  0  0  0  0  0
  185.2590  175.7670  136.6890 C   0  0  0  0  0  3  0  0  0  0  0  0
  182.9930  175.0210  137.0570 N   0  0  0  0  0  2  0  0  0  0  0  0
  181.7130  175.2530  136.3990 C   0  0  0  0  0  2  0  0  0  0  0  0
  179.7860  176.1590  139.1240 C   0  0  1  0  0  3  0  0  0  0  0  0
  180.7190  172.6290  137.2390 O   0  0  0  0  0  0  0  0  0  0  0  0
  179.6640  174.8470  139.9400 C   0  0  2  0  0  3  0  0  0  0  0  0
  180.6170  174.9750  137.3220 N   0  0  0  0  0  0  0  0  0  0  0  0
  180.9840  175.6210  139.9050 C   0  0  0  0  0  2  0  0  0  0  0  0
  179.7670  175.9680  137.7030 O   0  0  0  0  0  0  0  0  0  0  0  0
  180.3790  173.6780  137.8500 C   0  0  0  0  0  0  0  0  0  0  0  0
  179.7900  173.6200  139.1410 N   0  0  0  0  0  2  0  0  0  0  0  0
  190.7450  176.0060  144.0580 C   0  0  0  0  0  1  0  0  0  0  0  0
  188.3020  176.7310  143.8990 C   0  0  2  0  0  3  0  0  0  0  0  0
  189.6330  176.5470  143.1730 C   0  0  1  0  0  0  0  0  0  0  0  0
  188.5040  175.5660  142.9410 C   0  0  0  0  0  2  0  0  0  0  0  0
  187.3850  177.7640  143.2380 C   0  0  0  0  0  2  0  0  0  0  0  0
  186.4950  178.4650  145.5120 C   0  0  2  0  0  3  0  0  0  0  0  0
  185.2920  178.9060  147.5450 O   0  0  0  0  0  0  0  0  0  0  0  0
  184.1450  179.3890  145.6270 O   0  0  0  0  0  0  0  0  0  0  0  0
  185.2780  178.9070  146.2850 C   0  0  0  0  0  0  0  0  0  0  0  0
  184.0730  179.5060  144.2380 C   0  0  0  0  0  0  0  0  0  0  0  0
  186.1310  178.0650  144.0710 C   0  0  1  0  0  3  0  0  0  0  0  0
  185.2290  179.0960  143.3660 C   0  0  1  0  0  3  0  0  0  0  0  0
  183.0490  180.0320  143.7260 O   0  0  0  0  0  0  0  0  0  0  0  0
  185.0090  179.3190  140.8570 N   0  0  0  0  0  2  0  0  0  0  0  0
  184.0640  177.5060  141.9940 O   0  0  0  0  0  0  0  0  0  0  0  0
  184.7420  178.5700  142.0460 C   0  0  0  0  0  0  0  0  0  0  0  0
  184.5450  178.8800  139.5460 C   0  0  2  0  0  3  0  0  0  0  0  0
  185.7280  178.7500  138.5920 C   0  0  0  0  0  1  0  0  0  0  0  0
  183.4870  179.8210  139.0420 C   0  0  0  0  0  0  0  0  0  0  0  0
  183.8190  180.9520  138.7130 O   0  0  0  0  0  0  0  0  0  0  0  0
  182.0500  179.4030  138.9150 C   0  0  2  0  0  3  0  0  0  0  0  0
  181.3160  180.3630  138.1080 N   0  0  0  0  0  1  0  0  0  0  0  0
  181.4110  179.2860  140.2850 C   0  0  0  0  0  1  0  0  0  0  0  0
  187.1820  177.2930  146.2090 C   0  0  0  0  0  2  0  0  0  0  0  0
  188.3270  177.7950  147.0730 C   0  0  0  0  0  1  0  0  0  0  0  0
  191.2330  178.2650  142.2690 C   0  0  0  0  0  3  0  0  0  0  0  0
  191.3340  178.9990  143.2380 O   0  0  0  0  0  0  0  0  0  0  0  0
  1 55  1  1  0  0  0
  1 32  1  0  0  0  0
  2  6  1  0  0  0  0
  3  4  1  0  0  0  0
  3  2  1  0  0  0  0
  4  7  1  6  0  0  0
  4  5  1  0  0  0  0
  5  8  1  6  0  0  0
  5  6  1  0  0  0  0
  6  1  1  1  0  0  0
  9  8  1  0  0  0  0
 10 11  1  6  0  0  0
 10  9  1  0  0  0  0
 12 10  1  0  0  0  0
 13 12  1  6  0  0  0
 13 16  1  0  0  0  0
 14 13  1  0  0  0  0
 15 14  1  0  0  0  0
 17 19  1  0  0  0  0
 17 16  1  0  0  0  0
 19 18  2  0  0  0  0
 20 18  1  0  0  0  0
 21 20  1  0  0  0  0
 21 25  1  0  0  0  0
 22 26  1  6  0  0  0
 22 24  1  0  0  0  0
 23 28  2  0  0  0  0
 24 26  1  1  0  0  0
 25 27  1  0  0  0  0
 25 28  1  0  0  0  0
 27 22  1  0  0  0  0
 28 29  1  0  0  0  0
 29 24  1  0  0  0  0
 31 34  1  6  0  0  0
 32 31  1  0  0  0  0
 32 30  1  1  0  0  0
 33 32  1  0  0  0  0
 33 31  1  0  0  0  0
 35 53  1  1  0  0  0
 35 38  1  0  0  0  0
 37 38  1  0  0  0  0
 38 36  2  0  0  0  0
 39 37  1  0  0  0  0
 40 34  1  6  0  0  0
 40 35  1  0  0  0  0
 41 45  1  6  0  0  0
 41 40  1  0  0  0  0
 41 39  1  0  0  0  0
 42 39  2  0  0  0  0
 43 45  1  0  0  0  0
 44 45  2  0  0  0  0
 46 47  1  6  0  0  0
 46 43  1  0  0  0  0
 48 46  1  0  0  0  0
 49 48  2  0  0  0  0
 50 48  1  0  0  0  0
 50 52  1  1  0  0  0
 51 50  1  0  0  0  0
 53 54  1  0  0  0  0
 55 56  2  0  0  0  0
M  END
>  <MODEL>
6

>  <REMARK>
 VINA RESULT:      -6.1      3.487      8.808
  Name = 
  22 active torsions:
  status: ('A' for Active; 'I' for Inactive)
    1  A    between atoms: C_3  and  C_9
    2  A    between atoms: C_4  and  C_7
    3  A    between atoms: C_4  and  C_38
    4  A    between atoms: N_5  and  C_10
    5  A    between atoms: C_7  and  O_13
    6  A    between atoms: C_7  and  C_35
    7  A    between atoms: C_8  and  C_17
    8  A    between atoms: C_9  and  C_41
    9  A    between atoms: C_10  and  C_18
   10  A    between atoms: C_11  and  N_34
   11  A    between atoms: C_11  and  N_45
   12  A    between atoms: C_12  and  C_35
   13  A    between atoms: C_12  and  C_39
   14  A    between atoms: C_18  and  C_24
   15  A    between atoms: C_19  and  C_46
   16  A    between atoms: N_21  and  N_45
   17  A    between atoms: C_25  and  C_31
   18  A    between atoms: C_25  and  C_40
   19  A    between atoms: C_25  and  C_49
   20  A    between atoms: C_28  and  C_44
   21  A    between atoms: C_33  and  C_38
   22  A    between atoms: C_39  and  C_44
                            x       y       z     vdW  Elec       q    Type
                         _______ _______ _______ _____ _____    ______ ____

>  <TORSDO>
F 22

$$$$
=
 OpenBabel11062416563D

 56 60  0  0  1  0  0  0  0  0999 V2000
  189.3500  177.5430  141.4090 C   0  0  1  0  0  3  0  0  0  0  0  0
  191.4800  176.2830  141.9380 C   0  0  0  0  0  2  0  0  0  0  0  0
  192.8230  176.6800  141.3550 C   0  0  0  0  0  2  0  0  0  0  0  0
  192.4990  177.5870  140.1890 C   0  0  2  0  0  3  0  0  0  0  0  0
  191.1640  177.0940  139.6350 C   0  0  2  0  0  3  0  0  0  0  0  0
  190.4290  176.5860  140.8740 C   0  0  2  0  0  3  0  0  0  0  0  0
  193.5640  177.5670  139.1960 N   0  0  0  0  0  1  0  0  0  0  0  0
  191.3520  175.9210  138.6640 C   0  0  0  0  0  2  0  0  0  0  0  0
  191.3220  176.3660  137.2070 C   0  0  0  0  0  2  0  0  0  0  0  0
  189.9030  176.5390  136.6740 C   0  0  2  0  0  3  0  0  0  0  0  0
  189.4000  177.9690  136.8110 C   0  0  0  0  0  1  0  0  0  0  0  0
  188.9450  175.4970  137.2720 C   0  0  0  0  0  2  0  0  0  0  0  0
  188.3380  174.4720  136.2970 C   0  0  2  0  0  3  0  0  0  0  0  0
  189.3420  173.8210  135.5760 O   0  0  0  0  0  0  0  0  0  0  0  0
  188.9940  172.4710  135.6220 C   0  0  0  0  0  1  0  0  0  0  0  0
  187.3180  175.0800  135.3420 C   0  0  0  0  0  2  0  0  0  0  0  0
  186.2110  175.7910  136.1010 C   0  0  0  0  0  2  0  0  0  0  0  0
  184.2810  176.4800  134.7210 N   0  0  0  0  0  0  0  0  0  0  0  0
  185.4740  176.7110  135.1840 C   0  0  0  0  0  3  0  0  0  0  0  0
  183.4640  175.3790  135.0500 N   0  0  0  0  0  2  0  0  0  0  0  0
  182.6580  175.2730  136.2590 C   0  0  0  0  0  2  0  0  0  0  0  0
  184.4080  172.2990  136.4920 C   0  0  1  0  0  3  0  0  0  0  0  0
  180.6200  173.5540  137.4700 O   0  0  0  0  0  0  0  0  0  0  0  0
  183.2950  171.2260  136.6030 C   0  0  2  0  0  3  0  0  0  0  0  0
  182.8550  173.9670  136.8790 N   0  0  0  0  0  0  0  0  0  0  0  0
  183.5640  171.9320  135.2720 C   0  0  0  0  0  2  0  0  0  0  0  0
  184.1100  173.5250  137.1740 O   0  0  0  0  0  0  0  0  0  0  0  0
  181.7710  173.1110  137.2110 C   0  0  0  0  0  0  0  0  0  0  0  0
  182.0340  171.7160  137.1770 N   0  0  0  0  0  2  0  0  0  0  0  0
  190.6100  179.0260  143.2180 C   0  0  0  0  0  1  0  0  0  0  0  0
  188.2780  178.1260  143.7380 C   0  0  2  0  0  3  0  0  0  0  0  0
  189.5280  178.0170  142.8680 C   0  0  1  0  0  0  0  0  0  0  0  0
  189.2720  176.9940  143.9540 C   0  0  0  0  0  2  0  0  0  0  0  0
  187.0200  177.5610  143.0720 C   0  0  0  0  0  2  0  0  0  0  0  0
  186.0610  178.2200  145.3310 C   0  0  2  0  0  3  0  0  0  0  0  0
  184.7960  178.6260  147.3330 O   0  0  0  0  0  0  0  0  0  0  0  0
  183.7170  179.1610  145.3910 O   0  0  0  0  0  0  0  0  0  0  0  0
  184.8230  178.6550  146.0740 C   0  0  0  0  0  0  0  0  0  0  0  0
  183.6910  179.3090  144.0030 C   0  0  0  0  0  0  0  0  0  0  0  0
  185.7420  177.8550  143.8700 C   0  0  1  0  0  3  0  0  0  0  0  0
  184.8720  178.9090  143.1610 C   0  0  1  0  0  3  0  0  0  0  0  0
  182.6880  179.8560  143.4700 O   0  0  0  0  0  0  0  0  0  0  0  0
  184.7820  179.1620  140.6460 N   0  0  0  0  0  2  0  0  0  0  0  0
  183.7000  177.3870  141.7190 O   0  0  0  0  0  0  0  0  0  0  0  0
  184.4240  178.4170  141.8130 C   0  0  0  0  0  0  0  0  0  0  0  0
  184.3610  178.7550  139.3100 C   0  0  2  0  0  3  0  0  0  0  0  0
  185.5530  178.7810  138.3580 C   0  0  0  0  0  1  0  0  0  0  0  0
  183.2250  179.6250  138.8500 C   0  0  0  0  0  0  0  0  0  0  0  0
  183.3870  180.8380  138.8330 O   0  0  0  0  0  0  0  0  0  0  0  0
  181.9160  179.0450  138.3970 C   0  0  2  0  0  3  0  0  0  0  0  0
  181.8370  179.0550  136.9460 N   0  0  0  0  0  1  0  0  0  0  0  0
  180.7590  179.8320  138.9810 C   0  0  0  0  0  1  0  0  0  0  0  0
  186.7160  177.0270  146.0240 C   0  0  0  0  0  2  0  0  0  0  0  0
  187.6570  177.5060  147.1170 C   0  0  0  0  0  1  0  0  0  0  0  0
  189.1450  178.6950  140.4760 C   0  0  0  0  0  3  0  0  0  0  0  0
  188.0230  178.9870  140.0950 O   0  0  0  0  0  0  0  0  0  0  0  0
  1 55  1  6  0  0  0
  1 32  1  0  0  0  0
  3  2  1  0  0  0  0
  4  7  1  6  0  0  0
  4  3  1  0  0  0  0
  5  8  1  6  0  0  0
  5  4  1  0  0  0  0
  5  6  1  0  0  0  0
  6  1  1  1  0  0  0
  6  2  1  0  0  0  0
  9  8  1  0  0  0  0
 10 11  1  1  0  0  0
 10  9  1  0  0  0  0
 10 12  1  0  0  0  0
 13 16  1  6  0  0  0
 13 12  1  0  0  0  0
 14 15  1  0  0  0  0
 14 13  1  0  0  0  0
 16 17  1  0  0  0  0
 18 20  1  0  0  0  0
 18 19  2  0  0  0  0
 19 17  1  0  0  0  0
 20 21  1  0  0  0  0
 21 25  1  0  0  0  0
 22 26  1  6  0  0  0
 22 24  1  0  0  0  0
 22 27  1  0  0  0  0
 24 26  1  6  0  0  0
 24 29  1  0  0  0  0
 25 27  1  0  0  0  0
 25 28  1  0  0  0  0
 28 23  2  0  0  0  0
 29 28  1  0  0  0  0
 31 34  1  6  0  0  0
 31 33  1  0  0  0  0
 32 30  1  1  0  0  0
 32 31  1  0  0  0  0
 32 33  1  0  0  0  0
 35 53  1  1  0  0  0
 35 38  1  0  0  0  0
 37 38  1  0  0  0  0
 38 36  2  0  0  0  0
 39 37  1  0  0  0  0
 40 34  1  6  0  0  0
 40 35  1  0  0  0  0
 41 45  1  6  0  0  0
 41 40  1  0  0  0  0
 41 39  1  0  0  0  0
 42 39  2  0  0  0  0
 43 45  1  0  0  0  0
 44 45  2  0  0  0  0
 46 47  1  6  0  0  0
 46 43  1  0  0  0  0
 48 46  1  0  0  0  0
 49 48  2  0  0  0  0
 50 48  1  0  0  0  0
 50 52  1  1  0  0  0
 51 50  1  0  0  0  0
 53 54  1  0  0  0  0
 56 55  2  0  0  0  0
M  END
>  <MODEL>
7

>  <REMARK>
 VINA RESULT:      -6.0      3.171      9.074
  Name = 
  22 active torsions:
  status: ('A' for Active; 'I' for Inactive)
    1  A    between atoms: C_3  and  C_9
    2  A    between atoms: C_4  and  C_7
    3  A    between atoms: C_4  and  C_38
    4  A    between atoms: N_5  and  C_10
    5  A    between atoms: C_7  and  O_13
    6  A    between atoms: C_7  and  C_35
    7  A    between atoms: C_8  and  C_17
    8  A    between atoms: C_9  and  C_41
    9  A    between atoms: C_10  and  C_18
   10  A    between atoms: C_11  and  N_34
   11  A    between atoms: C_11  and  N_45
   12  A    between atoms: C_12  and  C_35
   13  A    between atoms: C_12  and  C_39
   14  A    between atoms: C_18  and  C_24
   15  A    between atoms: C_19  and  C_46
   16  A    between atoms: N_21  and  N_45
   17  A    between atoms: C_25  and  C_31
   18  A    between atoms: C_25  and  C_40
   19  A    between atoms: C_25  and  C_49
   20  A    between atoms: C_28  and  C_44
   21  A    between atoms: C_33  and  C_38
   22  A    between atoms: C_39  and  C_44
                            x       y       z     vdW  Elec       q    Type
                         _______ _______ _______ _____ _____    ______ ____

>  <TORSDO>
F 22

$$$$
=
 OpenBabel11062416563D

 56 60  0  0  1  0  0  0  0  0999 V2000
  189.0740  176.7620  138.5890 C   0  0  1  0  0  3  0  0  0  0  0  0
  190.8200  177.8630  140.0550 C   0  0  0  0  0  2  0  0  0  0  0  0
  191.0800  177.4150  141.4810 C   0  0  0  0  0  2  0  0  0  0  0  0
  189.8720  176.5910  141.8670 C   0  0  2  0  0  3  0  0  0  0  0  0
  188.6950  177.1910  141.1020 C   0  0  2  0  0  3  0  0  0  0  0  0
  189.3270  177.6780  139.7990 C   0  0  2  0  0  3  0  0  0  0  0  0
  189.6700  176.5970  143.3090 N   0  0  0  0  0  1  0  0  0  0  0  0
  188.0980  178.3990  141.8370 C   0  0  0  0  0  2  0  0  0  0  0  0
  187.0040  177.9960  142.8170 C   0  0  0  0  0  2  0  0  0  0  0  0
  185.6400  178.5710  142.4450 C   0  0  2  0  0  3  0  0  0  0  0  0
  185.5530  178.9580  140.9760 C   0  0  0  0  0  1  0  0  0  0  0  0
  185.2260  179.7020  143.3990 C   0  0  0  0  0  2  0  0  0  0  0  0
  184.4440  179.2950  144.6610 C   0  0  2  0  0  3  0  0  0  0  0  0
  184.8870  178.0610  145.1410 O   0  0  0  0  0  0  0  0  0  0  0  0
  185.7480  178.3770  146.1920 C   0  0  0  0  0  1  0  0  0  0  0  0
  182.9340  179.2630  144.4490 C   0  0  0  0  0  2  0  0  0  0  0  0
  182.5900  179.0060  142.9930 C   0  0  0  0  0  2  0  0  0  0  0  0
  180.3360  179.3060  142.0230 N   0  0  0  0  0  0  0  0  0  0  0  0
  181.1320  178.7070  142.8590 C   0  0  0  0  0  3  0  0  0  0  0  0
  180.7140  180.2710  141.0680 N   0  0  0  0  0  2  0  0  0  0  0  0
  179.7890  180.9970  140.2080 C   0  0  0  0  0  2  0  0  0  0  0  0
  181.0490  183.0450  137.7220 C   0  0  1  0  0  3  0  0  0  0  0  0
  179.3610  179.3010  137.8590 O   0  0  0  0  0  0  0  0  0  0  0  0
  180.3940  182.4970  136.4280 C   0  0  2  0  0  3  0  0  0  0  0  0
  180.3660  181.1640  138.8780 N   0  0  0  0  0  0  0  0  0  0  0  0
  179.5670  183.2900  137.4420 C   0  0  0  0  0  2  0  0  0  0  0  0
  181.3960  182.0330  138.6760 O   0  0  0  0  0  0  0  0  0  0  0  0
  179.9020  180.4350  137.7510 C   0  0  0  0  0  0  0  0  0  0  0  0
  180.0220  181.0770  136.4900 N   0  0  0  0  0  2  0  0  0  0  0  0
  189.0680  178.2640  136.3970 C   0  0  0  0  0  1  0  0  0  0  0  0
  187.1530  176.6240  136.8000 C   0  0  2  0  0  3  0  0  0  0  0  0
  188.3210  177.4010  137.4020 C   0  0  1  0  0  0  0  0  0  0  0  0
  186.9010  177.8540  137.6590 C   0  0  0  0  0  2  0  0  0  0  0  0
  186.7760  175.3740  137.5990 C   0  0  0  0  0  2  0  0  0  0  0  0
  187.2830  173.0860  136.6160 C   0  0  2  0  0  3  0  0  0  0  0  0
  187.4910  171.0450  135.3650 O   0  0  0  0  0  0  0  0  0  0  0  0
  185.3410  171.6990  135.7860 O   0  0  0  0  0  0  0  0  0  0  0  0
  186.7190  171.9040  135.8700 C   0  0  0  0  0  0  0  0  0  0  0  0
  184.4140  172.5510  136.3880 C   0  0  0  0  0  0  0  0  0  0  0  0
  186.2600  174.2330  136.7100 C   0  0  1  0  0  3  0  0  0  0  0  0
  184.8650  173.7630  137.1600 C   0  0  1  0  0  3  0  0  0  0  0  0
  183.1910  172.2500  136.3410 O   0  0  0  0  0  0  0  0  0  0  0  0
  183.3030  175.4350  138.2350 N   0  0  0  0  0  2  0  0  0  0  0  0
  183.4780  175.2720  135.9080 O   0  0  0  0  0  0  0  0  0  0  0  0
  183.8600  174.8740  137.0440 C   0  0  0  0  0  0  0  0  0  0  0  0
  182.3060  176.4990  138.1950 C   0  0  2  0  0  3  0  0  0  0  0  0
  182.9510  177.8320  138.5590 C   0  0  0  0  0  1  0  0  0  0  0  0
  181.1500  176.1440  139.0890 C   0  0  0  0  0  0  0  0  0  0  0  0
  180.6050  177.0370  139.7220 O   0  0  0  0  0  0  0  0  0  0  0  0
  180.6440  174.7350  139.2070 C   0  0  2  0  0  3  0  0  0  0  0  0
  180.5710  174.1150  137.8950 N   0  0  0  0  0  1  0  0  0  0  0  0
  179.2760  174.7180  139.8620 C   0  0  0  0  0  1  0  0  0  0  0  0
  188.5570  173.5920  135.9430 C   0  0  0  0  0  2  0  0  0  0  0  0
  189.6310  172.5170  135.9770 C   0  0  0  0  0  1  0  0  0  0  0  0
  190.3410  176.0990  138.1470 C   0  0  0  0  0  3  0  0  0  0  0  0
  190.5250  174.9130  138.3690 O   0  0  0  0  0  0  0  0  0  0  0  0
  1 55  1  6  0  0  0
  2  3  1  0  0  0  0
  3  4  1  0  0  0  0
  4  7  1  1  0  0  0
  5  8  1  1  0  0  0
  5  4  1  0  0  0  0
  6  1  1  6  0  0  0
  6  2  1  0  0  0  0
  6  5  1  0  0  0  0
  8  9  1  0  0  0  0
 10 11  1  6  0  0  0
 10  9  1  0  0  0  0
 10 12  1  0  0  0  0
 13 12  1  6  0  0  0
 13 14  1  0  0  0  0
 14 15  1  0  0  0  0
 16 13  1  0  0  0  0
 17 16  1  0  0  0  0
 18 19  2  0  0  0  0
 19 17  1  0  0  0  0
 20 18  1  0  0  0  0
 21 20  1  0  0  0  0
 22 26  1  1  0  0  0
 22 27  1  0  0  0  0
 24 29  1  0  0  0  0
 24 26  1  1  0  0  0
 24 22  1  0  0  0  0
 25 21  1  0  0  0  0
 27 25  1  0  0  0  0
 28 23  2  0  0  0  0
 28 25  1  0  0  0  0
 29 28  1  0  0  0  0
 31 32  1  0  0  0  0
 31 34  1  1  0  0  0
 31 33  1  0  0  0  0
 32 30  1  6  0  0  0
 32 33  1  0  0  0  0
 32  1  1  0  0  0  0
 35 53  1  6  0  0  0
 35 40  1  0  0  0  0
 36 38  2  0  0  0  0
 37 38  1  0  0  0  0
 37 39  1  0  0  0  0
 38 35  1  0  0  0  0
 39 41  1  0  0  0  0
 40 41  1  0  0  0  0
 40 34  1  1  0  0  0
 41 45  1  6  0  0  0
 42 39  2  0  0  0  0
 44 45  2  0  0  0  0
 45 43  1  0  0  0  0
 46 43  1  0  0  0  0
 46 47  1  1  0  0  0
 46 48  1  0  0  0  0
 48 50  1  0  0  0  0
 48 49  2  0  0  0  0
 50 52  1  6  0  0  0
 51 50  1  0  0  0  0
 53 54  1  0  0  0  0
 55 56  2  0  0  0  0
M  END
>  <MODEL>
8

>  <REMARK>
 VINA RESULT:      -6.0      3.202      7.133
  Name = 
  22 active torsions:
  status: ('A' for Active; 'I' for Inactive)
    1  A    between atoms: C_3  and  C_9
    2  A    between atoms: C_4  and  C_7
    3  A    between atoms: C_4  and  C_38
    4  A    between atoms: N_5  and  C_10
    5  A    between atoms: C_7  and  O_13
    6  A    between atoms: C_7  and  C_35
    7  A    between atoms: C_8  and  C_17
    8  A    between atoms: C_9  and  C_41
    9  A    between atoms: C_10  and  C_18
   10  A    between atoms: C_11  and  N_34
   11  A    between atoms: C_11  and  N_45
   12  A    between atoms: C_12  and  C_35
   13  A    between atoms: C_12  and  C_39
   14  A    between atoms: C_18  and  C_24
   15  A    between atoms: C_19  and  C_46
   16  A    between atoms: N_21  and  N_45
   17  A    between atoms: C_25  and  C_31
   18  A    between atoms: C_25  and  C_40
   19  A    between atoms: C_25  and  C_49
   20  A    between atoms: C_28  and  C_44
   21  A    between atoms: C_33  and  C_38
   22  A    between atoms: C_39  and  C_44
                            x       y       z     vdW  Elec       q    Type
                         _______ _______ _______ _____ _____    ______ ____

>  <TORSDO>
F 22

$$$$
=
 OpenBabel11062416563D

 56 60  0  0  1  0  0  0  0  0999 V2000
  189.7110  177.3630  141.6940 C   0  0  1  0  0  3  0  0  0  0  0  0
  190.2430  176.5330  139.3630 C   0  0  0  0  0  2  0  0  0  0  0  0
  190.2510  177.4530  138.1570 C   0  0  0  0  0  2  0  0  0  0  0  0
  189.5020  178.6920  138.5960 C   0  0  2  0  0  3  0  0  0  0  0  0
  188.4620  178.2150  139.6080 C   0  0  2  0  0  3  0  0  0  0  0  0
  189.1500  177.0390  140.2990 C   0  0  2  0  0  3  0  0  0  0  0  0
  188.9090  179.3780  137.4570 N   0  0  0  0  0  1  0  0  0  0  0  0
  187.1930  177.7000  138.9150 C   0  0  0  0  0  2  0  0  0  0  0  0
  187.5070  176.7400  137.7740 C   0  0  0  0  0  2  0  0  0  0  0  0
  186.3640  176.6270  136.7700 C   0  0  2  0  0  3  0  0  0  0  0  0
  186.5030  177.6090  135.6160 C   0  0  0  0  0  1  0  0  0  0  0  0
  184.9940  176.6920  137.4640 C   0  0  0  0  0  2  0  0  0  0  0  0
  184.0740  175.4690  137.3020 C   0  0  2  0  0  3  0  0  0  0  0  0
  184.7580  174.4130  136.6970 O   0  0  0  0  0  0  0  0  0  0  0  0
  184.6450  173.3540  137.5980 C   0  0  0  0  0  1  0  0  0  0  0  0
  182.7960  175.7760  136.5290 C   0  0  0  0  0  2  0  0  0  0  0  0
  181.6830  176.2180  137.4630 C   0  0  0  0  0  2  0  0  0  0  0  0
  181.1440  175.8170  139.8410 N   0  0  0  0  0  0  0  0  0  0  0  0
  181.7820  175.4820  138.7580 C   0  0  0  0  0  3  0  0  0  0  0  0
  180.2130  176.8690  139.9600 N   0  0  0  0  0  2  0  0  0  0  0  0
  180.4460  178.1060  140.6950 C   0  0  0  0  0  2  0  0  0  0  0  0
  180.8290  179.8300  137.7210 C   0  0  1  0  0  3  0  0  0  0  0  0
  179.7580  180.8170  141.5640 O   0  0  0  0  0  0  0  0  0  0  0  0
  181.0190  181.3010  138.1710 C   0  0  2  0  0  3  0  0  0  0  0  0
  180.1360  179.2550  139.8500 N   0  0  0  0  0  0  0  0  0  0  0  0
  182.1370  180.2760  138.3730 C   0  0  0  0  0  2  0  0  0  0  0  0
  179.8960  179.0890  138.5200 O   0  0  0  0  0  0  0  0  0  0  0  0
  180.0600  180.5780  140.3630 C   0  0  0  0  0  0  0  0  0  0  0  0
  180.4050  181.6240  139.4670 N   0  0  0  0  0  2  0  0  0  0  0  0
  190.2920  175.3870  143.3730 C   0  0  0  0  0  1  0  0  0  0  0  0
  188.3090  176.9170  143.8730 C   0  0  2  0  0  3  0  0  0  0  0  0
  189.2980  176.4010  142.8300 C   0  0  1  0  0  0  0  0  0  0  0  0
  187.8670  175.9100  142.8210 C   0  0  0  0  0  2  0  0  0  0  0  0
  187.7190  178.2870  143.5300 C   0  0  0  0  0  2  0  0  0  0  0  0
  185.1960  178.5870  143.5030 C   0  0  2  0  0  3  0  0  0  0  0  0
  182.8790  179.1410  143.8180 O   0  0  0  0  0  0  0  0  0  0  0  0
  183.9670  178.4570  145.7080 O   0  0  0  0  0  0  0  0  0  0  0  0
  183.9590  178.7660  144.3470 C   0  0  0  0  0  0  0  0  0  0  0  0
  185.0940  177.9540  146.3600 C   0  0  0  0  0  0  0  0  0  0  0  0
  186.4730  178.6230  144.3620 C   0  0  1  0  0  3  0  0  0  0  0  0
  186.3840  177.7340  145.6150 C   0  0  1  0  0  3  0  0  0  0  0  0
  184.9950  177.6160  147.5700 O   0  0  0  0  0  0  0  0  0  0  0  0
  188.3360  176.8290  146.9440 N   0  0  0  0  0  2  0  0  0  0  0  0
  187.8430  179.1150  146.9300 O   0  0  0  0  0  0  0  0  0  0  0  0
  187.5650  177.9550  146.5170 C   0  0  0  0  0  0  0  0  0  0  0  0
  189.4800  176.9690  147.8380 C   0  0  2  0  0  3  0  0  0  0  0  0
  189.4190  178.3140  148.5550 C   0  0  0  0  0  1  0  0  0  0  0  0
  190.7540  176.7770  147.0620 C   0  0  0  0  0  0  0  0  0  0  0  0
  190.9650  177.4960  146.0960 O   0  0  0  0  0  0  0  0  0  0  0  0
  191.7720  175.7450  147.4560 C   0  0  2  0  0  3  0  0  0  0  0  0
  192.7790  176.3350  148.3220 N   0  0  0  0  0  1  0  0  0  0  0  0
  192.4340  175.1580  146.2240 C   0  0  0  0  0  1  0  0  0  0  0  0
  185.2750  179.6650  142.4240 C   0  0  0  0  0  2  0  0  0  0  0  0
  184.9960  179.0610  141.0580 C   0  0  0  0  0  1  0  0  0  0  0  0
  191.1950  177.5520  141.6430 C   0  0  0  0  0  3  0  0  0  0  0  0
  191.8090  177.8800  142.6450 O   0  0  0  0  0  0  0  0  0  0  0  0
  1 55  1  6  0  0  0
  1 32  1  0  0  0  0
  2  6  1  0  0  0  0
  3  4  1  0  0  0  0
  3  2  1  0  0  0  0
  4  7  1  6  0  0  0
  4  5  1  0  0  0  0
  5  8  1  6  0  0  0
  5  6  1  0  0  0  0
  6  1  1  1  0  0  0
  9  8  1  0  0  0  0
 10 11  1  6  0  0  0
 10 12  1  0  0  0  0
 10  9  1  0  0  0  0
 13 16  1  6  0  0  0
 13 12  1  0  0  0  0
 14 13  1  0  0  0  0
 14 15  1  0  0  0  0
 16 17  1  0  0  0  0
 17 19  1  0  0  0  0
 18 20  1  0  0  0  0
 19 18  2  0  0  0  0
 20 21  1  0  0  0  0
 22 24  1  0  0  0  0
 22 26  1  1  0  0  0
 22 27  1  0  0  0  0
 24 26  1  1  0  0  0
 24 29  1  0  0  0  0
 25 28  1  0  0  0  0
 25 21  1  0  0  0  0
 27 25  1  0  0  0  0
 28 23  2  0  0  0  0
 29 28  1  0  0  0  0
 31 34  1  6  0  0  0
 32 30  1  1  0  0  0
 32 31  1  0  0  0  0
 33 32  1  0  0  0  0
 33 31  1  0  0  0  0
 35 53  1  6  0  0  0
 35 38  1  0  0  0  0
 35 40  1  0  0  0  0
 36 38  2  0  0  0  0
 37 39  1  0  0  0  0
 38 37  1  0  0  0  0
 39 42  2  0  0  0  0
 40 34  1  6  0  0  0
 40 41  1  0  0  0  0
 41 39  1  0  0  0  0
 41 45  1  1  0  0  0
 43 46  1  0  0  0  0
 45 44  2  0  0  0  0
 45 43  1  0  0  0  0
 46 47  1  6  0  0  0
 48 50  1  0  0  0  0
 48 46  1  0  0  0  0
 49 48  2  0  0  0  0
 50 52  1  6  0  0  0
 50 51  1  0  0  0  0
 54 53  1  0  0  0  0
 55 56  2  0  0  0  0
M  END
>  <MODEL>
9

>  <REMARK>
 VINA RESULT:      -5.9      3.485      7.661
  Name = 
  22 active torsions:
  status: ('A' for Active; 'I' for Inactive)
    1  A    between atoms: C_3  and  C_9
    2  A    between atoms: C_4  and  C_7
    3  A    between atoms: C_4  and  C_38
    4  A    between atoms: N_5  and  C_10
    5  A    between atoms: C_7  and  O_13
    6  A    between atoms: C_7  and  C_35
    7  A    between atoms: C_8  and  C_17
    8  A    between atoms: C_9  and  C_41
    9  A    between atoms: C_10  and  C_18
   10  A    between atoms: C_11  and  N_34
   11  A    between atoms: C_11  and  N_45
   12  A    between atoms: C_12  and  C_35
   13  A    between atoms: C_12  and  C_39
   14  A    between atoms: C_18  and  C_24
   15  A    between atoms: C_19  and  C_46
   16  A    between atoms: N_21  and  N_45
   17  A    between atoms: C_25  and  C_31
   18  A    between atoms: C_25  and  C_40
   19  A    between atoms: C_25  and  C_49
   20  A    between atoms: C_28  and  C_44
   21  A    between atoms: C_33  and  C_38
   22  A    between atoms: C_39  and  C_44
                            x       y       z     vdW  Elec       q    Type
                         _______ _______ _______ _____ _____    ______ ____

>  <TORSDO>
F 22

$$$$
