=
 OpenBabel11062414033D

 49 58  0  0  1  0  0  0  0  0999 V2000
  188.4000  175.9800  136.3910 C   0  0  1  0  0  3  0  0  0  0  0  0
  183.1780  177.5500  136.6920 C   0  0  1  0  0  3  0  0  0  0  0  0
  184.2280  180.8190  139.1970 O   0  0  0  0  0  0  0  0  0  0  0  0
  182.2920  177.8030  141.9170 O   0  0  0  0  0  1  0  0  0  0  0  0
  187.8000  176.8240  137.5040 C   0  0  0  0  0  2  0  0  0  0  0  0
  185.9870  173.8240  135.0130 N   0  0  2  0  0  0  0  0  0  0  0  0
  181.1090  177.1510  139.9670 C   0  0  0  0  0  2  0  0  0  0  0  0
  183.3290  173.1600  136.8460 C   0  0  0  0  0  2  0  0  0  0  0  0
  179.9790  176.7140  137.7130 N   0  0  0  0  0  0  0  0  0  0  0  0
  184.5320  172.3990  136.3320 C   0  0  0  0  0  0  0  0  0  0  0  0
  182.0910  178.0380  137.6730 C   0  0  2  0  0  3  0  0  0  0  0  0
  187.3660  174.2940  134.8900 C   0  0  0  0  0  2  0  0  0  0  0  0
  180.7530  172.8100  137.0390 C   0  0  2  0  0  3  0  0  0  0  0  0
  183.9360  175.7620  138.0500 O   0  0  0  0  0  0  0  0  0  0  0  0
  178.9310  176.4620  138.6120 N   0  0  0  0  0  1  0  0  0  0  0  0
  182.0650  171.0470  136.2950 C   0  0  0  0  0  0  0  0  0  0  0  0
  184.2420  176.6550  137.2770 C   0  0  0  0  0  0  0  0  0  0  0  0
  182.1130  172.3600  136.7850 N   0  0  0  0  0  0  0  0  0  0  0  0
  186.5450  176.3090  137.8290 O   0  0  0  0  0  0  0  0  0  0  0  0
  180.6070  173.2730  138.4550 C   0  0  0  0  0  3  0  0  0  0  0  0
  183.1550  170.4160  135.8660 C   0  0  0  0  0  3  0  0  0  0  0  0
  184.4420  171.1320  135.8930 C   0  0  0  0  0  3  0  0  0  0  0  0
  185.1380  175.0080  135.0620 C   0  0  0  0  0  2  0  0  0  0  0  0
  183.9520  179.6650  138.4560 C   0  0  2  0  0  3  0  0  0  0  0  0
  182.4620  179.3230  138.4650 C   0  0  2  0  0  3  0  0  0  0  0  0
  185.9820  176.2130  135.4380 C   0  0  2  0  0  3  0  0  0  0  0  0
  180.7550  170.5200  136.2710 N   0  0  0  0  0  0  0  0  0  0  0  0
  183.9850  179.6510  139.9460 C   0  0  2  0  0  0  0  0  0  0  0  0
  181.2460  176.9860  138.4390 C   0  0  1  0  0  0  0  0  0  0  0  0
  179.8710  171.5660  136.7870 C   0  0  0  0  0  3  0  0  0  0  0  0
  180.7430  174.5540  138.8150 C   0  0  0  0  0  3  0  0  0  0  0  0
  185.8500  173.1070  136.2770 C   0  0  0  0  0  2  0  0  0  0  0  0
  182.3740  177.7650  140.5220 C   0  0  1  0  0  3  0  0  0  0  0  0
  187.4290  175.7750  135.2190 C   0  0  1  0  0  3  0  0  0  0  0  0
  185.6770  176.8030  136.8420 C   0  0  1  0  0  3  0  0  0  0  0  0
  181.0300  175.6630  137.8220 C   0  0  1  0  0  3  0  0  0  0  0  0
  182.5260  179.1920  139.9870 C   0  0  2  0  0  3  0  0  0  0  0  0
  186.9970  178.1790  141.8170 C   0  0  0  0  0  1  0  0  0  0  0  0
  185.1630  178.8030  140.3290 C   0  0  0  0  0  3  0  0  0  0  0  0
  185.8340  179.0380  141.4510 C   0  0  0  0  0  3  0  0  0  0  0  0
  182.6380  177.0870  135.3680 C   0  0  0  0  0  0  0  0  0  0  0  0
  182.1070  177.8690  134.5950 O   0  0  0  0  0  0  0  0  0  0  0  0
  182.6950  175.6330  135.0230 C   0  0  0  0  0  1  0  0  0  0  0  0
  189.5700  176.5860  135.9280 O   0  0  0  0  0  0  0  0  0  0  0  0
  190.5520  175.5940  136.0210 C   0  0  0  0  0  2  0  0  0  0  0  0
  191.4060  175.7610  137.2680 C   0  0  2  0  0  0  0  0  0  0  0  0
  191.3050  176.9060  138.0290 F   0  0  0  0  0  0  0  0  0  0  0  0
  192.6350  174.9660  137.4200 C   0  0  0  0  0  2  0  0  0  0  0  0
  191.4290  174.6100  138.0690 O   0  0  0  0  0  0  0  0  0  0  0  0
  1 44  1  6  0  0  0
  1  5  1  0  0  0  0
  2 41  1  6  0  0  0
  2 17  1  0  0  0  0
  2 11  1  0  0  0  0
  3 28  1  0  0  0  0
  5 19  1  0  0  0  0
  6 12  1  1  0  0  0
  6 23  1  0  0  0  0
  6 32  1  0  0  0  0
  7 33  1  0  0  0  0
  9 36  1  0  0  0  0
  9 29  1  0  0  0  0
  9 15  1  0  0  0  0
 10  8  1  0  0  0  0
 11 29  1  0  0  0  0
 11 25  1  0  0  0  0
 12 34  1  0  0  0  0
 13 20  1  0  0  0  0
 16 18  1  0  0  0  0
 17 14  2  0  0  0  0
 18  8  1  0  0  0  0
 18 13  1  0  0  0  0
 20 31  2  0  0  0  0
 21 22  1  0  0  0  0
 21 16  2  0  0  0  0
 22 10  2  0  0  0  0
 23 26  1  0  0  0  0
 24 25  1  0  0  0  0
 24  3  1  0  0  0  0
 24 28  1  0  0  0  0
 25 37  1  0  0  0  0
 26 35  1  0  0  0  0
 27 16  1  0  0  0  0
 27 30  2  0  0  0  0
 28 37  1  0  0  0  0
 28 39  1  0  0  0  0
 29  7  1  0  0  0  0
 30 13  1  0  0  0  0
 32 10  1  0  0  0  0
 33  4  1  0  0  0  0
 34 26  1  0  0  0  0
 34  1  1  0  0  0  0
 35 17  1  0  0  0  0
 35 19  1  0  0  0  0
 36 29  1  0  0  0  0
 36 31  1  0  0  0  0
 37 33  1  0  0  0  0
 39 40  2  0  0  0  0
 40 38  1  0  0  0  0
 42 41  2  0  0  0  0
 43 41  1  0  0  0  0
 44 45  1  0  0  0  0
 45 46  1  0  0  0  0
 46 48  1  0  0  0  0
 46 47  1  0  0  0  0
 46 49  1  0  0  0  0
 48 49  1  0  0  0  0
M  END
>  <MODEL>
1

>  <REMARK>
 VINA RESULT:      -5.7      0.000      0.000
  Name = 
  5 active torsions:
  status: ('A' for Active; 'I' for Inactive)
    1  A    between atoms: C_1  and  C_47
    2  A    between atoms: C_2  and  O_34
    3  A    between atoms: C_3  and  C_25
    4  A    between atoms: C_11  and  C_37
    5  A    between atoms: O_34  and  C_47
                            x       y       z     vdW  Elec       q    Type
                         _______ _______ _______ _____ _____    ______ ____

>  <TORSDO>
F 5

$$$$
=
 OpenBabel11062414033D

 49 58  0  0  1  0  0  0  0  0999 V2000
  187.8280  177.9790  138.6490 C   0  0  1  0  0  3  0  0  0  0  0  0
  182.6940  177.4660  136.8560 C   0  0  1  0  0  3  0  0  0  0  0  0
  181.3140  180.1950  139.8080 O   0  0  0  0  0  0  0  0  0  0  0  0
  180.0140  176.1300  141.2360 O   0  0  0  0  0  1  0  0  0  0  0  0
  186.5790  178.2610  139.4700 C   0  0  0  0  0  2  0  0  0  0  0  0
  187.2050  175.5010  136.2320 N   0  0  2  0  0  0  0  0  0  0  0  0
  179.9850  175.5870  138.9270 C   0  0  0  0  0  2  0  0  0  0  0  0
  184.6210  173.5180  136.7310 C   0  0  0  0  0  2  0  0  0  0  0  0
  180.0150  175.3280  136.3820 N   0  0  0  0  0  0  0  0  0  0  0  0
  186.1280  173.3810  136.7120 C   0  0  0  0  0  0  0  0  0  0  0  0
  181.2360  177.2860  137.3280 C   0  0  2  0  0  3  0  0  0  0  0  0
  188.2020  176.4460  136.7320 C   0  0  0  0  0  2  0  0  0  0  0  0
  182.5480  172.2380  135.8030 C   0  0  2  0  0  3  0  0  0  0  0  0
  183.6070  175.7960  138.2690 O   0  0  0  0  0  0  0  0  0  0  0  0
  178.9310  174.5120  136.7390 N   0  0  0  0  0  1  0  0  0  0  0  0
  184.6500  171.2900  135.5450 C   0  0  0  0  0  0  0  0  0  0  0  0
  183.7560  176.8970  137.7640 C   0  0  0  0  0  0  0  0  0  0  0  0
  183.9640  172.3760  136.1070 N   0  0  0  0  0  0  0  0  0  0  0  0
  185.6340  177.2720  139.2010 O   0  0  0  0  0  0  0  0  0  0  0  0
  181.7330  172.2660  137.0580 C   0  0  0  0  0  3  0  0  0  0  0  0
  185.9770  171.2110  135.5650 C   0  0  0  0  0  3  0  0  0  0  0  0
  186.7420  172.3090  136.1810 C   0  0  0  0  0  3  0  0  0  0  0  0
  185.9790  176.2570  136.0110 C   0  0  0  0  0  2  0  0  0  0  0  0
  181.8300  179.2310  138.9360 C   0  0  2  0  0  3  0  0  0  0  0  0
  180.7250  178.3890  138.2960 C   0  0  2  0  0  3  0  0  0  0  0  0
  186.0440  177.5560  136.7940 C   0  0  2  0  0  3  0  0  0  0  0  0
  183.7860  170.3540  134.9360 N   0  0  0  0  0  0  0  0  0  0  0  0
  181.3400  178.8740  140.2980 C   0  0  2  0  0  0  0  0  0  0  0  0
  180.7050  175.8510  137.5890 C   0  0  1  0  0  0  0  0  0  0  0  0
  182.4240  170.8600  135.1130 C   0  0  0  0  0  3  0  0  0  0  0  0
  181.1800  173.3850  137.5370 C   0  0  0  0  0  3  0  0  0  0  0  0
  186.9490  174.5030  137.2650 C   0  0  0  0  0  2  0  0  0  0  0  0
  180.5880  176.4590  140.0040 C   0  0  1  0  0  3  0  0  0  0  0  0
  187.5140  177.7290  137.1680 C   0  0  1  0  0  3  0  0  0  0  0  0
  185.0460  177.6460  137.9810 C   0  0  1  0  0  3  0  0  0  0  0  0
  181.3000  174.7270  136.8410 C   0  0  1  0  0  3  0  0  0  0  0  0
  180.3000  177.9290  139.6910 C   0  0  2  0  0  3  0  0  0  0  0  0
  183.9480  178.3990  143.0750 C   0  0  0  0  0  1  0  0  0  0  0  0
  182.5490  178.4350  141.0730 C   0  0  0  0  0  3  0  0  0  0  0  0
  182.7450  178.8510  142.3200 C   0  0  0  0  0  3  0  0  0  0  0  0
  182.9030  177.1730  135.3970 C   0  0  0  0  0  0  0  0  0  0  0  0
  183.0900  178.0720  134.5930 O   0  0  0  0  0  0  0  0  0  0  0  0
  182.8160  175.7590  134.9170 C   0  0  0  0  0  1  0  0  0  0  0  0
  188.7120  179.0540  138.7650 O   0  0  0  0  0  0  0  0  0  0  0  0
  189.4250  178.8110  139.9440 C   0  0  0  0  0  2  0  0  0  0  0  0
  190.3250  177.5920  139.8170 C   0  0  2  0  0  0  0  0  0  0  0  0
  190.7690  177.1830  138.5770 F   0  0  0  0  0  0  0  0  0  0  0  0
  190.3540  176.5930  140.8980 C   0  0  0  0  0  2  0  0  0  0  0  0
  191.3590  177.5790  140.7640 O   0  0  0  0  0  0  0  0  0  0  0  0
  1 44  1  6  0  0  0
  1  5  1  0  0  0  0
  2 41  1  6  0  0  0
  2 11  1  0  0  0  0
  2 17  1  0  0  0  0
  3 28  1  0  0  0  0
  6 23  1  1  0  0  0
  6 12  1  0  0  0  0
  6 32  1  0  0  0  0
  7 33  1  0  0  0  0
  9 15  1  0  0  0  0
  9 36  1  0  0  0  0
  9 29  1  0  0  0  0
 10  8  1  0  0  0  0
 10 32  1  0  0  0  0
 11 29  1  0  0  0  0
 11 25  1  0  0  0  0
 12 34  1  0  0  0  0
 13 18  1  0  0  0  0
 13 20  1  0  0  0  0
 16 21  2  0  0  0  0
 16 18  1  0  0  0  0
 17 35  1  0  0  0  0
 17 14  2  0  0  0  0
 18  8  1  0  0  0  0
 19  5  1  0  0  0  0
 20 31  2  0  0  0  0
 21 22  1  0  0  0  0
 22 10  2  0  0  0  0
 23 26  1  0  0  0  0
 24  3  1  0  0  0  0
 24 28  1  0  0  0  0
 25 24  1  0  0  0  0
 25 37  1  0  0  0  0
 26 34  1  0  0  0  0
 26 35  1  0  0  0  0
 27 30  2  0  0  0  0
 27 16  1  0  0  0  0
 28 39  1  0  0  0  0
 29  7  1  0  0  0  0
 30 13  1  0  0  0  0
 33  4  1  0  0  0  0
 34  1  1  0  0  0  0
 35 19  1  0  0  0  0
 36 31  1  0  0  0  0
 36 29  1  0  0  0  0
 37 33  1  0  0  0  0
 37 28  1  0  0  0  0
 39 40  2  0  0  0  0
 40 38  1  0  0  0  0
 42 41  2  0  0  0  0
 43 41  1  0  0  0  0
 44 45  1  0  0  0  0
 46 45  1  0  0  0  0
 46 49  1  0  0  0  0
 46 48  1  0  0  0  0
 47 46  1  0  0  0  0
 49 48  1  0  0  0  0
M  END
>  <MODEL>
2

>  <REMARK>
 VINA RESULT:      -4.2      1.922      2.513
  Name = 
  5 active torsions:
  status: ('A' for Active; 'I' for Inactive)
    1  A    between atoms: C_1  and  C_47
    2  A    between atoms: C_2  and  O_34
    3  A    between atoms: C_3  and  C_25
    4  A    between atoms: C_11  and  C_37
    5  A    between atoms: O_34  and  C_47
                            x       y       z     vdW  Elec       q    Type
                         _______ _______ _______ _____ _____    ______ ____

>  <TORSDO>
F 5

$$$$
=
 OpenBabel11062414033D

 49 58  0  0  1  0  0  0  0  0999 V2000
  181.7670  178.9330  140.2300 C   0  0  1  0  0  3  0  0  0  0  0  0
  182.9000  175.6470  136.0170 C   0  0  1  0  0  3  0  0  0  0  0  0
  179.2680  173.5200  136.6050 O   0  0  0  0  0  0  0  0  0  0  0  0
  182.5080  170.7960  138.1300 O   0  0  0  0  0  1  0  0  0  0  0  0
  181.1980  177.5380  140.0270 C   0  0  0  0  0  2  0  0  0  0  0  0
  184.9640  179.2040  138.7900 N   0  0  2  0  0  0  0  0  0  0  0  0
  183.8710  171.9130  136.5410 C   0  0  0  0  0  2  0  0  0  0  0  0
  186.6160  176.4050  138.2380 C   0  0  0  0  0  2  0  0  0  0  0  0
  185.0570  173.2700  134.7250 N   0  0  0  0  0  0  0  0  0  0  0  0
  186.7520  177.6050  139.1510 C   0  0  0  0  0  0  0  0  0  0  0  0
  182.8900  174.1710  135.5670 C   0  0  2  0  0  3  0  0  0  0  0  0
  183.9030  179.9440  139.4690 C   0  0  0  0  0  2  0  0  0  0  0  0
  188.1450  174.9540  136.7050 C   0  0  2  0  0  3  0  0  0  0  0  0
  183.9280  175.2470  138.1150 O   0  0  0  0  0  0  0  0  0  0  0  0
  185.6800  172.0180  134.5990 N   0  0  0  0  0  1  0  0  0  0  0  0
  189.1250  176.5860  138.0310 C   0  0  0  0  0  0  0  0  0  0  0  0
  183.0930  175.8850  137.4940 C   0  0  0  0  0  0  0  0  0  0  0  0
  187.9060  175.9630  137.7250 N   0  0  0  0  0  0  0  0  0  0  0  0
  182.2150  176.7030  139.5650 O   0  0  0  0  0  0  0  0  0  0  0  0
  187.6510  173.6160  137.1600 C   0  0  0  0  0  3  0  0  0  0  0  0
  189.1930  177.6310  138.8510 C   0  0  0  0  0  3  0  0  0  0  0  0
  187.9460  178.1550  139.4350 C   0  0  0  0  0  3  0  0  0  0  0  0
  184.3420  178.4990  137.6760 C   0  0  0  0  0  2  0  0  0  0  0  0
  180.4880  174.2020  136.5420 C   0  0  2  0  0  3  0  0  0  0  0  0
  181.5050  173.4720  135.6630 C   0  0  2  0  0  3  0  0  0  0  0  0
  182.8460  178.4100  137.9130 C   0  0  2  0  0  3  0  0  0  0  0  0
  190.2190  176.0130  137.3470 N   0  0  0  0  0  0  0  0  0  0  0  0
  180.3120  172.9840  137.3840 C   0  0  2  0  0  0  0  0  0  0  0  0
  184.1240  173.2840  135.8800 C   0  0  1  0  0  0  0  0  0  0  0  0
  189.6810  174.9280  136.5260 C   0  0  0  0  0  3  0  0  0  0  0  0
  186.4330  173.1540  136.8590 C   0  0  0  0  0  3  0  0  0  0  0  0
  185.5070  178.2140  139.7140 C   0  0  0  0  0  2  0  0  0  0  0  0
  182.6620  172.0040  137.4440 C   0  0  1  0  0  3  0  0  0  0  0  0
  182.5490  179.4330  139.0070 C   0  0  1  0  0  3  0  0  0  0  0  0
  182.3200  176.9750  138.1920 C   0  0  1  0  0  3  0  0  0  0  0  0
  185.4470  173.9260  136.0050 C   0  0  1  0  0  3  0  0  0  0  0  0
  181.4130  172.2660  136.5990 C   0  0  2  0  0  3  0  0  0  0  0  0
  179.5410  174.4410  140.8510 C   0  0  0  0  0  1  0  0  0  0  0  0
  180.4340  173.4420  138.8080 C   0  0  0  0  0  3  0  0  0  0  0  0
  179.4020  173.9990  139.4340 C   0  0  0  0  0  3  0  0  0  0  0  0
  183.7150  176.5480  135.1320 C   0  0  0  0  0  0  0  0  0  0  0  0
  184.8850  176.3020  134.8890 O   0  0  0  0  0  0  0  0  0  0  0  0
  183.0960  177.7990  134.5940 C   0  0  0  0  0  1  0  0  0  0  0  0
  180.7280  179.8210  140.5150 O   0  0  0  0  0  0  0  0  0  0  0  0
  179.8180  179.0810  141.2770 C   0  0  0  0  0  2  0  0  0  0  0  0
  179.8860  179.4500  142.7520 C   0  0  2  0  0  0  0  0  0  0  0  0
  179.6840  180.7550  143.1500 F   0  0  0  0  0  0  0  0  0  0  0  0
  180.6020  178.5700  143.6890 C   0  0  0  0  0  2  0  0  0  0  0  0
  179.1930  178.5480  143.5710 O   0  0  0  0  0  0  0  0  0  0  0  0
  1 44  1  6  0  0  0
  2 41  1  6  0  0  0
  2 17  1  0  0  0  0
  3 28  1  0  0  0  0
  5  1  1  0  0  0  0
  6 23  1  6  0  0  0
  6 12  1  0  0  0  0
  6 32  1  0  0  0  0
  7 33  1  0  0  0  0
  8 10  1  0  0  0  0
  9 29  1  0  0  0  0
  9 36  1  0  0  0  0
 10 22  2  0  0  0  0
 10 32  1  0  0  0  0
 11 25  1  0  0  0  0
 11 29  1  0  0  0  0
 11  2  1  0  0  0  0
 13 20  1  0  0  0  0
 13 18  1  0  0  0  0
 15  9  1  0  0  0  0
 16 21  2  0  0  0  0
 17 14  2  0  0  0  0
 17 35  1  0  0  0  0
 18 16  1  0  0  0  0
 18  8  1  0  0  0  0
 19  5  1  0  0  0  0
 21 22  1  0  0  0  0
 23 26  1  0  0  0  0
 24  3  1  0  0  0  0
 24 28  1  0  0  0  0
 25 24  1  0  0  0  0
 25 37  1  0  0  0  0
 26 35  1  0  0  0  0
 26 34  1  0  0  0  0
 27 16  1  0  0  0  0
 28 39  1  0  0  0  0
 29 36  1  0  0  0  0
 29  7  1  0  0  0  0
 30 13  1  0  0  0  0
 30 27  2  0  0  0  0
 31 20  2  0  0  0  0
 33  4  1  0  0  0  0
 34 12  1  0  0  0  0
 34  1  1  0  0  0  0
 35 19  1  0  0  0  0
 36 31  1  0  0  0  0
 37 28  1  0  0  0  0
 37 33  1  0  0  0  0
 39 40  2  0  0  0  0
 40 38  1  0  0  0  0
 42 41  2  0  0  0  0
 43 41  1  0  0  0  0
 44 45  1  0  0  0  0
 45 46  1  0  0  0  0
 46 47  1  0  0  0  0
 46 49  1  0  0  0  0
 46 48  1  0  0  0  0
 49 48  1  0  0  0  0
M  END
>  <MODEL>
3

>  <REMARK>
 VINA RESULT:      -4.1      3.173      7.846
  Name = 
  5 active torsions:
  status: ('A' for Active; 'I' for Inactive)
    1  A    between atoms: C_1  and  C_47
    2  A    between atoms: C_2  and  O_34
    3  A    between atoms: C_3  and  C_25
    4  A    between atoms: C_11  and  C_37
    5  A    between atoms: O_34  and  C_47
                            x       y       z     vdW  Elec       q    Type
                         _______ _______ _______ _____ _____    ______ ____

>  <TORSDO>
F 5

$$$$
=
 OpenBabel11062414033D

 49 58  0  0  1  0  0  0  0  0999 V2000
  183.4570  178.2230  141.2650 C   0  0  1  0  0  3  0  0  0  0  0  0
  186.4370  177.9930  136.6930 C   0  0  1  0  0  3  0  0  0  0  0  0
  183.2360  176.1230  134.6150 O   0  0  0  0  0  0  0  0  0  0  0  0
  186.2350  172.8560  135.3790 O   0  0  0  0  0  1  0  0  0  0  0  0
  183.2350  177.2470  140.1210 C   0  0  0  0  0  2  0  0  0  0  0  0
  186.8490  179.1200  141.5060 N   0  0  2  0  0  0  0  0  0  0  0  0
  187.8200  174.6210  135.3240 C   0  0  0  0  0  2  0  0  0  0  0  0
  189.0500  177.1000  140.1130 C   0  0  0  0  0  2  0  0  0  0  0  0
  189.2730  176.7210  135.1720 N   0  0  0  0  0  0  0  0  0  0  0  0
  188.6750  177.5230  141.5170 C   0  0  0  0  0  0  0  0  0  0  0  0
  186.8280  177.0680  135.5220 C   0  0  2  0  0  3  0  0  0  0  0  0
  185.5150  179.3740  142.0440 C   0  0  0  0  0  2  0  0  0  0  0  0
  191.2190  176.7510  138.7080 C   0  0  2  0  0  3  0  0  0  0  0  0
  186.7880  176.3800  138.3950 O   0  0  0  0  0  0  0  0  0  0  0  0
  190.1100  175.7530  134.5970 N   0  0  0  0  0  1  0  0  0  0  0  0
  191.4200  177.2350  140.9680 C   0  0  0  0  0  0  0  0  0  0  0  0
  186.1000  177.3050  137.9940 C   0  0  0  0  0  0  0  0  0  0  0  0
  190.4930  176.9780  139.9490 N   0  0  0  0  0  0  0  0  0  0  0  0
  184.4750  176.7920  139.6740 O   0  0  0  0  0  0  0  0  0  0  0  0
  190.8450  175.4300  138.1110 C   0  0  0  0  0  3  0  0  0  0  0  0
  191.0390  177.5920  142.1920 C   0  0  0  0  0  3  0  0  0  0  0  0
  189.6000  177.7370  142.4700 C   0  0  0  0  0  3  0  0  0  0  0  0
  186.7510  179.2400  140.0560 C   0  0  0  0  0  2  0  0  0  0  0  0
  184.2730  176.6450  135.3940 C   0  0  2  0  0  3  0  0  0  0  0  0
  185.6290  176.5200  134.6980 C   0  0  2  0  0  3  0  0  0  0  0  0
  185.2970  179.1080  139.6410 C   0  0  2  0  0  3  0  0  0  0  0  0
  192.7590  177.1180  140.5320 N   0  0  0  0  0  0  0  0  0  0  0  0
  184.0500  175.1760  135.2670 C   0  0  2  0  0  0  0  0  0  0  0  0
  188.0300  176.1020  135.6990 C   0  0  1  0  0  0  0  0  0  0  0  0
  192.7100  176.7540  139.1160 C   0  0  0  0  0  3  0  0  0  0  0  0
  189.8880  175.2990  137.1870 C   0  0  0  0  0  3  0  0  0  0  0  0
  187.2290  177.7490  141.8280 C   0  0  0  0  0  2  0  0  0  0  0  0
  186.3890  174.2270  135.6080 C   0  0  1  0  0  3  0  0  0  0  0  0
  184.4920  179.3050  140.9230 C   0  0  1  0  0  3  0  0  0  0  0  0
  184.9670  177.8140  138.8470 C   0  0  1  0  0  3  0  0  0  0  0  0
  189.1100  176.4760  136.6330 C   0  0  1  0  0  3  0  0  0  0  0  0
  185.4520  175.0010  134.6770 C   0  0  2  0  0  3  0  0  0  0  0  0
  181.9430  174.2250  138.3320 C   0  0  0  0  0  1  0  0  0  0  0  0
  183.6260  174.7010  136.6260 C   0  0  0  0  0  3  0  0  0  0  0  0
  182.3460  174.7070  136.9800 C   0  0  0  0  0  3  0  0  0  0  0  0
  187.3240  179.1970  136.8400 C   0  0  0  0  0  0  0  0  0  0  0  0
  186.9540  180.3010  136.4740 O   0  0  0  0  0  0  0  0  0  0  0  0
  188.7060  179.0240  137.3850 C   0  0  0  0  0  1  0  0  0  0  0  0
  182.2440  178.8270  141.6030 O   0  0  0  0  0  0  0  0  0  0  0  0
  181.6680  179.1900  140.3810 C   0  0  0  0  0  2  0  0  0  0  0  0
  180.2170  179.6140  140.5450 C   0  0  2  0  0  0  0  0  0  0  0  0
  179.2300  178.6620  140.6960 F   0  0  0  0  0  0  0  0  0  0  0  0
  179.7920  180.9480  140.0930 C   0  0  0  0  0  2  0  0  0  0  0  0
  180.0570  180.6700  141.4540 O   0  0  0  0  0  0  0  0  0  0  0  0
  1 44  1  6  0  0  0
  2 41  1  1  0  0  0
  2 17  1  0  0  0  0
  3 28  1  0  0  0  0
  3 24  1  0  0  0  0
  4 33  1  0  0  0  0
  5  1  1  0  0  0  0
  6 23  1  6  0  0  0
  6 32  1  0  0  0  0
  6 12  1  0  0  0  0
  7 33  1  0  0  0  0
  7 29  1  0  0  0  0
  8 10  1  0  0  0  0
  9 29  1  0  0  0  0
  9 36  1  0  0  0  0
 10 32  1  0  0  0  0
 10 22  2  0  0  0  0
 11 29  1  0  0  0  0
 11  2  1  0  0  0  0
 13 30  1  0  0  0  0
 13 18  1  0  0  0  0
 15  9  1  0  0  0  0
 16 21  2  0  0  0  0
 17 14  2  0  0  0  0
 17 35  1  0  0  0  0
 18  8  1  0  0  0  0
 18 16  1  0  0  0  0
 19  5  1  0  0  0  0
 20 13  1  0  0  0  0
 21 22  1  0  0  0  0
 25 24  1  0  0  0  0
 25 11  1  0  0  0  0
 26 23  1  0  0  0  0
 26 34  1  0  0  0  0
 27 16  1  0  0  0  0
 28 24  1  0  0  0  0
 28 39  1  0  0  0  0
 29 36  1  0  0  0  0
 30 27  2  0  0  0  0
 31 20  2  0  0  0  0
 34  1  1  0  0  0  0
 34 12  1  0  0  0  0
 35 26  1  0  0  0  0
 35 19  1  0  0  0  0
 36 31  1  0  0  0  0
 37 25  1  0  0  0  0
 37 28  1  0  0  0  0
 37 33  1  0  0  0  0
 39 40  2  0  0  0  0
 40 38  1  0  0  0  0
 41 43  1  0  0  0  0
 42 41  2  0  0  0  0
 45 46  1  0  0  0  0
 45 44  1  0  0  0  0
 46 47  1  0  0  0  0
 46 49  1  0  0  0  0
 48 46  1  0  0  0  0
 48 49  1  0  0  0  0
M  END
>  <MODEL>
4

>  <REMARK>
 VINA RESULT:      -4.0      3.807      8.750
  Name = 
  5 active torsions:
  status: ('A' for Active; 'I' for Inactive)
    1  A    between atoms: C_1  and  C_47
    2  A    between atoms: C_2  and  O_34
    3  A    between atoms: C_3  and  C_25
    4  A    between atoms: C_11  and  C_37
    5  A    between atoms: O_34  and  C_47
                            x       y       z     vdW  Elec       q    Type
                         _______ _______ _______ _____ _____    ______ ____

>  <TORSDO>
F 5

$$$$
=
 OpenBabel11062414033D

 49 58  0  0  1  0  0  0  0  0999 V2000
  189.6010  177.4570  139.5400 C   0  0  1  0  0  3  0  0  0  0  0  0
  184.9390  177.8790  136.7270 C   0  0  1  0  0  3  0  0  0  0  0  0
  183.4500  180.7510  139.4840 O   0  0  0  0  0  0  0  0  0  0  0  0
  181.2240  176.9490  140.3990 O   0  0  0  0  0  1  0  0  0  0  0  0
  188.2740  177.9370  140.1070 C   0  0  0  0  0  2  0  0  0  0  0  0
  189.0900  175.1710  136.9170 N   0  0  2  0  0  0  0  0  0  0  0  0
  181.5850  176.4620  138.1050 C   0  0  0  0  0  2  0  0  0  0  0  0
  186.1650  173.6580  136.7780 C   0  0  0  0  0  2  0  0  0  0  0  0
  182.0990  176.2490  135.6080 N   0  0  0  0  0  0  0  0  0  0  0  0
  187.5990  173.2620  137.0550 C   0  0  0  0  0  0  0  0  0  0  0  0
  183.4060  177.9470  136.8850 C   0  0  2  0  0  3  0  0  0  0  0  0
  190.1040  175.9180  137.6580 C   0  0  0  0  0  2  0  0  0  0  0  0
  184.1460  172.7770  135.3840 C   0  0  2  0  0  3  0  0  0  0  0  0
  185.2470  176.0490  138.2020 O   0  0  0  0  0  0  0  0  0  0  0  0
  180.8430  175.6280  135.6950 N   0  0  0  0  0  1  0  0  0  0  0  0
  186.0680  171.4820  135.5030 C   0  0  0  0  0  0  0  0  0  0  0  0
  185.6800  177.1160  137.7970 C   0  0  0  0  0  0  0  0  0  0  0  0
  185.4710  172.6610  135.9740 N   0  0  0  0  0  0  0  0  0  0  0  0
  187.2540  177.1320  139.6000 O   0  0  0  0  0  0  0  0  0  0  0  0
  183.1040  172.9230  136.4500 C   0  0  0  0  0  3  0  0  0  0  0  0
  187.3300  171.1730  135.7860 C   0  0  0  0  0  3  0  0  0  0  0  0
  188.1220  172.1100  136.6020 C   0  0  0  0  0  3  0  0  0  0  0  0
  188.0790  176.1330  136.4950 C   0  0  0  0  0  2  0  0  0  0  0  0
  183.9680  179.7280  138.6820 C   0  0  2  0  0  3  0  0  0  0  0  0
  182.8960  179.1040  137.7880 C   0  0  2  0  0  3  0  0  0  0  0  0
  188.1960  177.3860  137.3440 C   0  0  2  0  0  3  0  0  0  0  0  0
  185.2050  170.7220  134.6840 N   0  0  0  0  0  0  0  0  0  0  0  0
  183.1540  179.4370  139.8970 C   0  0  2  0  0  0  0  0  0  0  0  0
  182.6000  176.6220  136.9560 C   0  0  1  0  0  0  0  0  0  0  0  0
  183.9410  171.4540  134.6100 C   0  0  0  0  0  3  0  0  0  0  0  0
  182.6590  174.1120  136.8670 C   0  0  0  0  0  3  0  0  0  0  0  0
  188.4630  174.2130  137.8220 C   0  0  0  0  0  2  0  0  0  0  0  0
  182.0870  177.1950  139.3270 C   0  0  1  0  0  3  0  0  0  0  0  0
  189.5640  177.2930  138.0150 C   0  0  1  0  0  3  0  0  0  0  0  0
  187.0030  177.6250  138.3100 C   0  0  1  0  0  3  0  0  0  0  0  0
  183.1420  175.4250  136.2830 C   0  0  1  0  0  3  0  0  0  0  0  0
  182.1200  178.6990  139.0420 C   0  0  2  0  0  3  0  0  0  0  0  0
  185.2080  178.6310  143.0380 C   0  0  0  0  0  1  0  0  0  0  0  0
  184.0850  178.7800  140.8740 C   0  0  0  0  0  3  0  0  0  0  0  0
  184.2840  179.3020  142.0790 C   0  0  0  0  0  3  0  0  0  0  0  0
  185.3940  177.5810  135.3260 C   0  0  0  0  0  0  0  0  0  0  0  0
  185.1090  176.5270  134.7810 O   0  0  0  0  0  0  0  0  0  0  0  0
  186.2650  178.5670  134.6150 C   0  0  0  0  0  1  0  0  0  0  0  0
  190.6080  178.3590  139.8890 O   0  0  0  0  0  0  0  0  0  0  0  0
  191.5660  177.5900  140.5600 C   0  0  0  0  0  2  0  0  0  0  0  0
  191.0500  177.0920  141.9020 C   0  0  2  0  0  0  0  0  0  0  0  0
  190.1630  176.0370  141.9550 F   0  0  0  0  0  0  0  0  0  0  0  0
  191.1050  177.9770  143.0760 C   0  0  0  0  0  2  0  0  0  0  0  0
  192.0650  176.9610  142.8600 O   0  0  0  0  0  0  0  0  0  0  0  0
  1 44  1  6  0  0  0
  1  5  1  0  0  0  0
  2 41  1  6  0  0  0
  2 11  1  0  0  0  0
  2 17  1  0  0  0  0
  3 28  1  0  0  0  0
  6 23  1  1  0  0  0
  6 12  1  0  0  0  0
  6 32  1  0  0  0  0
  7 33  1  0  0  0  0
  8 10  1  0  0  0  0
  9 15  1  0  0  0  0
  9 36  1  0  0  0  0
  9 29  1  0  0  0  0
 10 32  1  0  0  0  0
 11 29  1  0  0  0  0
 11 25  1  0  0  0  0
 12 34  1  0  0  0  0
 13 18  1  0  0  0  0
 13 20  1  0  0  0  0
 16 21  2  0  0  0  0
 16 18  1  0  0  0  0
 17 14  2  0  0  0  0
 17 35  1  0  0  0  0
 18  8  1  0  0  0  0
 19  5  1  0  0  0  0
 20 31  2  0  0  0  0
 21 22  1  0  0  0  0
 22 10  2  0  0  0  0
 23 26  1  0  0  0  0
 24  3  1  0  0  0  0
 24 28  1  0  0  0  0
 25 24  1  0  0  0  0
 25 37  1  0  0  0  0
 26 34  1  0  0  0  0
 26 35  1  0  0  0  0
 27 16  1  0  0  0  0
 28 39  1  0  0  0  0
 29  7  1  0  0  0  0
 30 27  2  0  0  0  0
 30 13  1  0  0  0  0
 33  4  1  0  0  0  0
 34  1  1  0  0  0  0
 35 19  1  0  0  0  0
 36 31  1  0  0  0  0
 36 29  1  0  0  0  0
 37 33  1  0  0  0  0
 37 28  1  0  0  0  0
 39 40  2  0  0  0  0
 40 38  1  0  0  0  0
 42 41  2  0  0  0  0
 43 41  1  0  0  0  0
 44 45  1  0  0  0  0
 45 46  1  0  0  0  0
 46 47  1  0  0  0  0
 46 49  1  0  0  0  0
 46 48  1  0  0  0  0
 49 48  1  0  0  0  0
M  END
>  <MODEL>
5

>  <REMARK>
 VINA RESULT:      -3.7      2.284      3.295
  Name = 
  5 active torsions:
  status: ('A' for Active; 'I' for Inactive)
    1  A    between atoms: C_1  and  C_47
    2  A    between atoms: C_2  and  O_34
    3  A    between atoms: C_3  and  C_25
    4  A    between atoms: C_11  and  C_37
    5  A    between atoms: O_34  and  C_47
                            x       y       z     vdW  Elec       q    Type
                         _______ _______ _______ _____ _____    ______ ____

>  <TORSDO>
F 5

$$$$
=
 OpenBabel11062414033D

 49 58  0  0  1  0  0  0  0  0999 V2000
  190.1940  176.6470  138.1990 C   0  0  1  0  0  3  0  0  0  0  0  0
  184.9430  177.3580  136.8750 C   0  0  1  0  0  3  0  0  0  0  0  0
  184.4730  180.2230  139.9790 O   0  0  0  0  0  0  0  0  0  0  0  0
  182.4160  176.5060  141.4620 O   0  0  0  0  0  1  0  0  0  0  0  0
  189.1170  177.1730  139.1340 C   0  0  0  0  0  2  0  0  0  0  0  0
  188.8230  174.4560  135.8130 N   0  0  2  0  0  0  0  0  0  0  0  0
  182.0670  176.0630  139.1570 C   0  0  0  0  0  2  0  0  0  0  0  0
  185.9090  173.0850  136.5180 C   0  0  0  0  0  2  0  0  0  0  0  0
  181.8200  175.8910  136.6170 N   0  0  0  0  0  0  0  0  0  0  0  0
  187.3390  172.6160  136.3590 C   0  0  0  0  0  0  0  0  0  0  0  0
  183.5280  177.4930  137.4750 C   0  0  2  0  0  3  0  0  0  0  0  0
  190.0460  175.1360  136.2340 C   0  0  0  0  0  2  0  0  0  0  0  0
  183.5290  172.3350  135.7650 C   0  0  2  0  0  3  0  0  0  0  0  0
  185.5720  175.4780  138.1750 O   0  0  0  0  0  0  0  0  0  0  0  0
  180.6130  175.3270  137.0600 N   0  0  0  0  0  1  0  0  0  0  0  0
  185.3320  170.9500  135.3030 C   0  0  0  0  0  0  0  0  0  0  0  0
  185.9230  176.5340  137.6740 C   0  0  0  0  0  0  0  0  0  0  0  0
  184.9600  172.1420  135.9410 N   0  0  0  0  0  0  0  0  0  0  0  0
  187.9530  176.4300  138.9380 O   0  0  0  0  0  0  0  0  0  0  0  0
  182.8520  172.5010  137.0900 C   0  0  0  0  0  3  0  0  0  0  0  0
  186.6040  170.5750  135.2000 C   0  0  0  0  0  3  0  0  0  0  0  0
  187.6470  171.4520  135.7600 C   0  0  0  0  0  3  0  0  0  0  0  0
  187.7840  175.4750  135.7160 C   0  0  0  0  0  2  0  0  0  0  0  0
  184.6810  179.1990  139.0500 C   0  0  2  0  0  3  0  0  0  0  0  0
  183.3640  178.6480  138.5010 C   0  0  2  0  0  3  0  0  0  0  0  0
  188.2080  176.6980  136.5080 C   0  0  2  0  0  3  0  0  0  0  0  0
  184.2300  170.2520  134.7620 N   0  0  0  0  0  0  0  0  0  0  0  0
  184.2420  178.9140  140.4460 C   0  0  2  0  0  0  0  0  0  0  0  0
  182.7100  176.2050  137.7630 C   0  0  1  0  0  0  0  0  0  0  0  0
  183.0390  171.0440  135.0690 C   0  0  0  0  0  3  0  0  0  0  0  0
  182.6100  173.6990  137.6330 C   0  0  0  0  0  3  0  0  0  0  0  0
  188.4370  173.5060  136.8510 C   0  0  0  0  0  2  0  0  0  0  0  0
  182.9410  176.7400  140.1880 C   0  0  1  0  0  3  0  0  0  0  0  0
  189.7060  176.5240  136.7490 C   0  0  1  0  0  3  0  0  0  0  0  0
  187.3620  176.9680  137.7830 C   0  0  1  0  0  3  0  0  0  0  0  0
  182.9700  175.0020  136.9480 C   0  0  1  0  0  3  0  0  0  0  0  0
  182.9680  178.2470  139.9230 C   0  0  2  0  0  3  0  0  0  0  0  0
  186.7030  177.5290  143.0470 C   0  0  0  0  0  1  0  0  0  0  0  0
  185.3820  178.1890  141.1010 C   0  0  0  0  0  3  0  0  0  0  0  0
  185.5690  178.2620  142.4140 C   0  0  0  0  0  3  0  0  0  0  0  0
  184.9540  177.0760  135.3990 C   0  0  0  0  0  0  0  0  0  0  0  0
  184.4070  177.8280  134.6090 O   0  0  0  0  0  0  0  0  0  0  0  0
  185.5920  175.8180  134.9010 C   0  0  0  0  0  1  0  0  0  0  0  0
  191.3050  177.4920  138.2480 O   0  0  0  0  0  0  0  0  0  0  0  0
  192.3250  176.7150  138.8070 C   0  0  0  0  0  2  0  0  0  0  0  0
  193.2790  176.1890  137.7440 C   0  0  2  0  0  0  0  0  0  0  0  0
  193.6140  176.9760  136.6630 F   0  0  0  0  0  0  0  0  0  0  0  0
  193.4790  174.7380  137.6000 C   0  0  0  0  0  2  0  0  0  0  0  0
  194.4050  175.5560  138.2890 O   0  0  0  0  0  0  0  0  0  0  0  0
  1 44  1  6  0  0  0
  1  5  1  0  0  0  0
  2 41  1  6  0  0  0
  2 11  1  0  0  0  0
  2 17  1  0  0  0  0
  3 28  1  0  0  0  0
  6 23  1  1  0  0  0
  6 12  1  0  0  0  0
  6 32  1  0  0  0  0
  7 33  1  0  0  0  0
  9 36  1  0  0  0  0
  9 15  1  0  0  0  0
  9 29  1  0  0  0  0
 10  8  1  0  0  0  0
 10 32  1  0  0  0  0
 11 29  1  0  0  0  0
 11 25  1  0  0  0  0
 12 34  1  0  0  0  0
 13 18  1  0  0  0  0
 13 20  1  0  0  0  0
 16 18  1  0  0  0  0
 17 35  1  0  0  0  0
 17 14  2  0  0  0  0
 18  8  1  0  0  0  0
 19  5  1  0  0  0  0
 20 31  2  0  0  0  0
 21 16  2  0  0  0  0
 21 22  1  0  0  0  0
 22 10  2  0  0  0  0
 23 26  1  0  0  0  0
 24  3  1  0  0  0  0
 24 28  1  0  0  0  0
 25 24  1  0  0  0  0
 25 37  1  0  0  0  0
 26 34  1  0  0  0  0
 26 35  1  0  0  0  0
 27 30  2  0  0  0  0
 27 16  1  0  0  0  0
 28 39  1  0  0  0  0
 29  7  1  0  0  0  0
 30 13  1  0  0  0  0
 33  4  1  0  0  0  0
 34  1  1  0  0  0  0
 35 19  1  0  0  0  0
 36 31  1  0  0  0  0
 36 29  1  0  0  0  0
 37 33  1  0  0  0  0
 37 28  1  0  0  0  0
 39 40  2  0  0  0  0
 40 38  1  0  0  0  0
 42 41  2  0  0  0  0
 43 41  1  0  0  0  0
 44 45  1  0  0  0  0
 46 49  1  0  0  0  0
 46 45  1  0  0  0  0
 47 46  1  0  0  0  0
 48 46  1  0  0  0  0
 48 49  1  0  0  0  0
M  END
>  <MODEL>
6

>  <REMARK>
 VINA RESULT:      -3.4      1.727      2.409
  Name = 
  5 active torsions:
  status: ('A' for Active; 'I' for Inactive)
    1  A    between atoms: C_1  and  C_47
    2  A    between atoms: C_2  and  O_34
    3  A    between atoms: C_3  and  C_25
    4  A    between atoms: C_11  and  C_37
    5  A    between atoms: O_34  and  C_47
                            x       y       z     vdW  Elec       q    Type
                         _______ _______ _______ _____ _____    ______ ____

>  <TORSDO>
F 5

$$$$
