=
 OpenBabel11062412273D

 37 41  0  0  1  0  0  0  0  0999 V2000
  183.3830  178.6200  142.2740 N   0  0  0  0  0  0  0  0  0  0  0  0
  185.7540  178.7650  142.1750 C   0  0  0  0  0  3  0  0  0  0  0  0
  184.4490  178.8660  140.1450 C   0  0  0  0  0  0  0  0  0  0  0  0
  184.3760  178.9750  138.6560 C   0  0  0  0  0  1  0  0  0  0  0  0
  184.5790  178.6430  142.9220 C   0  0  0  0  0  0  0  0  0  0  0  0
  185.6970  178.8790  140.7830 C   0  0  0  0  0  0  0  0  0  0  0  0
  183.2840  178.7300  140.9210 C   0  0  0  0  0  0  0  0  0  0  0  0
  182.1810  176.2330  140.2200 O   0  0  0  0  0  0  0  0  0  0  0  0
  179.9500  177.0560  140.6810 C   0  0  0  0  0  2  0  0  0  0  0  0
  180.6250  178.3900  142.8490 O   0  0  0  0  0  1  0  0  0  0  0  0
  179.4620  179.4080  140.8340 C   0  0  2  0  0  3  0  0  0  0  0  0
  181.9300  178.6810  140.2650 C   0  0  2  0  0  3  0  0  0  0  0  0
  180.9700  179.7800  140.7700 C   0  0  2  0  0  3  0  0  0  0  0  0
  180.2890  179.5330  142.1180 C   0  0  0  0  0  0  0  0  0  0  0  0
  179.0990  178.1190  140.3250 O   0  0  0  0  0  0  0  0  0  0  0  0
  181.3240  177.2920  140.1120 C   0  0  1  0  0  0  0  0  0  0  0  0
  181.4280  176.5470  137.6700 O   0  0  0  0  0  0  0  0  0  0  0  0
  180.0450  180.6850  142.8620 O   0  0  0  0  0  1  0  0  0  0  0  0
  181.5780  176.6690  138.9140 C   0  0  0  0  0  0  0  0  0  0  0  0
  183.5680  178.7640  145.0490 O   0  0  0  0  0  0  0  0  0  0  0  0
  184.6090  178.4950  144.3970 C   0  0  0  0  0  0  0  0  0  0  0  0
  185.7690  178.0600  145.1200 N   0  0  0  0  0  2  0  0  0  0  0  0
  188.6380  176.3620  143.3310 C   0  0  0  0  0  2  0  0  0  0  0  0
  187.2390  176.5230  143.9250 C   0  0  0  0  0  2  0  0  0  0  0  0
  187.1040  177.9000  144.5630 C   0  0  2  0  0  3  0  0  0  0  0  0
  189.7020  176.5510  144.4130 C   0  0  2  0  0  3  0  0  0  0  0  0
  189.5510  177.9260  145.0630 C   0  0  0  0  0  2  0  0  0  0  0  0
  188.1550  178.0700  145.6600 C   0  0  0  0  0  2  0  0  0  0  0  0
  191.5320  177.7110  143.9800 C   0  0  0  0  0  1  0  0  0  0  0  0
  190.9710  176.4420  143.8430 O   0  0  0  0  0  0  0  0  0  0  0  0
  186.8660  179.0110  140.0250 O   0  0  0  0  0  0  0  0  0  0  0  0
  188.0020  178.1710  140.1910 C   0  0  0  0  0  2  0  0  0  0  0  0
  188.6060  177.8290  138.8390 C   0  0  1  0  0  3  0  0  0  0  0  0
  188.9360  179.0610  138.1480 N   0  0  0  0  0  1  0  0  0  0  0  0
  189.8710  177.0080  139.0180 C   0  0  0  0  0  2  0  0  0  0  0  0
  191.8290  177.4060  140.3690 N   0  0  0  0  0  2  0  0  0  0  0  0
  190.5510  177.3470  140.3040 C   0  0  0  0  0  3  0  0  0  0  0  0
  1  5  1  0  0  0  0
  2  5  2  0  0  0  0
  3  6  2  0  0  0  0
  3  7  1  0  0  0  0
  4  3  1  0  0  0  0
  5 21  1  0  0  0  0
  6  2  1  0  0  0  0
  7  1  2  0  0  0  0
 11 15  1  6  0  0  0
 11 14  1  0  0  0  0
 12 13  1  0  0  0  0
 12  7  1  1  0  0  0
 13 11  1  0  0  0  0
 13 14  1  1  0  0  0
 14 10  1  0  0  0  0
 14 18  1  0  0  0  0
 15  9  1  0  0  0  0
 16  8  1  0  0  0  0
 16 12  1  0  0  0  0
 16  9  1  1  0  0  0
 17 19  2  0  0  0  0
 19 16  1  0  0  0  0
 19  8  1  0  0  0  0
 21 20  2  0  0  0  0
 21 22  1  0  0  0  0
 23 24  1  0  0  0  0
 23 26  1  0  0  0  0
 24 25  1  0  0  0  0
 25 22  1  1  0  0  0
 25 28  1  0  0  0  0
 26 30  1  6  0  0  0
 26 27  1  0  0  0  0
 27 28  1  0  0  0  0
 30 29  1  0  0  0  0
 31 32  1  0  0  0  0
 31  6  1  0  0  0  0
 33 34  1  1  0  0  0
 33 35  1  0  0  0  0
 33 32  1  0  0  0  0
 35 37  1  0  0  0  0
 37 36  2  0  0  0  0
M  END
>  <MODEL>
1

>  <REMARK>
 VINA RESULT:      -8.2      0.000      0.000
  Name = 
  9 active torsions:
  status: ('A' for Active; 'I' for Inactive)
    1  A    between atoms: O_1  and  C_16
    2  A    between atoms: O_1  and  C_25
    3  A    between atoms: C_4  and  C_16
    4  A    between atoms: C_4  and  C_37
    5  A    between atoms: C_12  and  C_34
    6  A    between atoms: C_17  and  C_18
    7  A    between atoms: O_27  and  C_30
    8  A    between atoms: C_29  and  N_31
    9  A    between atoms: C_36  and  C_37
                            x       y       z     vdW  Elec       q    Type
                         _______ _______ _______ _____ _____    ______ ____

>  <TORSDO>
F 9

$$$$
=
 OpenBabel11062412273D

 37 41  0  0  1  0  0  0  0  0999 V2000
  184.9560  178.3230  140.0230 N   0  0  0  0  0  0  0  0  0  0  0  0
  186.0430  178.9780  142.0330 C   0  0  0  0  0  3  0  0  0  0  0  0
  183.6370  178.7760  141.9700 C   0  0  0  0  0  0  0  0  0  0  0  0
  182.3100  178.8850  142.6470 C   0  0  0  0  0  1  0  0  0  0  0  0
  186.1100  178.5910  140.6930 C   0  0  0  0  0  0  0  0  0  0  0  0
  184.8080  179.0720  142.6810 C   0  0  0  0  0  0  0  0  0  0  0  0
  183.7330  178.4010  140.6170 C   0  0  0  0  0  0  0  0  0  0  0  0
  182.7440  180.3540  138.8430 O   0  0  0  0  0  0  0  0  0  0  0  0
  181.9730  178.6280  137.3270 C   0  0  0  0  0  2  0  0  0  0  0  0
  184.0930  177.0920  137.6060 O   0  0  0  0  0  1  0  0  0  0  0  0
  181.7040  176.3410  138.0260 C   0  0  2  0  0  3  0  0  0  0  0  0
  182.4930  178.1070  139.8150 C   0  0  2  0  0  3  0  0  0  0  0  0
  182.3770  176.6250  139.3980 C   0  0  2  0  0  3  0  0  0  0  0  0
  183.2180  176.1780  138.1990 C   0  0  0  0  0  0  0  0  0  0  0  0
  181.1690  177.4730  137.3290 O   0  0  0  0  0  0  0  0  0  0  0  0
  182.1520  179.1270  138.7370 C   0  0  1  0  0  0  0  0  0  0  0  0
  180.1440  180.5340  139.4580 O   0  0  0  0  0  0  0  0  0  0  0  0
  183.6610  174.8590  138.2640 O   0  0  0  0  0  1  0  0  0  0  0  0
  181.2860  180.1220  139.1220 C   0  0  0  0  0  0  0  0  0  0  0  0
  187.3980  178.5780  138.7170 O   0  0  0  0  0  0  0  0  0  0  0  0
  187.4030  178.5060  139.9730 C   0  0  0  0  0  0  0  0  0  0  0  0
  188.6640  178.3460  140.6370 N   0  0  0  0  0  2  0  0  0  0  0  0
  190.3980  178.2210  143.9970 C   0  0  0  0  0  2  0  0  0  0  0  0
  190.2160  178.5260  142.5120 C   0  0  0  0  0  2  0  0  0  0  0  0
  188.8450  178.0470  142.0510 C   0  0  2  0  0  3  0  0  0  0  0  0
  190.2470  176.7220  144.2570 C   0  0  2  0  0  3  0  0  0  0  0  0
  188.8770  176.2420  143.7760 C   0  0  0  0  0  2  0  0  0  0  0  0
  188.7120  176.5430  142.2900 C   0  0  0  0  0  2  0  0  0  0  0  0
  191.6500  176.9260  145.9510 C   0  0  0  0  0  1  0  0  0  0  0  0
  190.3740  176.4690  145.6230 O   0  0  0  0  0  0  0  0  0  0  0  0
  184.7300  179.4500  144.0260 O   0  0  0  0  0  0  0  0  0  0  0  0
  184.9160  178.5410  145.1040 C   0  0  0  0  0  2  0  0  0  0  0  0
  186.0160  179.0360  146.0270 C   0  0  1  0  0  3  0  0  0  0  0  0
  185.4430  179.3230  147.3280 N   0  0  0  0  0  1  0  0  0  0  0  0
  187.0920  177.9760  146.1830 C   0  0  0  0  0  2  0  0  0  0  0  0
  188.7770  178.2380  147.8880 N   0  0  0  0  0  2  0  0  0  0  0  0
  187.5750  177.9080  147.5950 C   0  0  0  0  0  3  0  0  0  0  0  0
  1  7  2  0  0  0  0
  1  5  1  0  0  0  0
  2  6  1  0  0  0  0
  3  4  1  0  0  0  0
  3  6  2  0  0  0  0
  5  2  2  0  0  0  0
  6 31  1  0  0  0  0
  7  3  1  0  0  0  0
  8 19  1  0  0  0  0
  9 15  1  0  0  0  0
 10 14  1  0  0  0  0
 11 15  1  6  0  0  0
 11 14  1  0  0  0  0
 11 13  1  0  0  0  0
 12  7  1  6  0  0  0
 13 14  1  6  0  0  0
 13 12  1  0  0  0  0
 14 18  1  0  0  0  0
 16  9  1  6  0  0  0
 16  8  1  0  0  0  0
 16 19  1  0  0  0  0
 16 12  1  0  0  0  0
 19 17  2  0  0  0  0
 20 21  2  0  0  0  0
 21 22  1  0  0  0  0
 21  5  1  0  0  0  0
 23 26  1  0  0  0  0
 24 23  1  0  0  0  0
 25 22  1  6  0  0  0
 25 28  1  0  0  0  0
 25 24  1  0  0  0  0
 26 30  1  1  0  0  0
 27 26  1  0  0  0  0
 28 27  1  0  0  0  0
 30 29  1  0  0  0  0
 31 32  1  0  0  0  0
 32 33  1  0  0  0  0
 33 35  1  0  0  0  0
 33 34  1  1  0  0  0
 35 37  1  0  0  0  0
 37 36  2  0  0  0  0
M  END
>  <MODEL>
2

>  <REMARK>
 VINA RESULT:      -7.8      2.004      4.888
  Name = 
  9 active torsions:
  status: ('A' for Active; 'I' for Inactive)
    1  A    between atoms: O_1  and  C_16
    2  A    between atoms: O_1  and  C_25
    3  A    between atoms: C_4  and  C_16
    4  A    between atoms: C_4  and  C_37
    5  A    between atoms: C_12  and  C_34
    6  A    between atoms: C_17  and  C_18
    7  A    between atoms: O_27  and  C_30
    8  A    between atoms: C_29  and  N_31
    9  A    between atoms: C_36  and  C_37
                            x       y       z     vdW  Elec       q    Type
                         _______ _______ _______ _____ _____    ______ ____

>  <TORSDO>
F 9

$$$$
=
 OpenBabel11062412273D

 37 41  0  0  1  0  0  0  0  0999 V2000
  189.9930  177.0960  139.4480 N   0  0  0  0  0  0  0  0  0  0  0  0
  189.2160  178.2080  141.4000 C   0  0  0  0  0  3  0  0  0  0  0  0
  187.7080  177.8040  139.5570 C   0  0  0  0  0  0  0  0  0  0  0  0
  186.3540  177.9320  138.9390 C   0  0  0  0  0  1  0  0  0  0  0  0
  190.2450  177.5790  140.6950 C   0  0  0  0  0  0  0  0  0  0  0  0
  187.9420  178.3230  140.8380 C   0  0  0  0  0  0  0  0  0  0  0  0
  188.7660  177.1860  138.8640 C   0  0  0  0  0  0  0  0  0  0  0  0
  189.0070  178.9240  136.6590 O   0  0  0  0  0  0  0  0  0  0  0  0
  189.8900  177.1240  135.3000 C   0  0  0  0  0  2  0  0  0  0  0  0
  191.4040  176.1040  137.1980 O   0  0  0  0  0  1  0  0  0  0  0  0
  189.6320  174.8120  135.9170 C   0  0  2  0  0  3  0  0  0  0  0  0
  188.5580  176.6460  137.4750 C   0  0  2  0  0  3  0  0  0  0  0  0
  189.0520  175.1920  137.3080 C   0  0  2  0  0  3  0  0  0  0  0  0
  190.5590  174.9940  137.1240 C   0  0  0  0  0  0  0  0  0  0  0  0
  189.5600  175.8160  134.8970 O   0  0  0  0  0  0  0  0  0  0  0  0
  188.9110  177.5990  136.3400 C   0  0  1  0  0  0  0  0  0  0  0  0
  186.7810  178.4830  135.2380 O   0  0  0  0  0  0  0  0  0  0  0  0
  191.0560  173.8100  137.6640 O   0  0  0  0  0  1  0  0  0  0  0  0
  187.8670  178.3550  135.8630 C   0  0  0  0  0  0  0  0  0  0  0  0
  192.5900  177.4800  140.4640 O   0  0  0  0  0  0  0  0  0  0  0  0
  191.6130  177.4630  141.2550 C   0  0  0  0  0  0  0  0  0  0  0  0
  191.8790  177.3340  142.6590 N   0  0  0  0  0  2  0  0  0  0  0  0
  189.1820  178.1640  145.1800 C   0  0  0  0  0  2  0  0  0  0  0  0
  190.2370  178.4160  144.1040 C   0  0  0  0  0  2  0  0  0  0  0  0
  190.8800  177.0980  143.6920 C   0  0  2  0  0  3  0  0  0  0  0  0
  189.8110  177.4800  146.3940 C   0  0  2  0  0  3  0  0  0  0  0  0
  190.4710  176.1670  145.9730 C   0  0  0  0  0  2  0  0  0  0  0  0
  191.5290  176.4340  144.9070 C   0  0  0  0  0  2  0  0  0  0  0  0
  189.0070  178.1990  148.3220 C   0  0  0  0  0  1  0  0  0  0  0  0
  188.8250  177.2200  147.3470 O   0  0  0  0  0  0  0  0  0  0  0  0
  186.9010  178.9440  141.5380 O   0  0  0  0  0  0  0  0  0  0  0  0
  186.2280  178.3360  142.6340 C   0  0  0  0  0  2  0  0  0  0  0  0
  184.9180  179.0530  142.9100 C   0  0  1  0  0  3  0  0  0  0  0  0
  183.9320  178.6230  141.9360 N   0  0  0  0  0  1  0  0  0  0  0  0
  184.4160  178.7180  144.3040 C   0  0  0  0  0  2  0  0  0  0  0  0
  185.2950  179.0990  146.5170 N   0  0  0  0  0  2  0  0  0  0  0  0
  185.5270  178.7740  145.3000 C   0  0  0  0  0  3  0  0  0  0  0  0
  1  5  1  0  0  0  0
  3  6  2  0  0  0  0
  4  3  1  0  0  0  0
  5 21  1  0  0  0  0
  5  2  2  0  0  0  0
  6  2  1  0  0  0  0
  6 31  1  0  0  0  0
  7  1  2  0  0  0  0
  7  3  1  0  0  0  0
 11 15  1  6  0  0  0
 11 14  1  0  0  0  0
 11 13  1  0  0  0  0
 12  7  1  1  0  0  0
 13 14  1  1  0  0  0
 13 12  1  0  0  0  0
 14 10  1  0  0  0  0
 14 18  1  0  0  0  0
 15  9  1  0  0  0  0
 16  9  1  6  0  0  0
 16  8  1  0  0  0  0
 16 12  1  0  0  0  0
 17 19  2  0  0  0  0
 19 16  1  0  0  0  0
 19  8  1  0  0  0  0
 20 21  2  0  0  0  0
 21 22  1  0  0  0  0
 23 26  1  0  0  0  0
 24 23  1  0  0  0  0
 25 22  1  6  0  0  0
 25 24  1  0  0  0  0
 25 28  1  0  0  0  0
 26 30  1  1  0  0  0
 27 26  1  0  0  0  0
 28 27  1  0  0  0  0
 30 29  1  0  0  0  0
 31 32  1  0  0  0  0
 32 33  1  0  0  0  0
 33 34  1  6  0  0  0
 33 35  1  0  0  0  0
 35 37  1  0  0  0  0
 37 36  2  0  0  0  0
M  END
>  <MODEL>
3

>  <REMARK>
 VINA RESULT:      -7.6      3.683      7.456
  Name = 
  9 active torsions:
  status: ('A' for Active; 'I' for Inactive)
    1  A    between atoms: O_1  and  C_16
    2  A    between atoms: O_1  and  C_25
    3  A    between atoms: C_4  and  C_16
    4  A    between atoms: C_4  and  C_37
    5  A    between atoms: C_12  and  C_34
    6  A    between atoms: C_17  and  C_18
    7  A    between atoms: O_27  and  C_30
    8  A    between atoms: C_29  and  N_31
    9  A    between atoms: C_36  and  C_37
                            x       y       z     vdW  Elec       q    Type
                         _______ _______ _______ _____ _____    ______ ____

>  <TORSDO>
F 9

$$$$
=
 OpenBabel11062412273D

 37 41  0  0  1  0  0  0  0  0999 V2000
  183.3510  178.6600  141.4560 N   0  0  0  0  0  0  0  0  0  0  0  0
  185.4170  178.9130  142.6030 C   0  0  0  0  0  3  0  0  0  0  0  0
  185.3910  178.6420  140.2030 C   0  0  0  0  0  0  0  0  0  0  0  0
  186.1220  178.5230  138.9050 C   0  0  0  0  0  1  0  0  0  0  0  0
  184.0220  178.8420  142.6250 C   0  0  0  0  0  0  0  0  0  0  0  0
  186.1110  178.8150  141.3940 C   0  0  0  0  0  0  0  0  0  0  0  0
  183.9870  178.5610  140.2560 C   0  0  0  0  0  0  0  0  0  0  0  0
  182.8140  176.0420  139.7880 O   0  0  0  0  0  0  0  0  0  0  0  0
  180.9370  177.0920  138.6720 C   0  0  0  0  0  2  0  0  0  0  0  0
  180.7300  179.0930  140.3710 O   0  0  0  0  0  1  0  0  0  0  0  0
  181.0350  179.3570  137.8630 C   0  0  2  0  0  3  0  0  0  0  0  0
  183.1860  178.3450  139.0010 C   0  0  2  0  0  3  0  0  0  0  0  0
  182.4070  179.6000  138.5520 C   0  0  2  0  0  3  0  0  0  0  0  0
  181.1020  179.9020  139.2940 C   0  0  0  0  0  0  0  0  0  0  0  0
  180.6740  177.9910  137.6220 O   0  0  0  0  0  0  0  0  0  0  0  0
  182.4200  177.0300  138.9300 C   0  0  1  0  0  0  0  0  0  0  0  0
  183.5550  175.4350  137.2880 O   0  0  0  0  0  0  0  0  0  0  0  0
  180.8090  181.2590  139.4180 O   0  0  0  0  0  1  0  0  0  0  0  0
  183.0810  175.9970  138.3100 C   0  0  0  0  0  0  0  0  0  0  0  0
  182.0240  179.1390  143.8410 O   0  0  0  0  0  0  0  0  0  0  0  0
  183.2610  178.9190  143.8950 C   0  0  0  0  0  0  0  0  0  0  0  0
  183.8650  178.7530  145.1850 N   0  0  0  0  0  2  0  0  0  0  0  0
  187.3220  177.2340  145.4220 C   0  0  0  0  0  2  0  0  0  0  0  0
  185.8190  177.2910  145.1550 C   0  0  0  0  0  2  0  0  0  0  0  0
  185.2960  178.6920  145.4490 C   0  0  2  0  0  3  0  0  0  0  0  0
  187.6220  177.6160  146.8710 C   0  0  2  0  0  3  0  0  0  0  0  0
  187.0790  179.0140  147.1670 C   0  0  0  0  0  2  0  0  0  0  0  0
  185.5770  179.0560  146.9070 C   0  0  0  0  0  2  0  0  0  0  0  0
  189.1710  178.1380  148.3580 C   0  0  0  0  0  1  0  0  0  0  0  0
  189.0010  177.5980  147.0830 O   0  0  0  0  0  0  0  0  0  0  0  0
  187.5080  178.8930  141.3590 O   0  0  0  0  0  0  0  0  0  0  0  0
  188.3500  178.2370  142.2990 C   0  0  0  0  0  2  0  0  0  0  0  0
  188.9680  176.9970  141.6770 C   0  0  1  0  0  3  0  0  0  0  0  0
  189.9020  177.4050  140.6460 N   0  0  0  0  0  1  0  0  0  0  0  0
  189.7120  176.1940  142.7300 C   0  0  0  0  0  2  0  0  0  0  0  0
  191.3810  176.5960  144.4240 N   0  0  0  0  0  2  0  0  0  0  0  0
  190.7790  177.0170  143.3750 C   0  0  0  0  0  3  0  0  0  0  0  0
  1  5  1  0  0  0  0
  2  5  2  0  0  0  0
  3  7  1  0  0  0  0
  3  6  2  0  0  0  0
  4  3  1  0  0  0  0
  5 21  1  0  0  0  0
  6  2  1  0  0  0  0
  7  1  2  0  0  0  0
 11 15  1  1  0  0  0
 11 13  1  0  0  0  0
 11 14  1  0  0  0  0
 12  7  1  1  0  0  0
 13 12  1  0  0  0  0
 13 14  1  1  0  0  0
 14 18  1  0  0  0  0
 14 10  1  0  0  0  0
 15  9  1  0  0  0  0
 16  9  1  6  0  0  0
 16 12  1  0  0  0  0
 16  8  1  0  0  0  0
 17 19  2  0  0  0  0
 19 16  1  0  0  0  0
 19  8  1  0  0  0  0
 20 21  2  0  0  0  0
 21 22  1  0  0  0  0
 23 26  1  0  0  0  0
 24 23  1  0  0  0  0
 24 25  1  0  0  0  0
 25 22  1  1  0  0  0
 25 28  1  0  0  0  0
 26 30  1  6  0  0  0
 26 27  1  0  0  0  0
 28 27  1  0  0  0  0
 30 29  1  0  0  0  0
 31  6  1  0  0  0  0
 31 32  1  0  0  0  0
 33 34  1  6  0  0  0
 33 32  1  0  0  0  0
 33 35  1  0  0  0  0
 35 37  1  0  0  0  0
 37 36  2  0  0  0  0
M  END
>  <MODEL>
4

>  <REMARK>
 VINA RESULT:      -7.4      1.934      2.600
  Name = 
  9 active torsions:
  status: ('A' for Active; 'I' for Inactive)
    1  A    between atoms: O_1  and  C_16
    2  A    between atoms: O_1  and  C_25
    3  A    between atoms: C_4  and  C_16
    4  A    between atoms: C_4  and  C_37
    5  A    between atoms: C_12  and  C_34
    6  A    between atoms: C_17  and  C_18
    7  A    between atoms: O_27  and  C_30
    8  A    between atoms: C_29  and  N_31
    9  A    between atoms: C_36  and  C_37
                            x       y       z     vdW  Elec       q    Type
                         _______ _______ _______ _____ _____    ______ ____

>  <TORSDO>
F 9

$$$$
=
 OpenBabel11062412273D

 37 41  0  0  1  0  0  0  0  0999 V2000
  187.8060  178.2810  139.8240 N   0  0  0  0  0  0  0  0  0  0  0  0
  188.3100  178.3880  142.1440 C   0  0  0  0  0  3  0  0  0  0  0  0
  190.0170  177.7360  140.5640 C   0  0  0  0  0  0  0  0  0  0  0  0
  191.4140  177.2920  140.2770 C   0  0  0  0  0  1  0  0  0  0  0  0
  187.4010  178.5430  141.0960 C   0  0  0  0  0  0  0  0  0  0  0  0
  189.6230  177.9850  141.8860 C   0  0  0  0  0  0  0  0  0  0  0  0
  189.0760  177.8880  139.5290 C   0  0  0  0  0  0  0  0  0  0  0  0
  188.9120  175.2440  138.5690 O   0  0  0  0  0  0  0  0  0  0  0  0
  188.3040  176.0510  136.3670 C   0  0  0  0  0  2  0  0  0  0  0  0
  186.7010  177.9500  137.2360 O   0  0  0  0  0  1  0  0  0  0  0  0
  188.6810  178.3310  135.6920 C   0  0  2  0  0  3  0  0  0  0  0  0
  189.4570  177.5990  138.1020 C   0  0  2  0  0  3  0  0  0  0  0  0
  189.0950  178.7450  137.1320 C   0  0  2  0  0  3  0  0  0  0  0  0
  187.6320  178.8360  136.6890 C   0  0  0  0  0  0  0  0  0  0  0  0
  188.7710  176.9360  135.3770 O   0  0  0  0  0  0  0  0  0  0  0  0
  189.1410  176.1920  137.6110 C   0  0  1  0  0  0  0  0  0  0  0  0
  191.2900  174.8240  137.4120 O   0  0  0  0  0  0  0  0  0  0  0  0
  187.1790  180.1330  136.4550 O   0  0  0  0  0  1  0  0  0  0  0  0
  190.1630  175.2830  137.7370 C   0  0  0  0  0  0  0  0  0  0  0  0
  185.2950  179.3120  140.3620 O   0  0  0  0  0  0  0  0  0  0  0  0
  185.9950  178.9460  141.3410 C   0  0  0  0  0  0  0  0  0  0  0  0
  185.3900  178.9370  142.6420 N   0  0  0  0  0  2  0  0  0  0  0  0
  187.0340  177.0450  145.4750 C   0  0  0  0  0  2  0  0  0  0  0  0
  186.2860  177.2490  144.1580 C   0  0  0  0  0  2  0  0  0  0  0  0
  186.0920  178.7390  143.9010 C   0  0  2  0  0  3  0  0  0  0  0  0
  186.2640  177.6850  146.6300 C   0  0  2  0  0  3  0  0  0  0  0  0
  186.0550  179.1750  146.3590 C   0  0  0  0  0  2  0  0  0  0  0  0
  185.3000  179.3650  145.0480 C   0  0  0  0  0  2  0  0  0  0  0  0
  188.1520  178.2570  147.6250 C   0  0  0  0  0  1  0  0  0  0  0  0
  186.9820  177.5240  147.8160 O   0  0  0  0  0  0  0  0  0  0  0  0
  190.5460  177.8350  142.9280 O   0  0  0  0  0  0  0  0  0  0  0  0
  190.1920  177.9230  144.3030 C   0  0  0  0  0  2  0  0  0  0  0  0
  190.7170  176.7150  145.0600 C   0  0  1  0  0  3  0  0  0  0  0  0
  191.6800  176.0210  144.2270 N   0  0  0  0  0  1  0  0  0  0  0  0
  191.3980  177.1530  146.3450 C   0  0  0  0  0  2  0  0  0  0  0  0
  192.6810  175.5460  147.6060 N   0  0  0  0  0  2  0  0  0  0  0  0
  191.5280  176.0090  147.2980 C   0  0  0  0  0  3  0  0  0  0  0  0
  1  5  1  0  0  0  0
  3  6  2  0  0  0  0
  4  3  1  0  0  0  0
  5 21  1  0  0  0  0
  5  2  2  0  0  0  0
  6  2  1  0  0  0  0
  6 31  1  0  0  0  0
  7  1  2  0  0  0  0
  7  3  1  0  0  0  0
 11 15  1  1  0  0  0
 11 14  1  0  0  0  0
 11 13  1  0  0  0  0
 12  7  1  1  0  0  0
 13 14  1  1  0  0  0
 13 12  1  0  0  0  0
 14 10  1  0  0  0  0
 15  9  1  0  0  0  0
 16  9  1  6  0  0  0
 16 19  1  0  0  0  0
 16 12  1  0  0  0  0
 16  8  1  0  0  0  0
 17 19  2  0  0  0  0
 18 14  1  0  0  0  0
 19  8  1  0  0  0  0
 20 21  2  0  0  0  0
 21 22  1  0  0  0  0
 23 26  1  0  0  0  0
 24 23  1  0  0  0  0
 25 22  1  6  0  0  0
 25 24  1  0  0  0  0
 25 28  1  0  0  0  0
 26 30  1  1  0  0  0
 27 26  1  0  0  0  0
 28 27  1  0  0  0  0
 29 30  1  0  0  0  0
 31 32  1  0  0  0  0
 32 33  1  0  0  0  0
 33 34  1  6  0  0  0
 33 35  1  0  0  0  0
 35 37  1  0  0  0  0
 37 36  2  0  0  0  0
M  END
>  <MODEL>
5

>  <REMARK>
 VINA RESULT:      -7.3      3.590      6.683
  Name = 
  9 active torsions:
  status: ('A' for Active; 'I' for Inactive)
    1  A    between atoms: O_1  and  C_16
    2  A    between atoms: O_1  and  C_25
    3  A    between atoms: C_4  and  C_16
    4  A    between atoms: C_4  and  C_37
    5  A    between atoms: C_12  and  C_34
    6  A    between atoms: C_17  and  C_18
    7  A    between atoms: O_27  and  C_30
    8  A    between atoms: C_29  and  N_31
    9  A    between atoms: C_36  and  C_37
                            x       y       z     vdW  Elec       q    Type
                         _______ _______ _______ _____ _____    ______ ____

>  <TORSDO>
F 9

$$$$
=
 OpenBabel11062412273D

 37 41  0  0  1  0  0  0  0  0999 V2000
  185.2140  177.1810  137.7460 N   0  0  0  0  0  0  0  0  0  0  0  0
  185.2930  178.7740  139.5080 C   0  0  0  0  0  3  0  0  0  0  0  0
  183.4040  177.2820  139.3100 C   0  0  0  0  0  0  0  0  0  0  0  0
  182.0750  176.8040  139.7970 C   0  0  0  0  0  1  0  0  0  0  0  0
  185.8760  178.1840  138.3840 C   0  0  0  0  0  0  0  0  0  0  0  0
  184.0560  178.3270  139.9800 C   0  0  0  0  0  0  0  0  0  0  0  0
  184.0090  176.7150  138.1730 C   0  0  0  0  0  0  0  0  0  0  0  0
  183.2190  177.1660  135.5060 O   0  0  0  0  0  0  0  0  0  0  0  0
  183.6530  174.8460  134.9550 C   0  0  0  0  0  2  0  0  0  0  0  0
  185.8680  174.6700  136.3670 O   0  0  0  0  0  1  0  0  0  0  0  0
  183.8550  173.1480  136.6480 C   0  0  2  0  0  3  0  0  0  0  0  0
  183.3220  175.6120  137.4130 C   0  0  2  0  0  3  0  0  0  0  0  0
  183.8340  174.2050  137.7880 C   0  0  2  0  0  3  0  0  0  0  0  0
  185.1600  173.7650  137.1620 C   0  0  0  0  0  0  0  0  0  0  0  0
  183.3050  173.5530  135.3890 O   0  0  0  0  0  0  0  0  0  0  0  0
  183.1200  175.8690  135.9250 C   0  0  1  0  0  0  0  0  0  0  0  0
  180.6620  176.3750  135.4420 O   0  0  0  0  0  0  0  0  0  0  0  0
  185.9280  172.9260  137.9660 O   0  0  0  0  0  1  0  0  0  0  0  0
  181.9120  176.4280  135.5840 C   0  0  0  0  0  0  0  0  0  0  0  0
  187.1980  179.1820  136.7050 O   0  0  0  0  0  0  0  0  0  0  0  0
  187.1750  178.6540  137.8460 C   0  0  0  0  0  0  0  0  0  0  0  0
  188.4120  178.5370  138.5650 N   0  0  0  0  0  2  0  0  0  0  0  0
  188.3960  177.8320  142.2820 C   0  0  0  0  0  2  0  0  0  0  0  0
  188.1990  178.6290  140.9940 C   0  0  0  0  0  2  0  0  0  0  0  0
  188.6090  177.7830  139.7940 C   0  0  2  0  0  3  0  0  0  0  0  0
  189.8540  177.3910  142.4190 C   0  0  2  0  0  3  0  0  0  0  0  0
  190.2660  176.5580  141.2050 C   0  0  0  0  0  2  0  0  0  0  0  0
  190.0740  177.3680  139.9270 C   0  0  0  0  0  2  0  0  0  0  0  0
  188.9900  177.0710  144.4270 C   0  0  0  0  0  1  0  0  0  0  0  0
  190.0040  176.6300  143.5780 O   0  0  0  0  0  0  0  0  0  0  0  0
  183.4670  178.9050  141.1110 O   0  0  0  0  0  0  0  0  0  0  0  0
  183.8940  178.6300  142.4390 C   0  0  0  0  0  2  0  0  0  0  0  0
  183.0170  179.3660  143.4370 C   0  0  1  0  0  3  0  0  0  0  0  0
  181.6370  178.9740  143.2280 N   0  0  0  0  0  1  0  0  0  0  0  0
  183.4230  179.0140  144.8580 C   0  0  0  0  0  2  0  0  0  0  0  0
  185.4800  179.0640  146.1160 N   0  0  0  0  0  2  0  0  0  0  0  0
  184.9080  178.9130  144.9800 C   0  0  0  0  0  3  0  0  0  0  0  0
  1  7  2  0  0  0  0
  1  5  1  0  0  0  0
  2  6  1  0  0  0  0
  3  4  1  0  0  0  0
  3  6  2  0  0  0  0
  5  2  2  0  0  0  0
  6 31  1  0  0  0  0
  7  3  1  0  0  0  0
  8 19  1  0  0  0  0
  8 16  1  0  0  0  0
  9 15  1  0  0  0  0
 10 14  1  0  0  0  0
 11 15  1  6  0  0  0
 11 14  1  0  0  0  0
 11 13  1  0  0  0  0
 12 13  1  0  0  0  0
 12  7  1  6  0  0  0
 13 14  1  6  0  0  0
 14 18  1  0  0  0  0
 16  9  1  6  0  0  0
 16 12  1  0  0  0  0
 17 19  2  0  0  0  0
 19 16  1  0  0  0  0
 20 21  2  0  0  0  0
 21  5  1  0  0  0  0
 21 22  1  0  0  0  0
 23 26  1  0  0  0  0
 24 23  1  0  0  0  0
 25 22  1  6  0  0  0
 25 28  1  0  0  0  0
 25 24  1  0  0  0  0
 26 30  1  1  0  0  0
 27 26  1  0  0  0  0
 28 27  1  0  0  0  0
 30 29  1  0  0  0  0
 31 32  1  0  0  0  0
 32 33  1  0  0  0  0
 33 34  1  6  0  0  0
 33 35  1  0  0  0  0
 35 37  1  0  0  0  0
 37 36  2  0  0  0  0
M  END
>  <MODEL>
6

>  <REMARK>
 VINA RESULT:      -6.9      2.756      6.075
  Name = 
  9 active torsions:
  status: ('A' for Active; 'I' for Inactive)
    1  A    between atoms: O_1  and  C_16
    2  A    between atoms: O_1  and  C_25
    3  A    between atoms: C_4  and  C_16
    4  A    between atoms: C_4  and  C_37
    5  A    between atoms: C_12  and  C_34
    6  A    between atoms: C_17  and  C_18
    7  A    between atoms: O_27  and  C_30
    8  A    between atoms: C_29  and  N_31
    9  A    between atoms: C_36  and  C_37
                            x       y       z     vdW  Elec       q    Type
                         _______ _______ _______ _____ _____    ______ ____

>  <TORSDO>
F 9

$$$$
=
 OpenBabel11062412273D

 37 41  0  0  1  0  0  0  0  0999 V2000
  184.6230  177.4720  137.8790 N   0  0  0  0  0  0  0  0  0  0  0  0
  186.8880  178.0880  138.2560 C   0  0  0  0  0  3  0  0  0  0  0  0
  186.3550  176.3620  136.6530 C   0  0  0  0  0  0  0  0  0  0  0  0
  186.7940  175.3410  135.6550 C   0  0  0  0  0  1  0  0  0  0  0  0
  185.5280  178.2540  138.5290 C   0  0  0  0  0  0  0  0  0  0  0  0
  187.3100  177.1440  137.3170 C   0  0  0  0  0  0  0  0  0  0  0  0
  184.9920  176.5420  136.9560 C   0  0  0  0  0  0  0  0  0  0  0  0
  184.0930  174.1930  138.2270 O   0  0  0  0  0  0  0  0  0  0  0  0
  181.8730  174.5120  137.3080 C   0  0  0  0  0  2  0  0  0  0  0  0
  181.8240  177.1170  137.6870 O   0  0  0  0  0  1  0  0  0  0  0  0
  181.4600  175.9790  135.4460 C   0  0  2  0  0  3  0  0  0  0  0  0
  183.9420  175.6980  136.2850 C   0  0  2  0  0  3  0  0  0  0  0  0
  182.9140  176.5290  135.4870 C   0  0  2  0  0  3  0  0  0  0  0  0
  181.8040  177.2090  136.2930 C   0  0  0  0  0  0  0  0  0  0  0  0
  181.2390  174.7070  136.0670 O   0  0  0  0  0  0  0  0  0  0  0  0
  183.3680  174.5690  137.1310 C   0  0  1  0  0  0  0  0  0  0  0  0
  184.2670  172.3170  136.3240 O   0  0  0  0  0  0  0  0  0  0  0  0
  181.3690  178.4230  135.7670 O   0  0  0  0  0  1  0  0  0  0  0  0
  183.9890  173.3520  136.9860 C   0  0  0  0  0  0  0  0  0  0  0  0
  184.3050  180.1690  139.1590 O   0  0  0  0  0  0  0  0  0  0  0  0
  185.0510  179.2300  139.5380 C   0  0  0  0  0  0  0  0  0  0  0  0
  185.3980  179.1570  140.9280 N   0  0  0  0  0  2  0  0  0  0  0  0
  187.1430  177.1050  143.5840 C   0  0  0  0  0  2  0  0  0  0  0  0
  186.0990  178.0440  142.9830 C   0  0  0  0  0  2  0  0  0  0  0  0
  186.3980  178.2710  141.5060 C   0  0  2  0  0  3  0  0  0  0  0  0
  188.5460  177.6860  143.4110 C   0  0  2  0  0  3  0  0  0  0  0  0
  188.8350  177.9290  141.9300 C   0  0  0  0  0  2  0  0  0  0  0  0
  187.7920  178.8750  141.3440 C   0  0  0  0  0  2  0  0  0  0  0  0
  189.8650  176.0070  142.8430 C   0  0  0  0  0  1  0  0  0  0  0  0
  189.4880  176.7960  143.9280 O   0  0  0  0  0  0  0  0  0  0  0  0
  188.6700  176.9750  137.0290 O   0  0  0  0  0  0  0  0  0  0  0  0
  189.7110  177.4970  137.8470 C   0  0  0  0  0  2  0  0  0  0  0  0
  190.2960  176.3990  138.7170 C   0  0  1  0  0  3  0  0  0  0  0  0
  190.3070  175.1580  137.9650 N   0  0  0  0  0  1  0  0  0  0  0  0
  191.7190  176.7460  139.1200 C   0  0  0  0  0  2  0  0  0  0  0  0
  193.9050  176.1170  138.3190 N   0  0  0  0  0  2  0  0  0  0  0  0
  192.6840  176.3820  138.0390 C   0  0  0  0  0  3  0  0  0  0  0  0
  1  5  1  0  0  0  0
  2  5  2  0  0  0  0
  3  7  1  0  0  0  0
  3  6  2  0  0  0  0
  4  3  1  0  0  0  0
  5 21  1  0  0  0  0
  6  2  1  0  0  0  0
  7  1  2  0  0  0  0
 11 13  1  0  0  0  0
 11 15  1  1  0  0  0
 11 14  1  0  0  0  0
 12  7  1  1  0  0  0
 12 16  1  0  0  0  0
 13 12  1  0  0  0  0
 13 14  1  1  0  0  0
 14 10  1  0  0  0  0
 15  9  1  0  0  0  0
 16  9  1  1  0  0  0
 16  8  1  0  0  0  0
 17 19  2  0  0  0  0
 18 14  1  0  0  0  0
 19 16  1  0  0  0  0
 19  8  1  0  0  0  0
 20 21  2  0  0  0  0
 21 22  1  0  0  0  0
 24 23  1  0  0  0  0
 25 22  1  1  0  0  0
 25 24  1  0  0  0  0
 26 23  1  0  0  0  0
 26 30  1  6  0  0  0
 27 26  1  0  0  0  0
 28 25  1  0  0  0  0
 28 27  1  0  0  0  0
 29 30  1  0  0  0  0
 31  6  1  0  0  0  0
 31 32  1  0  0  0  0
 32 33  1  0  0  0  0
 33 34  1  6  0  0  0
 33 35  1  0  0  0  0
 37 36  2  0  0  0  0
 37 35  1  0  0  0  0
M  END
>  <MODEL>
7

>  <REMARK>
 VINA RESULT:      -6.9      3.147      4.483
  Name = 
  9 active torsions:
  status: ('A' for Active; 'I' for Inactive)
    1  A    between atoms: O_1  and  C_16
    2  A    between atoms: O_1  and  C_25
    3  A    between atoms: C_4  and  C_16
    4  A    between atoms: C_4  and  C_37
    5  A    between atoms: C_12  and  C_34
    6  A    between atoms: C_17  and  C_18
    7  A    between atoms: O_27  and  C_30
    8  A    between atoms: C_29  and  N_31
    9  A    between atoms: C_36  and  C_37
                            x       y       z     vdW  Elec       q    Type
                         _______ _______ _______ _____ _____    ______ ____

>  <TORSDO>
F 9

$$$$
=
 OpenBabel11062412273D

 37 41  0  0  1  0  0  0  0  0999 V2000
  188.6300  177.5330  139.8070 N   0  0  0  0  0  0  0  0  0  0  0  0
  186.5810  178.1930  138.7990 C   0  0  0  0  0  3  0  0  0  0  0  0
  186.9640  178.6120  141.1460 C   0  0  0  0  0  0  0  0  0  0  0  0
  186.4900  179.1370  142.4620 C   0  0  0  0  0  1  0  0  0  0  0  0
  187.8480  177.6140  138.6960 C   0  0  0  0  0  0  0  0  0  0  0  0
  186.1310  178.6970  140.0210 C   0  0  0  0  0  0  0  0  0  0  0  0
  188.2310  178.0130  141.0170 C   0  0  0  0  0  0  0  0  0  0  0  0
  187.7640  175.9450  142.8740 O   0  0  0  0  0  0  0  0  0  0  0  0
  190.1430  175.7410  143.2870 C   0  0  0  0  0  2  0  0  0  0  0  0
  190.8540  176.0230  140.7680 O   0  0  0  0  0  1  0  0  0  0  0  0
  191.7000  177.4720  142.6750 C   0  0  2  0  0  3  0  0  0  0  0  0
  189.1370  177.8780  142.2100 C   0  0  2  0  0  3  0  0  0  0  0  0
  190.6020  178.2620  141.9080 C   0  0  2  0  0  3  0  0  0  0  0  0
  191.4530  177.2150  141.1840 C   0  0  0  0  0  0  0  0  0  0  0  0
  191.2440  176.5360  143.6590 O   0  0  0  0  0  0  0  0  0  0  0  0
  188.9430  176.6170  143.0440 C   0  0  1  0  0  0  0  0  0  0  0  0
  187.7790  177.1880  145.2460 O   0  0  0  0  0  0  0  0  0  0  0  0
  192.4190  177.7450  140.3310 O   0  0  0  0  0  1  0  0  0  0  0  0
  188.0820  176.7440  144.1070 C   0  0  0  0  0  0  0  0  0  0  0  0
  189.3030  177.6190  136.8400 O   0  0  0  0  0  0  0  0  0  0  0  0
  188.3430  177.0480  137.4180 C   0  0  0  0  0  0  0  0  0  0  0  0
  187.7810  175.8790  136.8050 N   0  0  0  0  0  2  0  0  0  0  0  0
  185.4550  173.0050  137.6080 C   0  0  0  0  0  2  0  0  0  0  0  0
  186.7400  173.7010  137.1630 C   0  0  0  0  0  2  0  0  0  0  0  0
  186.5540  175.2130  137.2190 C   0  0  2  0  0  3  0  0  0  0  0  0
  184.2840  173.4270  136.7200 C   0  0  2  0  0  3  0  0  0  0  0  0
  184.1130  174.9460  136.7640 C   0  0  0  0  0  2  0  0  0  0  0  0
  185.3980  175.6280  136.3080 C   0  0  0  0  0  2  0  0  0  0  0  0
  183.2120  171.4960  136.7260 C   0  0  0  0  0  1  0  0  0  0  0  0
  183.1140  172.8140  137.1680 O   0  0  0  0  0  0  0  0  0  0  0  0
  184.8670  179.2880  140.1340 O   0  0  0  0  0  0  0  0  0  0  0  0
  183.8090  179.0470  139.2140 C   0  0  0  0  0  2  0  0  0  0  0  0
  182.6730  178.3090  139.8990 C   0  0  1  0  0  3  0  0  0  0  0  0
  182.8710  176.8820  139.7290 N   0  0  0  0  0  1  0  0  0  0  0  0
  182.6510  178.6320  141.3830 C   0  0  0  0  0  2  0  0  0  0  0  0
  180.7960  179.6840  142.5100 N   0  0  0  0  0  2  0  0  0  0  0  0
  181.2520  178.6500  141.9060 C   0  0  0  0  0  3  0  0  0  0  0  0
  1  7  1  0  0  0  0
  2  6  2  0  0  0  0
  3  4  1  0  0  0  0
  5  2  1  0  0  0  0
  5  1  2  0  0  0  0
  6 31  1  0  0  0  0
  6  3  1  0  0  0  0
  7  3  2  0  0  0  0
  8 16  1  0  0  0  0
  8 19  1  0  0  0  0
  9 15  1  0  0  0  0
 10 14  1  0  0  0  0
 11 15  1  1  0  0  0
 12  7  1  6  0  0  0
 12 16  1  0  0  0  0
 13 14  1  6  0  0  0
 13 12  1  0  0  0  0
 13 11  1  0  0  0  0
 14 11  1  0  0  0  0
 16  9  1  1  0  0  0
 16 19  1  0  0  0  0
 18 14  1  0  0  0  0
 19 17  2  0  0  0  0
 20 21  2  0  0  0  0
 21  5  1  0  0  0  0
 22 21  1  0  0  0  0
 24 25  1  0  0  0  0
 24 23  1  0  0  0  0
 25 22  1  6  0  0  0
 26 27  1  0  0  0  0
 26 30  1  1  0  0  0
 26 23  1  0  0  0  0
 28 27  1  0  0  0  0
 28 25  1  0  0  0  0
 29 30  1  0  0  0  0
 32 33  1  0  0  0  0
 32 31  1  0  0  0  0
 33 34  1  1  0  0  0
 33 35  1  0  0  0  0
 35 37  1  0  0  0  0
 37 36  2  0  0  0  0
M  END
>  <MODEL>
8

>  <REMARK>
 VINA RESULT:      -6.7      2.895      8.677
  Name = 
  9 active torsions:
  status: ('A' for Active; 'I' for Inactive)
    1  A    between atoms: O_1  and  C_16
    2  A    between atoms: O_1  and  C_25
    3  A    between atoms: C_4  and  C_16
    4  A    between atoms: C_4  and  C_37
    5  A    between atoms: C_12  and  C_34
    6  A    between atoms: C_17  and  C_18
    7  A    between atoms: O_27  and  C_30
    8  A    between atoms: C_29  and  N_31
    9  A    between atoms: C_36  and  C_37
                            x       y       z     vdW  Elec       q    Type
                         _______ _______ _______ _____ _____    ______ ____

>  <TORSDO>
F 9

$$$$
=
 OpenBabel11062412273D

 37 41  0  0  1  0  0  0  0  0999 V2000
  184.2270  178.2400  138.7500 N   0  0  0  0  0  0  0  0  0  0  0  0
  186.2780  178.4160  139.9390 C   0  0  0  0  0  3  0  0  0  0  0  0
  184.1790  178.4920  141.1310 C   0  0  0  0  0  0  0  0  0  0  0  0
  183.4210  178.6270  142.4110 C   0  0  0  0  0  1  0  0  0  0  0  0
  185.5870  178.2610  138.7350 C   0  0  0  0  0  0  0  0  0  0  0  0
  185.5810  178.5310  141.1440 C   0  0  0  0  0  0  0  0  0  0  0  0
  183.5090  178.3470  139.9020 C   0  0  0  0  0  0  0  0  0  0  0  0
  182.1610  180.3820  138.4930 O   0  0  0  0  0  0  0  0  0  0  0  0
  180.4180  178.8250  137.8550 C   0  0  0  0  0  2  0  0  0  0  0  0
  182.0500  176.8180  137.3650 O   0  0  0  0  0  1  0  0  0  0  0  0
  180.1010  176.7260  138.9910 C   0  0  2  0  0  3  0  0  0  0  0  0
  182.0050  178.3330  139.8490 C   0  0  2  0  0  3  0  0  0  0  0  0
  181.4120  176.9080  139.8060 C   0  0  2  0  0  3  0  0  0  0  0  0
  181.4330  176.1930  138.4530 C   0  0  0  0  0  0  0  0  0  0  0  0
  179.5190  177.9150  138.4420 O   0  0  0  0  0  0  0  0  0  0  0  0
  181.3720  179.3420  138.8990 C   0  0  1  0  0  0  0  0  0  0  0  0
  180.3120  181.2540  140.2220 O   0  0  0  0  0  0  0  0  0  0  0  0
  181.5860  174.8110  138.5320 O   0  0  0  0  0  1  0  0  0  0  0  0
  181.0270  180.5460  139.4650 C   0  0  0  0  0  0  0  0  0  0  0  0
  186.8600  179.1890  136.9790 O   0  0  0  0  0  0  0  0  0  0  0  0
  186.3000  178.1600  137.4380 C   0  0  0  0  0  0  0  0  0  0  0  0
  186.3840  176.9460  136.6790 N   0  0  0  0  0  2  0  0  0  0  0  0
  185.8200  173.2990  137.5130 C   0  0  0  0  0  2  0  0  0  0  0  0
  186.6050  174.5760  137.2180 C   0  0  0  0  0  2  0  0  0  0  0  0
  185.6390  175.7240  136.9500 C   0  0  2  0  0  3  0  0  0  0  0  0
  184.9020  172.9540  136.3400 C   0  0  2  0  0  3  0  0  0  0  0  0
  183.9480  174.1160  136.0620 C   0  0  0  0  0  2  0  0  0  0  0  0
  184.7430  175.3820  135.7600 C   0  0  0  0  0  2  0  0  0  0  0  0
  182.8350  172.1780  136.4390 C   0  0  0  0  0  1  0  0  0  0  0  0
  184.1640  171.8100  136.6450 O   0  0  0  0  0  0  0  0  0  0  0  0
  186.2620  178.6780  142.3570 O   0  0  0  0  0  0  0  0  0  0  0  0
  187.1440  177.6930  142.8810 C   0  0  0  0  0  2  0  0  0  0  0  0
  186.9050  177.5100  144.3700 C   0  0  1  0  0  3  0  0  0  0  0  0
  188.1860  177.4110  145.0420 N   0  0  0  0  0  1  0  0  0  0  0  0
  186.1410  178.6960  144.9320 C   0  0  0  0  0  2  0  0  0  0  0  0
  184.1770  178.6280  146.3290 N   0  0  0  0  0  2  0  0  0  0  0  0
  185.4100  178.3190  146.1790 C   0  0  0  0  0  3  0  0  0  0  0  0
  1  7  1  0  0  0  0
  2  6  2  0  0  0  0
  3  6  1  0  0  0  0
  3  4  1  0  0  0  0
  5  1  2  0  0  0  0
  5  2  1  0  0  0  0
  6 31  1  0  0  0  0
  7  3  2  0  0  0  0
  8 16  1  0  0  0  0
  8 19  1  0  0  0  0
  9 15  1  0  0  0  0
 10 14  1  0  0  0  0
 11 15  1  6  0  0  0
 11 13  1  0  0  0  0
 12  7  1  6  0  0  0
 13 14  1  6  0  0  0
 13 12  1  0  0  0  0
 14 18  1  0  0  0  0
 14 11  1  0  0  0  0
 16  9  1  6  0  0  0
 16 19  1  0  0  0  0
 16 12  1  0  0  0  0
 19 17  2  0  0  0  0
 20 21  2  0  0  0  0
 21  5  1  0  0  0  0
 22 21  1  0  0  0  0
 24 23  1  0  0  0  0
 25 22  1  6  0  0  0
 25 24  1  0  0  0  0
 26 30  1  1  0  0  0
 26 23  1  0  0  0  0
 27 26  1  0  0  0  0
 28 27  1  0  0  0  0
 28 25  1  0  0  0  0
 29 30  1  0  0  0  0
 31 32  1  0  0  0  0
 32 33  1  0  0  0  0
 33 35  1  0  0  0  0
 33 34  1  1  0  0  0
 35 37  1  0  0  0  0
 37 36  2  0  0  0  0
M  END
>  <MODEL>
9

>  <REMARK>
 VINA RESULT:      -6.6      2.915      6.534
  Name = 
  9 active torsions:
  status: ('A' for Active; 'I' for Inactive)
    1  A    between atoms: O_1  and  C_16
    2  A    between atoms: O_1  and  C_25
    3  A    between atoms: C_4  and  C_16
    4  A    between atoms: C_4  and  C_37
    5  A    between atoms: C_12  and  C_34
    6  A    between atoms: C_17  and  C_18
    7  A    between atoms: O_27  and  C_30
    8  A    between atoms: C_29  and  N_31
    9  A    between atoms: C_36  and  C_37
                            x       y       z     vdW  Elec       q    Type
                         _______ _______ _______ _____ _____    ______ ____

>  <TORSDO>
F 9

$$$$
