=
 OpenBabel11062416233D

 29 32  0  0  1  0  0  0  0  0999 V2000
  187.1330  178.5470  137.1780 C   0  0  0  0  0  2  0  0  0  0  0  0
  181.9020  177.8120  139.5810 C   0  0  0  0  0  3  0  0  0  0  0  0
  182.9590  176.8430  139.1460 C   0  0  0  0  0  2  0  0  0  0  0  0
  186.4890  177.7420  142.4000 C   0  0  2  0  0  3  0  0  0  0  0  0
  189.4760  177.9680  137.8890 C   0  0  2  0  0  3  0  0  0  0  0  0
  188.5910  178.9600  137.1320 C   0  0  0  0  0  2  0  0  0  0  0  0
  182.8090  178.4770  141.8070 C   0  0  0  0  0  0  0  0  0  0  0  0
  187.2440  178.9820  141.8990 C   0  0  0  0  0  2  0  0  0  0  0  0
  186.6430  178.6130  138.6180 C   0  0  2  0  0  3  0  0  0  0  0  0
  188.1500  178.7500  140.6810 C   0  0  1  0  0  3  0  0  0  0  0  0
  189.4040  178.2380  141.0660 O   0  0  0  0  0  0  0  0  0  0  0  0
  184.1170  177.9970  141.6660 C   0  0  0  0  0  3  0  0  0  0  0  0
  189.6960  177.1540  140.2130 C   0  0  0  0  0  2  0  0  0  0  0  0
  183.3970  179.2690  144.0290 C   0  0  0  0  0  3  0  0  0  0  0  0
  181.8650  178.4560  140.7170 N   0  0  0  0  0  0  0  0  0  0  0  0
  190.1050  176.9930  136.9120 C   0  0  0  0  0  1  0  0  0  0  0  0
  182.4460  179.1160  143.0050 C   0  0  0  0  0  0  0  0  0  0  0  0
  188.7730  177.1870  139.0180 C   0  0  1  0  0  3  0  0  0  0  0  0
  185.0660  178.1480  142.6750 C   0  0  0  0  0  0  0  0  0  0  0  0
  184.2270  177.5110  138.8400 C   0  0  0  0  0  0  0  0  0  0  0  0
  187.5560  177.8610  139.6050 C   0  0  2  0  0  3  0  0  0  0  0  0
  185.3060  178.0290  138.6950 C   0  0  0  0  0  0  0  0  0  0  0  0
  184.7020  178.8030  143.8590 C   0  0  0  0  0  3  0  0  0  0  0  0
  180.1230  178.8800  143.8310 C   0  0  0  0  0  1  0  0  0  0  0  0
  181.1420  179.6020  143.1540 O   0  0  0  0  0  0  0  0  0  0  0  0
  187.1450  177.0920  143.6370 C   0  0  2  0  0  3  0  0  0  0  0  0
  187.7550  178.1070  144.5910 C   0  0  0  0  0  1  0  0  0  0  0  0
  189.5720  176.3720  143.8180 C   0  0  0  0  0  1  0  0  0  0  0  0
  188.1950  176.0430  143.2580 C   0  0  0  0  0  2  0  0  0  0  0  0
  2 15  2  0  0  0  0
  3  2  1  0  0  0  0
  4 19  1  0  0  0  0
  4 26  1  1  0  0  0
  5 16  1  6  0  0  0
  5 18  1  0  0  0  0
  6  1  1  0  0  0  0
  6  5  1  0  0  0  0
  7 17  1  0  0  0  0
  8  4  1  0  0  0  0
  9  1  1  6  0  0  0
  9 22  1  0  0  0  0
  9 21  1  0  0  0  0
 10 11  1  0  0  0  0
 10  8  1  1  0  0  0
 12  7  2  0  0  0  0
 12 19  1  0  0  0  0
 13 11  1  0  0  0  0
 15  7  1  0  0  0  0
 17 25  1  0  0  0  0
 17 14  2  0  0  0  0
 18 21  1  0  0  0  0
 18 13  1  1  0  0  0
 19 23  2  0  0  0  0
 20  3  1  0  0  0  0
 21 10  1  0  0  0  0
 22 20  3  0  0  0  0
 23 14  1  0  0  0  0
 25 24  1  0  0  0  0
 26 27  1  0  0  0  0
 29 26  1  0  0  0  0
 29 28  1  0  0  0  0
M  END
>  <MODEL>
1

>  <REMARK>
 VINA RESULT:      -7.6      0.000      0.000
  Name = 
  3 active torsions:
  status: ('A' for Active; 'I' for Inactive)
    1  A    between atoms: C_4  and  C_16
    2  A    between atoms: C_16  and  C_17
    3  A    between atoms: O_21  and  C_22
                            x       y       z     vdW  Elec       q    Type
                         _______ _______ _______ _____ _____    ______ ____

>  <TORSDO>
F 3

$$$$
=
 OpenBabel11062416233D

 29 32  0  0  1  0  0  0  0  0999 V2000
  184.0920  177.4890  136.8300 C   0  0  0  0  0  2  0  0  0  0  0  0
  189.3940  177.6920  139.1800 C   0  0  0  0  0  3  0  0  0  0  0  0
  188.4900  178.7550  138.6330 C   0  0  0  0  0  2  0  0  0  0  0  0
  184.8930  178.7570  141.9370 C   0  0  2  0  0  3  0  0  0  0  0  0
  181.8680  178.4870  137.4540 C   0  0  2  0  0  3  0  0  0  0  0  0
  182.5880  177.2960  136.8170 C   0  0  0  0  0  2  0  0  0  0  0  0
  188.4160  177.4190  141.4580 C   0  0  0  0  0  0  0  0  0  0  0  0
  183.9570  177.5970  141.5690 C   0  0  0  0  0  2  0  0  0  0  0  0
  184.5780  177.5090  138.2730 C   0  0  2  0  0  3  0  0  0  0  0  0
  183.0860  177.8270  140.3260 C   0  0  1  0  0  3  0  0  0  0  0  0
  181.9260  178.5600  140.6420 O   0  0  0  0  0  0  0  0  0  0  0  0
  187.1940  178.0710  141.2540 C   0  0  0  0  0  3  0  0  0  0  0  0
  181.7920  179.5750  139.6730 C   0  0  0  0  0  2  0  0  0  0  0  0
  187.7350  176.9730  143.7490 C   0  0  0  0  0  3  0  0  0  0  0  0
  189.3440  177.1790  140.3800 N   0  0  0  0  0  0  0  0  0  0  0  0
  181.3840  179.4310  136.3710 C   0  0  0  0  0  1  0  0  0  0  0  0
  188.6900  176.8680  142.7220 C   0  0  0  0  0  0  0  0  0  0  0  0
  182.6890  179.2730  138.4960 C   0  0  1  0  0  3  0  0  0  0  0  0
  186.2420  178.1750  142.2660 C   0  0  0  0  0  0  0  0  0  0  0  0
  187.1340  178.2540  138.3910 C   0  0  0  0  0  0  0  0  0  0  0  0
  183.7970  178.4930  139.1640 C   0  0  2  0  0  3  0  0  0  0  0  0
  185.9890  177.8910  138.2950 C   0  0  0  0  0  0  0  0  0  0  0  0
  186.5140  177.6070  143.5180 C   0  0  0  0  0  3  0  0  0  0  0  0
  190.9760  176.7890  143.6730 C   0  0  0  0  0  1  0  0  0  0  0  0
  189.9080  176.2120  142.9340 O   0  0  0  0  0  0  0  0  0  0  0  0
  184.3520  179.6300  143.0900 C   0  0  2  0  0  3  0  0  0  0  0  0
  185.4480  180.1620  143.9990 C   0  0  0  0  0  1  0  0  0  0  0  0
  183.6590  178.8480  145.4020 C   0  0  0  0  0  1  0  0  0  0  0  0
  183.2940  178.9030  143.9250 C   0  0  0  0  0  2  0  0  0  0  0  0
  2 15  2  0  0  0  0
  3  2  1  0  0  0  0
  4 19  1  0  0  0  0
  4 26  1  1  0  0  0
  5 16  1  6  0  0  0
  5 18  1  0  0  0  0
  6  1  1  0  0  0  0
  6  5  1  0  0  0  0
  7 17  1  0  0  0  0
  8  4  1  0  0  0  0
  9  1  1  6  0  0  0
  9 22  1  0  0  0  0
  9 21  1  0  0  0  0
 10 11  1  0  0  0  0
 10  8  1  1  0  0  0
 12  7  2  0  0  0  0
 12 19  1  0  0  0  0
 13 11  1  0  0  0  0
 15  7  1  0  0  0  0
 17 25  1  0  0  0  0
 17 14  2  0  0  0  0
 18 21  1  0  0  0  0
 18 13  1  1  0  0  0
 19 23  2  0  0  0  0
 20  3  1  0  0  0  0
 21 10  1  0  0  0  0
 22 20  3  0  0  0  0
 23 14  1  0  0  0  0
 25 24  1  0  0  0  0
 26 29  1  0  0  0  0
 26 27  1  0  0  0  0
 29 28  1  0  0  0  0
M  END
>  <MODEL>
2

>  <REMARK>
 VINA RESULT:      -6.5      2.132      5.892
  Name = 
  3 active torsions:
  status: ('A' for Active; 'I' for Inactive)
    1  A    between atoms: C_4  and  C_16
    2  A    between atoms: C_16  and  C_17
    3  A    between atoms: O_21  and  C_22
                            x       y       z     vdW  Elec       q    Type
                         _______ _______ _______ _____ _____    ______ ____

>  <TORSDO>
F 3

$$$$
=
 OpenBabel11062416233D

 29 32  0  0  1  0  0  0  0  0999 V2000
  182.4950  175.8960  137.7790 C   0  0  0  0  0  2  0  0  0  0  0  0
  186.4370  178.5430  141.1160 C   0  0  0  0  0  3  0  0  0  0  0  0
  185.6060  179.0190  139.9620 C   0  0  0  0  0  2  0  0  0  0  0  0
  181.1280  178.9600  141.9110 C   0  0  2  0  0  3  0  0  0  0  0  0
  180.0490  176.2790  137.3320 C   0  0  2  0  0  3  0  0  0  0  0  0
  181.1650  175.2410  137.4590 C   0  0  0  0  0  2  0  0  0  0  0  0
  184.7720  178.7380  142.9620 C   0  0  0  0  0  0  0  0  0  0  0  0
  180.6320  177.5090  141.8310 C   0  0  0  0  0  2  0  0  0  0  0  0
  182.4110  176.5440  139.1540 C   0  0  2  0  0  3  0  0  0  0  0  0
  180.2440  177.0260  140.4260 C   0  0  1  0  0  3  0  0  0  0  0  0
  178.9310  177.4110  140.0970 O   0  0  0  0  0  0  0  0  0  0  0  0
  183.6060  178.8600  142.1970 C   0  0  0  0  0  3  0  0  0  0  0  0
  178.9640  177.9510  138.7950 C   0  0  0  0  0  2  0  0  0  0  0  0
  183.4070  178.8780  144.9680 C   0  0  0  0  0  3  0  0  0  0  0  0
  186.0550  178.4660  142.3620 N   0  0  0  0  0  0  0  0  0  0  0  0
  179.8170  176.6070  135.8700 C   0  0  0  0  0  1  0  0  0  0  0  0
  184.6700  178.7520  144.3630 C   0  0  0  0  0  0  0  0  0  0  0  0
  180.2680  177.5820  138.1260 C   0  0  1  0  0  3  0  0  0  0  0  0
  182.3510  178.9820  142.7890 C   0  0  0  0  0  0  0  0  0  0  0  0
  184.5540  178.0610  139.6090 C   0  0  0  0  0  0  0  0  0  0  0  0
  181.1860  177.4620  139.3200 C   0  0  2  0  0  3  0  0  0  0  0  0
  183.6150  177.3410  139.3800 C   0  0  0  0  0  0  0  0  0  0  0  0
  182.2540  178.9760  144.1870 C   0  0  0  0  0  3  0  0  0  0  0  0
  185.8130  178.6290  146.5570 C   0  0  0  0  0  1  0  0  0  0  0  0
  185.8300  178.6280  145.1360 O   0  0  0  0  0  0  0  0  0  0  0  0
  180.0480  179.9430  142.4130 C   0  0  2  0  0  3  0  0  0  0  0  0
  179.0100  179.2810  143.3060 C   0  0  0  0  0  1  0  0  0  0  0  0
  180.2920  180.9660  140.1050 C   0  0  0  0  0  1  0  0  0  0  0  0
  179.3510  180.6800  141.2660 C   0  0  0  0  0  2  0  0  0  0  0  0
  2 15  2  0  0  0  0
  3  2  1  0  0  0  0
  4 26  1  1  0  0  0
  4 19  1  0  0  0  0
  5 16  1  6  0  0  0
  5  6  1  0  0  0  0
  5 18  1  0  0  0  0
  6  1  1  0  0  0  0
  7 17  1  0  0  0  0
  8  4  1  0  0  0  0
  9  1  1  6  0  0  0
  9 21  1  0  0  0  0
  9 22  1  0  0  0  0
 10  8  1  1  0  0  0
 11 10  1  0  0  0  0
 12 19  1  0  0  0  0
 12  7  2  0  0  0  0
 13 11  1  0  0  0  0
 15  7  1  0  0  0  0
 17 14  2  0  0  0  0
 17 25  1  0  0  0  0
 18 13  1  1  0  0  0
 18 21  1  0  0  0  0
 19 23  2  0  0  0  0
 20  3  1  0  0  0  0
 21 10  1  0  0  0  0
 22 20  3  0  0  0  0
 23 14  1  0  0  0  0
 25 24  1  0  0  0  0
 26 27  1  0  0  0  0
 28 29  1  0  0  0  0
 29 26  1  0  0  0  0
M  END
>  <MODEL>
3

>  <REMARK>
 VINA RESULT:      -6.4      2.936      6.760
  Name = 
  3 active torsions:
  status: ('A' for Active; 'I' for Inactive)
    1  A    between atoms: C_4  and  C_16
    2  A    between atoms: C_16  and  C_17
    3  A    between atoms: O_21  and  C_22
                            x       y       z     vdW  Elec       q    Type
                         _______ _______ _______ _____ _____    ______ ____

>  <TORSDO>
F 3

$$$$
=
 OpenBabel11062416233D

 29 32  0  0  1  0  0  0  0  0999 V2000
  186.0700  177.1960  145.9020 C   0  0  0  0  0  2  0  0  0  0  0  0
  185.1910  179.0620  140.4770 C   0  0  0  0  0  3  0  0  0  0  0  0
  185.6690  179.7530  141.7180 C   0  0  0  0  0  2  0  0  0  0  0  0
  190.0280  177.6490  142.3730 C   0  0  2  0  0  3  0  0  0  0  0  0
  188.0910  177.0650  147.3950 C   0  0  2  0  0  3  0  0  0  0  0  0
  186.7610  176.4180  147.0050 C   0  0  0  0  0  2  0  0  0  0  0  0
  187.3100  177.9750  139.7390 C   0  0  0  0  0  0  0  0  0  0  0  0
  189.7690  176.3070  143.0710 C   0  0  0  0  0  2  0  0  0  0  0  0
  186.9180  177.1270  144.6390 C   0  0  2  0  0  3  0  0  0  0  0  0
  189.3700  176.4040  144.5500 C   0  0  1  0  0  3  0  0  0  0  0  0
  190.5030  176.5260  145.3780 O   0  0  0  0  0  0  0  0  0  0  0  0
  188.0480  178.1030  140.9210 C   0  0  0  0  0  3  0  0  0  0  0  0
  190.2450  177.5690  146.2920 C   0  0  0  0  0  2  0  0  0  0  0  0
  189.2160  176.8510  138.7330 C   0  0  0  0  0  3  0  0  0  0  0  0
  185.9190  178.3480  139.6620 N   0  0  0  0  0  0  0  0  0  0  0  0
  187.9000  177.9250  148.6290 C   0  0  0  0  0  1  0  0  0  0  0  0
  187.9040  177.3460  138.6320 C   0  0  0  0  0  0  0  0  0  0  0  0
  188.7700  177.8940  146.2870 C   0  0  1  0  0  3  0  0  0  0  0  0
  189.3480  177.6110  141.0310 C   0  0  0  0  0  0  0  0  0  0  0  0
  185.9860  178.8040  142.7900 C   0  0  0  0  0  0  0  0  0  0  0  0
  188.3900  177.5140  144.8750 C   0  0  2  0  0  3  0  0  0  0  0  0
  186.3600  178.0350  143.6390 C   0  0  0  0  0  0  0  0  0  0  0  0
  189.9270  176.9680  139.9280 C   0  0  0  0  0  3  0  0  0  0  0  0
  187.3190  178.0970  136.3450 C   0  0  0  0  0  1  0  0  0  0  0  0
  187.1720  177.2110  137.4460 O   0  0  0  0  0  0  0  0  0  0  0  0
  191.5300  177.9840  142.2410 C   0  0  2  0  0  3  0  0  0  0  0  0
  192.3980  176.7530  142.0320 C   0  0  0  0  0  1  0  0  0  0  0  0
  191.0220  179.7700  143.9690 C   0  0  0  0  0  1  0  0  0  0  0  0
  192.0560  178.7910  143.4310 C   0  0  0  0  0  2  0  0  0  0  0  0
  1  6  1  0  0  0  0
  2  3  1  0  0  0  0
  3 20  1  0  0  0  0
  4 26  1  6  0  0  0
  4  8  1  0  0  0  0
  5 16  1  1  0  0  0
  6  5  1  0  0  0  0
  7 12  1  0  0  0  0
  9 22  1  6  0  0  0
  9 21  1  0  0  0  0
  9  1  1  0  0  0  0
 10  8  1  6  0  0  0
 10 21  1  0  0  0  0
 10 11  1  0  0  0  0
 11 13  1  0  0  0  0
 12 19  2  0  0  0  0
 14 23  2  0  0  0  0
 15  7  1  0  0  0  0
 15  2  2  0  0  0  0
 17 14  1  0  0  0  0
 17  7  2  0  0  0  0
 18 13  1  6  0  0  0
 18  5  1  0  0  0  0
 19  4  1  0  0  0  0
 20 22  3  0  0  0  0
 21 18  1  0  0  0  0
 23 19  1  0  0  0  0
 24 25  1  0  0  0  0
 25 17  1  0  0  0  0
 26 29  1  0  0  0  0
 27 26  1  0  0  0  0
 29 28  1  0  0  0  0
M  END
>  <MODEL>
4

>  <REMARK>
 VINA RESULT:      -6.3      2.881      6.567
  Name = 
  3 active torsions:
  status: ('A' for Active; 'I' for Inactive)
    1  A    between atoms: C_4  and  C_16
    2  A    between atoms: C_16  and  C_17
    3  A    between atoms: O_21  and  C_22
                            x       y       z     vdW  Elec       q    Type
                         _______ _______ _______ _____ _____    ______ ____

>  <TORSDO>
F 3

$$$$
=
 OpenBabel11062416233D

 29 32  0  0  1  0  0  0  0  0999 V2000
  183.7180  174.5960  135.9390 C   0  0  0  0  0  2  0  0  0  0  0  0
  187.9460  178.1080  137.8020 C   0  0  0  0  0  3  0  0  0  0  0  0
  186.8050  178.3150  136.8510 C   0  0  0  0  0  2  0  0  0  0  0  0
  182.9770  178.0980  139.8770 C   0  0  2  0  0  3  0  0  0  0  0  0
  181.2080  174.6540  136.0920 C   0  0  2  0  0  3  0  0  0  0  0  0
  182.4530  173.7670  136.0530 C   0  0  0  0  0  2  0  0  0  0  0  0
  186.7630  178.4120  139.9760 C   0  0  0  0  0  0  0  0  0  0  0  0
  182.6800  176.6090  140.1050 C   0  0  0  0  0  2  0  0  0  0  0  0
  183.8800  175.4340  137.2000 C   0  0  2  0  0  3  0  0  0  0  0  0
  182.0360  175.8810  138.9160 C   0  0  1  0  0  3  0  0  0  0  0  0
  180.6420  176.0750  138.8910 O   0  0  0  0  0  0  0  0  0  0  0  0
  185.4410  178.2970  139.5270 C   0  0  0  0  0  3  0  0  0  0  0  0
  180.2880  176.4110  137.5680 C   0  0  0  0  0  2  0  0  0  0  0  0
  185.9130  178.7160  142.2330 C   0  0  0  0  0  3  0  0  0  0  0  0
  187.8890  178.1840  139.1040 N   0  0  0  0  0  0  0  0  0  0  0  0
  180.5900  174.7300  134.7100 C   0  0  0  0  0  1  0  0  0  0  0  0
  186.9990  178.6290  141.3440 C   0  0  0  0  0  0  0  0  0  0  0  0
  181.4310  176.0790  136.6380 C   0  0  1  0  0  3  0  0  0  0  0  0
  184.3600  178.3780  140.4020 C   0  0  0  0  0  0  0  0  0  0  0  0
  185.8400  177.2130  136.9000 C   0  0  0  0  0  0  0  0  0  0  0  0
  182.6160  176.2370  137.5610 C   0  0  2  0  0  3  0  0  0  0  0  0
  184.9810  176.3750  137.0090 C   0  0  0  0  0  0  0  0  0  0  0  0
  184.6040  178.5760  141.7680 C   0  0  0  0  0  3  0  0  0  0  0  0
  188.9440  177.7470  142.5980 C   0  0  0  0  0  1  0  0  0  0  0  0
  188.3160  178.7430  141.8020 O   0  0  0  0  0  0  0  0  0  0  0  0
  181.9250  179.0310  140.5160 C   0  0  2  0  0  3  0  0  0  0  0  0
  181.0100  178.3140  141.4950 C   0  0  0  0  0  1  0  0  0  0  0  0
  181.7710  179.8210  138.1100 C   0  0  0  0  0  1  0  0  0  0  0  0
  181.0870  179.7690  139.4690 C   0  0  0  0  0  2  0  0  0  0  0  0
  1  6  1  0  0  0  0
  2 15  2  0  0  0  0
  3 20  1  0  0  0  0
  3  2  1  0  0  0  0
  4  8  1  0  0  0  0
  4 19  1  0  0  0  0
  4 26  1  1  0  0  0
  5 16  1  6  0  0  0
  5 18  1  0  0  0  0
  6  5  1  0  0  0  0
  7 17  1  0  0  0  0
  9  1  1  6  0  0  0
  9 21  1  0  0  0  0
 10  8  1  1  0  0  0
 11 10  1  0  0  0  0
 12  7  2  0  0  0  0
 12 19  1  0  0  0  0
 13 11  1  0  0  0  0
 15  7  1  0  0  0  0
 17 25  1  0  0  0  0
 17 14  2  0  0  0  0
 18 21  1  0  0  0  0
 18 13  1  1  0  0  0
 19 23  2  0  0  0  0
 20 22  3  0  0  0  0
 21 10  1  0  0  0  0
 22  9  1  0  0  0  0
 23 14  1  0  0  0  0
 25 24  1  0  0  0  0
 26 27  1  0  0  0  0
 28 29  1  0  0  0  0
 29 26  1  0  0  0  0
M  END
>  <MODEL>
5

>  <REMARK>
 VINA RESULT:      -6.0      2.767      6.607
  Name = 
  3 active torsions:
  status: ('A' for Active; 'I' for Inactive)
    1  A    between atoms: C_4  and  C_16
    2  A    between atoms: C_16  and  C_17
    3  A    between atoms: O_21  and  C_22
                            x       y       z     vdW  Elec       q    Type
                         _______ _______ _______ _____ _____    ______ ____

>  <TORSDO>
F 3

$$$$
=
 OpenBabel11062416233D

 29 32  0  0  1  0  0  0  0  0999 V2000
  184.2310  179.3590  140.4600 C   0  0  0  0  0  2  0  0  0  0  0  0
  188.0610  177.4900  144.3990 C   0  0  0  0  0  3  0  0  0  0  0  0
  186.9830  176.7910  143.6280 C   0  0  0  0  0  2  0  0  0  0  0  0
  188.7800  176.9620  139.0890 C   0  0  2  0  0  3  0  0  0  0  0  0
  183.7930  178.7940  138.0480 C   0  0  2  0  0  3  0  0  0  0  0  0
  183.7720  179.8890  139.1160 C   0  0  0  0  0  2  0  0  0  0  0  0
  189.8710  177.5250  142.6850 C   0  0  0  0  0  0  0  0  0  0  0  0
  188.4470  178.3540  138.5360 C   0  0  0  0  0  2  0  0  0  0  0  0
  185.6920  178.9450  140.3590 C   0  0  2  0  0  3  0  0  0  0  0  0
  186.9710  178.5790  138.1740 C   0  0  1  0  0  3  0  0  0  0  0  0
  186.6780  178.0830  136.8890 O   0  0  0  0  0  0  0  0  0  0  0  0
  189.1080  177.2230  141.5510 C   0  0  0  0  0  3  0  0  0  0  0  0
  185.4860  177.3370  136.9880 C   0  0  0  0  0  2  0  0  0  0  0  0
  191.8380  177.6560  141.2610 C   0  0  0  0  0  3  0  0  0  0  0  0
  189.2670  177.7540  143.9740 N   0  0  0  0  0  0  0  0  0  0  0  0
  182.4000  178.2170  137.8790 C   0  0  0  0  0  1  0  0  0  0  0  0
  191.2520  177.7390  142.5370 C   0  0  0  0  0  0  0  0  0  0  0  0
  184.7980  177.6510  138.2960 C   0  0  1  0  0  3  0  0  0  0  0  0
  189.6810  177.1430  140.2820 C   0  0  0  0  0  0  0  0  0  0  0  0
  186.4480  177.6260  142.5480 C   0  0  0  0  0  0  0  0  0  0  0  0
  185.9780  178.0100  139.1690 C   0  0  2  0  0  3  0  0  0  0  0  0
  186.0780  178.2530  141.5870 C   0  0  0  0  0  0  0  0  0  0  0  0
  191.0550  177.3760  140.1400 C   0  0  0  0  0  3  0  0  0  0  0  0
  191.9360  179.2890  144.3430 C   0  0  0  0  0  1  0  0  0  0  0  0
  192.0230  178.0440  143.6650 O   0  0  0  0  0  0  0  0  0  0  0  0
  189.4120  176.0260  138.0360 C   0  0  2  0  0  3  0  0  0  0  0  0
  190.1210  176.7780  136.9210 C   0  0  0  0  0  1  0  0  0  0  0  0
  188.3500  175.1210  135.9170 C   0  0  0  0  0  1  0  0  0  0  0  0
  188.3950  175.0500  137.4370 C   0  0  0  0  0  2  0  0  0  0  0  0
  3  2  1  0  0  0  0
  4 26  1  6  0  0  0
  4 19  1  0  0  0  0
  5 16  1  1  0  0  0
  5 18  1  0  0  0  0
  5  6  1  0  0  0  0
  6  1  1  0  0  0  0
  7 15  1  0  0  0  0
  8  4  1  0  0  0  0
  9  1  1  1  0  0  0
  9 22  1  0  0  0  0
 10  8  1  1  0  0  0
 10 21  1  0  0  0  0
 11 13  1  0  0  0  0
 11 10  1  0  0  0  0
 12  7  2  0  0  0  0
 14 17  2  0  0  0  0
 15  2  2  0  0  0  0
 17  7  1  0  0  0  0
 17 25  1  0  0  0  0
 18 13  1  6  0  0  0
 18 21  1  0  0  0  0
 19 12  1  0  0  0  0
 20  3  1  0  0  0  0
 21  9  1  0  0  0  0
 22 20  3  0  0  0  0
 23 19  2  0  0  0  0
 23 14  1  0  0  0  0
 25 24  1  0  0  0  0
 27 26  1  0  0  0  0
 28 29  1  0  0  0  0
 29 26  1  0  0  0  0
M  END
>  <MODEL>
6

>  <REMARK>
 VINA RESULT:      -6.0      2.919      6.527
  Name = 
  3 active torsions:
  status: ('A' for Active; 'I' for Inactive)
    1  A    between atoms: C_4  and  C_16
    2  A    between atoms: C_16  and  C_17
    3  A    between atoms: O_21  and  C_22
                            x       y       z     vdW  Elec       q    Type
                         _______ _______ _______ _____ _____    ______ ____

>  <TORSDO>
F 3

$$$$
=
 OpenBabel11062416233D

 29 32  0  0  1  0  0  0  0  0999 V2000
  188.4960  176.8940  144.2460 C   0  0  0  0  0  2  0  0  0  0  0  0
  183.6790  178.7610  141.6020 C   0  0  0  0  0  3  0  0  0  0  0  0
  184.8730  179.4810  142.1520 C   0  0  0  0  0  2  0  0  0  0  0  0
  188.3680  178.0540  139.0530 C   0  0  2  0  0  3  0  0  0  0  0  0
  190.9490  177.0310  143.7020 C   0  0  2  0  0  3  0  0  0  0  0  0
  189.8400  176.1990  144.3490 C   0  0  0  0  0  2  0  0  0  0  0  0
  184.5850  178.0350  139.3960 C   0  0  0  0  0  0  0  0  0  0  0  0
  188.8330  176.6670  139.5210 C   0  0  0  0  0  2  0  0  0  0  0  0
  188.0990  176.9940  142.7790 C   0  0  2  0  0  3  0  0  0  0  0  0
  189.6840  176.6580  140.7990 C   0  0  1  0  0  3  0  0  0  0  0  0
  191.0360  176.9290  140.5150 O   0  0  0  0  0  0  0  0  0  0  0  0
  185.9480  178.2400  139.6380 C   0  0  0  0  0  3  0  0  0  0  0  0
  191.4760  177.8930  141.4460 C   0  0  0  0  0  2  0  0  0  0  0  0
  185.1530  177.2460  137.1670 C   0  0  0  0  0  3  0  0  0  0  0  0
  183.5930  178.1920  140.4310 N   0  0  0  0  0  0  0  0  0  0  0  0
  191.6890  177.8150  144.7680 C   0  0  0  0  0  1  0  0  0  0  0  0
  184.1840  177.5370  138.1440 C   0  0  0  0  0  0  0  0  0  0  0  0
  190.4870  177.9870  142.5840 C   0  0  1  0  0  3  0  0  0  0  0  0
  186.9150  177.9500  138.6760 C   0  0  0  0  0  0  0  0  0  0  0  0
  185.9640  178.5610  142.4890 C   0  0  0  0  0  0  0  0  0  0  0  0
  189.2040  177.5950  141.8910 C   0  0  2  0  0  3  0  0  0  0  0  0
  186.9090  177.8340  142.6630 C   0  0  0  0  0  0  0  0  0  0  0  0
  186.5090  177.4370  137.4370 C   0  0  0  0  0  3  0  0  0  0  0  0
  182.0400  178.2070  137.1010 C   0  0  0  0  0  1  0  0  0  0  0  0
  182.8230  177.3260  137.8940 O   0  0  0  0  0  0  0  0  0  0  0  0
  189.2190  178.6180  137.8940 C   0  0  2  0  0  3  0  0  0  0  0  0
  188.4110  179.4560  136.9170 C   0  0  0  0  0  1  0  0  0  0  0  0
  189.5240  177.4050  135.6870 C   0  0  0  0  0  1  0  0  0  0  0  0
  189.9740  177.5220  137.1360 C   0  0  0  0  0  2  0  0  0  0  0  0
  1  6  1  0  0  0  0
  2  3  1  0  0  0  0
  3 20  1  0  0  0  0
  4 26  1  6  0  0  0
  4  8  1  0  0  0  0
  5  6  1  0  0  0  0
  5 16  1  1  0  0  0
  7 12  1  0  0  0  0
  7 15  1  0  0  0  0
  9 22  1  1  0  0  0
  9  1  1  0  0  0  0
 10  8  1  6  0  0  0
 10 21  1  0  0  0  0
 11 10  1  0  0  0  0
 11 13  1  0  0  0  0
 14 23  2  0  0  0  0
 14 17  1  0  0  0  0
 15  2  2  0  0  0  0
 17  7  2  0  0  0  0
 18 13  1  6  0  0  0
 18  5  1  0  0  0  0
 19  4  1  0  0  0  0
 19 12  2  0  0  0  0
 20 22  3  0  0  0  0
 21 18  1  0  0  0  0
 21  9  1  0  0  0  0
 23 19  1  0  0  0  0
 24 25  1  0  0  0  0
 25 17  1  0  0  0  0
 27 26  1  0  0  0  0
 28 29  1  0  0  0  0
 29 26  1  0  0  0  0
M  END
>  <MODEL>
7

>  <REMARK>
 VINA RESULT:      -5.8      1.889      5.374
  Name = 
  3 active torsions:
  status: ('A' for Active; 'I' for Inactive)
    1  A    between atoms: C_4  and  C_16
    2  A    between atoms: C_16  and  C_17
    3  A    between atoms: O_21  and  C_22
                            x       y       z     vdW  Elec       q    Type
                         _______ _______ _______ _____ _____    ______ ____

>  <TORSDO>
F 3

$$$$
=
 OpenBabel11062416233D

 29 32  0  0  1  0  0  0  0  0999 V2000
  189.1750  175.0220  136.5250 C   0  0  0  0  0  2  0  0  0  0  0  0
  183.9700  172.4660  136.7670 C   0  0  0  0  0  3  0  0  0  0  0  0
  185.0460  172.6660  137.7910 C   0  0  0  0  0  2  0  0  0  0  0  0
  184.8740  177.5030  138.4410 C   0  0  2  0  0  3  0  0  0  0  0  0
  190.2140  176.9780  137.7170 C   0  0  2  0  0  3  0  0  0  0  0  0
  190.1460  176.1810  136.4130 C   0  0  0  0  0  2  0  0  0  0  0  0
  182.8580  174.6960  136.8630 C   0  0  0  0  0  0  0  0  0  0  0  0
  185.6770  178.1310  137.2930 C   0  0  0  0  0  2  0  0  0  0  0  0
  187.7670  175.5690  136.7180 C   0  0  2  0  0  3  0  0  0  0  0  0
  187.2010  177.9700  137.3950 C   0  0  1  0  0  3  0  0  0  0  0  0
  187.7650  178.9570  138.2260 O   0  0  0  0  0  0  0  0  0  0  0  0
  183.8510  175.4090  137.5460 C   0  0  0  0  0  3  0  0  0  0  0  0
  188.6590  178.3090  139.1030 C   0  0  0  0  0  2  0  0  0  0  0  0
  181.5310  176.7310  136.7750 C   0  0  0  0  0  3  0  0  0  0  0  0
  183.0570  173.3360  136.4280 N   0  0  0  0  0  0  0  0  0  0  0  0
  191.4160  176.5330  138.5270 C   0  0  0  0  0  1  0  0  0  0  0  0
  181.6830  175.3650  136.4790 C   0  0  0  0  0  0  0  0  0  0  0  0
  188.9480  176.9160  138.5940 C   0  0  1  0  0  3  0  0  0  0  0  0
  183.7090  176.7640  137.8390 C   0  0  0  0  0  0  0  0  0  0  0  0
  186.0730  173.6070  137.3350 C   0  0  0  0  0  0  0  0  0  0  0  0
  187.6680  176.6030  137.8550 C   0  0  2  0  0  3  0  0  0  0  0  0
  186.8630  174.4630  137.0230 C   0  0  0  0  0  0  0  0  0  0  0  0
  182.5430  177.4300  137.4360 C   0  0  0  0  0  3  0  0  0  0  0  0
  179.4510  174.2960  136.3930 C   0  0  0  0  0  1  0  0  0  0  0  0
  180.6870  174.6610  135.7940 O   0  0  0  0  0  0  0  0  0  0  0  0
  184.4120  178.5350  139.4930 C   0  0  2  0  0  3  0  0  0  0  0  0
  184.1840  179.9200  138.9080 C   0  0  0  0  0  1  0  0  0  0  0  0
  184.6850  178.3360  142.0070 C   0  0  0  0  0  1  0  0  0  0  0  0
  185.3740  178.6280  140.6820 C   0  0  0  0  0  2  0  0  0  0  0  0
  2  3  1  0  0  0  0
  4 26  1  1  0  0  0
  5 16  1  1  0  0  0
  5 18  1  0  0  0  0
  6  1  1  0  0  0  0
  6  5  1  0  0  0  0
  7 12  1  0  0  0  0
  8  4  1  0  0  0  0
  9  1  1  1  0  0  0
  9 22  1  0  0  0  0
  9 21  1  0  0  0  0
 10  8  1  1  0  0  0
 10 21  1  0  0  0  0
 10 11  1  0  0  0  0
 11 13  1  0  0  0  0
 12 19  2  0  0  0  0
 14 23  2  0  0  0  0
 15  2  2  0  0  0  0
 15  7  1  0  0  0  0
 17 14  1  0  0  0  0
 17  7  2  0  0  0  0
 18 13  1  6  0  0  0
 19  4  1  0  0  0  0
 20  3  1  0  0  0  0
 21 18  1  0  0  0  0
 22 20  3  0  0  0  0
 23 19  1  0  0  0  0
 25 24  1  0  0  0  0
 25 17  1  0  0  0  0
 26 29  1  0  0  0  0
 27 26  1  0  0  0  0
 29 28  1  0  0  0  0
M  END
>  <MODEL>
8

>  <REMARK>
 VINA RESULT:      -5.7      3.337      5.292
  Name = 
  3 active torsions:
  status: ('A' for Active; 'I' for Inactive)
    1  A    between atoms: C_4  and  C_16
    2  A    between atoms: C_16  and  C_17
    3  A    between atoms: O_21  and  C_22
                            x       y       z     vdW  Elec       q    Type
                         _______ _______ _______ _____ _____    ______ ____

>  <TORSDO>
F 3

$$$$
=
 OpenBabel11062416233D

 29 32  0  0  1  0  0  0  0  0999 V2000
  185.0510  178.8890  144.2620 C   0  0  0  0  0  2  0  0  0  0  0  0
  190.0650  176.2550  142.9940 C   0  0  0  0  0  3  0  0  0  0  0  0
  188.6680  175.7390  143.1700 C   0  0  0  0  0  2  0  0  0  0  0  0
  186.4350  177.6570  139.2720 C   0  0  2  0  0  3  0  0  0  0  0  0
  182.8550  179.1320  143.0580 C   0  0  2  0  0  3  0  0  0  0  0  0
  183.8560  179.7880  144.0110 C   0  0  0  0  0  2  0  0  0  0  0  0
  189.9310  177.0860  140.6470 C   0  0  0  0  0  0  0  0  0  0  0  0
  186.0790  179.1050  139.6370 C   0  0  0  0  0  2  0  0  0  0  0  0
  185.8190  178.7100  142.9590 C   0  0  2  0  0  3  0  0  0  0  0  0
  184.9180  179.2640  140.6300 C   0  0  1  0  0  3  0  0  0  0  0  0
  183.6730  179.2050  139.9750 O   0  0  0  0  0  0  0  0  0  0  0  0
  188.5390  177.1010  140.4960 C   0  0  0  0  0  3  0  0  0  0  0  0
  182.8490  178.3350  140.7180 C   0  0  0  0  0  2  0  0  0  0  0  0
  190.1320  177.9250  138.3740 C   0  0  0  0  0  3  0  0  0  0  0  0
  190.5600  176.7890  141.9100 N   0  0  0  0  0  0  0  0  0  0  0  0
  181.7360  178.4880  143.8520 C   0  0  0  0  0  1  0  0  0  0  0  0
  190.7350  177.4980  139.5710 C   0  0  0  0  0  0  0  0  0  0  0  0
  183.4560  178.1010  142.0810 C   0  0  1  0  0  3  0  0  0  0  0  0
  187.9340  177.5260  139.3150 C   0  0  0  0  0  0  0  0  0  0  0  0
  187.6830  176.8230  143.2210 C   0  0  0  0  0  0  0  0  0  0  0  0
  184.9250  178.2780  141.7820 C   0  0  2  0  0  3  0  0  0  0  0  0
  186.8500  177.6920  143.1500 C   0  0  0  0  0  0  0  0  0  0  0  0
  188.7420  177.9530  138.2520 C   0  0  0  0  0  3  0  0  0  0  0  0
  192.9850  176.7580  138.8500 C   0  0  0  0  0  1  0  0  0  0  0  0
  192.1270  177.4900  139.7130 O   0  0  0  0  0  0  0  0  0  0  0  0
  185.8630  177.2180  137.9070 C   0  0  2  0  0  3  0  0  0  0  0  0
  185.7500  178.3620  136.9130 C   0  0  0  0  0  1  0  0  0  0  0  0
  183.4420  177.1370  137.1540 C   0  0  0  0  0  1  0  0  0  0  0  0
  184.5100  176.5130  138.0400 C   0  0  0  0  0  2  0  0  0  0  0  0
  2  3  1  0  0  0  0
  3 20  1  0  0  0  0
  4 26  1  6  0  0  0
  4 19  1  0  0  0  0
  4  8  1  0  0  0  0
  5 16  1  1  0  0  0
  5  6  1  0  0  0  0
  6  1  1  0  0  0  0
  7 15  1  0  0  0  0
  9 22  1  1  0  0  0
  9  1  1  0  0  0  0
 10  8  1  6  0  0  0
 10 21  1  0  0  0  0
 11 10  1  0  0  0  0
 11 13  1  0  0  0  0
 12  7  1  0  0  0  0
 14 17  1  0  0  0  0
 15  2  2  0  0  0  0
 17 25  1  0  0  0  0
 17  7  2  0  0  0  0
 18 13  1  6  0  0  0
 18  5  1  0  0  0  0
 19 12  2  0  0  0  0
 21 18  1  0  0  0  0
 21  9  1  0  0  0  0
 22 20  3  0  0  0  0
 23 14  2  0  0  0  0
 23 19  1  0  0  0  0
 24 25  1  0  0  0  0
 26 29  1  0  0  0  0
 27 26  1  0  0  0  0
 28 29  1  0  0  0  0
M  END
>  <MODEL>
9

>  <REMARK>
 VINA RESULT:      -5.6      2.253      7.477
  Name = 
  3 active torsions:
  status: ('A' for Active; 'I' for Inactive)
    1  A    between atoms: C_4  and  C_16
    2  A    between atoms: C_16  and  C_17
    3  A    between atoms: O_21  and  C_22
                            x       y       z     vdW  Elec       q    Type
                         _______ _______ _______ _____ _____    ______ ____

>  <TORSDO>
F 3

$$$$
