=
 OpenBabel11062413523D

 25 27  0  0  1  0  0  0  0  0999 V2000
  186.9490  177.9500  140.2160 C   0  0  0  0  0  2  0  0  0  0  0  0
  187.7730  178.2500  141.4650 C   0  0  1  0  0  3  0  0  0  0  0  0
  189.6380  177.1800  139.2450 C   0  0  0  0  0  2  0  0  0  0  0  0
  189.4620  175.5730  143.0870 O   0  0  0  0  0  0  0  0  0  0  0  0
  186.9620  178.0060  142.7070 C   0  0  0  0  0  0  0  0  0  0  0  0
  188.8410  177.2650  141.5710 N   0  0  0  0  0  0  0  0  0  0  0  0
  185.0780  179.1970  146.3330 O   0  0  0  0  0  0  0  0  0  0  0  0
  185.7410  178.6100  145.4410 C   0  0  0  0  0  0  0  0  0  0  0  0
  189.0580  178.5240  138.8240 C   0  0  0  0  0  2  0  0  0  0  0  0
  188.7220  176.5480  142.7920 C   0  0  0  0  0  0  0  0  0  0  0  0
  185.0210  178.1960  144.1930 C   0  0  0  0  0  2  0  0  0  0  0  0
  185.7790  178.5720  142.9590 C   0  0  0  0  0  3  0  0  0  0  0  0
  187.5300  178.5940  138.9520 C   0  0  1  0  0  3  0  0  0  0  0  0
  187.1410  178.3600  145.6760 N   0  0  0  0  0  0  0  0  0  0  0  0
  187.6000  177.0260  143.6450 C   0  0  1  0  0  3  0  0  0  0  0  0
  190.0240  177.2220  140.7180 C   0  0  0  0  0  2  0  0  0  0  0  0
  188.0130  177.7290  144.9360 C   0  0  0  0  0  0  0  0  0  0  0  0
  192.0360  177.3100  146.6420 O   0  0  0  0  0  0  0  0  0  0  0  0
  189.3980  177.6830  145.4560 C   0  0  0  0  0  0  0  0  0  0  0  0
  190.2250  178.5570  145.0800 O   0  0  0  0  0  0  0  0  0  0  0  0
  189.8210  176.6120  146.3100 N   0  0  0  0  0  2  0  0  0  0  0  0
  191.4250  175.2940  147.7370 C   0  0  0  0  0  1  0  0  0  0  0  0
  191.1300  176.4640  146.8690 C   0  0  0  0  0  0  0  0  0  0  0  0
  186.9330  178.0260  137.8240 O   0  0  0  0  0  0  0  0  0  0  0  0
  185.5610  178.1980  138.0200 C   0  0  0  0  0  1  0  0  0  0  0  0
  2  1  1  6  0  0  0
  2  6  1  0  0  0  0
  2  5  1  0  0  0  0
  3 16  1  0  0  0  0
  5 12  2  0  0  0  0
  6 10  1  0  0  0  0
  8 14  1  0  0  0  0
  8  7  2  0  0  0  0
  9 13  1  0  0  0  0
  9  3  1  0  0  0  0
 10  4  2  0  0  0  0
 10 15  1  0  0  0  0
 11  8  1  0  0  0  0
 12 11  1  0  0  0  0
 13 24  1  6  0  0  0
 13  1  1  0  0  0  0
 15  5  1  6  0  0  0
 15 17  1  0  0  0  0
 16  6  1  0  0  0  0
 17 19  1  0  0  0  0
 17 14  2  0  0  0  0
 18 23  2  0  0  0  0
 19 21  1  0  0  0  0
 20 19  2  0  0  0  0
 21 23  1  0  0  0  0
 23 22  1  0  0  0  0
 24 25  1  0  0  0  0
M  END
>  <MODEL>
1

>  <REMARK>
 VINA RESULT:      -8.1      0.000      0.000
  Name = 
  2 active torsions:
  status: ('A' for Active; 'I' for Inactive)
    1  A    between atoms: C_6  and  C_23
    2  A    between atoms: C_16  and  O_18
                            x       y       z     vdW  Elec       q    Type
                         _______ _______ _______ _____ _____    ______ ____

>  <TORSDO>
F 2

$$$$
=
 OpenBabel11062413523D

 25 27  0  0  1  0  0  0  0  0999 V2000
  185.8970  178.0580  145.5890 C   0  0  0  0  0  2  0  0  0  0  0  0
  187.2510  178.3230  144.9370 C   0  0  1  0  0  3  0  0  0  0  0  0
  185.0260  178.5820  142.8080 C   0  0  0  0  0  2  0  0  0  0  0  0
  188.3720  176.1340  142.3670 O   0  0  0  0  0  0  0  0  0  0  0  0
  188.3250  177.5050  145.5970 C   0  0  0  0  0  0  0  0  0  0  0  0
  187.2280  177.8000  143.5780 N   0  0  0  0  0  0  0  0  0  0  0  0
  191.9390  177.0030  147.7900 O   0  0  0  0  0  0  0  0  0  0  0  0
  191.0020  176.9350  146.9550 C   0  0  0  0  0  0  0  0  0  0  0  0
  184.8690  179.6820  143.8500 C   0  0  0  0  0  2  0  0  0  0  0  0
  188.2390  176.8140  143.4190 C   0  0  0  0  0  0  0  0  0  0  0  0
  189.6320  176.6050  147.4680 C   0  0  0  0  0  2  0  0  0  0  0  0
  188.5890  177.5210  146.9060 C   0  0  0  0  0  3  0  0  0  0  0  0
  184.8700  179.1570  145.2920 C   0  0  1  0  0  3  0  0  0  0  0  0
  191.3010  177.1620  145.5650 N   0  0  0  0  0  0  0  0  0  0  0  0
  189.0710  176.6270  144.6390 C   0  0  1  0  0  3  0  0  0  0  0  0
  186.5000  178.4000  142.4660 C   0  0  0  0  0  2  0  0  0  0  0  0
  190.5200  177.0940  144.5190 C   0  0  0  0  0  0  0  0  0  0  0  0
  192.1510  177.8690  140.5180 O   0  0  0  0  0  0  0  0  0  0  0  0
  191.1410  177.4290  143.2180 C   0  0  0  0  0  0  0  0  0  0  0  0
  192.0380  178.3150  143.1760 O   0  0  0  0  0  0  0  0  0  0  0  0
  190.6750  176.8180  142.0080 N   0  0  0  0  0  2  0  0  0  0  0  0
  190.6070  176.3590  139.5320 C   0  0  0  0  0  1  0  0  0  0  0  0
  191.1970  177.0660  140.6990 C   0  0  0  0  0  0  0  0  0  0  0  0
  183.5930  178.7050  145.6330 O   0  0  0  0  0  0  0  0  0  0  0  0
  182.7660  179.1550  144.6020 C   0  0  0  0  0  1  0  0  0  0  0  0
  2  1  1  1  0  0  0
  2  5  1  0  0  0  0
  3  9  1  0  0  0  0
  4 10  2  0  0  0  0
  5 12  2  0  0  0  0
  6  2  1  0  0  0  0
  8 11  1  0  0  0  0
  8  7  2  0  0  0  0
  9 13  1  0  0  0  0
 10  6  1  0  0  0  0
 12 11  1  0  0  0  0
 13  1  1  0  0  0  0
 13 24  1  6  0  0  0
 14  8  1  0  0  0  0
 15 10  1  6  0  0  0
 15  5  1  0  0  0  0
 16  3  1  0  0  0  0
 16  6  1  0  0  0  0
 17 15  1  0  0  0  0
 17 14  2  0  0  0  0
 18 23  2  0  0  0  0
 19 17  1  0  0  0  0
 20 19  2  0  0  0  0
 21 19  1  0  0  0  0
 22 23  1  0  0  0  0
 23 21  1  0  0  0  0
 25 24  1  0  0  0  0
M  END
>  <MODEL>
2

>  <REMARK>
 VINA RESULT:      -7.4      2.138      5.239
  Name = 
  2 active torsions:
  status: ('A' for Active; 'I' for Inactive)
    1  A    between atoms: C_6  and  C_23
    2  A    between atoms: C_16  and  O_18
                            x       y       z     vdW  Elec       q    Type
                         _______ _______ _______ _____ _____    ______ ____

>  <TORSDO>
F 2

$$$$
=
 OpenBabel11062413523D

 25 27  0  0  1  0  0  0  0  0999 V2000
  187.6710  178.1120  139.8840 C   0  0  0  0  0  2  0  0  0  0  0  0
  187.9900  178.2780  141.3670 C   0  0  1  0  0  3  0  0  0  0  0  0
  190.2870  176.7290  139.9970 C   0  0  0  0  0  2  0  0  0  0  0  0
  188.2870  175.3700  143.3930 O   0  0  0  0  0  0  0  0  0  0  0  0
  186.7290  178.2730  142.1840 C   0  0  0  0  0  0  0  0  0  0  0  0
  188.6900  177.0890  141.8330 N   0  0  0  0  0  0  0  0  0  0  0  0
  183.8960  180.0070  144.8470 O   0  0  0  0  0  0  0  0  0  0  0  0
  184.7070  179.2490  144.2550 C   0  0  0  0  0  0  0  0  0  0  0  0
  190.2250  178.1470  139.4460 C   0  0  0  0  0  2  0  0  0  0  0  0
  187.9530  176.4700  142.8790 C   0  0  0  0  0  0  0  0  0  0  0  0
  184.4560  178.9490  142.8080 C   0  0  0  0  0  2  0  0  0  0  0  0
  185.6960  179.0950  141.9830 C   0  0  0  0  0  3  0  0  0  0  0  0
  188.8230  178.5550  138.9750 C   0  0  1  0  0  3  0  0  0  0  0  0
  185.8140  178.7100  145.0030 N   0  0  0  0  0  0  0  0  0  0  0  0
  186.7210  177.2190  143.2500 C   0  0  1  0  0  3  0  0  0  0  0  0
  190.0700  176.7500  141.5050 C   0  0  0  0  0  2  0  0  0  0  0  0
  186.7450  177.8720  144.6310 C   0  0  0  0  0  0  0  0  0  0  0  0
  190.0220  176.9320  147.3960 O   0  0  0  0  0  0  0  0  0  0  0  0
  187.7720  177.5460  145.6450 C   0  0  0  0  0  0  0  0  0  0  0  0
  187.4210  177.3870  146.8460 O   0  0  0  0  0  0  0  0  0  0  0  0
  189.1600  177.4930  145.2880 N   0  0  0  0  0  2  0  0  0  0  0  0
  191.6300  177.1780  145.6670 C   0  0  0  0  0  1  0  0  0  0  0  0
  190.2360  177.1910  146.1820 C   0  0  0  0  0  0  0  0  0  0  0  0
  188.6010  178.0830  137.6790 O   0  0  0  0  0  0  0  0  0  0  0  0
  187.2370  177.7910  137.6320 C   0  0  0  0  0  1  0  0  0  0  0  0
  2  1  1  6  0  0  0
  2  6  1  0  0  0  0
  2  5  1  0  0  0  0
  3 16  1  0  0  0  0
  6 10  1  0  0  0  0
  8  7  2  0  0  0  0
  8 14  1  0  0  0  0
  9  3  1  0  0  0  0
 10 15  1  0  0  0  0
 10  4  2  0  0  0  0
 11  8  1  0  0  0  0
 12  5  2  0  0  0  0
 12 11  1  0  0  0  0
 13 24  1  6  0  0  0
 13  9  1  0  0  0  0
 13  1  1  0  0  0  0
 15  5  1  6  0  0  0
 15 17  1  0  0  0  0
 16  6  1  0  0  0  0
 17 14  2  0  0  0  0
 17 19  1  0  0  0  0
 19 20  2  0  0  0  0
 21 19  1  0  0  0  0
 21 23  1  0  0  0  0
 22 23  1  0  0  0  0
 23 18  2  0  0  0  0
 25 24  1  0  0  0  0
M  END
>  <MODEL>
3

>  <REMARK>
 VINA RESULT:      -7.4      1.430      1.586
  Name = 
  2 active torsions:
  status: ('A' for Active; 'I' for Inactive)
    1  A    between atoms: C_6  and  C_23
    2  A    between atoms: C_16  and  O_18
                            x       y       z     vdW  Elec       q    Type
                         _______ _______ _______ _____ _____    ______ ____

>  <TORSDO>
F 2

$$$$
=
 OpenBabel11062413523D

 25 27  0  0  1  0  0  0  0  0999 V2000
  190.0650  177.1810  145.8460 C   0  0  0  0  0  2  0  0  0  0  0  0
  188.9070  178.0270  145.3270 C   0  0  1  0  0  3  0  0  0  0  0  0
  188.4780  177.4420  148.3320 C   0  0  0  0  0  2  0  0  0  0  0  0
  185.6220  176.6630  145.3960 O   0  0  0  0  0  0  0  0  0  0  0  0
  188.6160  177.7040  143.8890 C   0  0  0  0  0  0  0  0  0  0  0  0
  187.6850  177.6200  146.0090 N   0  0  0  0  0  0  0  0  0  0  0  0
  188.2830  178.6520  139.7520 O   0  0  0  0  0  0  0  0  0  0  0  0
  188.0990  178.2410  140.9260 C   0  0  0  0  0  0  0  0  0  0  0  0
  189.7140  178.3130  148.1500 C   0  0  0  0  0  2  0  0  0  0  0  0
  186.7290  177.1640  145.0630 C   0  0  0  0  0  0  0  0  0  0  0  0
  189.1370  177.3360  141.5200 C   0  0  0  0  0  2  0  0  0  0  0  0
  189.5180  177.7570  142.9060 C   0  0  0  0  0  3  0  0  0  0  0  0
  190.7020  177.7580  147.1150 C   0  0  1  0  0  3  0  0  0  0  0  0
  186.9050  178.6510  141.6200 N   0  0  0  0  0  0  0  0  0  0  0  0
  187.1980  177.2770  143.6550 C   0  0  1  0  0  3  0  0  0  0  0  0
  187.3690  177.9190  147.4020 C   0  0  0  0  0  2  0  0  0  0  0  0
  186.4710  178.3180  142.8060 C   0  0  0  0  0  0  0  0  0  0  0  0
  182.5670  180.0160  143.8740 O   0  0  0  0  0  0  0  0  0  0  0  0
  185.2080  178.9560  143.2410 C   0  0  0  0  0  0  0  0  0  0  0  0
  185.2370  179.7970  144.1800 O   0  0  0  0  0  0  0  0  0  0  0  0
  183.9550  178.5630  142.6640 N   0  0  0  0  0  2  0  0  0  0  0  0
  181.4600  178.5970  142.3260 C   0  0  0  0  0  1  0  0  0  0  0  0
  182.6770  179.1080  143.0080 C   0  0  0  0  0  0  0  0  0  0  0  0
  191.5170  176.7920  147.7080 O   0  0  0  0  0  0  0  0  0  0  0  0
  191.9890  176.0190  146.6450 C   0  0  0  0  0  1  0  0  0  0  0  0
  1 13  1  0  0  0  0
  2  1  1  1  0  0  0
  2  6  1  0  0  0  0
  5  2  1  0  0  0  0
  6 16  1  0  0  0  0
  7  8  2  0  0  0  0
  8 11  1  0  0  0  0
  8 14  1  0  0  0  0
  9  3  1  0  0  0  0
 10  4  2  0  0  0  0
 10  6  1  0  0  0  0
 11 12  1  0  0  0  0
 12  5  2  0  0  0  0
 13 24  1  1  0  0  0
 13  9  1  0  0  0  0
 14 17  2  0  0  0  0
 15 17  1  6  0  0  0
 15  5  1  0  0  0  0
 15 10  1  0  0  0  0
 16  3  1  0  0  0  0
 17 19  1  0  0  0  0
 19 20  2  0  0  0  0
 21 23  1  0  0  0  0
 21 19  1  0  0  0  0
 22 23  1  0  0  0  0
 23 18  2  0  0  0  0
 25 24  1  0  0  0  0
M  END
>  <MODEL>
4

>  <REMARK>
 VINA RESULT:      -7.4      2.178      7.042
  Name = 
  2 active torsions:
  status: ('A' for Active; 'I' for Inactive)
    1  A    between atoms: C_6  and  C_23
    2  A    between atoms: C_16  and  O_18
                            x       y       z     vdW  Elec       q    Type
                         _______ _______ _______ _____ _____    ______ ____

>  <TORSDO>
F 2

$$$$
=
 OpenBabel11062413523D

 25 27  0  0  1  0  0  0  0  0999 V2000
  184.5900  178.3100  145.1060 C   0  0  0  0  0  2  0  0  0  0  0  0
  186.0670  178.5170  144.7850 C   0  0  1  0  0  3  0  0  0  0  0  0
  184.5070  178.0500  142.1580 C   0  0  0  0  0  2  0  0  0  0  0  0
  187.8780  175.8610  143.2630 O   0  0  0  0  0  0  0  0  0  0  0  0
  186.9310  177.9840  145.8920 C   0  0  0  0  0  0  0  0  0  0  0  0
  186.4240  177.6720  143.6530 N   0  0  0  0  0  0  0  0  0  0  0  0
  189.8140  178.3500  149.0030 O   0  0  0  0  0  0  0  0  0  0  0  0
  189.1410  177.9970  148.0010 C   0  0  0  0  0  0  0  0  0  0  0  0
  184.0560  179.3570  142.7970 C   0  0  0  0  0  2  0  0  0  0  0  0
  187.4530  176.7670  144.0270 C   0  0  0  0  0  0  0  0  0  0  0  0
  187.6880  177.6910  148.2070 C   0  0  0  0  0  2  0  0  0  0  0  0
  186.8270  178.3470  147.1730 C   0  0  0  0  0  3  0  0  0  0  0  0
  183.6690  179.2090  144.2740 C   0  0  1  0  0  3  0  0  0  0  0  0
  189.8060  177.8960  146.7270 N   0  0  0  0  0  0  0  0  0  0  0  0
  187.9230  176.9600  145.4260 C   0  0  1  0  0  3  0  0  0  0  0  0
  186.0200  177.9140  142.2720 C   0  0  0  0  0  2  0  0  0  0  0  0
  189.3430  177.5040  145.5700 C   0  0  0  0  0  0  0  0  0  0  0  0
  191.8920  177.6450  142.0000 O   0  0  0  0  0  0  0  0  0  0  0  0
  190.2910  177.5550  144.4360 C   0  0  0  0  0  0  0  0  0  0  0  0
  191.5250  177.6700  144.6720 O   0  0  0  0  0  0  0  0  0  0  0  0
  189.8130  177.5600  143.0840 N   0  0  0  0  0  2  0  0  0  0  0  0
  189.9950  177.6120  140.5730 C   0  0  0  0  0  1  0  0  0  0  0  0
  190.6350  177.6090  141.9140 C   0  0  0  0  0  0  0  0  0  0  0  0
  182.3540  178.7510  144.3770 O   0  0  0  0  0  0  0  0  0  0  0  0
  181.6760  179.3680  143.3240 C   0  0  0  0  0  1  0  0  0  0  0  0
  2  1  1  1  0  0  0
  2  5  1  0  0  0  0
  3 16  1  0  0  0  0
  3  9  1  0  0  0  0
  4 10  2  0  0  0  0
  5 12  2  0  0  0  0
  6 10  1  0  0  0  0
  6  2  1  0  0  0  0
  8 11  1  0  0  0  0
  8  7  2  0  0  0  0
  9 13  1  0  0  0  0
 12 11  1  0  0  0  0
 13 24  1  6  0  0  0
 13  1  1  0  0  0  0
 14  8  1  0  0  0  0
 15 10  1  6  0  0  0
 15 17  1  0  0  0  0
 15  5  1  0  0  0  0
 16  6  1  0  0  0  0
 17 14  2  0  0  0  0
 19 20  2  0  0  0  0
 19 17  1  0  0  0  0
 21 19  1  0  0  0  0
 22 23  1  0  0  0  0
 23 18  2  0  0  0  0
 23 21  1  0  0  0  0
 25 24  1  0  0  0  0
M  END
>  <MODEL>
5

>  <REMARK>
 VINA RESULT:      -7.3      2.339      4.673
  Name = 
  2 active torsions:
  status: ('A' for Active; 'I' for Inactive)
    1  A    between atoms: C_6  and  C_23
    2  A    between atoms: C_16  and  O_18
                            x       y       z     vdW  Elec       q    Type
                         _______ _______ _______ _____ _____    ______ ____

>  <TORSDO>
F 2

$$$$
=
 OpenBabel11062413523D

 25 27  0  0  1  0  0  0  0  0999 V2000
  187.6490  177.8170  144.6040 C   0  0  0  0  0  2  0  0  0  0  0  0
  186.6540  177.5330  143.4820 C   0  0  1  0  0  3  0  0  0  0  0  0
  189.5300  177.3830  142.3590 C   0  0  0  0  0  2  0  0  0  0  0  0
  186.5260  179.7530  140.7050 O   0  0  0  0  0  0  0  0  0  0  0  0
  185.3830  178.3070  143.6910 C   0  0  0  0  0  0  0  0  0  0  0  0
  187.1760  178.0890  142.2400 N   0  0  0  0  0  0  0  0  0  0  0  0
  181.1920  178.6630  144.3450 O   0  0  0  0  0  0  0  0  0  0  0  0
  182.3740  178.7750  143.9320 C   0  0  0  0  0  0  0  0  0  0  0  0
  189.3140  176.2620  143.3690 C   0  0  0  0  0  2  0  0  0  0  0  0
  186.2710  179.0520  141.7200 C   0  0  0  0  0  0  0  0  0  0  0  0
  183.4330  179.1280  144.9330 C   0  0  0  0  0  2  0  0  0  0  0  0
  184.6410  178.2530  144.8000 C   0  0  0  0  0  3  0  0  0  0  0  0
  188.7470  176.7530  144.7080 C   0  0  1  0  0  3  0  0  0  0  0  0
  182.6350  178.5730  142.5300 N   0  0  0  0  0  0  0  0  0  0  0  0
  185.0300  179.1880  142.5310 C   0  0  1  0  0  3  0  0  0  0  0  0
  188.2930  177.5340  141.4830 C   0  0  0  0  0  2  0  0  0  0  0  0
  183.7520  178.6870  141.8620 C   0  0  0  0  0  0  0  0  0  0  0  0
  183.4990  177.4200  137.6670 O   0  0  0  0  0  0  0  0  0  0  0  0
  183.6860  178.3670  140.4190 C   0  0  0  0  0  0  0  0  0  0  0  0
  183.7850  179.3020  139.5780 O   0  0  0  0  0  0  0  0  0  0  0  0
  183.4260  177.0270  139.9790 N   0  0  0  0  0  2  0  0  0  0  0  0
  183.0590  175.1780  138.3100 C   0  0  0  0  0  1  0  0  0  0  0  0
  183.3380  176.6050  138.6140 C   0  0  0  0  0  0  0  0  0  0  0  0
  189.7810  177.2290  145.5160 O   0  0  0  0  0  0  0  0  0  0  0  0
  189.2050  177.3950  146.7760 C   0  0  0  0  0  1  0  0  0  0  0  0
  1 13  1  0  0  0  0
  2  5  1  0  0  0  0
  2  1  1  1  0  0  0
  3  9  1  0  0  0  0
  4 10  2  0  0  0  0
  5 12  2  0  0  0  0
  6  2  1  0  0  0  0
  8  7  2  0  0  0  0
  8 11  1  0  0  0  0
  9 13  1  0  0  0  0
 10  6  1  0  0  0  0
 12 11  1  0  0  0  0
 13 24  1  1  0  0  0
 14  8  1  0  0  0  0
 15 10  1  6  0  0  0
 15  5  1  0  0  0  0
 16  6  1  0  0  0  0
 16  3  1  0  0  0  0
 17 14  2  0  0  0  0
 17 15  1  0  0  0  0
 18 23  2  0  0  0  0
 19 17  1  0  0  0  0
 20 19  2  0  0  0  0
 21 19  1  0  0  0  0
 22 23  1  0  0  0  0
 23 21  1  0  0  0  0
 24 25  1  0  0  0  0
M  END
>  <MODEL>
6

>  <REMARK>
 VINA RESULT:      -7.2      2.733      6.573
  Name = 
  2 active torsions:
  status: ('A' for Active; 'I' for Inactive)
    1  A    between atoms: C_6  and  C_23
    2  A    between atoms: C_16  and  O_18
                            x       y       z     vdW  Elec       q    Type
                         _______ _______ _______ _____ _____    ______ ____

>  <TORSDO>
F 2

$$$$
=
 OpenBabel11062413523D

 25 27  0  0  1  0  0  0  0  0999 V2000
  187.9790  178.1140  141.7070 C   0  0  0  0  0  2  0  0  0  0  0  0
  188.6990  177.1480  140.7710 C   0  0  1  0  0  3  0  0  0  0  0  0
  189.7960  176.7980  143.6390 C   0  0  0  0  0  2  0  0  0  0  0  0
  192.2080  177.5010  140.3120 O   0  0  0  0  0  0  0  0  0  0  0  0
  188.8290  177.7400  139.3960 C   0  0  0  0  0  0  0  0  0  0  0  0
  190.0830  177.0170  141.2050 N   0  0  0  0  0  0  0  0  0  0  0  0
  188.1320  177.8390  135.1980 O   0  0  0  0  0  0  0  0  0  0  0  0
  188.6340  177.8670  136.3500 C   0  0  0  0  0  0  0  0  0  0  0  0
  188.3340  176.3740  143.5940 C   0  0  0  0  0  2  0  0  0  0  0  0
  190.9600  177.4240  140.1640 C   0  0  0  0  0  0  0  0  0  0  0  0
  188.0590  178.8340  137.3400 C   0  0  0  0  0  2  0  0  0  0  0  0
  187.8040  178.1900  138.6670 C   0  0  0  0  0  3  0  0  0  0  0  0
  187.4160  177.4250  142.9550 C   0  0  1  0  0  3  0  0  0  0  0  0
  189.7340  176.9830  136.6420 N   0  0  0  0  0  0  0  0  0  0  0  0
  190.2480  177.8100  138.9150 C   0  0  1  0  0  3  0  0  0  0  0  0
  190.5190  176.2950  142.3950 C   0  0  0  0  0  2  0  0  0  0  0  0
  190.4470  176.8670  137.7310 C   0  0  0  0  0  0  0  0  0  0  0  0
  193.7400  173.9730  137.5140 O   0  0  0  0  0  0  0  0  0  0  0  0
  191.4920  175.8200  137.7180 C   0  0  0  0  0  0  0  0  0  0  0  0
  191.2910  174.7430  138.3430 O   0  0  0  0  0  0  0  0  0  0  0  0
  192.7530  176.0550  137.0750 N   0  0  0  0  0  2  0  0  0  0  0  0
  195.0870  175.5080  136.3040 C   0  0  0  0  0  1  0  0  0  0  0  0
  193.8340  175.1200  137.0020 C   0  0  0  0  0  0  0  0  0  0  0  0
  187.0670  178.3890  143.9020 O   0  0  0  0  0  0  0  0  0  0  0  0
  186.4470  177.6750  144.9290 C   0  0  0  0  0  1  0  0  0  0  0  0
  1 13  1  0  0  0  0
  2  6  1  0  0  0  0
  2  1  1  1  0  0  0
  5  2  1  0  0  0  0
  6 16  1  0  0  0  0
  7  8  2  0  0  0  0
  8 14  1  0  0  0  0
  8 11  1  0  0  0  0
  9  3  1  0  0  0  0
 10  4  2  0  0  0  0
 10  6  1  0  0  0  0
 11 12  1  0  0  0  0
 12  5  2  0  0  0  0
 13  9  1  0  0  0  0
 13 24  1  1  0  0  0
 14 17  2  0  0  0  0
 15 17  1  6  0  0  0
 15  5  1  0  0  0  0
 15 10  1  0  0  0  0
 16  3  1  0  0  0  0
 19 17  1  0  0  0  0
 19 20  2  0  0  0  0
 21 19  1  0  0  0  0
 22 23  1  0  0  0  0
 23 21  1  0  0  0  0
 23 18  2  0  0  0  0
 24 25  1  0  0  0  0
M  END
>  <MODEL>
7

>  <REMARK>
 VINA RESULT:      -6.9      3.360      7.111
  Name = 
  2 active torsions:
  status: ('A' for Active; 'I' for Inactive)
    1  A    between atoms: C_6  and  C_23
    2  A    between atoms: C_16  and  O_18
                            x       y       z     vdW  Elec       q    Type
                         _______ _______ _______ _____ _____    ______ ____

>  <TORSDO>
F 2

$$$$
=
 OpenBabel11062413523D

 25 27  0  0  1  0  0  0  0  0999 V2000
  187.1470  177.9070  144.5990 C   0  0  0  0  0  2  0  0  0  0  0  0
  186.1580  177.5800  143.4840 C   0  0  1  0  0  3  0  0  0  0  0  0
  189.0350  177.4900  142.3560 C   0  0  0  0  0  2  0  0  0  0  0  0
  185.9640  179.7530  140.6740 O   0  0  0  0  0  0  0  0  0  0  0  0
  184.8670  178.3220  143.6850 C   0  0  0  0  0  0  0  0  0  0  0  0
  186.6620  178.1310  142.2330 N   0  0  0  0  0  0  0  0  0  0  0  0
  180.6690  178.5730  144.3440 O   0  0  0  0  0  0  0  0  0  0  0  0
  181.8470  178.7120  143.9270 C   0  0  0  0  0  0  0  0  0  0  0  0
  188.8510  176.3800  143.3820 C   0  0  0  0  0  2  0  0  0  0  0  0
  185.7300  179.0600  141.7000 C   0  0  0  0  0  0  0  0  0  0  0  0
  182.8990  179.1080  144.9190 C   0  0  0  0  0  2  0  0  0  0  0  0
  184.1290  178.2640  144.7970 C   0  0  0  0  0  3  0  0  0  0  0  0
  188.2740  176.8750  144.7160 C   0  0  1  0  0  3  0  0  0  0  0  0
  182.1100  178.4960  142.5270 N   0  0  0  0  0  0  0  0  0  0  0  0
  184.4880  179.1760  142.5130 C   0  0  1  0  0  3  0  0  0  0  0  0
  187.7920  177.5950  141.4810 C   0  0  0  0  0  2  0  0  0  0  0  0
  183.2230  178.6290  141.8550 C   0  0  0  0  0  0  0  0  0  0  0  0
  182.8510  177.8850  137.5450 O   0  0  0  0  0  0  0  0  0  0  0  0
  183.1610  178.2870  140.4170 C   0  0  0  0  0  0  0  0  0  0  0  0
  183.8060  177.2880  139.9950 O   0  0  0  0  0  0  0  0  0  0  0  0
  182.4480  179.1240  139.4960 N   0  0  0  0  0  2  0  0  0  0  0  0
  181.5530  179.8520  137.2580 C   0  0  0  0  0  1  0  0  0  0  0  0
  182.3230  178.8920  138.0900 C   0  0  0  0  0  0  0  0  0  0  0  0
  189.2970  177.3910  145.5130 O   0  0  0  0  0  0  0  0  0  0  0  0
  188.7360  177.5070  146.7860 C   0  0  0  0  0  1  0  0  0  0  0  0
  1 13  1  0  0  0  0
  2  5  1  0  0  0  0
  2  1  1  1  0  0  0
  3  9  1  0  0  0  0
  4 10  2  0  0  0  0
  5 12  2  0  0  0  0
  6  2  1  0  0  0  0
  8  7  2  0  0  0  0
  8 11  1  0  0  0  0
  9 13  1  0  0  0  0
 10  6  1  0  0  0  0
 12 11  1  0  0  0  0
 13 24  1  1  0  0  0
 14  8  1  0  0  0  0
 15 10  1  6  0  0  0
 15  5  1  0  0  0  0
 16  6  1  0  0  0  0
 16  3  1  0  0  0  0
 17 15  1  0  0  0  0
 17 14  2  0  0  0  0
 18 23  2  0  0  0  0
 19 17  1  0  0  0  0
 20 19  2  0  0  0  0
 21 19  1  0  0  0  0
 22 23  1  0  0  0  0
 23 21  1  0  0  0  0
 24 25  1  0  0  0  0
M  END
>  <MODEL>
8

>  <REMARK>
 VINA RESULT:      -6.9      3.090      7.083
  Name = 
  2 active torsions:
  status: ('A' for Active; 'I' for Inactive)
    1  A    between atoms: C_6  and  C_23
    2  A    between atoms: C_16  and  O_18
                            x       y       z     vdW  Elec       q    Type
                         _______ _______ _______ _____ _____    ______ ____

>  <TORSDO>
F 2

$$$$
=
 OpenBabel11062413523D

 25 27  0  0  1  0  0  0  0  0999 V2000
  185.6870  178.4400  144.4910 C   0  0  0  0  0  2  0  0  0  0  0  0
  185.0030  177.8930  143.2420 C   0  0  1  0  0  3  0  0  0  0  0  0
  188.0540  178.0200  142.7620 C   0  0  0  0  0  2  0  0  0  0  0  0
  185.2410  179.7400  140.2110 O   0  0  0  0  0  0  0  0  0  0  0  0
  183.6380  178.5000  143.0760 C   0  0  0  0  0  0  0  0  0  0  0  0
  185.7200  178.3710  142.0670 N   0  0  0  0  0  0  0  0  0  0  0  0
  179.3930  178.3380  142.8040 O   0  0  0  0  0  0  0  0  0  0  0  0
  180.6170  178.5670  142.6290 C   0  0  0  0  0  0  0  0  0  0  0  0
  187.7480  177.0030  143.8550 C   0  0  0  0  0  2  0  0  0  0  0  0
  184.8490  179.1310  141.2410 C   0  0  0  0  0  0  0  0  0  0  0  0
  181.3830  179.1760  143.7650 C   0  0  0  0  0  2  0  0  0  0  0  0
  182.6810  178.4700  144.0070 C   0  0  0  0  0  3  0  0  0  0  0  0
  186.8480  177.5590  144.9670 C   0  0  1  0  0  3  0  0  0  0  0  0
  181.2020  178.2440  141.3530 N   0  0  0  0  0  0  0  0  0  0  0  0
  183.4530  179.1850  141.7550 C   0  0  1  0  0  3  0  0  0  0  0  0
  187.0310  177.8950  141.6400 C   0  0  0  0  0  2  0  0  0  0  0  0
  182.4190  178.4360  140.9180 C   0  0  0  0  0  0  0  0  0  0  0  0
  183.3360  176.6840  137.0000 O   0  0  0  0  0  0  0  0  0  0  0  0
  182.7080  177.9470  139.5520 C   0  0  0  0  0  0  0  0  0  0  0  0
  182.5650  178.7320  138.5750 O   0  0  0  0  0  0  0  0  0  0  0  0
  183.0630  176.5760  139.3270 N   0  0  0  0  0  2  0  0  0  0  0  0
  183.7110  174.5520  137.9740 C   0  0  0  0  0  1  0  0  0  0  0  0
  183.3610  175.9940  138.0530 C   0  0  0  0  0  0  0  0  0  0  0  0
  187.6190  178.2650  145.8930 O   0  0  0  0  0  0  0  0  0  0  0  0
  188.5280  177.3300  146.3900 C   0  0  0  0  0  1  0  0  0  0  0  0
  1 13  1  0  0  0  0
  2  1  1  1  0  0  0
  3  9  1  0  0  0  0
  4 10  2  0  0  0  0
  5  2  1  0  0  0  0
  5 12  2  0  0  0  0
  6  2  1  0  0  0  0
  8  7  2  0  0  0  0
  8 11  1  0  0  0  0
  9 13  1  0  0  0  0
 10 15  1  0  0  0  0
 10  6  1  0  0  0  0
 11 12  1  0  0  0  0
 13 24  1  1  0  0  0
 14  8  1  0  0  0  0
 15 17  1  6  0  0  0
 15  5  1  0  0  0  0
 16  6  1  0  0  0  0
 16  3  1  0  0  0  0
 17 14  2  0  0  0  0
 18 23  2  0  0  0  0
 19 17  1  0  0  0  0
 20 19  2  0  0  0  0
 21 19  1  0  0  0  0
 22 23  1  0  0  0  0
 23 21  1  0  0  0  0
 24 25  1  0  0  0  0
M  END
>  <MODEL>
9

>  <REMARK>
 VINA RESULT:      -6.8      3.577      7.292
  Name = 
  2 active torsions:
  status: ('A' for Active; 'I' for Inactive)
    1  A    between atoms: C_6  and  C_23
    2  A    between atoms: C_16  and  O_18
                            x       y       z     vdW  Elec       q    Type
                         _______ _______ _______ _____ _____    ______ ____

>  <TORSDO>
F 2

$$$$
