=
 OpenBabel11062418093D

 25 28  0  0  1  0  0  0  0  0999 V2000
  188.9940  177.6840  147.7200 C   0  0  0  0  0  2  0  0  0  0  0  0
  187.5500  177.8910  147.6750 N   0  0  0  0  0  2  0  0  0  0  0  0
  189.0050  177.6550  145.2410 C   0  0  0  0  0  2  0  0  0  0  0  0
  183.4840  179.0560  145.3040 O   0  0  0  0  0  1  0  0  0  0  0  0
  186.8060  178.0230  143.9870 C   0  0  0  0  0  0  0  0  0  0  0  0
  184.8470  178.6110  147.6740 O   0  0  0  0  0  1  0  0  0  0  0  0
  187.4270  177.7910  142.6390 C   0  0  0  0  0  0  0  0  0  0  0  0
  185.5940  178.9260  141.5980 C   0  0  0  0  0  0  0  0  0  0  0  0
  185.5020  178.4430  146.4590 C   0  0  0  0  0  0  0  0  0  0  0  0
  184.8160  178.6570  145.2660 C   0  0  0  0  0  0  0  0  0  0  0  0
  187.5150  177.8730  145.2080 C   0  0  0  0  0  0  0  0  0  0  0  0
  185.2000  179.5680  140.5900 O   0  0  0  0  0  0  0  0  0  0  0  0
  189.6450  176.0030  142.8820 C   0  0  0  0  0  2  0  0  0  0  0  0
  188.5840  176.9720  142.4600 N   0  0  0  0  0  0  0  0  0  0  0  0
  186.8570  178.2620  141.5700 N   0  0  0  0  0  0  0  0  0  0  0  0
  185.4640  178.4780  144.0330 C   0  0  0  0  0  0  0  0  0  0  0  0
  189.4410  176.9020  146.4940 C   0  0  0  0  0  2  0  0  0  0  0  0
  184.6910  178.7610  142.7750 C   0  0  0  0  0  2  0  0  0  0  0  0
  189.6370  176.4080  141.5630 C   0  0  1  0  0  3  0  0  0  0  0  0
  186.8510  178.0800  146.4380 C   0  0  0  0  0  0  0  0  0  0  0  0
  190.7110  177.4640  141.2260 C   0  0  1  0  0  3  0  0  0  0  0  0
  191.9690  177.4380  142.0940 C   0  0  0  0  0  1  0  0  0  0  0  0
  191.0640  177.3710  139.8790 O   0  0  0  0  0  0  0  0  0  0  0  0
  189.8580  177.1750  139.2030 C   0  0  0  0  0  2  0  0  0  0  0  0
  189.3260  178.5070  138.7210 C   0  0  0  0  0  1  0  0  0  0  0  0
  2  1  1  0  0  0  0
  3 17  1  0  0  0  0
  5 16  2  0  0  0  0
  5 11  1  0  0  0  0
  7  5  1  0  0  0  0
  8 18  1  0  0  0  0
  9  6  1  0  0  0  0
 10  4  1  0  0  0  0
 10  9  2  0  0  0  0
 11  3  1  0  0  0  0
 11 20  2  0  0  0  0
 12  8  2  0  0  0  0
 14  7  1  0  0  0  0
 14 13  1  0  0  0  0
 15  8  1  0  0  0  0
 15  7  2  0  0  0  0
 16 10  1  0  0  0  0
 17  1  1  0  0  0  0
 18 16  1  0  0  0  0
 19 21  1  1  0  0  0
 19 14  1  0  0  0  0
 19 13  1  0  0  0  0
 20  9  1  0  0  0  0
 20  2  1  0  0  0  0
 21 22  1  1  0  0  0
 23 21  1  0  0  0  0
 24 23  1  0  0  0  0
 25 24  1  0  0  0  0
M  END
>  <MODEL>
1

>  <REMARK>
 VINA RESULT:      -9.7      0.000      0.000
  Name = 
  3 active torsions:
  status: ('A' for Active; 'I' for Inactive)
    1  A    between atoms: C_4  and  O_5
    2  A    between atoms: C_4  and  C_24
    3  A    between atoms: O_5  and  C_9
                            x       y       z     vdW  Elec       q    Type
                         _______ _______ _______ _____ _____    ______ ____

>  <TORSDO>
F 3

$$$$
=
 OpenBabel11062418093D

 25 28  0  0  1  0  0  0  0  0999 V2000
  188.6580  177.6190  147.9250 C   0  0  0  0  0  2  0  0  0  0  0  0
  187.2340  177.8610  147.7230 N   0  0  0  0  0  2  0  0  0  0  0  0
  188.9270  177.5160  145.4630 C   0  0  0  0  0  2  0  0  0  0  0  0
  183.4720  179.0570  144.9060 O   0  0  0  0  0  1  0  0  0  0  0  0
  186.8840  177.9010  143.9750 C   0  0  0  0  0  0  0  0  0  0  0  0
  184.5670  178.6490  147.4180 O   0  0  0  0  0  1  0  0  0  0  0  0
  187.6350  177.6130  142.7060 C   0  0  0  0  0  0  0  0  0  0  0  0
  185.9540  178.7620  141.4480 C   0  0  0  0  0  0  0  0  0  0  0  0
  185.3410  178.4280  146.2830 C   0  0  0  0  0  0  0  0  0  0  0  0
  184.7890  178.6230  145.0190 C   0  0  0  0  0  0  0  0  0  0  0  0
  187.4560  177.7700  145.2680 C   0  0  0  0  0  0  0  0  0  0  0  0
  185.6850  179.3830  140.3870 O   0  0  0  0  0  0  0  0  0  0  0  0
  189.7640  175.7780  143.2300 C   0  0  0  0  0  2  0  0  0  0  0  0
  188.7810  176.7600  142.6730 N   0  0  0  0  0  0  0  0  0  0  0  0
  187.1940  178.0650  141.5710 N   0  0  0  0  0  0  0  0  0  0  0  0
  185.5570  178.3910  143.8670 C   0  0  0  0  0  0  0  0  0  0  0  0
  189.2090  176.7900  146.7750 C   0  0  0  0  0  2  0  0  0  0  0  0
  184.9280  178.6550  142.5270 C   0  0  0  0  0  2  0  0  0  0  0  0
  189.9050  176.1430  141.9070 C   0  0  1  0  0  3  0  0  0  0  0  0
  186.6730  178.0300  146.4140 C   0  0  0  0  0  0  0  0  0  0  0  0
  191.0380  177.1610  141.6570 C   0  0  1  0  0  3  0  0  0  0  0  0
  191.3140  177.5080  140.1940 C   0  0  0  0  0  1  0  0  0  0  0  0
  190.7960  178.3290  142.3820 O   0  0  0  0  0  0  0  0  0  0  0  0
  191.8540  178.4150  143.2890 C   0  0  0  0  0  2  0  0  0  0  0  0
  191.5980  179.5490  144.2590 C   0  0  0  0  0  1  0  0  0  0  0  0
  2  1  1  0  0  0  0
  3 17  1  0  0  0  0
  4 10  1  0  0  0  0
  5 11  1  0  0  0  0
  7  5  1  0  0  0  0
  8 15  1  0  0  0  0
  8 18  1  0  0  0  0
  9 20  1  0  0  0  0
  9  6  1  0  0  0  0
 10  9  2  0  0  0  0
 11  3  1  0  0  0  0
 11 20  2  0  0  0  0
 12  8  2  0  0  0  0
 14  7  1  0  0  0  0
 14 13  1  0  0  0  0
 15  7  2  0  0  0  0
 16  5  2  0  0  0  0
 16 10  1  0  0  0  0
 17  1  1  0  0  0  0
 18 16  1  0  0  0  0
 19 21  1  1  0  0  0
 19 14  1  0  0  0  0
 19 13  1  0  0  0  0
 20  2  1  0  0  0  0
 21 22  1  6  0  0  0
 21 23  1  0  0  0  0
 23 24  1  0  0  0  0
 24 25  1  0  0  0  0
M  END
>  <MODEL>
2

>  <REMARK>
 VINA RESULT:      -9.1      0.963      1.712
  Name = 
  3 active torsions:
  status: ('A' for Active; 'I' for Inactive)
    1  A    between atoms: C_4  and  O_5
    2  A    between atoms: C_4  and  C_24
    3  A    between atoms: O_5  and  C_9
                            x       y       z     vdW  Elec       q    Type
                         _______ _______ _______ _____ _____    ______ ____

>  <TORSDO>
F 3

$$$$
=
 OpenBabel11062418093D

 25 28  0  0  1  0  0  0  0  0999 V2000
  191.2990  177.1470  147.2470 C   0  0  0  0  0  2  0  0  0  0  0  0
  189.9390  177.2770  147.7570 N   0  0  0  0  0  2  0  0  0  0  0  0
  190.3890  177.3290  144.9490 C   0  0  0  0  0  2  0  0  0  0  0  0
  185.2600  178.4130  147.1760 O   0  0  0  0  0  1  0  0  0  0  0  0
  187.8760  177.6800  144.6340 C   0  0  0  0  0  0  0  0  0  0  0  0
  187.4150  177.8450  148.8220 O   0  0  0  0  0  1  0  0  0  0  0  0
  187.9550  177.5980  143.1360 C   0  0  0  0  0  0  0  0  0  0  0  0
  185.8450  178.7140  142.9610 C   0  0  0  0  0  0  0  0  0  0  0  0
  187.5750  177.8170  147.4410 C   0  0  0  0  0  0  0  0  0  0  0  0
  186.4910  178.0930  146.6110 C   0  0  0  0  0  0  0  0  0  0  0  0
  188.9900  177.4670  145.4880 C   0  0  0  0  0  0  0  0  0  0  0  0
  185.0920  179.4160  142.2370 O   0  0  0  0  0  0  0  0  0  0  0  0
  190.1400  175.9210  142.3680 C   0  0  0  0  0  2  0  0  0  0  0  0
  188.9790  176.8620  142.4640 N   0  0  0  0  0  0  0  0  0  0  0  0
  187.0210  178.1250  142.4040 N   0  0  0  0  0  0  0  0  0  0  0  0
  186.6380  178.0560  145.2160 C   0  0  0  0  0  0  0  0  0  0  0  0
  191.2750  176.4980  145.8720 C   0  0  0  0  0  2  0  0  0  0  0  0
  185.4470  178.4000  144.3650 C   0  0  0  0  0  2  0  0  0  0  0  0
  189.6350  176.4350  141.1910 C   0  0  1  0  0  3  0  0  0  0  0  0
  188.8260  177.5320  146.8890 C   0  0  0  0  0  0  0  0  0  0  0  0
  190.4860  177.5740  140.5900 C   0  0  1  0  0  3  0  0  0  0  0  0
  191.9840  177.5150  140.8840 C   0  0  0  0  0  1  0  0  0  0  0  0
  190.2780  177.6460  139.2110 O   0  0  0  0  0  0  0  0  0  0  0  0
  189.1470  178.4510  139.0600 C   0  0  0  0  0  2  0  0  0  0  0  0
  188.9910  178.8350  137.6040 C   0  0  0  0  0  1  0  0  0  0  0  0
  1  2  1  0  0  0  0
  3 11  1  0  0  0  0
  3 17  1  0  0  0  0
  5 16  2  0  0  0  0
  5 11  1  0  0  0  0
  7  5  1  0  0  0  0
  8 18  1  0  0  0  0
  9  6  1  0  0  0  0
 10  4  1  0  0  0  0
 10  9  2  0  0  0  0
 11 20  2  0  0  0  0
 12  8  2  0  0  0  0
 13 14  1  0  0  0  0
 14  7  1  0  0  0  0
 15  8  1  0  0  0  0
 15  7  2  0  0  0  0
 16 10  1  0  0  0  0
 17  1  1  0  0  0  0
 18 16  1  0  0  0  0
 19 21  1  1  0  0  0
 19 13  1  0  0  0  0
 19 14  1  0  0  0  0
 20  9  1  0  0  0  0
 20  2  1  0  0  0  0
 21 22  1  6  0  0  0
 23 21  1  0  0  0  0
 24 23  1  0  0  0  0
 25 24  1  0  0  0  0
M  END
>  <MODEL>
3

>  <REMARK>
 VINA RESULT:      -9.0      1.266      1.701
  Name = 
  3 active torsions:
  status: ('A' for Active; 'I' for Inactive)
    1  A    between atoms: C_4  and  O_5
    2  A    between atoms: C_4  and  C_24
    3  A    between atoms: O_5  and  C_9
                            x       y       z     vdW  Elec       q    Type
                         _______ _______ _______ _____ _____    ______ ____

>  <TORSDO>
F 3

$$$$
=
 OpenBabel11062418093D

 25 28  0  0  1  0  0  0  0  0999 V2000
  184.4270  178.5090  143.6000 C   0  0  0  0  0  2  0  0  0  0  0  0
  185.1630  178.5220  144.8600 N   0  0  0  0  0  2  0  0  0  0  0  0
  186.5180  177.8340  142.4540 C   0  0  0  0  0  2  0  0  0  0  0  0
  189.0360  177.3730  147.5420 O   0  0  0  0  0  1  0  0  0  0  0  0
  188.6330  177.4690  143.8450 C   0  0  0  0  0  0  0  0  0  0  0  0
  186.4180  178.2550  147.3450 O   0  0  0  0  0  1  0  0  0  0  0  0
  189.4950  177.2120  142.6420 C   0  0  0  0  0  0  0  0  0  0  0  0
  191.1130  176.1250  144.0300 C   0  0  0  0  0  0  0  0  0  0  0  0
  187.1380  177.9700  146.1910 C   0  0  0  0  0  0  0  0  0  0  0  0
  188.4590  177.5350  146.2870 C   0  0  0  0  0  0  0  0  0  0  0  0
  187.2670  177.8470  143.7600 C   0  0  0  0  0  0  0  0  0  0  0  0
  192.0560  175.2920  144.0810 O   0  0  0  0  0  0  0  0  0  0  0  0
  188.4640  178.6330  140.3840 C   0  0  0  0  0  2  0  0  0  0  0  0
  189.1950  177.7590  141.3560 N   0  0  0  0  0  0  0  0  0  0  0  0
  190.6060  176.5520  142.7660 N   0  0  0  0  0  0  0  0  0  0  0  0
  189.1990  177.2560  145.1280 C   0  0  0  0  0  0  0  0  0  0  0  0
  185.3660  178.8340  142.4490 C   0  0  0  0  0  2  0  0  0  0  0  0
  190.6070  176.7520  145.2870 C   0  0  0  0  0  2  0  0  0  0  0  0
  189.5130  177.8780  139.9010 C   0  0  1  0  0  3  0  0  0  0  0  0
  186.5320  178.1000  144.9400 C   0  0  0  0  0  0  0  0  0  0  0  0
  189.0710  176.6180  139.1270 C   0  0  1  0  0  3  0  0  0  0  0  0
  188.2870  176.8660  137.8390 C   0  0  0  0  0  1  0  0  0  0  0  0
  190.1800  175.8120  138.8570 O   0  0  0  0  0  0  0  0  0  0  0  0
  191.2520  176.7000  138.7480 C   0  0  0  0  0  2  0  0  0  0  0  0
  192.0840  176.3410  137.5360 C   0  0  0  0  0  1  0  0  0  0  0  0
  1  2  1  0  0  0  0
  2 20  1  0  0  0  0
  3 11  1  0  0  0  0
  5 16  1  0  0  0  0
  7 15  2  0  0  0  0
  7  5  1  0  0  0  0
  8 12  2  0  0  0  0
  8 18  1  0  0  0  0
  9 10  1  0  0  0  0
  9  6  1  0  0  0  0
 10  4  1  0  0  0  0
 11  5  2  0  0  0  0
 11 20  1  0  0  0  0
 13 14  1  0  0  0  0
 14  7  1  0  0  0  0
 15  8  1  0  0  0  0
 16 18  1  0  0  0  0
 16 10  2  0  0  0  0
 17  3  1  0  0  0  0
 17  1  1  0  0  0  0
 19 21  1  6  0  0  0
 19 13  1  0  0  0  0
 19 14  1  0  0  0  0
 20  9  2  0  0  0  0
 21 22  1  6  0  0  0
 23 21  1  0  0  0  0
 24 23  1  0  0  0  0
 25 24  1  0  0  0  0
M  END
>  <MODEL>
4

>  <REMARK>
 VINA RESULT:      -8.4      2.144      4.289
  Name = 
  3 active torsions:
  status: ('A' for Active; 'I' for Inactive)
    1  A    between atoms: C_4  and  O_5
    2  A    between atoms: C_4  and  C_24
    3  A    between atoms: O_5  and  C_9
                            x       y       z     vdW  Elec       q    Type
                         _______ _______ _______ _____ _____    ______ ____

>  <TORSDO>
F 3

$$$$
=
 OpenBabel11062418093D

 25 28  0  0  1  0  0  0  0  0999 V2000
  185.8560  177.8220  146.9780 C   0  0  0  0  0  2  0  0  0  0  0  0
  187.3070  177.7030  147.0780 N   0  0  0  0  0  2  0  0  0  0  0  0
  186.0930  177.8830  144.5120 C   0  0  0  0  0  2  0  0  0  0  0  0
  191.6560  176.8200  145.1230 O   0  0  0  0  0  1  0  0  0  0  0  0
  188.4250  177.6660  143.4830 C   0  0  0  0  0  0  0  0  0  0  0  0
  190.0350  177.1500  147.3460 O   0  0  0  0  0  1  0  0  0  0  0  0
  187.9300  177.8780  142.0810 C   0  0  0  0  0  0  0  0  0  0  0  0
  189.9250  176.8710  141.2240 C   0  0  0  0  0  0  0  0  0  0  0  0
  189.4970  177.2940  146.0720 C   0  0  0  0  0  0  0  0  0  0  0  0
  190.3120  177.1370  144.9530 C   0  0  0  0  0  0  0  0  0  0  0  0
  187.5890  177.7560  144.6280 C   0  0  0  0  0  0  0  0  0  0  0  0
  190.4580  176.2680  140.2560 O   0  0  0  0  0  0  0  0  0  0  0  0
  185.5920  179.5240  142.1110 C   0  0  0  0  0  2  0  0  0  0  0  0
  186.7490  178.6270  141.7920 N   0  0  0  0  0  0  0  0  0  0  0  0
  188.6330  177.4570  141.0730 N   0  0  0  0  0  0  0  0  0  0  0  0
  189.7820  177.2930  143.6630 C   0  0  0  0  0  0  0  0  0  0  0  0
  185.4870  178.5910  145.7190 C   0  0  0  0  0  2  0  0  0  0  0  0
  190.6940  177.0750  142.4870 C   0  0  0  0  0  2  0  0  0  0  0  0
  185.7580  179.1380  140.7960 C   0  0  1  0  0  3  0  0  0  0  0  0
  188.1380  177.5740  145.9170 C   0  0  0  0  0  0  0  0  0  0  0  0
  184.7910  178.0230  140.3460 C   0  0  1  0  0  3  0  0  0  0  0  0
  183.5100  177.8780  141.1660 C   0  0  0  0  0  1  0  0  0  0  0  0
  184.4720  178.1870  138.9960 O   0  0  0  0  0  0  0  0  0  0  0  0
  185.7040  178.2530  138.3410 C   0  0  0  0  0  2  0  0  0  0  0  0
  185.7430  177.2200  137.2350 C   0  0  0  0  0  1  0  0  0  0  0  0
  1  2  1  0  0  0  0
  3 11  1  0  0  0  0
  3 17  1  0  0  0  0
  5 16  2  0  0  0  0
  5 11  1  0  0  0  0
  7  5  1  0  0  0  0
  8 18  1  0  0  0  0
  9  6  1  0  0  0  0
 10  4  1  0  0  0  0
 10  9  2  0  0  0  0
 11 20  2  0  0  0  0
 12  8  2  0  0  0  0
 14  7  1  0  0  0  0
 14 13  1  0  0  0  0
 15  8  1  0  0  0  0
 15  7  2  0  0  0  0
 16 10  1  0  0  0  0
 17  1  1  0  0  0  0
 18 16  1  0  0  0  0
 19 21  1  1  0  0  0
 19 14  1  0  0  0  0
 19 13  1  0  0  0  0
 20  9  1  0  0  0  0
 20  2  1  0  0  0  0
 21 22  1  1  0  0  0
 23 21  1  0  0  0  0
 24 23  1  0  0  0  0
 25 24  1  0  0  0  0
M  END
>  <MODEL>
5

>  <REMARK>
 VINA RESULT:      -8.2      2.157      4.773
  Name = 
  3 active torsions:
  status: ('A' for Active; 'I' for Inactive)
    1  A    between atoms: C_4  and  O_5
    2  A    between atoms: C_4  and  C_24
    3  A    between atoms: O_5  and  C_9
                            x       y       z     vdW  Elec       q    Type
                         _______ _______ _______ _____ _____    ______ ____

>  <TORSDO>
F 3

$$$$
=
 OpenBabel11062418093D

 25 28  0  0  1  0  0  0  0  0999 V2000
  187.9880  177.9710  139.0990 C   0  0  0  0  0  2  0  0  0  0  0  0
  186.6980  178.5130  139.5130 N   0  0  0  0  0  2  0  0  0  0  0  0
  188.5780  177.7100  141.4920 C   0  0  0  0  0  2  0  0  0  0  0  0
  183.2790  179.2870  142.8640 O   0  0  0  0  0  1  0  0  0  0  0  0
  186.8580  178.3560  143.2720 C   0  0  0  0  0  0  0  0  0  0  0  0
  184.0940  179.2520  140.2160 O   0  0  0  0  0  1  0  0  0  0  0  0
  187.7980  178.0910  144.4130 C   0  0  0  0  0  0  0  0  0  0  0  0
  185.9370  177.9210  145.9080 C   0  0  0  0  0  0  0  0  0  0  0  0
  184.9990  178.9300  141.2210 C   0  0  0  0  0  0  0  0  0  0  0  0
  184.5940  178.9560  142.5540 C   0  0  0  0  0  0  0  0  0  0  0  0
  187.2420  178.2670  141.9070 C   0  0  0  0  0  0  0  0  0  0  0  0
  185.5110  177.4540  146.9970 O   0  0  0  0  0  0  0  0  0  0  0  0
  190.4960  178.5380  143.5760 C   0  0  0  0  0  2  0  0  0  0  0  0
  189.2160  178.1930  144.2740 N   0  0  0  0  0  0  0  0  0  0  0  0
  187.3290  177.8530  145.6010 N   0  0  0  0  0  0  0  0  0  0  0  0
  185.5030  178.6450  143.5770 C   0  0  0  0  0  0  0  0  0  0  0  0
  189.0390  178.2780  140.1540 C   0  0  0  0  0  2  0  0  0  0  0  0
  185.0060  178.6490  144.9970 C   0  0  0  0  0  2  0  0  0  0  0  0
  190.5820  178.0470  144.8630 C   0  0  1  0  0  3  0  0  0  0  0  0
  186.3050  178.5620  140.8920 C   0  0  0  0  0  0  0  0  0  0  0  0
  191.0040  176.5640  144.9380 C   0  0  1  0  0  3  0  0  0  0  0  0
  191.3010  175.8850  143.6010 C   0  0  0  0  0  1  0  0  0  0  0  0
  192.0990  176.4240  145.7920 O   0  0  0  0  0  0  0  0  0  0  0  0
  191.5540  176.4200  147.0780 C   0  0  0  0  0  2  0  0  0  0  0  0
  192.5150  175.7440  148.0320 C   0  0  0  0  0  1  0  0  0  0  0  0
  1  2  1  0  0  0  0
  1 17  1  0  0  0  0
  2 20  1  0  0  0  0
  3 11  1  0  0  0  0
  5 16  1  0  0  0  0
  5  7  1  0  0  0  0
  6  9  1  0  0  0  0
  7 15  2  0  0  0  0
  8 12  2  0  0  0  0
  9 10  1  0  0  0  0
 10  4  1  0  0  0  0
 10 16  2  0  0  0  0
 11  5  2  0  0  0  0
 13 14  1  0  0  0  0
 13 19  1  0  0  0  0
 14  7  1  0  0  0  0
 14 19  1  0  0  0  0
 15  8  1  0  0  0  0
 16 18  1  0  0  0  0
 17  3  1  0  0  0  0
 18  8  1  0  0  0  0
 19 21  1  6  0  0  0
 20  9  2  0  0  0  0
 20 11  1  0  0  0  0
 21 22  1  6  0  0  0
 21 23  1  0  0  0  0
 23 24  1  0  0  0  0
 24 25  1  0  0  0  0
M  END
>  <MODEL>
6

>  <REMARK>
 VINA RESULT:      -8.1      2.073      5.236
  Name = 
  3 active torsions:
  status: ('A' for Active; 'I' for Inactive)
    1  A    between atoms: C_4  and  O_5
    2  A    between atoms: C_4  and  C_24
    3  A    between atoms: O_5  and  C_9
                            x       y       z     vdW  Elec       q    Type
                         _______ _______ _______ _____ _____    ______ ____

>  <TORSDO>
F 3

$$$$
=
 OpenBabel11062418093D

 25 28  0  0  1  0  0  0  0  0999 V2000
  187.8490  177.1300  147.7880 C   0  0  0  0  0  2  0  0  0  0  0  0
  189.1720  177.1500  147.1730 N   0  0  0  0  0  2  0  0  0  0  0  0
  186.8730  177.6060  145.5600 C   0  0  0  0  0  2  0  0  0  0  0  0
  192.0640  177.0490  143.2820 O   0  0  0  0  0  1  0  0  0  0  0  0
  188.4300  177.8010  143.5400 C   0  0  0  0  0  0  0  0  0  0  0  0
  191.7030  176.8500  146.0220 O   0  0  0  0  0  1  0  0  0  0  0  0
  187.3200  178.1790  142.6020 C   0  0  0  0  0  0  0  0  0  0  0  0
  188.6750  177.5360  140.7370 C   0  0  0  0  0  0  0  0  0  0  0  0
  190.6180  177.1370  145.2020 C   0  0  0  0  0  0  0  0  0  0  0  0
  190.7980  177.2470  143.8240 C   0  0  0  0  0  0  0  0  0  0  0  0
  188.2440  177.6200  144.9360 C   0  0  0  0  0  0  0  0  0  0  0  0
  188.6890  177.1530  139.5380 O   0  0  0  0  0  0  0  0  0  0  0  0
  185.2560  179.5450  144.0340 C   0  0  0  0  0  2  0  0  0  0  0  0
  186.1320  178.8370  143.0480 N   0  0  0  0  0  0  0  0  0  0  0  0
  187.4590  178.0000  141.3230 N   0  0  0  0  0  0  0  0  0  0  0  0
  189.7120  177.5480  142.9890 C   0  0  0  0  0  0  0  0  0  0  0  0
  186.9090  178.0460  147.0200 C   0  0  0  0  0  2  0  0  0  0  0  0
  189.9520  177.6170  141.5060 C   0  0  0  0  0  2  0  0  0  0  0  0
  184.7780  179.3920  142.7490 C   0  0  1  0  0  3  0  0  0  0  0  0
  189.3460  177.2940  145.7570 C   0  0  0  0  0  0  0  0  0  0  0  0
  183.7310  178.2680  142.6010 C   0  0  1  0  0  3  0  0  0  0  0  0
  182.3030  178.6260  143.0120 C   0  0  0  0  0  1  0  0  0  0  0  0
  183.7380  177.7800  141.2930 O   0  0  0  0  0  0  0  0  0  0  0  0
  183.7590  178.9190  140.4850 C   0  0  0  0  0  2  0  0  0  0  0  0
  184.4580  178.6010  139.1800 C   0  0  0  0  0  1  0  0  0  0  0  0
  2  1  1  0  0  0  0
  3 17  1  0  0  0  0
  4 10  1  0  0  0  0
  5 11  1  0  0  0  0
  7 14  1  0  0  0  0
  7  5  1  0  0  0  0
  8 15  1  0  0  0  0
  8 18  1  0  0  0  0
  9 20  1  0  0  0  0
  9  6  1  0  0  0  0
 10  9  2  0  0  0  0
 11  3  1  0  0  0  0
 11 20  2  0  0  0  0
 12  8  2  0  0  0  0
 14 13  1  0  0  0  0
 15  7  2  0  0  0  0
 16  5  2  0  0  0  0
 16 10  1  0  0  0  0
 17  1  1  0  0  0  0
 18 16  1  0  0  0  0
 19 21  1  1  0  0  0
 19 14  1  0  0  0  0
 19 13  1  0  0  0  0
 20  2  1  0  0  0  0
 21 22  1  6  0  0  0
 23 21  1  0  0  0  0
 24 23  1  0  0  0  0
 25 24  1  0  0  0  0
M  END
>  <MODEL>
7

>  <REMARK>
 VINA RESULT:      -7.9      2.125      5.140
  Name = 
  3 active torsions:
  status: ('A' for Active; 'I' for Inactive)
    1  A    between atoms: C_4  and  O_5
    2  A    between atoms: C_4  and  C_24
    3  A    between atoms: O_5  and  C_9
                            x       y       z     vdW  Elec       q    Type
                         _______ _______ _______ _____ _____    ______ ____

>  <TORSDO>
F 3

$$$$
=
 OpenBabel11062418093D

 25 28  0  0  1  0  0  0  0  0999 V2000
  185.0010  178.5880  141.1920 C   0  0  0  0  0  2  0  0  0  0  0  0
  184.4290  178.8370  142.5100 N   0  0  0  0  0  2  0  0  0  0  0  0
  187.1530  178.0440  142.2960 C   0  0  0  0  0  2  0  0  0  0  0  0
  184.5550  178.4880  147.3450 O   0  0  0  0  0  1  0  0  0  0  0  0
  187.2870  178.1040  144.8490 C   0  0  0  0  0  0  0  0  0  0  0  0
  183.1730  179.0160  145.0040 O   0  0  0  0  0  1  0  0  0  0  0  0
  188.7610  177.8160  144.8730 C   0  0  0  0  0  0  0  0  0  0  0  0
  188.5860  177.1030  147.1510 C   0  0  0  0  0  0  0  0  0  0  0  0
  184.5240  178.6880  144.9490 C   0  0  0  0  0  0  0  0  0  0  0  0
  185.2230  178.4310  146.1260 C   0  0  0  0  0  0  0  0  0  0  0  0
  186.5500  178.3000  143.6510 C   0  0  0  0  0  0  0  0  0  0  0  0
  189.0900  176.4030  148.0680 O   0  0  0  0  0  0  0  0  0  0  0  0
  189.9900  178.8280  142.4980 C   0  0  0  0  0  2  0  0  0  0  0  0
  189.6270  178.1700  143.7930 N   0  0  0  0  0  0  0  0  0  0  0  0
  189.3090  177.3150  145.9390 N   0  0  0  0  0  0  0  0  0  0  0  0
  186.5890  178.1130  146.0840 C   0  0  0  0  0  0  0  0  0  0  0  0
  186.4920  178.8890  141.2110 C   0  0  0  0  0  2  0  0  0  0  0  0
  187.2890  177.8060  147.3790 C   0  0  0  0  0  2  0  0  0  0  0  0
  190.9870  178.1560  143.1750 C   0  0  1  0  0  3  0  0  0  0  0  0
  185.1700  178.5980  143.7150 C   0  0  0  0  0  0  0  0  0  0  0  0
  191.3200  176.7710  142.5830 C   0  0  1  0  0  3  0  0  0  0  0  0
  191.4790  175.6330  143.5910 C   0  0  0  0  0  1  0  0  0  0  0  0
  190.3670  176.4220  141.6240 O   0  0  0  0  0  0  0  0  0  0  0  0
  190.9500  176.7530  140.3990 C   0  0  0  0  0  2  0  0  0  0  0  0
  189.8700  176.9090  139.3500 C   0  0  0  0  0  1  0  0  0  0  0  0
  1 17  1  0  0  0  0
  1  2  1  0  0  0  0
  2 20  1  0  0  0  0
  3 11  1  0  0  0  0
  5  7  1  0  0  0  0
  5 16  1  0  0  0  0
  7 15  2  0  0  0  0
  8 18  1  0  0  0  0
  8 12  2  0  0  0  0
  9  6  1  0  0  0  0
  9 10  1  0  0  0  0
 10  4  1  0  0  0  0
 11 20  1  0  0  0  0
 11  5  2  0  0  0  0
 13 19  1  0  0  0  0
 13 14  1  0  0  0  0
 14  7  1  0  0  0  0
 15  8  1  0  0  0  0
 16 10  2  0  0  0  0
 16 18  1  0  0  0  0
 17  3  1  0  0  0  0
 19 21  1  6  0  0  0
 19 14  1  0  0  0  0
 20  9  2  0  0  0  0
 21 22  1  1  0  0  0
 23 21  1  0  0  0  0
 24 23  1  0  0  0  0
 25 24  1  0  0  0  0
M  END
>  <MODEL>
8

>  <REMARK>
 VINA RESULT:      -7.8      1.606      4.074
  Name = 
  3 active torsions:
  status: ('A' for Active; 'I' for Inactive)
    1  A    between atoms: C_4  and  O_5
    2  A    between atoms: C_4  and  C_24
    3  A    between atoms: O_5  and  C_9
                            x       y       z     vdW  Elec       q    Type
                         _______ _______ _______ _____ _____    ______ ____

>  <TORSDO>
F 3

$$$$
=
 OpenBabel11062418093D

 25 28  0  0  1  0  0  0  0  0999 V2000
  186.6100  178.5590  147.3540 C   0  0  0  0  0  2  0  0  0  0  0  0
  185.2730  178.6570  146.7790 N   0  0  0  0  0  2  0  0  0  0  0  0
  187.5020  178.1970  145.0700 C   0  0  0  0  0  2  0  0  0  0  0  0
  182.2950  179.2060  142.9910 O   0  0  0  0  0  1  0  0  0  0  0  0
  185.8870  178.2380  143.0870 C   0  0  0  0  0  0  0  0  0  0  0  0
  182.7350  179.1800  145.7260 O   0  0  0  0  0  1  0  0  0  0  0  0
  186.9490  177.8710  142.0920 C   0  0  0  0  0  0  0  0  0  0  0  0
  185.5870  178.7240  140.3190 C   0  0  0  0  0  0  0  0  0  0  0  0
  183.7820  178.8960  144.8560 C   0  0  0  0  0  0  0  0  0  0  0  0
  183.5610  178.8990  143.4800 C   0  0  0  0  0  0  0  0  0  0  0  0
  186.1180  178.3050  144.4870 C   0  0  0  0  0  0  0  0  0  0  0  0
  185.5650  179.1950  139.1520 O   0  0  0  0  0  0  0  0  0  0  0  0
  188.9680  176.2910  143.3610 C   0  0  0  0  0  2  0  0  0  0  0  0
  188.1090  177.1180  142.4540 N   0  0  0  0  0  0  0  0  0  0  0  0
  186.7890  178.1520  140.8340 N   0  0  0  0  0  0  0  0  0  0  0  0
  184.6080  178.6020  142.5930 C   0  0  0  0  0  0  0  0  0  0  0  0
  187.4770  177.6530  146.4950 C   0  0  0  0  0  2  0  0  0  0  0  0
  184.3270  178.6570  141.1170 C   0  0  0  0  0  2  0  0  0  0  0  0
  189.4220  176.5120  142.0760 C   0  0  1  0  0  3  0  0  0  0  0  0
  185.0560  178.6290  145.3610 C   0  0  0  0  0  0  0  0  0  0  0  0
  190.5260  177.5860  141.9810 C   0  0  1  0  0  3  0  0  0  0  0  0
  191.6440  177.4890  143.0180 C   0  0  0  0  0  1  0  0  0  0  0  0
  191.0730  177.5920  140.6960 O   0  0  0  0  0  0  0  0  0  0  0  0
  192.4440  177.4070  140.8880 C   0  0  0  0  0  2  0  0  0  0  0  0
  193.1160  177.1840  139.5500 C   0  0  0  0  0  1  0  0  0  0  0  0
  2  1  1  0  0  0  0
  3 17  1  0  0  0  0
  4 10  1  0  0  0  0
  5 11  1  0  0  0  0
  7 14  1  0  0  0  0
  7  5  1  0  0  0  0
  8 15  1  0  0  0  0
  8 18  1  0  0  0  0
  9 20  1  0  0  0  0
  9  6  1  0  0  0  0
 10  9  2  0  0  0  0
 11  3  1  0  0  0  0
 11 20  2  0  0  0  0
 12  8  2  0  0  0  0
 14 13  1  0  0  0  0
 15  7  2  0  0  0  0
 16  5  2  0  0  0  0
 16 10  1  0  0  0  0
 17  1  1  0  0  0  0
 18 16  1  0  0  0  0
 19 21  1  1  0  0  0
 19 14  1  0  0  0  0
 19 13  1  0  0  0  0
 20  2  1  0  0  0  0
 21 22  1  1  0  0  0
 23 24  1  0  0  0  0
 23 21  1  0  0  0  0
 25 24  1  0  0  0  0
M  END
>  <MODEL>
9

>  <REMARK>
 VINA RESULT:      -7.8      1.555      1.959
  Name = 
  3 active torsions:
  status: ('A' for Active; 'I' for Inactive)
    1  A    between atoms: C_4  and  O_5
    2  A    between atoms: C_4  and  C_24
    3  A    between atoms: O_5  and  C_9
                            x       y       z     vdW  Elec       q    Type
                         _______ _______ _______ _____ _____    ______ ____

>  <TORSDO>
F 3

$$$$
