=
 OpenBabel11062417303D

 47 53  0  0  1  0  0  0  0  0999 V2000
  183.1080  173.9950  136.6860 C   0  0  0  0  0  0  0  0  0  0  0  0
  181.9520  178.8440  137.5430 C   0  0  0  0  0  2  0  0  0  0  0  0
  182.4220  174.6730  137.7080 C   0  0  0  0  0  0  0  0  0  0  0  0
  182.3680  173.3830  135.6630 C   0  0  0  0  0  0  0  0  0  0  0  0
  185.1350  172.5750  136.1440 C   0  0  0  0  0  2  0  0  0  0  0  0
  181.8540  177.4930  138.1270 C   0  0  2  0  0  0  0  0  0  0  0  0
  181.9420  177.6850  136.7390 O   0  0  0  0  0  0  0  0  0  0  0  0
  180.4470  177.0470  138.5510 C   0  0  0  0  0  2  0  0  0  0  0  0
  178.9380  175.1970  138.7940 O   0  0  0  0  0  1  0  0  0  0  0  0
  181.0170  174.7410  137.6750 C   0  0  0  0  0  0  0  0  0  0  0  0
  183.1590  175.3610  138.8240 C   0  0  0  0  0  2  0  0  0  0  0  0
  180.3300  174.1400  136.6120 C   0  0  0  0  0  3  0  0  0  0  0  0
  183.0910  172.6320  134.5940 C   0  0  0  0  0  2  0  0  0  0  0  0
  184.1790  171.7740  135.2370 C   0  0  0  0  0  2  0  0  0  0  0  0
  183.1510  176.8910  138.7000 C   0  0  2  0  0  3  0  0  0  0  0  0
  184.6150  173.9460  136.6260 C   0  0  1  0  0  3  0  0  0  0  0  0
  180.2920  175.5340  138.7320 C   0  0  1  0  0  3  0  0  0  0  0  0
  181.0120  173.4730  135.6430 N   0  0  0  0  0  0  0  0  0  0  0  0
  187.2860  176.0950  134.7370 C   0  0  2  0  0  3  0  0  0  0  0  0
  187.4580  174.6110  136.9420 C   0  0  0  0  0  1  0  0  0  0  0  0
  186.9910  177.4510  134.9510 O   0  0  0  0  0  0  0  0  0  0  0  0
  185.6590  176.2260  136.4820 C   0  0  2  0  0  3  0  0  0  0  0  0
  185.7520  177.4580  135.6100 C   0  0  0  0  0  2  0  0  0  0  0  0
  186.6330  175.2820  135.8460 C   0  0  1  0  0  0  0  0  0  0  0  0
  185.1360  175.0390  135.6940 C   0  0  1  0  0  3  0  0  0  0  0  0
  188.7950  175.8780  134.5940 C   0  0  2  0  0  3  0  0  0  0  0  0
  189.1390  174.5760  134.9710 O   0  0  0  0  0  1  0  0  0  0  0  0
  190.9740  176.6980  135.1000 O   0  0  0  0  0  1  0  0  0  0  0  0
  189.6210  176.9020  135.3860 C   0  0  2  0  0  3  0  0  0  0  0  0
  188.7180  178.1470  138.9450 C   0  0  0  0  0  2  0  0  0  0  0  0
  190.6220  176.3410  137.6400 C   0  0  0  0  0  2  0  0  0  0  0  0
  189.0010  178.2230  137.4480 C   0  0  0  0  0  2  0  0  0  0  0  0
  189.3770  176.8430  136.9040 C   0  0  1  0  0  3  0  0  0  0  0  0
  190.3520  176.2500  139.1390 C   0  0  0  0  0  2  0  0  0  0  0  0
  189.9480  177.6200  139.6830 C   0  0  2  0  0  3  0  0  0  0  0  0
  189.6810  177.5370  141.1140 N   0  0  0  0  0  0  0  0  0  0  0  0
  188.4050  177.4210  141.5550 O   0  0  0  0  0  1  0  0  0  0  0  0
  191.9480  177.6920  141.6570 O   0  0  0  0  0  0  0  0  0  0  0  0
  190.4750  177.5130  143.4570 N   0  0  0  0  0  2  0  0  0  0  0  0
  191.5270  177.5570  144.4570 C   0  0  0  0  0  1  0  0  0  0  0  0
  190.7560  177.5850  142.0570 C   0  0  0  0  0  0  0  0  0  0  0  0
  184.4100  178.5320  140.1630 C   0  0  0  0  0  0  0  0  0  0  0  0
  183.4560  177.4800  139.9950 N   0  0  0  0  0  2  0  0  0  0  0  0
  185.1110  178.9490  139.1570 N   0  0  0  0  0  2  0  0  0  0  0  0
  185.6980  179.7020  141.7720 O   0  0  0  0  0  0  0  0  0  0  0  0
  184.6190  179.1150  141.4940 C   0  0  0  0  0  0  0  0  0  0  0  0
  183.6220  179.0220  142.4570 O   0  0  0  0  0  1  0  0  0  0  0  0
  1  3  1  0  0  0  0
  3 11  1  0  0  0  0
  4  1  2  0  0  0  0
  6  2  1  1  0  0  0
  6  8  1  0  0  0  0
  6 15  1  0  0  0  0
  7  2  1  0  0  0  0
  7  6  1  0  0  0  0
  8 17  1  0  0  0  0
 10  3  2  0  0  0  0
 10 17  1  0  0  0  0
 12 10  1  0  0  0  0
 13 14  1  0  0  0  0
 13  4  1  0  0  0  0
 14  5  1  0  0  0  0
 15 11  1  0  0  0  0
 15 43  1  1  0  0  0
 16  5  1  6  0  0  0
 16  1  1  0  0  0  0
 17  9  1  6  0  0  0
 18  4  1  0  0  0  0
 18 12  2  0  0  0  0
 19 26  1  1  0  0  0
 19 21  1  0  0  0  0
 19 24  1  0  0  0  0
 21 23  1  0  0  0  0
 22 23  1  6  0  0  0
 24 22  1  0  0  0  0
 24 20  1  1  0  0  0
 25 24  1  0  0  0  0
 25 22  1  0  0  0  0
 25 16  1  1  0  0  0
 26 27  1  1  0  0  0
 26 29  1  0  0  0  0
 29 28  1  1  0  0  0
 30 35  1  0  0  0  0
 31 34  1  0  0  0  0
 32 30  1  0  0  0  0
 33 29  1  6  0  0  0
 33 32  1  0  0  0  0
 33 31  1  0  0  0  0
 34 35  1  0  0  0  0
 35 36  1  1  0  0  0
 36 37  1  0  0  0  0
 36 41  1  0  0  0  0
 38 41  2  0  0  0  0
 39 40  1  0  0  0  0
 41 39  1  0  0  0  0
 42 46  1  0  0  0  0
 43 42  1  0  0  0  0
 44 42  2  0  0  0  0
 46 45  2  0  0  0  0
 46 47  1  0  0  0  0
M  END
>  <MODEL>
1

>  <REMARK>
 VINA RESULT:      -7.2      0.000      0.000
  Name = 
  7 active torsions:
  status: ('A' for Active; 'I' for Inactive)
    1  A    between atoms: C_1  and  C_14
    2  A    between atoms: N_2  and  C_38
    3  A    between atoms: C_5  and  C_7
    4  A    between atoms: C_7  and  C_26
    5  A    between atoms: N_11  and  C_45
    6  A    between atoms: C_24  and  C_26
    7  A    between atoms: C_35  and  C_40
                            x       y       z     vdW  Elec       q    Type
                         _______ _______ _______ _____ _____    ______ ____

>  <TORSDO>
F 7

$$$$
=
 OpenBabel11062417303D

 47 53  0  0  1  0  0  0  0  0999 V2000
  186.2810  178.3750  140.6330 C   0  0  0  0  0  0  0  0  0  0  0  0
  181.8440  176.3030  139.3680 C   0  0  0  0  0  2  0  0  0  0  0  0
  184.9490  178.8240  140.6510 C   0  0  0  0  0  0  0  0  0  0  0  0
  186.8470  177.8830  141.8180 C   0  0  0  0  0  0  0  0  0  0  0  0
  188.5760  178.7510  139.6280 C   0  0  0  0  0  2  0  0  0  0  0  0
  182.4610  177.5540  139.8490 C   0  0  2  0  0  0  0  0  0  0  0  0
  183.0570  176.3050  140.0890 O   0  0  0  0  0  0  0  0  0  0  0  0
  181.8560  178.1500  141.1280 C   0  0  0  0  0  2  0  0  0  0  0  0
  182.2830  179.4010  143.1320 O   0  0  0  0  0  1  0  0  0  0  0  0
  184.2090  178.7520  141.8460 C   0  0  0  0  0  0  0  0  0  0  0  0
  184.2810  179.3500  139.4110 C   0  0  0  0  0  2  0  0  0  0  0  0
  184.8140  178.2200  142.9920 C   0  0  0  0  0  3  0  0  0  0  0  0
  188.2720  177.4370  141.8110 C   0  0  0  0  0  2  0  0  0  0  0  0
  189.1100  178.4600  141.0450 C   0  0  0  0  0  2  0  0  0  0  0  0
  183.2570  178.3740  138.8160 C   0  0  2  0  0  3  0  0  0  0  0  0
  187.1060  178.3610  139.3690 C   0  0  1  0  0  3  0  0  0  0  0  0
  182.7580  179.1630  141.8400 C   0  0  1  0  0  3  0  0  0  0  0  0
  186.1090  177.8090  142.9570 N   0  0  0  0  0  0  0  0  0  0  0  0
  188.1000  175.5040  136.8850 C   0  0  2  0  0  3  0  0  0  0  0  0
  188.3950  178.1470  136.7390 C   0  0  0  0  0  1  0  0  0  0  0  0
  186.9270  175.0010  136.3010 O   0  0  0  0  0  0  0  0  0  0  0  0
  186.3180  177.0080  137.4050 C   0  0  2  0  0  3  0  0  0  0  0  0
  185.8760  175.6210  136.9940 C   0  0  0  0  0  2  0  0  0  0  0  0
  187.8120  176.9040  137.4080 C   0  0  1  0  0  0  0  0  0  0  0  0
  187.0570  176.9740  138.7300 C   0  0  1  0  0  3  0  0  0  0  0  0
  189.2780  175.4200  135.9100 C   0  0  2  0  0  3  0  0  0  0  0  0
  188.8180  175.3310  134.5940 O   0  0  0  0  0  1  0  0  0  0  0  0
  189.8630  173.7040  137.4560 O   0  0  0  0  0  1  0  0  0  0  0  0
  190.2300  174.2570  136.2260 C   0  0  2  0  0  3  0  0  0  0  0  0
  194.0810  173.8630  136.0130 C   0  0  0  0  0  2  0  0  0  0  0  0
  192.0810  175.3450  137.5620 C   0  0  0  0  0  2  0  0  0  0  0  0
  192.6140  173.4440  136.0420 C   0  0  0  0  0  2  0  0  0  0  0  0
  191.7130  174.6650  136.2400 C   0  0  1  0  0  3  0  0  0  0  0  0
  193.5440  175.7790  137.5450 C   0  0  0  0  0  2  0  0  0  0  0  0
  194.4480  174.5680  137.3190 C   0  0  2  0  0  3  0  0  0  0  0  0
  195.8470  174.9790  137.2940 N   0  0  0  0  0  0  0  0  0  0  0  0
  196.3390  175.6250  136.2100 O   0  0  0  0  0  1  0  0  0  0  0  0
  196.2560  174.0980  139.4180 O   0  0  0  0  0  0  0  0  0  0  0  0
  198.0770  175.1000  138.3580 N   0  0  0  0  0  2  0  0  0  0  0  0
  198.9920  174.8400  139.4560 C   0  0  0  0  0  1  0  0  0  0  0  0
  196.7060  174.6980  138.4040 C   0  0  0  0  0  0  0  0  0  0  0  0
  181.9950  178.6340  136.6340 C   0  0  0  0  0  0  0  0  0  0  0  0
  182.3530  179.1010  137.9380 N   0  0  0  0  0  2  0  0  0  0  0  0
  182.5420  177.5660  136.1480 N   0  0  0  0  0  2  0  0  0  0  0  0
  180.3350  178.8210  134.9530 O   0  0  0  0  0  0  0  0  0  0  0  0
  181.0300  179.3960  135.8320 C   0  0  0  0  0  0  0  0  0  0  0  0
  180.8770  180.7600  136.0410 O   0  0  0  0  0  1  0  0  0  0  0  0
  1  3  2  0  0  0  0
  1  4  1  0  0  0  0
  2  7  1  0  0  0  0
  3 10  1  0  0  0  0
  4 18  2  0  0  0  0
  5 14  1  0  0  0  0
  6  2  1  6  0  0  0
  6  7  1  0  0  0  0
  6  8  1  0  0  0  0
  8 17  1  0  0  0  0
 10 12  2  0  0  0  0
 11  3  1  0  0  0  0
 13  4  1  0  0  0  0
 14 13  1  0  0  0  0
 15 43  1  1  0  0  0
 15 11  1  0  0  0  0
 15  6  1  0  0  0  0
 16  5  1  1  0  0  0
 16  1  1  0  0  0  0
 17 10  1  0  0  0  0
 17  9  1  1  0  0  0
 18 12  1  0  0  0  0
 19 26  1  6  0  0  0
 19 24  1  0  0  0  0
 21 19  1  0  0  0  0
 21 23  1  0  0  0  0
 22 23  1  1  0  0  0
 22 24  1  0  0  0  0
 22 25  1  0  0  0  0
 24 20  1  6  0  0  0
 24 25  1  0  0  0  0
 25 16  1  6  0  0  0
 26 27  1  6  0  0  0
 26 29  1  0  0  0  0
 29 28  1  1  0  0  0
 30 32  1  0  0  0  0
 30 35  1  0  0  0  0
 32 33  1  0  0  0  0
 33 29  1  1  0  0  0
 33 31  1  0  0  0  0
 34 31  1  0  0  0  0
 35 36  1  6  0  0  0
 35 34  1  0  0  0  0
 36 41  1  0  0  0  0
 37 36  1  0  0  0  0
 39 41  1  0  0  0  0
 39 40  1  0  0  0  0
 41 38  2  0  0  0  0
 42 43  1  0  0  0  0
 44 42  2  0  0  0  0
 45 46  2  0  0  0  0
 46 47  1  0  0  0  0
 46 42  1  0  0  0  0
M  END
>  <MODEL>
2

>  <REMARK>
 VINA RESULT:      -7.0      3.449      5.996
  Name = 
  7 active torsions:
  status: ('A' for Active; 'I' for Inactive)
    1  A    between atoms: C_1  and  C_14
    2  A    between atoms: N_2  and  C_38
    3  A    between atoms: C_5  and  C_7
    4  A    between atoms: C_7  and  C_26
    5  A    between atoms: N_11  and  C_45
    6  A    between atoms: C_24  and  C_26
    7  A    between atoms: C_35  and  C_40
                            x       y       z     vdW  Elec       q    Type
                         _______ _______ _______ _____ _____    ______ ____

>  <TORSDO>
F 7

$$$$
=
 OpenBabel11062417303D

 47 53  0  0  1  0  0  0  0  0999 V2000
  183.3050  179.0630  140.3250 C   0  0  0  0  0  0  0  0  0  0  0  0
  179.3080  177.7670  137.5110 C   0  0  0  0  0  2  0  0  0  0  0  0
  182.1550  179.7400  139.8860 C   0  0  0  0  0  0  0  0  0  0  0  0
  183.3200  178.5190  141.6180 C   0  0  0  0  0  0  0  0  0  0  0  0
  185.8350  178.9930  140.2080 C   0  0  0  0  0  2  0  0  0  0  0  0
  179.9270  178.9050  138.2170 C   0  0  2  0  0  0  0  0  0  0  0  0
  180.1680  177.5790  138.6130 O   0  0  0  0  0  0  0  0  0  0  0  0
  179.0260  179.6410  139.2180 C   0  0  0  0  0  2  0  0  0  0  0  0
  178.9320  180.8640  141.2810 O   0  0  0  0  0  1  0  0  0  0  0  0
  181.0410  179.8410  140.7390 C   0  0  0  0  0  0  0  0  0  0  0  0
  182.0730  180.3340  138.5060 C   0  0  0  0  0  2  0  0  0  0  0  0
  181.0970  179.2510  142.0070 C   0  0  0  0  0  3  0  0  0  0  0  0
  184.5520  177.8290  142.1010 C   0  0  0  0  0  2  0  0  0  0  0  0
  185.7740  178.6600  141.7120 C   0  0  0  0  0  2  0  0  0  0  0  0
  181.1680  179.5350  137.5580 C   0  0  2  0  0  3  0  0  0  0  0  0
  184.5070  178.8600  139.4340 C   0  0  1  0  0  3  0  0  0  0  0  0
  179.7830  180.5020  140.2340 C   0  0  1  0  0  3  0  0  0  0  0  0
  182.2270  178.6150  142.4190 N   0  0  0  0  0  0  0  0  0  0  0  0
  185.5970  175.9530  137.0510 C   0  0  2  0  0  3  0  0  0  0  0  0
  186.0850  178.5700  136.9750 C   0  0  0  0  0  1  0  0  0  0  0  0
  184.4710  175.5340  136.3240 O   0  0  0  0  0  0  0  0  0  0  0  0
  183.8710  177.5730  137.3730 C   0  0  2  0  0  3  0  0  0  0  0  0
  183.3890  176.2220  136.8940 C   0  0  0  0  0  2  0  0  0  0  0  0
  185.3440  177.3670  137.5540 C   0  0  1  0  0  0  0  0  0  0  0  0
  184.4410  177.4820  138.7760 C   0  0  1  0  0  3  0  0  0  0  0  0
  186.8750  175.7930  136.2230 C   0  0  2  0  0  3  0  0  0  0  0  0
  186.5780  175.8080  134.8570 O   0  0  0  0  0  1  0  0  0  0  0  0
  186.9410  173.8120  137.5460 O   0  0  0  0  0  1  0  0  0  0  0  0
  187.6640  174.5260  136.5860 C   0  0  2  0  0  3  0  0  0  0  0  0
  190.9480  176.4990  137.1840 C   0  0  0  0  0  2  0  0  0  0  0  0
  190.0770  173.7680  136.5700 C   0  0  0  0  0  2  0  0  0  0  0  0
  189.5520  176.2030  136.6430 C   0  0  0  0  0  2  0  0  0  0  0  0
  189.0880  174.8150  137.0910 C   0  0  1  0  0  3  0  0  0  0  0  0
  191.4770  174.0450  137.1110 C   0  0  0  0  0  2  0  0  0  0  0  0
  191.9340  175.4420  136.6910 C   0  0  2  0  0  3  0  0  0  0  0  0
  193.2680  175.7140  137.2120 N   0  0  0  0  0  0  0  0  0  0  0  0
  193.4230  176.5660  138.2540 O   0  0  0  0  0  1  0  0  0  0  0  0
  194.2840  174.2990  135.6560 O   0  0  0  0  0  0  0  0  0  0  0  0
  195.7190  175.3810  137.1430 N   0  0  0  0  0  2  0  0  0  0  0  0
  196.9190  174.7810  136.5860 C   0  0  0  0  0  1  0  0  0  0  0  0
  194.4180  175.0950  136.6260 C   0  0  0  0  0  0  0  0  0  0  0  0
  180.5100  181.7780  136.5810 C   0  0  0  0  0  0  0  0  0  0  0  0
  180.7770  180.3800  136.4400 N   0  0  0  0  0  2  0  0  0  0  0  0
  180.5270  182.3340  137.7510 N   0  0  0  0  0  2  0  0  0  0  0  0
  179.0670  182.4320  134.8190 O   0  0  0  0  0  0  0  0  0  0  0  0
  180.1780  182.5750  135.3950 C   0  0  0  0  0  0  0  0  0  0  0  0
  181.0920  183.4970  134.8990 O   0  0  0  0  0  1  0  0  0  0  0  0
  1  4  1  0  0  0  0
  2  7  1  0  0  0  0
  3  1  2  0  0  0  0
  3 10  1  0  0  0  0
  4 13  1  0  0  0  0
  4 18  2  0  0  0  0
  5 14  1  0  0  0  0
  6  2  1  6  0  0  0
  6  7  1  0  0  0  0
  6  8  1  0  0  0  0
  8 17  1  0  0  0  0
 10 12  2  0  0  0  0
 11  3  1  0  0  0  0
 12 18  1  0  0  0  0
 14 13  1  0  0  0  0
 15 43  1  6  0  0  0
 15  6  1  0  0  0  0
 15 11  1  0  0  0  0
 16  5  1  1  0  0  0
 16  1  1  0  0  0  0
 17 10  1  0  0  0  0
 17  9  1  1  0  0  0
 19 26  1  6  0  0  0
 19 24  1  0  0  0  0
 21 23  1  0  0  0  0
 21 19  1  0  0  0  0
 22 23  1  6  0  0  0
 22 24  1  0  0  0  0
 22 25  1  0  0  0  0
 24 20  1  6  0  0  0
 24 25  1  0  0  0  0
 25 16  1  1  0  0  0
 26 27  1  6  0  0  0
 26 29  1  0  0  0  0
 29 28  1  1  0  0  0
 31 33  1  0  0  0  0
 31 34  1  0  0  0  0
 32 33  1  0  0  0  0
 32 30  1  0  0  0  0
 33 29  1  6  0  0  0
 35 34  1  0  0  0  0
 35 30  1  0  0  0  0
 35 36  1  1  0  0  0
 36 37  1  0  0  0  0
 38 41  2  0  0  0  0
 40 39  1  0  0  0  0
 41 39  1  0  0  0  0
 41 36  1  0  0  0  0
 42 44  2  0  0  0  0
 43 42  1  0  0  0  0
 45 46  2  0  0  0  0
 46 42  1  0  0  0  0
 47 46  1  0  0  0  0
M  END
>  <MODEL>
3

>  <REMARK>
 VINA RESULT:      -6.1      3.422      5.801
  Name = 
  7 active torsions:
  status: ('A' for Active; 'I' for Inactive)
    1  A    between atoms: C_1  and  C_14
    2  A    between atoms: N_2  and  C_38
    3  A    between atoms: C_5  and  C_7
    4  A    between atoms: C_7  and  C_26
    5  A    between atoms: N_11  and  C_45
    6  A    between atoms: C_24  and  C_26
    7  A    between atoms: C_35  and  C_40
                            x       y       z     vdW  Elec       q    Type
                         _______ _______ _______ _____ _____    ______ ____

>  <TORSDO>
F 7

$$$$
=
 OpenBabel11062417303D

 47 53  0  0  1  0  0  0  0  0999 V2000
  183.3750  178.9090  141.7430 C   0  0  0  0  0  0  0  0  0  0  0  0
  179.1540  176.7650  139.9640 C   0  0  0  0  0  2  0  0  0  0  0  0
  182.0360  179.3210  141.6390 C   0  0  0  0  0  0  0  0  0  0  0  0
  183.8320  178.3900  142.9640 C   0  0  0  0  0  0  0  0  0  0  0  0
  185.7480  179.3800  140.9920 C   0  0  0  0  0  2  0  0  0  0  0  0
  179.6810  178.0140  140.5450 C   0  0  2  0  0  0  0  0  0  0  0  0
  180.2870  176.7740  140.8050 O   0  0  0  0  0  0  0  0  0  0  0  0
  178.9320  178.5490  141.7740 C   0  0  0  0  0  2  0  0  0  0  0  0
  179.1140  179.7390  143.8500 O   0  0  0  0  0  1  0  0  0  0  0  0
  181.1800  179.1870  142.7480 C   0  0  0  0  0  0  0  0  0  0  0  0
  181.4820  179.8720  140.3540 C   0  0  0  0  0  2  0  0  0  0  0  0
  181.6810  178.6320  143.9330 C   0  0  0  0  0  3  0  0  0  0  0  0
  185.2630  177.9840  143.0890 C   0  0  0  0  0  2  0  0  0  0  0  0
  186.1440  179.0540  142.4460 C   0  0  0  0  0  2  0  0  0  0  0  0
  180.5530  178.8900  139.6260 C   0  0  2  0  0  3  0  0  0  0  0  0
  184.3250  178.9610  140.5710 C   0  0  1  0  0  3  0  0  0  0  0  0
  179.7260  179.5600  142.6070 C   0  0  1  0  0  3  0  0  0  0  0  0
  182.9850  178.2570  144.0180 N   0  0  0  0  0  0  0  0  0  0  0  0
  184.6610  176.4340  137.6010 C   0  0  2  0  0  3  0  0  0  0  0  0
  183.9680  179.0050  137.6560 C   0  0  0  0  0  1  0  0  0  0  0  0
  183.5940  175.5250  137.6730 O   0  0  0  0  0  0  0  0  0  0  0  0
  183.0780  177.2840  139.1750 C   0  0  2  0  0  3  0  0  0  0  0  0
  182.9550  175.8040  138.8910 C   0  0  0  0  0  2  0  0  0  0  0  0
  184.2750  177.6890  138.3690 C   0  0  1  0  0  0  0  0  0  0  0  0
  184.3830  177.5960  139.8860 C   0  0  1  0  0  3  0  0  0  0  0  0
  185.0750  176.6810  136.1470 C   0  0  2  0  0  3  0  0  0  0  0  0
  184.4720  175.7450  135.3020 O   0  0  0  0  0  1  0  0  0  0  0  0
  186.9550  175.5150  135.2610 O   0  0  0  0  0  1  0  0  0  0  0  0
  186.5980  176.6760  135.9530 C   0  0  2  0  0  3  0  0  0  0  0  0
  188.5850  178.3210  138.8480 C   0  0  0  0  0  2  0  0  0  0  0  0
  188.6090  175.8620  137.2530 C   0  0  0  0  0  2  0  0  0  0  0  0
  187.8440  178.2190  137.5170 C   0  0  0  0  0  2  0  0  0  0  0  0
  187.3840  176.7810  137.2710 C   0  0  1  0  0  3  0  0  0  0  0  0
  189.3550  175.9460  138.5810 C   0  0  0  0  0  2  0  0  0  0  0  0
  189.7930  177.3860  138.8460 C   0  0  2  0  0  3  0  0  0  0  0  0
  190.5000  177.4740  140.1180 N   0  0  0  0  0  0  0  0  0  0  0  0
  191.8380  177.6860  140.1310 O   0  0  0  0  0  1  0  0  0  0  0  0
  188.5470  177.1340  141.3520 O   0  0  0  0  0  0  0  0  0  0  0  0
  190.5040  177.4090  142.5910 N   0  0  0  0  0  2  0  0  0  0  0  0
  189.8360  177.2690  143.8740 C   0  0  0  0  0  1  0  0  0  0  0  0
  189.7930  177.3300  141.3540 C   0  0  0  0  0  0  0  0  0  0  0  0
  180.2450  180.6160  137.7970 C   0  0  0  0  0  0  0  0  0  0  0  0
  179.7220  179.6230  138.6830 N   0  0  0  0  0  2  0  0  0  0  0  0
  181.4920  180.9620  137.8630 N   0  0  0  0  0  2  0  0  0  0  0  0
  178.9310  180.6420  135.8250 O   0  0  0  0  0  0  0  0  0  0  0  0
  179.3520  181.2690  136.8330 C   0  0  0  0  0  0  0  0  0  0  0  0
  178.9630  182.5880  137.0310 O   0  0  0  0  0  1  0  0  0  0  0  0
  1  4  1  0  0  0  0
  2  7  1  0  0  0  0
  3  1  2  0  0  0  0
  3 10  1  0  0  0  0
  4 13  1  0  0  0  0
  4 18  2  0  0  0  0
  5 14  1  0  0  0  0
  6  2  1  6  0  0  0
  6  7  1  0  0  0  0
  6  8  1  0  0  0  0
  8 17  1  0  0  0  0
 10 12  2  0  0  0  0
 11  3  1  0  0  0  0
 12 18  1  0  0  0  0
 14 13  1  0  0  0  0
 15 43  1  6  0  0  0
 15 11  1  0  0  0  0
 15  6  1  0  0  0  0
 16  5  1  1  0  0  0
 16  1  1  0  0  0  0
 17 10  1  0  0  0  0
 17  9  1  1  0  0  0
 19 26  1  6  0  0  0
 19 21  1  0  0  0  0
 19 24  1  0  0  0  0
 21 23  1  0  0  0  0
 22 23  1  6  0  0  0
 22 25  1  0  0  0  0
 24 20  1  6  0  0  0
 24 22  1  0  0  0  0
 24 25  1  0  0  0  0
 25 16  1  1  0  0  0
 26 27  1  6  0  0  0
 29 28  1  1  0  0  0
 29 26  1  0  0  0  0
 31 33  1  0  0  0  0
 31 34  1  0  0  0  0
 32 30  1  0  0  0  0
 33 29  1  6  0  0  0
 33 32  1  0  0  0  0
 34 35  1  0  0  0  0
 35 30  1  0  0  0  0
 35 36  1  1  0  0  0
 36 37  1  0  0  0  0
 36 41  1  0  0  0  0
 38 41  2  0  0  0  0
 39 40  1  0  0  0  0
 41 39  1  0  0  0  0
 42 44  2  0  0  0  0
 42 43  1  0  0  0  0
 45 46  2  0  0  0  0
 46 47  1  0  0  0  0
 46 42  1  0  0  0  0
M  END
>  <MODEL>
4

>  <REMARK>
 VINA RESULT:      -5.9      2.700      5.491
  Name = 
  7 active torsions:
  status: ('A' for Active; 'I' for Inactive)
    1  A    between atoms: C_1  and  C_14
    2  A    between atoms: N_2  and  C_38
    3  A    between atoms: C_5  and  C_7
    4  A    between atoms: C_7  and  C_26
    5  A    between atoms: N_11  and  C_45
    6  A    between atoms: C_24  and  C_26
    7  A    between atoms: C_35  and  C_40
                            x       y       z     vdW  Elec       q    Type
                         _______ _______ _______ _____ _____    ______ ____

>  <TORSDO>
F 7

$$$$
=
 OpenBabel11062417303D

 47 53  0  0  1  0  0  0  0  0999 V2000
  185.3350  172.9810  136.1810 C   0  0  0  0  0  0  0  0  0  0  0  0
  182.9720  177.3910  135.4400 C   0  0  0  0  0  2  0  0  0  0  0  0
  184.1690  173.5670  136.7020 C   0  0  0  0  0  0  0  0  0  0  0  0
  185.2190  172.0630  135.1260 C   0  0  0  0  0  0  0  0  0  0  0  0
  187.6480  172.1180  136.7510 C   0  0  0  0  0  2  0  0  0  0  0  0
  182.9200  176.1510  136.2370 C   0  0  2  0  0  0  0  0  0  0  0  0
  183.5270  176.1810  134.9710 O   0  0  0  0  0  0  0  0  0  0  0  0
  181.5850  175.3920  136.2080 C   0  0  0  0  0  2  0  0  0  0  0  0
  180.5180  173.2440  136.2970 O   0  0  0  0  0  1  0  0  0  0  0  0
  182.9190  173.2400  136.1450 C   0  0  0  0  0  0  0  0  0  0  0  0
  184.2280  174.5680  137.8230 C   0  0  0  0  0  2  0  0  0  0  0  0
  182.8650  172.3430  135.0710 C   0  0  0  0  0  3  0  0  0  0  0  0
  186.4520  171.4120  134.5940 C   0  0  0  0  0  2  0  0  0  0  0  0
  187.3320  170.9760  135.7640 C   0  0  0  0  0  2  0  0  0  0  0  0
  183.9610  176.0080  137.3630 C   0  0  2  0  0  3  0  0  0  0  0  0
  186.7100  173.3420  136.6880 C   0  0  1  0  0  3  0  0  0  0  0  0
  181.6800  173.9310  136.6580 C   0  0  1  0  0  3  0  0  0  0  0  0
  184.0030  171.7730  134.5940 N   0  0  0  0  0  0  0  0  0  0  0  0
  189.5090  175.7130  135.3220 C   0  0  2  0  0  3  0  0  0  0  0  0
  189.2170  174.5080  137.6790 C   0  0  0  0  0  1  0  0  0  0  0  0
  188.9860  177.0130  135.2460 O   0  0  0  0  0  0  0  0  0  0  0  0
  187.4360  175.7400  136.5090 C   0  0  2  0  0  3  0  0  0  0  0  0
  187.6180  176.8770  135.5280 C   0  0  0  0  0  2  0  0  0  0  0  0
  188.6710  174.9160  136.3120 C   0  0  1  0  0  0  0  0  0  0  0  0
  187.3340  174.4080  135.7880 C   0  0  1  0  0  3  0  0  0  0  0  0
  191.0070  175.7410  135.6360 C   0  0  2  0  0  3  0  0  0  0  0  0
  191.4290  174.5000  136.1200 O   0  0  0  0  0  1  0  0  0  0  0  0
  192.7280  176.6940  136.9820 O   0  0  0  0  0  1  0  0  0  0  0  0
  191.3880  176.8580  136.6180 C   0  0  2  0  0  3  0  0  0  0  0  0
  188.9530  178.3180  139.2580 C   0  0  0  0  0  2  0  0  0  0  0  0
  191.2930  176.5580  139.1280 C   0  0  0  0  0  2  0  0  0  0  0  0
  189.8730  178.2930  138.0410 C   0  0  0  0  0  2  0  0  0  0  0  0
  190.4930  176.9050  137.8690 C   0  0  1  0  0  3  0  0  0  0  0  0
  190.3850  176.5700  140.3540 C   0  0  0  0  0  2  0  0  0  0  0  0
  189.7390  177.9450  140.5150 C   0  0  2  0  0  3  0  0  0  0  0  0
  188.8630  177.9590  141.6800 N   0  0  0  0  0  0  0  0  0  0  0  0
  187.5220  178.0510  141.5130 O   0  0  0  0  0  1  0  0  0  0  0  0
  190.6580  177.7980  143.1670 O   0  0  0  0  0  0  0  0  0  0  0  0
  188.5370  177.9100  144.1320 N   0  0  0  0  0  2  0  0  0  0  0  0
  189.0380  177.8370  145.4940 C   0  0  0  0  0  1  0  0  0  0  0  0
  189.4100  177.8850  143.0010 C   0  0  0  0  0  0  0  0  0  0  0  0
  184.3000  177.9930  138.9010 C   0  0  0  0  0  0  0  0  0  0  0  0
  183.5830  176.8180  138.5110 N   0  0  0  0  0  2  0  0  0  0  0  0
  185.3840  178.3360  138.2800 N   0  0  0  0  0  2  0  0  0  0  0  0
  183.7540  178.2850  141.1880 O   0  0  0  0  0  1  0  0  0  0  0  0
  183.8210  178.7900  140.0360 C   0  0  0  0  0  0  0  0  0  0  0  0
  183.4390  180.1110  139.8450 O   0  0  0  0  0  0  0  0  0  0  0  0
  1 16  1  0  0  0  0
  1  3  1  0  0  0  0
  3 11  1  0  0  0  0
  4  1  2  0  0  0  0
  6  2  1  1  0  0  0
  6 15  1  0  0  0  0
  7  2  1  0  0  0  0
  7  6  1  0  0  0  0
  8  6  1  0  0  0  0
  8 17  1  0  0  0  0
 10 17  1  0  0  0  0
 10  3  2  0  0  0  0
 12 10  1  0  0  0  0
 13  4  1  0  0  0  0
 13 14  1  0  0  0  0
 14  5  1  0  0  0  0
 15 11  1  0  0  0  0
 15 43  1  1  0  0  0
 16  5  1  6  0  0  0
 17  9  1  6  0  0  0
 18 12  2  0  0  0  0
 18  4  1  0  0  0  0
 19 26  1  1  0  0  0
 19 24  1  0  0  0  0
 21 19  1  0  0  0  0
 21 23  1  0  0  0  0
 22 23  1  6  0  0  0
 24 22  1  0  0  0  0
 24 20  1  1  0  0  0
 25 24  1  0  0  0  0
 25 22  1  0  0  0  0
 25 16  1  1  0  0  0
 26 27  1  1  0  0  0
 26 29  1  0  0  0  0
 29 28  1  1  0  0  0
 30 35  1  0  0  0  0
 31 34  1  0  0  0  0
 32 30  1  0  0  0  0
 33 29  1  6  0  0  0
 33 32  1  0  0  0  0
 33 31  1  0  0  0  0
 34 35  1  0  0  0  0
 35 36  1  1  0  0  0
 36 41  1  0  0  0  0
 37 36  1  0  0  0  0
 39 40  1  0  0  0  0
 41 38  2  0  0  0  0
 41 39  1  0  0  0  0
 42 46  1  0  0  0  0
 43 42  1  0  0  0  0
 44 42  2  0  0  0  0
 46 45  1  0  0  0  0
 47 46  2  0  0  0  0
M  END
>  <MODEL>
5

>  <REMARK>
 VINA RESULT:      -5.2      1.813      2.331
  Name = 
  7 active torsions:
  status: ('A' for Active; 'I' for Inactive)
    1  A    between atoms: C_1  and  C_14
    2  A    between atoms: N_2  and  C_38
    3  A    between atoms: C_5  and  C_7
    4  A    between atoms: C_7  and  C_26
    5  A    between atoms: N_11  and  C_45
    6  A    between atoms: C_24  and  C_26
    7  A    between atoms: C_35  and  C_40
                            x       y       z     vdW  Elec       q    Type
                         _______ _______ _______ _____ _____    ______ ____

>  <TORSDO>
F 7

$$$$
=
 OpenBabel11062417303D

 47 53  0  0  1  0  0  0  0  0999 V2000
  190.4890  176.7680  141.0330 C   0  0  0  0  0  0  0  0  0  0  0  0
  188.2150  179.1160  137.1740 C   0  0  0  0  0  2  0  0  0  0  0  0
  190.3530  176.4930  139.6620 C   0  0  0  0  0  0  0  0  0  0  0  0
  191.6660  177.3820  141.4880 C   0  0  0  0  0  0  0  0  0  0  0  0
  189.9450  175.9540  143.3700 C   0  0  0  0  0  2  0  0  0  0  0  0
  188.9710  177.8990  137.5270 C   0  0  2  0  0  0  0  0  0  0  0  0
  189.1190  179.0900  138.2570 O   0  0  0  0  0  0  0  0  0  0  0  0
  190.2060  177.6050  136.6640 C   0  0  0  0  0  2  0  0  0  0  0  0
  192.4150  176.6690  136.6100 O   0  0  0  0  0  1  0  0  0  0  0  0
  191.3840  176.8540  138.7760 C   0  0  0  0  0  0  0  0  0  0  0  0
  189.1100  175.8490  139.1110 C   0  0  0  0  0  2  0  0  0  0  0  0
  192.5230  177.4950  139.2800 C   0  0  0  0  0  3  0  0  0  0  0  0
  191.8290  177.6440  142.9490 C   0  0  0  0  0  2  0  0  0  0  0  0
  191.3720  176.4140  143.7310 C   0  0  0  0  0  2  0  0  0  0  0  0
  188.2170  176.8270  138.3360 C   0  0  2  0  0  3  0  0  0  0  0  0
  189.3910  176.4690  142.0250 C   0  0  1  0  0  3  0  0  0  0  0  0
  191.1990  176.6260  137.2970 C   0  0  1  0  0  3  0  0  0  0  0  0
  192.6430  177.7350  140.6130 N   0  0  0  0  0  0  0  0  0  0  0  0
  186.4850  178.6230  143.5190 C   0  0  2  0  0  3  0  0  0  0  0  0
  186.7240  175.9950  143.1600 C   0  0  0  0  0  1  0  0  0  0  0  0
  185.8650  179.3160  142.4680 O   0  0  0  0  0  0  0  0  0  0  0  0
  187.2710  177.6920  141.4640 C   0  0  2  0  0  3  0  0  0  0  0  0
  186.6700  179.0760  141.3440 C   0  0  0  0  0  2  0  0  0  0  0  0
  187.2180  177.4230  142.9370 C   0  0  1  0  0  0  0  0  0  0  0  0
  188.5550  177.7240  142.2720 C   0  0  1  0  0  3  0  0  0  0  0  0
  185.4760  178.2780  144.6190 C   0  0  2  0  0  3  0  0  0  0  0  0
  184.2890  178.9930  144.4350 O   0  0  0  0  0  1  0  0  0  0  0  0
  186.2070  179.8910  146.2140 O   0  0  0  0  0  1  0  0  0  0  0  0
  186.0320  178.5160  146.0310 C   0  0  2  0  0  3  0  0  0  0  0  0
  188.7810  176.6830  148.0590 C   0  0  0  0  0  2  0  0  0  0  0  0
  188.5530  178.5810  145.8360 C   0  0  0  0  0  2  0  0  0  0  0  0
  187.4980  177.4670  147.8000 C   0  0  0  0  0  2  0  0  0  0  0  0
  187.3450  177.7640  146.3070 C   0  0  1  0  0  3  0  0  0  0  0  0
  189.8450  177.8060  146.0800 C   0  0  0  0  0  2  0  0  0  0  0  0
  189.9880  177.4800  147.5660 C   0  0  2  0  0  3  0  0  0  0  0  0
  191.2170  176.7330  147.8040 N   0  0  0  0  0  0  0  0  0  0  0  0
  191.4770  175.6180  147.0800 O   0  0  0  0  0  1  0  0  0  0  0  0
  191.9170  178.2020  149.4800 O   0  0  0  0  0  0  0  0  0  0  0  0
  193.3440  176.4130  149.0270 N   0  0  0  0  0  2  0  0  0  0  0  0
  194.3220  176.8060  150.0260 C   0  0  0  0  0  1  0  0  0  0  0  0
  192.1490  177.1640  148.8010 C   0  0  0  0  0  0  0  0  0  0  0  0
  185.9420  176.4240  137.2930 C   0  0  0  0  0  0  0  0  0  0  0  0
  187.3180  176.0760  137.4720 N   0  0  0  0  0  2  0  0  0  0  0  0
  185.4170  177.3920  137.9750 N   0  0  0  0  0  2  0  0  0  0  0  0
  185.1480  175.8990  135.1230 O   0  0  0  0  0  0  0  0  0  0  0  0
  185.1160  175.6530  136.3580 C   0  0  0  0  0  0  0  0  0  0  0  0
  184.2910  174.6400  136.8330 O   0  0  0  0  0  1  0  0  0  0  0  0
  1  4  1  0  0  0  0
  1 16  1  0  0  0  0
  2  6  1  0  0  0  0
  2  7  1  0  0  0  0
  3  1  2  0  0  0  0
  4 13  1  0  0  0  0
  5 14  1  0  0  0  0
  6  8  1  6  0  0  0
  6  7  1  0  0  0  0
  6 15  1  0  0  0  0
  8 17  1  0  0  0  0
 10 12  2  0  0  0  0
 10  3  1  0  0  0  0
 11  3  1  0  0  0  0
 12 18  1  0  0  0  0
 13 14  1  0  0  0  0
 15 43  1  6  0  0  0
 15 11  1  0  0  0  0
 16  5  1  1  0  0  0
 17  9  1  6  0  0  0
 17 10  1  0  0  0  0
 18  4  2  0  0  0  0
 19 26  1  1  0  0  0
 21 19  1  0  0  0  0
 22 23  1  1  0  0  0
 22 25  1  0  0  0  0
 22 24  1  0  0  0  0
 23 21  1  0  0  0  0
 24 20  1  1  0  0  0
 24 19  1  0  0  0  0
 25 16  1  6  0  0  0
 25 24  1  0  0  0  0
 26 27  1  6  0  0  0
 26 29  1  0  0  0  0
 29 28  1  6  0  0  0
 31 34  1  0  0  0  0
 31 33  1  0  0  0  0
 32 30  1  0  0  0  0
 33 29  1  1  0  0  0
 33 32  1  0  0  0  0
 34 35  1  0  0  0  0
 35 36  1  6  0  0  0
 35 30  1  0  0  0  0
 36 41  1  0  0  0  0
 37 36  1  0  0  0  0
 39 40  1  0  0  0  0
 41 39  1  0  0  0  0
 41 38  2  0  0  0  0
 42 43  1  0  0  0  0
 42 44  2  0  0  0  0
 45 46  2  0  0  0  0
 46 47  1  0  0  0  0
 46 42  1  0  0  0  0
M  END
>  <MODEL>
6

>  <REMARK>
 VINA RESULT:      -4.8      3.350      8.848
  Name = 
  7 active torsions:
  status: ('A' for Active; 'I' for Inactive)
    1  A    between atoms: C_1  and  C_14
    2  A    between atoms: N_2  and  C_38
    3  A    between atoms: C_5  and  C_7
    4  A    between atoms: C_7  and  C_26
    5  A    between atoms: N_11  and  C_45
    6  A    between atoms: C_24  and  C_26
    7  A    between atoms: C_35  and  C_40
                            x       y       z     vdW  Elec       q    Type
                         _______ _______ _______ _____ _____    ______ ____

>  <TORSDO>
F 7

$$$$
=
 OpenBabel11062417303D

 47 53  0  0  1  0  0  0  0  0999 V2000
  191.3560  176.4210  139.4660 C   0  0  0  0  0  0  0  0  0  0  0  0
  190.0450  176.7640  134.5940 C   0  0  0  0  0  2  0  0  0  0  0  0
  191.4670  175.5630  138.3590 C   0  0  0  0  0  0  0  0  0  0  0  0
  192.4650  177.1970  139.8370 C   0  0  0  0  0  0  0  0  0  0  0  0
  190.3140  176.7180  141.7570 C   0  0  0  0  0  2  0  0  0  0  0  0
  190.6280  175.8460  135.5910 C   0  0  2  0  0  0  0  0  0  0  0  0
  190.7200  177.2400  135.7380 O   0  0  0  0  0  0  0  0  0  0  0  0
  191.9820  175.2250  135.2180 C   0  0  0  0  0  2  0  0  0  0  0  0
  194.0850  174.4070  136.0340 O   0  0  0  0  0  1  0  0  0  0  0  0
  192.6730  175.5140  137.6370 C   0  0  0  0  0  0  0  0  0  0  0  0
  190.3100  174.7160  137.9040 C   0  0  0  0  0  2  0  0  0  0  0  0
  193.7370  176.3340  138.0300 C   0  0  0  0  0  3  0  0  0  0  0  0
  192.3630  178.0840  141.0330 C   0  0  0  0  0  2  0  0  0  0  0  0
  191.6750  177.3190  142.1630 C   0  0  0  0  0  2  0  0  0  0  0  0
  189.6560  175.2300  136.6140 C   0  0  2  0  0  3  0  0  0  0  0  0
  190.0690  176.5710  140.2410 C   0  0  1  0  0  3  0  0  0  0  0  0
  192.7600  174.6480  136.4050 C   0  0  1  0  0  3  0  0  0  0  0  0
  193.6150  177.1440  139.1160 N   0  0  0  0  0  0  0  0  0  0  0  0
  186.9890  178.5710  138.8860 C   0  0  2  0  0  3  0  0  0  0  0  0
  187.5480  175.9670  138.8600 C   0  0  0  0  0  1  0  0  0  0  0  0
  187.3920  179.2800  137.7440 O   0  0  0  0  0  0  0  0  0  0  0  0
  189.1310  177.7420  138.2260 C   0  0  2  0  0  3  0  0  0  0  0  0
  188.7840  179.1080  137.6770 C   0  0  0  0  0  2  0  0  0  0  0  0
  187.9590  177.4180  139.1020 C   0  0  1  0  0  0  0  0  0  0  0  0
  189.2950  177.7880  139.7340 C   0  0  1  0  0  3  0  0  0  0  0  0
  185.5190  178.1530  138.7820 C   0  0  2  0  0  3  0  0  0  0  0  0
  185.1000  178.1700  137.4490 O   0  0  0  0  0  1  0  0  0  0  0  0
  184.4610  180.2720  139.0410 O   0  0  0  0  0  1  0  0  0  0  0  0
  184.5920  179.0200  139.6470 C   0  0  2  0  0  3  0  0  0  0  0  0
  186.5770  178.2520  142.8880 C   0  0  0  0  0  2  0  0  0  0  0  0
  183.8980  179.1210  142.0770 C   0  0  0  0  0  2  0  0  0  0  0  0
  186.0700  178.0670  141.4610 C   0  0  0  0  0  2  0  0  0  0  0  0
  185.0750  179.1720  141.0990 C   0  0  1  0  0  3  0  0  0  0  0  0
  184.3880  179.3130  143.5090 C   0  0  0  0  0  2  0  0  0  0  0  0
  185.4030  178.2280  143.8660 C   0  0  2  0  0  3  0  0  0  0  0  0
  185.8810  178.4130  145.2310 N   0  0  0  0  0  0  0  0  0  0  0  0
  185.2840  179.3250  146.0350 O   0  0  0  0  0  1  0  0  0  0  0  0
  187.5420  176.7880  144.9860 O   0  0  0  0  0  0  0  0  0  0  0  0
  187.4410  177.8430  147.0650 N   0  0  0  0  0  2  0  0  0  0  0  0
  188.5520  177.0880  147.6180 C   0  0  0  0  0  1  0  0  0  0  0  0
  186.9800  177.6420  145.7270 C   0  0  0  0  0  0  0  0  0  0  0  0
  187.5060  174.2870  135.6600 C   0  0  0  0  0  0  0  0  0  0  0  0
  188.8880  174.1550  136.0030 N   0  0  0  0  0  2  0  0  0  0  0  0
  186.8550  175.3640  135.9650 N   0  0  0  0  0  2  0  0  0  0  0  0
  187.4170  172.0920  134.7720 O   0  0  0  0  0  1  0  0  0  0  0  0
  186.8170  173.1780  134.9920 C   0  0  0  0  0  0  0  0  0  0  0  0
  185.4920  173.3180  134.6000 O   0  0  0  0  0  0  0  0  0  0  0  0
  1  4  1  0  0  0  0
  1 16  1  0  0  0  0
  2  7  1  0  0  0  0
  3  1  2  0  0  0  0
  4 13  1  0  0  0  0
  5 14  1  0  0  0  0
  6  2  1  6  0  0  0
  6  7  1  0  0  0  0
  6 15  1  0  0  0  0
  8  6  1  0  0  0  0
  8 17  1  0  0  0  0
 10 12  2  0  0  0  0
 10  3  1  0  0  0  0
 11  3  1  0  0  0  0
 12 18  1  0  0  0  0
 13 14  1  0  0  0  0
 15 43  1  6  0  0  0
 15 11  1  0  0  0  0
 16  5  1  1  0  0  0
 17  9  1  6  0  0  0
 17 10  1  0  0  0  0
 18  4  2  0  0  0  0
 19 26  1  6  0  0  0
 19 24  1  0  0  0  0
 21 19  1  0  0  0  0
 22 23  1  6  0  0  0
 22 24  1  0  0  0  0
 22 25  1  0  0  0  0
 23 21  1  0  0  0  0
 24 20  1  1  0  0  0
 24 25  1  0  0  0  0
 25 16  1  1  0  0  0
 26 27  1  6  0  0  0
 26 29  1  0  0  0  0
 29 28  1  6  0  0  0
 30 35  1  0  0  0  0
 31 34  1  0  0  0  0
 32 30  1  0  0  0  0
 33 29  1  6  0  0  0
 33 32  1  0  0  0  0
 33 31  1  0  0  0  0
 34 35  1  0  0  0  0
 35 36  1  1  0  0  0
 36 41  1  0  0  0  0
 36 37  1  0  0  0  0
 38 41  2  0  0  0  0
 39 40  1  0  0  0  0
 41 39  1  0  0  0  0
 42 44  2  0  0  0  0
 42 43  1  0  0  0  0
 45 46  1  0  0  0  0
 46 42  1  0  0  0  0
 47 46  2  0  0  0  0
M  END
>  <MODEL>
7

>  <REMARK>
 VINA RESULT:      -4.7      3.599      8.357
  Name = 
  7 active torsions:
  status: ('A' for Active; 'I' for Inactive)
    1  A    between atoms: C_1  and  C_14
    2  A    between atoms: N_2  and  C_38
    3  A    between atoms: C_5  and  C_7
    4  A    between atoms: C_7  and  C_26
    5  A    between atoms: N_11  and  C_45
    6  A    between atoms: C_24  and  C_26
    7  A    between atoms: C_35  and  C_40
                            x       y       z     vdW  Elec       q    Type
                         _______ _______ _______ _____ _____    ______ ____

>  <TORSDO>
F 7

$$$$
