=
 OpenBabel11062415243D

 48 52  0  0  1  0  0  0  0  0999 V2000
  179.7450  177.8430  142.3720 O   0  0  0  0  0  0  0  0  0  0  0  0
  179.0190  180.3750  138.3050 N   0  0  0  0  0  2  0  0  0  0  0  0
  182.6420  179.8600  139.5880 O   0  0  0  0  0  0  0  0  0  0  0  0
  184.4020  176.7320  137.4390 C   0  0  1  0  0  3  0  0  0  0  0  0
  180.7120  180.2800  134.7720 N   0  0  0  0  0  0  0  0  0  0  0  0
  179.5700  175.8260  139.3990 C   0  0  0  0  0  0  0  0  0  0  0  0
  184.2000  177.4970  138.7360 C   0  0  0  0  0  2  0  0  0  0  0  0
  180.5040  181.3570  135.4500 C   0  0  0  0  0  0  0  0  0  0  0  0
  179.6500  176.1470  140.7850 N   0  0  0  0  0  2  0  0  0  0  0  0
  182.1770  178.5720  140.2040 S   0  0  0  0  0  0  0  0  0  0  0  0
  183.7210  177.4690  136.2990 C   0  0  0  0  0  2  0  0  0  0  0  0
  180.3870  178.4960  140.1560 C   0  0  2  0  0  3  0  0  0  0  0  0
  179.8990  177.4980  141.1720 C   0  0  0  0  0  0  0  0  0  0  0  0
  182.8340  177.1790  139.3090 C   0  0  0  0  0  2  0  0  0  0  0  0
  181.6080  178.1160  135.2670 C   0  0  0  0  0  3  0  0  0  0  0  0
  179.7000  179.2300  137.7260 C   0  0  1  0  0  3  0  0  0  0  0  0
  179.4430  181.5220  137.6080 N   0  0  0  0  0  2  0  0  0  0  0  0
  182.6610  178.5090  141.6260 O   0  0  0  0  0  0  0  0  0  0  0  0
  180.9820  179.7290  137.1050 C   0  0  2  0  0  3  0  0  0  0  0  0
  179.8950  178.1580  138.7540 C   0  0  0  0  0  0  0  0  0  0  0  0
  182.2410  177.1220  136.1810 C   0  0  1  0  0  3  0  0  0  0  0  0
  179.4440  174.6320  139.0340 O   0  0  0  0  0  0  0  0  0  0  0  0
  180.6950  181.2110  136.9270 C   0  0  1  0  0  3  0  0  0  0  0  0
  179.5710  176.9080  138.4080 C   0  0  0  0  0  3  0  0  0  0  0  0
  181.0820  179.2670  135.6860 C   0  0  0  0  0  0  0  0  0  0  0  0
  180.7890  183.7850  135.1520 C   0  0  0  0  0  1  0  0  0  0  0  0
  180.1320  182.5630  134.8530 O   0  0  0  0  0  0  0  0  0  0  0  0
  182.1080  175.8440  135.6310 O   0  0  0  0  0  0  0  0  0  0  0  0
  180.8370  175.7440  135.3200 O   0  0  0  0  0  1  0  0  0  0  0  0
  185.8850  176.6450  137.1310 C   0  0  0  0  0  2  0  0  0  0  0  0
  186.9170  178.8200  137.0790 O   0  0  0  0  0  1  0  0  0  0  0  0
  186.6830  177.7100  137.8890 C   0  0  2  0  0  3  0  0  0  0  0  0
  187.8810  177.2230  138.4600 O   0  0  0  0  0  0  0  0  0  0  0  0
  188.5340  178.2800  139.1250 C   0  0  0  0  0  2  0  0  0  0  0  0
  188.7670  176.5090  140.6630 F   0  0  0  0  0  0  0  0  0  0  0  0
  189.0150  177.8610  140.5170 C   0  0  0  0  0  0  0  0  0  0  0  0
  190.3840  178.0470  140.5970 F   0  0  0  0  0  0  0  0  0  0  0  0
  188.3240  178.6260  141.6660 C   0  0  2  0  0  3  0  0  0  0  0  0
  186.0850  178.1330  142.5250 C   0  0  0  0  0  3  0  0  0  0  0  0
  188.3750  177.9310  142.9920 C   0  0  0  0  0  0  0  0  0  0  0  0
  186.8330  178.8310  141.3930 C   0  0  0  0  0  3  0  0  0  0  0  0
  187.1520  177.6610  143.4430 C   0  0  0  0  0  0  0  0  0  0  0  0
  190.2480  176.4410  143.6650 O   0  0  0  0  0  0  0  0  0  0  0  0
  190.1710  178.5940  144.4220 O   0  0  0  0  0  1  0  0  0  0  0  0
  189.6350  177.6840  143.7330 C   0  0  0  0  0  0  0  0  0  0  0  0
  186.8290  177.0380  144.7710 C   0  0  0  0  0  2  0  0  0  0  0  0
  185.4470  178.9400  145.6260 C   0  0  0  0  0  1  0  0  0  0  0  0
  186.6840  178.0930  145.8590 C   0  0  0  0  0  2  0  0  0  0  0  0
  3 10  2  0  0  0  0
  4 30  1  6  0  0  0
  4  7  1  0  0  0  0
  5  8  2  0  0  0  0
  5 25  1  0  0  0  0
  6  9  1  0  0  0  0
  7 14  1  0  0  0  0
  9 13  1  0  0  0  0
 10 18  2  0  0  0  0
 11  4  1  0  0  0  0
 12 20  1  6  0  0  0
 12 10  1  0  0  0  0
 12 13  1  0  0  0  0
 13  1  2  0  0  0  0
 14 10  1  0  0  0  0
 15 25  2  0  0  0  0
 15 21  1  0  0  0  0
 16  2  1  1  0  0  0
 16 20  1  0  0  0  0
 17  2  1  0  0  0  0
 19 25  1  6  0  0  0
 19 16  1  0  0  0  0
 21 28  1  6  0  0  0
 21 11  1  0  0  0  0
 22  6  2  0  0  0  0
 23  8  1  6  0  0  0
 23 19  1  0  0  0  0
 23 17  1  0  0  0  0
 24 20  2  0  0  0  0
 24  6  1  0  0  0  0
 27 26  1  0  0  0  0
 27  8  1  0  0  0  0
 29 28  1  0  0  0  0
 30 32  1  0  0  0  0
 32 31  1  6  0  0  0
 32 33  1  0  0  0  0
 33 34  1  0  0  0  0
 34 36  1  0  0  0  0
 36 37  1  0  0  0  0
 36 35  1  0  0  0  0
 38 36  1  6  0  0  0
 38 40  1  0  0  0  0
 39 42  1  0  0  0  0
 40 42  2  0  0  0  0
 40 45  1  0  0  0  0
 41 38  1  0  0  0  0
 41 39  2  0  0  0  0
 42 46  1  0  0  0  0
 43 45  2  0  0  0  0
 45 44  1  0  0  0  0
 46 48  1  0  0  0  0
 47 48  1  0  0  0  0
M  END
>  <MODEL>
1

>  <REMARK>
 VINA RESULT:      -7.6      0.000      0.000
  Name = 
  11 active torsions:
  status: ('A' for Active; 'I' for Inactive)
    1  A    between atoms: O_3  and  C_9
    2  A    between atoms: O_3  and  C_44
    3  A    between atoms: C_5  and  C_42
    4  A    between atoms: C_8  and  C_36
    5  A    between atoms: C_9  and  C_36
    6  A    between atoms: C_13  and  O_17
    7  A    between atoms: O_23  and  C_38
    8  A    between atoms: C_32  and  C_48
    9  A    between atoms: C_34  and  C_37
   10  A    between atoms: C_34  and  C_46
   11  A    between atoms: C_42  and  C_44
                            x       y       z     vdW  Elec       q    Type
                         _______ _______ _______ _____ _____    ______ ____

>  <TORSDO>
F 11

$$$$
=
 OpenBabel11062415243D

 48 52  0  0  1  0  0  0  0  0999 V2000
  182.0410  178.5550  134.5940 O   0  0  0  0  0  0  0  0  0  0  0  0
  179.5770  175.7560  137.6880 N   0  0  0  0  0  2  0  0  0  0  0  0
  183.3590  176.3660  138.2930 O   0  0  0  0  0  0  0  0  0  0  0  0
  183.7970  179.3490  141.1920 C   0  0  1  0  0  3  0  0  0  0  0  0
  179.4090  175.6210  141.6010 N   0  0  0  0  0  0  0  0  0  0  0  0
  180.4230  180.3690  137.2450 C   0  0  0  0  0  0  0  0  0  0  0  0
  184.2540  178.6710  139.9120 C   0  0  0  0  0  2  0  0  0  0  0  0
  179.5810  174.5900  140.8450 C   0  0  0  0  0  0  0  0  0  0  0  0
  181.1560  180.1420  136.0440 N   0  0  0  0  0  2  0  0  0  0  0  0
  183.1940  177.6900  137.6060 S   0  0  0  0  0  0  0  0  0  0  0  0
  182.6860  178.5360  141.8330 C   0  0  0  0  0  2  0  0  0  0  0  0
  181.5900  177.7580  136.8100 C   0  0  2  0  0  3  0  0  0  0  0  0
  181.6020  178.8200  135.7430 C   0  0  0  0  0  0  0  0  0  0  0  0
  183.3060  179.0220  138.7830 C   0  0  0  0  0  2  0  0  0  0  0  0
  180.3590  177.8150  141.7110 C   0  0  0  0  0  3  0  0  0  0  0  0
  179.8680  176.8620  138.5840 C   0  0  1  0  0  3  0  0  0  0  0  0
  179.6630  174.5670  138.4350 N   0  0  0  0  0  2  0  0  0  0  0  0
  184.2870  177.8500  136.5850 O   0  0  0  0  0  0  0  0  0  0  0  0
  180.7240  176.3270  139.7050 C   0  0  2  0  0  3  0  0  0  0  0  0
  180.4860  178.0010  137.8320 C   0  0  0  0  0  0  0  0  0  0  0  0
  181.3130  178.8700  141.2610 C   0  0  1  0  0  3  0  0  0  0  0  0
  180.1000  181.5360  137.5760 O   0  0  0  0  0  0  0  0  0  0  0  0
  180.4380  174.8350  139.6420 C   0  0  1  0  0  3  0  0  0  0  0  0
  179.9950  179.2230  138.0560 C   0  0  0  0  0  3  0  0  0  0  0  0
  180.1300  176.6930  141.0280 C   0  0  0  0  0  0  0  0  0  0  0  0
  178.9330  172.8360  142.4470 C   0  0  0  0  0  1  0  0  0  0  0  0
  179.0130  173.3460  141.1250 O   0  0  0  0  0  0  0  0  0  0  0  0
  180.8950  180.1080  141.7560 O   0  0  0  0  0  0  0  0  0  0  0  0
  179.6010  179.9770  141.9340 O   0  0  0  0  0  1  0  0  0  0  0  0
  184.9580  179.4190  142.1670 C   0  0  0  0  0  2  0  0  0  0  0  0
  183.5080  179.6840  144.0700 O   0  0  0  0  0  1  0  0  0  0  0  0
  184.5580  178.9240  143.5600 C   0  0  2  0  0  3  0  0  0  0  0  0
  185.6380  178.8530  144.4690 O   0  0  0  0  0  0  0  0  0  0  0  0
  186.0820  177.5170  144.5490 C   0  0  0  0  0  2  0  0  0  0  0  0
  187.7800  176.0360  143.8580 F   0  0  0  0  0  0  0  0  0  0  0  0
  187.5350  177.3760  144.0910 C   0  0  0  0  0  0  0  0  0  0  0  0
  187.6980  178.0460  142.8910 F   0  0  0  0  0  0  0  0  0  0  0  0
  188.5610  177.9040  145.1170 C   0  0  2  0  0  3  0  0  0  0  0  0
  189.3310  176.6690  147.0850 C   0  0  0  0  0  3  0  0  0  0  0  0
  189.9500  177.3730  144.9350 C   0  0  0  0  0  0  0  0  0  0  0  0
  188.1820  177.5150  146.5470 C   0  0  0  0  0  3  0  0  0  0  0  0
  190.3520  176.6970  146.0080 C   0  0  0  0  0  0  0  0  0  0  0  0
  191.0660  176.6670  142.8280 O   0  0  0  0  0  0  0  0  0  0  0  0
  191.2380  178.8290  143.5450 O   0  0  0  0  0  1  0  0  0  0  0  0
  190.7840  177.6700  143.7460 C   0  0  0  0  0  0  0  0  0  0  0  0
  191.7140  176.0920  146.1980 C   0  0  0  0  0  2  0  0  0  0  0  0
  192.4980  176.8890  148.4370 C   0  0  0  0  0  1  0  0  0  0  0  0
  191.9540  175.7090  147.6530 C   0  0  0  0  0  2  0  0  0  0  0  0
  1 13  2  0  0  0  0
  2 17  1  0  0  0  0
  4 11  1  0  0  0  0
  4 30  1  1  0  0  0
  6 22  2  0  0  0  0
  6 24  1  0  0  0  0
  7  4  1  0  0  0  0
  8 27  1  0  0  0  0
  8  5  2  0  0  0  0
  9  6  1  0  0  0  0
 10  3  2  0  0  0  0
 10 14  1  0  0  0  0
 12 13  1  6  0  0  0
 12 10  1  0  0  0  0
 12 20  1  0  0  0  0
 13  9  1  0  0  0  0
 14  7  1  0  0  0  0
 16  2  1  6  0  0  0
 16 19  1  0  0  0  0
 18 10  2  0  0  0  0
 19 25  1  1  0  0  0
 20 24  2  0  0  0  0
 20 16  1  0  0  0  0
 21 15  1  0  0  0  0
 21 28  1  1  0  0  0
 21 11  1  0  0  0  0
 23 17  1  6  0  0  0
 23 19  1  0  0  0  0
 23  8  1  0  0  0  0
 25  5  1  0  0  0  0
 25 15  2  0  0  0  0
 27 26  1  0  0  0  0
 28 29  1  0  0  0  0
 30 32  1  0  0  0  0
 32 31  1  1  0  0  0
 32 33  1  0  0  0  0
 33 34  1  0  0  0  0
 35 36  1  0  0  0  0
 36 34  1  0  0  0  0
 37 36  1  0  0  0  0
 38 36  1  6  0  0  0
 38 41  1  0  0  0  0
 40 38  1  0  0  0  0
 40 42  2  0  0  0  0
 41 39  2  0  0  0  0
 42 46  1  0  0  0  0
 42 39  1  0  0  0  0
 43 45  2  0  0  0  0
 44 45  1  0  0  0  0
 45 40  1  0  0  0  0
 46 48  1  0  0  0  0
 48 47  1  0  0  0  0
M  END
>  <MODEL>
2

>  <REMARK>
 VINA RESULT:      -6.4      2.447      5.869
  Name = 
  11 active torsions:
  status: ('A' for Active; 'I' for Inactive)
    1  A    between atoms: O_3  and  C_9
    2  A    between atoms: O_3  and  C_44
    3  A    between atoms: C_5  and  C_42
    4  A    between atoms: C_8  and  C_36
    5  A    between atoms: C_9  and  C_36
    6  A    between atoms: C_13  and  O_17
    7  A    between atoms: O_23  and  C_38
    8  A    between atoms: C_32  and  C_48
    9  A    between atoms: C_34  and  C_37
   10  A    between atoms: C_34  and  C_46
   11  A    between atoms: C_42  and  C_44
                            x       y       z     vdW  Elec       q    Type
                         _______ _______ _______ _____ _____    ______ ____

>  <TORSDO>
F 11

$$$$
=
 OpenBabel11062415243D

 48 52  0  0  1  0  0  0  0  0999 V2000
  179.9540  179.1380  138.4150 O   0  0  0  0  0  0  0  0  0  0  0  0
  179.5660  174.4640  137.1970 N   0  0  0  0  0  2  0  0  0  0  0  0
  181.5470  176.8610  134.8800 O   0  0  0  0  0  0  0  0  0  0  0  0
  185.6330  176.4180  135.6570 C   0  0  1  0  0  3  0  0  0  0  0  0
  182.1720  171.8090  135.9650 N   0  0  0  0  0  0  0  0  0  0  0  0
  182.4820  177.0280  139.8650 C   0  0  0  0  0  0  0  0  0  0  0  0
  184.4400  177.2910  135.3080 C   0  0  0  0  0  2  0  0  0  0  0  0
  181.0320  172.0240  135.4010 C   0  0  0  0  0  0  0  0  0  0  0  0
  181.7180  178.2040  139.6070 N   0  0  0  0  0  2  0  0  0  0  0  0
  181.8650  177.6790  136.0990 S   0  0  0  0  0  0  0  0  0  0  0  0
  185.2180  174.9570  135.6510 C   0  0  0  0  0  2  0  0  0  0  0  0
  180.8560  177.1260  137.4730 C   0  0  2  0  0  3  0  0  0  0  0  0
  180.7950  178.2080  138.5190 C   0  0  0  0  0  0  0  0  0  0  0  0
  183.5820  177.4990  136.5390 C   0  0  0  0  0  2  0  0  0  0  0  0
  183.9520  173.1940  136.7640 C   0  0  0  0  0  3  0  0  0  0  0  0
  180.9950  174.5000  137.4570 C   0  0  1  0  0  3  0  0  0  0  0  0
  179.3520  173.6050  136.1030 N   0  0  0  0  0  2  0  0  0  0  0  0
  181.5890  179.1270  135.8010 O   0  0  0  0  0  0  0  0  0  0  0  0
  181.7010  174.1670  136.1650 C   0  0  2  0  0  3  0  0  0  0  0  0
  181.3900  175.8190  138.0470 C   0  0  0  0  0  0  0  0  0  0  0  0
  184.6080  174.5170  136.9770 C   0  0  1  0  0  3  0  0  0  0  0  0
  183.3640  177.0320  140.7570 O   0  0  0  0  0  0  0  0  0  0  0  0
  180.6090  173.4600  135.3780 C   0  0  1  0  0  3  0  0  0  0  0  0
  182.1820  175.7980  139.1230 C   0  0  0  0  0  3  0  0  0  0  0  0
  182.6820  173.0590  136.3840 C   0  0  0  0  0  0  0  0  0  0  0  0
  180.4040  169.6480  135.2590 C   0  0  0  0  0  1  0  0  0  0  0  0
  180.2540  171.0010  134.8580 O   0  0  0  0  0  0  0  0  0  0  0  0
  185.6220  174.3780  137.9280 O   0  0  0  0  0  0  0  0  0  0  0  0
  185.9460  173.1070  137.8890 O   0  0  0  0  0  1  0  0  0  0  0  0
  186.7190  176.6090  134.6150 C   0  0  0  0  0  2  0  0  0  0  0  0
  188.7600  175.7900  135.5970 O   0  0  0  0  0  1  0  0  0  0  0  0
  188.0660  176.9500  135.2590 C   0  0  2  0  0  3  0  0  0  0  0  0
  187.9630  177.8310  136.3600 O   0  0  0  0  0  0  0  0  0  0  0  0
  189.0870  177.6590  137.1920 C   0  0  0  0  0  2  0  0  0  0  0  0
  188.8640  179.0260  139.0990 F   0  0  0  0  0  0  0  0  0  0  0  0
  188.7080  177.7200  138.6740 C   0  0  0  0  0  0  0  0  0  0  0  0
  187.3720  177.3910  138.8120 F   0  0  0  0  0  0  0  0  0  0  0  0
  189.5600  176.7950  139.5690 C   0  0  2  0  0  3  0  0  0  0  0  0
  191.8770  177.2340  140.2260 C   0  0  0  0  0  3  0  0  0  0  0  0
  189.6630  177.2350  140.9960 C   0  0  0  0  0  0  0  0  0  0  0  0
  191.0090  176.7160  139.0840 C   0  0  0  0  0  3  0  0  0  0  0  0
  190.9260  177.4780  141.3380 C   0  0  0  0  0  0  0  0  0  0  0  0
  187.6820  178.4010  141.9460 O   0  0  0  0  0  0  0  0  0  0  0  0
  188.2360  176.3090  142.6760 O   0  0  0  0  0  1  0  0  0  0  0  0
  188.5020  177.2810  141.9170 C   0  0  0  0  0  0  0  0  0  0  0  0
  191.4000  177.8670  142.7090 C   0  0  0  0  0  2  0  0  0  0  0  0
  191.1890  176.8720  144.9960 C   0  0  0  0  0  1  0  0  0  0  0  0
  191.6630  176.6400  143.5730 C   0  0  0  0  0  2  0  0  0  0  0  0
  1 13  2  0  0  0  0
  3 10  2  0  0  0  0
  4 30  1  6  0  0  0
  5 25  1  0  0  0  0
  6 22  2  0  0  0  0
  7  4  1  0  0  0  0
  7 14  1  0  0  0  0
  8  5  2  0  0  0  0
  9  6  1  0  0  0  0
 10 14  1  0  0  0  0
 10 12  1  0  0  0  0
 11  4  1  0  0  0  0
 11 21  1  0  0  0  0
 12 20  1  1  0  0  0
 12 13  1  0  0  0  0
 13  9  1  0  0  0  0
 15 21  1  0  0  0  0
 16  2  1  6  0  0  0
 16 20  1  0  0  0  0
 17  2  1  0  0  0  0
 18 10  2  0  0  0  0
 19 25  1  1  0  0  0
 19 16  1  0  0  0  0
 20 24  2  0  0  0  0
 21 28  1  1  0  0  0
 23  8  1  1  0  0  0
 23 17  1  0  0  0  0
 23 19  1  0  0  0  0
 24  6  1  0  0  0  0
 25 15  2  0  0  0  0
 27 26  1  0  0  0  0
 27  8  1  0  0  0  0
 29 28  1  0  0  0  0
 30 32  1  0  0  0  0
 32 31  1  1  0  0  0
 32 33  1  0  0  0  0
 33 34  1  0  0  0  0
 34 36  1  0  0  0  0
 36 37  1  0  0  0  0
 36 35  1  0  0  0  0
 38 36  1  6  0  0  0
 38 40  1  0  0  0  0
 39 42  1  0  0  0  0
 40 42  2  0  0  0  0
 40 45  1  0  0  0  0
 41 38  1  0  0  0  0
 41 39  2  0  0  0  0
 42 46  1  0  0  0  0
 45 43  2  0  0  0  0
 45 44  1  0  0  0  0
 46 48  1  0  0  0  0
 48 47  1  0  0  0  0
M  END
>  <MODEL>
3

>  <REMARK>
 VINA RESULT:      -6.1      3.158      5.343
  Name = 
  11 active torsions:
  status: ('A' for Active; 'I' for Inactive)
    1  A    between atoms: O_3  and  C_9
    2  A    between atoms: O_3  and  C_44
    3  A    between atoms: C_5  and  C_42
    4  A    between atoms: C_8  and  C_36
    5  A    between atoms: C_9  and  C_36
    6  A    between atoms: C_13  and  O_17
    7  A    between atoms: O_23  and  C_38
    8  A    between atoms: C_32  and  C_48
    9  A    between atoms: C_34  and  C_37
   10  A    between atoms: C_34  and  C_46
   11  A    between atoms: C_42  and  C_44
                            x       y       z     vdW  Elec       q    Type
                         _______ _______ _______ _____ _____    ______ ____

>  <TORSDO>
F 11

$$$$
=
 OpenBabel11062415243D

 48 52  0  0  1  0  0  0  0  0999 V2000
  190.2420  177.0630  135.2150 O   0  0  0  0  0  0  0  0  0  0  0  0
  186.4650  174.0490  135.5700 N   0  0  0  0  0  2  0  0  0  0  0  0
  188.0060  175.5340  138.8040 O   0  0  0  0  0  0  0  0  0  0  0  0
  185.6640  178.7680  140.0520 C   0  0  1  0  0  3  0  0  0  0  0  0
  183.1190  174.2010  137.6050 N   0  0  0  0  0  0  0  0  0  0  0  0
  187.0410  178.6820  134.9430 C   0  0  0  0  0  0  0  0  0  0  0  0
  187.0210  178.1060  139.8760 C   0  0  0  0  0  2  0  0  0  0  0  0
  183.9020  173.1760  137.5680 C   0  0  0  0  0  0  0  0  0  0  0  0
  188.4580  178.5260  134.9280 N   0  0  0  0  0  2  0  0  0  0  0  0
  188.4150  176.7280  137.9890 S   0  0  0  0  0  0  0  0  0  0  0  0
  184.5640  177.7830  139.6960 C   0  0  0  0  0  2  0  0  0  0  0  0
  188.1920  176.3700  136.2470 C   0  0  2  0  0  3  0  0  0  0  0  0
  189.0280  177.3170  135.4280 C   0  0  0  0  0  0  0  0  0  0  0  0
  187.4200  178.1430  138.4150 C   0  0  0  0  0  2  0  0  0  0  0  0
  183.4270  176.5530  137.9230 C   0  0  0  0  0  3  0  0  0  0  0  0
  185.8160  175.2620  136.0380 C   0  0  1  0  0  3  0  0  0  0  0  0
  185.9560  172.9740  136.3230 N   0  0  0  0  0  2  0  0  0  0  0  0
  189.8570  177.0430  138.2740 O   0  0  0  0  0  0  0  0  0  0  0  0
  185.3830  175.0250  137.4640 C   0  0  2  0  0  3  0  0  0  0  0  0
  186.7190  176.4430  135.8610 C   0  0  0  0  0  0  0  0  0  0  0  0
  184.2680  177.7540  138.2010 C   0  0  1  0  0  3  0  0  0  0  0  0
  186.5230  179.7700  134.5940 O   0  0  0  0  0  0  0  0  0  0  0  0
  185.3620  173.5070  137.5430 C   0  0  1  0  0  3  0  0  0  0  0  0
  186.1950  177.5400  135.3060 C   0  0  0  0  0  3  0  0  0  0  0  0
  183.9330  175.3570  137.6250 C   0  0  0  0  0  0  0  0  0  0  0  0
  183.3460  171.1070  136.3540 C   0  0  0  0  0  1  0  0  0  0  0  0
  183.4250  171.8640  137.5520 O   0  0  0  0  0  0  0  0  0  0  0  0
  183.5560  178.9040  137.8480 O   0  0  0  0  0  0  0  0  0  0  0  0
  182.5110  178.9070  138.6420 O   0  0  0  0  0  1  0  0  0  0  0  0
  185.4870  179.1760  141.5030 C   0  0  0  0  0  2  0  0  0  0  0  0
  183.3450  178.7630  142.5230 O   0  0  0  0  0  1  0  0  0  0  0  0
  184.5890  178.1930  142.2600 C   0  0  2  0  0  3  0  0  0  0  0  0
  185.1800  177.6730  143.4340 O   0  0  0  0  0  0  0  0  0  0  0  0
  186.5780  177.8320  143.3520 C   0  0  0  0  0  2  0  0  0  0  0  0
  186.3500  176.4360  145.2380 F   0  0  0  0  0  0  0  0  0  0  0  0
  187.3050  177.0030  144.4150 C   0  0  0  0  0  0  0  0  0  0  0  0
  187.9890  175.9730  143.7950 F   0  0  0  0  0  0  0  0  0  0  0  0
  188.2870  177.8260  145.2760 C   0  0  2  0  0  3  0  0  0  0  0  0
  189.2530  177.0760  147.3960 C   0  0  0  0  0  3  0  0  0  0  0  0
  189.7240  177.4310  145.1270 C   0  0  0  0  0  0  0  0  0  0  0  0
  187.9960  177.6710  146.7700 C   0  0  0  0  0  3  0  0  0  0  0  0
  190.2330  177.0170  146.2840 C   0  0  0  0  0  0  0  0  0  0  0  0
  190.9550  176.4740  143.1890 O   0  0  0  0  0  0  0  0  0  0  0  0
  190.7030  178.7370  143.3800 O   0  0  0  0  0  1  0  0  0  0  0  0
  190.4840  177.5920  143.8640 C   0  0  0  0  0  0  0  0  0  0  0  0
  191.6630  176.6160  146.5140 C   0  0  0  0  0  2  0  0  0  0  0  0
  193.0950  175.7780  148.3870 C   0  0  0  0  0  1  0  0  0  0  0  0
  191.7800  175.6070  147.6490 C   0  0  0  0  0  2  0  0  0  0  0  0
  1 13  2  0  0  0  0
  2 17  1  0  0  0  0
  4 30  1  1  0  0  0
  5 25  1  0  0  0  0
  6 24  1  0  0  0  0
  7  4  1  0  0  0  0
  8  5  2  0  0  0  0
  9  6  1  0  0  0  0
  9 13  1  0  0  0  0
 10 18  2  0  0  0  0
 10 14  1  0  0  0  0
 10  3  2  0  0  0  0
 11  4  1  0  0  0  0
 12 13  1  6  0  0  0
 12 10  1  0  0  0  0
 14  7  1  0  0  0  0
 15 21  1  0  0  0  0
 16  2  1  1  0  0  0
 16 19  1  0  0  0  0
 19 23  1  0  0  0  0
 19 25  1  6  0  0  0
 20 16  1  0  0  0  0
 20 12  1  0  0  0  0
 21 28  1  1  0  0  0
 21 11  1  0  0  0  0
 22  6  2  0  0  0  0
 23 17  1  6  0  0  0
 23  8  1  0  0  0  0
 24 20  2  0  0  0  0
 25 15  2  0  0  0  0
 26 27  1  0  0  0  0
 27  8  1  0  0  0  0
 28 29  1  0  0  0  0
 30 32  1  0  0  0  0
 32 31  1  1  0  0  0
 32 33  1  0  0  0  0
 34 33  1  0  0  0  0
 34 36  1  0  0  0  0
 36 35  1  0  0  0  0
 37 36  1  0  0  0  0
 38 36  1  6  0  0  0
 38 41  1  0  0  0  0
 40 38  1  0  0  0  0
 40 42  2  0  0  0  0
 41 39  2  0  0  0  0
 42 46  1  0  0  0  0
 42 39  1  0  0  0  0
 43 45  2  0  0  0  0
 44 45  1  0  0  0  0
 45 40  1  0  0  0  0
 46 48  1  0  0  0  0
 48 47  1  0  0  0  0
M  END
>  <MODEL>
4

>  <REMARK>
 VINA RESULT:      -5.4      3.895      7.022
  Name = 
  11 active torsions:
  status: ('A' for Active; 'I' for Inactive)
    1  A    between atoms: O_3  and  C_9
    2  A    between atoms: O_3  and  C_44
    3  A    between atoms: C_5  and  C_42
    4  A    between atoms: C_8  and  C_36
    5  A    between atoms: C_9  and  C_36
    6  A    between atoms: C_13  and  O_17
    7  A    between atoms: O_23  and  C_38
    8  A    between atoms: C_32  and  C_48
    9  A    between atoms: C_34  and  C_37
   10  A    between atoms: C_34  and  C_46
   11  A    between atoms: C_42  and  C_44
                            x       y       z     vdW  Elec       q    Type
                         _______ _______ _______ _____ _____    ______ ____

>  <TORSDO>
F 11

$$$$
=
 OpenBabel11062415243D

 48 52  0  0  1  0  0  0  0  0999 V2000
  190.1840  176.9960  135.3040 O   0  0  0  0  0  0  0  0  0  0  0  0
  186.4190  173.9520  135.4880 N   0  0  0  0  0  2  0  0  0  0  0  0
  187.8380  175.4020  138.7930 O   0  0  0  0  0  0  0  0  0  0  0  0
  185.4320  178.6020  140.0050 C   0  0  1  0  0  3  0  0  0  0  0  0
  183.0040  174.0530  137.4090 N   0  0  0  0  0  0  0  0  0  0  0  0
  186.9830  178.5970  134.9450 C   0  0  0  0  0  0  0  0  0  0  0  0
  186.7980  177.9510  139.8660 C   0  0  0  0  0  2  0  0  0  0  0  0
  183.7950  173.0340  137.3850 C   0  0  0  0  0  0  0  0  0  0  0  0
  188.4000  178.4500  134.9770 N   0  0  0  0  0  2  0  0  0  0  0  0
  188.2650  176.6090  138.0100 S   0  0  0  0  0  0  0  0  0  0  0  0
  184.3520  177.6140  139.5980 C   0  0  0  0  0  2  0  0  0  0  0  0
  188.1050  176.2740  136.2560 C   0  0  2  0  0  3  0  0  0  0  0  0
  188.9620  177.2390  135.4790 C   0  0  0  0  0  0  0  0  0  0  0  0
  187.2470  178.0120  138.4210 C   0  0  0  0  0  2  0  0  0  0  0  0
  183.2850  176.4030  137.7700 C   0  0  0  0  0  3  0  0  0  0  0  0
  185.7450  175.1530  135.9510 C   0  0  1  0  0  3  0  0  0  0  0  0
  185.8920  172.8630  136.2080 N   0  0  0  0  0  2  0  0  0  0  0  0
  189.6950  176.9300  138.3480 O   0  0  0  0  0  0  0  0  0  0  0  0
  185.2660  174.8940  137.3570 C   0  0  2  0  0  3  0  0  0  0  0  0
  186.6450  176.3440  135.8210 C   0  0  0  0  0  0  0  0  0  0  0  0
  184.1070  177.6050  138.0930 C   0  0  1  0  0  3  0  0  0  0  0  0
  186.4690  179.6870  134.5940 O   0  0  0  0  0  0  0  0  0  0  0  0
  185.2520  173.3750  137.4150 C   0  0  1  0  0  3  0  0  0  0  0  0
  186.1330  177.4440  135.2640 C   0  0  0  0  0  3  0  0  0  0  0  0
  183.8090  175.2140  137.4730 C   0  0  0  0  0  0  0  0  0  0  0  0
  182.2100  171.3480  136.5440 C   0  0  0  0  0  1  0  0  0  0  0  0
  183.3280  171.7190  137.3340 O   0  0  0  0  0  0  0  0  0  0  0  0
  183.3990  178.7550  137.7330 O   0  0  0  0  0  0  0  0  0  0  0  0
  182.8420  178.4580  136.5820 O   0  0  0  0  0  1  0  0  0  0  0  0
  185.2020  178.9880  141.4540 C   0  0  0  0  0  2  0  0  0  0  0  0
  182.8090  178.7340  141.5200 O   0  0  0  0  0  1  0  0  0  0  0  0
  184.0020  178.2490  142.0520 C   0  0  2  0  0  3  0  0  0  0  0  0
  183.9790  178.2530  143.4660 O   0  0  0  0  0  0  0  0  0  0  0  0
  185.0740  179.0040  143.9390 C   0  0  0  0  0  2  0  0  0  0  0  0
  186.0550  179.5870  146.0010 F   0  0  0  0  0  0  0  0  0  0  0  0
  185.5540  178.5050  145.3040 C   0  0  0  0  0  0  0  0  0  0  0  0
  184.4720  178.0140  146.0120 F   0  0  0  0  0  0  0  0  0  0  0  0
  186.6460  177.4160  145.2140 C   0  0  2  0  0  3  0  0  0  0  0  0
  188.6630  177.5720  143.8360 C   0  0  0  0  0  3  0  0  0  0  0  0
  187.8650  177.6910  146.0380 C   0  0  0  0  0  0  0  0  0  0  0  0
  187.1720  177.2590  143.7860 C   0  0  0  0  0  3  0  0  0  0  0  0
  188.9530  177.7820  145.2760 C   0  0  0  0  0  0  0  0  0  0  0  0
  187.6200  178.9500  148.1690 O   0  0  0  0  0  0  0  0  0  0  0  0
  188.0330  176.7040  148.2090 O   0  0  0  0  0  1  0  0  0  0  0  0
  187.8500  177.7450  147.5200 C   0  0  0  0  0  0  0  0  0  0  0  0
  190.3560  177.9780  145.7780 C   0  0  0  0  0  2  0  0  0  0  0  0
  191.7940  176.2530  146.8820 C   0  0  0  0  0  1  0  0  0  0  0  0
  191.2000  176.7280  145.5690 C   0  0  0  0  0  2  0  0  0  0  0  0
  1 13  2  0  0  0  0
  2 17  1  0  0  0  0
  4 30  1  1  0  0  0
  5 25  1  0  0  0  0
  6  9  1  0  0  0  0
  6 24  1  0  0  0  0
  7  4  1  0  0  0  0
  8  5  2  0  0  0  0
  8 23  1  0  0  0  0
  9 13  1  0  0  0  0
 10 18  2  0  0  0  0
 10 14  1  0  0  0  0
 10  3  2  0  0  0  0
 11  4  1  0  0  0  0
 12 13  1  6  0  0  0
 12 10  1  0  0  0  0
 14  7  1  0  0  0  0
 15 21  1  0  0  0  0
 16  2  1  1  0  0  0
 16 19  1  0  0  0  0
 19 23  1  0  0  0  0
 19 25  1  6  0  0  0
 20 16  1  0  0  0  0
 20 12  1  0  0  0  0
 21 28  1  1  0  0  0
 21 11  1  0  0  0  0
 22  6  2  0  0  0  0
 23 17  1  6  0  0  0
 24 20  2  0  0  0  0
 25 15  2  0  0  0  0
 26 27  1  0  0  0  0
 27  8  1  0  0  0  0
 29 28  1  0  0  0  0
 30 32  1  0  0  0  0
 32 31  1  6  0  0  0
 32 33  1  0  0  0  0
 33 34  1  0  0  0  0
 34 36  1  0  0  0  0
 36 35  1  0  0  0  0
 36 37  1  0  0  0  0
 38 36  1  6  0  0  0
 38 40  1  0  0  0  0
 39 42  1  0  0  0  0
 40 45  1  0  0  0  0
 41 39  2  0  0  0  0
 41 38  1  0  0  0  0
 42 46  1  0  0  0  0
 42 40  2  0  0  0  0
 45 43  2  0  0  0  0
 45 44  1  0  0  0  0
 48 46  1  0  0  0  0
 48 47  1  0  0  0  0
M  END
>  <MODEL>
5

>  <REMARK>
 VINA RESULT:      -5.2      4.069      7.051
  Name = 
  11 active torsions:
  status: ('A' for Active; 'I' for Inactive)
    1  A    between atoms: O_3  and  C_9
    2  A    between atoms: O_3  and  C_44
    3  A    between atoms: C_5  and  C_42
    4  A    between atoms: C_8  and  C_36
    5  A    between atoms: C_9  and  C_36
    6  A    between atoms: C_13  and  O_17
    7  A    between atoms: O_23  and  C_38
    8  A    between atoms: C_32  and  C_48
    9  A    between atoms: C_34  and  C_37
   10  A    between atoms: C_34  and  C_46
   11  A    between atoms: C_42  and  C_44
                            x       y       z     vdW  Elec       q    Type
                         _______ _______ _______ _____ _____    ______ ____

>  <TORSDO>
F 11

$$$$
