=
 OpenBabel11062415463D

 27 29  0  0  1  0  0  0  0  0999 V2000
  186.9710  178.4910  141.7100 C   0  0  0  0  0  0  0  0  0  0  0  0
  186.2220  178.6590  142.9210 N   0  0  0  0  0  2  0  0  0  0  0  0
  187.0920  178.2510  139.2980 C   0  0  0  0  0  2  0  0  0  0  0  0
  186.3690  178.3690  140.5630 N   0  0  0  0  0  0  0  0  0  0  0  0
  189.0920  178.6950  140.5400 O   0  0  0  0  0  0  0  0  0  0  0  0
  188.4820  178.3990  141.7860 C   0  0  2  0  0  3  0  0  0  0  0  0
  188.5410  177.8520  139.5530 C   0  0  0  0  0  2  0  0  0  0  0  0
  182.0330  178.8980  143.2840 C   0  0  0  0  0  0  0  0  0  0  0  0
  182.8400  179.0320  144.4150 C   0  0  0  0  0  3  0  0  0  0  0  0
  184.2270  178.9530  144.2940 C   0  0  0  0  0  3  0  0  0  0  0  0
  183.9900  178.6130  141.9450 N   0  0  0  0  0  0  0  0  0  0  0  0
  182.6350  178.6890  142.0350 C   0  0  0  0  0  0  0  0  0  0  0  0
  184.7960  178.7400  143.0360 C   0  0  0  0  0  0  0  0  0  0  0  0
  180.6170  178.9790  143.4150 N   0  0  0  0  0  1  0  0  0  0  0  0
  182.8010  177.2920  139.8390 C   0  0  0  0  0  1  0  0  0  0  0  0
  181.6500  178.5030  140.5490 S   0  0  0  0  0  0  0  0  0  0  0  0
  188.9760  177.0580  142.3700 C   0  0  2  0  0  3  0  0  0  0  0  0
  187.8980  176.2870  142.8170 O   0  0  0  0  0  1  0  0  0  0  0  0
  189.6600  176.4090  144.7400 C   0  0  0  0  0  2  0  0  0  0  0  0
  189.7760  178.5020  144.2800 C   0  0  0  0  0  2  0  0  0  0  0  0
  189.4150  177.6920  145.5140 C   0  0  1  0  0  3  0  0  0  0  0  0
  187.9330  177.8380  145.8060 C   0  0  0  0  0  1  0  0  0  0  0  0
  190.0170  177.2170  143.5010 C   0  0  2  0  0  0  0  0  0  0  0  0
  191.4950  177.0520  143.0830 C   0  0  0  0  0  0  0  0  0  0  0  0
  192.0070  175.8600  143.5660 F   0  0  0  0  0  0  0  0  0  0  0  0
  192.2520  178.0930  143.5900 F   0  0  0  0  0  0  0  0  0  0  0  0
  191.6060  177.0480  141.7040 F   0  0  0  0  0  0  0  0  0  0  0  0
  1  6  1  0  0  0  0
  1  2  1  0  0  0  0
  2 13  1  0  0  0  0
  3  7  1  0  0  0  0
  3  4  1  0  0  0  0
  4  1  2  0  0  0  0
  5  6  1  0  0  0  0
  6 17  1  6  0  0  0
  7  5  1  0  0  0  0
  8 14  1  0  0  0  0
  8  9  1  0  0  0  0
 10  9  2  0  0  0  0
 11 12  1  0  0  0  0
 11 13  2  0  0  0  0
 12  8  2  0  0  0  0
 13 10  1  0  0  0  0
 15 16  1  0  0  0  0
 16 12  1  0  0  0  0
 17 18  1  1  0  0  0
 17 23  1  0  0  0  0
 19 21  1  0  0  0  0
 20 21  1  0  0  0  0
 21 22  1  6  0  0  0
 23 24  1  6  0  0  0
 23 20  1  0  0  0  0
 23 19  1  0  0  0  0
 24 25  1  0  0  0  0
 24 26  1  0  0  0  0
 27 24  1  0  0  0  0
M  END
>  <MODEL>
1

>  <REMARK>
 VINA RESULT:      -7.6      0.000      0.000
  Name = 
  5 active torsions:
  status: ('A' for Active; 'I' for Inactive)
    1  A    between atoms: C_1  and  C_23
    2  A    between atoms: C_7  and  C_20
    3  A    between atoms: C_7  and  C_23
    4  A    between atoms: N_11  and  C_22
    5  A    between atoms: C_21  and  S_27
                            x       y       z     vdW  Elec       q    Type
                         _______ _______ _______ _____ _____    ______ ____

>  <TORSDO>
F 5

$$$$
=
 OpenBabel11062415463D

 27 29  0  0  1  0  0  0  0  0999 V2000
  187.8900  178.0730  141.6560 C   0  0  0  0  0  0  0  0  0  0  0  0
  186.8160  178.4670  142.5190 N   0  0  0  0  0  2  0  0  0  0  0  0
  188.7370  177.4020  139.4830 C   0  0  0  0  0  2  0  0  0  0  0  0
  187.6670  177.7550  140.4130 N   0  0  0  0  0  0  0  0  0  0  0  0
  190.2780  178.0310  141.2060 O   0  0  0  0  0  0  0  0  0  0  0  0
  189.2920  177.9730  142.2230 C   0  0  2  0  0  3  0  0  0  0  0  0
  190.0030  177.0330  140.2480 C   0  0  0  0  0  2  0  0  0  0  0  0
  182.7480  178.8200  141.4850 C   0  0  0  0  0  0  0  0  0  0  0  0
  183.1170  178.6610  142.8220 C   0  0  0  0  0  3  0  0  0  0  0  0
  184.4640  178.5450  143.1640 C   0  0  0  0  0  3  0  0  0  0  0  0
  185.0530  178.7450  140.8610 N   0  0  0  0  0  0  0  0  0  0  0  0
  183.7460  178.8640  140.5010 C   0  0  0  0  0  0  0  0  0  0  0  0
  185.4340  178.5880  142.1600 C   0  0  0  0  0  0  0  0  0  0  0  0
  181.3700  178.9380  141.1430 N   0  0  0  0  0  1  0  0  0  0  0  0
  184.7980  178.1310  138.2300 C   0  0  0  0  0  1  0  0  0  0  0  0
  183.3330  179.0590  138.7680 S   0  0  0  0  0  0  0  0  0  0  0  0
  189.4840  176.7520  143.1480 C   0  0  2  0  0  3  0  0  0  0  0  0
  188.2770  176.0630  143.3120 O   0  0  0  0  0  1  0  0  0  0  0  0
  189.3110  176.4740  145.6760 C   0  0  0  0  0  2  0  0  0  0  0  0
  189.6210  178.4800  144.9830 C   0  0  0  0  0  2  0  0  0  0  0  0
  188.8470  177.8470  146.1260 C   0  0  1  0  0  3  0  0  0  0  0  0
  187.3570  177.9910  145.8770 C   0  0  0  0  0  1  0  0  0  0  0  0
  190.0840  177.1030  144.5270 C   0  0  2  0  0  0  0  0  0  0  0  0
  191.6120  176.9230  144.6610 C   0  0  0  0  0  0  0  0  0  0  0  0
  192.0110  175.7190  144.1050 F   0  0  0  0  0  0  0  0  0  0  0  0
  191.9780  176.9320  145.9950 F   0  0  0  0  0  0  0  0  0  0  0  0
  192.2760  177.9450  144.0080 F   0  0  0  0  0  0  0  0  0  0  0  0
  1  6  1  0  0  0  0
  1  2  1  0  0  0  0
  3  7  1  0  0  0  0
  3  4  1  0  0  0  0
  4  1  2  0  0  0  0
  5  6  1  0  0  0  0
  6 17  1  6  0  0  0
  7  5  1  0  0  0  0
  8  9  1  0  0  0  0
  9 10  2  0  0  0  0
 11 13  2  0  0  0  0
 12 11  1  0  0  0  0
 12  8  2  0  0  0  0
 13  2  1  0  0  0  0
 13 10  1  0  0  0  0
 14  8  1  0  0  0  0
 15 16  1  0  0  0  0
 16 12  1  0  0  0  0
 17 18  1  1  0  0  0
 17 23  1  0  0  0  0
 19 21  1  0  0  0  0
 20 21  1  0  0  0  0
 21 22  1  6  0  0  0
 23 24  1  1  0  0  0
 23 20  1  0  0  0  0
 23 19  1  0  0  0  0
 24 26  1  0  0  0  0
 25 24  1  0  0  0  0
 27 24  1  0  0  0  0
M  END
>  <MODEL>
2

>  <REMARK>
 VINA RESULT:      -7.5      1.374      1.609
  Name = 
  5 active torsions:
  status: ('A' for Active; 'I' for Inactive)
    1  A    between atoms: C_1  and  C_23
    2  A    between atoms: C_7  and  C_20
    3  A    between atoms: C_7  and  C_23
    4  A    between atoms: N_11  and  C_22
    5  A    between atoms: C_21  and  S_27
                            x       y       z     vdW  Elec       q    Type
                         _______ _______ _______ _____ _____    ______ ____

>  <TORSDO>
F 5

$$$$
=
 OpenBabel11062415463D

 27 29  0  0  1  0  0  0  0  0999 V2000
  189.0430  177.3020  141.8090 C   0  0  0  0  0  0  0  0  0  0  0  0
  187.6290  177.3840  142.0330 N   0  0  0  0  0  2  0  0  0  0  0  0
  191.3350  177.4940  142.5820 C   0  0  0  0  0  2  0  0  0  0  0  0
  189.8880  177.6150  142.7480 N   0  0  0  0  0  0  0  0  0  0  0  0
  190.8830  176.4220  140.4880 O   0  0  0  0  0  0  0  0  0  0  0  0
  189.5490  176.8980  140.4380 C   0  0  2  0  0  3  0  0  0  0  0  0
  191.6920  177.4010  141.1030 C   0  0  0  0  0  2  0  0  0  0  0  0
  185.7050  178.5310  145.6000 C   0  0  0  0  0  0  0  0  0  0  0  0
  185.0900  178.7640  144.3700 C   0  0  0  0  0  3  0  0  0  0  0  0
  185.7270  178.3830  143.1890 C   0  0  0  0  0  3  0  0  0  0  0  0
  187.5650  177.5520  144.4630 N   0  0  0  0  0  0  0  0  0  0  0  0
  186.9630  177.9110  145.6300 C   0  0  0  0  0  0  0  0  0  0  0  0
  186.9810  177.7710  143.2510 C   0  0  0  0  0  0  0  0  0  0  0  0
  185.0490  178.9230  146.8020 N   0  0  0  0  0  1  0  0  0  0  0  0
  189.3840  177.2600  146.3470 C   0  0  0  0  0  1  0  0  0  0  0  0
  187.8060  177.5930  147.1790 S   0  0  0  0  0  0  0  0  0  0  0  0
  189.3650  178.0040  139.3770 C   0  0  2  0  0  3  0  0  0  0  0  0
  188.4240  178.9470  139.8050 O   0  0  0  0  0  1  0  0  0  0  0  0
  188.1760  178.4760  137.1710 C   0  0  0  0  0  2  0  0  0  0  0  0
  187.7540  176.5720  138.0640 C   0  0  0  0  0  2  0  0  0  0  0  0
  186.9530  177.5820  137.2600 C   0  0  1  0  0  3  0  0  0  0  0  0
  185.9090  178.2310  138.1500 C   0  0  0  0  0  1  0  0  0  0  0  0
  188.9810  177.4700  137.9800 C   0  0  2  0  0  0  0  0  0  0  0  0
  190.1250  176.8250  137.1680 C   0  0  0  0  0  0  0  0  0  0  0  0
  191.3560  177.2550  137.6360 F   0  0  0  0  0  0  0  0  0  0  0  0
  190.0180  177.1720  135.8330 F   0  0  0  0  0  0  0  0  0  0  0  0
  190.0760  175.4470  137.2770 F   0  0  0  0  0  0  0  0  0  0  0  0
  1  2  1  0  0  0  0
  1  4  2  0  0  0  0
  2 13  1  0  0  0  0
  3  4  1  0  0  0  0
  5  7  1  0  0  0  0
  6 17  1  6  0  0  0
  6  5  1  0  0  0  0
  6  1  1  0  0  0  0
  7  3  1  0  0  0  0
  8 12  2  0  0  0  0
  8 14  1  0  0  0  0
  9  8  1  0  0  0  0
 10 13  1  0  0  0  0
 10  9  2  0  0  0  0
 11 12  1  0  0  0  0
 12 16  1  0  0  0  0
 13 11  2  0  0  0  0
 15 16  1  0  0  0  0
 17 18  1  1  0  0  0
 19 21  1  0  0  0  0
 19 23  1  0  0  0  0
 21 20  1  0  0  0  0
 21 22  1  1  0  0  0
 23 24  1  6  0  0  0
 23 20  1  0  0  0  0
 23 17  1  0  0  0  0
 24 27  1  0  0  0  0
 24 25  1  0  0  0  0
 26 24  1  0  0  0  0
M  END
>  <MODEL>
3

>  <REMARK>
 VINA RESULT:      -7.5      3.381      5.575
  Name = 
  5 active torsions:
  status: ('A' for Active; 'I' for Inactive)
    1  A    between atoms: C_1  and  C_23
    2  A    between atoms: C_7  and  C_20
    3  A    between atoms: C_7  and  C_23
    4  A    between atoms: N_11  and  C_22
    5  A    between atoms: C_21  and  S_27
                            x       y       z     vdW  Elec       q    Type
                         _______ _______ _______ _____ _____    ______ ____

>  <TORSDO>
F 5

$$$$
=
 OpenBabel11062415463D

 27 29  0  0  1  0  0  0  0  0999 V2000
  189.4190  177.9360  142.4100 C   0  0  0  0  0  0  0  0  0  0  0  0
  188.2020  178.3140  141.7530 N   0  0  0  0  0  2  0  0  0  0  0  0
  191.7160  177.1580  142.3490 C   0  0  0  0  0  2  0  0  0  0  0  0
  190.4390  177.5000  141.7280 N   0  0  0  0  0  0  0  0  0  0  0  0
  190.8270  178.0490  144.3870 O   0  0  0  0  0  0  0  0  0  0  0  0
  189.4890  177.9960  143.9220 C   0  0  2  0  0  3  0  0  0  0  0  0
  191.5380  176.9560  143.8500 C   0  0  0  0  0  2  0  0  0  0  0  0
  187.4960  178.2590  137.6010 C   0  0  0  0  0  0  0  0  0  0  0  0
  188.8040  178.2800  138.0860 C   0  0  0  0  0  3  0  0  0  0  0  0
  189.0380  178.2980  139.4610 C   0  0  0  0  0  3  0  0  0  0  0  0
  186.6840  178.2730  139.8480 N   0  0  0  0  0  0  0  0  0  0  0  0
  186.4290  178.2520  138.5110 C   0  0  0  0  0  0  0  0  0  0  0  0
  187.9530  178.2940  140.3420 C   0  0  0  0  0  0  0  0  0  0  0  0
  187.2650  178.2420  136.1950 N   0  0  0  0  0  1  0  0  0  0  0  0
  184.1840  179.3270  139.2900 C   0  0  0  0  0  1  0  0  0  0  0  0
  184.7280  178.2330  137.9480 S   0  0  0  0  0  0  0  0  0  0  0  0
  188.6790  176.8750  144.6080 C   0  0  2  0  0  3  0  0  0  0  0  0
  187.7770  176.2960  143.7090 O   0  0  0  0  0  1  0  0  0  0  0  0
  186.5010  176.8270  145.9330 C   0  0  0  0  0  2  0  0  0  0  0  0
  187.4150  178.7560  145.7200 C   0  0  0  0  0  2  0  0  0  0  0  0
  185.9850  178.2450  145.7680 C   0  0  1  0  0  3  0  0  0  0  0  0
  185.3410  178.3980  144.4020 C   0  0  0  0  0  1  0  0  0  0  0  0
  187.9340  177.3340  145.8810 C   0  0  2  0  0  0  0  0  0  0  0  0
  188.6910  177.1330  147.2130 C   0  0  0  0  0  0  0  0  0  0  0  0
  187.9340  176.3780  148.0930 F   0  0  0  0  0  0  0  0  0  0  0  0
  188.9560  178.3570  147.8000 F   0  0  0  0  0  0  0  0  0  0  0  0
  189.8870  176.4740  146.9910 F   0  0  0  0  0  0  0  0  0  0  0  0
  1  6  1  0  0  0  0
  2  1  1  0  0  0  0
  3  7  1  0  0  0  0
  4  3  1  0  0  0  0
  4  1  2  0  0  0  0
  6  5  1  0  0  0  0
  6 17  1  1  0  0  0
  7  5  1  0  0  0  0
  8  9  1  0  0  0  0
  8 12  2  0  0  0  0
  9 10  2  0  0  0  0
 10 13  1  0  0  0  0
 11 13  2  0  0  0  0
 12 11  1  0  0  0  0
 13  2  1  0  0  0  0
 14  8  1  0  0  0  0
 16 12  1  0  0  0  0
 16 15  1  0  0  0  0
 17 18  1  6  0  0  0
 17 23  1  0  0  0  0
 20 21  1  0  0  0  0
 20 23  1  0  0  0  0
 21 22  1  6  0  0  0
 21 19  1  0  0  0  0
 23 19  1  0  0  0  0
 23 24  1  1  0  0  0
 24 26  1  0  0  0  0
 24 25  1  0  0  0  0
 27 24  1  0  0  0  0
M  END
>  <MODEL>
4

>  <REMARK>
 VINA RESULT:      -7.4      2.869      4.925
  Name = 
  5 active torsions:
  status: ('A' for Active; 'I' for Inactive)
    1  A    between atoms: C_1  and  C_23
    2  A    between atoms: C_7  and  C_20
    3  A    between atoms: C_7  and  C_23
    4  A    between atoms: N_11  and  C_22
    5  A    between atoms: C_21  and  S_27
                            x       y       z     vdW  Elec       q    Type
                         _______ _______ _______ _____ _____    ______ ____

>  <TORSDO>
F 5

$$$$
=
 OpenBabel11062415463D

 27 29  0  0  1  0  0  0  0  0999 V2000
  187.4630  177.6700  145.3740 C   0  0  0  0  0  0  0  0  0  0  0  0
  187.5980  177.4450  143.9640 N   0  0  0  0  0  2  0  0  0  0  0  0
  186.3010  178.6340  147.2730 C   0  0  0  0  0  2  0  0  0  0  0  0
  186.5100  178.4210  145.8430 N   0  0  0  0  0  0  0  0  0  0  0  0
  187.9900  176.9760  147.6430 O   0  0  0  0  0  0  0  0  0  0  0  0
  188.4850  177.0660  146.3170 C   0  0  2  0  0  3  0  0  0  0  0  0
  187.5540  178.2530  148.0540 C   0  0  0  0  0  2  0  0  0  0  0  0
  185.1060  178.9520  140.9220 C   0  0  0  0  0  0  0  0  0  0  0  0
  186.4650  178.7530  140.6750 C   0  0  0  0  0  3  0  0  0  0  0  0
  187.2900  178.2530  141.6830 C   0  0  0  0  0  3  0  0  0  0  0  0
  185.4140  178.1580  143.1540 N   0  0  0  0  0  0  0  0  0  0  0  0
  184.5870  178.6420  142.1880 C   0  0  0  0  0  0  0  0  0  0  0  0
  186.7440  177.9570  142.9340 C   0  0  0  0  0  0  0  0  0  0  0  0
  184.2700  179.4640  139.8890 N   0  0  0  0  0  1  0  0  0  0  0  0
  183.1720  179.0030  144.3480 C   0  0  0  0  0  1  0  0  0  0  0  0
  182.8520  178.8840  142.5650 S   0  0  0  0  0  0  0  0  0  0  0  0
  189.8560  177.7730  146.2560 C   0  0  2  0  0  3  0  0  0  0  0  0
  189.8250  178.8310  145.3410 O   0  0  0  0  0  1  0  0  0  0  0  0
  192.0500  177.4630  144.9960 C   0  0  0  0  0  2  0  0  0  0  0  0
  190.6470  175.8490  144.8260 C   0  0  0  0  0  2  0  0  0  0  0  0
  191.6630  176.4910  143.8960 C   0  0  1  0  0  3  0  0  0  0  0  0
  190.9420  177.2340  142.7870 C   0  0  0  0  0  1  0  0  0  0  0  0
  191.0310  176.8260  145.9280 C   0  0  2  0  0  0  0  0  0  0  0  0
  191.6830  176.1210  147.1380 C   0  0  0  0  0  0  0  0  0  0  0  0
  190.7950  175.2300  147.7180 F   0  0  0  0  0  0  0  0  0  0  0  0
  192.0550  177.0530  148.0900 F   0  0  0  0  0  0  0  0  0  0  0  0
  192.8050  175.4180  146.7370 F   0  0  0  0  0  0  0  0  0  0  0  0
  1  4  2  0  0  0  0
  1  6  1  0  0  0  0
  2  1  1  0  0  0  0
  3  7  1  0  0  0  0
  4  3  1  0  0  0  0
  5  7  1  0  0  0  0
  6 17  1  1  0  0  0
  6  5  1  0  0  0  0
  8 12  2  0  0  0  0
  9  8  1  0  0  0  0
  9 10  2  0  0  0  0
 10 13  1  0  0  0  0
 12 16  1  0  0  0  0
 12 11  1  0  0  0  0
 13 11  2  0  0  0  0
 13  2  1  0  0  0  0
 14  8  1  0  0  0  0
 16 15  1  0  0  0  0
 17 18  1  6  0  0  0
 19 23  1  0  0  0  0
 20 23  1  0  0  0  0
 21 22  1  6  0  0  0
 21 20  1  0  0  0  0
 21 19  1  0  0  0  0
 23 17  1  0  0  0  0
 23 24  1  1  0  0  0
 24 25  1  0  0  0  0
 24 26  1  0  0  0  0
 27 24  1  0  0  0  0
M  END
>  <MODEL>
5

>  <REMARK>
 VINA RESULT:      -7.4      2.573      4.543
  Name = 
  5 active torsions:
  status: ('A' for Active; 'I' for Inactive)
    1  A    between atoms: C_1  and  C_23
    2  A    between atoms: C_7  and  C_20
    3  A    between atoms: C_7  and  C_23
    4  A    between atoms: N_11  and  C_22
    5  A    between atoms: C_21  and  S_27
                            x       y       z     vdW  Elec       q    Type
                         _______ _______ _______ _____ _____    ______ ____

>  <TORSDO>
F 5

$$$$
=
 OpenBabel11062415463D

 27 29  0  0  1  0  0  0  0  0999 V2000
  187.9910  177.3900  143.4330 C   0  0  0  0  0  0  0  0  0  0  0  0
  189.1510  177.0810  142.6490 N   0  0  0  0  0  2  0  0  0  0  0  0
  185.7150  178.2070  143.6340 C   0  0  0  0  0  2  0  0  0  0  0  0
  186.9380  177.9250  142.8860 N   0  0  0  0  0  0  0  0  0  0  0  0
  186.7190  177.0500  145.4750 O   0  0  0  0  0  0  0  0  0  0  0  0
  188.0230  177.1400  144.9270 C   0  0  2  0  0  3  0  0  0  0  0  0
  186.0000  178.2140  145.1310 C   0  0  0  0  0  2  0  0  0  0  0  0
  189.5780  177.6690  138.5000 C   0  0  0  0  0  0  0  0  0  0  0  0
  188.6810  178.4530  139.2270 C   0  0  0  0  0  3  0  0  0  0  0  0
  188.5400  178.2580  140.6010 C   0  0  0  0  0  3  0  0  0  0  0  0
  190.1730  176.5210  140.5090 N   0  0  0  0  0  0  0  0  0  0  0  0
  190.3320  176.6920  139.1690 C   0  0  0  0  0  0  0  0  0  0  0  0
  189.3020  177.2750  141.2370 C   0  0  0  0  0  0  0  0  0  0  0  0
  189.7160  177.8730  137.0970 N   0  0  0  0  0  1  0  0  0  0  0  0
  192.8880  176.7530  138.6580 C   0  0  0  0  0  1  0  0  0  0  0  0
  191.4930  175.6510  138.2870 S   0  0  0  0  0  0  0  0  0  0  0  0
  188.9060  178.1520  145.6890 C   0  0  2  0  0  3  0  0  0  0  0  0
  189.9910  178.5530  144.9020 O   0  0  0  0  0  1  0  0  0  0  0  0
  190.8990  177.8590  147.2520 C   0  0  0  0  0  2  0  0  0  0  0  0
  189.6470  176.1330  147.0110 C   0  0  0  0  0  2  0  0  0  0  0  0
  191.1370  176.3610  147.2020 C   0  0  1  0  0  3  0  0  0  0  0  0
  191.8770  176.0030  145.9260 C   0  0  0  0  0  1  0  0  0  0  0  0
  189.4070  177.6360  147.0560 C   0  0  2  0  0  0  0  0  0  0  0  0
  188.5700  178.0600  148.2830 C   0  0  0  0  0  0  0  0  0  0  0  0
  187.6090  178.9890  147.9200 F   0  0  0  0  0  0  0  0  0  0  0  0
  189.3870  178.6280  149.2450 F   0  0  0  0  0  0  0  0  0  0  0  0
  187.9300  176.9630  148.8310 F   0  0  0  0  0  0  0  0  0  0  0  0
  1  6  1  0  0  0  0
  2  1  1  0  0  0  0
  3  7  1  0  0  0  0
  4  1  2  0  0  0  0
  4  3  1  0  0  0  0
  6  5  1  0  0  0  0
  6 17  1  1  0  0  0
  7  5  1  0  0  0  0
  8 12  2  0  0  0  0
  8  9  1  0  0  0  0
  9 10  2  0  0  0  0
 10 13  1  0  0  0  0
 11 13  2  0  0  0  0
 12 11  1  0  0  0  0
 13  2  1  0  0  0  0
 14  8  1  0  0  0  0
 16 15  1  0  0  0  0
 16 12  1  0  0  0  0
 17 18  1  6  0  0  0
 17 23  1  0  0  0  0
 20 23  1  0  0  0  0
 20 21  1  0  0  0  0
 21 22  1  6  0  0  0
 21 19  1  0  0  0  0
 23 19  1  0  0  0  0
 23 24  1  1  0  0  0
 24 27  1  0  0  0  0
 24 26  1  0  0  0  0
 25 24  1  0  0  0  0
M  END
>  <MODEL>
6

>  <REMARK>
 VINA RESULT:      -7.4      4.018      6.260
  Name = 
  5 active torsions:
  status: ('A' for Active; 'I' for Inactive)
    1  A    between atoms: C_1  and  C_23
    2  A    between atoms: C_7  and  C_20
    3  A    between atoms: C_7  and  C_23
    4  A    between atoms: N_11  and  C_22
    5  A    between atoms: C_21  and  S_27
                            x       y       z     vdW  Elec       q    Type
                         _______ _______ _______ _____ _____    ______ ____

>  <TORSDO>
F 5

$$$$
=
 OpenBabel11062415463D

 27 29  0  0  1  0  0  0  0  0999 V2000
  189.0500  177.3110  141.8250 C   0  0  0  0  0  0  0  0  0  0  0  0
  187.6470  177.3660  142.1160 N   0  0  0  0  0  2  0  0  0  0  0  0
  191.3720  177.5450  142.4910 C   0  0  0  0  0  2  0  0  0  0  0  0
  189.9320  177.6390  142.7240 N   0  0  0  0  0  0  0  0  0  0  0  0
  190.8430  176.4680  140.4170 O   0  0  0  0  0  0  0  0  0  0  0  0
  189.4990  176.9190  140.4320 C   0  0  2  0  0  3  0  0  0  0  0  0
  191.6610  177.4600  140.9960 C   0  0  0  0  0  2  0  0  0  0  0  0
  185.8710  178.4720  145.7710 C   0  0  0  0  0  0  0  0  0  0  0  0
  185.2050  178.7170  144.5700 C   0  0  0  0  0  3  0  0  0  0  0  0
  185.7930  178.3500  143.3590 C   0  0  0  0  0  3  0  0  0  0  0  0
  187.6830  177.5080  144.5470 N   0  0  0  0  0  0  0  0  0  0  0  0
  187.1300  177.8530  145.7420 C   0  0  0  0  0  0  0  0  0  0  0  0
  187.0490  177.7390  143.3630 C   0  0  0  0  0  0  0  0  0  0  0  0
  185.2650  178.8500  147.0030 N   0  0  0  0  0  1  0  0  0  0  0  0
  189.5840  177.2170  146.3530 C   0  0  0  0  0  1  0  0  0  0  0  0
  188.0360  177.5200  147.2520 S   0  0  0  0  0  0  0  0  0  0  0  0
  189.2450  178.0230  139.3830 C   0  0  2  0  0  3  0  0  0  0  0  0
  188.4940  179.0660  139.9350 O   0  0  0  0  0  1  0  0  0  0  0  0
  188.9070  176.0590  137.7920 C   0  0  0  0  0  2  0  0  0  0  0  0
  189.3600  177.9390  136.8620 C   0  0  0  0  0  2  0  0  0  0  0  0
  189.6990  176.4870  136.5700 C   0  0  1  0  0  3  0  0  0  0  0  0
  191.1780  176.2490  136.8100 C   0  0  0  0  0  1  0  0  0  0  0  0
  188.5690  177.5120  138.0910 C   0  0  2  0  0  0  0  0  0  0  0  0
  187.0620  177.8180  137.9540 C   0  0  0  0  0  0  0  0  0  0  0  0
  186.4960  178.0440  139.1980 F   0  0  0  0  0  0  0  0  0  0  0  0
  186.4100  176.7500  137.3640 F   0  0  0  0  0  0  0  0  0  0  0  0
  186.8690  178.9460  137.1770 F   0  0  0  0  0  0  0  0  0  0  0  0
  1  2  1  0  0  0  0
  1  4  2  0  0  0  0
  2 13  1  0  0  0  0
  3  4  1  0  0  0  0
  5  6  1  0  0  0  0
  5  7  1  0  0  0  0
  6 17  1  6  0  0  0
  6  1  1  0  0  0  0
  7  3  1  0  0  0  0
  8 14  1  0  0  0  0
  9  8  1  0  0  0  0
 10 13  1  0  0  0  0
 10  9  2  0  0  0  0
 11 12  1  0  0  0  0
 12  8  2  0  0  0  0
 12 16  1  0  0  0  0
 13 11  2  0  0  0  0
 15 16  1  0  0  0  0
 17 18  1  1  0  0  0
 19 23  1  0  0  0  0
 20 23  1  0  0  0  0
 21 22  1  1  0  0  0
 21 20  1  0  0  0  0
 21 19  1  0  0  0  0
 23 24  1  6  0  0  0
 23 17  1  0  0  0  0
 24 25  1  0  0  0  0
 26 24  1  0  0  0  0
 27 24  1  0  0  0  0
M  END
>  <MODEL>
7

>  <REMARK>
 VINA RESULT:      -7.3      3.735      5.914
  Name = 
  5 active torsions:
  status: ('A' for Active; 'I' for Inactive)
    1  A    between atoms: C_1  and  C_23
    2  A    between atoms: C_7  and  C_20
    3  A    between atoms: C_7  and  C_23
    4  A    between atoms: N_11  and  C_22
    5  A    between atoms: C_21  and  S_27
                            x       y       z     vdW  Elec       q    Type
                         _______ _______ _______ _____ _____    ______ ____

>  <TORSDO>
F 5

$$$$
=
 OpenBabel11062415463D

 27 29  0  0  1  0  0  0  0  0999 V2000
  188.3210  177.9830  141.4980 C   0  0  0  0  0  0  0  0  0  0  0  0
  187.1590  178.4790  142.1760 N   0  0  0  0  0  2  0  0  0  0  0  0
  189.4230  177.1280  139.5120 C   0  0  0  0  0  2  0  0  0  0  0  0
  188.2550  177.5870  140.2590 N   0  0  0  0  0  0  0  0  0  0  0  0
  190.7430  177.8170  141.3890 O   0  0  0  0  0  0  0  0  0  0  0  0
  189.6260  177.8690  142.2600 C   0  0  2  0  0  3  0  0  0  0  0  0
  190.5540  176.7650  140.4680 C   0  0  0  0  0  2  0  0  0  0  0  0
  183.3120  178.9190  140.5200 C   0  0  0  0  0  0  0  0  0  0  0  0
  184.4240  178.8170  139.6830 C   0  0  0  0  0  3  0  0  0  0  0  0
  185.6980  178.6710  140.2320 C   0  0  0  0  0  3  0  0  0  0  0  0
  184.7480  178.7290  142.4190 N   0  0  0  0  0  0  0  0  0  0  0  0
  183.4940  178.8700  141.9100 C   0  0  0  0  0  0  0  0  0  0  0  0
  185.8470  178.6280  141.6200 C   0  0  0  0  0  0  0  0  0  0  0  0
  182.0140  179.0690  139.9520 N   0  0  0  0  0  1  0  0  0  0  0  0
  183.1830  179.0030  144.4950 C   0  0  0  0  0  1  0  0  0  0  0  0
  182.1050  179.0030  143.0340 S   0  0  0  0  0  0  0  0  0  0  0  0
  189.6300  176.7100  143.2800 C   0  0  2  0  0  3  0  0  0  0  0  0
  188.4000  176.0440  143.2750 O   0  0  0  0  0  1  0  0  0  0  0  0
  189.0800  176.5170  145.7620 C   0  0  0  0  0  2  0  0  0  0  0  0
  189.3930  178.5100  145.0330 C   0  0  0  0  0  2  0  0  0  0  0  0
  188.4830  177.8780  146.0720 C   0  0  1  0  0  3  0  0  0  0  0  0
  187.0450  177.9270  145.5900 C   0  0  0  0  0  1  0  0  0  0  0  0
  189.9900  177.1460  144.7170 C   0  0  2  0  0  0  0  0  0  0  0  0
  191.4850  177.0580  145.0920 C   0  0  0  0  0  0  0  0  0  0  0  0
  192.0560  175.9150  144.5570 F   0  0  0  0  0  0  0  0  0  0  0  0
  191.6310  177.0170  146.4680 F   0  0  0  0  0  0  0  0  0  0  0  0
  192.1690  178.1560  144.6030 F   0  0  0  0  0  0  0  0  0  0  0  0
  1  2  1  0  0  0  0
  1  6  1  0  0  0  0
  3  4  1  0  0  0  0
  3  7  1  0  0  0  0
  4  1  2  0  0  0  0
  5  6  1  0  0  0  0
  6 17  1  6  0  0  0
  7  5  1  0  0  0  0
  8 12  2  0  0  0  0
  9 10  2  0  0  0  0
  9  8  1  0  0  0  0
 10 13  1  0  0  0  0
 12 11  1  0  0  0  0
 12 16  1  0  0  0  0
 13  2  1  0  0  0  0
 13 11  2  0  0  0  0
 14  8  1  0  0  0  0
 16 15  1  0  0  0  0
 17 18  1  1  0  0  0
 17 23  1  0  0  0  0
 19 21  1  0  0  0  0
 20 21  1  0  0  0  0
 21 22  1  6  0  0  0
 23 20  1  0  0  0  0
 23 24  1  1  0  0  0
 23 19  1  0  0  0  0
 24 26  1  0  0  0  0
 25 24  1  0  0  0  0
 27 24  1  0  0  0  0
M  END
>  <MODEL>
8

>  <REMARK>
 VINA RESULT:      -7.3      1.586      2.450
  Name = 
  5 active torsions:
  status: ('A' for Active; 'I' for Inactive)
    1  A    between atoms: C_1  and  C_23
    2  A    between atoms: C_7  and  C_20
    3  A    between atoms: C_7  and  C_23
    4  A    between atoms: N_11  and  C_22
    5  A    between atoms: C_21  and  S_27
                            x       y       z     vdW  Elec       q    Type
                         _______ _______ _______ _____ _____    ______ ____

>  <TORSDO>
F 5

$$$$
=
 OpenBabel11062415463D

 27 29  0  0  1  0  0  0  0  0999 V2000
  189.6990  177.8460  142.2790 C   0  0  0  0  0  0  0  0  0  0  0  0
  188.6060  177.8440  141.3510 N   0  0  0  0  0  2  0  0  0  0  0  0
  192.0630  177.6240  142.7820 C   0  0  0  0  0  2  0  0  0  0  0  0
  190.9110  177.5800  141.8840 N   0  0  0  0  0  0  0  0  0  0  0  0
  190.5840  178.5280  144.4370 O   0  0  0  0  0  0  0  0  0  0  0  0
  189.4210  178.1070  143.7450 C   0  0  2  0  0  3  0  0  0  0  0  0
  191.6030  177.5740  144.2350 C   0  0  0  0  0  2  0  0  0  0  0  0
  188.8150  177.1200  137.2070 C   0  0  0  0  0  0  0  0  0  0  0  0
  187.8610  178.0040  137.7130 C   0  0  0  0  0  3  0  0  0  0  0  0
  187.7930  178.2440  139.0860 C   0  0  0  0  0  3  0  0  0  0  0  0
  189.6070  176.7330  139.4280 N   0  0  0  0  0  0  0  0  0  0  0  0
  189.6970  176.4840  138.0930 C   0  0  0  0  0  0  0  0  0  0  0  0
  188.6840  177.5930  139.9430 C   0  0  0  0  0  0  0  0  0  0  0  0
  188.8790  176.8780  135.8050 N   0  0  0  0  0  1  0  0  0  0  0  0
  192.3030  176.3900  138.0610 C   0  0  0  0  0  1  0  0  0  0  0  0
  190.9370  175.3330  137.5020 S   0  0  0  0  0  0  0  0  0  0  0  0
  188.7240  176.9210  144.4470 C   0  0  2  0  0  3  0  0  0  0  0  0
  187.8660  176.2590  143.5630 O   0  0  0  0  0  1  0  0  0  0  0  0
  186.5500  176.7470  145.7670 C   0  0  0  0  0  2  0  0  0  0  0  0
  187.3770  178.7190  145.5980 C   0  0  0  0  0  2  0  0  0  0  0  0
  185.9710  178.1440  145.6320 C   0  0  1  0  0  3  0  0  0  0  0  0
  185.3220  178.2990  144.2690 C   0  0  0  0  0  1  0  0  0  0  0  0
  187.9590  177.3190  145.7290 C   0  0  2  0  0  0  0  0  0  0  0  0
  188.7230  177.1220  147.0570 C   0  0  0  0  0  0  0  0  0  0  0  0
  189.0870  178.3450  147.5950 F   0  0  0  0  0  0  0  0  0  0  0  0
  189.8700  176.3790  146.8420 F   0  0  0  0  0  0  0  0  0  0  0  0
  187.9280  176.4610  147.9760 F   0  0  0  0  0  0  0  0  0  0  0  0
  1  6  1  0  0  0  0
  2  1  1  0  0  0  0
  3  7  1  0  0  0  0
  4  1  2  0  0  0  0
  4  3  1  0  0  0  0
  6  5  1  0  0  0  0
  6 17  1  1  0  0  0
  7  5  1  0  0  0  0
  8  9  1  0  0  0  0
  8 12  2  0  0  0  0
  9 10  2  0  0  0  0
 10 13  1  0  0  0  0
 11 13  2  0  0  0  0
 12 11  1  0  0  0  0
 13  2  1  0  0  0  0
 14  8  1  0  0  0  0
 16 15  1  0  0  0  0
 16 12  1  0  0  0  0
 17 18  1  6  0  0  0
 17 23  1  0  0  0  0
 20 21  1  0  0  0  0
 20 23  1  0  0  0  0
 21 22  1  6  0  0  0
 21 19  1  0  0  0  0
 23 19  1  0  0  0  0
 23 24  1  1  0  0  0
 24 25  1  0  0  0  0
 24 27  1  0  0  0  0
 26 24  1  0  0  0  0
M  END
>  <MODEL>
9

>  <REMARK>
 VINA RESULT:      -7.2      3.712      6.017
  Name = 
  5 active torsions:
  status: ('A' for Active; 'I' for Inactive)
    1  A    between atoms: C_1  and  C_23
    2  A    between atoms: C_7  and  C_20
    3  A    between atoms: C_7  and  C_23
    4  A    between atoms: N_11  and  C_22
    5  A    between atoms: C_21  and  S_27
                            x       y       z     vdW  Elec       q    Type
                         _______ _______ _______ _____ _____    ______ ____

>  <TORSDO>
F 5

$$$$
