=
 OpenBabel11062415283D

 37 41  0  0  1  0  0  0  0  0999 V2000
  190.6780  177.6450  142.5280 C   0  0  1  0  0  3  0  0  0  0  0  0
  189.9640  176.3270  142.8450 C   0  0  0  0  0  2  0  0  0  0  0  0
  192.0260  179.1920  143.8260 N   0  0  0  0  0  2  0  0  0  0  0  0
  191.0890  178.3020  143.8150 C   0  0  0  0  0  0  0  0  0  0  0  0
  188.9380  176.5000  143.8760 N   0  0  0  0  0  0  0  0  0  0  0  0
  189.0870  177.3160  144.8800 C   0  0  0  0  0  0  0  0  0  0  0  0
  190.2290  178.1740  144.9470 N   0  0  0  0  0  2  0  0  0  0  0  0
  185.8580  178.0380  146.7850 C   0  0  1  0  0  3  0  0  0  0  0  0
  187.4360  177.1670  148.2940 O   0  0  0  0  0  0  0  0  0  0  0  0
  188.2300  178.5200  146.9140 C   0  0  1  0  0  3  0  0  0  0  0  0
  186.9930  178.3920  147.7580 C   0  0  1  0  0  3  0  0  0  0  0  0
  185.4730  179.1860  145.8600 C   0  0  0  0  0  2  0  0  0  0  0  0
  188.5310  177.1400  147.4070 C   0  0  2  0  0  3  0  0  0  0  0  0
  186.1490  178.4660  144.7010 C   0  0  1  0  0  3  0  0  0  0  0  0
  186.5520  177.3200  145.6280 C   0  0  1  0  0  3  0  0  0  0  0  0
  188.0530  177.3820  145.9590 C   0  0  2  0  0  0  0  0  0  0  0  0
  185.5970  179.6660  142.0410 O   0  0  0  0  0  1  0  0  0  0  0  0
  185.1840  178.0420  143.6840 N   0  0  0  0  0  2  0  0  0  0  0  0
  184.9530  178.6460  142.4050 C   0  0  0  0  0  0  0  0  0  0  0  0
  184.0090  178.0950  141.5510 O   0  0  0  0  0  0  0  0  0  0  0  0
  191.7420  177.4690  140.4220 C   0  0  0  0  0  3  0  0  0  0  0  0
  191.8290  177.3870  141.6980 N   0  0  0  0  0  0  0  0  0  0  0  0
  192.9360  177.1940  139.5730 C   0  0  0  0  0  2  0  0  0  0  0  0
  192.6180  176.1300  138.5330 C   0  0  2  0  0  3  0  0  0  0  0  0
  194.3280  175.4630  136.8380 C   0  0  0  0  0  1  0  0  0  0  0  0
  193.2620  176.4790  137.1980 C   0  0  0  0  0  2  0  0  0  0  0  0
  191.1100  176.0530  138.3620 C   0  0  0  0  0  2  0  0  0  0  0  0
  190.7310  175.9840  136.8900 C   0  0  1  0  0  3  0  0  0  0  0  0
  189.4780  174.4340  135.3770 O   0  0  0  0  0  0  0  0  0  0  0  0
  190.0890  173.7690  137.4840 O   0  0  0  0  0  1  0  0  0  0  0  0
  190.0950  174.6650  136.6010 C   0  0  0  0  0  0  0  0  0  0  0  0
  189.8480  177.0180  136.5640 O   0  0  0  0  0  0  0  0  0  0  0  0
  188.8980  177.0140  137.5880 C   0  0  0  0  0  2  0  0  0  0  0  0
  188.3620  178.4180  137.8020 C   0  0  1  0  0  3  0  0  0  0  0  0
  186.9700  178.3800  137.8870 O   0  0  0  0  0  1  0  0  0  0  0  0
  188.8860  178.9380  138.9840 O   0  0  0  0  0  0  0  0  0  0  0  0
  188.1130  178.3700  139.9970 C   0  0  0  0  0  1  0  0  0  0  0  0
  1 22  1  6  0  0  0
  1  2  1  0  0  0  0
  1  4  1  0  0  0  0
  2  5  1  0  0  0  0
  4  3  2  0  0  0  0
  4  7  1  0  0  0  0
  5  6  2  0  0  0  0
  6  7  1  0  0  0  0
  6 16  1  0  0  0  0
  8 12  1  6  0  0  0
  8 11  1  0  0  0  0
 10 13  1  0  0  0  0
 10 11  1  0  0  0  0
 11  9  1  0  0  0  0
 13  9  1  0  0  0  0
 14 15  1  0  0  0  0
 14 12  1  0  0  0  0
 15 16  1  0  0  0  0
 15  8  1  0  0  0  0
 16 10  1  0  0  0  0
 16 13  1  0  0  0  0
 17 19  1  0  0  0  0
 18 14  1  0  0  0  0
 19 18  1  0  0  0  0
 20 19  2  0  0  0  0
 21 22  2  0  0  0  0
 23 21  1  0  0  0  0
 24 23  1  0  0  0  0
 25 26  1  0  0  0  0
 26 24  1  0  0  0  0
 27 24  1  0  0  0  0
 28 27  1  0  0  0  0
 29 31  2  0  0  0  0
 31 28  1  0  0  0  0
 31 30  1  0  0  0  0
 32 28  1  0  0  0  0
 32 33  1  0  0  0  0
 33 34  1  0  0  0  0
 34 35  1  0  0  0  0
 34 36  1  0  0  0  0
 36 37  1  0  0  0  0
M  END
>  <MODEL>
1

>  <REMARK>
 VINA RESULT:      -7.6      0.000      0.000
  Name = 
  13 active torsions:
  status: ('A' for Active; 'I' for Inactive)
    1  A    between atoms: O_2  and  C_16
    2  A    between atoms: O_2  and  C_27
    3  A    between atoms: C_3  and  N_37
    4  A    between atoms: O_4  and  C_12
    5  A    between atoms: C_9  and  C_18
    6  A    between atoms: C_9  and  C_26
    7  A    between atoms: C_12  and  C_16
    8  A    between atoms: C_14  and  C_18
    9  A    between atoms: C_14  and  C_27
   10  A    between atoms: N_17  and  C_28
   11  A    between atoms: C_18  and  C_35
   12  A    between atoms: C_25  and  C_36
   13  A    between atoms: C_27  and  C_33
                            x       y       z     vdW  Elec       q    Type
                         _______ _______ _______ _____ _____    ______ ____

>  <TORSDO>
F 13

$$$$
=
 OpenBabel11062415283D

 37 41  0  0  1  0  0  0  0  0999 V2000
  189.6630  176.8430  141.0300 C   0  0  1  0  0  3  0  0  0  0  0  0
  190.5630  176.6480  142.2530 C   0  0  0  0  0  2  0  0  0  0  0  0
  188.1110  178.5750  140.3300 N   0  0  0  0  0  2  0  0  0  0  0  0
  188.6960  177.9590  141.3040 C   0  0  0  0  0  0  0  0  0  0  0  0
  189.7870  176.5830  143.4930 N   0  0  0  0  0  0  0  0  0  0  0  0
  188.7190  177.3020  143.6880 C   0  0  0  0  0  0  0  0  0  0  0  0
  188.1910  178.1090  142.6320 N   0  0  0  0  0  2  0  0  0  0  0  0
  186.1670  177.8890  146.4660 C   0  0  1  0  0  3  0  0  0  0  0  0
  188.0400  176.8120  147.3900 O   0  0  0  0  0  0  0  0  0  0  0  0
  188.5090  178.2910  145.9900 C   0  0  1  0  0  3  0  0  0  0  0  0
  187.5390  178.1020  147.1230 C   0  0  1  0  0  3  0  0  0  0  0  0
  185.6110  179.1430  145.8030 C   0  0  0  0  0  2  0  0  0  0  0  0
  188.8540  176.8570  146.2400 C   0  0  2  0  0  3  0  0  0  0  0  0
  185.9100  178.5410  144.4360 C   0  0  1  0  0  3  0  0  0  0  0  0
  186.4830  177.2880  145.0970 C   0  0  1  0  0  3  0  0  0  0  0  0
  188.0190  177.2730  145.0100 C   0  0  2  0  0  0  0  0  0  0  0  0
  185.1190  179.4990  141.7390 O   0  0  0  0  0  0  0  0  0  0  0  0
  184.6860  178.2590  143.6840 N   0  0  0  0  0  2  0  0  0  0  0  0
  184.3450  178.7370  142.3760 C   0  0  0  0  0  0  0  0  0  0  0  0
  183.1440  178.3490  141.8000 O   0  0  0  0  0  1  0  0  0  0  0  0
  190.3530  176.4530  138.8000 C   0  0  0  0  0  3  0  0  0  0  0  0
  190.4710  177.1430  139.8740 N   0  0  0  0  0  0  0  0  0  0  0  0
  191.1990  176.7670  137.6130 C   0  0  0  0  0  2  0  0  0  0  0  0
  191.2020  175.6000  136.6360 C   0  0  2  0  0  3  0  0  0  0  0  0
  190.0840  173.4190  136.1570 C   0  0  0  0  0  1  0  0  0  0  0  0
  190.4910  174.3970  137.2410 C   0  0  0  0  0  2  0  0  0  0  0  0
  192.6430  175.2320  136.3250 C   0  0  0  0  0  2  0  0  0  0  0  0
  193.5950  175.8440  137.3430 C   0  0  1  0  0  3  0  0  0  0  0  0
  195.5070  175.1050  138.7780 O   0  0  0  0  0  1  0  0  0  0  0  0
  194.3240  173.5840  137.5350 O   0  0  0  0  0  0  0  0  0  0  0  0
  194.4830  174.7790  137.8960 C   0  0  0  0  0  0  0  0  0  0  0  0
  194.3690  176.8450  136.7490 O   0  0  0  0  0  0  0  0  0  0  0  0
  194.7950  176.2970  135.5370 C   0  0  0  0  0  2  0  0  0  0  0  0
  196.1270  176.9040  135.1350 C   0  0  1  0  0  3  0  0  0  0  0  0
  196.0560  178.2950  135.2310 O   0  0  0  0  0  1  0  0  0  0  0  0
  197.1270  176.4300  135.9840 O   0  0  0  0  0  0  0  0  0  0  0  0
  197.4220  175.1530  135.5070 C   0  0  0  0  0  1  0  0  0  0  0  0
  1 22  1  6  0  0  0
  1  4  1  0  0  0  0
  1  2  1  0  0  0  0
  2  5  1  0  0  0  0
  3  4  2  0  0  0  0
  4  7  1  0  0  0  0
  5  6  2  0  0  0  0
  6 16  1  0  0  0  0
  7  6  1  0  0  0  0
  8 12  1  6  0  0  0
  8 11  1  0  0  0  0
 10 13  1  0  0  0  0
 10 11  1  0  0  0  0
 11  9  1  0  0  0  0
 13  9  1  0  0  0  0
 14 15  1  0  0  0  0
 14 12  1  0  0  0  0
 15  8  1  0  0  0  0
 16 15  1  0  0  0  0
 16 10  1  0  0  0  0
 16 13  1  0  0  0  0
 17 19  2  0  0  0  0
 18 14  1  0  0  0  0
 19 18  1  0  0  0  0
 20 19  1  0  0  0  0
 21 22  2  0  0  0  0
 23 21  1  0  0  0  0
 24 26  1  0  0  0  0
 24 23  1  0  0  0  0
 25 26  1  0  0  0  0
 27 24  1  0  0  0  0
 27 28  1  0  0  0  0
 28 31  1  0  0  0  0
 30 31  2  0  0  0  0
 31 29  1  0  0  0  0
 32 28  1  0  0  0  0
 33 32  1  0  0  0  0
 34 35  1  0  0  0  0
 34 33  1  0  0  0  0
 34 36  1  0  0  0  0
 37 36  1  0  0  0  0
M  END
>  <MODEL>
2

>  <REMARK>
 VINA RESULT:      -7.3      2.560      4.178
  Name = 
  13 active torsions:
  status: ('A' for Active; 'I' for Inactive)
    1  A    between atoms: O_2  and  C_16
    2  A    between atoms: O_2  and  C_27
    3  A    between atoms: C_3  and  N_37
    4  A    between atoms: O_4  and  C_12
    5  A    between atoms: C_9  and  C_18
    6  A    between atoms: C_9  and  C_26
    7  A    between atoms: C_12  and  C_16
    8  A    between atoms: C_14  and  C_18
    9  A    between atoms: C_14  and  C_27
   10  A    between atoms: N_17  and  C_28
   11  A    between atoms: C_18  and  C_35
   12  A    between atoms: C_25  and  C_36
   13  A    between atoms: C_27  and  C_33
                            x       y       z     vdW  Elec       q    Type
                         _______ _______ _______ _____ _____    ______ ____

>  <TORSDO>
F 13

$$$$
=
 OpenBabel11062415283D

 37 41  0  0  1  0  0  0  0  0999 V2000
  189.9870  177.6220  142.2680 C   0  0  1  0  0  3  0  0  0  0  0  0
  189.1070  176.4120  142.5910 C   0  0  0  0  0  2  0  0  0  0  0  0
  191.8390  178.7170  143.3960 N   0  0  0  0  0  2  0  0  0  0  0  0
  190.7630  178.0070  143.4950 C   0  0  0  0  0  0  0  0  0  0  0  0
  188.3570  176.6020  143.8350 N   0  0  0  0  0  0  0  0  0  0  0  0
  188.8560  177.2270  144.8630 C   0  0  0  0  0  0  0  0  0  0  0  0
  190.1340  177.8620  144.7690 N   0  0  0  0  0  2  0  0  0  0  0  0
  186.2180  178.1270  147.4710 C   0  0  1  0  0  3  0  0  0  0  0  0
  187.9470  176.9460  148.5370 O   0  0  0  0  0  0  0  0  0  0  0  0
  188.6060  178.3240  147.1110 C   0  0  1  0  0  3  0  0  0  0  0  0
  187.5660  178.2580  148.1940 C   0  0  1  0  0  3  0  0  0  0  0  0
  185.8000  179.3920  146.7320 C   0  0  0  0  0  2  0  0  0  0  0  0
  188.8210  176.8790  147.4330 C   0  0  2  0  0  3  0  0  0  0  0  0
  186.1210  178.7130  145.4070 C   0  0  1  0  0  3  0  0  0  0  0  0
  186.5550  177.4460  146.1450 C   0  0  1  0  0  3  0  0  0  0  0  0
  188.0880  177.3080  146.1440 C   0  0  2  0  0  0  0  0  0  0  0  0
  185.7560  179.0600  142.4800 O   0  0  0  0  0  0  0  0  0  0  0  0
  184.9180  178.4960  144.6000 N   0  0  0  0  0  2  0  0  0  0  0  0
  184.7860  178.6680  143.1820 C   0  0  0  0  0  0  0  0  0  0  0  0
  183.5700  178.3940  142.5730 O   0  0  0  0  0  1  0  0  0  0  0  0
  190.4260  176.8000  140.0930 C   0  0  0  0  0  3  0  0  0  0  0  0
  190.8800  177.2990  141.1830 N   0  0  0  0  0  0  0  0  0  0  0  0
  191.3580  176.4630  138.9800 C   0  0  0  0  0  2  0  0  0  0  0  0
  190.6040  175.8130  137.8290 C   0  0  2  0  0  3  0  0  0  0  0  0
  190.7780  173.6100  136.6660 C   0  0  0  0  0  1  0  0  0  0  0  0
  191.5180  174.8740  137.0550 C   0  0  0  0  0  2  0  0  0  0  0  0
  190.0980  176.9060  136.9020 C   0  0  0  0  0  2  0  0  0  0  0  0
  188.6010  177.1180  137.0740 C   0  0  1  0  0  3  0  0  0  0  0  0
  187.4910  178.5290  138.8160 O   0  0  0  0  0  1  0  0  0  0  0  0
  188.9140  179.4700  137.2850 O   0  0  0  0  0  0  0  0  0  0  0  0
  188.3580  178.4340  137.7330 C   0  0  0  0  0  0  0  0  0  0  0  0
  187.9570  177.0820  135.8340 O   0  0  0  0  0  0  0  0  0  0  0  0
  187.5860  175.7460  135.6610 C   0  0  0  0  0  2  0  0  0  0  0  0
  186.8390  175.2540  136.8860 C   0  0  1  0  0  3  0  0  0  0  0  0
  185.4640  175.3560  136.6700 O   0  0  0  0  0  1  0  0  0  0  0  0
  187.1730  173.9220  137.1280 O   0  0  0  0  0  0  0  0  0  0  0  0
  185.9620  173.2990  137.4280 C   0  0  0  0  0  1  0  0  0  0  0  0
  1 22  1  6  0  0  0
  1  2  1  0  0  0  0
  1  4  1  0  0  0  0
  2  5  1  0  0  0  0
  3  4  2  0  0  0  0
  4  7  1  0  0  0  0
  5  6  2  0  0  0  0
  6 16  1  0  0  0  0
  7  6  1  0  0  0  0
  8 12  1  6  0  0  0
  8 11  1  0  0  0  0
 10 13  1  0  0  0  0
 10 11  1  0  0  0  0
 11  9  1  0  0  0  0
 13  9  1  0  0  0  0
 14 15  1  0  0  0  0
 14 12  1  0  0  0  0
 15  8  1  0  0  0  0
 16 15  1  0  0  0  0
 16 10  1  0  0  0  0
 16 13  1  0  0  0  0
 17 19  2  0  0  0  0
 18 14  1  0  0  0  0
 19 18  1  0  0  0  0
 20 19  1  0  0  0  0
 21 22  2  0  0  0  0
 23 21  1  0  0  0  0
 24 23  1  0  0  0  0
 25 26  1  0  0  0  0
 26 24  1  0  0  0  0
 27 28  1  0  0  0  0
 27 24  1  0  0  0  0
 28 31  1  0  0  0  0
 30 31  2  0  0  0  0
 31 29  1  0  0  0  0
 32 28  1  0  0  0  0
 33 32  1  0  0  0  0
 33 34  1  0  0  0  0
 34 36  1  0  0  0  0
 35 34  1  0  0  0  0
 36 37  1  0  0  0  0
M  END
>  <MODEL>
3

>  <REMARK>
 VINA RESULT:      -7.2      1.509      2.566
  Name = 
  13 active torsions:
  status: ('A' for Active; 'I' for Inactive)
    1  A    between atoms: O_2  and  C_16
    2  A    between atoms: O_2  and  C_27
    3  A    between atoms: C_3  and  N_37
    4  A    between atoms: O_4  and  C_12
    5  A    between atoms: C_9  and  C_18
    6  A    between atoms: C_9  and  C_26
    7  A    between atoms: C_12  and  C_16
    8  A    between atoms: C_14  and  C_18
    9  A    between atoms: C_14  and  C_27
   10  A    between atoms: N_17  and  C_28
   11  A    between atoms: C_18  and  C_35
   12  A    between atoms: C_25  and  C_36
   13  A    between atoms: C_27  and  C_33
                            x       y       z     vdW  Elec       q    Type
                         _______ _______ _______ _____ _____    ______ ____

>  <TORSDO>
F 13

$$$$
=
 OpenBabel11062415283D

 37 41  0  0  1  0  0  0  0  0999 V2000
  189.7190  177.8960  141.9460 C   0  0  1  0  0  3  0  0  0  0  0  0
  188.3290  177.2690  142.0880 C   0  0  0  0  0  2  0  0  0  0  0  0
  191.8860  177.4490  142.9460 N   0  0  0  0  0  2  0  0  0  0  0  0
  190.6000  177.3940  143.0540 C   0  0  0  0  0  0  0  0  0  0  0  0
  187.8220  177.3750  143.4580 N   0  0  0  0  0  0  0  0  0  0  0  0
  188.5970  177.2700  144.4990 C   0  0  0  0  0  0  0  0  0  0  0  0
  190.0140  177.1630  144.3360 N   0  0  0  0  0  2  0  0  0  0  0  0
  186.3670  178.0530  147.4980 C   0  0  1  0  0  3  0  0  0  0  0  0
  188.2010  176.7850  148.2430 O   0  0  0  0  0  0  0  0  0  0  0  0
  188.6870  178.2360  146.8190 C   0  0  1  0  0  3  0  0  0  0  0  0
  187.8060  178.1210  148.0320 C   0  0  1  0  0  3  0  0  0  0  0  0
  185.8810  179.3660  146.8980 C   0  0  0  0  0  2  0  0  0  0  0  0
  188.9110  176.7710  147.0250 C   0  0  2  0  0  3  0  0  0  0  0  0
  185.9980  178.7620  145.5050 C   0  0  1  0  0  3  0  0  0  0  0  0
  186.5020  177.4480  146.1010 C   0  0  1  0  0  3  0  0  0  0  0  0
  188.0160  177.2860  145.8780 C   0  0  2  0  0  0  0  0  0  0  0  0
  185.1680  179.5550  142.7660 O   0  0  0  0  0  0  0  0  0  0  0  0
  184.6910  178.6120  144.8630 N   0  0  0  0  0  2  0  0  0  0  0  0
  184.3320  179.0020  143.5300 C   0  0  0  0  0  0  0  0  0  0  0  0
  183.0440  178.7630  143.0730 O   0  0  0  0  0  1  0  0  0  0  0  0
  189.5530  176.9930  139.7650 C   0  0  0  0  0  3  0  0  0  0  0  0
  190.2760  177.5580  140.6600 N   0  0  0  0  0  0  0  0  0  0  0  0
  190.1420  176.6420  138.4410 C   0  0  0  0  0  2  0  0  0  0  0  0
  189.0690  176.6450  137.3620 C   0  0  2  0  0  3  0  0  0  0  0  0
  189.6280  177.0080  134.9550 C   0  0  0  0  0  1  0  0  0  0  0  0
  189.3920  177.6800  136.2930 C   0  0  0  0  0  2  0  0  0  0  0  0
  187.7340  176.9830  138.0060 C   0  0  0  0  0  2  0  0  0  0  0  0
  186.8220  177.7040  137.0240 C   0  0  1  0  0  3  0  0  0  0  0  0
  186.0510  175.3690  136.5600 O   0  0  0  0  0  1  0  0  0  0  0  0
  184.8030  177.1670  135.8790 O   0  0  0  0  0  0  0  0  0  0  0  0
  185.8300  176.7390  136.4670 C   0  0  0  0  0  0  0  0  0  0  0  0
  186.1560  178.7570  137.6570 O   0  0  0  0  0  0  0  0  0  0  0  0
  186.0440  178.3590  138.9910 C   0  0  0  0  0  2  0  0  0  0  0  0
  184.6800  178.7440  139.5330 C   0  0  1  0  0  3  0  0  0  0  0  0
  184.4640  180.1080  139.3340 O   0  0  0  0  0  1  0  0  0  0  0  0
  183.6950  178.0160  138.8670 O   0  0  0  0  0  0  0  0  0  0  0  0
  183.0270  177.3170  139.8730 C   0  0  0  0  0  1  0  0  0  0  0  0
  1 22  1  6  0  0  0
  1  2  1  0  0  0  0
  1  4  1  0  0  0  0
  2  5  1  0  0  0  0
  3  4  2  0  0  0  0
  4  7  1  0  0  0  0
  5  6  2  0  0  0  0
  6 16  1  0  0  0  0
  7  6  1  0  0  0  0
  8 12  1  6  0  0  0
  8 11  1  0  0  0  0
 10 13  1  0  0  0  0
 10 11  1  0  0  0  0
 11  9  1  0  0  0  0
 13  9  1  0  0  0  0
 14 15  1  0  0  0  0
 14 12  1  0  0  0  0
 15  8  1  0  0  0  0
 16 15  1  0  0  0  0
 16 10  1  0  0  0  0
 16 13  1  0  0  0  0
 17 19  2  0  0  0  0
 18 14  1  0  0  0  0
 19 18  1  0  0  0  0
 20 19  1  0  0  0  0
 21 22  2  0  0  0  0
 23 21  1  0  0  0  0
 24 27  1  0  0  0  0
 24 23  1  0  0  0  0
 25 26  1  0  0  0  0
 26 24  1  0  0  0  0
 28 32  1  0  0  0  0
 28 27  1  0  0  0  0
 30 31  2  0  0  0  0
 31 29  1  0  0  0  0
 31 28  1  0  0  0  0
 32 33  1  0  0  0  0
 33 34  1  0  0  0  0
 35 34  1  0  0  0  0
 36 34  1  0  0  0  0
 36 37  1  0  0  0  0
M  END
>  <MODEL>
4

>  <REMARK>
 VINA RESULT:      -7.2      2.059      2.978
  Name = 
  13 active torsions:
  status: ('A' for Active; 'I' for Inactive)
    1  A    between atoms: O_2  and  C_16
    2  A    between atoms: O_2  and  C_27
    3  A    between atoms: C_3  and  N_37
    4  A    between atoms: O_4  and  C_12
    5  A    between atoms: C_9  and  C_18
    6  A    between atoms: C_9  and  C_26
    7  A    between atoms: C_12  and  C_16
    8  A    between atoms: C_14  and  C_18
    9  A    between atoms: C_14  and  C_27
   10  A    between atoms: N_17  and  C_28
   11  A    between atoms: C_18  and  C_35
   12  A    between atoms: C_25  and  C_36
   13  A    between atoms: C_27  and  C_33
                            x       y       z     vdW  Elec       q    Type
                         _______ _______ _______ _____ _____    ______ ____

>  <TORSDO>
F 13

$$$$
=
 OpenBabel11062415283D

 37 41  0  0  1  0  0  0  0  0999 V2000
  190.4760  176.8440  141.3690 C   0  0  1  0  0  3  0  0  0  0  0  0
  189.0340  177.3160  141.1570 C   0  0  0  0  0  2  0  0  0  0  0  0
  192.6200  177.4810  140.4220 N   0  0  0  0  0  2  0  0  0  0  0  0
  191.3390  177.3960  140.2700 C   0  0  0  0  0  0  0  0  0  0  0  0
  188.5910  177.1060  139.7770 N   0  0  0  0  0  0  0  0  0  0  0  0
  189.3880  177.2540  138.7580 C   0  0  0  0  0  0  0  0  0  0  0  0
  190.7790  177.5160  138.9620 N   0  0  0  0  0  2  0  0  0  0  0  0
  187.0380  177.1670  135.7500 C   0  0  1  0  0  3  0  0  0  0  0  0
  189.1600  176.4280  135.0600 O   0  0  0  0  0  0  0  0  0  0  0  0
  188.5770  175.7200  136.9380 C   0  0  1  0  0  3  0  0  0  0  0  0
  187.9490  175.9410  135.5900 C   0  0  1  0  0  3  0  0  0  0  0  0
  185.8100  176.9030  136.6130 C   0  0  0  0  0  2  0  0  0  0  0  0
  189.7610  176.4060  136.3350 C   0  0  2  0  0  3  0  0  0  0  0  0
  186.4340  177.7220  137.7350 C   0  0  1  0  0  3  0  0  0  0  0  0
  187.6750  177.9770  136.8790 C   0  0  1  0  0  3  0  0  0  0  0  0
  188.8620  177.1250  137.3630 C   0  0  2  0  0  0  0  0  0  0  0  0
  184.1770  178.1580  139.6150 O   0  0  0  0  0  1  0  0  0  0  0  0
  185.6830  178.9500  137.9980 N   0  0  0  0  0  2  0  0  0  0  0  0
  184.6010  179.1210  138.9230 C   0  0  0  0  0  0  0  0  0  0  0  0
  184.0130  180.3700  139.0620 O   0  0  0  0  0  0  0  0  0  0  0  0
  190.2130  178.0280  143.4010 C   0  0  0  0  0  3  0  0  0  0  0  0
  190.9480  177.2870  142.6570 N   0  0  0  0  0  0  0  0  0  0  0  0
  190.7140  178.4850  144.7290 C   0  0  0  0  0  2  0  0  0  0  0  0
  189.8290  177.9540  145.8450 C   0  0  2  0  0  3  0  0  0  0  0  0
  191.7280  176.4630  146.4880 C   0  0  0  0  0  1  0  0  0  0  0  0
  190.2380  176.5350  146.2200 C   0  0  0  0  0  2  0  0  0  0  0  0
  188.3870  177.9540  145.3640 C   0  0  0  0  0  2  0  0  0  0  0  0
  187.4740  177.2760  146.3760 C   0  0  1  0  0  3  0  0  0  0  0  0
  188.0430  177.6040  148.7900 O   0  0  0  0  0  1  0  0  0  0  0  0
  186.8300  179.1810  147.6520 O   0  0  0  0  0  0  0  0  0  0  0  0
  187.4390  178.0810  147.6320 C   0  0  0  0  0  0  0  0  0  0  0  0
  186.1820  177.1460  145.8590 O   0  0  0  0  0  0  0  0  0  0  0  0
  186.1940  177.8860  144.6750 C   0  0  0  0  0  2  0  0  0  0  0  0
  184.8080  178.4360  144.3940 C   0  0  1  0  0  3  0  0  0  0  0  0
  184.4660  179.3680  145.3750 O   0  0  0  0  0  1  0  0  0  0  0  0
  184.7990  179.0540  143.1440 O   0  0  0  0  0  0  0  0  0  0  0  0
  185.9830  178.6410  142.5340 C   0  0  0  0  0  1  0  0  0  0  0  0
  1 22  1  1  0  0  0
  2  1  1  0  0  0  0
  4  3  2  0  0  0  0
  4  1  1  0  0  0  0
  5  2  1  0  0  0  0
  6  7  1  0  0  0  0
  6  5  2  0  0  0  0
  7  4  1  0  0  0  0
  8 12  1  1  0  0  0
  8 15  1  0  0  0  0
  9 11  1  0  0  0  0
  9 13  1  0  0  0  0
 10 16  1  0  0  0  0
 11  8  1  0  0  0  0
 11 10  1  0  0  0  0
 12 14  1  0  0  0  0
 13 10  1  0  0  0  0
 13 16  1  0  0  0  0
 14 18  1  0  0  0  0
 15 16  1  0  0  0  0
 15 14  1  0  0  0  0
 16  6  1  0  0  0  0
 18 19  1  0  0  0  0
 19 20  2  0  0  0  0
 19 17  1  0  0  0  0
 21 23  1  0  0  0  0
 22 21  2  0  0  0  0
 23 24  1  0  0  0  0
 24 26  1  0  0  0  0
 26 25  1  0  0  0  0
 27 24  1  0  0  0  0
 27 28  1  0  0  0  0
 28 31  1  0  0  0  0
 31 30  2  0  0  0  0
 31 29  1  0  0  0  0
 32 28  1  0  0  0  0
 33 32  1  0  0  0  0
 34 33  1  0  0  0  0
 34 35  1  0  0  0  0
 36 34  1  0  0  0  0
 37 36  1  0  0  0  0
M  END
>  <MODEL>
5

>  <REMARK>
 VINA RESULT:      -7.0      2.247      8.120
  Name = 
  13 active torsions:
  status: ('A' for Active; 'I' for Inactive)
    1  A    between atoms: O_2  and  C_16
    2  A    between atoms: O_2  and  C_27
    3  A    between atoms: C_3  and  N_37
    4  A    between atoms: O_4  and  C_12
    5  A    between atoms: C_9  and  C_18
    6  A    between atoms: C_9  and  C_26
    7  A    between atoms: C_12  and  C_16
    8  A    between atoms: C_14  and  C_18
    9  A    between atoms: C_14  and  C_27
   10  A    between atoms: N_17  and  C_28
   11  A    between atoms: C_18  and  C_35
   12  A    between atoms: C_25  and  C_36
   13  A    between atoms: C_27  and  C_33
                            x       y       z     vdW  Elec       q    Type
                         _______ _______ _______ _____ _____    ______ ____

>  <TORSDO>
F 13

$$$$
=
 OpenBabel11062415283D

 37 41  0  0  1  0  0  0  0  0999 V2000
  184.3460  179.2610  143.2580 C   0  0  1  0  0  3  0  0  0  0  0  0
  185.0050  178.6360  142.0240 C   0  0  0  0  0  2  0  0  0  0  0  0
  182.2710  178.8580  144.4530 N   0  0  0  0  0  2  0  0  0  0  0  0
  182.9170  178.8050  143.3350 C   0  0  0  0  0  0  0  0  0  0  0  0
  184.1760  178.7960  140.8270 N   0  0  0  0  0  0  0  0  0  0  0  0
  182.8760  178.7350  140.8640 C   0  0  0  0  0  0  0  0  0  0  0  0
  182.1950  178.6240  142.1170 N   0  0  0  0  0  2  0  0  0  0  0  0
  181.6630  178.1450  137.2920 C   0  0  1  0  0  3  0  0  0  0  0  0
  180.4010  179.8920  138.2290 O   0  0  0  0  0  0  0  0  0  0  0  0
  182.4340  179.9530  138.7090 C   0  0  1  0  0  3  0  0  0  0  0  0
  181.5860  179.6650  137.5020 C   0  0  1  0  0  3  0  0  0  0  0  0
  183.0300  177.6670  136.8190 C   0  0  0  0  0  2  0  0  0  0  0  0
  181.1260  180.0070  139.4330 C   0  0  2  0  0  3  0  0  0  0  0  0
  183.2930  177.0840  138.2010 C   0  0  1  0  0  3  0  0  0  0  0  0
  181.9290  177.5750  138.6850 C   0  0  1  0  0  3  0  0  0  0  0  0
  182.0800  178.8040  139.5990 C   0  0  2  0  0  0  0  0  0  0  0  0
  185.4030  175.3600  137.0190 O   0  0  0  0  0  0  0  0  0  0  0  0
  183.3750  175.6220  138.1710 N   0  0  0  0  0  2  0  0  0  0  0  0
  184.4180  174.8250  137.5950 C   0  0  0  0  0  0  0  0  0  0  0  0
  184.3450  173.4430  137.6770 O   0  0  0  0  0  1  0  0  0  0  0  0
  185.9300  177.9250  144.4000 C   0  0  0  0  0  3  0  0  0  0  0  0
  185.0690  178.8730  144.4440 N   0  0  0  0  0  0  0  0  0  0  0  0
  186.6670  177.5270  145.6340 C   0  0  0  0  0  2  0  0  0  0  0  0
  188.0800  177.0810  145.2910 C   0  0  2  0  0  3  0  0  0  0  0  0
  189.6000  177.0670  147.2740 C   0  0  0  0  0  1  0  0  0  0  0  0
  189.1000  177.8780  146.0950 C   0  0  0  0  0  2  0  0  0  0  0  0
  188.3150  177.3100  143.8070 C   0  0  0  0  0  2  0  0  0  0  0  0
  189.7750  177.6410  143.5310 C   0  0  1  0  0  3  0  0  0  0  0  0
  190.0940  175.2570  142.8420 O   0  0  0  0  0  0  0  0  0  0  0  0
  191.6730  176.3260  144.1140 O   0  0  0  0  0  1  0  0  0  0  0  0
  190.5740  176.3810  143.5050 C   0  0  0  0  0  0  0  0  0  0  0  0
  189.9020  178.3090  142.3100 O   0  0  0  0  0  0  0  0  0  0  0  0
  188.6460  178.2000  141.7090 C   0  0  0  0  0  2  0  0  0  0  0  0
  188.7880  178.2530  140.2000 C   0  0  1  0  0  3  0  0  0  0  0  0
  189.1610  176.9970  139.7200 O   0  0  0  0  0  1  0  0  0  0  0  0
  187.5690  178.6230  139.6320 O   0  0  0  0  0  0  0  0  0  0  0  0
  187.4750  177.8670  138.4640 C   0  0  0  0  0  1  0  0  0  0  0  0
  1  4  1  0  0  0  0
  1 22  1  1  0  0  0
  2  1  1  0  0  0  0
  4  3  2  0  0  0  0
  5  6  2  0  0  0  0
  5  2  1  0  0  0  0
  6  7  1  0  0  0  0
  7  4  1  0  0  0  0
  8 12  1  6  0  0  0
  8 11  1  0  0  0  0
  8 15  1  0  0  0  0
  9 13  1  0  0  0  0
 10 13  1  0  0  0  0
 10 16  1  0  0  0  0
 11  9  1  0  0  0  0
 11 10  1  0  0  0  0
 12 14  1  0  0  0  0
 13 16  1  0  0  0  0
 14 15  1  0  0  0  0
 15 16  1  0  0  0  0
 16  6  1  0  0  0  0
 17 19  2  0  0  0  0
 18 14  1  0  0  0  0
 19 20  1  0  0  0  0
 19 18  1  0  0  0  0
 21 22  2  0  0  0  0
 21 23  1  0  0  0  0
 24 23  1  0  0  0  0
 24 26  1  0  0  0  0
 26 25  1  0  0  0  0
 27 24  1  0  0  0  0
 28 27  1  0  0  0  0
 29 31  2  0  0  0  0
 31 28  1  0  0  0  0
 31 30  1  0  0  0  0
 32 28  1  0  0  0  0
 33 32  1  0  0  0  0
 34 33  1  0  0  0  0
 35 34  1  0  0  0  0
 36 34  1  0  0  0  0
 37 36  1  0  0  0  0
M  END
>  <MODEL>
6

>  <REMARK>
 VINA RESULT:      -6.9      3.651      7.860
  Name = 
  13 active torsions:
  status: ('A' for Active; 'I' for Inactive)
    1  A    between atoms: O_2  and  C_16
    2  A    between atoms: O_2  and  C_27
    3  A    between atoms: C_3  and  N_37
    4  A    between atoms: O_4  and  C_12
    5  A    between atoms: C_9  and  C_18
    6  A    between atoms: C_9  and  C_26
    7  A    between atoms: C_12  and  C_16
    8  A    between atoms: C_14  and  C_18
    9  A    between atoms: C_14  and  C_27
   10  A    between atoms: N_17  and  C_28
   11  A    between atoms: C_18  and  C_35
   12  A    between atoms: C_25  and  C_36
   13  A    between atoms: C_27  and  C_33
                            x       y       z     vdW  Elec       q    Type
                         _______ _______ _______ _____ _____    ______ ____

>  <TORSDO>
F 13

$$$$
=
 OpenBabel11062415283D

 37 41  0  0  1  0  0  0  0  0999 V2000
  185.5170  177.8110  143.9470 C   0  0  1  0  0  3  0  0  0  0  0  0
  186.8130  177.8800  143.1330 C   0  0  0  0  0  2  0  0  0  0  0  0
  184.6740  179.0030  145.8880 N   0  0  0  0  0  2  0  0  0  0  0  0
  185.6990  178.5780  145.2260 C   0  0  0  0  0  0  0  0  0  0  0  0
  187.9860  177.5650  143.9520 N   0  0  0  0  0  0  0  0  0  0  0  0
  188.0840  177.9250  145.2000 C   0  0  0  0  0  0  0  0  0  0  0  0
  186.9790  178.5490  145.8580 N   0  0  0  0  0  2  0  0  0  0  0  0
  191.6260  176.8280  146.1110 C   0  0  1  0  0  3  0  0  0  0  0  0
  190.5290  177.5110  148.0740 O   0  0  0  0  0  0  0  0  0  0  0  0
  189.3310  176.4040  146.7660 C   0  0  1  0  0  3  0  0  0  0  0  0
  190.7430  176.3660  147.2800 C   0  0  1  0  0  3  0  0  0  0  0  0
  191.6960  175.8210  144.9700 C   0  0  0  0  0  2  0  0  0  0  0  0
  189.2530  177.7030  147.5040 C   0  0  2  0  0  3  0  0  0  0  0  0
  190.8050  176.7260  144.1290 C   0  0  1  0  0  3  0  0  0  0  0  0
  190.7200  177.7320  145.2760 C   0  0  1  0  0  3  0  0  0  0  0  0
  189.3440  177.6670  145.9640 C   0  0  2  0  0  0  0  0  0  0  0  0
  190.1930  176.3910  141.2420 O   0  0  0  0  0  1  0  0  0  0  0  0
  191.5170  177.2690  142.9700 N   0  0  0  0  0  2  0  0  0  0  0  0
  191.1830  177.0890  141.5880 C   0  0  0  0  0  0  0  0  0  0  0  0
  191.9600  177.6990  140.6130 O   0  0  0  0  0  0  0  0  0  0  0  0
  184.4380  178.2880  141.8960 C   0  0  0  0  0  3  0  0  0  0  0  0
  184.4290  178.3580  143.1760 N   0  0  0  0  0  0  0  0  0  0  0  0
  183.3110  178.8640  141.1080 C   0  0  0  0  0  2  0  0  0  0  0  0
  183.7100  179.0300  139.6500 C   0  0  2  0  0  3  0  0  0  0  0  0
  181.6430  179.2070  138.2570 C   0  0  0  0  0  1  0  0  0  0  0  0
  182.7530  179.9800  138.9410 C   0  0  0  0  0  2  0  0  0  0  0  0
  183.6640  177.6690  138.9750 C   0  0  0  0  0  2  0  0  0  0  0  0
  184.9520  177.3950  138.2120 C   0  0  1  0  0  3  0  0  0  0  0  0
  185.1210  175.4740  136.6180 O   0  0  0  0  0  1  0  0  0  0  0  0
  183.9360  177.3540  136.0580 O   0  0  0  0  0  0  0  0  0  0  0  0
  184.6290  176.7410  136.9100 C   0  0  0  0  0  0  0  0  0  0  0  0
  185.6490  178.5850  137.9860 O   0  0  0  0  0  0  0  0  0  0  0  0
  186.9100  178.1820  137.5390 C   0  0  0  0  0  2  0  0  0  0  0  0
  187.7420  177.6940  138.7100 C   0  0  1  0  0  3  0  0  0  0  0  0
  188.4210  176.5300  138.3490 O   0  0  0  0  0  1  0  0  0  0  0  0
  188.6640  178.6780  139.0650 O   0  0  0  0  0  0  0  0  0  0  0  0
  189.3340  178.9830  137.8800 C   0  0  0  0  0  1  0  0  0  0  0  0
  1 22  1  6  0  0  0
  1  4  1  0  0  0  0
  2  1  1  0  0  0  0
  2  5  1  0  0  0  0
  4  7  1  0  0  0  0
  4  3  2  0  0  0  0
  5  6  2  0  0  0  0
  6  7  1  0  0  0  0
  6 16  1  0  0  0  0
  8 12  1  6  0  0  0
  8 11  1  0  0  0  0
 10 11  1  0  0  0  0
 10 13  1  0  0  0  0
 11  9  1  0  0  0  0
 13  9  1  0  0  0  0
 14 12  1  0  0  0  0
 14 15  1  0  0  0  0
 15 16  1  0  0  0  0
 15  8  1  0  0  0  0
 16 10  1  0  0  0  0
 16 13  1  0  0  0  0
 17 19  1  0  0  0  0
 18 14  1  0  0  0  0
 19 18  1  0  0  0  0
 20 19  2  0  0  0  0
 21 22  2  0  0  0  0
 23 21  1  0  0  0  0
 24 23  1  0  0  0  0
 25 26  1  0  0  0  0
 26 24  1  0  0  0  0
 27 24  1  0  0  0  0
 28 27  1  0  0  0  0
 29 31  1  0  0  0  0
 30 31  2  0  0  0  0
 31 28  1  0  0  0  0
 32 28  1  0  0  0  0
 33 32  1  0  0  0  0
 33 34  1  0  0  0  0
 34 36  1  0  0  0  0
 35 34  1  0  0  0  0
 37 36  1  0  0  0  0
M  END
>  <MODEL>
7

>  <REMARK>
 VINA RESULT:      -6.9      2.567      6.017
  Name = 
  13 active torsions:
  status: ('A' for Active; 'I' for Inactive)
    1  A    between atoms: O_2  and  C_16
    2  A    between atoms: O_2  and  C_27
    3  A    between atoms: C_3  and  N_37
    4  A    between atoms: O_4  and  C_12
    5  A    between atoms: C_9  and  C_18
    6  A    between atoms: C_9  and  C_26
    7  A    between atoms: C_12  and  C_16
    8  A    between atoms: C_14  and  C_18
    9  A    between atoms: C_14  and  C_27
   10  A    between atoms: N_17  and  C_28
   11  A    between atoms: C_18  and  C_35
   12  A    between atoms: C_25  and  C_36
   13  A    between atoms: C_27  and  C_33
                            x       y       z     vdW  Elec       q    Type
                         _______ _______ _______ _____ _____    ______ ____

>  <TORSDO>
F 13

$$$$
=
 OpenBabel11062415283D

 37 41  0  0  1  0  0  0  0  0999 V2000
  186.9100  178.2000  141.0700 C   0  0  1  0  0  3  0  0  0  0  0  0
  185.7670  178.8390  141.8650 C   0  0  0  0  0  2  0  0  0  0  0  0
  187.7980  178.5170  138.8330 N   0  0  0  0  0  2  0  0  0  0  0  0
  186.7790  178.5870  139.6250 C   0  0  0  0  0  0  0  0  0  0  0  0
  184.4700  178.6240  141.2190 N   0  0  0  0  0  0  0  0  0  0  0  0
  184.3250  178.6230  139.9250 C   0  0  0  0  0  0  0  0  0  0  0  0
  185.4690  178.7170  139.0720 N   0  0  0  0  0  2  0  0  0  0  0  0
  181.4000  177.4670  137.7600 C   0  0  1  0  0  3  0  0  0  0  0  0
  180.7360  179.3810  138.9510 O   0  0  0  0  0  0  0  0  0  0  0  0
  182.6900  179.4690  138.2130 C   0  0  1  0  0  3  0  0  0  0  0  0
  181.3430  179.0020  137.7370 C   0  0  1  0  0  3  0  0  0  0  0  0
  182.3160  176.8780  136.6940 C   0  0  0  0  0  2  0  0  0  0  0  0
  181.9910  179.6790  139.5190 C   0  0  2  0  0  3  0  0  0  0  0  0
  183.3340  176.5320  137.7720 C   0  0  1  0  0  3  0  0  0  0  0  0
  182.4260  177.1350  138.8440 C   0  0  1  0  0  3  0  0  0  0  0  0
  182.9640  178.4980  139.3170 C   0  0  2  0  0  0  0  0  0  0  0  0
  185.6650  174.8250  137.0860 O   0  0  0  0  0  0  0  0  0  0  0  0
  183.4900  175.0850  137.9320 N   0  0  0  0  0  2  0  0  0  0  0  0
  184.6390  174.2970  137.5940 C   0  0  0  0  0  0  0  0  0  0  0  0
  184.6240  172.9310  137.8340 O   0  0  0  0  0  1  0  0  0  0  0  0
  188.6850  178.0640  142.6290 C   0  0  0  0  0  3  0  0  0  0  0  0
  188.1760  178.6380  141.6020 N   0  0  0  0  0  0  0  0  0  0  0  0
  189.9920  178.5290  143.1750 C   0  0  0  0  0  2  0  0  0  0  0  0
  190.2180  177.9680  144.5710 C   0  0  2  0  0  3  0  0  0  0  0  0
  191.6600  176.0200  143.9650 C   0  0  0  0  0  1  0  0  0  0  0  0
  191.6070  177.3550  144.6800 C   0  0  0  0  0  2  0  0  0  0  0  0
  189.1710  176.8990  144.8390 C   0  0  0  0  0  2  0  0  0  0  0  0
  188.3310  177.2530  146.0580 C   0  0  1  0  0  3  0  0  0  0  0  0
  190.1550  176.3250  147.4970 O   0  0  0  0  0  0  0  0  0  0  0  0
  189.0620  178.2500  148.0940 O   0  0  0  0  0  1  0  0  0  0  0  0
  189.2070  177.3150  147.2650 C   0  0  0  0  0  0  0  0  0  0  0  0
  187.6920  178.4820  145.8720 O   0  0  0  0  0  0  0  0  0  0  0  0
  186.3560  178.1570  145.6240 C   0  0  0  0  0  2  0  0  0  0  0  0
  185.5130  178.4640  146.8480 C   0  0  1  0  0  3  0  0  0  0  0  0
  185.9720  179.6350  147.4510 O   0  0  0  0  0  1  0  0  0  0  0  0
  184.1830  178.6290  146.4640 O   0  0  0  0  0  0  0  0  0  0  0  0
  184.2370  178.8950  145.0960 C   0  0  0  0  0  1  0  0  0  0  0  0
  1 22  1  1  0  0  0
  1  2  1  0  0  0  0
  3  4  2  0  0  0  0
  4  1  1  0  0  0  0
  5  2  1  0  0  0  0
  6  5  2  0  0  0  0
  7  4  1  0  0  0  0
  7  6  1  0  0  0  0
  8 12  1  6  0  0  0
  8 15  1  0  0  0  0
  9 13  1  0  0  0  0
 10 16  1  0  0  0  0
 10 13  1  0  0  0  0
 11  8  1  0  0  0  0
 11 10  1  0  0  0  0
 11  9  1  0  0  0  0
 12 14  1  0  0  0  0
 14 18  1  0  0  0  0
 14 15  1  0  0  0  0
 15 16  1  0  0  0  0
 16 13  1  0  0  0  0
 16  6  1  0  0  0  0
 17 19  2  0  0  0  0
 19 20  1  0  0  0  0
 19 18  1  0  0  0  0
 21 23  1  0  0  0  0
 22 21  2  0  0  0  0
 23 24  1  0  0  0  0
 24 26  1  0  0  0  0
 24 27  1  0  0  0  0
 25 26  1  0  0  0  0
 27 28  1  0  0  0  0
 28 31  1  0  0  0  0
 31 29  2  0  0  0  0
 31 30  1  0  0  0  0
 32 28  1  0  0  0  0
 33 32  1  0  0  0  0
 33 34  1  0  0  0  0
 34 35  1  0  0  0  0
 36 34  1  0  0  0  0
 37 36  1  0  0  0  0
M  END
>  <MODEL>
8

>  <REMARK>
 VINA RESULT:      -6.8      3.727      8.298
  Name = 
  13 active torsions:
  status: ('A' for Active; 'I' for Inactive)
    1  A    between atoms: O_2  and  C_16
    2  A    between atoms: O_2  and  C_27
    3  A    between atoms: C_3  and  N_37
    4  A    between atoms: O_4  and  C_12
    5  A    between atoms: C_9  and  C_18
    6  A    between atoms: C_9  and  C_26
    7  A    between atoms: C_12  and  C_16
    8  A    between atoms: C_14  and  C_18
    9  A    between atoms: C_14  and  C_27
   10  A    between atoms: N_17  and  C_28
   11  A    between atoms: C_18  and  C_35
   12  A    between atoms: C_25  and  C_36
   13  A    between atoms: C_27  and  C_33
                            x       y       z     vdW  Elec       q    Type
                         _______ _______ _______ _____ _____    ______ ____

>  <TORSDO>
F 13

$$$$
=
 OpenBabel11062415283D

 37 41  0  0  1  0  0  0  0  0999 V2000
  182.8900  178.6570  138.7160 C   0  0  1  0  0  3  0  0  0  0  0  0
  184.1320  179.2550  139.3840 C   0  0  0  0  0  2  0  0  0  0  0  0
  182.2090  176.4030  138.1230 N   0  0  0  0  0  2  0  0  0  0  0  0
  183.1770  177.2330  138.3320 C   0  0  0  0  0  0  0  0  0  0  0  0
  185.3450  178.9930  138.6080 N   0  0  0  0  0  0  0  0  0  0  0  0
  185.5350  177.8790  137.9610 C   0  0  0  0  0  0  0  0  0  0  0  0
  184.4930  176.9010  137.8910 N   0  0  0  0  0  2  0  0  0  0  0  0
  189.2650  177.4820  137.2510 C   0  0  1  0  0  3  0  0  0  0  0  0
  188.0960  177.3050  135.2200 O   0  0  0  0  0  0  0  0  0  0  0  0
  187.3670  178.7880  136.5000 C   0  0  1  0  0  3  0  0  0  0  0  0
  188.7040  178.2640  136.0540 C   0  0  1  0  0  3  0  0  0  0  0  0
  189.6660  178.3700  138.4220 C   0  0  0  0  0  2  0  0  0  0  0  0
  186.8200  177.6330  135.7220 C   0  0  2  0  0  3  0  0  0  0  0  0
  188.4450  177.8890  139.1940 C   0  0  1  0  0  3  0  0  0  0  0  0
  188.0300  177.0070  138.0160 C   0  0  1  0  0  3  0  0  0  0  0  0
  186.8330  177.6200  137.2660 C   0  0  2  0  0  0  0  0  0  0  0  0
  188.2480  178.6180  142.0660 O   0  0  0  0  0  0  0  0  0  0  0  0
  188.8180  177.0990  140.3700 N   0  0  0  0  0  2  0  0  0  0  0  0
  188.6990  177.4870  141.7450 C   0  0  0  0  0  0  0  0  0  0  0  0
  189.0830  176.5980  142.7390 O   0  0  0  0  0  1  0  0  0  0  0  0
  181.9590  178.7630  140.8880 C   0  0  0  0  0  3  0  0  0  0  0  0
  181.7700  178.7240  139.6210 N   0  0  0  0  0  0  0  0  0  0  0  0
  180.7930  178.8260  141.8160 C   0  0  0  0  0  2  0  0  0  0  0  0
  181.2060  178.4120  143.2210 C   0  0  2  0  0  3  0  0  0  0  0  0
  178.9590  179.3990  143.6870 C   0  0  0  0  0  1  0  0  0  0  0  0
  179.9990  178.3970  144.1490 C   0  0  0  0  0  2  0  0  0  0  0  0
  182.2300  179.4080  143.7390 C   0  0  0  0  0  2  0  0  0  0  0  0
  183.4530  178.6930  144.2970 C   0  0  1  0  0  3  0  0  0  0  0  0
  185.0950  180.1100  143.0480 O   0  0  0  0  0  1  0  0  0  0  0  0
  185.0850  177.8330  142.7900 O   0  0  0  0  0  0  0  0  0  0  0  0
  184.5950  178.8480  143.3480 C   0  0  0  0  0  0  0  0  0  0  0  0
  183.7990  179.2180  145.5450 O   0  0  0  0  0  0  0  0  0  0  0  0
  184.6340  178.2570  146.1190 C   0  0  0  0  0  2  0  0  0  0  0  0
  185.9470  178.8930  146.5340 C   0  0  1  0  0  3  0  0  0  0  0  0
  185.7350  179.7390  147.6230 O   0  0  0  0  0  1  0  0  0  0  0  0
  186.8530  177.8950  146.8910 O   0  0  0  0  0  0  0  0  0  0  0  0
  187.6170  177.6800  145.7440 C   0  0  0  0  0  1  0  0  0  0  0  0
  1  2  1  0  0  0  0
  1 22  1  1  0  0  0
  3  4  2  0  0  0  0
  4  1  1  0  0  0  0
  5  2  1  0  0  0  0
  6  5  2  0  0  0  0
  7  6  1  0  0  0  0
  7  4  1  0  0  0  0
  8 15  1  0  0  0  0
  8 12  1  1  0  0  0
  9 13  1  0  0  0  0
  9 11  1  0  0  0  0
 10 16  1  0  0  0  0
 11 10  1  0  0  0  0
 11  8  1  0  0  0  0
 12 14  1  0  0  0  0
 13 10  1  0  0  0  0
 13 16  1  0  0  0  0
 14 18  1  0  0  0  0
 15 14  1  0  0  0  0
 16  6  1  0  0  0  0
 16 15  1  0  0  0  0
 18 19  1  0  0  0  0
 19 17  2  0  0  0  0
 19 20  1  0  0  0  0
 21 23  1  0  0  0  0
 22 21  2  0  0  0  0
 23 24  1  0  0  0  0
 24 27  1  0  0  0  0
 24 26  1  0  0  0  0
 25 26  1  0  0  0  0
 27 28  1  0  0  0  0
 28 32  1  0  0  0  0
 29 31  1  0  0  0  0
 30 31  2  0  0  0  0
 31 28  1  0  0  0  0
 32 33  1  0  0  0  0
 33 34  1  0  0  0  0
 34 36  1  0  0  0  0
 34 35  1  0  0  0  0
 37 36  1  0  0  0  0
M  END
>  <MODEL>
9

>  <REMARK>
 VINA RESULT:      -6.7      3.376      9.850
  Name = 
  13 active torsions:
  status: ('A' for Active; 'I' for Inactive)
    1  A    between atoms: O_2  and  C_16
    2  A    between atoms: O_2  and  C_27
    3  A    between atoms: C_3  and  N_37
    4  A    between atoms: O_4  and  C_12
    5  A    between atoms: C_9  and  C_18
    6  A    between atoms: C_9  and  C_26
    7  A    between atoms: C_12  and  C_16
    8  A    between atoms: C_14  and  C_18
    9  A    between atoms: C_14  and  C_27
   10  A    between atoms: N_17  and  C_28
   11  A    between atoms: C_18  and  C_35
   12  A    between atoms: C_25  and  C_36
   13  A    between atoms: C_27  and  C_33
                            x       y       z     vdW  Elec       q    Type
                         _______ _______ _______ _____ _____    ______ ____

>  <TORSDO>
F 13

$$$$
