=
 OpenBabel11062416593D

 26 28  0  0  1  0  0  0  0  0999 V2000
  186.1970  177.7760  145.7510 C   0  0  2  0  0  3  0  0  0  0  0  0
  185.9370  177.8870  142.1780 N   0  0  0  0  0  0  0  0  0  0  0  0
  184.6940  178.2710  142.5210 C   0  0  0  0  0  0  0  0  0  0  0  0
  184.5370  178.3280  143.8920 C   0  0  0  0  0  3  0  0  0  0  0  0
  183.6600  178.5660  141.5810 N   0  0  0  0  0  2  0  0  0  0  0  0
  186.5720  177.6970  143.2930 O   0  0  0  0  0  0  0  0  0  0  0  0
  185.7950  177.9450  144.3220 C   0  0  0  0  0  0  0  0  0  0  0  0
  183.1380  177.1880  139.6330 C   0  0  0  0  0  1  0  0  0  0  0  0
  183.8520  178.4290  140.1420 C   0  0  1  0  0  3  0  0  0  0  0  0
  182.5720  179.2840  138.3110 O   0  0  0  0  0  1  0  0  0  0  0  0
  183.3400  179.6660  139.4120 C   0  0  0  0  0  3  0  0  0  0  0  0
  184.4010  180.4680  138.9850 O   0  0  0  0  0  1  0  0  0  0  0  0
  185.1330  178.3620  146.6660 C   0  0  0  0  0  2  0  0  0  0  0  0
  185.6170  179.5160  147.2830 O   0  0  0  0  0  1  0  0  0  0  0  0
  187.5390  178.4540  146.0010 C   0  0  0  0  0  2  0  0  0  0  0  0
  188.5240  177.4670  146.4310 N   0  0  0  0  0  0  0  0  0  0  0  0
  188.5140  177.5120  147.8350 N   0  0  0  0  0  1  0  0  0  0  0  0
  192.4890  175.3420  146.2820 N   0  0  0  0  0  0  0  0  0  0  0  0
  189.9190  177.9360  144.4450 C   0  0  0  0  0  3  0  0  0  0  0  0
  189.8620  177.8760  145.9740 C   0  0  2  0  0  3  0  0  0  0  0  0
  191.2630  176.7390  147.7100 N   0  0  0  0  0  0  0  0  0  0  0  0
  190.6630  177.1270  143.6640 C   0  0  0  0  0  3  0  0  0  0  0  0
  192.2990  175.6970  147.6950 C   0  0  0  0  0  2  0  0  0  0  0  0
  191.6510  176.0660  145.6320 C   0  0  0  0  0  0  0  0  0  0  0  0
  191.5370  176.1330  144.2170 N   0  0  0  0  0  2  0  0  0  0  0  0
  190.9110  176.9200  146.4860 C   0  0  0  0  0  0  0  0  0  0  0  0
  1 15  1  6  0  0  0
  1 13  1  0  0  0  0
  2  3  2  0  0  0  0
  2  6  1  0  0  0  0
  3  4  1  0  0  0  0
  4  7  2  0  0  0  0
  5  3  1  0  0  0  0
  6  7  1  0  0  0  0
  7  1  1  0  0  0  0
  9  8  1  6  0  0  0
  9  5  1  0  0  0  0
 10 11  1  0  0  0  0
 11  9  1  0  0  0  0
 12 11  1  0  0  0  0
 13 14  1  0  0  0  0
 15 16  1  0  0  0  0
 16 17  1  0  0  0  0
 18 23  1  0  0  0  0
 19 20  1  0  0  0  0
 20 16  1  6  0  0  0
 20 26  1  0  0  0  0
 22 25  1  0  0  0  0
 22 19  2  0  0  0  0
 23 21  1  0  0  0  0
 24 18  2  0  0  0  0
 24 26  1  0  0  0  0
 25 24  1  0  0  0  0
 26 21  2  0  0  0  0
M  END
>  <MODEL>
1

>  <REMARK>
 VINA RESULT:      -7.5      0.000      0.000
  Name = 
  7 active torsions:
  status: ('A' for Active; 'I' for Inactive)
    1  A    between atoms: C_2  and  C_10
    2  A    between atoms: C_2  and  N_15
    3  A    between atoms: C_7  and  C_10
    4  A    between atoms: C_8  and  N_15
    5  A    between atoms: C_9  and  CA_26
    6  A    between atoms: C_10  and  C_25
    7  A    between atoms: N_19  and  CA_26
                            x       y       z     vdW  Elec       q    Type
                         _______ _______ _______ _____ _____    ______ ____

>  <TORSDO>
F 7

$$$$
=
 OpenBabel11062416593D

 26 28  0  0  1  0  0  0  0  0999 V2000
  187.6420  178.4430  141.5040 C   0  0  2  0  0  3  0  0  0  0  0  0
  184.3100  179.4210  140.6140 N   0  0  0  0  0  0  0  0  0  0  0  0
  184.0750  178.8050  141.7880 C   0  0  0  0  0  0  0  0  0  0  0  0
  185.2410  178.3390  142.3630 C   0  0  0  0  0  3  0  0  0  0  0  0
  182.7760  178.6410  142.3580 N   0  0  0  0  0  2  0  0  0  0  0  0
  185.5930  179.3550  140.4290 O   0  0  0  0  0  0  0  0  0  0  0  0
  186.1790  178.7340  141.4260 C   0  0  0  0  0  0  0  0  0  0  0  0
  181.0190  177.9900  140.7900 C   0  0  0  0  0  1  0  0  0  0  0  0
  181.5650  179.0930  141.6820 C   0  0  1  0  0  3  0  0  0  0  0  0
  179.5010  178.5560  142.7660 O   0  0  0  0  0  1  0  0  0  0  0  0
  180.5100  179.5180  142.6970 C   0  0  0  0  0  3  0  0  0  0  0  0
  179.9560  180.7530  142.3540 O   0  0  0  0  0  1  0  0  0  0  0  0
  188.1420  177.9180  140.1680 C   0  0  0  0  0  2  0  0  0  0  0  0
  188.6850  178.9610  139.4180 O   0  0  0  0  0  1  0  0  0  0  0  0
  187.9150  177.4250  142.6060 C   0  0  0  0  0  2  0  0  0  0  0  0
  189.3530  177.2870  142.8120 N   0  0  0  0  0  0  0  0  0  0  0  0
  189.5610  175.9340  143.1220 N   0  0  0  0  0  1  0  0  0  0  0  0
  188.3970  177.0090  147.2010 N   0  0  0  0  0  0  0  0  0  0  0  0
  191.2200  177.7980  144.3510 C   0  0  0  0  0  3  0  0  0  0  0  0
  189.7620  178.0870  143.9780 C   0  0  2  0  0  3  0  0  0  0  0  0
  187.6160  178.0770  145.2670 N   0  0  0  0  0  0  0  0  0  0  0  0
  191.6240  177.2050  145.4920 C   0  0  0  0  0  3  0  0  0  0  0  0
  187.1930  177.5810  146.5840 C   0  0  0  0  0  2  0  0  0  0  0  0
  189.3280  177.1480  146.3280 C   0  0  0  0  0  0  0  0  0  0  0  0
  190.6980  176.8210  146.5190 N   0  0  0  0  0  2  0  0  0  0  0  0
  188.8670  177.7990  145.1570 C   0  0  0  0  0  0  0  0  0  0  0  0
  1 13  1  6  0  0  0
  1 15  1  0  0  0  0
  2  3  2  0  0  0  0
  3  5  1  0  0  0  0
  3  4  1  0  0  0  0
  6  2  1  0  0  0  0
  6  7  1  0  0  0  0
  7  1  1  0  0  0  0
  7  4  2  0  0  0  0
  9  8  1  1  0  0  0
  9  5  1  0  0  0  0
  9 11  1  0  0  0  0
 11 10  1  0  0  0  0
 12 11  1  0  0  0  0
 14 13  1  0  0  0  0
 15 16  1  0  0  0  0
 16 17  1  0  0  0  0
 19 22  2  0  0  0  0
 20 16  1  6  0  0  0
 20 19  1  0  0  0  0
 20 26  1  0  0  0  0
 21 23  1  0  0  0  0
 22 25  1  0  0  0  0
 23 18  1  0  0  0  0
 24 25  1  0  0  0  0
 24 18  2  0  0  0  0
 26 21  2  0  0  0  0
 26 24  1  0  0  0  0
M  END
>  <MODEL>
2

>  <REMARK>
 VINA RESULT:      -7.3      2.649      4.052
  Name = 
  7 active torsions:
  status: ('A' for Active; 'I' for Inactive)
    1  A    between atoms: C_2  and  C_10
    2  A    between atoms: C_2  and  N_15
    3  A    between atoms: C_7  and  C_10
    4  A    between atoms: C_8  and  N_15
    5  A    between atoms: C_9  and  CA_26
    6  A    between atoms: C_10  and  C_25
    7  A    between atoms: N_19  and  CA_26
                            x       y       z     vdW  Elec       q    Type
                         _______ _______ _______ _____ _____    ______ ____

>  <TORSDO>
F 7

$$$$
=
 OpenBabel11062416593D

 26 28  0  0  1  0  0  0  0  0999 V2000
  187.6260  178.5710  141.5330 C   0  0  2  0  0  3  0  0  0  0  0  0
  184.2570  179.4280  140.6550 N   0  0  0  0  0  0  0  0  0  0  0  0
  184.0460  178.7840  141.8180 C   0  0  0  0  0  0  0  0  0  0  0  0
  185.2300  178.3550  142.3860 C   0  0  0  0  0  3  0  0  0  0  0  0
  182.7540  178.5570  142.3830 N   0  0  0  0  0  2  0  0  0  0  0  0
  185.5420  179.4180  140.4710 O   0  0  0  0  0  0  0  0  0  0  0  0
  186.1520  178.8040  141.4580 C   0  0  0  0  0  0  0  0  0  0  0  0
  181.0310  177.8650  140.7970 C   0  0  0  0  0  1  0  0  0  0  0  0
  181.5270  178.9710  141.7140 C   0  0  1  0  0  3  0  0  0  0  0  0
  179.3860  178.4340  142.6350 O   0  0  0  0  0  1  0  0  0  0  0  0
  180.4530  179.3280  142.7340 C   0  0  0  0  0  3  0  0  0  0  0  0
  179.9910  180.6310  142.5370 O   0  0  0  0  0  1  0  0  0  0  0  0
  188.1860  178.3180  140.1430 C   0  0  0  0  0  2  0  0  0  0  0  0
  189.0620  177.2330  140.1710 O   0  0  0  0  0  1  0  0  0  0  0  0
  187.9230  177.3870  142.4450 C   0  0  0  0  0  2  0  0  0  0  0  0
  188.5330  177.8530  143.6860 N   0  0  0  0  0  0  0  0  0  0  0  0
  189.9120  177.6470  143.5280 N   0  0  0  0  0  1  0  0  0  0  0  0
  189.5540  177.7710  148.0690 N   0  0  0  0  0  0  0  0  0  0  0  0
  186.6490  177.3890  145.2180 C   0  0  0  0  0  3  0  0  0  0  0  0
  188.0750  177.0130  144.8050 C   0  0  2  0  0  3  0  0  0  0  0  0
  190.2290  176.7740  146.0580 N   0  0  0  0  0  0  0  0  0  0  0  0
  186.3040  177.9370  146.4010 C   0  0  0  0  0  3  0  0  0  0  0  0
  190.7030  177.1490  147.3980 C   0  0  0  0  0  2  0  0  0  0  0  0
  188.6060  177.7620  147.2030 C   0  0  0  0  0  0  0  0  0  0  0  0
  187.2680  178.1810  147.4350 N   0  0  0  0  0  2  0  0  0  0  0  0
  189.0020  177.1540  145.9860 C   0  0  0  0  0  0  0  0  0  0  0  0
  1 13  1  6  0  0  0
  1 15  1  0  0  0  0
  2  3  2  0  0  0  0
  3  5  1  0  0  0  0
  3  4  1  0  0  0  0
  6  2  1  0  0  0  0
  6  7  1  0  0  0  0
  7  1  1  0  0  0  0
  7  4  2  0  0  0  0
  9  8  1  6  0  0  0
  9  5  1  0  0  0  0
  9 11  1  0  0  0  0
 10 11  1  0  0  0  0
 12 11  1  0  0  0  0
 13 14  1  0  0  0  0
 15 16  1  0  0  0  0
 17 16  1  0  0  0  0
 19 22  2  0  0  0  0
 20 16  1  6  0  0  0
 20 19  1  0  0  0  0
 20 26  1  0  0  0  0
 21 23  1  0  0  0  0
 22 25  1  0  0  0  0
 23 18  1  0  0  0  0
 24 25  1  0  0  0  0
 24 18  2  0  0  0  0
 26 21  2  0  0  0  0
 26 24  1  0  0  0  0
M  END
>  <MODEL>
3

>  <REMARK>
 VINA RESULT:      -7.3      2.664      4.082
  Name = 
  7 active torsions:
  status: ('A' for Active; 'I' for Inactive)
    1  A    between atoms: C_2  and  C_10
    2  A    between atoms: C_2  and  N_15
    3  A    between atoms: C_7  and  C_10
    4  A    between atoms: C_8  and  N_15
    5  A    between atoms: C_9  and  CA_26
    6  A    between atoms: C_10  and  C_25
    7  A    between atoms: N_19  and  CA_26
                            x       y       z     vdW  Elec       q    Type
                         _______ _______ _______ _____ _____    ______ ____

>  <TORSDO>
F 7

$$$$
=
 OpenBabel11062416593D

 26 28  0  0  1  0  0  0  0  0999 V2000
  189.8490  177.9120  143.1990 C   0  0  2  0  0  3  0  0  0  0  0  0
  189.3370  177.0980  139.7460 N   0  0  0  0  0  0  0  0  0  0  0  0
  188.3630  178.0090  139.9250 C   0  0  0  0  0  0  0  0  0  0  0  0
  188.3600  178.5080  141.2130 C   0  0  0  0  0  3  0  0  0  0  0  0
  187.4360  178.3990  138.9100 N   0  0  0  0  0  2  0  0  0  0  0  0
  189.9500  177.0030  140.8850 O   0  0  0  0  0  0  0  0  0  0  0  0
  189.4160  177.8100  141.7730 C   0  0  0  0  0  0  0  0  0  0  0  0
  186.0180  177.7240  137.0400 C   0  0  0  0  0  1  0  0  0  0  0  0
  187.4360  177.7980  137.5820 C   0  0  1  0  0  3  0  0  0  0  0  0
  189.3540  177.7880  136.1520 O   0  0  0  0  0  1  0  0  0  0  0  0
  188.3210  178.5950  136.6310 C   0  0  0  0  0  3  0  0  0  0  0  0
  188.8610  179.7130  137.2710 O   0  0  0  0  0  1  0  0  0  0  0  0
  191.3010  178.3560  143.2730 C   0  0  0  0  0  2  0  0  0  0  0  0
  191.4050  179.5280  144.0210 O   0  0  0  0  0  1  0  0  0  0  0  0
  189.6710  176.5690  143.8970 C   0  0  0  0  0  2  0  0  0  0  0  0
  188.4800  176.5980  144.7390 N   0  0  0  0  0  0  0  0  0  0  0  0
  187.3930  176.5040  143.8560 N   0  0  0  0  0  1  0  0  0  0  0  0
  185.2140  178.6040  147.0990 N   0  0  0  0  0  0  0  0  0  0  0  0
  189.2200  177.8860  146.7160 C   0  0  0  0  0  3  0  0  0  0  0  0
  188.3950  177.8970  145.4250 C   0  0  2  0  0  3  0  0  0  0  0  0
  186.0200  178.4930  144.9010 N   0  0  0  0  0  0  0  0  0  0  0  0
  188.7130  177.9800  147.9610 C   0  0  0  0  0  3  0  0  0  0  0  0
  184.8070  178.7390  145.6940 C   0  0  0  0  0  2  0  0  0  0  0  0
  186.4610  178.2970  147.0670 C   0  0  0  0  0  0  0  0  0  0  0  0
  187.3080  178.1560  148.1980 N   0  0  0  0  0  2  0  0  0  0  0  0
  186.9590  178.2360  145.7420 C   0  0  0  0  0  0  0  0  0  0  0  0
  1 13  1  6  0  0  0
  1 15  1  0  0  0  0
  2  3  2  0  0  0  0
  2  6  1  0  0  0  0
  3  4  1  0  0  0  0
  4  7  2  0  0  0  0
  5  3  1  0  0  0  0
  6  7  1  0  0  0  0
  7  1  1  0  0  0  0
  9  8  1  6  0  0  0
  9  5  1  0  0  0  0
 10 11  1  0  0  0  0
 11 12  1  0  0  0  0
 11  9  1  0  0  0  0
 13 14  1  0  0  0  0
 15 16  1  0  0  0  0
 17 16  1  0  0  0  0
 19 22  2  0  0  0  0
 20 16  1  1  0  0  0
 20 26  1  0  0  0  0
 20 19  1  0  0  0  0
 21 23  1  0  0  0  0
 21 26  2  0  0  0  0
 22 25  1  0  0  0  0
 23 18  1  0  0  0  0
 24 18  2  0  0  0  0
 24 25  1  0  0  0  0
 26 24  1  0  0  0  0
M  END
>  <MODEL>
4

>  <REMARK>
 VINA RESULT:      -7.2      3.386      5.206
  Name = 
  7 active torsions:
  status: ('A' for Active; 'I' for Inactive)
    1  A    between atoms: C_2  and  C_10
    2  A    between atoms: C_2  and  N_15
    3  A    between atoms: C_7  and  C_10
    4  A    between atoms: C_8  and  N_15
    5  A    between atoms: C_9  and  CA_26
    6  A    between atoms: C_10  and  C_25
    7  A    between atoms: N_19  and  CA_26
                            x       y       z     vdW  Elec       q    Type
                         _______ _______ _______ _____ _____    ______ ____

>  <TORSDO>
F 7

$$$$
=
 OpenBabel11062416593D

 26 28  0  0  1  0  0  0  0  0999 V2000
  190.4570  176.7090  141.0030 C   0  0  2  0  0  3  0  0  0  0  0  0
  187.9190  176.3790  143.5130 N   0  0  0  0  0  0  0  0  0  0  0  0
  187.5800  177.5680  142.9830 C   0  0  0  0  0  0  0  0  0  0  0  0
  188.4220  177.9250  141.9480 C   0  0  0  0  0  3  0  0  0  0  0  0
  186.4930  178.3690  143.4470 N   0  0  0  0  0  2  0  0  0  0  0  0
  188.9540  175.9730  142.8430 O   0  0  0  0  0  0  0  0  0  0  0  0
  189.2830  176.8430  141.9160 C   0  0  0  0  0  0  0  0  0  0  0  0
  186.4000  178.2790  145.8860 C   0  0  0  0  0  1  0  0  0  0  0  0
  185.6700  177.9820  144.5860 C   0  0  1  0  0  3  0  0  0  0  0  0
  184.4530  179.8970  143.8290 O   0  0  0  0  0  1  0  0  0  0  0  0
  184.3330  178.7130  144.5570 C   0  0  0  0  0  3  0  0  0  0  0  0
  183.8940  179.0020  145.8510 O   0  0  0  0  0  1  0  0  0  0  0  0
  191.6370  177.4970  141.5480 C   0  0  0  0  0  2  0  0  0  0  0  0
  191.8770  177.1410  142.8750 O   0  0  0  0  0  1  0  0  0  0  0  0
  190.0930  177.2020  139.6070 C   0  0  0  0  0  2  0  0  0  0  0  0
  189.7330  176.0720  138.7570 N   0  0  0  0  0  0  0  0  0  0  0  0
  190.9270  175.3650  138.5440 N   0  0  0  0  0  1  0  0  0  0  0  0
  185.6390  176.9870  137.1270 N   0  0  0  0  0  0  0  0  0  0  0  0
  189.5810  178.0580  137.2910 C   0  0  0  0  0  3  0  0  0  0  0  0
  189.2630  176.5680  137.4530 C   0  0  2  0  0  3  0  0  0  0  0  0
  187.1690  175.2150  137.2210 N   0  0  0  0  0  0  0  0  0  0  0  0
  188.6630  179.0420  137.2140 C   0  0  0  0  0  3  0  0  0  0  0  0
  185.7360  175.5220  137.1130 C   0  0  0  0  0  2  0  0  0  0  0  0
  186.8450  177.4100  137.2570 C   0  0  0  0  0  0  0  0  0  0  0  0
  187.2540  178.7690  137.2270 N   0  0  0  0  0  2  0  0  0  0  0  0
  187.7780  176.3440  137.3060 C   0  0  0  0  0  0  0  0  0  0  0  0
  1 15  1  6  0  0  0
  1 13  1  0  0  0  0
  1  7  1  0  0  0  0
  3  5  1  0  0  0  0
  3  2  2  0  0  0  0
  4  3  1  0  0  0  0
  5  9  1  0  0  0  0
  6  2  1  0  0  0  0
  7  4  2  0  0  0  0
  7  6  1  0  0  0  0
  9  8  1  1  0  0  0
 10 11  1  0  0  0  0
 11  9  1  0  0  0  0
 11 12  1  0  0  0  0
 13 14  1  0  0  0  0
 16 15  1  0  0  0  0
 17 16  1  0  0  0  0
 18 24  2  0  0  0  0
 19 20  1  0  0  0  0
 20 16  1  1  0  0  0
 21 26  2  0  0  0  0
 22 25  1  0  0  0  0
 22 19  2  0  0  0  0
 23 18  1  0  0  0  0
 23 21  1  0  0  0  0
 24 26  1  0  0  0  0
 25 24  1  0  0  0  0
 26 20  1  0  0  0  0
M  END
>  <MODEL>
5

>  <REMARK>
 VINA RESULT:      -7.1      4.095      7.601
  Name = 
  7 active torsions:
  status: ('A' for Active; 'I' for Inactive)
    1  A    between atoms: C_2  and  C_10
    2  A    between atoms: C_2  and  N_15
    3  A    between atoms: C_7  and  C_10
    4  A    between atoms: C_8  and  N_15
    5  A    between atoms: C_9  and  CA_26
    6  A    between atoms: C_10  and  C_25
    7  A    between atoms: N_19  and  CA_26
                            x       y       z     vdW  Elec       q    Type
                         _______ _______ _______ _____ _____    ______ ____

>  <TORSDO>
F 7

$$$$
=
 OpenBabel11062416593D

 26 28  0  0  1  0  0  0  0  0999 V2000
  187.5750  177.6820  146.7530 C   0  0  2  0  0  3  0  0  0  0  0  0
  185.1180  179.3180  144.7200 N   0  0  0  0  0  0  0  0  0  0  0  0
  185.4210  178.2680  143.9330 C   0  0  0  0  0  0  0  0  0  0  0  0
  186.3640  177.4470  144.5200 C   0  0  0  0  0  3  0  0  0  0  0  0
  184.8490  178.0440  142.6440 N   0  0  0  0  0  2  0  0  0  0  0  0
  185.8450  179.1850  145.7870 O   0  0  0  0  0  0  0  0  0  0  0  0
  186.5870  178.1040  145.7160 C   0  0  0  0  0  0  0  0  0  0  0  0
  184.1170  179.0310  140.5340 C   0  0  0  0  0  1  0  0  0  0  0  0
  183.9040  178.9740  142.0380 C   0  0  1  0  0  3  0  0  0  0  0  0
  181.6770  178.6990  141.2100 O   0  0  0  0  0  1  0  0  0  0  0  0
  182.4700  178.5630  142.3500 C   0  0  0  0  0  3  0  0  0  0  0  0
  181.9410  179.3420  143.3820 O   0  0  0  0  0  1  0  0  0  0  0  0
  187.3430  178.4560  148.0410 C   0  0  0  0  0  2  0  0  0  0  0  0
  188.1480  177.9440  149.0580 O   0  0  0  0  0  1  0  0  0  0  0  0
  188.9950  177.9140  146.2490 C   0  0  0  0  0  2  0  0  0  0  0  0
  189.6850  176.6370  146.0980 N   0  0  0  0  0  0  0  0  0  0  0  0
  190.4370  176.4750  147.2730 N   0  0  0  0  0  1  0  0  0  0  0  0
  189.2530  178.0880  141.8590 N   0  0  0  0  0  0  0  0  0  0  0  0
  191.6320  177.8500  145.1760 C   0  0  0  0  0  3  0  0  0  0  0  0
  190.6240  176.7160  144.9670 C   0  0  2  0  0  3  0  0  0  0  0  0
  189.0760  176.1050  143.0960 N   0  0  0  0  0  0  0  0  0  0  0  0
  191.7150  178.9620  144.4190 C   0  0  0  0  0  3  0  0  0  0  0  0
  188.5890  176.7780  141.8840 C   0  0  0  0  0  2  0  0  0  0  0  0
  189.9710  178.1280  142.9230 C   0  0  0  0  0  0  0  0  0  0  0  0
  190.8680  179.1710  143.2790 N   0  0  0  0  0  2  0  0  0  0  0  0
  189.8770  176.9290  143.6740 C   0  0  0  0  0  0  0  0  0  0  0  0
  1 15  1  6  0  0  0
  1 13  1  0  0  0  0
  2  6  1  0  0  0  0
  3  4  1  0  0  0  0
  3  2  2  0  0  0  0
  4  7  2  0  0  0  0
  5  3  1  0  0  0  0
  7  6  1  0  0  0  0
  7  1  1  0  0  0  0
  9  8  1  6  0  0  0
  9 11  1  0  0  0  0
  9  5  1  0  0  0  0
 10 11  1  0  0  0  0
 11 12  1  0  0  0  0
 13 14  1  0  0  0  0
 16 15  1  0  0  0  0
 16 17  1  0  0  0  0
 18 23  1  0  0  0  0
 18 24  2  0  0  0  0
 20 19  1  0  0  0  0
 20 16  1  1  0  0  0
 21 26  2  0  0  0  0
 22 19  2  0  0  0  0
 23 21  1  0  0  0  0
 24 25  1  0  0  0  0
 24 26  1  0  0  0  0
 25 22  1  0  0  0  0
 26 20  1  0  0  0  0
M  END
>  <MODEL>
6

>  <REMARK>
 VINA RESULT:      -6.9      2.191      3.258
  Name = 
  7 active torsions:
  status: ('A' for Active; 'I' for Inactive)
    1  A    between atoms: C_2  and  C_10
    2  A    between atoms: C_2  and  N_15
    3  A    between atoms: C_7  and  C_10
    4  A    between atoms: C_8  and  N_15
    5  A    between atoms: C_9  and  CA_26
    6  A    between atoms: C_10  and  C_25
    7  A    between atoms: N_19  and  CA_26
                            x       y       z     vdW  Elec       q    Type
                         _______ _______ _______ _____ _____    ______ ____

>  <TORSDO>
F 7

$$$$
=
 OpenBabel11062416593D

 26 28  0  0  1  0  0  0  0  0999 V2000
  189.8430  177.1170  140.8940 C   0  0  2  0  0  3  0  0  0  0  0  0
  191.5180  175.4850  138.1780 N   0  0  0  0  0  0  0  0  0  0  0  0
  192.3980  176.4670  138.4480 C   0  0  0  0  0  0  0  0  0  0  0  0
  191.9790  177.2520  139.5040 C   0  0  0  0  0  3  0  0  0  0  0  0
  193.6080  176.6790  137.7190 N   0  0  0  0  0  2  0  0  0  0  0  0
  190.5520  175.6280  139.0320 O   0  0  0  0  0  0  0  0  0  0  0  0
  190.7790  176.6460  139.8300 C   0  0  0  0  0  0  0  0  0  0  0  0
  194.4350  176.7510  135.4220 C   0  0  0  0  0  1  0  0  0  0  0  0
  193.9780  175.8640  136.5690 C   0  0  1  0  0  3  0  0  0  0  0  0
  195.2730  174.8780  138.3230 O   0  0  0  0  0  1  0  0  0  0  0  0
  195.0800  174.8780  136.9410 C   0  0  0  0  0  3  0  0  0  0  0  0
  196.2780  175.2040  136.3010 O   0  0  0  0  0  1  0  0  0  0  0  0
  189.0040  178.2750  140.3770 C   0  0  0  0  0  2  0  0  0  0  0  0
  188.1780  177.8410  139.3400 O   0  0  0  0  0  1  0  0  0  0  0  0
  190.6270  177.5440  142.1290 C   0  0  0  0  0  2  0  0  0  0  0  0
  189.7260  178.1440  143.1090 N   0  0  0  0  0  0  0  0  0  0  0  0
  190.5340  178.9700  143.9070 N   0  0  0  0  0  1  0  0  0  0  0  0
  190.5490  176.9000  147.3560 N   0  0  0  0  0  0  0  0  0  0  0  0
  187.7500  177.4600  144.4280 C   0  0  0  0  0  3  0  0  0  0  0  0
  189.1650  177.0910  143.9700 C   0  0  2  0  0  3  0  0  0  0  0  0
  191.2410  176.3840  145.1770 N   0  0  0  0  0  0  0  0  0  0  0  0
  187.3920  177.7220  145.7010 C   0  0  0  0  0  3  0  0  0  0  0  0
  191.6810  176.3780  146.5790 C   0  0  0  0  0  2  0  0  0  0  0  0
  189.6400  177.1790  146.4920 C   0  0  0  0  0  0  0  0  0  0  0  0
  188.3260  177.6280  146.7880 N   0  0  0  0  0  2  0  0  0  0  0  0
  190.0470  176.8630  145.1720 C   0  0  0  0  0  0  0  0  0  0  0  0
  1 13  1  6  0  0  0
  1 15  1  0  0  0  0
  2  3  2  0  0  0  0
  2  6  1  0  0  0  0
  3  4  1  0  0  0  0
  4  7  2  0  0  0  0
  5  3  1  0  0  0  0
  6  7  1  0  0  0  0
  7  1  1  0  0  0  0
  9  8  1  6  0  0  0
  9 11  1  0  0  0  0
  9  5  1  0  0  0  0
 11 10  1  0  0  0  0
 12 11  1  0  0  0  0
 14 13  1  0  0  0  0
 15 16  1  0  0  0  0
 16 17  1  0  0  0  0
 19 22  2  0  0  0  0
 20 16  1  6  0  0  0
 20 19  1  0  0  0  0
 20 26  1  0  0  0  0
 21 23  1  0  0  0  0
 22 25  1  0  0  0  0
 23 18  1  0  0  0  0
 24 25  1  0  0  0  0
 24 18  2  0  0  0  0
 26 21  2  0  0  0  0
 26 24  1  0  0  0  0
M  END
>  <MODEL>
7

>  <REMARK>
 VINA RESULT:      -6.9      5.306      7.581
  Name = 
  7 active torsions:
  status: ('A' for Active; 'I' for Inactive)
    1  A    between atoms: C_2  and  C_10
    2  A    between atoms: C_2  and  N_15
    3  A    between atoms: C_7  and  C_10
    4  A    between atoms: C_8  and  N_15
    5  A    between atoms: C_9  and  CA_26
    6  A    between atoms: C_10  and  C_25
    7  A    between atoms: N_19  and  CA_26
                            x       y       z     vdW  Elec       q    Type
                         _______ _______ _______ _____ _____    ______ ____

>  <TORSDO>
F 7

$$$$
=
 OpenBabel11062416593D

 26 28  0  0  1  0  0  0  0  0999 V2000
  185.6370  177.9140  145.4100 C   0  0  2  0  0  3  0  0  0  0  0  0
  183.8660  178.5060  142.3500 N   0  0  0  0  0  0  0  0  0  0  0  0
  182.9020  178.7930  143.2450 C   0  0  0  0  0  0  0  0  0  0  0  0
  183.3530  178.6550  144.5430 C   0  0  0  0  0  3  0  0  0  0  0  0
  181.5730  179.1760  142.8920 N   0  0  0  0  0  2  0  0  0  0  0  0
  184.9140  178.1880  143.0460 O   0  0  0  0  0  0  0  0  0  0  0  0
  184.6630  178.2630  144.3320 C   0  0  0  0  0  0  0  0  0  0  0  0
  180.7250  177.8630  141.0150 C   0  0  0  0  0  1  0  0  0  0  0  0
  181.1230  179.2450  141.5070 C   0  0  1  0  0  3  0  0  0  0  0  0
  180.1410  181.0390  140.2650 O   0  0  0  0  0  1  0  0  0  0  0  0
  179.9500  180.2090  141.3710 C   0  0  0  0  0  3  0  0  0  0  0  0
  179.8080  180.9890  142.5210 O   0  0  0  0  0  1  0  0  0  0  0  0
  185.1140  178.3840  146.7580 C   0  0  0  0  0  2  0  0  0  0  0  0
  185.6810  179.6150  147.0880 O   0  0  0  0  0  1  0  0  0  0  0  0
  186.9910  178.5500  145.1190 C   0  0  0  0  0  2  0  0  0  0  0  0
  188.0490  177.5540  145.2480 N   0  0  0  0  0  0  0  0  0  0  0  0
  188.5090  177.6630  146.5700 N   0  0  0  0  0  1  0  0  0  0  0  0
  191.7870  175.3660  144.0240 N   0  0  0  0  0  0  0  0  0  0  0  0
  188.7230  177.8210  142.8840 C   0  0  0  0  0  3  0  0  0  0  0  0
  189.1620  177.9000  144.3500 C   0  0  2  0  0  3  0  0  0  0  0  0
  191.0650  176.9040  145.6380 N   0  0  0  0  0  0  0  0  0  0  0  0
  189.1890  176.9340  141.9830 C   0  0  0  0  0  3  0  0  0  0  0  0
  192.0560  175.8490  145.3840 C   0  0  0  0  0  2  0  0  0  0  0  0
  190.7740  176.0410  143.6150 C   0  0  0  0  0  0  0  0  0  0  0  0
  190.2100  175.9800  142.3120 N   0  0  0  0  0  2  0  0  0  0  0  0
  190.3350  176.9790  144.5810 C   0  0  0  0  0  0  0  0  0  0  0  0
  1 15  1  6  0  0  0
  1 13  1  0  0  0  0
  2  6  1  0  0  0  0
  2  3  2  0  0  0  0
  3  4  1  0  0  0  0
  5  3  1  0  0  0  0
  6  7  1  0  0  0  0
  7  4  2  0  0  0  0
  7  1  1  0  0  0  0
  9  8  1  1  0  0  0
  9  5  1  0  0  0  0
 10 11  1  0  0  0  0
 11  9  1  0  0  0  0
 11 12  1  0  0  0  0
 13 14  1  0  0  0  0
 15 16  1  0  0  0  0
 16 17  1  0  0  0  0
 18 23  1  0  0  0  0
 19 20  1  0  0  0  0
 20 26  1  0  0  0  0
 20 16  1  1  0  0  0
 22 25  1  0  0  0  0
 22 19  2  0  0  0  0
 23 21  1  0  0  0  0
 24 18  2  0  0  0  0
 24 26  1  0  0  0  0
 25 24  1  0  0  0  0
 26 21  2  0  0  0  0
M  END
>  <MODEL>
8

>  <REMARK>
 VINA RESULT:      -6.9      2.095      2.390
  Name = 
  7 active torsions:
  status: ('A' for Active; 'I' for Inactive)
    1  A    between atoms: C_2  and  C_10
    2  A    between atoms: C_2  and  N_15
    3  A    between atoms: C_7  and  C_10
    4  A    between atoms: C_8  and  N_15
    5  A    between atoms: C_9  and  CA_26
    6  A    between atoms: C_10  and  C_25
    7  A    between atoms: N_19  and  CA_26
                            x       y       z     vdW  Elec       q    Type
                         _______ _______ _______ _____ _____    ______ ____

>  <TORSDO>
F 7

$$$$
=
 OpenBabel11062416593D

 26 28  0  0  1  0  0  0  0  0999 V2000
  188.0750  178.5120  141.1560 C   0  0  2  0  0  3  0  0  0  0  0  0
  190.1610  178.6070  144.0690 N   0  0  0  0  0  0  0  0  0  0  0  0
  189.2320  177.7190  144.4680 C   0  0  0  0  0  0  0  0  0  0  0  0
  188.2920  177.4870  143.4830 C   0  0  0  0  0  3  0  0  0  0  0  0
  189.2130  177.1060  145.7580 N   0  0  0  0  0  2  0  0  0  0  0  0
  189.8340  178.9460  142.8600 O   0  0  0  0  0  0  0  0  0  0  0  0
  188.7490  178.3150  142.4740 C   0  0  0  0  0  0  0  0  0  0  0  0
  189.4910  177.6790  148.1150 C   0  0  0  0  0  1  0  0  0  0  0  0
  190.1910  177.4310  146.7890 C   0  0  1  0  0  3  0  0  0  0  0  0
  192.1320  176.6270  147.9340 O   0  0  0  0  0  1  0  0  0  0  0  0
  191.2110  176.3070  146.9360 C   0  0  0  0  0  3  0  0  0  0  0  0
  191.8840  176.0840  145.7330 O   0  0  0  0  0  1  0  0  0  0  0  0
  186.5660  178.4270  141.3230 C   0  0  0  0  0  2  0  0  0  0  0  0
  186.0190  179.7090  141.3770 O   0  0  0  0  0  1  0  0  0  0  0  0
  188.5540  177.4630  140.1600 C   0  0  0  0  0  2  0  0  0  0  0  0
  189.8510  177.8490  139.6140 N   0  0  0  0  0  0  0  0  0  0  0  0
  189.6760  177.8940  138.2220 N   0  0  0  0  0  1  0  0  0  0  0  0
  192.4740  175.2850  137.0050 N   0  0  0  0  0  0  0  0  0  0  0  0
  192.1270  177.4150  140.4770 C   0  0  0  0  0  3  0  0  0  0  0  0
  190.8420  176.8030  139.9120 C   0  0  2  0  0  3  0  0  0  0  0  0
  190.3650  175.2250  138.0270 N   0  0  0  0  0  0  0  0  0  0  0  0
  193.3270  177.4010  139.8630 C   0  0  0  0  0  3  0  0  0  0  0  0
  191.1310  174.7010  136.8870 C   0  0  0  0  0  2  0  0  0  0  0  0
  192.4290  176.0410  138.0420 C   0  0  0  0  0  0  0  0  0  0  0  0
  193.5280  176.7440  138.6030 N   0  0  0  0  0  2  0  0  0  0  0  0
  191.1600  176.0050  138.6710 C   0  0  0  0  0  0  0  0  0  0  0  0
  1 15  1  6  0  0  0
  1 13  1  0  0  0  0
  1  7  1  0  0  0  0
  2  3  2  0  0  0  0
  3  5  1  0  0  0  0
  4  3  1  0  0  0  0
  5  9  1  0  0  0  0
  6  2  1  0  0  0  0
  7  6  1  0  0  0  0
  7  4  2  0  0  0  0
  9 11  1  0  0  0  0
  9  8  1  1  0  0  0
 11 10  1  0  0  0  0
 12 11  1  0  0  0  0
 13 14  1  0  0  0  0
 16 15  1  0  0  0  0
 17 16  1  0  0  0  0
 18 24  2  0  0  0  0
 20 16  1  6  0  0  0
 20 19  1  0  0  0  0
 21 26  2  0  0  0  0
 22 19  2  0  0  0  0
 23 18  1  0  0  0  0
 23 21  1  0  0  0  0
 24 25  1  0  0  0  0
 24 26  1  0  0  0  0
 25 22  1  0  0  0  0
 26 20  1  0  0  0  0
M  END
>  <MODEL>
9

>  <REMARK>
 VINA RESULT:      -6.8      4.441      7.808
  Name = 
  7 active torsions:
  status: ('A' for Active; 'I' for Inactive)
    1  A    between atoms: C_2  and  C_10
    2  A    between atoms: C_2  and  N_15
    3  A    between atoms: C_7  and  C_10
    4  A    between atoms: C_8  and  N_15
    5  A    between atoms: C_9  and  CA_26
    6  A    between atoms: C_10  and  C_25
    7  A    between atoms: N_19  and  CA_26
                            x       y       z     vdW  Elec       q    Type
                         _______ _______ _______ _____ _____    ______ ____

>  <TORSDO>
F 7

$$$$
