=
 OpenBabel11062414373D

 38 43  0  0  1  0  0  0  0  0999 V2000
  189.4200  173.7920  136.9130 C   0  0  1  0  0  3  0  0  0  0  0  0
  188.4750  175.9770  137.6040 C   0  0  0  0  0  2  0  0  0  0  0  0
  191.4880  174.6210  137.0570 C   0  0  2  0  0  3  0  0  0  0  0  0
  189.2610  175.2480  136.5330 C   0  0  1  0  0  3  0  0  0  0  0  0
  189.4310  176.5980  138.5110 N   0  0  1  0  0  0  0  0  0  0  0  0
  188.5860  172.9260  135.9910 C   0  0  0  0  0  1  0  0  0  0  0  0
  190.6100  176.8510  137.6950 C   0  0  0  0  0  2  0  0  0  0  0  0
  190.7730  173.4390  136.7950 O   0  0  0  0  0  0  0  0  0  0  0  0
  190.6480  175.8000  136.6060 C   0  0  1  0  0  3  0  0  0  0  0  0
  194.7170  175.9630  135.1750 C   0  0  2  0  0  3  0  0  0  0  0  0
  195.3390  173.9300  136.7320 C   0  0  1  0  0  3  0  0  0  0  0  0
  195.3190  177.3570  135.1320 C   0  0  0  0  0  1  0  0  0  0  0  0
  192.8640  174.6380  136.3780 C   0  0  2  0  0  0  0  0  0  0  0  0
  193.8440  173.5680  136.8510 C   0  0  1  0  0  3  0  0  0  0  0  0
  193.4550  176.0100  136.0300 C   0  0  0  0  0  2  0  0  0  0  0  0
  195.7160  174.9660  135.6980 C   0  0  0  0  0  0  0  0  0  0  0  0
  193.1780  173.4540  135.4760 C   0  0  0  0  0  2  0  0  0  0  0  0
  196.8470  174.9490  135.2370 O   0  0  0  0  0  0  0  0  0  0  0  0
  195.9410  174.2530  138.0940 C   0  0  0  0  0  2  0  0  0  0  0  0
  195.4680  173.3700  139.0680 O   0  0  0  0  0  1  0  0  0  0  0  0
  187.9400  177.7170  139.9310 O   0  0  0  0  0  0  0  0  0  0  0  0
  189.1770  178.2610  140.3250 C   0  0  2  0  0  3  0  0  0  0  0  0
  188.8860  177.8940  138.9020 C   0  0  1  0  0  3  0  0  0  0  0  0
  190.9920  177.1570  143.3190 C   0  0  2  0  0  3  0  0  0  0  0  0
  189.9630  177.2200  141.1200 C   0  0  2  0  0  3  0  0  0  0  0  0
  191.9800  177.4920  142.2560 C   0  0  0  0  0  2  0  0  0  0  0  0
  191.3040  175.4740  143.8490 Cl  0  0  0  0  0  0  0  0  0  0  0  0
  189.6470  177.3340  142.6020 C   0  0  1  0  0  3  0  0  0  0  0  0
  191.4200  177.5210  141.0550 C   0  0  0  0  0  2  0  0  0  0  0  0
  188.5530  176.3550  143.0280 C   0  0  0  0  0  2  0  0  0  0  0  0
  187.4680  177.0300  143.8640 C   0  0  2  0  0  3  0  0  0  0  0  0
  186.7040  177.8850  143.0680 O   0  0  0  0  0  1  0  0  0  0  0  0
  188.0400  177.8000  145.0500 C   0  0  0  0  0  2  0  0  0  0  0  0
  187.4910  177.3020  146.3110 N   0  0  0  0  0  0  0  0  0  0  0  0
  186.5060  178.2580  146.8000 C   0  0  0  0  0  1  0  0  0  0  0  0
  188.5490  177.1620  147.3240 C   0  0  2  0  0  3  0  0  0  0  0  0
  188.4620  178.1920  148.4510 C   0  0  0  0  0  1  0  0  0  0  0  0
  189.8070  177.2230  146.7210 O   0  0  0  0  0  1  0  0  0  0  0  0
  1  6  1  6  0  0  0
  3  8  1  6  0  0  0
  4  9  1  0  0  0  0
  4  1  1  0  0  0  0
  4  2  1  1  0  0  0
  5  2  1  6  0  0  0
  5 23  1  0  0  0  0
  7  5  1  0  0  0  0
  8  1  1  0  0  0  0
  9  3  1  0  0  0  0
  9  7  1  1  0  0  0
 10 12  1  1  0  0  0
 10 16  1  0  0  0  0
 10 15  1  0  0  0  0
 11 14  1  0  0  0  0
 11 19  1  1  0  0  0
 13 17  1  6  0  0  0
 13 14  1  0  0  0  0
 13  3  1  0  0  0  0
 14 17  1  6  0  0  0
 15 13  1  0  0  0  0
 16 11  1  0  0  0  0
 18 16  2  0  0  0  0
 19 20  1  0  0  0  0
 22 21  1  1  0  0  0
 22 25  1  0  0  0  0
 23 21  1  1  0  0  0
 23 22  1  0  0  0  0
 24 27  1  6  0  0  0
 25 29  1  1  0  0  0
 25 28  1  0  0  0  0
 26 24  1  0  0  0  0
 28 30  1  1  0  0  0
 28 24  1  0  0  0  0
 29 26  1  0  0  0  0
 30 31  1  0  0  0  0
 31 32  1  6  0  0  0
 31 33  1  0  0  0  0
 33 34  1  0  0  0  0
 34 35  1  0  0  0  0
 34 36  1  0  0  0  0
 36 37  1  1  0  0  0
 38 36  1  0  0  0  0
M  END
>  <MODEL>
1

>  <REMARK>
 VINA RESULT:      -7.9      0.000      0.000
  Name = 
  9 active torsions:
  status: ('A' for Active; 'I' for Inactive)
    1  A    between atoms: C_5  and  C_24
    2  A    between atoms: C_6  and  C_8
    3  A    between atoms: C_6  and  C_14
    4  A    between atoms: C_8  and  C_32
    5  A    between atoms: N_9  and  C_36
    6  A    between atoms: C_11  and  C_21
    7  A    between atoms: C_14  and  N_23
    8  A    between atoms: C_15  and  N_23
    9  A    between atoms: C_16  and  C_17
                            x       y       z     vdW  Elec       q    Type
                         _______ _______ _______ _____ _____    ______ ____

>  <TORSDO>
F 9

$$$$
=
 OpenBabel11062414373D

 38 43  0  0  1  0  0  0  0  0999 V2000
  189.1050  173.8580  137.0470 C   0  0  1  0  0  3  0  0  0  0  0  0
  188.2480  176.0880  137.7100 C   0  0  0  0  0  2  0  0  0  0  0  0
  191.2030  174.6160  137.1450 C   0  0  2  0  0  3  0  0  0  0  0  0
  188.9920  175.3120  136.6410 C   0  0  1  0  0  3  0  0  0  0  0  0
  189.2400  176.6920  138.5900 N   0  0  1  0  0  0  0  0  0  0  0  0
  188.2260  173.0050  136.1550 C   0  0  0  0  0  1  0  0  0  0  0  0
  190.4140  176.8870  137.7520 C   0  0  0  0  0  2  0  0  0  0  0  0
  190.4420  173.4550  136.9160 O   0  0  0  0  0  0  0  0  0  0  0  0
  190.3980  175.8150  136.6840 C   0  0  1  0  0  3  0  0  0  0  0  0
  194.4400  175.8020  135.1750 C   0  0  2  0  0  3  0  0  0  0  0  0
  195.0260  173.8010  136.7850 C   0  0  1  0  0  3  0  0  0  0  0  0
  195.0810  177.1750  135.0790 C   0  0  0  0  0  1  0  0  0  0  0  0
  192.5680  174.5710  136.4450 C   0  0  2  0  0  0  0  0  0  0  0  0
  193.5230  173.4870  136.9370 C   0  0  1  0  0  3  0  0  0  0  0  0
  193.1940  175.9130  136.0460 C   0  0  0  0  0  2  0  0  0  0  0  0
  195.4180  174.7920  135.7140 C   0  0  0  0  0  0  0  0  0  0  0  0
  192.8330  173.3510  135.5760 C   0  0  0  0  0  2  0  0  0  0  0  0
  196.5390  174.7280  135.2370 O   0  0  0  0  0  0  0  0  0  0  0  0
  195.6580  174.1490  138.1280 C   0  0  0  0  0  2  0  0  0  0  0  0
  195.4500  173.1240  139.0540 O   0  0  0  0  0  1  0  0  0  0  0  0
  187.8290  177.8920  140.0270 O   0  0  0  0  0  0  0  0  0  0  0  0
  189.0940  178.4060  140.3680 C   0  0  2  0  0  3  0  0  0  0  0  0
  188.7470  178.0130  138.9650 C   0  0  1  0  0  3  0  0  0  0  0  0
  191.1590  177.3810  143.2250 C   0  0  2  0  0  3  0  0  0  0  0  0
  189.8730  177.3610  141.1650 C   0  0  2  0  0  3  0  0  0  0  0  0
  192.0320  177.5180  142.0270 C   0  0  0  0  0  2  0  0  0  0  0  0
  191.3760  175.7270  143.8780 Cl  0  0  0  0  0  0  0  0  0  0  0  0
  189.7580  177.6360  142.6550 C   0  0  1  0  0  3  0  0  0  0  0  0
  191.3310  177.5010  140.9020 C   0  0  0  0  0  2  0  0  0  0  0  0
  188.6390  176.8170  143.3000 C   0  0  0  0  0  2  0  0  0  0  0  0
  188.0430  177.5160  144.5210 C   0  0  2  0  0  3  0  0  0  0  0  0
  188.6210  177.0230  145.6920 O   0  0  0  0  0  1  0  0  0  0  0  0
  186.5270  177.3740  144.5920 C   0  0  0  0  0  2  0  0  0  0  0  0
  185.9080  178.6080  145.0800 N   0  0  0  0  0  0  0  0  0  0  0  0
  185.4170  178.3780  146.4320 C   0  0  0  0  0  1  0  0  0  0  0  0
  184.7710  178.9940  144.2290 C   0  0  2  0  0  3  0  0  0  0  0  0
  183.4200  178.9410  144.9450 C   0  0  0  0  0  1  0  0  0  0  0  0
  184.7330  178.2000  143.0820 O   0  0  0  0  0  1  0  0  0  0  0  0
  1  6  1  6  0  0  0
  3  8  1  6  0  0  0
  4  9  1  0  0  0  0
  4  1  1  0  0  0  0
  4  2  1  1  0  0  0
  5  2  1  6  0  0  0
  5 23  1  0  0  0  0
  7  5  1  0  0  0  0
  8  1  1  0  0  0  0
  9  3  1  0  0  0  0
  9  7  1  1  0  0  0
 10 12  1  1  0  0  0
 10 16  1  0  0  0  0
 10 15  1  0  0  0  0
 11 14  1  0  0  0  0
 11 19  1  1  0  0  0
 13 17  1  6  0  0  0
 13 14  1  0  0  0  0
 13  3  1  0  0  0  0
 14 17  1  6  0  0  0
 15 13  1  0  0  0  0
 16 11  1  0  0  0  0
 18 16  2  0  0  0  0
 19 20  1  0  0  0  0
 22 21  1  1  0  0  0
 22 25  1  0  0  0  0
 23 21  1  1  0  0  0
 23 22  1  0  0  0  0
 24 27  1  6  0  0  0
 25 29  1  6  0  0  0
 25 28  1  0  0  0  0
 26 24  1  0  0  0  0
 28 24  1  0  0  0  0
 28 30  1  1  0  0  0
 29 26  1  0  0  0  0
 30 31  1  0  0  0  0
 31 33  1  0  0  0  0
 31 32  1  1  0  0  0
 33 34  1  0  0  0  0
 34 35  1  0  0  0  0
 36 37  1  1  0  0  0
 36 34  1  0  0  0  0
 38 36  1  0  0  0  0
M  END
>  <MODEL>
2

>  <REMARK>
 VINA RESULT:      -7.5      1.049      1.851
  Name = 
  9 active torsions:
  status: ('A' for Active; 'I' for Inactive)
    1  A    between atoms: C_5  and  C_24
    2  A    between atoms: C_6  and  C_8
    3  A    between atoms: C_6  and  C_14
    4  A    between atoms: C_8  and  C_32
    5  A    between atoms: N_9  and  C_36
    6  A    between atoms: C_11  and  C_21
    7  A    between atoms: C_14  and  N_23
    8  A    between atoms: C_15  and  N_23
    9  A    between atoms: C_16  and  C_17
                            x       y       z     vdW  Elec       q    Type
                         _______ _______ _______ _____ _____    ______ ____

>  <TORSDO>
F 9

$$$$
=
 OpenBabel11062414373D

 38 43  0  0  1  0  0  0  0  0999 V2000
  189.0130  177.0090  140.3140 C   0  0  1  0  0  3  0  0  0  0  0  0
  187.1900  178.5560  139.6570 C   0  0  0  0  0  2  0  0  0  0  0  0
  188.5630  177.3660  142.4710 C   0  0  2  0  0  3  0  0  0  0  0  0
  188.5300  178.4430  140.3580 C   0  0  1  0  0  3  0  0  0  0  0  0
  186.1500  178.4580  140.6720 N   0  0  1  0  0  0  0  0  0  0  0  0
  190.2060  176.8970  139.3870 C   0  0  0  0  0  1  0  0  0  0  0  0
  186.7640  178.9720  141.8890 C   0  0  0  0  0  2  0  0  0  0  0  0
  189.3830  176.6170  141.6090 O   0  0  0  0  0  0  0  0  0  0  0  0
  188.2490  178.6910  141.8050 C   0  0  1  0  0  3  0  0  0  0  0  0
  188.9870  177.5460  146.4150 C   0  0  2  0  0  3  0  0  0  0  0  0
  191.2850  176.9540  145.2690 C   0  0  1  0  0  3  0  0  0  0  0  0
  188.2470  176.8080  147.5160 C   0  0  0  0  0  1  0  0  0  0  0  0
  189.2030  177.5840  143.8490 C   0  0  2  0  0  0  0  0  0  0  0  0
  190.7170  177.4010  143.9060 C   0  0  1  0  0  3  0  0  0  0  0  0
  188.4040  177.1190  145.0730 C   0  0  0  0  0  2  0  0  0  0  0  0
  190.4680  177.2820  146.4970 C   0  0  0  0  0  0  0  0  0  0  0  0
  190.1040  178.8030  143.9800 C   0  0  0  0  0  2  0  0  0  0  0  0
  191.0400  177.3920  147.5700 O   0  0  0  0  0  0  0  0  0  0  0  0
  191.6950  175.4860  145.2450 C   0  0  0  0  0  2  0  0  0  0  0  0
  192.0450  175.0900  143.9520 O   0  0  0  0  0  1  0  0  0  0  0  0
  184.9540  179.4130  138.8970 O   0  0  0  0  0  0  0  0  0  0  0  0
  183.9410  178.7260  139.5910 C   0  0  2  0  0  3  0  0  0  0  0  0
  185.0850  179.3840  140.2990 C   0  0  1  0  0  3  0  0  0  0  0  0
  183.2150  175.6370  137.7450 C   0  0  2  0  0  3  0  0  0  0  0  0
  184.0920  177.2240  139.3620 C   0  0  2  0  0  3  0  0  0  0  0  0
  182.4170  175.6430  139.0020 C   0  0  0  0  0  2  0  0  0  0  0  0
  184.1840  174.1290  137.7160 Cl  0  0  0  0  0  0  0  0  0  0  0  0
  184.0650  176.9080  137.8750 C   0  0  1  0  0  3  0  0  0  0  0  0
  182.8990  176.5050  139.8870 C   0  0  0  0  0  2  0  0  0  0  0  0
  185.4740  176.8070  137.2900 C   0  0  0  0  0  2  0  0  0  0  0  0
  185.5070  177.1630  135.8050 C   0  0  2  0  0  3  0  0  0  0  0  0
  185.2090  176.0400  135.0300 O   0  0  0  0  0  1  0  0  0  0  0  0
  186.8480  177.7470  135.3750 C   0  0  0  0  0  2  0  0  0  0  0  0
  187.9160  177.3330  136.2870 N   0  0  0  0  0  0  0  0  0  0  0  0
  188.8270  178.4550  136.4740 C   0  0  0  0  0  1  0  0  0  0  0  0
  188.6740  176.2040  135.7260 C   0  0  2  0  0  3  0  0  0  0  0  0
  188.6000  174.9320  136.5720 C   0  0  0  0  0  1  0  0  0  0  0  0
  190.0070  176.5660  135.5280 O   0  0  0  0  0  1  0  0  0  0  0  0
  1  6  1  6  0  0  0
  1  4  1  0  0  0  0
  1  8  1  0  0  0  0
  3  8  1  6  0  0  0
  3 13  1  0  0  0  0
  4  2  1  6  0  0  0
  4  9  1  0  0  0  0
  5  2  1  6  0  0  0
  5  7  1  0  0  0  0
  9  7  1  6  0  0  0
  9  3  1  0  0  0  0
 10 16  1  0  0  0  0
 10 12  1  1  0  0  0
 11 19  1  6  0  0  0
 11 16  1  0  0  0  0
 13 14  1  0  0  0  0
 13 17  1  1  0  0  0
 13 15  1  0  0  0  0
 14 17  1  1  0  0  0
 14 11  1  0  0  0  0
 15 10  1  0  0  0  0
 16 18  2  0  0  0  0
 20 19  1  0  0  0  0
 22 21  1  6  0  0  0
 22 23  1  0  0  0  0
 23 21  1  6  0  0  0
 23  5  1  0  0  0  0
 24 27  1  1  0  0  0
 24 28  1  0  0  0  0
 24 26  1  0  0  0  0
 25 22  1  0  0  0  0
 25 29  1  1  0  0  0
 26 29  1  0  0  0  0
 28 30  1  1  0  0  0
 28 25  1  0  0  0  0
 31 32  1  6  0  0  0
 31 30  1  0  0  0  0
 33 31  1  0  0  0  0
 33 34  1  0  0  0  0
 34 35  1  0  0  0  0
 36 34  1  0  0  0  0
 36 37  1  1  0  0  0
 38 36  1  0  0  0  0
M  END
>  <MODEL>
3

>  <REMARK>
 VINA RESULT:      -7.4      4.018      8.841
  Name = 
  9 active torsions:
  status: ('A' for Active; 'I' for Inactive)
    1  A    between atoms: C_5  and  C_24
    2  A    between atoms: C_6  and  C_8
    3  A    between atoms: C_6  and  C_14
    4  A    between atoms: C_8  and  C_32
    5  A    between atoms: N_9  and  C_36
    6  A    between atoms: C_11  and  C_21
    7  A    between atoms: C_14  and  N_23
    8  A    between atoms: C_15  and  N_23
    9  A    between atoms: C_16  and  C_17
                            x       y       z     vdW  Elec       q    Type
                         _______ _______ _______ _____ _____    ______ ____

>  <TORSDO>
F 9

$$$$
=
 OpenBabel11062414373D

 38 43  0  0  1  0  0  0  0  0999 V2000
  190.5050  176.2810  142.5340 C   0  0  1  0  0  3  0  0  0  0  0  0
  190.4830  177.6960  140.4990 C   0  0  0  0  0  2  0  0  0  0  0  0
  188.3690  176.7910  142.9340 C   0  0  2  0  0  3  0  0  0  0  0  0
  190.3590  177.6930  142.0090 C   0  0  1  0  0  3  0  0  0  0  0  0
  189.1370  177.6400  139.9430 N   0  0  1  0  0  0  0  0  0  0  0  0
  191.8180  176.1420  143.2780 C   0  0  0  0  0  1  0  0  0  0  0  0
  188.2920  178.2730  140.9460 C   0  0  0  0  0  2  0  0  0  0  0  0
  189.4390  176.0080  143.4030 O   0  0  0  0  0  0  0  0  0  0  0  0
  188.9350  178.0450  142.2970 C   0  0  1  0  0  3  0  0  0  0  0  0
  186.9320  178.0170  146.4270 C   0  0  2  0  0  3  0  0  0  0  0  0
  185.2030  178.5060  144.4990 C   0  0  1  0  0  3  0  0  0  0  0  0
  187.5220  178.9710  147.4500 C   0  0  0  0  0  1  0  0  0  0  0  0
  187.3690  177.1440  144.0430 C   0  0  2  0  0  0  0  0  0  0  0  0
  185.9770  177.5490  143.5670 C   0  0  1  0  0  3  0  0  0  0  0  0
  187.9190  177.8770  145.2730 C   0  0  0  0  0  2  0  0  0  0  0  0
  185.5840  178.5000  145.9610 C   0  0  0  0  0  0  0  0  0  0  0  0
  186.2040  176.1830  144.2220 C   0  0  0  0  0  2  0  0  0  0  0  0
  184.7500  178.8410  146.7850 O   0  0  0  0  0  0  0  0  0  0  0  0
  185.1700  179.9220  143.9350 C   0  0  0  0  0  2  0  0  0  0  0  0
  185.3400  179.9070  142.5480 O   0  0  0  0  0  1  0  0  0  0  0  0
  189.9700  177.9500  137.7750 O   0  0  0  0  0  0  0  0  0  0  0  0
  188.5910  177.8000  137.5360 C   0  0  2  0  0  3  0  0  0  0  0  0
  189.1160  178.4900  138.7570 C   0  0  1  0  0  3  0  0  0  0  0  0
  187.8960  174.4280  136.2600 C   0  0  2  0  0  3  0  0  0  0  0  0
  188.1940  176.3380  137.7310 C   0  0  2  0  0  3  0  0  0  0  0  0
  186.6030  175.1040  136.5580 C   0  0  0  0  0  2  0  0  0  0  0  0
  187.9340  172.8860  137.1720 Cl  0  0  0  0  0  0  0  0  0  0  0  0
  188.9330  175.4510  136.7420 C   0  0  1  0  0  3  0  0  0  0  0  0
  186.7650  176.1430  137.3660 C   0  0  0  0  0  2  0  0  0  0  0  0
  190.1990  174.8490  137.3530 C   0  0  0  0  0  2  0  0  0  0  0  0
  191.2270  174.4680  136.2900 C   0  0  2  0  0  3  0  0  0  0  0  0
  191.5780  173.1220  136.4150 O   0  0  0  0  0  1  0  0  0  0  0  0
  192.4790  175.3370  136.3500 C   0  0  0  0  0  2  0  0  0  0  0  0
  193.1880  175.1460  137.6160 N   0  0  0  0  0  0  0  0  0  0  0  0
  193.2600  176.4270  138.3070 C   0  0  0  0  0  1  0  0  0  0  0  0
  194.5590  174.6650  137.3800 C   0  0  2  0  0  3  0  0  0  0  0  0
  195.2560  174.1490  138.6400 C   0  0  0  0  0  1  0  0  0  0  0  0
  195.3280  175.6670  136.7880 O   0  0  0  0  0  1  0  0  0  0  0  0
  1  6  1  1  0  0  0
  1  8  1  0  0  0  0
  3  8  1  1  0  0  0
  3 13  1  0  0  0  0
  4  2  1  6  0  0  0
  4  9  1  0  0  0  0
  4  1  1  0  0  0  0
  5  2  1  1  0  0  0
  5  7  1  0  0  0  0
  9  7  1  6  0  0  0
  9  3  1  0  0  0  0
 10 12  1  1  0  0  0
 11 19  1  6  0  0  0
 11 16  1  0  0  0  0
 13 17  1  1  0  0  0
 13 15  1  0  0  0  0
 14 13  1  0  0  0  0
 14 17  1  1  0  0  0
 14 11  1  0  0  0  0
 15 10  1  0  0  0  0
 16 10  1  0  0  0  0
 16 18  2  0  0  0  0
 20 19  1  0  0  0  0
 22 25  1  0  0  0  0
 22 21  1  6  0  0  0
 22 23  1  0  0  0  0
 23 21  1  6  0  0  0
 23  5  1  0  0  0  0
 24 26  1  0  0  0  0
 24 28  1  0  0  0  0
 24 27  1  1  0  0  0
 25 29  1  6  0  0  0
 26 29  1  0  0  0  0
 28 30  1  1  0  0  0
 28 25  1  0  0  0  0
 31 33  1  0  0  0  0
 31 32  1  1  0  0  0
 31 30  1  0  0  0  0
 33 34  1  0  0  0  0
 34 35  1  0  0  0  0
 36 34  1  0  0  0  0
 36 37  1  1  0  0  0
 38 36  1  0  0  0  0
M  END
>  <MODEL>
4

>  <REMARK>
 VINA RESULT:      -7.1      2.388      9.627
  Name = 
  9 active torsions:
  status: ('A' for Active; 'I' for Inactive)
    1  A    between atoms: C_5  and  C_24
    2  A    between atoms: C_6  and  C_8
    3  A    between atoms: C_6  and  C_14
    4  A    between atoms: C_8  and  C_32
    5  A    between atoms: N_9  and  C_36
    6  A    between atoms: C_11  and  C_21
    7  A    between atoms: C_14  and  N_23
    8  A    between atoms: C_15  and  N_23
    9  A    between atoms: C_16  and  C_17
                            x       y       z     vdW  Elec       q    Type
                         _______ _______ _______ _____ _____    ______ ____

>  <TORSDO>
F 9

$$$$
=
 OpenBabel11062414373D

 38 43  0  0  1  0  0  0  0  0999 V2000
  189.1050  173.9720  137.1320 C   0  0  1  0  0  3  0  0  0  0  0  0
  188.4400  176.3560  137.2830 C   0  0  0  0  0  2  0  0  0  0  0  0
  191.2610  174.5530  137.1780 C   0  0  2  0  0  3  0  0  0  0  0  0
  189.1410  175.3150  136.4330 C   0  0  1  0  0  3  0  0  0  0  0  0
  189.4560  177.0430  138.0700 N   0  0  1  0  0  0  0  0  0  0  0  0
  188.1790  173.0310  136.3900 C   0  0  0  0  0  1  0  0  0  0  0  0
  190.6690  176.9600  137.2690 C   0  0  0  0  0  2  0  0  0  0  0  0
  190.4030  173.4390  137.1540 O   0  0  0  0  0  0  0  0  0  0  0  0
  190.5870  175.6950  136.4430 C   0  0  1  0  0  3  0  0  0  0  0  0
  194.7100  175.0630  135.2780 C   0  0  2  0  0  3  0  0  0  0  0  0
  194.9530  173.2200  137.1460 C   0  0  1  0  0  3  0  0  0  0  0  0
  195.5320  176.3200  135.0590 C   0  0  0  0  0  1  0  0  0  0  0  0
  192.6370  174.2480  136.5720 C   0  0  2  0  0  0  0  0  0  0  0  0
  193.4160  173.1220  137.2440 C   0  0  1  0  0  3  0  0  0  0  0  0
  193.4530  175.4390  136.0540 C   0  0  0  0  0  2  0  0  0  0  0  0
  195.5200  174.0120  135.9900 C   0  0  0  0  0  0  0  0  0  0  0  0
  192.7740  172.9050  135.8700 C   0  0  0  0  0  2  0  0  0  0  0  0
  196.6430  173.7460  135.5930 O   0  0  0  0  0  0  0  0  0  0  0  0
  195.5670  173.6500  138.4740 C   0  0  0  0  0  2  0  0  0  0  0  0
  195.4200  175.0250  138.6660 O   0  0  0  0  0  1  0  0  0  0  0  0
  187.7260  178.5570  138.5250 O   0  0  0  0  0  0  0  0  0  0  0  0
  188.6710  178.8920  139.5130 C   0  0  2  0  0  3  0  0  0  0  0  0
  189.0770  178.4510  138.1410 C   0  0  1  0  0  3  0  0  0  0  0  0
  188.6420  177.7820  143.0130 C   0  0  2  0  0  3  0  0  0  0  0  0
  188.6980  177.8030  140.5840 C   0  0  2  0  0  3  0  0  0  0  0  0
  190.0330  177.6870  142.4910 C   0  0  0  0  0  2  0  0  0  0  0  0
  188.1790  176.1700  143.6430 Cl  0  0  0  0  0  0  0  0  0  0  0  0
  187.8430  178.2080  141.7740 C   0  0  1  0  0  3  0  0  0  0  0  0
  190.0640  177.6920  141.1650 C   0  0  0  0  0  2  0  0  0  0  0  0
  186.4310  177.6270  141.6840 C   0  0  0  0  0  2  0  0  0  0  0  0
  185.3560  178.7060  141.7960 C   0  0  2  0  0  3  0  0  0  0  0  0
  185.4960  179.6390  140.7670 O   0  0  0  0  0  1  0  0  0  0  0  0
  185.3790  179.4150  143.1450 C   0  0  0  0  0  2  0  0  0  0  0  0
  185.0350  178.4920  144.2280 N   0  0  0  0  0  0  0  0  0  0  0  0
  183.6370  178.6970  144.5860 C   0  0  0  0  0  1  0  0  0  0  0  0
  185.8640  178.7480  145.4160 C   0  0  2  0  0  3  0  0  0  0  0  0
  186.3510  177.4760  146.1120 C   0  0  0  0  0  1  0  0  0  0  0  0
  185.1730  179.5510  146.3240 O   0  0  0  0  0  1  0  0  0  0  0  0
  1  6  1  6  0  0  0
  1  8  1  0  0  0  0
  2  5  1  0  0  0  0
  3  8  1  6  0  0  0
  4  9  1  0  0  0  0
  4  1  1  0  0  0  0
  4  2  1  1  0  0  0
  5  7  1  6  0  0  0
  5 23  1  0  0  0  0
  9  3  1  0  0  0  0
  9  7  1  1  0  0  0
 10 12  1  1  0  0  0
 10 16  1  0  0  0  0
 10 15  1  0  0  0  0
 11 14  1  0  0  0  0
 11 19  1  1  0  0  0
 13 17  1  6  0  0  0
 13  3  1  0  0  0  0
 13 14  1  0  0  0  0
 14 17  1  6  0  0  0
 15 13  1  0  0  0  0
 16 11  1  0  0  0  0
 18 16  2  0  0  0  0
 19 20  1  0  0  0  0
 22 21  1  6  0  0  0
 22 25  1  0  0  0  0
 23 21  1  6  0  0  0
 23 22  1  0  0  0  0
 24 27  1  6  0  0  0
 25 29  1  1  0  0  0
 25 28  1  0  0  0  0
 26 24  1  0  0  0  0
 28 30  1  6  0  0  0
 28 24  1  0  0  0  0
 29 26  1  0  0  0  0
 30 31  1  0  0  0  0
 31 32  1  6  0  0  0
 31 33  1  0  0  0  0
 33 34  1  0  0  0  0
 34 35  1  0  0  0  0
 34 36  1  0  0  0  0
 36 37  1  1  0  0  0
 36 38  1  0  0  0  0
M  END
>  <MODEL>
5

>  <REMARK>
 VINA RESULT:      -6.8      1.746      2.084
  Name = 
  9 active torsions:
  status: ('A' for Active; 'I' for Inactive)
    1  A    between atoms: C_5  and  C_24
    2  A    between atoms: C_6  and  C_8
    3  A    between atoms: C_6  and  C_14
    4  A    between atoms: C_8  and  C_32
    5  A    between atoms: N_9  and  C_36
    6  A    between atoms: C_11  and  C_21
    7  A    between atoms: C_14  and  N_23
    8  A    between atoms: C_15  and  N_23
    9  A    between atoms: C_16  and  C_17
                            x       y       z     vdW  Elec       q    Type
                         _______ _______ _______ _____ _____    ______ ____

>  <TORSDO>
F 9

$$$$
=
 OpenBabel11062414373D

 38 43  0  0  1  0  0  0  0  0999 V2000
  190.9110  176.7790  140.0460 C   0  0  1  0  0  3  0  0  0  0  0  0
  189.3170  177.7030  138.3870 C   0  0  0  0  0  2  0  0  0  0  0  0
  189.4490  177.1590  141.6890 C   0  0  2  0  0  3  0  0  0  0  0  0
  190.1690  178.0200  139.6000 C   0  0  1  0  0  3  0  0  0  0  0  0
  187.9730  177.3980  138.8580 N   0  0  1  0  0  0  0  0  0  0  0  0
  192.3910  176.9330  139.7580 C   0  0  0  0  0  1  0  0  0  0  0  0
  187.8290  178.1520  140.0950 C   0  0  0  0  0  2  0  0  0  0  0  0
  190.7130  176.6040  141.4240 O   0  0  0  0  0  0  0  0  0  0  0  0
  189.2050  178.2900  140.7100 C   0  0  1  0  0  3  0  0  0  0  0  0
  187.8980  177.8540  145.2780 C   0  0  2  0  0  3  0  0  0  0  0  0
  190.5170  177.6050  145.4410 C   0  0  1  0  0  3  0  0  0  0  0  0
  186.8160  177.1100  146.0400 C   0  0  0  0  0  1  0  0  0  0  0  0
  189.3160  177.6500  143.1370 C   0  0  2  0  0  0  0  0  0  0  0  0
  190.6240  177.7770  143.9110 C   0  0  1  0  0  3  0  0  0  0  0  0
  188.0900  177.1750  143.9270 C   0  0  0  0  0  2  0  0  0  0  0  0
  189.1760  177.8990  146.0740 C   0  0  0  0  0  0  0  0  0  0  0  0
  189.8860  179.0300  143.4290 C   0  0  0  0  0  2  0  0  0  0  0  0
  189.1430  178.2380  147.2460 O   0  0  0  0  0  0  0  0  0  0  0  0
  191.0630  176.2540  145.8860 C   0  0  0  0  0  2  0  0  0  0  0  0
  192.1030  176.4170  146.8040 O   0  0  0  0  0  1  0  0  0  0  0  0
  187.4110  177.5830  136.5900 O   0  0  0  0  0  0  0  0  0  0  0  0
  186.2830  176.9230  137.1140 C   0  0  2  0  0  3  0  0  0  0  0  0
  187.0320  177.9600  137.8940 C   0  0  1  0  0  3  0  0  0  0  0  0
  187.1310  173.4910  136.1250 C   0  0  2  0  0  3  0  0  0  0  0  0
  186.6440  175.4750  137.4390 C   0  0  2  0  0  3  0  0  0  0  0  0
  185.7100  173.5250  136.5680 C   0  0  0  0  0  2  0  0  0  0  0  0
  187.9820  172.2520  137.1010 Cl  0  0  0  0  0  0  0  0  0  0  0  0
  187.6090  174.9230  136.4030 C   0  0  1  0  0  3  0  0  0  0  0  0
  185.4450  174.6050  137.2900 C   0  0  0  0  0  2  0  0  0  0  0  0
  189.0630  175.0430  136.8580 C   0  0  0  0  0  2  0  0  0  0  0  0
  190.0120  175.3070  135.6920 C   0  0  2  0  0  3  0  0  0  0  0  0
  189.3070  175.8020  134.5940 O   0  0  0  0  0  1  0  0  0  0  0  0
  190.7970  174.0640  135.2850 C   0  0  0  0  0  2  0  0  0  0  0  0
  192.2360  174.3320  135.2810 N   0  0  0  0  0  0  0  0  0  0  0  0
  192.9450  173.0600  135.2350 C   0  0  0  0  0  1  0  0  0  0  0  0
  192.6380  175.0480  136.5010 C   0  0  2  0  0  3  0  0  0  0  0  0
  193.7730  176.0500  136.2820 C   0  0  0  0  0  1  0  0  0  0  0  0
  192.9920  174.1410  137.5010 O   0  0  0  0  0  1  0  0  0  0  0  0
  1  6  1  1  0  0  0
  1  8  1  0  0  0  0
  3  8  1  1  0  0  0
  3 13  1  0  0  0  0
  4  2  1  6  0  0  0
  4  1  1  0  0  0  0
  4  9  1  0  0  0  0
  5  2  1  6  0  0  0
  5  7  1  0  0  0  0
  9  7  1  6  0  0  0
  9  3  1  0  0  0  0
 10 12  1  1  0  0  0
 10 16  1  0  0  0  0
 11 19  1  6  0  0  0
 11 16  1  0  0  0  0
 13 17  1  6  0  0  0
 13 14  1  0  0  0  0
 13 15  1  0  0  0  0
 14 17  1  1  0  0  0
 14 11  1  0  0  0  0
 15 10  1  0  0  0  0
 16 18  2  0  0  0  0
 19 20  1  0  0  0  0
 22 21  1  6  0  0  0
 22 25  1  0  0  0  0
 22 23  1  0  0  0  0
 23 21  1  6  0  0  0
 23  5  1  0  0  0  0
 24 28  1  0  0  0  0
 24 26  1  0  0  0  0
 24 27  1  1  0  0  0
 25 29  1  6  0  0  0
 26 29  1  0  0  0  0
 28 30  1  1  0  0  0
 28 25  1  0  0  0  0
 31 32  1  6  0  0  0
 31 30  1  0  0  0  0
 33 31  1  0  0  0  0
 34 33  1  0  0  0  0
 34 36  1  0  0  0  0
 35 34  1  0  0  0  0
 36 37  1  6  0  0  0
 36 38  1  0  0  0  0
M  END
>  <MODEL>
6

>  <REMARK>
 VINA RESULT:      -6.8      2.638      8.939
  Name = 
  9 active torsions:
  status: ('A' for Active; 'I' for Inactive)
    1  A    between atoms: C_5  and  C_24
    2  A    between atoms: C_6  and  C_8
    3  A    between atoms: C_6  and  C_14
    4  A    between atoms: C_8  and  C_32
    5  A    between atoms: N_9  and  C_36
    6  A    between atoms: C_11  and  C_21
    7  A    between atoms: C_14  and  N_23
    8  A    between atoms: C_15  and  N_23
    9  A    between atoms: C_16  and  C_17
                            x       y       z     vdW  Elec       q    Type
                         _______ _______ _______ _____ _____    ______ ____

>  <TORSDO>
F 9

$$$$
=
 OpenBabel11062414373D

 38 43  0  0  1  0  0  0  0  0999 V2000
  188.8200  177.1180  138.9200 C   0  0  1  0  0  3  0  0  0  0  0  0
  186.9490  178.7320  138.7250 C   0  0  0  0  0  2  0  0  0  0  0  0
  188.5580  177.0550  141.1360 C   0  0  2  0  0  3  0  0  0  0  0  0
  188.3440  178.5100  139.2750 C   0  0  1  0  0  3  0  0  0  0  0  0
  186.0000  178.4300  139.7880 N   0  0  1  0  0  0  0  0  0  0  0  0
  189.9290  177.2010  137.8910 C   0  0  0  0  0  1  0  0  0  0  0  0
  186.7170  178.7140  141.0220 C   0  0  0  0  0  2  0  0  0  0  0  0
  189.3000  176.4940  140.0820 O   0  0  0  0  0  0  0  0  0  0  0  0
  188.1890  178.4770  140.7610 C   0  0  1  0  0  3  0  0  0  0  0  0
  191.1100  178.0280  144.0180 C   0  0  2  0  0  3  0  0  0  0  0  0
  188.9450  176.9290  145.0410 C   0  0  1  0  0  3  0  0  0  0  0  0
  191.7550  179.3630  144.3480 C   0  0  0  0  0  1  0  0  0  0  0  0
  189.3150  177.0200  142.4710 C   0  0  2  0  0  0  0  0  0  0  0  0
  188.5530  176.4070  143.6420 C   0  0  1  0  0  3  0  0  0  0  0  0
  190.2290  178.2100  142.7880 C   0  0  0  0  0  2  0  0  0  0  0  0
  190.3330  177.5040  145.1970 C   0  0  0  0  0  0  0  0  0  0  0  0
  189.7030  175.6410  142.9820 C   0  0  0  0  0  2  0  0  0  0  0  0
  190.8540  177.4870  146.3010 O   0  0  0  0  0  0  0  0  0  0  0  0
  187.8820  177.8690  145.5990 C   0  0  0  0  0  2  0  0  0  0  0  0
  186.6220  177.2670  145.5680 O   0  0  0  0  0  1  0  0  0  0  0  0
  184.5280  179.5370  138.3380 O   0  0  0  0  0  0  0  0  0  0  0  0
  183.6390  178.8060  139.1490 C   0  0  2  0  0  3  0  0  0  0  0  0
  184.9080  179.3930  139.6880 C   0  0  1  0  0  3  0  0  0  0  0  0
  182.1580  175.7160  137.8290 C   0  0  2  0  0  3  0  0  0  0  0  0
  183.7110  177.3260  138.7790 C   0  0  2  0  0  3  0  0  0  0  0  0
  182.2050  175.6290  139.3150 C   0  0  0  0  0  2  0  0  0  0  0  0
  183.0170  174.2900  137.1670 Cl  0  0  0  0  0  0  0  0  0  0  0  0
  182.8690  177.0460  137.5440 C   0  0  1  0  0  3  0  0  0  0  0  0
  183.0570  176.5030  139.8330 C   0  0  0  0  0  2  0  0  0  0  0  0
  183.7080  177.0700  136.2660 C   0  0  0  0  0  2  0  0  0  0  0  0
  185.1690  176.7140  136.5300 C   0  0  2  0  0  3  0  0  0  0  0  0
  186.0100  177.7060  136.0210 O   0  0  0  0  0  1  0  0  0  0  0  0
  185.5550  175.3590  135.9450 C   0  0  0  0  0  2  0  0  0  0  0  0
  187.0100  175.2070  135.8920 N   0  0  0  0  0  0  0  0  0  0  0  0
  187.3700  174.6390  134.6000 C   0  0  0  0  0  1  0  0  0  0  0  0
  187.4790  174.2970  136.9500 C   0  0  2  0  0  3  0  0  0  0  0  0
  188.8130  173.6200  136.6320 C   0  0  0  0  0  1  0  0  0  0  0  0
  186.5090  173.3320  137.2230 O   0  0  0  0  0  1  0  0  0  0  0  0
  1  6  1  6  0  0  0
  1  4  1  0  0  0  0
  1  8  1  0  0  0  0
  3  8  1  6  0  0  0
  3 13  1  0  0  0  0
  4  2  1  6  0  0  0
  4  9  1  0  0  0  0
  5  2  1  6  0  0  0
  5  7  1  0  0  0  0
  9  7  1  6  0  0  0
  9  3  1  0  0  0  0
 10 12  1  1  0  0  0
 10 16  1  0  0  0  0
 11 16  1  0  0  0  0
 11 19  1  6  0  0  0
 13 15  1  1  0  0  0
 13 17  1  0  0  0  0
 13 14  1  0  0  0  0
 14 17  1  1  0  0  0
 14 11  1  0  0  0  0
 15 10  1  0  0  0  0
 16 18  2  0  0  0  0
 20 19  1  0  0  0  0
 22 21  1  6  0  0  0
 22 23  1  0  0  0  0
 23 21  1  6  0  0  0
 23  5  1  0  0  0  0
 24 27  1  6  0  0  0
 24 26  1  0  0  0  0
 25 22  1  0  0  0  0
 25 29  1  1  0  0  0
 26 29  1  0  0  0  0
 28 30  1  6  0  0  0
 28 24  1  0  0  0  0
 28 25  1  0  0  0  0
 30 31  1  0  0  0  0
 31 32  1  6  0  0  0
 33 31  1  0  0  0  0
 34 33  1  0  0  0  0
 34 36  1  0  0  0  0
 35 34  1  0  0  0  0
 36 37  1  6  0  0  0
 36 38  1  0  0  0  0
M  END
>  <MODEL>
7

>  <REMARK>
 VINA RESULT:      -6.4      4.194      8.708
  Name = 
  9 active torsions:
  status: ('A' for Active; 'I' for Inactive)
    1  A    between atoms: C_5  and  C_24
    2  A    between atoms: C_6  and  C_8
    3  A    between atoms: C_6  and  C_14
    4  A    between atoms: C_8  and  C_32
    5  A    between atoms: N_9  and  C_36
    6  A    between atoms: C_11  and  C_21
    7  A    between atoms: C_14  and  N_23
    8  A    between atoms: C_15  and  N_23
    9  A    between atoms: C_16  and  C_17
                            x       y       z     vdW  Elec       q    Type
                         _______ _______ _______ _____ _____    ______ ____

>  <TORSDO>
F 9

$$$$
=
 OpenBabel11062414373D

 38 43  0  0  1  0  0  0  0  0999 V2000
  188.6090  177.2630  141.4240 C   0  0  1  0  0  3  0  0  0  0  0  0
  186.9750  178.8060  140.3770 C   0  0  0  0  0  2  0  0  0  0  0  0
  187.3520  177.1540  143.2660 C   0  0  2  0  0  3  0  0  0  0  0  0
  187.9640  178.6300  141.5110 C   0  0  1  0  0  3  0  0  0  0  0  0
  185.6550  178.4490  140.8790 N   0  0  1  0  0  0  0  0  0  0  0  0
  190.0640  177.4060  141.0250 C   0  0  0  0  0  1  0  0  0  0  0  0
  185.7060  178.7420  142.3050 C   0  0  0  0  0  2  0  0  0  0  0  0
  188.5210  176.6400  142.6780 O   0  0  0  0  0  0  0  0  0  0  0  0
  187.1400  178.5670  142.7570 C   0  0  1  0  0  3  0  0  0  0  0  0
  188.7960  177.2660  146.9630 C   0  0  2  0  0  3  0  0  0  0  0  0
  186.3290  178.1910  146.9110 C   0  0  1  0  0  3  0  0  0  0  0  0
  190.0540  177.9210  147.5060 C   0  0  0  0  0  1  0  0  0  0  0  0
  187.4050  177.1270  144.8000 C   0  0  2  0  0  0  0  0  0  0  0  0
  186.1320  177.5780  145.5090 C   0  0  1  0  0  3  0  0  0  0  0  0
  188.7360  177.5100  145.4600 C   0  0  0  0  0  2  0  0  0  0  0  0
  187.5730  177.7910  147.6690 C   0  0  0  0  0  0  0  0  0  0  0  0
  186.5190  176.0960  145.4800 C   0  0  0  0  0  2  0  0  0  0  0  0
  187.5590  177.8420  148.8890 O   0  0  0  0  0  0  0  0  0  0  0  0
  186.1520  179.7050  146.8840 C   0  0  0  0  0  2  0  0  0  0  0  0
  185.3060  180.0870  145.8400 O   0  0  0  0  0  1  0  0  0  0  0  0
  184.9310  179.4650  138.8950 O   0  0  0  0  0  0  0  0  0  0  0  0
  183.7950  178.7250  139.2720 C   0  0  2  0  0  3  0  0  0  0  0  0
  184.6940  179.3700  140.2810 C   0  0  1  0  0  3  0  0  0  0  0  0
  183.5790  175.6920  137.2130 C   0  0  2  0  0  3  0  0  0  0  0  0
  184.0490  177.2390  139.0270 C   0  0  2  0  0  3  0  0  0  0  0  0
  182.5460  175.6210  138.2820 C   0  0  0  0  0  2  0  0  0  0  0  0
  184.5940  174.2200  137.3280 Cl  0  0  0  0  0  0  0  0  0  0  0  0
  184.3330  176.9840  137.5550 C   0  0  1  0  0  3  0  0  0  0  0  0
  182.8050  176.4600  139.2760 C   0  0  0  0  0  2  0  0  0  0  0  0
  185.8340  176.9540  137.2630 C   0  0  0  0  0  2  0  0  0  0  0  0
  186.1940  177.7540  136.0130 C   0  0  2  0  0  3  0  0  0  0  0  0
  185.4930  177.2680  134.9070 O   0  0  0  0  0  1  0  0  0  0  0  0
  187.6910  177.7410  135.7230 C   0  0  0  0  0  2  0  0  0  0  0  0
  188.4640  177.6830  136.9650 N   0  0  0  0  0  0  0  0  0  0  0  0
  189.0300  179.0010  137.2210 C   0  0  0  0  0  1  0  0  0  0  0  0
  189.5660  176.7150  136.8500 C   0  0  2  0  0  3  0  0  0  0  0  0
  189.1700  175.2850  137.2180 C   0  0  0  0  0  1  0  0  0  0  0  0
  190.6510  177.1230  137.6260 O   0  0  0  0  0  1  0  0  0  0  0  0
  1  6  1  1  0  0  0
  1  4  1  0  0  0  0
  1  8  1  0  0  0  0
  3  8  1  6  0  0  0
  3 13  1  0  0  0  0
  4  2  1  6  0  0  0
  4  9  1  0  0  0  0
  5  2  1  6  0  0  0
  5  7  1  0  0  0  0
  9  7  1  6  0  0  0
  9  3  1  0  0  0  0
 10 12  1  1  0  0  0
 10 16  1  0  0  0  0
 11 19  1  6  0  0  0
 11 16  1  0  0  0  0
 13 15  1  1  0  0  0
 13 17  1  0  0  0  0
 13 14  1  0  0  0  0
 14 17  1  1  0  0  0
 14 11  1  0  0  0  0
 15 10  1  0  0  0  0
 16 18  2  0  0  0  0
 20 19  1  0  0  0  0
 22 21  1  6  0  0  0
 22 23  1  0  0  0  0
 23 21  1  6  0  0  0
 23  5  1  0  0  0  0
 24 27  1  1  0  0  0
 24 28  1  0  0  0  0
 24 26  1  0  0  0  0
 25 22  1  0  0  0  0
 25 29  1  6  0  0  0
 26 29  1  0  0  0  0
 28 30  1  1  0  0  0
 28 25  1  0  0  0  0
 31 32  1  6  0  0  0
 31 30  1  0  0  0  0
 33 31  1  0  0  0  0
 33 34  1  0  0  0  0
 34 35  1  0  0  0  0
 36 34  1  0  0  0  0
 36 37  1  1  0  0  0
 36 38  1  0  0  0  0
M  END
>  <MODEL>
8

>  <REMARK>
 VINA RESULT:      -6.3      3.898      9.816
  Name = 
  9 active torsions:
  status: ('A' for Active; 'I' for Inactive)
    1  A    between atoms: C_5  and  C_24
    2  A    between atoms: C_6  and  C_8
    3  A    between atoms: C_6  and  C_14
    4  A    between atoms: C_8  and  C_32
    5  A    between atoms: N_9  and  C_36
    6  A    between atoms: C_11  and  C_21
    7  A    between atoms: C_14  and  N_23
    8  A    between atoms: C_15  and  N_23
    9  A    between atoms: C_16  and  C_17
                            x       y       z     vdW  Elec       q    Type
                         _______ _______ _______ _____ _____    ______ ____

>  <TORSDO>
F 9

$$$$
=
 OpenBabel11062414373D

 38 43  0  0  1  0  0  0  0  0999 V2000
  180.9020  176.6020  140.5350 C   0  0  1  0  0  3  0  0  0  0  0  0
  181.4300  178.5470  141.9790 C   0  0  0  0  0  2  0  0  0  0  0  0
  182.8690  176.8150  139.5000 C   0  0  2  0  0  3  0  0  0  0  0  0
  181.1710  178.0920  140.5570 C   0  0  1  0  0  3  0  0  0  0  0  0
  182.8720  178.5580  142.1860 N   0  0  1  0  0  0  0  0  0  0  0  0
  179.4450  176.3470  140.2060 C   0  0  0  0  0  1  0  0  0  0  0  0
  183.4370  178.8050  140.8670 C   0  0  0  0  0  2  0  0  0  0  0  0
  181.7180  176.0090  139.5600 O   0  0  0  0  0  0  0  0  0  0  0  0
  182.4760  178.2390  139.8440 C   0  0  1  0  0  3  0  0  0  0  0  0
  185.4430  177.5540  136.5690 C   0  0  2  0  0  3  0  0  0  0  0  0
  184.5440  175.0830  136.4000 C   0  0  1  0  0  3  0  0  0  0  0  0
  186.8780  178.0500  136.6250 C   0  0  0  0  0  1  0  0  0  0  0  0
  183.5580  176.7520  138.1300 C   0  0  2  0  0  0  0  0  0  0  0  0
  183.4000  175.4370  137.3750 C   0  0  1  0  0  3  0  0  0  0  0  0
  184.9070  177.4700  137.9940 C   0  0  0  0  0  2  0  0  0  0  0  0
  185.3640  176.2290  135.8570 C   0  0  0  0  0  0  0  0  0  0  0  0
  182.6370  176.6860  136.9220 C   0  0  0  0  0  2  0  0  0  0  0  0
  185.9260  176.0900  134.7820 O   0  0  0  0  0  0  0  0  0  0  0  0
  185.4300  173.9780  136.9640 C   0  0  0  0  0  2  0  0  0  0  0  0
  184.7590  173.2640  137.9600 O   0  0  0  0  0  1  0  0  0  0  0  0
  183.4030  179.2970  144.3460 O   0  0  0  0  0  0  0  0  0  0  0  0
  184.5550  179.6610  143.6240 C   0  0  2  0  0  3  0  0  0  0  0  0
  183.1870  179.7150  143.0170 C   0  0  1  0  0  3  0  0  0  0  0  0
  187.7060  177.7810  143.4830 C   0  0  2  0  0  3  0  0  0  0  0  0
  185.3670  178.4100  143.2940 C   0  0  2  0  0  3  0  0  0  0  0  0
  187.3710  178.2600  142.1140 C   0  0  0  0  0  2  0  0  0  0  0  0
  187.9140  176.0030  143.4090 Cl  0  0  0  0  0  0  0  0  0  0  0  0
  186.4870  178.2210  144.3050 C   0  0  1  0  0  3  0  0  0  0  0  0
  186.0940  178.5980  142.0080 C   0  0  0  0  0  2  0  0  0  0  0  0
  186.0840  177.2640  145.4270 C   0  0  0  0  0  2  0  0  0  0  0  0
  186.1730  177.9210  146.8030 C   0  0  2  0  0  3  0  0  0  0  0  0
  185.1650  178.8740  146.9530 O   0  0  0  0  0  1  0  0  0  0  0  0
  187.5340  178.5620  147.0560 C   0  0  0  0  0  2  0  0  0  0  0  0
  188.4600  177.6030  147.6610 N   0  0  0  0  0  0  0  0  0  0  0  0
  189.1280  178.2480  148.7840 C   0  0  0  0  0  1  0  0  0  0  0  0
  189.4810  177.1790  146.6910 C   0  0  2  0  0  3  0  0  0  0  0  0
  190.7470  176.6120  147.3360 C   0  0  0  0  0  1  0  0  0  0  0  0
  189.8130  178.2370  145.8440 O   0  0  0  0  0  1  0  0  0  0  0  0
  1  6  1  6  0  0  0
  1  4  1  0  0  0  0
  2  5  1  0  0  0  0
  3  8  1  6  0  0  0
  3  9  1  0  0  0  0
  4  2  1  1  0  0  0
  5  7  1  6  0  0  0
  5 23  1  0  0  0  0
  8  1  1  0  0  0  0
  9  4  1  0  0  0  0
  9  7  1  1  0  0  0
 10 12  1  1  0  0  0
 10 15  1  0  0  0  0
 11 19  1  1  0  0  0
 11 14  1  0  0  0  0
 13 17  1  6  0  0  0
 13  3  1  0  0  0  0
 14 17  1  6  0  0  0
 14 13  1  0  0  0  0
 15 13  1  0  0  0  0
 16 11  1  0  0  0  0
 16 10  1  0  0  0  0
 18 16  2  0  0  0  0
 19 20  1  0  0  0  0
 22 21  1  1  0  0  0
 23 22  1  0  0  0  0
 23 21  1  1  0  0  0
 24 27  1  6  0  0  0
 24 28  1  0  0  0  0
 25 29  1  6  0  0  0
 25 22  1  0  0  0  0
 25 28  1  0  0  0  0
 26 24  1  0  0  0  0
 28 30  1  1  0  0  0
 29 26  1  0  0  0  0
 30 31  1  0  0  0  0
 31 32  1  6  0  0  0
 31 33  1  0  0  0  0
 33 34  1  0  0  0  0
 34 35  1  0  0  0  0
 36 37  1  1  0  0  0
 36 34  1  0  0  0  0
 38 36  1  0  0  0  0
M  END
>  <MODEL>
9

>  <REMARK>
 VINA RESULT:      -6.3      5.690      7.661
  Name = 
  9 active torsions:
  status: ('A' for Active; 'I' for Inactive)
    1  A    between atoms: C_5  and  C_24
    2  A    between atoms: C_6  and  C_8
    3  A    between atoms: C_6  and  C_14
    4  A    between atoms: C_8  and  C_32
    5  A    between atoms: N_9  and  C_36
    6  A    between atoms: C_11  and  C_21
    7  A    between atoms: C_14  and  N_23
    8  A    between atoms: C_15  and  N_23
    9  A    between atoms: C_16  and  C_17
                            x       y       z     vdW  Elec       q    Type
                         _______ _______ _______ _____ _____    ______ ____

>  <TORSDO>
F 9

$$$$
