=
 OpenBabel11062417203D

 60 65  0  0  1  0  0  0  0  0999 V2000
  189.7690  178.3520  135.6360 O   0  0  0  0  0  1  0  0  0  0  0  0
  192.7910  176.6950  141.5170 F   0  0  0  0  0  0  0  0  0  0  0  0
  190.3620  177.8280  137.8870 C   0  0  1  0  0  3  0  0  0  0  0  0
  185.4290  173.2520  135.5880 N   0  0  0  0  0  2  0  0  0  0  0  0
  182.7320  176.0720  137.3570 C   0  0  1  0  0  3  0  0  0  0  0  0
  184.0720  172.7880  135.8440 C   0  0  0  0  0  2  0  0  0  0  0  0
  187.0010  177.8920  138.1230 C   0  0  2  0  0  3  0  0  0  0  0  0
  190.8320  176.4150  137.4810 C   0  0  2  0  0  3  0  0  0  0  0  0
  189.3830  177.9770  142.3630 C   0  0  1  0  0  3  0  0  0  0  0  0
  191.3670  178.0910  140.2320 C   0  0  0  0  0  2  0  0  0  0  0  0
  187.6200  178.3350  139.4500 C   0  0  0  0  0  2  0  0  0  0  0  0
  189.2820  178.3990  136.9440 C   0  0  0  0  0  0  0  0  0  0  0  0
  183.3990  173.6690  136.8800 C   0  0  0  0  0  2  0  0  0  0  0  0
  183.8650  176.2330  138.3680 C   0  0  1  0  0  3  0  0  0  0  0  0
  190.7970  177.4370  142.5850 C   0  0  1  0  0  3  0  0  0  0  0  0
  186.1630  176.7970  138.3440 O   0  0  0  0  0  0  0  0  0  0  0  0
  188.5650  177.1250  141.3910 C   0  0  1  0  0  3  0  0  0  0  0  0
  189.9240  175.2800  137.9470 C   0  0  0  0  0  2  0  0  0  0  0  0
  187.9970  177.5610  136.9980 C   0  0  0  0  0  2  0  0  0  0  0  0
  184.9340  177.1360  137.7730 C   0  0  2  0  0  3  0  0  0  0  0  0
  189.0150  179.7330  137.2620 O   0  0  0  0  0  1  0  0  0  0  0  0
  186.3390  172.2600  137.4840 O   0  0  0  0  0  0  0  0  0  0  0  0
  191.4650  177.0000  141.2810 C   0  0  2  0  0  3  0  0  0  0  0  0
  183.1230  175.0450  136.2920 C   0  0  0  0  0  2  0  0  0  0  0  0
  188.7190  178.0600  143.5890 O   0  0  0  0  0  1  0  0  0  0  0  0
  190.0850  178.0450  139.3880 C   0  0  2  0  0  3  0  0  0  0  0  0
  183.9830  177.6730  138.8310 C   0  0  0  0  0  2  0  0  0  0  0  0
  190.1570  174.0360  137.1040 C   0  0  0  0  0  2  0  0  0  0  0  0
  188.2800  173.3360  134.7530 C   0  0  0  0  0  1  0  0  0  0  0  0
  186.5180  172.9880  136.4670 C   0  0  0  0  0  0  0  0  0  0  0  0
  188.7540  177.4360  139.8990 C   0  0  2  0  0  3  0  0  0  0  0  0
  188.7080  175.7590  141.6410 O   0  0  0  0  0  1  0  0  0  0  0  0
  187.8590  173.6160  136.1910 C   0  0  1  0  0  3  0  0  0  0  0  0
  191.5680  178.4140  143.2230 O   0  0  0  0  0  1  0  0  0  0  0  0
  188.9400  173.1310  137.1570 C   0  0  0  0  0  2  0  0  0  0  0  0
  181.3990  175.7320  138.0600 C   0  0  2  0  0  3  0  0  0  0  0  0
  180.9880  174.2810  137.9310 C   0  0  0  0  0  2  0  0  0  0  0  0
  180.1810  176.4920  137.5600 C   0  0  2  0  0  0  0  0  0  0  0  0
  179.0270  175.5760  137.9250 C   0  0  0  0  0  2  0  0  0  0  0  0
  179.5310  174.2000  137.9890 N   0  0  0  0  0  0  0  0  0  0  0  0
  180.0060  173.6320  135.7630 O   0  0  0  0  0  1  0  0  0  0  0  0
  179.0760  173.4780  136.7980 C   0  0  0  0  0  3  0  0  0  0  0  0
  178.9320  172.1150  137.0750 O   0  0  0  0  0  1  0  0  0  0  0  0
  180.2210  176.6750  136.0290 C   0  0  0  0  0  2  0  0  0  0  0  0
  180.2250  178.0910  135.5510 C   0  0  0  0  0  0  0  0  0  0  0  0
  181.4130  178.7910  135.3810 O   0  0  0  0  0  1  0  0  0  0  0  0
  179.1400  178.6360  135.2260 O   0  0  0  0  0  0  0  0  0  0  0  0
  180.0720  177.7720  138.1950 O   0  0  0  0  0  0  0  0  0  0  0  0
  180.1650  178.0350  139.5710 C   0  0  0  0  0  0  0  0  0  0  0  0
  179.5930  177.6230  141.8860 C   0  0  0  0  0  3  0  0  0  0  0  0
  180.4310  178.6230  142.2690 N   0  0  0  0  0  0  0  0  0  0  0  0
  181.1410  179.3370  141.3590 C   0  0  0  0  0  3  0  0  0  0  0  0
  179.4420  177.3100  140.5300 C   0  0  0  0  0  3  0  0  0  0  0  0
  181.0190  179.0540  139.9950 C   0  0  0  0  0  3  0  0  0  0  0  0
  193.0030  177.0730  138.1800 O   0  0  0  0  0  0  0  0  0  0  0  0
  192.3020  176.1760  137.7380 C   0  0  0  0  0  0  0  0  0  0  0  0
  194.2480  174.6970  138.1710 C   0  0  0  0  0  1  0  0  0  0  0  0
  192.9350  174.8500  137.4210 C   0  0  2  0  0  3  0  0  0  0  0  0
  193.7720  175.9150  135.3380 C   0  0  0  0  0  1  0  0  0  0  0  0
  193.1320  174.6800  135.9280 C   0  0  0  0  0  2  0  0  0  0  0  0
  1 12  1  0  0  0  0
  3 12  1  6  0  0  0
  3 26  1  0  0  0  0
  4  6  1  0  0  0  0
  4 30  1  0  0  0  0
  5 24  1  6  0  0  0
  5 36  1  0  0  0  0
  5 14  1  0  0  0  0
  6 13  1  0  0  0  0
  7 19  1  6  0  0  0
  7 16  1  0  0  0  0
  7 11  1  0  0  0  0
  8 56  1  1  0  0  0
  8  3  1  0  0  0  0
  8 18  1  0  0  0  0
  9 15  1  0  0  0  0
  9 25  1  1  0  0  0
 10 23  1  0  0  0  0
 12 19  1  0  0  0  0
 12 21  1  0  0  0  0
 14 27  1  1  0  0  0
 15 34  1  6  0  0  0
 17 32  1  6  0  0  0
 17  9  1  0  0  0  0
 20 16  1  0  0  0  0
 20 14  1  0  0  0  0
 20 27  1  1  0  0  0
 23  2  1  1  0  0  0
 23 15  1  0  0  0  0
 24 13  1  0  0  0  0
 26 31  1  0  0  0  0
 26 10  1  1  0  0  0
 28 35  1  0  0  0  0
 28 18  1  0  0  0  0
 30 22  2  0  0  0  0
 31 11  1  1  0  0  0
 31 17  1  0  0  0  0
 33 29  1  6  0  0  0
 33 30  1  0  0  0  0
 33 35  1  0  0  0  0
 36 37  1  6  0  0  0
 37 40  1  0  0  0  0
 38 44  1  6  0  0  0
 38 39  1  0  0  0  0
 38 36  1  0  0  0  0
 38 48  1  0  0  0  0
 39 40  1  0  0  0  0
 41 42  1  0  0  0  0
 42 43  1  0  0  0  0
 42 40  1  0  0  0  0
 45 44  1  0  0  0  0
 46 45  1  0  0  0  0
 47 45  2  0  0  0  0
 48 49  1  0  0  0  0
 49 54  2  0  0  0  0
 49 53  1  0  0  0  0
 50 51  1  0  0  0  0
 52 51  2  0  0  0  0
 53 50  2  0  0  0  0
 54 52  1  0  0  0  0
 56 55  2  0  0  0  0
 58 56  1  0  0  0  0
 58 57  1  1  0  0  0
 59 60  1  0  0  0  0
 60 58  1  0  0  0  0
M  END
>  <MODEL>
1

>  <REMARK>
 VINA RESULT:      -4.9      0.000      0.000
  Name = 
  9 active torsions:
  status: ('A' for Active; 'I' for Inactive)
    1  A    between atoms: C_1  and  C_7
    2  A    between atoms: C_10  and  C_35
    3  A    between atoms: C_11  and  C_33
    4  A    between atoms: C_11  and  O_46
    5  A    between atoms: C_16  and  C_33
    6  A    between atoms: C_28  and  O_46
    7  A    between atoms: C_34  and  C_52
    8  A    between atoms: C_35  and  C_52
    9  A    between atoms: C_47  and  N_56
                            x       y       z     vdW  Elec       q    Type
                         _______ _______ _______ _____ _____    ______ ____

>  <TORSDO>
F 9

$$$$
=
 OpenBabel11062417203D

 60 65  0  0  1  0  0  0  0  0999 V2000
  189.3960  178.4180  135.6420 O   0  0  0  0  0  1  0  0  0  0  0  0
  192.2300  176.0170  141.3580 F   0  0  0  0  0  0  0  0  0  0  0  0
  189.9700  177.7580  137.8620 C   0  0  1  0  0  3  0  0  0  0  0  0
  183.8460  174.6840  135.9600 N   0  0  0  0  0  2  0  0  0  0  0  0
  182.1310  178.1330  137.8350 C   0  0  1  0  0  3  0  0  0  0  0  0
  182.4340  174.6060  136.3070 C   0  0  0  0  0  2  0  0  0  0  0  0
  186.7730  178.7300  138.3020 C   0  0  2  0  0  3  0  0  0  0  0  0
  190.0130  176.2690  137.4560 C   0  0  2  0  0  3  0  0  0  0  0  0
  189.3570  178.1770  142.3860 C   0  0  1  0  0  3  0  0  0  0  0  0
  191.1570  177.7440  140.1360 C   0  0  0  0  0  2  0  0  0  0  0  0
  187.5720  178.9920  139.5800 C   0  0  0  0  0  2  0  0  0  0  0  0
  189.0260  178.5980  136.9760 C   0  0  0  0  0  0  0  0  0  0  0  0
  182.0920  175.6380  137.3660 C   0  0  0  0  0  2  0  0  0  0  0  0
  183.3280  177.9840  138.7710 C   0  0  1  0  0  3  0  0  0  0  0  0
  190.5840  177.2740  142.5310 C   0  0  1  0  0  3  0  0  0  0  0  0
  185.6860  177.9030  138.5960 O   0  0  0  0  0  0  0  0  0  0  0  0
  188.2780  177.5760  141.4830 C   0  0  1  0  0  3  0  0  0  0  0  0
  188.8640  175.4230  137.9990 C   0  0  0  0  0  2  0  0  0  0  0  0
  187.5680  178.1390  137.1250 C   0  0  0  0  0  2  0  0  0  0  0  0
  184.5610  178.5620  138.0940 C   0  0  2  0  0  3  0  0  0  0  0  0
  189.1500  179.9550  137.2830 O   0  0  0  0  0  1  0  0  0  0  0  0
  184.5740  173.4860  137.8150 O   0  0  0  0  0  0  0  0  0  0  0  0
  191.0230  176.6690  141.1980 C   0  0  2  0  0  3  0  0  0  0  0  0
  182.1610  177.0370  136.7680 C   0  0  0  0  0  2  0  0  0  0  0  0
  188.8200  178.4390  143.6490 O   0  0  0  0  0  1  0  0  0  0  0  0
  189.8590  178.0450  139.3730 C   0  0  2  0  0  3  0  0  0  0  0  0
  183.8600  179.3390  139.1980 C   0  0  0  0  0  2  0  0  0  0  0  0
  188.6970  174.1610  137.1680 C   0  0  0  0  0  2  0  0  0  0  0  0
  186.5540  173.9910  134.9510 C   0  0  0  0  0  1  0  0  0  0  0  0
  184.8780  174.1370  136.7760 C   0  0  0  0  0  0  0  0  0  0  0  0
  188.4480  177.8200  139.9770 C   0  0  2  0  0  3  0  0  0  0  0  0
  188.0620  176.2220  141.7500 O   0  0  0  0  0  1  0  0  0  0  0  0
  186.3170  174.3770  136.4050 C   0  0  1  0  0  3  0  0  0  0  0  0
  191.6290  178.0070  143.1020 O   0  0  0  0  0  1  0  0  0  0  0  0
  187.2870  173.6200  137.3130 C   0  0  0  0  0  2  0  0  0  0  0  0
  180.8030  178.1690  138.6250 C   0  0  2  0  0  3  0  0  0  0  0  0
  179.9650  179.4020  138.3610 C   0  0  0  0  0  2  0  0  0  0  0  0
  180.9390  178.1480  140.1380 C   0  0  2  0  0  0  0  0  0  0  0  0
  179.6520  178.7990  140.6110 C   0  0  0  0  0  2  0  0  0  0  0  0
  179.1650  179.6860  139.5490 N   0  0  0  0  0  0  0  0  0  0  0  0
  179.7040  181.1370  141.3120 O   0  0  0  0  0  1  0  0  0  0  0  0
  179.4260  181.0730  139.9420 C   0  0  0  0  0  3  0  0  0  0  0  0
  180.5180  181.5860  139.2350 O   0  0  0  0  0  1  0  0  0  0  0  0
  182.1400  178.9960  140.6080 C   0  0  0  0  0  2  0  0  0  0  0  0
  182.5810  178.7600  142.0160 C   0  0  0  0  0  0  0  0  0  0  0  0
  181.7910  179.1440  143.0920 O   0  0  0  0  0  1  0  0  0  0  0  0
  183.6510  178.1380  142.2320 O   0  0  0  0  0  0  0  0  0  0  0  0
  181.0750  176.8090  140.6290 O   0  0  0  0  0  0  0  0  0  0  0  0
  180.3410  175.6860  140.2130 C   0  0  0  0  0  0  0  0  0  0  0  0
  178.9350  174.4910  138.6480 C   0  0  0  0  0  3  0  0  0  0  0  0
  178.9310  173.4140  139.4770 N   0  0  0  0  0  0  0  0  0  0  0  0
  179.6040  173.4270  140.6560 C   0  0  0  0  0  3  0  0  0  0  0  0
  179.6380  175.6500  139.0000 C   0  0  0  0  0  3  0  0  0  0  0  0
  180.3190  174.5640  141.0430 C   0  0  0  0  0  3  0  0  0  0  0  0
  191.5600  174.7910  138.4850 O   0  0  0  0  0  0  0  0  0  0  0  0
  191.3770  175.6410  137.6270 C   0  0  0  0  0  0  0  0  0  0  0  0
  192.4580  175.4330  135.4020 C   0  0  0  0  0  1  0  0  0  0  0  0
  192.5390  176.0760  136.7770 C   0  0  2  0  0  3  0  0  0  0  0  0
  194.7150  174.8960  136.5600 C   0  0  0  0  0  1  0  0  0  0  0  0
  193.8580  175.7640  137.4530 C   0  0  0  0  0  2  0  0  0  0  0  0
  1 12  1  0  0  0  0
  3 12  1  6  0  0  0
  3 26  1  0  0  0  0
  4  6  1  0  0  0  0
  4 30  1  0  0  0  0
  5 24  1  6  0  0  0
  5 36  1  0  0  0  0
  5 14  1  0  0  0  0
  6 13  1  0  0  0  0
  7 19  1  6  0  0  0
  7 16  1  0  0  0  0
  7 11  1  0  0  0  0
  8 56  1  1  0  0  0
  8  3  1  0  0  0  0
  8 18  1  0  0  0  0
  9 15  1  0  0  0  0
  9 25  1  1  0  0  0
 10 23  1  0  0  0  0
 12 19  1  0  0  0  0
 12 21  1  0  0  0  0
 14 27  1  1  0  0  0
 15 34  1  6  0  0  0
 17 32  1  6  0  0  0
 17  9  1  0  0  0  0
 20 16  1  0  0  0  0
 20 14  1  0  0  0  0
 20 27  1  1  0  0  0
 23  2  1  1  0  0  0
 23 15  1  0  0  0  0
 24 13  1  0  0  0  0
 26 31  1  0  0  0  0
 26 10  1  1  0  0  0
 28 35  1  0  0  0  0
 28 18  1  0  0  0  0
 30 22  2  0  0  0  0
 31 11  1  1  0  0  0
 31 17  1  0  0  0  0
 33 29  1  6  0  0  0
 33 30  1  0  0  0  0
 33 35  1  0  0  0  0
 36 37  1  1  0  0  0
 36 38  1  0  0  0  0
 37 40  1  0  0  0  0
 38 44  1  1  0  0  0
 38 39  1  0  0  0  0
 38 48  1  0  0  0  0
 40 42  1  0  0  0  0
 40 39  1  0  0  0  0
 42 41  1  0  0  0  0
 43 42  1  0  0  0  0
 44 45  1  0  0  0  0
 45 47  2  0  0  0  0
 45 46  1  0  0  0  0
 49 48  1  0  0  0  0
 49 54  1  0  0  0  0
 50 53  1  0  0  0  0
 50 51  2  0  0  0  0
 51 52  1  0  0  0  0
 52 54  2  0  0  0  0
 53 49  2  0  0  0  0
 56 55  2  0  0  0  0
 58 57  1  6  0  0  0
 58 60  1  0  0  0  0
 58 56  1  0  0  0  0
 59 60  1  0  0  0  0
M  END
>  <MODEL>
2

>  <REMARK>
 VINA RESULT:      -3.0      1.914      3.615
  Name = 
  9 active torsions:
  status: ('A' for Active; 'I' for Inactive)
    1  A    between atoms: C_1  and  C_7
    2  A    between atoms: C_10  and  C_35
    3  A    between atoms: C_11  and  C_33
    4  A    between atoms: C_11  and  O_46
    5  A    between atoms: C_16  and  C_33
    6  A    between atoms: C_28  and  O_46
    7  A    between atoms: C_34  and  C_52
    8  A    between atoms: C_35  and  C_52
    9  A    between atoms: C_47  and  N_56
                            x       y       z     vdW  Elec       q    Type
                         _______ _______ _______ _____ _____    ______ ____

>  <TORSDO>
F 9

$$$$
=
 OpenBabel11062417203D

 60 65  0  0  1  0  0  0  0  0999 V2000
  182.1570  174.6230  138.3410 O   0  0  0  0  0  1  0  0  0  0  0  0
  180.0090  180.4550  135.5420 F   0  0  0  0  0  0  0  0  0  0  0  0
  181.5790  176.8710  137.7890 C   0  0  1  0  0  3  0  0  0  0  0  0
  188.5890  176.4080  138.8890 N   0  0  0  0  0  2  0  0  0  0  0  0
  187.5120  177.5140  142.8850 C   0  0  1  0  0  3  0  0  0  0  0  0
  189.6610  176.8990  139.7430 C   0  0  0  0  0  2  0  0  0  0  0  0
  183.4220  177.3610  140.5670 C   0  0  2  0  0  3  0  0  0  0  0  0
  182.4970  176.8500  136.5480 C   0  0  2  0  0  3  0  0  0  0  0  0
  180.7780  181.1820  139.1270 C   0  0  1  0  0  3  0  0  0  0  0  0
  180.1340  178.9490  137.3700 C   0  0  0  0  0  2  0  0  0  0  0  0
  182.3510  178.4490  140.4600 C   0  0  0  0  0  2  0  0  0  0  0  0
  182.0380  175.8990  138.8950 C   0  0  0  0  0  0  0  0  0  0  0  0
  189.0900  177.6920  140.9040 C   0  0  0  0  0  2  0  0  0  0  0  0
  186.4450  178.3360  142.1670 C   0  0  1  0  0  3  0  0  0  0  0  0
  180.3040  181.4290  137.6940 C   0  0  1  0  0  3  0  0  0  0  0  0
  184.6830  177.9580  140.6330 O   0  0  0  0  0  0  0  0  0  0  0  0
  182.1780  180.5680  139.1950 C   0  0  1  0  0  3  0  0  0  0  0  0
  183.7620  177.6970  136.6730 C   0  0  0  0  0  2  0  0  0  0  0  0
  183.4100  176.3000  139.4550 C   0  0  0  0  0  2  0  0  0  0  0  0
  185.3010  177.4190  141.7640 C   0  0  2  0  0  3  0  0  0  0  0  0
  181.0860  175.8420  139.9180 O   0  0  0  0  0  1  0  0  0  0  0  0
  188.2830  178.4240  137.7730 O   0  0  0  0  0  0  0  0  0  0  0  0
  180.6150  180.2550  136.7660 C   0  0  2  0  0  3  0  0  0  0  0  0
  188.3660  176.7580  141.8650 C   0  0  0  0  0  2  0  0  0  0  0  0
  180.7570  182.3850  139.8380 O   0  0  0  0  0  1  0  0  0  0  0  0
  181.1530  178.2650  138.2930 C   0  0  2  0  0  3  0  0  0  0  0  0
  185.1470  178.3550  142.9530 C   0  0  0  0  0  2  0  0  0  0  0  0
  184.8110  177.2300  135.6770 C   0  0  0  0  0  2  0  0  0  0  0  0
  187.0980  175.3460  136.5470 C   0  0  0  0  0  1  0  0  0  0  0  0
  187.9090  177.2300  137.9460 C   0  0  0  0  0  0  0  0  0  0  0  0
  182.2500  179.0400  139.0680 C   0  0  2  0  0  3  0  0  0  0  0  0
  183.0670  181.1870  138.3130 O   0  0  0  0  0  1  0  0  0  0  0  0
  186.7270  176.6730  137.1970 C   0  0  1  0  0  3  0  0  0  0  0  0
  178.9310  181.6930  137.7020 O   0  0  0  0  0  1  0  0  0  0  0  0
  186.1960  177.6430  136.1420 C   0  0  0  0  0  2  0  0  0  0  0  0
  188.3500  178.3940  143.8390 C   0  0  2  0  0  3  0  0  0  0  0  0
  189.3400  179.2960  143.1320 C   0  0  0  0  0  2  0  0  0  0  0  0
  189.2070  177.6420  144.8430 C   0  0  2  0  0  0  0  0  0  0  0  0
  190.3110  178.6330  145.1670 C   0  0  0  0  0  2  0  0  0  0  0  0
  190.4710  179.5370  144.0230 N   0  0  0  0  0  0  0  0  0  0  0  0
  192.7610  179.0630  144.2000 O   0  0  0  0  0  1  0  0  0  0  0  0
  191.6930  179.1710  143.3030 C   0  0  0  0  0  3  0  0  0  0  0  0
  191.5280  177.9450  142.6490 O   0  0  0  0  0  1  0  0  0  0  0  0
  189.8280  176.3760  144.2170 C   0  0  0  0  0  2  0  0  0  0  0  0
  191.1020  175.9080  144.8440 C   0  0  0  0  0  0  0  0  0  0  0  0
  191.3450  176.0880  146.1990 O   0  0  0  0  0  1  0  0  0  0  0  0
  191.9350  175.2740  144.1500 O   0  0  0  0  0  0  0  0  0  0  0  0
  188.4510  177.2830  146.0050 O   0  0  0  0  0  0  0  0  0  0  0  0
  187.2710  177.8950  146.4590 C   0  0  0  0  0  0  0  0  0  0  0  0
  184.8640  178.1090  146.5770 C   0  0  0  0  0  3  0  0  0  0  0  0
  185.0010  179.1650  147.4220 N   0  0  0  0  0  0  0  0  0  0  0  0
  186.2250  179.6090  147.8050 C   0  0  0  0  0  3  0  0  0  0  0  0
  185.9960  177.4540  146.0770 C   0  0  0  0  0  3  0  0  0  0  0  0
  187.3800  178.9810  147.3290 C   0  0  0  0  0  3  0  0  0  0  0  0
  181.7270  178.1340  134.7070 O   0  0  0  0  0  0  0  0  0  0  0  0
  181.7510  177.0400  135.2470 C   0  0  0  0  0  0  0  0  0  0  0  0
  179.5030  176.0660  134.8460 C   0  0  0  0  0  1  0  0  0  0  0  0
  180.9970  175.9020  134.6170 C   0  0  2  0  0  3  0  0  0  0  0  0
  180.3400  173.7660  135.7040 C   0  0  0  0  0  1  0  0  0  0  0  0
  181.4890  174.5660  135.1360 C   0  0  0  0  0  2  0  0  0  0  0  0
  1 12  1  0  0  0  0
  3 26  1  0  0  0  0
  3 12  1  1  0  0  0
  4  6  1  0  0  0  0
  5 24  1  6  0  0  0
  5 36  1  0  0  0  0
  6 13  1  0  0  0  0
  7 19  1  6  0  0  0
  7 16  1  0  0  0  0
  8 56  1  6  0  0  0
  8 18  1  0  0  0  0
  8  3  1  0  0  0  0
  9 17  1  0  0  0  0
  9 25  1  1  0  0  0
 11  7  1  0  0  0  0
 12 19  1  0  0  0  0
 12 21  1  0  0  0  0
 13 24  1  0  0  0  0
 14  5  1  0  0  0  0
 14 27  1  1  0  0  0
 15 34  1  1  0  0  0
 15  9  1  0  0  0  0
 16 20  1  0  0  0  0
 17 32  1  6  0  0  0
 20 14  1  0  0  0  0
 20 27  1  1  0  0  0
 22 30  2  0  0  0  0
 23  2  1  6  0  0  0
 23 10  1  0  0  0  0
 23 15  1  0  0  0  0
 26 10  1  6  0  0  0
 26 31  1  0  0  0  0
 28 35  1  0  0  0  0
 28 18  1  0  0  0  0
 30  4  1  0  0  0  0
 31 17  1  0  0  0  0
 31 11  1  1  0  0  0
 33 29  1  6  0  0  0
 33 30  1  0  0  0  0
 35 33  1  0  0  0  0
 36 37  1  6  0  0  0
 36 38  1  0  0  0  0
 37 40  1  0  0  0  0
 38 44  1  6  0  0  0
 38 39  1  0  0  0  0
 38 48  1  0  0  0  0
 40 39  1  0  0  0  0
 42 40  1  0  0  0  0
 42 41  1  0  0  0  0
 43 42  1  0  0  0  0
 44 45  1  0  0  0  0
 45 46  1  0  0  0  0
 47 45  2  0  0  0  0
 48 49  1  0  0  0  0
 49 54  1  0  0  0  0
 50 51  2  0  0  0  0
 51 52  1  0  0  0  0
 53 49  2  0  0  0  0
 53 50  1  0  0  0  0
 54 52  2  0  0  0  0
 55 56  2  0  0  0  0
 58 57  1  1  0  0  0
 58 60  1  0  0  0  0
 58 56  1  0  0  0  0
 60 59  1  0  0  0  0
M  END
>  <MODEL>
3

>  <REMARK>
 VINA RESULT:      -2.5      3.730     10.086
  Name = 
  9 active torsions:
  status: ('A' for Active; 'I' for Inactive)
    1  A    between atoms: C_1  and  C_7
    2  A    between atoms: C_10  and  C_35
    3  A    between atoms: C_11  and  C_33
    4  A    between atoms: C_11  and  O_46
    5  A    between atoms: C_16  and  C_33
    6  A    between atoms: C_28  and  O_46
    7  A    between atoms: C_34  and  C_52
    8  A    between atoms: C_35  and  C_52
    9  A    between atoms: C_47  and  N_56
                            x       y       z     vdW  Elec       q    Type
                         _______ _______ _______ _____ _____    ______ ____

>  <TORSDO>
F 9

$$$$
