=
 OpenBabel11062413133D

 42 47  0  0  1  0  0  0  0  0999 V2000
  187.9060  178.0060  148.7170 C   0  0  0  0  0  0  0  0  0  0  0  0
  188.9420  178.2270  146.0390 C   0  0  1  0  0  3  0  0  0  0  0  0
  187.4320  177.9820  146.2530 C   0  0  1  0  0  3  0  0  0  0  0  0
  189.3960  177.9700  148.4830 C   0  0  0  0  0  2  0  0  0  0  0  0
  187.0290  178.0870  147.7050 C   0  0  0  0  0  3  0  0  0  0  0  0
  187.4490  178.1150  149.9900 F   0  0  0  0  0  0  0  0  0  0  0  0
  189.7510  177.4690  147.0880 C   0  0  0  0  0  2  0  0  0  0  0  0
  190.8800  175.0380  142.9870 Cl  0  0  0  0  0  0  0  0  0  0  0  0
  190.1590  178.7940  143.8630 C   0  0  0  0  0  3  0  0  0  0  0  0
  189.9600  177.3300  141.9730 N   0  0  0  0  0  0  0  0  0  0  0  0
  189.5270  176.1880  142.7940 C   0  0  2  0  0  3  0  0  0  0  0  0
  189.3890  177.8270  144.6640 C   0  0  0  0  0  0  0  0  0  0  0  0
  189.0580  176.6290  144.1530 C   0  0  0  0  0  3  0  0  0  0  0  0
  190.4150  178.5500  142.5790 C   0  0  0  0  0  3  0  0  0  0  0  0
  190.0910  177.1340  140.2600 S   0  0  0  0  0  0  0  0  0  0  0  0
  191.1630  178.0480  139.7300 O   0  0  0  0  0  0  0  0  0  0  0  0
  190.4440  175.7060  139.9480 O   0  0  0  0  0  0  0  0  0  0  0  0
  188.5770  177.5480  139.5270 N   0  0  0  0  0  2  0  0  0  0  0  0
  187.4120  176.3580  136.2010 C   0  0  2  0  0  3  0  0  0  0  0  0
  187.8620  176.1610  137.6370 C   0  0  0  0  0  2  0  0  0  0  0  0
  185.9310  177.4980  134.9670 O   0  0  0  0  0  0  0  0  0  0  0  0
  189.0150  179.7240  137.6360 O   0  0  0  0  0  0  0  0  0  0  0  0
  186.5680  177.5600  136.1920 C   0  0  2  0  0  3  0  0  0  0  0  0
  186.5790  175.3750  135.6990 O   0  0  0  0  0  0  0  0  0  0  0  0
  185.7720  176.1020  134.7870 C   0  0  0  0  0  2  0  0  0  0  0  0
  188.7100  177.3760  138.0880 C   0  0  1  0  0  3  0  0  0  0  0  0
  188.3640  178.6770  137.3750 C   0  0  0  0  0  0  0  0  0  0  0  0
  187.3940  178.7000  136.3620 O   0  0  0  0  0  0  0  0  0  0  0  0
  186.5770  178.9550  145.4400 C   0  0  0  0  0  2  0  0  0  0  0  0
  186.0110  178.9880  140.9380 C   0  0  0  0  0  3  0  0  0  0  0  0
  185.1240  178.6090  145.5360 C   0  0  0  0  0  0  0  0  0  0  0  0
  182.5810  179.2240  140.1380 O   0  0  0  0  0  0  0  0  0  0  0  0
  186.4690  177.4020  142.6490 O   0  0  0  0  0  1  0  0  0  0  0  0
  184.6150  178.8350  143.0250 C   0  0  0  0  0  0  0  0  0  0  0  0
  183.5340  178.9630  142.2960 C   0  0  0  0  0  0  0  0  0  0  0  0
  182.7960  178.7590  144.4700 C   0  0  0  0  0  3  0  0  0  0  0  0
  184.9210  179.1510  140.2390 N   0  0  0  0  0  0  0  0  0  0  0  0
  182.3520  178.9460  143.0850 N   0  0  0  0  0  0  0  0  0  0  0  0
  183.6180  179.1110  140.8440 C   0  0  0  0  0  0  0  0  0  0  0  0
  185.9950  178.6980  142.4300 C   0  0  2  0  0  3  0  0  0  0  0  0
  184.2560  178.7070  144.3970 N   0  0  0  0  0  0  0  0  0  0  0  0
  184.6550  178.2520  146.6530 O   0  0  0  0  0  0  0  0  0  0  0  0
  1  6  1  0  0  0  0
  2 12  1  6  0  0  0
  2  3  1  0  0  0  0
  2  7  1  0  0  0  0
  3 29  1  6  0  0  0
  3  5  1  0  0  0  0
  4  1  1  0  0  0  0
  5  1  2  0  0  0  0
  7  4  1  0  0  0  0
  9 12  1  0  0  0  0
 10 14  1  0  0  0  0
 10 11  1  0  0  0  0
 11  8  1  1  0  0  0
 11 13  1  0  0  0  0
 13 12  2  0  0  0  0
 14  9  2  0  0  0  0
 15 10  1  0  0  0  0
 16 15  2  0  0  0  0
 17 15  2  0  0  0  0
 18 15  1  0  0  0  0
 19 20  1  1  0  0  0
 20 26  1  0  0  0  0
 23 21  1  6  0  0  0
 23 19  1  0  0  0  0
 23 28  1  0  0  0  0
 24 19  1  0  0  0  0
 25 21  1  0  0  0  0
 25 24  1  0  0  0  0
 26 18  1  1  0  0  0
 27 22  2  0  0  0  0
 27 26  1  0  0  0  0
 28 27  1  0  0  0  0
 29 31  1  0  0  0  0
 30 40  1  0  0  0  0
 31 42  2  0  0  0  0
 32 39  2  0  0  0  0
 34 41  1  0  0  0  0
 35 34  2  0  0  0  0
 35 38  1  0  0  0  0
 37 39  1  0  0  0  0
 37 30  2  0  0  0  0
 38 36  2  0  0  0  0
 39 35  1  0  0  0  0
 40 33  1  6  0  0  0
 40 34  1  0  0  0  0
 41 36  1  0  0  0  0
 41 31  1  0  0  0  0
M  END
>  <MODEL>
1

>  <REMARK>
 VINA RESULT:      -9.5      0.000      0.000
  Name = 
  6 active torsions:
  status: ('A' for Active; 'I' for Inactive)
    1  A    between atoms: C_7  and  C_24
    2  A    between atoms: C_10  and  C_31
    3  A    between atoms: N_11  and  S_13
    4  A    between atoms: S_13  and  N_25
    5  A    between atoms: C_18  and  C_31
    6  A    between atoms: N_25  and  C_32
                            x       y       z     vdW  Elec       q    Type
                         _______ _______ _______ _____ _____    ______ ____

>  <TORSDO>
F 6

$$$$
=
 OpenBabel11062413133D

 42 47  0  0  1  0  0  0  0  0999 V2000
  189.4460  177.5850  147.3390 C   0  0  0  0  0  0  0  0  0  0  0  0
  187.0100  177.5290  145.8040 C   0  0  1  0  0  3  0  0  0  0  0  0
  188.3390  177.8960  145.1080 C   0  0  1  0  0  3  0  0  0  0  0  0
  188.1160  177.4990  148.0440 C   0  0  0  0  0  2  0  0  0  0  0  0
  189.5370  177.6890  146.0030 C   0  0  0  0  0  3  0  0  0  0  0  0
  190.5800  177.3960  148.0590 F   0  0  0  0  0  0  0  0  0  0  0  0
  186.9830  178.0990  147.2200 C   0  0  0  0  0  2  0  0  0  0  0  0
  185.0360  179.5540  141.9000 Cl  0  0  0  0  0  0  0  0  0  0  0  0
  184.7980  178.8120  145.7450 C   0  0  0  0  0  3  0  0  0  0  0  0
  183.3920  178.6670  143.8070 N   0  0  0  0  0  0  0  0  0  0  0  0
  184.4880  178.2090  142.9390 C   0  0  2  0  0  3  0  0  0  0  0  0
  185.8170  178.0170  145.0360 C   0  0  0  0  0  0  0  0  0  0  0  0
  185.6530  177.7000  143.7410 C   0  0  0  0  0  3  0  0  0  0  0  0
  183.6430  179.1060  145.1520 C   0  0  0  0  0  3  0  0  0  0  0  0
  181.8080  178.8500  143.1380 S   0  0  0  0  0  0  0  0  0  0  0  0
  180.8140  178.1040  143.9860 O   0  0  0  0  0  0  0  0  0  0  0  0
  181.4480  180.3100  143.1030 O   0  0  0  0  0  0  0  0  0  0  0  0
  181.7930  178.1940  141.5350 N   0  0  0  0  0  2  0  0  0  0  0  0
  180.6250  179.7580  138.3690 C   0  0  2  0  0  3  0  0  0  0  0  0
  181.5990  179.5720  139.5170 C   0  0  0  0  0  2  0  0  0  0  0  0
  179.5360  178.6050  136.7880 O   0  0  0  0  0  0  0  0  0  0  0  0
  178.9470  177.6090  141.2880 O   0  0  0  0  0  0  0  0  0  0  0  0
  180.1360  178.4180  138.0190 C   0  0  2  0  0  3  0  0  0  0  0  0
  181.1800  180.2180  137.1880 O   0  0  0  0  0  0  0  0  0  0  0  0
  180.3520  179.6090  136.2100 C   0  0  0  0  0  2  0  0  0  0  0  0
  180.8570  178.9720  140.7370 C   0  0  1  0  0  3  0  0  0  0  0  0
  179.6490  178.1190  140.3740 C   0  0  0  0  0  0  0  0  0  0  0  0
  179.2540  177.9740  139.0350 O   0  0  0  0  0  0  0  0  0  0  0  0
  188.5480  177.0960  143.8230 C   0  0  0  0  0  2  0  0  0  0  0  0
  187.3530  178.2920  139.6120 C   0  0  0  0  0  3  0  0  0  0  0  0
  189.9670  177.1840  143.3550 C   0  0  0  0  0  0  0  0  0  0  0  0
  190.0510  177.8030  137.3890 O   0  0  0  0  0  0  0  0  0  0  0  0
  187.9880  179.3600  141.6390 O   0  0  0  0  0  1  0  0  0  0  0  0
  189.4210  177.6260  140.8810 C   0  0  0  0  0  0  0  0  0  0  0  0
  190.0780  177.5610  139.7500 C   0  0  0  0  0  0  0  0  0  0  0  0
  191.6050  177.0140  141.3880 C   0  0  0  0  0  3  0  0  0  0  0  0
  188.0220  178.1830  138.4960 N   0  0  0  0  0  0  0  0  0  0  0  0
  191.4330  177.1760  139.9410 N   0  0  0  0  0  0  0  0  0  0  0  0
  189.4210  177.8550  138.4780 C   0  0  0  0  0  0  0  0  0  0  0  0
  188.0010  178.1290  140.9770 C   0  0  2  0  0  3  0  0  0  0  0  0
  190.2890  177.2960  141.9610 N   0  0  0  0  0  0  0  0  0  0  0  0
  190.8950  177.1280  144.2100 O   0  0  0  0  0  0  0  0  0  0  0  0
  1  4  1  0  0  0  0
  1  6  1  0  0  0  0
  2 12  1  6  0  0  0
  2  7  1  0  0  0  0
  3 29  1  6  0  0  0
  3  2  1  0  0  0  0
  3  5  1  0  0  0  0
  5  1  2  0  0  0  0
  7  4  1  0  0  0  0
 10 14  1  0  0  0  0
 11  8  1  1  0  0  0
 11 13  1  0  0  0  0
 11 10  1  0  0  0  0
 12  9  1  0  0  0  0
 13 12  2  0  0  0  0
 14  9  2  0  0  0  0
 15 10  1  0  0  0  0
 15 16  2  0  0  0  0
 17 15  2  0  0  0  0
 18 15  1  0  0  0  0
 19 20  1  1  0  0  0
 20 26  1  0  0  0  0
 23 21  1  6  0  0  0
 23 19  1  0  0  0  0
 23 28  1  0  0  0  0
 24 19  1  0  0  0  0
 25 21  1  0  0  0  0
 25 24  1  0  0  0  0
 26 18  1  6  0  0  0
 27 26  1  0  0  0  0
 27 22  2  0  0  0  0
 28 27  1  0  0  0  0
 30 40  1  0  0  0  0
 31 29  1  0  0  0  0
 31 42  2  0  0  0  0
 32 39  2  0  0  0  0
 34 40  1  0  0  0  0
 34 41  1  0  0  0  0
 35 38  1  0  0  0  0
 35 34  2  0  0  0  0
 36 41  1  0  0  0  0
 37 30  2  0  0  0  0
 38 36  2  0  0  0  0
 39 37  1  0  0  0  0
 39 35  1  0  0  0  0
 40 33  1  6  0  0  0
 41 31  1  0  0  0  0
M  END
>  <MODEL>
2

>  <REMARK>
 VINA RESULT:      -9.4      3.176      6.630
  Name = 
  6 active torsions:
  status: ('A' for Active; 'I' for Inactive)
    1  A    between atoms: C_7  and  C_24
    2  A    between atoms: C_10  and  C_31
    3  A    between atoms: N_11  and  S_13
    4  A    between atoms: S_13  and  N_25
    5  A    between atoms: C_18  and  C_31
    6  A    between atoms: N_25  and  C_32
                            x       y       z     vdW  Elec       q    Type
                         _______ _______ _______ _____ _____    ______ ____

>  <TORSDO>
F 6

$$$$
=
 OpenBabel11062413133D

 42 47  0  0  1  0  0  0  0  0999 V2000
  187.8690  177.9210  148.6630 C   0  0  0  0  0  0  0  0  0  0  0  0
  188.8310  178.1900  145.9620 C   0  0  1  0  0  3  0  0  0  0  0  0
  187.3220  177.9820  146.2140 C   0  0  1  0  0  3  0  0  0  0  0  0
  189.3500  177.8500  148.3820 C   0  0  0  0  0  2  0  0  0  0  0  0
  186.9650  178.0560  147.6790 C   0  0  0  0  0  3  0  0  0  0  0  0
  187.4530  178.0060  149.9510 F   0  0  0  0  0  0  0  0  0  0  0  0
  189.6490  177.3790  146.9640 C   0  0  0  0  0  2  0  0  0  0  0  0
  190.9160  175.1890  142.8170 Cl  0  0  0  0  0  0  0  0  0  0  0  0
  189.8200  178.8520  143.6970 C   0  0  0  0  0  3  0  0  0  0  0  0
  189.6640  177.3360  141.8450 N   0  0  0  0  0  0  0  0  0  0  0  0
  189.4270  176.1690  142.7070 C   0  0  2  0  0  3  0  0  0  0  0  0
  189.2270  177.8170  144.5630 C   0  0  0  0  0  0  0  0  0  0  0  0
  189.0050  176.5790  144.0910 C   0  0  0  0  0  3  0  0  0  0  0  0
  190.0130  178.6140  142.4020 C   0  0  0  0  0  3  0  0  0  0  0  0
  189.6990  177.1230  140.1290 S   0  0  0  0  0  0  0  0  0  0  0  0
  188.3610  176.6210  139.6560 O   0  0  0  0  0  0  0  0  0  0  0  0
  190.0060  178.4400  139.4700 O   0  0  0  0  0  0  0  0  0  0  0  0
  190.9170  175.9580  139.7300 N   0  0  0  0  0  2  0  0  0  0  0  0
  193.3020  176.1430  136.8810 C   0  0  2  0  0  3  0  0  0  0  0  0
  192.7130  176.6170  138.1970 C   0  0  0  0  0  2  0  0  0  0  0  0
  194.1330  174.3160  135.8880 O   0  0  0  0  0  0  0  0  0  0  0  0
  189.8020  174.3450  137.5710 O   0  0  0  0  0  0  0  0  0  0  0  0
  193.3010  174.6750  136.9310 C   0  0  2  0  0  3  0  0  0  0  0  0
  194.6340  176.4580  136.6790 O   0  0  0  0  0  0  0  0  0  0  0  0
  195.0850  175.3660  135.8940 C   0  0  0  0  0  2  0  0  0  0  0  0
  191.2520  176.1180  138.3220 C   0  0  1  0  0  3  0  0  0  0  0  0
  190.9670  174.8250  137.5700 C   0  0  0  0  0  0  0  0  0  0  0  0
  191.9670  174.2150  136.7960 O   0  0  0  0  0  0  0  0  0  0  0  0
  186.4730  179.0010  145.4550 C   0  0  0  0  0  2  0  0  0  0  0  0
  186.0140  178.9790  140.9400 C   0  0  0  0  0  3  0  0  0  0  0  0
  185.0190  178.6500  145.5200 C   0  0  0  0  0  0  0  0  0  0  0  0
  182.6030  179.1910  140.0570 O   0  0  0  0  0  0  0  0  0  0  0  0
  186.4370  177.4150  142.6810 O   0  0  0  0  0  1  0  0  0  0  0  0
  184.5690  178.8450  142.9950 C   0  0  0  0  0  0  0  0  0  0  0  0
  183.5050  178.9600  142.2400 C   0  0  0  0  0  0  0  0  0  0  0  0
  182.7160  178.7780  144.3970 C   0  0  0  0  0  3  0  0  0  0  0  0
  184.9400  179.1290  140.2140 N   0  0  0  0  0  0  0  0  0  0  0  0
  182.3050  178.9460  143.0000 N   0  0  0  0  0  0  0  0  0  0  0  0
  183.6230  179.0910  140.7880 C   0  0  0  0  0  0  0  0  0  0  0  0
  185.9630  178.7070  142.4350 C   0  0  2  0  0  3  0  0  0  0  0  0
  184.1780  178.7310  144.3600 N   0  0  0  0  0  0  0  0  0  0  0  0
  184.5250  178.3040  146.6290 O   0  0  0  0  0  0  0  0  0  0  0  0
  1  6  1  0  0  0  0
  2 12  1  6  0  0  0
  2  3  1  0  0  0  0
  2  7  1  0  0  0  0
  3 29  1  6  0  0  0
  3  5  1  0  0  0  0
  4  1  1  0  0  0  0
  5  1  2  0  0  0  0
  7  4  1  0  0  0  0
  9 12  1  0  0  0  0
 10 14  1  0  0  0  0
 10 11  1  0  0  0  0
 11  8  1  1  0  0  0
 11 13  1  0  0  0  0
 13 12  2  0  0  0  0
 14  9  2  0  0  0  0
 15 10  1  0  0  0  0
 16 15  2  0  0  0  0
 17 15  2  0  0  0  0
 18 15  1  0  0  0  0
 19 23  1  0  0  0  0
 19 20  1  1  0  0  0
 20 26  1  0  0  0  0
 21 25  1  0  0  0  0
 23 21  1  6  0  0  0
 24 19  1  0  0  0  0
 25 24  1  0  0  0  0
 26 18  1  1  0  0  0
 27 22  2  0  0  0  0
 27 26  1  0  0  0  0
 28 23  1  0  0  0  0
 28 27  1  0  0  0  0
 29 31  1  0  0  0  0
 30 40  1  0  0  0  0
 31 42  2  0  0  0  0
 32 39  2  0  0  0  0
 34 41  1  0  0  0  0
 35 34  2  0  0  0  0
 35 38  1  0  0  0  0
 37 39  1  0  0  0  0
 37 30  2  0  0  0  0
 38 36  2  0  0  0  0
 39 35  1  0  0  0  0
 40 33  1  6  0  0  0
 40 34  1  0  0  0  0
 41 36  1  0  0  0  0
 41 31  1  0  0  0  0
M  END
>  <MODEL>
3

>  <REMARK>
 VINA RESULT:      -9.2      2.357      3.361
  Name = 
  6 active torsions:
  status: ('A' for Active; 'I' for Inactive)
    1  A    between atoms: C_7  and  C_24
    2  A    between atoms: C_10  and  C_31
    3  A    between atoms: N_11  and  S_13
    4  A    between atoms: S_13  and  N_25
    5  A    between atoms: C_18  and  C_31
    6  A    between atoms: N_25  and  C_32
                            x       y       z     vdW  Elec       q    Type
                         _______ _______ _______ _____ _____    ______ ____

>  <TORSDO>
F 6

$$$$
=
 OpenBabel11062413133D

 42 47  0  0  1  0  0  0  0  0999 V2000
  191.1010  176.0100  146.8880 C   0  0  0  0  0  0  0  0  0  0  0  0
  190.6780  177.2570  144.3270 C   0  0  1  0  0  3  0  0  0  0  0  0
  189.4770  177.0330  145.2720 C   0  0  1  0  0  3  0  0  0  0  0  0
  192.1980  175.9890  145.8520 C   0  0  0  0  0  2  0  0  0  0  0  0
  189.8990  176.5530  146.6400 C   0  0  0  0  0  3  0  0  0  0  0  0
  191.3900  175.6100  148.1520 F   0  0  0  0  0  0  0  0  0  0  0  0
  191.6540  176.0880  144.4320 C   0  0  0  0  0  2  0  0  0  0  0  0
  191.5280  176.9660  139.5910 Cl  0  0  0  0  0  0  0  0  0  0  0  0
  189.5620  178.6820  142.5200 C   0  0  0  0  0  3  0  0  0  0  0  0
  189.0900  177.7220  140.3730 N   0  0  0  0  0  0  0  0  0  0  0  0
  190.0600  176.6310  140.5510 C   0  0  2  0  0  3  0  0  0  0  0  0
  190.2490  177.4350  142.9000 C   0  0  0  0  0  0  0  0  0  0  0  0
  190.4440  176.4620  141.9950 C   0  0  0  0  0  3  0  0  0  0  0  0
  189.0050  178.8020  141.3170 C   0  0  0  0  0  3  0  0  0  0  0  0
  188.1660  177.7990  138.9130 S   0  0  0  0  0  0  0  0  0  0  0  0
  188.5430  179.0350  138.1430 O   0  0  0  0  0  0  0  0  0  0  0  0
  188.4480  176.5780  138.0810 O   0  0  0  0  0  0  0  0  0  0  0  0
  186.4830  177.8710  139.3150 N   0  0  0  0  0  2  0  0  0  0  0  0
  184.2550  177.1750  136.4180 C   0  0  2  0  0  3  0  0  0  0  0  0
  185.5230  177.0010  137.2330 C   0  0  0  0  0  2  0  0  0  0  0  0
  182.0240  177.1020  136.6070 O   0  0  0  0  0  0  0  0  0  0  0  0
  184.5340  180.0370  139.1910 O   0  0  0  0  0  0  0  0  0  0  0  0
  183.1530  177.2830  137.3840 C   0  0  2  0  0  3  0  0  0  0  0  0
  183.8960  176.0890  135.6390 O   0  0  0  0  0  0  0  0  0  0  0  0
  182.4800  176.1790  135.6340 C   0  0  0  0  0  2  0  0  0  0  0  0
  185.7490  178.2530  138.1170 C   0  0  1  0  0  3  0  0  0  0  0  0
  184.4690  178.9830  138.5030 C   0  0  0  0  0  0  0  0  0  0  0  0
  183.2260  178.5480  138.0190 O   0  0  0  0  0  0  0  0  0  0  0  0
  188.6410  178.3020  145.4390 C   0  0  0  0  0  2  0  0  0  0  0  0
  185.4050  178.5020  142.2640 C   0  0  0  0  0  3  0  0  0  0  0  0
  187.5390  178.0970  146.4300 C   0  0  0  0  0  0  0  0  0  0  0  0
  182.2620  179.0920  143.7570 O   0  0  0  0  0  0  0  0  0  0  0  0
  186.6790  176.8370  143.3850 O   0  0  0  0  0  1  0  0  0  0  0  0
  185.6020  178.4350  144.7710 C   0  0  0  0  0  0  0  0  0  0  0  0
  184.3200  178.6850  144.8660 C   0  0  0  0  0  0  0  0  0  0  0  0
  185.0780  178.5000  147.0350 C   0  0  0  0  0  3  0  0  0  0  0  0
  184.1380  178.7880  142.3870 N   0  0  0  0  0  0  0  0  0  0  0  0
  183.8890  178.7640  146.2180 N   0  0  0  0  0  0  0  0  0  0  0  0
  183.4960  178.8610  143.6710 C   0  0  0  0  0  0  0  0  0  0  0  0
  186.2940  178.1790  143.4550 C   0  0  2  0  0  3  0  0  0  0  0  0
  186.1640  178.3080  146.0740 N   0  0  0  0  0  0  0  0  0  0  0  0
  187.8350  177.7600  147.6110 O   0  0  0  0  0  0  0  0  0  0  0  0
  1  6  1  0  0  0  0
  2 12  1  6  0  0  0
  2  7  1  0  0  0  0
  2  3  1  0  0  0  0
  3 29  1  1  0  0  0
  3  5  1  0  0  0  0
  4  1  1  0  0  0  0
  5  1  2  0  0  0  0
  7  4  1  0  0  0  0
  9 12  1  0  0  0  0
 10 11  1  0  0  0  0
 10 14  1  0  0  0  0
 11  8  1  6  0  0  0
 11 13  1  0  0  0  0
 13 12  2  0  0  0  0
 14  9  2  0  0  0  0
 15 18  1  0  0  0  0
 15 10  1  0  0  0  0
 16 15  2  0  0  0  0
 17 15  2  0  0  0  0
 19 20  1  1  0  0  0
 19 23  1  0  0  0  0
 20 26  1  0  0  0  0
 23 21  1  6  0  0  0
 23 28  1  0  0  0  0
 24 19  1  0  0  0  0
 25 24  1  0  0  0  0
 25 21  1  0  0  0  0
 26 27  1  0  0  0  0
 26 18  1  1  0  0  0
 27 22  2  0  0  0  0
 28 27  1  0  0  0  0
 29 31  1  0  0  0  0
 30 37  2  0  0  0  0
 30 40  1  0  0  0  0
 31 42  2  0  0  0  0
 34 35  2  0  0  0  0
 34 41  1  0  0  0  0
 35 38  1  0  0  0  0
 37 39  1  0  0  0  0
 38 36  2  0  0  0  0
 39 32  2  0  0  0  0
 39 35  1  0  0  0  0
 40 33  1  1  0  0  0
 40 34  1  0  0  0  0
 41 31  1  0  0  0  0
 41 36  1  0  0  0  0
M  END
>  <MODEL>
4

>  <REMARK>
 VINA RESULT:      -9.2      2.313      3.092
  Name = 
  6 active torsions:
  status: ('A' for Active; 'I' for Inactive)
    1  A    between atoms: C_7  and  C_24
    2  A    between atoms: C_10  and  C_31
    3  A    between atoms: N_11  and  S_13
    4  A    between atoms: S_13  and  N_25
    5  A    between atoms: C_18  and  C_31
    6  A    between atoms: N_25  and  C_32
                            x       y       z     vdW  Elec       q    Type
                         _______ _______ _______ _____ _____    ______ ____

>  <TORSDO>
F 6

$$$$
=
 OpenBabel11062413133D

 42 47  0  0  1  0  0  0  0  0999 V2000
  187.0030  174.4840  135.7280 C   0  0  0  0  0  0  0  0  0  0  0  0
  184.6990  176.0180  136.5250 C   0  0  1  0  0  3  0  0  0  0  0  0
  186.0680  176.3060  137.1800 C   0  0  1  0  0  3  0  0  0  0  0  0
  185.6230  174.0410  135.3080 C   0  0  0  0  0  2  0  0  0  0  0  0
  187.1970  175.5560  136.5130 C   0  0  0  0  0  3  0  0  0  0  0  0
  188.0810  173.8780  135.1700 F   0  0  0  0  0  0  0  0  0  0  0  0
  184.5430  174.5210  136.2700 C   0  0  0  0  0  2  0  0  0  0  0  0
  180.7550  175.2290  139.1830 Cl  0  0  0  0  0  0  0  0  0  0  0  0
  182.7910  177.6810  136.8950 C   0  0  0  0  0  3  0  0  0  0  0  0
  181.6560  177.7360  139.0070 N   0  0  0  0  0  0  0  0  0  0  0  0
  182.1020  176.3850  139.3810 C   0  0  2  0  0  3  0  0  0  0  0  0
  183.5570  176.5130  137.3640 C   0  0  0  0  0  0  0  0  0  0  0  0
  183.2650  175.9340  138.5400 C   0  0  0  0  0  3  0  0  0  0  0  0
  181.8960  178.2610  137.6910 C   0  0  0  0  0  3  0  0  0  0  0  0
  180.6710  178.6330  140.1090 S   0  0  0  0  0  0  0  0  0  0  0  0
  179.8060  179.5970  139.3430 O   0  0  0  0  0  0  0  0  0  0  0  0
  179.8020  177.6830  140.8880 O   0  0  0  0  0  0  0  0  0  0  0  0
  181.6960  179.5220  141.1860 N   0  0  0  0  0  2  0  0  0  0  0  0
  184.2010  178.2530  143.6260 C   0  0  2  0  0  3  0  0  0  0  0  0
  183.7010  178.5730  142.2300 C   0  0  0  0  0  2  0  0  0  0  0  0
  184.5000  179.1880  145.6390 O   0  0  0  0  0  0  0  0  0  0  0  0
  180.2840  179.0360  143.6910 O   0  0  0  0  0  0  0  0  0  0  0  0
  183.7510  179.3540  144.4890 C   0  0  2  0  0  3  0  0  0  0  0  0
  185.5760  178.2620  143.7820 O   0  0  0  0  0  0  0  0  0  0  0  0
  185.7220  178.6890  145.1270 C   0  0  0  0  0  2  0  0  0  0  0  0
  182.1530  178.6130  142.2280 C   0  0  1  0  0  3  0  0  0  0  0  0
  181.5370  179.0050  143.5650 C   0  0  0  0  0  0  0  0  0  0  0  0
  182.3520  179.2380  144.6840 O   0  0  0  0  0  0  0  0  0  0  0  0
  186.4020  177.7970  137.1670 C   0  0  0  0  0  2  0  0  0  0  0  0
  190.8050  177.0500  137.9720 C   0  0  0  0  0  3  0  0  0  0  0  0
  186.3350  178.3790  138.5450 C   0  0  0  0  0  0  0  0  0  0  0  0
  191.4600  177.2160  141.4360 O   0  0  0  0  0  0  0  0  0  0  0  0
  189.4280  178.8240  137.1910 O   0  0  0  0  0  1  0  0  0  0  0  0
  188.7480  177.7900  139.2160 C   0  0  0  0  0  0  0  0  0  0  0  0
  189.4120  177.7050  140.3410 C   0  0  0  0  0  0  0  0  0  0  0  0
  187.2960  178.4080  140.9230 C   0  0  0  0  0  3  0  0  0  0  0  0
  191.4340  176.9380  139.1100 N   0  0  0  0  0  0  0  0  0  0  0  0
  188.6110  178.0490  141.4630 N   0  0  0  0  0  0  0  0  0  0  0  0
  190.8140  177.2890  140.3580 C   0  0  0  0  0  0  0  0  0  0  0  0
  189.3920  177.6000  137.8640 C   0  0  2  0  0  3  0  0  0  0  0  0
  187.4140  178.2160  139.4780 N   0  0  0  0  0  0  0  0  0  0  0  0
  185.2920  178.9990  138.8950 O   0  0  0  0  0  0  0  0  0  0  0  0
  1  5  2  0  0  0  0
  2  3  1  0  0  0  0
  2 12  1  1  0  0  0
  3 29  1  6  0  0  0
  4  1  1  0  0  0  0
  4  7  1  0  0  0  0
  5  3  1  0  0  0  0
  6  1  1  0  0  0  0
  7  2  1  0  0  0  0
  9 12  1  0  0  0  0
  9 14  2  0  0  0  0
 10 11  1  0  0  0  0
 10 15  1  0  0  0  0
 11  8  1  6  0  0  0
 12 13  2  0  0  0  0
 13 11  1  0  0  0  0
 14 10  1  0  0  0  0
 15 17  2  0  0  0  0
 15 18  1  0  0  0  0
 16 15  2  0  0  0  0
 19 20  1  6  0  0  0
 19 24  1  0  0  0  0
 19 23  1  0  0  0  0
 23 28  1  1  0  0  0
 23 21  1  0  0  0  0
 24 25  1  0  0  0  0
 25 21  1  0  0  0  0
 26 18  1  6  0  0  0
 26 20  1  0  0  0  0
 26 27  1  0  0  0  0
 27 22  2  0  0  0  0
 27 28  1  0  0  0  0
 29 31  1  0  0  0  0
 30 37  2  0  0  0  0
 31 42  2  0  0  0  0
 31 41  1  0  0  0  0
 34 41  1  0  0  0  0
 34 35  2  0  0  0  0
 35 39  1  0  0  0  0
 35 38  1  0  0  0  0
 36 38  2  0  0  0  0
 37 39  1  0  0  0  0
 39 32  2  0  0  0  0
 40 33  1  1  0  0  0
 40 30  1  0  0  0  0
 40 34  1  0  0  0  0
 41 36  1  0  0  0  0
M  END
>  <MODEL>
5

>  <REMARK>
 VINA RESULT:      -8.8      4.143      9.306
  Name = 
  6 active torsions:
  status: ('A' for Active; 'I' for Inactive)
    1  A    between atoms: C_7  and  C_24
    2  A    between atoms: C_10  and  C_31
    3  A    between atoms: N_11  and  S_13
    4  A    between atoms: S_13  and  N_25
    5  A    between atoms: C_18  and  C_31
    6  A    between atoms: N_25  and  C_32
                            x       y       z     vdW  Elec       q    Type
                         _______ _______ _______ _____ _____    ______ ____

>  <TORSDO>
F 6

$$$$
=
 OpenBabel11062413133D

 42 47  0  0  1  0  0  0  0  0999 V2000
  188.7550  177.7510  146.7380 C   0  0  0  0  0  0  0  0  0  0  0  0
  186.5730  177.6510  144.8620 C   0  0  1  0  0  3  0  0  0  0  0  0
  187.9490  178.1780  144.4000 C   0  0  1  0  0  3  0  0  0  0  0  0
  187.3520  177.5030  147.2310 C   0  0  0  0  0  2  0  0  0  0  0  0
  189.0230  177.9810  145.4420 C   0  0  0  0  0  3  0  0  0  0  0  0
  189.7890  177.5840  147.6000 F   0  0  0  0  0  0  0  0  0  0  0  0
  186.2980  178.0880  146.2980 C   0  0  0  0  0  2  0  0  0  0  0  0
  184.9760  179.3780  140.6530 Cl  0  0  0  0  0  0  0  0  0  0  0  0
  184.4390  179.0190  144.5230 C   0  0  0  0  0  3  0  0  0  0  0  0
  183.1630  178.7520  142.5100 N   0  0  0  0  0  0  0  0  0  0  0  0
  184.2900  178.1640  141.7700 C   0  0  2  0  0  3  0  0  0  0  0  0
  185.4610  178.1160  143.9670 C   0  0  0  0  0  0  0  0  0  0  0  0
  185.3700  177.6830  142.6980 C   0  0  0  0  0  3  0  0  0  0  0  0
  183.3430  179.3060  143.8230 C   0  0  0  0  0  3  0  0  0  0  0  0
  181.6390  178.9400  141.7140 S   0  0  0  0  0  0  0  0  0  0  0  0
  180.6490  179.5600  142.6620 O   0  0  0  0  0  0  0  0  0  0  0  0
  181.8110  179.8270  140.5110 O   0  0  0  0  0  0  0  0  0  0  0  0
  181.0610  177.3810  141.2270 N   0  0  0  0  0  2  0  0  0  0  0  0
  181.9370  175.5460  138.1120 C   0  0  2  0  0  3  0  0  0  0  0  0
  182.2470  176.1530  139.4680 C   0  0  0  0  0  2  0  0  0  0  0  0
  180.5140  174.1420  137.1020 O   0  0  0  0  0  0  0  0  0  0  0  0
  178.9620  177.9410  139.2820 O   0  0  0  0  0  0  0  0  0  0  0  0
  180.5990  174.9490  138.2210 C   0  0  2  0  0  3  0  0  0  0  0  0
  182.7370  174.4800  137.7410 O   0  0  0  0  0  0  0  0  0  0  0  0
  181.8510  173.7000  136.9540 C   0  0  0  0  0  2  0  0  0  0  0  0
  181.2220  177.2700  139.7840 C   0  0  1  0  0  3  0  0  0  0  0  0
  179.8630  177.0750  139.1240 C   0  0  0  0  0  0  0  0  0  0  0  0
  179.6370  175.9900  138.2630 O   0  0  0  0  0  0  0  0  0  0  0  0
  188.4050  177.5130  143.1000 C   0  0  0  0  0  2  0  0  0  0  0  0
  187.9300  177.2670  138.5940 C   0  0  0  0  0  3  0  0  0  0  0  0
  189.8600  177.7580  142.8490 C   0  0  0  0  0  0  0  0  0  0  0  0
  191.0670  176.7550  137.0600 O   0  0  0  0  0  0  0  0  0  0  0  0
  187.9710  178.9460  140.2770 O   0  0  0  0  0  1  0  0  0  0  0  0
  189.7710  177.3990  140.3040 C   0  0  0  0  0  0  0  0  0  0  0  0
  190.6480  177.1670  139.3600 C   0  0  0  0  0  0  0  0  0  0  0  0
  191.8720  177.4010  141.2980 C   0  0  0  0  0  3  0  0  0  0  0  0
  188.8210  176.9990  137.6790 N   0  0  0  0  0  0  0  0  0  0  0  0
  191.9770  177.1300  139.8610 N   0  0  0  0  0  0  0  0  0  0  0  0
  190.2270  176.9690  137.9730 C   0  0  0  0  0  0  0  0  0  0  0  0
  188.3030  177.6110  140.0270 C   0  0  2  0  0  3  0  0  0  0  0  0
  190.4400  177.5540  141.5520 N   0  0  0  0  0  0  0  0  0  0  0  0
  190.5920  178.1230  143.8120 O   0  0  0  0  0  0  0  0  0  0  0  0
  1  4  1  0  0  0  0
  1  6  1  0  0  0  0
  2 12  1  6  0  0  0
  2  7  1  0  0  0  0
  3 29  1  6  0  0  0
  3  2  1  0  0  0  0
  3  5  1  0  0  0  0
  5  1  2  0  0  0  0
  7  4  1  0  0  0  0
 10 14  1  0  0  0  0
 11  8  1  6  0  0  0
 11 10  1  0  0  0  0
 11 13  1  0  0  0  0
 12  9  1  0  0  0  0
 13 12  2  0  0  0  0
 14  9  2  0  0  0  0
 15 10  1  0  0  0  0
 15 16  2  0  0  0  0
 17 15  2  0  0  0  0
 18 15  1  0  0  0  0
 19 23  1  0  0  0  0
 19 20  1  1  0  0  0
 20 26  1  0  0  0  0
 23 21  1  6  0  0  0
 23 28  1  0  0  0  0
 24 19  1  0  0  0  0
 25 21  1  0  0  0  0
 25 24  1  0  0  0  0
 26 18  1  1  0  0  0
 27 22  2  0  0  0  0
 27 26  1  0  0  0  0
 28 27  1  0  0  0  0
 30 40  1  0  0  0  0
 31 29  1  0  0  0  0
 31 42  2  0  0  0  0
 32 39  2  0  0  0  0
 34 41  1  0  0  0  0
 35 38  1  0  0  0  0
 35 34  2  0  0  0  0
 36 41  1  0  0  0  0
 37 39  1  0  0  0  0
 37 30  2  0  0  0  0
 38 36  2  0  0  0  0
 39 35  1  0  0  0  0
 40 33  1  6  0  0  0
 40 34  1  0  0  0  0
 41 31  1  0  0  0  0
M  END
>  <MODEL>
6

>  <REMARK>
 VINA RESULT:      -8.7      3.382      6.584
  Name = 
  6 active torsions:
  status: ('A' for Active; 'I' for Inactive)
    1  A    between atoms: C_7  and  C_24
    2  A    between atoms: C_10  and  C_31
    3  A    between atoms: N_11  and  S_13
    4  A    between atoms: S_13  and  N_25
    5  A    between atoms: C_18  and  C_31
    6  A    between atoms: N_25  and  C_32
                            x       y       z     vdW  Elec       q    Type
                         _______ _______ _______ _____ _____    ______ ____

>  <TORSDO>
F 6

$$$$
=
 OpenBabel11062413133D

 42 47  0  0  1  0  0  0  0  0999 V2000
  192.6090  176.8230  139.5870 C   0  0  0  0  0  0  0  0  0  0  0  0
  190.1010  177.4080  138.3000 C   0  0  1  0  0  3  0  0  0  0  0  0
  190.1790  177.3940  139.8420 C   0  0  1  0  0  3  0  0  0  0  0  0
  192.4480  176.5750  138.1080 C   0  0  0  0  0  2  0  0  0  0  0  0
  191.5960  177.2660  140.3480 C   0  0  0  0  0  3  0  0  0  0  0  0
  193.8500  176.7450  140.1310 F   0  0  0  0  0  0  0  0  0  0  0  0
  190.9970  176.3180  137.7180 C   0  0  0  0  0  2  0  0  0  0  0  0
  186.8360  175.1260  135.5830 Cl  0  0  0  0  0  0  0  0  0  0  0  0
  187.9290  178.4230  137.4090 C   0  0  0  0  0  3  0  0  0  0  0  0
  185.9690  177.0530  137.2150 N   0  0  0  0  0  0  0  0  0  0  0  0
  186.7370  175.7990  137.2350 C   0  0  2  0  0  3  0  0  0  0  0  0
  188.6950  177.2280  137.8050 C   0  0  0  0  0  0  0  0  0  0  0  0
  188.1290  176.0110  137.7640 C   0  0  0  0  0  3  0  0  0  0  0  0
  186.6280  178.3280  137.1400 C   0  0  0  0  0  3  0  0  0  0  0  0
  184.2450  176.9830  137.0960 S   0  0  0  0  0  0  0  0  0  0  0  0
  183.8250  177.2820  135.6830 O   0  0  0  0  0  0  0  0  0  0  0  0
  183.7750  175.6080  137.4840 O   0  0  0  0  0  0  0  0  0  0  0  0
  183.5590  178.1690  138.1560 N   0  0  0  0  0  2  0  0  0  0  0  0
  183.5420  178.1950  141.8760 C   0  0  2  0  0  3  0  0  0  0  0  0
  184.2060  178.3120  140.5170 C   0  0  0  0  0  2  0  0  0  0  0  0
  181.8250  179.0030  143.0650 O   0  0  0  0  0  0  0  0  0  0  0  0
  181.1040  176.8480  139.0120 O   0  0  0  0  0  0  0  0  0  0  0  0
  182.2290  178.8430  141.7530 C   0  0  2  0  0  3  0  0  0  0  0  0
  184.1540  178.8970  142.8990 O   0  0  0  0  0  0  0  0  0  0  0  0
  183.0550  179.2400  143.7270 C   0  0  0  0  0  2  0  0  0  0  0  0
  183.3660  177.5510  139.4600 C   0  0  1  0  0  3  0  0  0  0  0  0
  181.8790  177.4740  139.7830 C   0  0  0  0  0  0  0  0  0  0  0  0
  181.3800  178.0110  140.9800 O   0  0  0  0  0  0  0  0  0  0  0  0
  189.5560  178.6490  140.4550 C   0  0  0  0  0  2  0  0  0  0  0  0
  191.7430  178.2450  144.4100 C   0  0  0  0  0  3  0  0  0  0  0  0
  188.3060  178.3200  141.2080 C   0  0  0  0  0  0  0  0  0  0  0  0
  189.7480  176.4950  146.7380 O   0  0  0  0  0  0  0  0  0  0  0  0
  190.5460  179.9160  143.2160 O   0  0  0  0  0  1  0  0  0  0  0  0
  189.4540  177.8220  143.4550 C   0  0  0  0  0  0  0  0  0  0  0  0
  189.1190  177.2100  144.5630 C   0  0  0  0  0  0  0  0  0  0  0  0
  187.2490  177.1270  143.2190 C   0  0  0  0  0  3  0  0  0  0  0  0
  191.3950  177.5970  145.4890 N   0  0  0  0  0  0  0  0  0  0  0  0
  187.7830  176.7250  144.5240 N   0  0  0  0  0  0  0  0  0  0  0  0
  190.0690  177.0740  145.6670 C   0  0  0  0  0  0  0  0  0  0  0  0
  190.7700  178.5380  143.2790 C   0  0  2  0  0  3  0  0  0  0  0  0
  188.3530  177.8160  142.5520 N   0  0  0  0  0  0  0  0  0  0  0  0
  187.1910  178.4630  140.6320 O   0  0  0  0  0  0  0  0  0  0  0  0
  1  6  1  0  0  0  0
  1  5  2  0  0  0  0
  2 12  1  1  0  0  0
  2  3  1  0  0  0  0
  3  5  1  0  0  0  0
  3 29  1  1  0  0  0
  4  1  1  0  0  0  0
  7  4  1  0  0  0  0
  7  2  1  0  0  0  0
  9 12  1  0  0  0  0
 10 11  1  0  0  0  0
 11  8  1  6  0  0  0
 11 13  1  0  0  0  0
 13 12  2  0  0  0  0
 14 10  1  0  0  0  0
 14  9  2  0  0  0  0
 15 10  1  0  0  0  0
 15 17  2  0  0  0  0
 15 18  1  0  0  0  0
 16 15  2  0  0  0  0
 19 20  1  6  0  0  0
 19 24  1  0  0  0  0
 21 25  1  0  0  0  0
 22 27  2  0  0  0  0
 23 28  1  6  0  0  0
 23 19  1  0  0  0  0
 23 21  1  0  0  0  0
 24 25  1  0  0  0  0
 26 18  1  6  0  0  0
 26 27  1  0  0  0  0
 26 20  1  0  0  0  0
 27 28  1  0  0  0  0
 29 31  1  0  0  0  0
 30 37  2  0  0  0  0
 31 41  1  0  0  0  0
 34 35  2  0  0  0  0
 35 39  1  0  0  0  0
 36 38  2  0  0  0  0
 37 39  1  0  0  0  0
 38 35  1  0  0  0  0
 39 32  2  0  0  0  0
 40 33  1  1  0  0  0
 40 34  1  0  0  0  0
 40 30  1  0  0  0  0
 41 36  1  0  0  0  0
 41 34  1  0  0  0  0
 42 31  2  0  0  0  0
M  END
>  <MODEL>
7

>  <REMARK>
 VINA RESULT:      -8.5      3.514      7.469
  Name = 
  6 active torsions:
  status: ('A' for Active; 'I' for Inactive)
    1  A    between atoms: C_7  and  C_24
    2  A    between atoms: C_10  and  C_31
    3  A    between atoms: N_11  and  S_13
    4  A    between atoms: S_13  and  N_25
    5  A    between atoms: C_18  and  C_31
    6  A    between atoms: N_25  and  C_32
                            x       y       z     vdW  Elec       q    Type
                         _______ _______ _______ _____ _____    ______ ____

>  <TORSDO>
F 6

$$$$
=
 OpenBabel11062413133D

 42 47  0  0  1  0  0  0  0  0999 V2000
  181.9750  178.8970  143.0250 C   0  0  0  0  0  0  0  0  0  0  0  0
  184.8300  178.8610  142.6520 C   0  0  1  0  0  3  0  0  0  0  0  0
  183.9040  178.5150  141.4660 C   0  0  1  0  0  3  0  0  0  0  0  0
  182.8900  178.9620  144.2220 C   0  0  0  0  0  2  0  0  0  0  0  0
  182.4480  178.7710  141.7750 C   0  0  0  0  0  3  0  0  0  0  0  0
  180.6500  179.1300  143.2020 F   0  0  0  0  0  0  0  0  0  0  0  0
  184.2440  178.3170  143.9520 C   0  0  0  0  0  2  0  0  0  0  0  0
  188.5700  177.7380  139.8240 Cl  0  0  0  0  0  0  0  0  0  0  0  0
  186.6020  177.0860  143.1550 C   0  0  0  0  0  3  0  0  0  0  0  0
  188.8700  177.4420  142.4590 N   0  0  0  0  0  0  0  0  0  0  0  0
  188.4970  178.4530  141.4590 C   0  0  2  0  0  3  0  0  0  0  0  0
  186.2190  178.3270  142.4580 C   0  0  0  0  0  0  0  0  0  0  0  0
  187.1120  178.9860  141.7010 C   0  0  0  0  0  3  0  0  0  0  0  0
  187.8700  176.6810  143.1570 C   0  0  0  0  0  3  0  0  0  0  0  0
  190.5390  177.0370  142.6670 S   0  0  0  0  0  0  0  0  0  0  0  0
  190.9760  176.1180  141.5590 O   0  0  0  0  0  0  0  0  0  0  0  0
  191.3640  178.2950  142.6350 O   0  0  0  0  0  0  0  0  0  0  0  0
  190.7390  176.2310  144.1870 N   0  0  0  0  0  2  0  0  0  0  0  0
  188.9090  178.1750  146.7770 C   0  0  2  0  0  3  0  0  0  0  0  0
  189.1880  177.7290  145.3540 C   0  0  0  0  0  2  0  0  0  0  0  0
  188.4950  177.3620  148.8220 O   0  0  0  0  0  0  0  0  0  0  0  0
  192.4110  176.2640  146.5760 O   0  0  0  0  0  0  0  0  0  0  0  0
  189.0740  176.9870  147.6240 C   0  0  2  0  0  3  0  0  0  0  0  0
  187.6090  178.5740  147.0310 O   0  0  0  0  0  0  0  0  0  0  0  0
  187.4410  178.2040  148.3890 C   0  0  0  0  0  2  0  0  0  0  0  0
  190.6510  177.2300  145.2420 C   0  0  1  0  0  3  0  0  0  0  0  0
  191.2180  176.6660  146.5390 C   0  0  0  0  0  0  0  0  0  0  0  0
  190.4560  176.6810  147.7170 O   0  0  0  0  0  0  0  0  0  0  0  0
  184.2780  179.2970  140.2060 C   0  0  0  0  0  2  0  0  0  0  0  0
  180.1790  180.5820  138.7450 C   0  0  0  0  0  3  0  0  0  0  0  0
  184.3310  178.4000  139.0080 C   0  0  0  0  0  0  0  0  0  0  0  0
  178.9310  178.2560  136.4020 O   0  0  0  0  0  0  0  0  0  0  0  0
  182.4520  181.1670  138.3680 O   0  0  0  0  0  1  0  0  0  0  0  0
  181.9290  178.8580  138.2080 C   0  0  0  0  0  0  0  0  0  0  0  0
  181.0880  178.2760  137.3900 C   0  0  0  0  0  0  0  0  0  0  0  0
  183.0220  177.0270  137.2820 C   0  0  0  0  0  3  0  0  0  0  0  0
  179.3470  179.9620  137.9530 N   0  0  0  0  0  0  0  0  0  0  0  0
  181.6500  177.1250  136.7740 N   0  0  0  0  0  0  0  0  0  0  0  0
  179.7400  178.8060  137.1940 C   0  0  0  0  0  0  0  0  0  0  0  0
  181.6330  180.1660  138.8980 C   0  0  2  0  0  3  0  0  0  0  0  0
  183.1640  178.1460  138.2130 N   0  0  0  0  0  0  0  0  0  0  0  0
  185.4230  177.8370  138.7170 O   0  0  0  0  0  0  0  0  0  0  0  0
  1  6  1  0  0  0  0
  1  4  1  0  0  0  0
  2 12  1  6  0  0  0
  2  7  1  0  0  0  0
  3 29  1  6  0  0  0
  3  5  1  0  0  0  0
  3  2  1  0  0  0  0
  5  1  2  0  0  0  0
  7  4  1  0  0  0  0
  9 14  2  0  0  0  0
 10 15  1  0  0  0  0
 10 14  1  0  0  0  0
 11  8  1  6  0  0  0
 11 13  1  0  0  0  0
 11 10  1  0  0  0  0
 12  9  1  0  0  0  0
 13 12  2  0  0  0  0
 15 18  1  0  0  0  0
 16 15  2  0  0  0  0
 17 15  2  0  0  0  0
 19 20  1  6  0  0  0
 19 24  1  0  0  0  0
 19 23  1  0  0  0  0
 23 28  1  1  0  0  0
 23 21  1  0  0  0  0
 24 25  1  0  0  0  0
 25 21  1  0  0  0  0
 26 18  1  6  0  0  0
 26 20  1  0  0  0  0
 26 27  1  0  0  0  0
 27 22  2  0  0  0  0
 27 28  1  0  0  0  0
 30 40  1  0  0  0  0
 31 29  1  0  0  0  0
 32 39  2  0  0  0  0
 34 41  1  0  0  0  0
 34 40  1  0  0  0  0
 35 34  2  0  0  0  0
 36 41  1  0  0  0  0
 37 30  2  0  0  0  0
 38 36  2  0  0  0  0
 38 35  1  0  0  0  0
 39 35  1  0  0  0  0
 39 37  1  0  0  0  0
 40 33  1  6  0  0  0
 41 31  1  0  0  0  0
 42 31  2  0  0  0  0
M  END
>  <MODEL>
8

>  <REMARK>
 VINA RESULT:      -8.5      3.465      7.452
  Name = 
  6 active torsions:
  status: ('A' for Active; 'I' for Inactive)
    1  A    between atoms: C_7  and  C_24
    2  A    between atoms: C_10  and  C_31
    3  A    between atoms: N_11  and  S_13
    4  A    between atoms: S_13  and  N_25
    5  A    between atoms: C_18  and  C_31
    6  A    between atoms: N_25  and  C_32
                            x       y       z     vdW  Elec       q    Type
                         _______ _______ _______ _____ _____    ______ ____

>  <TORSDO>
F 6

$$$$
=
 OpenBabel11062413133D

 42 47  0  0  1  0  0  0  0  0999 V2000
  181.8110  178.9710  143.3090 C   0  0  0  0  0  0  0  0  0  0  0  0
  184.6410  178.9000  142.7820 C   0  0  1  0  0  3  0  0  0  0  0  0
  183.6470  178.5910  141.6420 C   0  0  1  0  0  3  0  0  0  0  0  0
  182.7890  178.9990  144.4570 C   0  0  0  0  0  2  0  0  0  0  0  0
  182.2140  178.8630  142.0330 C   0  0  0  0  0  3  0  0  0  0  0  0
  180.5010  179.2200  143.5620 F   0  0  0  0  0  0  0  0  0  0  0  0
  184.1170  178.3390  144.1020 C   0  0  0  0  0  2  0  0  0  0  0  0
  188.0810  177.4800  139.7180 Cl  0  0  0  0  0  0  0  0  0  0  0  0
  186.4770  177.1920  143.2870 C   0  0  0  0  0  3  0  0  0  0  0  0
  188.6560  177.4710  142.3250 N   0  0  0  0  0  0  0  0  0  0  0  0
  188.1690  178.3680  141.2650 C   0  0  2  0  0  3  0  0  0  0  0  0
  186.0090  178.3490  142.5040 C   0  0  0  0  0  0  0  0  0  0  0  0
  186.8110  178.9230  141.5920 C   0  0  0  0  0  3  0  0  0  0  0  0
  187.7430  176.7900  143.2010 C   0  0  0  0  0  3  0  0  0  0  0  0
  190.3420  177.0930  142.4000 S   0  0  0  0  0  0  0  0  0  0  0  0
  190.5230  175.6000  142.4210 O   0  0  0  0  0  0  0  0  0  0  0  0
  191.0360  177.6700  141.1970 O   0  0  0  0  0  0  0  0  0  0  0  0
  191.0070  177.7660  143.8510 N   0  0  0  0  0  2  0  0  0  0  0  0
  191.9710  175.7970  146.8560 C   0  0  2  0  0  3  0  0  0  0  0  0
  192.0580  176.1720  145.3890 C   0  0  0  0  0  2  0  0  0  0  0  0
  192.0600  176.6960  148.9050 O   0  0  0  0  0  0  0  0  0  0  0  0
  188.8870  178.1170  145.8230 O   0  0  0  0  0  0  0  0  0  0  0  0
  191.8000  177.0550  147.5960 C   0  0  2  0  0  3  0  0  0  0  0  0
  193.1210  175.2560  147.4010 O   0  0  0  0  0  0  0  0  0  0  0  0
  193.0530  175.6980  148.7470 C   0  0  0  0  0  2  0  0  0  0  0  0
  190.7350  176.8430  144.9430 C   0  0  1  0  0  3  0  0  0  0  0  0
  189.9950  177.5650  146.0620 C   0  0  0  0  0  0  0  0  0  0  0  0
  190.4860  177.5390  147.3760 O   0  0  0  0  0  0  0  0  0  0  0  0
  183.9650  179.3920  140.3790 C   0  0  0  0  0  2  0  0  0  0  0  0
  180.6210  181.9010  138.6140 C   0  0  0  0  0  3  0  0  0  0  0  0
  183.8560  178.5370  139.1540 C   0  0  0  0  0  0  0  0  0  0  0  0
  178.9530  180.1040  136.0750 O   0  0  0  0  0  0  0  0  0  0  0  0
  182.9900  181.7580  138.4640 O   0  0  0  0  0  1  0  0  0  0  0  0
  181.8010  179.7250  138.1640 C   0  0  0  0  0  0  0  0  0  0  0  0
  180.9060  179.4430  137.2510 C   0  0  0  0  0  0  0  0  0  0  0  0
  182.3630  177.6570  137.2630 C   0  0  0  0  0  3  0  0  0  0  0  0
  179.7210  181.5780  137.7260 N   0  0  0  0  0  0  0  0  0  0  0  0
  181.1430  178.1820  136.6400 N   0  0  0  0  0  0  0  0  0  0  0  0
  179.8110  180.3670  136.9580 C   0  0  0  0  0  0  0  0  0  0  0  0
  181.8560  181.0540  138.8780 C   0  0  2  0  0  3  0  0  0  0  0  0
  182.7500  178.6670  138.2480 N   0  0  0  0  0  0  0  0  0  0  0  0
  184.7450  177.6660  138.9370 O   0  0  0  0  0  0  0  0  0  0  0  0
  1  6  1  0  0  0  0
  1  4  1  0  0  0  0
  2 12  1  6  0  0  0
  2  7  1  0  0  0  0
  3 29  1  6  0  0  0
  3  5  1  0  0  0  0
  3  2  1  0  0  0  0
  5  1  2  0  0  0  0
  7  4  1  0  0  0  0
 10 15  1  0  0  0  0
 10 14  1  0  0  0  0
 11  8  1  6  0  0  0
 11 13  1  0  0  0  0
 11 10  1  0  0  0  0
 12  9  1  0  0  0  0
 13 12  2  0  0  0  0
 14  9  2  0  0  0  0
 15 16  2  0  0  0  0
 15 18  1  0  0  0  0
 17 15  2  0  0  0  0
 19 20  1  6  0  0  0
 19 24  1  0  0  0  0
 19 23  1  0  0  0  0
 22 27  2  0  0  0  0
 23 28  1  1  0  0  0
 23 21  1  0  0  0  0
 24 25  1  0  0  0  0
 25 21  1  0  0  0  0
 26 18  1  6  0  0  0
 26 20  1  0  0  0  0
 26 27  1  0  0  0  0
 27 28  1  0  0  0  0
 30 40  1  0  0  0  0
 31 29  1  0  0  0  0
 32 39  2  0  0  0  0
 34 41  1  0  0  0  0
 34 40  1  0  0  0  0
 35 34  2  0  0  0  0
 36 41  1  0  0  0  0
 37 30  2  0  0  0  0
 38 35  1  0  0  0  0
 38 36  2  0  0  0  0
 39 35  1  0  0  0  0
 39 37  1  0  0  0  0
 40 33  1  6  0  0  0
 41 31  1  0  0  0  0
 42 31  2  0  0  0  0
M  END
>  <MODEL>
9

>  <REMARK>
 VINA RESULT:      -8.5      3.822      7.643
  Name = 
  6 active torsions:
  status: ('A' for Active; 'I' for Inactive)
    1  A    between atoms: C_7  and  C_24
    2  A    between atoms: C_10  and  C_31
    3  A    between atoms: N_11  and  S_13
    4  A    between atoms: S_13  and  N_25
    5  A    between atoms: C_18  and  C_31
    6  A    between atoms: N_25  and  C_32
                            x       y       z     vdW  Elec       q    Type
                         _______ _______ _______ _____ _____    ______ ____

>  <TORSDO>
F 6

$$$$
