=
 OpenBabel11062415463D

 27 31  0  0  1  0  0  0  0  0999 V2000
  183.4130  178.6280  144.6310 N   0  0  0  0  0  0  0  0  0  0  0  0
  184.1830  178.8350  140.0660 C   0  0  0  0  0  3  0  0  0  0  0  0
  182.3450  178.7300  143.6860 C   0  0  0  0  0  0  0  0  0  0  0  0
  182.0720  178.8720  141.2920 C   0  0  0  0  0  0  0  0  0  0  0  0
  180.6790  178.9310  141.4860 C   0  0  0  0  0  3  0  0  0  0  0  0
  182.8340  178.7730  142.4320 C   0  0  0  0  0  0  0  0  0  0  0  0
  184.1790  178.7060  142.4640 C   0  0  0  0  0  0  0  0  0  0  0  0
  180.1670  178.8870  142.7650 N   0  0  0  0  0  0  0  0  0  0  0  0
  184.5010  178.6130  143.8960 C   0  0  0  0  0  0  0  0  0  0  0  0
  182.7560  178.9050  140.0580 C   0  0  0  0  0  0  0  0  0  0  0  0
  184.9130  178.7330  141.2780 C   0  0  0  0  0  3  0  0  0  0  0  0
  180.9660  178.7880  143.8800 C   0  0  0  0  0  3  0  0  0  0  0  0
  188.0780  177.3490  144.3140 C   0  0  0  0  0  2  0  0  0  0  0  0
  185.8810  178.5170  144.4570 C   0  0  1  0  0  3  0  0  0  0  0  0
  185.8290  178.3990  145.9800 C   0  0  0  0  0  2  0  0  0  0  0  0
  189.4290  177.2010  146.4080 C   0  0  0  0  0  3  0  0  0  0  0  0
  186.6210  177.3240  143.8640 C   0  0  0  0  0  2  0  0  0  0  0  0
  188.5800  177.9570  148.5450 C   0  0  0  0  0  3  0  0  0  0  0  0
  189.6130  177.4130  147.7770 C   0  0  0  0  0  3  0  0  0  0  0  0
  187.1740  178.0940  146.5740 C   0  0  0  0  0  0  0  0  0  0  0  0
  188.2110  177.5220  145.8020 C   0  0  0  0  0  0  0  0  0  0  0  0
  187.3640  178.2920  147.9460 C   0  0  0  0  0  3  0  0  0  0  0  0
  182.0970  181.3320  138.5300 O   0  0  0  0  0  0  0  0  0  0  0  0
  182.0100  179.0080  138.8350 N   0  0  0  0  0  2  0  0  0  0  0  0
  180.9450  180.1170  136.9090 N   0  0  0  0  0  2  0  0  0  0  0  0
  181.7050  180.2080  138.1140 C   0  0  0  0  0  0  0  0  0  0  0  0
  180.6000  181.2910  136.1260 C   0  0  0  0  0  1  0  0  0  0  0  0
  2 11  1  0  0  0  0
  3 12  1  0  0  0  0
  3  1  1  0  0  0  0
  4  5  2  0  0  0  0
  4  6  1  0  0  0  0
  5  8  1  0  0  0  0
  6  7  1  0  0  0  0
  6  3  2  0  0  0  0
  7  9  1  0  0  0  0
  8 12  2  0  0  0  0
  9  1  2  0  0  0  0
 10  2  2  0  0  0  0
 10  4  1  0  0  0  0
 11  7  2  0  0  0  0
 13 21  1  0  0  0  0
 14  9  1  6  0  0  0
 14 15  1  0  0  0  0
 15 20  1  0  0  0  0
 16 19  1  0  0  0  0
 17 13  1  0  0  0  0
 17 14  1  0  0  0  0
 19 18  2  0  0  0  0
 20 22  2  0  0  0  0
 21 16  2  0  0  0  0
 21 20  1  0  0  0  0
 22 18  1  0  0  0  0
 24 10  1  0  0  0  0
 25 26  1  0  0  0  0
 26 23  2  0  0  0  0
 26 24  1  0  0  0  0
 27 25  1  0  0  0  0
M  END
>  <MODEL>
1

>  <REMARK>
 VINA RESULT:     -10.3      0.000      0.000
  Name = 
  2 active torsions:
  status: ('A' for Active; 'I' for Inactive)
    1  A    between atoms: C_3  and  C_24
    2  A    between atoms: N_12  and  C_25
                            x       y       z     vdW  Elec       q    Type
                         _______ _______ _______ _____ _____    ______ ____

>  <TORSDO>
F 2

$$$$
=
 OpenBabel11062415463D

 27 31  0  0  1  0  0  0  0  0999 V2000
  183.4090  178.6080  144.6240 N   0  0  0  0  0  0  0  0  0  0  0  0
  184.1780  178.8560  140.0610 C   0  0  0  0  0  3  0  0  0  0  0  0
  182.3400  178.7090  143.6790 C   0  0  0  0  0  0  0  0  0  0  0  0
  182.0670  178.8680  141.2860 C   0  0  0  0  0  0  0  0  0  0  0  0
  180.6740  178.9150  141.4810 C   0  0  0  0  0  3  0  0  0  0  0  0
  182.8300  178.7660  142.4270 C   0  0  0  0  0  0  0  0  0  0  0  0
  184.1750  178.7080  142.4590 C   0  0  0  0  0  0  0  0  0  0  0  0
  180.1620  178.8570  142.7590 N   0  0  0  0  0  0  0  0  0  0  0  0
  184.4970  178.6070  143.8900 C   0  0  0  0  0  0  0  0  0  0  0  0
  182.7520  178.9160  140.0530 C   0  0  0  0  0  0  0  0  0  0  0  0
  184.9090  178.7510  141.2730 C   0  0  0  0  0  3  0  0  0  0  0  0
  180.9610  178.7550  143.8730 C   0  0  0  0  0  3  0  0  0  0  0  0
  188.0830  177.3660  144.3010 C   0  0  0  0  0  2  0  0  0  0  0  0
  185.8780  178.5170  144.4510 C   0  0  1  0  0  3  0  0  0  0  0  0
  185.8250  178.3870  145.9730 C   0  0  0  0  0  2  0  0  0  0  0  0
  189.4340  177.2130  146.3940 C   0  0  0  0  0  3  0  0  0  0  0  0
  186.6260  177.3340  143.8490 C   0  0  0  0  0  2  0  0  0  0  0  0
  188.5790  177.9460  148.5360 C   0  0  0  0  0  3  0  0  0  0  0  0
  189.6160  177.4150  147.7640 C   0  0  0  0  0  3  0  0  0  0  0  0
  187.1730  178.0870  146.5650 C   0  0  0  0  0  0  0  0  0  0  0  0
  188.2140  177.5290  145.7890 C   0  0  0  0  0  0  0  0  0  0  0  0
  187.3600  178.2770  147.9390 C   0  0  0  0  0  3  0  0  0  0  0  0
  181.9240  176.7560  138.2360 O   0  0  0  0  0  0  0  0  0  0  0  0
  182.0050  179.0230  138.8310 N   0  0  0  0  0  2  0  0  0  0  0  0
  180.8720  178.2460  136.7850 N   0  0  0  0  0  2  0  0  0  0  0  0
  181.6170  177.9480  137.9660 C   0  0  0  0  0  0  0  0  0  0  0  0
  180.4450  177.2080  135.8630 C   0  0  0  0  0  1  0  0  0  0  0  0
  2 11  1  0  0  0  0
  3 12  1  0  0  0  0
  3  1  1  0  0  0  0
  4  5  2  0  0  0  0
  4  6  1  0  0  0  0
  5  8  1  0  0  0  0
  6  7  1  0  0  0  0
  6  3  2  0  0  0  0
  7  9  1  0  0  0  0
  8 12  2  0  0  0  0
  9  1  2  0  0  0  0
 10  2  2  0  0  0  0
 10  4  1  0  0  0  0
 11  7  2  0  0  0  0
 13 21  1  0  0  0  0
 14  9  1  6  0  0  0
 14 15  1  0  0  0  0
 15 20  1  0  0  0  0
 16 19  1  0  0  0  0
 17 13  1  0  0  0  0
 17 14  1  0  0  0  0
 19 18  2  0  0  0  0
 20 22  2  0  0  0  0
 21 16  2  0  0  0  0
 21 20  1  0  0  0  0
 22 18  1  0  0  0  0
 24 10  1  0  0  0  0
 25 26  1  0  0  0  0
 26 23  2  0  0  0  0
 26 24  1  0  0  0  0
 27 25  1  0  0  0  0
M  END
>  <MODEL>
2

>  <REMARK>
 VINA RESULT:      -9.8      1.296      1.312
  Name = 
  2 active torsions:
  status: ('A' for Active; 'I' for Inactive)
    1  A    between atoms: C_3  and  C_24
    2  A    between atoms: N_12  and  C_25
                            x       y       z     vdW  Elec       q    Type
                         _______ _______ _______ _____ _____    ______ ____

>  <TORSDO>
F 2

$$$$
=
 OpenBabel11062415463D

 27 31  0  0  1  0  0  0  0  0999 V2000
  183.6560  178.4010  143.3430 N   0  0  0  0  0  0  0  0  0  0  0  0
  187.2510  178.4160  140.4200 C   0  0  0  0  0  3  0  0  0  0  0  0
  183.4890  178.6030  141.9370 C   0  0  0  0  0  0  0  0  0  0  0  0
  184.8730  178.7210  139.9640 C   0  0  0  0  0  0  0  0  0  0  0  0
  183.7100  178.9420  139.2010 C   0  0  0  0  0  3  0  0  0  0  0  0
  184.6830  178.5620  141.3160 C   0  0  0  0  0  0  0  0  0  0  0  0
  185.6590  178.3420  142.2170 C   0  0  0  0  0  0  0  0  0  0  0  0
  182.4830  178.9860  139.8270 N   0  0  0  0  0  0  0  0  0  0  0  0
  184.9500  178.2460  143.5010 C   0  0  0  0  0  0  0  0  0  0  0  0
  186.1980  178.6480  139.4840 C   0  0  0  0  0  0  0  0  0  0  0  0
  186.9900  178.2590  141.8060 C   0  0  0  0  0  3  0  0  0  0  0  0
  182.3380  178.8220  141.1840 C   0  0  0  0  0  3  0  0  0  0  0  0
  185.9030  178.8540  147.1470 C   0  0  0  0  0  2  0  0  0  0  0  0
  185.6030  178.0060  144.8230 C   0  0  1  0  0  3  0  0  0  0  0  0
  187.0990  177.7540  144.6380 C   0  0  0  0  0  2  0  0  0  0  0  0
  188.0460  178.2930  148.2980 C   0  0  0  0  0  3  0  0  0  0  0  0
  185.3830  179.1930  145.7530 C   0  0  0  0  0  2  0  0  0  0  0  0
  189.8600  177.1620  147.1620 C   0  0  0  0  0  3  0  0  0  0  0  0
  189.3230  177.7280  148.3210 C   0  0  0  0  0  3  0  0  0  0  0  0
  187.8350  177.7120  145.9470 C   0  0  0  0  0  0  0  0  0  0  0  0
  187.3020  178.3050  147.1150 C   0  0  0  0  0  0  0  0  0  0  0  0
  189.1190  177.1580  145.9780 C   0  0  0  0  0  3  0  0  0  0  0  0
  186.7290  176.5550  137.4850 O   0  0  0  0  0  0  0  0  0  0  0  0
  186.4540  178.8070  138.0800 N   0  0  0  0  0  2  0  0  0  0  0  0
  186.9450  178.1140  135.7660 N   0  0  0  0  0  2  0  0  0  0  0  0
  186.7100  177.7650  137.1300 C   0  0  0  0  0  0  0  0  0  0  0  0
  187.2100  177.1110  134.7500 C   0  0  0  0  0  1  0  0  0  0  0  0
  1  9  2  0  0  0  0
  2 11  2  0  0  0  0
  3  1  1  0  0  0  0
  4  6  1  0  0  0  0
  5  8  2  0  0  0  0
  5  4  1  0  0  0  0
  6  3  1  0  0  0  0
  6  7  2  0  0  0  0
  7  9  1  0  0  0  0
  8 12  1  0  0  0  0
 10  4  2  0  0  0  0
 10  2  1  0  0  0  0
 11  7  1  0  0  0  0
 12  3  2  0  0  0  0
 14  9  1  6  0  0  0
 14 17  1  0  0  0  0
 15 14  1  0  0  0  0
 15 20  1  0  0  0  0
 16 19  1  0  0  0  0
 17 13  1  0  0  0  0
 18 19  2  0  0  0  0
 20 22  2  0  0  0  0
 20 21  1  0  0  0  0
 21 13  1  0  0  0  0
 21 16  2  0  0  0  0
 22 18  1  0  0  0  0
 24 10  1  0  0  0  0
 25 26  1  0  0  0  0
 26 23  2  0  0  0  0
 26 24  1  0  0  0  0
 27 25  1  0  0  0  0
M  END
>  <MODEL>
3

>  <REMARK>
 VINA RESULT:      -9.7      2.625      3.556
  Name = 
  2 active torsions:
  status: ('A' for Active; 'I' for Inactive)
    1  A    between atoms: C_3  and  C_24
    2  A    between atoms: N_12  and  C_25
                            x       y       z     vdW  Elec       q    Type
                         _______ _______ _______ _____ _____    ______ ____

>  <TORSDO>
F 2

$$$$
=
 OpenBabel11062415463D

 27 31  0  0  1  0  0  0  0  0999 V2000
  188.5350  177.3830  140.8290 N   0  0  0  0  0  0  0  0  0  0  0  0
  193.0890  177.1230  140.0140 C   0  0  0  0  0  3  0  0  0  0  0  0
  189.0580  177.1280  139.5220 C   0  0  0  0  0  0  0  0  0  0  0  0
  191.2150  176.8820  138.4690 C   0  0  0  0  0  0  0  0  0  0  0  0
  190.5560  176.6710  137.2420 C   0  0  0  0  0  3  0  0  0  0  0  0
  190.4030  177.1020  139.5570 C   0  0  0  0  0  0  0  0  0  0  0  0
  190.8330  177.3240  140.8130 C   0  0  0  0  0  0  0  0  0  0  0  0
  189.1790  176.6960  137.1960 N   0  0  0  0  0  0  0  0  0  0  0  0
  189.5970  177.4980  141.5910 C   0  0  0  0  0  0  0  0  0  0  0  0
  192.6090  176.8890  138.6890 C   0  0  0  0  0  0  0  0  0  0  0  0
  192.1990  177.3440  141.0970 C   0  0  0  0  0  3  0  0  0  0  0  0
  188.4040  176.9200  138.3100 C   0  0  0  0  0  3  0  0  0  0  0  0
  190.4300  177.1410  145.2990 C   0  0  0  0  0  2  0  0  0  0  0  0
  189.5410  177.7730  143.0580 C   0  0  1  0  0  3  0  0  0  0  0  0
  188.0920  177.7690  143.5450 C   0  0  0  0  0  2  0  0  0  0  0  0
  188.9240  177.4830  147.2600 C   0  0  0  0  0  3  0  0  0  0  0  0
  190.3560  176.7400  143.8290 C   0  0  0  0  0  2  0  0  0  0  0  0
  186.6230  178.1910  147.0100 C   0  0  0  0  0  3  0  0  0  0  0  0
  187.7000  177.8420  147.8290 C   0  0  0  0  0  3  0  0  0  0  0  0
  187.9950  177.8360  145.0420 C   0  0  0  0  0  0  0  0  0  0  0  0
  189.0770  177.4610  145.8710 C   0  0  0  0  0  0  0  0  0  0  0  0
  186.7700  178.1840  145.6200 C   0  0  0  0  0  3  0  0  0  0  0  0
  193.8740  174.3650  137.8630 O   0  0  0  0  0  0  0  0  0  0  0  0
  193.5030  176.6650  137.5880 N   0  0  0  0  0  2  0  0  0  0  0  0
  194.9730  175.3860  136.0790 N   0  0  0  0  0  2  0  0  0  0  0  0
  194.1030  175.4190  137.2110 C   0  0  0  0  0  0  0  0  0  0  0  0
  195.6170  174.1600  135.6390 C   0  0  0  0  0  1  0  0  0  0  0  0
  1  9  2  0  0  0  0
  2 11  2  0  0  0  0
  3  6  1  0  0  0  0
  3  1  1  0  0  0  0
  4 10  2  0  0  0  0
  4  6  1  0  0  0  0
  5  4  1  0  0  0  0
  6  7  2  0  0  0  0
  7 11  1  0  0  0  0
  7  9  1  0  0  0  0
  8  5  2  0  0  0  0
  8 12  1  0  0  0  0
 10  2  1  0  0  0  0
 12  3  2  0  0  0  0
 13 21  1  0  0  0  0
 14  9  1  6  0  0  0
 14 15  1  0  0  0  0
 14 17  1  0  0  0  0
 15 20  1  0  0  0  0
 16 19  1  0  0  0  0
 17 13  1  0  0  0  0
 18 19  2  0  0  0  0
 20 22  2  0  0  0  0
 20 21  1  0  0  0  0
 21 16  2  0  0  0  0
 22 18  1  0  0  0  0
 24 10  1  0  0  0  0
 25 26  1  0  0  0  0
 26 24  1  0  0  0  0
 26 23  2  0  0  0  0
 27 25  1  0  0  0  0
M  END
>  <MODEL>
4

>  <REMARK>
 VINA RESULT:      -9.6      6.642      8.585
  Name = 
  2 active torsions:
  status: ('A' for Active; 'I' for Inactive)
    1  A    between atoms: C_3  and  C_24
    2  A    between atoms: N_12  and  C_25
                            x       y       z     vdW  Elec       q    Type
                         _______ _______ _______ _____ _____    ______ ____

>  <TORSDO>
F 2

$$$$
=
 OpenBabel11062415463D

 27 31  0  0  1  0  0  0  0  0999 V2000
  186.9930  178.4690  139.8000 N   0  0  0  0  0  0  0  0  0  0  0  0
  191.3050  176.7730  139.8030 C   0  0  0  0  0  3  0  0  0  0  0  0
  187.6830  178.1490  138.5880 C   0  0  0  0  0  0  0  0  0  0  0  0
  189.8330  177.2780  137.9230 C   0  0  0  0  0  0  0  0  0  0  0  0
  189.4240  177.3850  136.5800 C   0  0  0  0  0  3  0  0  0  0  0  0
  188.9130  177.6760  138.8640 C   0  0  0  0  0  0  0  0  0  0  0  0
  189.1050  177.6540  140.1970 C   0  0  0  0  0  0  0  0  0  0  0  0
  188.1680  177.8680  136.2860 N   0  0  0  0  0  0  0  0  0  0  0  0
  187.8460  178.1710  140.7520 C   0  0  0  0  0  0  0  0  0  0  0  0
  191.0770  176.8070  138.3940 C   0  0  0  0  0  0  0  0  0  0  0  0
  190.3140  177.1990  140.7250 C   0  0  0  0  0  3  0  0  0  0  0  0
  187.2770  178.2560  137.2600 C   0  0  0  0  0  3  0  0  0  0  0  0
  187.9880  177.4670  144.5000 C   0  0  0  0  0  2  0  0  0  0  0  0
  187.5600  178.3440  142.2070 C   0  0  1  0  0  3  0  0  0  0  0  0
  186.0540  178.4500  142.4440 C   0  0  0  0  0  2  0  0  0  0  0  0
  186.1990  177.8150  146.2070 C   0  0  0  0  0  3  0  0  0  0  0  0
  188.1360  177.1820  143.0090 C   0  0  0  0  0  2  0  0  0  0  0  0
  184.0470  178.7660  145.6410 C   0  0  0  0  0  3  0  0  0  0  0  0
  184.9300  178.2530  146.5940 C   0  0  0  0  0  3  0  0  0  0  0  0
  185.7040  178.4180  143.9050 C   0  0  0  0  0  0  0  0  0  0  0  0
  186.5890  177.8780  144.8660 C   0  0  0  0  0  0  0  0  0  0  0  0
  184.4310  178.8440  144.3000 C   0  0  0  0  0  3  0  0  0  0  0  0
  191.7540  174.0590  137.5920 O   0  0  0  0  0  0  0  0  0  0  0  0
  192.0750  176.3780  137.4540 N   0  0  0  0  0  2  0  0  0  0  0  0
  193.4130  174.7900  136.1270 N   0  0  0  0  0  2  0  0  0  0  0  0
  192.3810  175.0270  137.0840 C   0  0  0  0  0  0  0  0  0  0  0  0
  193.7760  173.4480  135.7050 C   0  0  0  0  0  1  0  0  0  0  0  0
  1  9  2  0  0  0  0
  2 11  2  0  0  0  0
  3  6  1  0  0  0  0
  3  1  1  0  0  0  0
  4 10  2  0  0  0  0
  4  6  1  0  0  0  0
  5  4  1  0  0  0  0
  6  7  2  0  0  0  0
  7 11  1  0  0  0  0
  7  9  1  0  0  0  0
  8  5  2  0  0  0  0
  8 12  1  0  0  0  0
 10  2  1  0  0  0  0
 12  3  2  0  0  0  0
 13 21  1  0  0  0  0
 14  9  1  6  0  0  0
 14 15  1  0  0  0  0
 14 17  1  0  0  0  0
 15 20  1  0  0  0  0
 16 19  1  0  0  0  0
 17 13  1  0  0  0  0
 18 19  2  0  0  0  0
 20 22  2  0  0  0  0
 20 21  1  0  0  0  0
 21 16  2  0  0  0  0
 22 18  1  0  0  0  0
 24 10  1  0  0  0  0
 25 26  1  0  0  0  0
 26 24  1  0  0  0  0
 26 23  2  0  0  0  0
 27 25  1  0  0  0  0
M  END
>  <MODEL>
5

>  <REMARK>
 VINA RESULT:      -9.6      5.943      7.858
  Name = 
  2 active torsions:
  status: ('A' for Active; 'I' for Inactive)
    1  A    between atoms: C_3  and  C_24
    2  A    between atoms: N_12  and  C_25
                            x       y       z     vdW  Elec       q    Type
                         _______ _______ _______ _____ _____    ______ ____

>  <TORSDO>
F 2

$$$$
=
 OpenBabel11062415463D

 27 31  0  0  1  0  0  0  0  0999 V2000
  184.7080  178.4280  144.5960 N   0  0  0  0  0  0  0  0  0  0  0  0
  184.6960  178.8370  139.9800 C   0  0  0  0  0  3  0  0  0  0  0  0
  183.4980  178.6090  143.8540 C   0  0  0  0  0  0  0  0  0  0  0  0
  182.8280  178.8780  141.5510 C   0  0  0  0  0  0  0  0  0  0  0  0
  181.4920  178.9690  141.9840 C   0  0  0  0  0  3  0  0  0  0  0  0
  183.7690  178.6990  142.5380 C   0  0  0  0  0  0  0  0  0  0  0  0
  185.0960  178.5900  142.3360 C   0  0  0  0  0  0  0  0  0  0  0  0
  181.2040  178.8780  143.3290 N   0  0  0  0  0  0  0  0  0  0  0  0
  185.6530  178.4170  143.6860 C   0  0  0  0  0  0  0  0  0  0  0  0
  183.2930  178.9510  140.2200 C   0  0  0  0  0  0  0  0  0  0  0  0
  185.6180  178.6540  141.0440 C   0  0  0  0  0  3  0  0  0  0  0  0
  182.1760  178.6990  144.2840 C   0  0  0  0  0  3  0  0  0  0  0  0
  189.2340  177.1470  143.3240 C   0  0  0  0  0  2  0  0  0  0  0  0
  187.1040  178.2520  143.9970 C   0  0  1  0  0  3  0  0  0  0  0  0
  187.2940  177.8980  145.4720 C   0  0  0  0  0  2  0  0  0  0  0  0
  190.9010  176.6920  145.1260 C   0  0  0  0  0  3  0  0  0  0  0  0
  187.7230  177.1750  143.1140 C   0  0  0  0  0  2  0  0  0  0  0  0
  190.4150  177.0960  147.4620 C   0  0  0  0  0  3  0  0  0  0  0  0
  191.3040  176.6910  146.4630 C   0  0  0  0  0  3  0  0  0  0  0  0
  188.7140  177.5210  145.7870 C   0  0  0  0  0  0  0  0  0  0  0  0
  189.6060  177.0890  144.7790 C   0  0  0  0  0  0  0  0  0  0  0  0
  189.1230  177.5060  147.1250 C   0  0  0  0  0  3  0  0  0  0  0  0
  182.7130  181.4130  138.7190 O   0  0  0  0  0  0  0  0  0  0  0  0
  182.3540  179.1360  139.1500 N   0  0  0  0  0  2  0  0  0  0  0  0
  181.1180  180.3470  137.3950 N   0  0  0  0  0  2  0  0  0  0  0  0
  182.0940  180.3520  138.4370 C   0  0  0  0  0  0  0  0  0  0  0  0
  180.8040  181.5420  136.6310 C   0  0  0  0  0  1  0  0  0  0  0  0
  2 10  2  0  0  0  0
  2 11  1  0  0  0  0
  3 12  1  0  0  0  0
  3  1  1  0  0  0  0
  4  5  2  0  0  0  0
  4  6  1  0  0  0  0
  5  8  1  0  0  0  0
  6  3  2  0  0  0  0
  7  6  1  0  0  0  0
  7  9  1  0  0  0  0
  8 12  2  0  0  0  0
  9  1  2  0  0  0  0
 10  4  1  0  0  0  0
 11  7  2  0  0  0  0
 13 21  1  0  0  0  0
 14  9  1  6  0  0  0
 14 15  1  0  0  0  0
 15 20  1  0  0  0  0
 16 19  1  0  0  0  0
 17 13  1  0  0  0  0
 17 14  1  0  0  0  0
 19 18  2  0  0  0  0
 20 22  2  0  0  0  0
 21 16  2  0  0  0  0
 21 20  1  0  0  0  0
 22 18  1  0  0  0  0
 24 10  1  0  0  0  0
 25 26  1  0  0  0  0
 26 23  2  0  0  0  0
 26 24  1  0  0  0  0
 27 25  1  0  0  0  0
M  END
>  <MODEL>
6

>  <REMARK>
 VINA RESULT:      -9.5      1.033      1.327
  Name = 
  2 active torsions:
  status: ('A' for Active; 'I' for Inactive)
    1  A    between atoms: C_3  and  C_24
    2  A    between atoms: N_12  and  C_25
                            x       y       z     vdW  Elec       q    Type
                         _______ _______ _______ _____ _____    ______ ____

>  <TORSDO>
F 2

$$$$
=
 OpenBabel11062415463D

 27 31  0  0  1  0  0  0  0  0999 V2000
  191.6160  177.1520  141.4990 N   0  0  0  0  0  0  0  0  0  0  0  0
  187.4110  178.2530  139.8940 C   0  0  0  0  0  3  0  0  0  0  0  0
  191.2960  177.0880  140.1070 C   0  0  0  0  0  0  0  0  0  0  0  0
  189.3920  177.5040  138.6820 C   0  0  0  0  0  0  0  0  0  0  0  0
  190.1800  177.1320  137.5760 C   0  0  0  0  0  3  0  0  0  0  0  0
  190.0160  177.4570  139.9060 C   0  0  0  0  0  0  0  0  0  0  0  0
  189.4420  177.7700  141.0830 C   0  0  0  0  0  0  0  0  0  0  0  0
  191.4910  176.7530  137.7690 N   0  0  0  0  0  0  0  0  0  0  0  0
  190.5090  177.5600  142.0730 C   0  0  0  0  0  0  0  0  0  0  0  0
  188.0420  177.9140  138.6590 C   0  0  0  0  0  0  0  0  0  0  0  0
  188.1100  178.1840  141.1270 C   0  0  0  0  0  3  0  0  0  0  0  0
  192.0770  176.7200  139.0130 C   0  0  0  0  0  3  0  0  0  0  0  0
  191.1950  177.1280  145.8020 C   0  0  0  0  0  2  0  0  0  0  0  0
  190.3650  177.7740  143.5440 C   0  0  1  0  0  3  0  0  0  0  0  0
  188.8990  177.6430  143.9580 C   0  0  0  0  0  2  0  0  0  0  0  0
  189.5780  177.2800  147.6980 C   0  0  0  0  0  3  0  0  0  0  0  0
  191.2200  176.7780  144.3180 C   0  0  0  0  0  2  0  0  0  0  0  0
  187.2430  177.8220  147.3600 C   0  0  0  0  0  3  0  0  0  0  0  0
  188.3050  177.5250  148.2190 C   0  0  0  0  0  3  0  0  0  0  0  0
  188.7280  177.6450  145.4510 C   0  0  0  0  0  0  0  0  0  0  0  0
  189.7970  177.3220  146.3190 C   0  0  0  0  0  0  0  0  0  0  0  0
  187.4540  177.8780  145.9800 C   0  0  0  0  0  3  0  0  0  0  0  0
  186.6800  175.7390  137.2200 O   0  0  0  0  0  0  0  0  0  0  0  0
  187.3420  177.9810  137.4070 N   0  0  0  0  0  2  0  0  0  0  0  0
  186.0390  177.1560  135.4850 N   0  0  0  0  0  2  0  0  0  0  0  0
  186.6870  176.9010  136.7300 C   0  0  0  0  0  0  0  0  0  0  0  0
  185.3550  176.1100  134.7440 C   0  0  0  0  0  1  0  0  0  0  0  0
  1  9  2  0  0  0  0
  2 11  2  0  0  0  0
  3  1  1  0  0  0  0
  4  6  1  0  0  0  0
  5  8  2  0  0  0  0
  5  4  1  0  0  0  0
  6  3  1  0  0  0  0
  6  7  2  0  0  0  0
  7 11  1  0  0  0  0
  7  9  1  0  0  0  0
  8 12  1  0  0  0  0
 10  4  2  0  0  0  0
 10  2  1  0  0  0  0
 12  3  2  0  0  0  0
 13 21  1  0  0  0  0
 14  9  1  6  0  0  0
 14 15  1  0  0  0  0
 14 17  1  0  0  0  0
 15 20  1  0  0  0  0
 16 19  1  0  0  0  0
 17 13  1  0  0  0  0
 18 19  2  0  0  0  0
 20 22  2  0  0  0  0
 20 21  1  0  0  0  0
 21 16  2  0  0  0  0
 22 18  1  0  0  0  0
 24 10  1  0  0  0  0
 25 26  1  0  0  0  0
 26 23  2  0  0  0  0
 26 24  1  0  0  0  0
 27 25  1  0  0  0  0
M  END
>  <MODEL>
7

>  <REMARK>
 VINA RESULT:      -9.5      4.847      6.487
  Name = 
  2 active torsions:
  status: ('A' for Active; 'I' for Inactive)
    1  A    between atoms: C_3  and  C_24
    2  A    between atoms: N_12  and  C_25
                            x       y       z     vdW  Elec       q    Type
                         _______ _______ _______ _____ _____    ______ ____

>  <TORSDO>
F 2

$$$$
=
 OpenBabel11062415463D

 27 31  0  0  1  0  0  0  0  0999 V2000
  186.2890  178.2640  141.8530 N   0  0  0  0  0  0  0  0  0  0  0  0
  181.6960  178.8550  142.0310 C   0  0  0  0  0  3  0  0  0  0  0  0
  185.5110  178.5140  140.6790 C   0  0  0  0  0  0  0  0  0  0  0  0
  183.1970  178.8940  140.1060 C   0  0  0  0  0  0  0  0  0  0  0  0
  183.5830  179.0090  138.7570 C   0  0  0  0  0  3  0  0  0  0  0  0
  184.2100  178.6480  141.0030 C   0  0  0  0  0  0  0  0  0  0  0  0
  184.0530  178.5030  142.3320 C   0  0  0  0  0  0  0  0  0  0  0  0
  184.9110  178.8740  138.4150 N   0  0  0  0  0  0  0  0  0  0  0  0
  185.4150  178.2600  142.8310 C   0  0  0  0  0  0  0  0  0  0  0  0
  181.8880  179.0040  140.6240 C   0  0  0  0  0  0  0  0  0  0  0  0
  182.7850  178.6020  142.9050 C   0  0  0  0  0  3  0  0  0  0  0  0
  185.8940  178.6280  139.3450 C   0  0  0  0  0  3  0  0  0  0  0  0
  185.5850  178.9070  146.5890 C   0  0  0  0  0  2  0  0  0  0  0  0
  185.7720  178.0320  144.2640 C   0  0  1  0  0  3  0  0  0  0  0  0
  187.2710  177.7640  144.4010 C   0  0  0  0  0  2  0  0  0  0  0  0
  187.4310  178.3430  148.1720 C   0  0  0  0  0  3  0  0  0  0  0  0
  185.3740  179.2330  145.1140 C   0  0  0  0  0  2  0  0  0  0  0  0
  189.4310  177.1830  147.4570 C   0  0  0  0  0  3  0  0  0  0  0  0
  188.6680  177.7680  148.4710 C   0  0  0  0  0  3  0  0  0  0  0  0
  187.7130  177.7330  145.8360 C   0  0  0  0  0  0  0  0  0  0  0  0
  186.9530  178.3460  146.8590 C   0  0  0  0  0  0  0  0  0  0  0  0
  188.9560  177.1690  146.1430 C   0  0  0  0  0  3  0  0  0  0  0  0
  181.1560  181.5420  139.3290 O   0  0  0  0  0  0  0  0  0  0  0  0
  180.7920  179.2600  139.7320 N   0  0  0  0  0  2  0  0  0  0  0  0
  179.3260  180.5790  138.2530 N   0  0  0  0  0  2  0  0  0  0  0  0
  180.4610  180.5120  139.1170 C   0  0  0  0  0  0  0  0  0  0  0  0
  178.9320  181.8120  137.5950 C   0  0  0  0  0  1  0  0  0  0  0  0
  1  9  2  0  0  0  0
  2 11  2  0  0  0  0
  3  6  1  0  0  0  0
  3  1  1  0  0  0  0
  4 10  2  0  0  0  0
  4  6  1  0  0  0  0
  5  4  1  0  0  0  0
  6  7  2  0  0  0  0
  7  9  1  0  0  0  0
  7 11  1  0  0  0  0
  8  5  2  0  0  0  0
  8 12  1  0  0  0  0
 10  2  1  0  0  0  0
 12  3  2  0  0  0  0
 13 21  1  0  0  0  0
 14  9  1  6  0  0  0
 14 15  1  0  0  0  0
 14 17  1  0  0  0  0
 15 20  1  0  0  0  0
 16 19  1  0  0  0  0
 17 13  1  0  0  0  0
 18 19  2  0  0  0  0
 20 22  2  0  0  0  0
 20 21  1  0  0  0  0
 21 16  2  0  0  0  0
 22 18  1  0  0  0  0
 24 10  1  0  0  0  0
 25 26  1  0  0  0  0
 26 23  2  0  0  0  0
 26 24  1  0  0  0  0
 27 25  1  0  0  0  0
M  END
>  <MODEL>
8

>  <REMARK>
 VINA RESULT:      -9.4      1.450      2.923
  Name = 
  2 active torsions:
  status: ('A' for Active; 'I' for Inactive)
    1  A    between atoms: C_3  and  C_24
    2  A    between atoms: N_12  and  C_25
                            x       y       z     vdW  Elec       q    Type
                         _______ _______ _______ _____ _____    ______ ____

>  <TORSDO>
F 2

$$$$
=
 OpenBabel11062415463D

 27 31  0  0  1  0  0  0  0  0999 V2000
  186.9020  178.5000  141.2320 N   0  0  0  0  0  0  0  0  0  0  0  0
  188.4700  177.2950  145.4230 C   0  0  0  0  0  3  0  0  0  0  0  0
  188.2330  178.0180  141.4330 C   0  0  0  0  0  0  0  0  0  0  0  0
  189.6100  177.2580  143.2640 C   0  0  0  0  0  0  0  0  0  0  0  0
  190.6590  177.0520  142.3480 C   0  0  0  0  0  3  0  0  0  0  0  0
  188.4350  177.7390  142.7350 C   0  0  0  0  0  0  0  0  0  0  0  0
  187.3170  178.0030  143.4380 C   0  0  0  0  0  0  0  0  0  0  0  0
  190.4620  177.3340  141.0130 N   0  0  0  0  0  0  0  0  0  0  0  0
  186.3640  178.4880  142.4290 C   0  0  0  0  0  0  0  0  0  0  0  0
  189.6430  177.0220  144.6560 C   0  0  0  0  0  0  0  0  0  0  0  0
  187.2870  177.7910  144.8170 C   0  0  0  0  0  3  0  0  0  0  0  0
  189.2700  177.8150  140.5250 C   0  0  0  0  0  3  0  0  0  0  0  0
  183.1530  179.0110  144.4260 C   0  0  0  0  0  2  0  0  0  0  0  0
  184.9620  178.9170  142.7140 C   0  0  1  0  0  3  0  0  0  0  0  0
  184.0170  178.4000  141.6300 C   0  0  0  0  0  2  0  0  0  0  0  0
  180.7980  178.9870  143.5980 C   0  0  0  0  0  3  0  0  0  0  0  0
  184.5150  178.4150  144.0820 C   0  0  0  0  0  2  0  0  0  0  0  0
  180.2570  178.6710  141.2610 C   0  0  0  0  0  3  0  0  0  0  0  0
  179.8490  178.9000  142.5770 C   0  0  0  0  0  3  0  0  0  0  0  0
  182.5730  178.6280  141.9780 C   0  0  0  0  0  0  0  0  0  0  0  0
  182.1580  178.8370  143.3130 C   0  0  0  0  0  0  0  0  0  0  0  0
  181.6150  178.5310  140.9630 C   0  0  0  0  0  3  0  0  0  0  0  0
  190.3980  177.0610  147.4990 O   0  0  0  0  0  0  0  0  0  0  0  0
  190.8450  176.5200  145.2610 N   0  0  0  0  0  2  0  0  0  0  0  0
  192.4300  176.0030  147.0760 N   0  0  0  0  0  2  0  0  0  0  0  0
  191.1830  176.5540  146.6530 C   0  0  0  0  0  0  0  0  0  0  0  0
  192.8390  176.0030  148.4700 C   0  0  0  0  0  1  0  0  0  0  0  0
  1  3  1  0  0  0  0
  1  9  2  0  0  0  0
  3  6  2  0  0  0  0
  4 10  1  0  0  0  0
  5  4  2  0  0  0  0
  6  4  1  0  0  0  0
  6  7  1  0  0  0  0
  7 11  2  0  0  0  0
  8  5  1  0  0  0  0
  9  7  1  0  0  0  0
 10 24  1  0  0  0  0
 10  2  2  0  0  0  0
 11  2  1  0  0  0  0
 12  8  2  0  0  0  0
 12  3  1  0  0  0  0
 14  9  1  6  0  0  0
 14 17  1  0  0  0  0
 15 20  1  0  0  0  0
 15 14  1  0  0  0  0
 17 13  1  0  0  0  0
 18 19  1  0  0  0  0
 19 16  2  0  0  0  0
 20 21  2  0  0  0  0
 21 16  1  0  0  0  0
 21 13  1  0  0  0  0
 22 18  2  0  0  0  0
 22 20  1  0  0  0  0
 24 26  1  0  0  0  0
 25 27  1  0  0  0  0
 26 25  1  0  0  0  0
 26 23  2  0  0  0  0
M  END
>  <MODEL>
9

>  <REMARK>
 VINA RESULT:      -9.4      4.229      9.081
  Name = 
  2 active torsions:
  status: ('A' for Active; 'I' for Inactive)
    1  A    between atoms: C_3  and  C_24
    2  A    between atoms: N_12  and  C_25
                            x       y       z     vdW  Elec       q    Type
                         _______ _______ _______ _____ _____    ______ ____

>  <TORSDO>
F 2

$$$$
