=
 OpenBabel11062414393D

 38 42  0  0  1  0  0  0  0  0999 V2000
  184.4890  178.7400  139.8430 C   0  0  0  0  0  2  0  0  0  0  0  0
  185.1020  177.3940  136.9530 C   0  0  0  0  0  2  0  0  0  0  0  0
  187.9340  178.0570  139.3450 C   0  0  2  0  0  3  0  0  0  0  0  0
  186.5410  179.0270  141.3000 C   0  0  0  0  0  3  0  0  0  0  0  0
  186.0760  174.5530  137.1010 F   0  0  0  0  0  0  0  0  0  0  0  0
  186.8360  175.5690  136.5590 C   0  0  0  0  0  0  0  0  0  0  0  0
  187.5320  177.6480  137.9380 C   0  0  2  0  0  3  0  0  0  0  0  0
  186.8670  178.5810  139.9330 C   0  0  0  0  0  0  0  0  0  0  0  0
  185.8950  176.5960  135.9120 C   0  0  0  0  0  2  0  0  0  0  0  0
  186.0540  177.9380  137.9610 C   0  0  0  0  0  0  0  0  0  0  0  0
  185.7400  178.4900  139.1140 C   0  0  0  0  0  0  0  0  0  0  0  0
  187.7340  176.1520  137.6710 C   0  0  0  0  0  2  0  0  0  0  0  0
  184.9880  179.0660  141.2760 C   0  0  2  0  0  3  0  0  0  0  0  0
  187.6460  175.0340  135.5770 F   0  0  0  0  0  0  0  0  0  0  0  0
  190.3560  176.7130  139.2630 S   0  0  0  0  0  0  0  0  0  0  0  0
  189.3270  178.1010  139.9080 C   0  0  2  0  0  3  0  0  0  0  0  0
  189.5230  177.0140  140.8740 C   0  0  2  0  0  3  0  0  0  0  0  0
  190.5610  177.4360  141.9120 C   0  0  0  0  0  2  0  0  0  0  0  0
  189.8520  178.1530  143.0480 C   0  0  1  0  0  3  0  0  0  0  0  0
  190.1640  177.4940  144.3270 N   0  0  0  0  0  0  0  0  0  0  0  0
  190.8480  178.7430  143.9340 C   0  0  0  0  0  2  0  0  0  0  0  0
  187.7710  177.2160  144.5940 C   0  0  0  0  0  1  0  0  0  0  0  0
  189.0350  177.7850  145.2180 C   0  0  1  0  0  3  0  0  0  0  0  0
  189.2070  177.2130  146.4930 O   0  0  0  0  0  0  0  0  0  0  0  0
  187.9710  177.4000  147.1320 C   0  0  0  0  0  2  0  0  0  0  0  0
  188.1750  177.9750  148.5350 C   0  0  0  0  0  2  0  0  0  0  0  0
  189.5080  178.3340  148.7350 O   0  0  0  0  0  1  0  0  0  0  0  0
  184.4640  178.0180  142.2490 C   0  0  0  0  0  2  0  0  0  0  0  0
  184.7150  178.4360  143.6910 C   0  0  0  0  0  2  0  0  0  0  0  0
  183.5700  179.1410  145.6860 O   0  0  0  0  0  1  0  0  0  0  0  0
  183.5210  179.1790  144.2930 C   0  0  2  0  0  3  0  0  0  0  0  0
  182.1890  178.6230  143.8060 C   0  0  0  0  0  2  0  0  0  0  0  0
  181.4620  179.6390  143.0590 N   0  0  0  0  0  2  0  0  0  0  0  0
  180.7720  178.1920  141.3660 O   0  0  0  0  0  0  0  0  0  0  0  0
  180.7690  179.3580  141.8420 C   0  0  0  0  0  0  0  0  0  0  0  0
  180.1440  180.5470  139.6580 C   0  0  0  0  0  1  0  0  0  0  0  0
  179.3440  181.2440  141.7790 O   0  0  0  0  0  0  0  0  0  0  0  0
  180.0600  180.4300  141.1360 C   0  0  0  0  0  0  0  0  0  0  0  0
  1 13  1  0  0  0  0
  2 10  1  0  0  0  0
  3 16  1  0  0  0  0
  3  8  1  6  0  0  0
  6  5  1  0  0  0  0
  6 12  1  0  0  0  0
  7 12  1  1  0  0  0
  7 10  1  0  0  0  0
  7  3  1  0  0  0  0
  8  4  2  0  0  0  0
  9  6  1  0  0  0  0
  9  2  1  0  0  0  0
 10 11  2  0  0  0  0
 11  1  1  0  0  0  0
 11  8  1  0  0  0  0
 13  4  1  0  0  0  0
 13 28  1  1  0  0  0
 14  6  1  0  0  0  0
 15 17  1  0  0  0  0
 16 15  1  6  0  0  0
 16 17  1  0  0  0  0
 17 18  1  1  0  0  0
 19 18  1  6  0  0  0
 19 21  1  0  0  0  0
 19 20  1  0  0  0  0
 20 23  1  0  0  0  0
 21 20  1  0  0  0  0
 23 22  1  6  0  0  0
 23 24  1  0  0  0  0
 24 25  1  0  0  0  0
 25 26  1  0  0  0  0
 26 27  1  0  0  0  0
 28 29  1  0  0  0  0
 29 31  1  0  0  0  0
 31 30  1  1  0  0  0
 32 31  1  0  0  0  0
 33 32  1  0  0  0  0
 34 35  2  0  0  0  0
 35 33  1  0  0  0  0
 36 38  1  0  0  0  0
 38 37  2  0  0  0  0
 38 35  1  0  0  0  0
M  END
>  <MODEL>
1

>  <REMARK>
 VINA RESULT:      -7.7      0.000      0.000
  Name = 
  13 active torsions:
  status: ('A' for Active; 'I' for Inactive)
    1  A    between atoms: C_1  and  C_37
    2  A    between atoms: N_3  and  C_32
    3  A    between atoms: C_5  and  C_27
    4  A    between atoms: C_12  and  C_15
    5  A    between atoms: N_14  and  C_24
    6  A    between atoms: C_15  and  O_20
    7  A    between atoms: C_18  and  C_35
    8  A    between atoms: C_18  and  C_36
    9  A    between atoms: O_20  and  C_32
   10  A    between atoms: C_24  and  C_31
   11  A    between atoms: C_26  and  C_33
   12  A    between atoms: C_31  and  C_36
   13  A    between atoms: C_34  and  C_37
                            x       y       z     vdW  Elec       q    Type
                         _______ _______ _______ _____ _____    ______ ____

>  <TORSDO>
F 13

$$$$
=
 OpenBabel11062414393D

 38 42  0  0  1  0  0  0  0  0999 V2000
  185.6630  177.6080  144.5370 C   0  0  0  0  0  2  0  0  0  0  0  0
  186.9300  177.4480  147.5220 C   0  0  0  0  0  2  0  0  0  0  0  0
  189.1720  177.0880  144.5170 C   0  0  2  0  0  3  0  0  0  0  0  0
  187.3750  177.4040  142.6810 C   0  0  0  0  0  3  0  0  0  0  0  0
  188.7610  179.7340  148.2050 F   0  0  0  0  0  0  0  0  0  0  0  0
  189.1920  178.4230  148.1740 C   0  0  0  0  0  0  0  0  0  0  0  0
  189.0490  176.9800  146.0280 C   0  0  2  0  0  3  0  0  0  0  0  0
  187.9450  177.1520  144.0170 C   0  0  0  0  0  0  0  0  0  0  0  0
  188.0270  177.5120  148.5900 C   0  0  0  0  0  2  0  0  0  0  0  0
  187.5610  177.1290  146.2110 C   0  0  0  0  0  0  0  0  0  0  0  0
  186.9860  177.1980  145.0300 C   0  0  0  0  0  0  0  0  0  0  0  0
  189.7500  178.1260  146.7670 C   0  0  0  0  0  2  0  0  0  0  0  0
  185.9020  177.7720  143.0120 C   0  0  2  0  0  3  0  0  0  0  0  0
  190.2140  178.2770  149.0910 F   0  0  0  0  0  0  0  0  0  0  0  0
  191.5410  178.3630  143.8560 S   0  0  0  0  0  0  0  0  0  0  0  0
  190.4200  176.9070  143.6990 C   0  0  2  0  0  3  0  0  0  0  0  0
  190.3990  177.7970  142.5330 C   0  0  2  0  0  3  0  0  0  0  0  0
  191.2070  177.1680  141.3980 C   0  0  0  0  0  2  0  0  0  0  0  0
  190.2630  176.8250  140.2580 C   0  0  1  0  0  3  0  0  0  0  0  0
  190.4650  177.7650  139.1430 N   0  0  0  0  0  0  0  0  0  0  0  0
  191.0450  176.4070  139.1010 C   0  0  0  0  0  2  0  0  0  0  0  0
  188.0930  178.2020  139.3800 C   0  0  0  0  0  1  0  0  0  0  0  0
  189.1940  177.8030  138.4110 C   0  0  1  0  0  3  0  0  0  0  0  0
  189.2220  178.7300  137.3510 O   0  0  0  0  0  0  0  0  0  0  0  0
  187.9220  178.7020  136.8250 C   0  0  0  0  0  2  0  0  0  0  0  0
  187.8420  177.7290  135.6450 C   0  0  0  0  0  2  0  0  0  0  0  0
  186.9100  176.7230  135.8950 O   0  0  0  0  0  1  0  0  0  0  0  0
  185.6670  179.2230  142.6130 C   0  0  0  0  0  2  0  0  0  0  0  0
  184.2830  179.4060  142.0060 C   0  0  0  0  0  2  0  0  0  0  0  0
  184.9920  179.7340  139.7300 O   0  0  0  0  0  1  0  0  0  0  0  0
  184.2190  178.9200  140.5570 C   0  0  2  0  0  3  0  0  0  0  0  0
  182.7900  178.8550  140.0320 C   0  0  0  0  0  2  0  0  0  0  0  0
  181.9240  178.2070  141.0050 N   0  0  0  0  0  2  0  0  0  0  0  0
  180.4520  180.0050  141.1980 O   0  0  0  0  0  0  0  0  0  0  0  0
  180.7640  178.8370  141.5510 C   0  0  0  0  0  0  0  0  0  0  0  0
  179.8750  178.5890  143.9440 C   0  0  0  0  0  1  0  0  0  0  0  0
  179.2420  177.1400  142.1770 O   0  0  0  0  0  0  0  0  0  0  0  0
  179.9360  178.1290  142.5330 C   0  0  0  0  0  0  0  0  0  0  0  0
  1 11  1  0  0  0  0
  2  9  1  0  0  0  0
  3  8  1  6  0  0  0
  3  7  1  0  0  0  0
  4 13  1  0  0  0  0
  4  8  2  0  0  0  0
  6  5  1  0  0  0  0
  6  9  1  0  0  0  0
  6 14  1  0  0  0  0
  7 10  1  0  0  0  0
  7 12  1  1  0  0  0
  8 11  1  0  0  0  0
 10  2  1  0  0  0  0
 11 10  2  0  0  0  0
 12  6  1  0  0  0  0
 13 28  1  1  0  0  0
 13  1  1  0  0  0  0
 16 15  1  1  0  0  0
 16  3  1  0  0  0  0
 17 18  1  6  0  0  0
 17 16  1  0  0  0  0
 17 15  1  0  0  0  0
 19 18  1  1  0  0  0
 20 19  1  0  0  0  0
 21 20  1  0  0  0  0
 21 19  1  0  0  0  0
 23 20  1  0  0  0  0
 23 22  1  1  0  0  0
 24 23  1  0  0  0  0
 25 24  1  0  0  0  0
 26 27  1  0  0  0  0
 26 25  1  0  0  0  0
 29 28  1  0  0  0  0
 31 30  1  6  0  0  0
 31 29  1  0  0  0  0
 32 31  1  0  0  0  0
 32 33  1  0  0  0  0
 33 35  1  0  0  0  0
 34 35  2  0  0  0  0
 35 38  1  0  0  0  0
 37 38  2  0  0  0  0
 38 36  1  0  0  0  0
M  END
>  <MODEL>
2

>  <REMARK>
 VINA RESULT:      -7.6      4.262      7.240
  Name = 
  13 active torsions:
  status: ('A' for Active; 'I' for Inactive)
    1  A    between atoms: C_1  and  C_37
    2  A    between atoms: N_3  and  C_32
    3  A    between atoms: C_5  and  C_27
    4  A    between atoms: C_12  and  C_15
    5  A    between atoms: N_14  and  C_24
    6  A    between atoms: C_15  and  O_20
    7  A    between atoms: C_18  and  C_35
    8  A    between atoms: C_18  and  C_36
    9  A    between atoms: O_20  and  C_32
   10  A    between atoms: C_24  and  C_31
   11  A    between atoms: C_26  and  C_33
   12  A    between atoms: C_31  and  C_36
   13  A    between atoms: C_34  and  C_37
                            x       y       z     vdW  Elec       q    Type
                         _______ _______ _______ _____ _____    ______ ____

>  <TORSDO>
F 13

$$$$
=
 OpenBabel11062414393D

 38 42  0  0  1  0  0  0  0  0999 V2000
  186.8240  177.1470  145.4560 C   0  0  0  0  0  2  0  0  0  0  0  0
  189.1890  176.1110  143.4870 C   0  0  0  0  0  2  0  0  0  0  0  0
  186.4260  178.2700  142.1150 C   0  0  2  0  0  3  0  0  0  0  0  0
  185.1190  178.6360  144.3190 C   0  0  0  0  0  3  0  0  0  0  0  0
  190.9710  178.2980  142.4470 F   0  0  0  0  0  0  0  0  0  0  0  0
  190.2090  177.5040  141.6130 C   0  0  0  0  0  0  0  0  0  0  0  0
  187.6280  177.3970  141.7990 C   0  0  2  0  0  3  0  0  0  0  0  0
  186.0770  178.0370  143.3730 C   0  0  0  0  0  0  0  0  0  0  0  0
  190.0840  176.1090  142.2440 C   0  0  0  0  0  2  0  0  0  0  0  0
  187.9030  176.7810  143.1450 C   0  0  0  0  0  0  0  0  0  0  0  0
  186.9720  177.1640  143.9930 C   0  0  0  0  0  0  0  0  0  0  0  0
  188.8570  178.2070  141.3700 C   0  0  0  0  0  2  0  0  0  0  0  0
  185.6380  178.1210  145.6890 C   0  0  2  0  0  3  0  0  0  0  0  0
  190.8640  177.3840  140.4040 F   0  0  0  0  0  0  0  0  0  0  0  0
  183.8450  178.5390  141.1430 S   0  0  0  0  0  0  0  0  0  0  0  0
  185.6110  179.0700  141.1370 C   0  0  2  0  0  3  0  0  0  0  0  0
  185.2400  178.2420  139.9840 C   0  0  2  0  0  3  0  0  0  0  0  0
  185.0740  179.1300  138.7510 C   0  0  0  0  0  2  0  0  0  0  0  0
  186.0100  178.6340  137.6630 C   0  0  1  0  0  3  0  0  0  0  0  0
  186.9150  177.6100  138.2110 N   0  0  0  0  0  0  0  0  0  0  0  0
  185.7380  177.2250  137.4060 C   0  0  0  0  0  2  0  0  0  0  0  0
  188.8530  178.9500  137.6400 C   0  0  0  0  0  1  0  0  0  0  0  0
  188.1200  177.6450  137.3740 C   0  0  1  0  0  3  0  0  0  0  0  0
  188.9890  176.5730  137.6540 O   0  0  0  0  0  0  0  0  0  0  0  0
  190.2110  176.9510  137.0750 C   0  0  0  0  0  2  0  0  0  0  0  0
  191.3140  175.9620  137.4590 C   0  0  0  0  0  2  0  0  0  0  0  0
  190.8210  174.9760  138.3120 O   0  0  0  0  0  1  0  0  0  0  0  0
  186.1130  179.3160  146.5060 C   0  0  0  0  0  2  0  0  0  0  0  0
  186.4500  178.9060  147.9320 C   0  0  0  0  0  2  0  0  0  0  0  0
  187.3680  176.9620  149.0130 O   0  0  0  0  0  1  0  0  0  0  0  0
  187.5830  177.8790  147.9850 C   0  0  2  0  0  3  0  0  0  0  0  0
  188.9480  178.5330  148.1520 C   0  0  0  0  0  2  0  0  0  0  0  0
  190.0060  177.5540  147.9460 N   0  0  0  0  0  2  0  0  0  0  0  0
  190.2660  178.0090  145.6750 O   0  0  0  0  0  0  0  0  0  0  0  0
  190.6280  177.3400  146.6790 C   0  0  0  0  0  0  0  0  0  0  0  0
  192.3540  175.7670  147.7370 C   0  0  0  0  0  1  0  0  0  0  0  0
  192.0090  175.9140  145.3960 O   0  0  0  0  0  0  0  0  0  0  0  0
  191.6840  176.3330  146.5390 C   0  0  0  0  0  0  0  0  0  0  0  0
  1 13  1  0  0  0  0
  3  8  1  6  0  0  0
  4 13  1  0  0  0  0
  6  9  1  0  0  0  0
  6  5  1  0  0  0  0
  7 12  1  1  0  0  0
  7  3  1  0  0  0  0
  7 10  1  0  0  0  0
  8 11  1  0  0  0  0
  8  4  2  0  0  0  0
  9  2  1  0  0  0  0
 10  2  1  0  0  0  0
 10 11  2  0  0  0  0
 11  1  1  0  0  0  0
 12  6  1  0  0  0  0
 13 28  1  1  0  0  0
 14  6  1  0  0  0  0
 16 15  1  1  0  0  0
 16  3  1  0  0  0  0
 17 18  1  6  0  0  0
 17 16  1  0  0  0  0
 17 15  1  0  0  0  0
 19 20  1  0  0  0  0
 19 18  1  1  0  0  0
 21 19  1  0  0  0  0
 21 20  1  0  0  0  0
 23 22  1  1  0  0  0
 23 24  1  0  0  0  0
 23 20  1  0  0  0  0
 25 26  1  0  0  0  0
 25 24  1  0  0  0  0
 26 27  1  0  0  0  0
 28 29  1  0  0  0  0
 29 31  1  0  0  0  0
 31 32  1  0  0  0  0
 31 30  1  1  0  0  0
 33 32  1  0  0  0  0
 34 35  2  0  0  0  0
 35 33  1  0  0  0  0
 37 38  2  0  0  0  0
 38 35  1  0  0  0  0
 38 36  1  0  0  0  0
M  END
>  <MODEL>
3

>  <REMARK>
 VINA RESULT:      -7.6      3.969      7.993
  Name = 
  13 active torsions:
  status: ('A' for Active; 'I' for Inactive)
    1  A    between atoms: C_1  and  C_37
    2  A    between atoms: N_3  and  C_32
    3  A    between atoms: C_5  and  C_27
    4  A    between atoms: C_12  and  C_15
    5  A    between atoms: N_14  and  C_24
    6  A    between atoms: C_15  and  O_20
    7  A    between atoms: C_18  and  C_35
    8  A    between atoms: C_18  and  C_36
    9  A    between atoms: O_20  and  C_32
   10  A    between atoms: C_24  and  C_31
   11  A    between atoms: C_26  and  C_33
   12  A    between atoms: C_31  and  C_36
   13  A    between atoms: C_34  and  C_37
                            x       y       z     vdW  Elec       q    Type
                         _______ _______ _______ _____ _____    ______ ____

>  <TORSDO>
F 13

$$$$
=
 OpenBabel11062414393D

 38 42  0  0  1  0  0  0  0  0999 V2000
  183.3640  178.7800  142.5290 C   0  0  0  0  0  2  0  0  0  0  0  0
  180.6410  177.6720  141.1530 C   0  0  0  0  0  2  0  0  0  0  0  0
  183.7290  178.1650  139.0550 C   0  0  2  0  0  3  0  0  0  0  0  0
  185.3220  178.9660  140.9320 C   0  0  0  0  0  3  0  0  0  0  0  0
  180.8240  174.8350  140.1720 F   0  0  0  0  0  0  0  0  0  0  0  0
  180.5760  175.8980  139.3260 C   0  0  0  0  0  0  0  0  0  0  0  0
  182.2390  177.8660  139.0680 C   0  0  2  0  0  3  0  0  0  0  0  0
  184.0570  178.6320  140.2520 C   0  0  0  0  0  0  0  0  0  0  0  0
  179.7850  176.9650  140.0970 C   0  0  0  0  0  2  0  0  0  0  0  0
  181.8990  178.1420  140.5090 C   0  0  0  0  0  0  0  0  0  0  0  0
  182.9680  178.5980  141.1250 C   0  0  0  0  0  0  0  0  0  0  0  0
  181.9230  176.3970  138.7620 C   0  0  0  0  0  2  0  0  0  0  0  0
  184.8980  178.9960  142.4260 C   0  0  2  0  0  3  0  0  0  0  0  0
  179.8010  175.4480  138.2750 F   0  0  0  0  0  0  0  0  0  0  0  0
  185.0480  176.4620  137.3120 S   0  0  0  0  0  0  0  0  0  0  0  0
  184.6360  178.1750  137.8560 C   0  0  2  0  0  3  0  0  0  0  0  0
  185.9870  177.7450  138.2340 C   0  0  2  0  0  3  0  0  0  0  0  0
  187.0080  178.3970  137.3020 C   0  0  0  0  0  2  0  0  0  0  0  0
  188.3650  178.3880  137.9830 C   0  0  1  0  0  3  0  0  0  0  0  0
  188.5030  177.1760  138.8080 N   0  0  0  0  0  0  0  0  0  0  0  0
  189.1440  177.2630  137.4790 C   0  0  0  0  0  2  0  0  0  0  0  0
  188.7420  178.3240  140.9300 C   0  0  0  0  0  1  0  0  0  0  0  0
  189.4640  177.5130  139.8650 C   0  0  1  0  0  3  0  0  0  0  0  0
  190.0130  176.3640  140.4650 O   0  0  0  0  0  0  0  0  0  0  0  0
  190.3430  176.7720  141.7670 C   0  0  0  0  0  2  0  0  0  0  0  0
  190.0040  175.6710  142.7750 C   0  0  0  0  0  2  0  0  0  0  0  0
  188.7720  175.9160  143.3800 O   0  0  0  0  0  1  0  0  0  0  0  0
  185.6210  177.8700  143.1550 C   0  0  0  0  0  2  0  0  0  0  0  0
  186.4120  178.4040  144.3400 C   0  0  0  0  0  2  0  0  0  0  0  0
  184.7250  179.0960  145.9100 O   0  0  0  0  0  1  0  0  0  0  0  0
  185.7080  178.1370  145.6720 C   0  0  2  0  0  3  0  0  0  0  0  0
  186.6820  178.0920  146.8410 C   0  0  0  0  0  2  0  0  0  0  0  0
  187.9700  177.5700  146.4060 N   0  0  0  0  0  2  0  0  0  0  0  0
  189.0640  178.0290  148.4130 O   0  0  0  0  0  0  0  0  0  0  0  0
  189.1270  177.5660  147.2440 C   0  0  0  0  0  0  0  0  0  0  0  0
  190.9930  177.5510  145.4850 C   0  0  0  0  0  1  0  0  0  0  0  0
  191.0090  176.1430  147.3920 O   0  0  0  0  0  0  0  0  0  0  0  0
  190.3960  177.0310  146.7410 C   0  0  0  0  0  0  0  0  0  0  0  0
  3  7  1  0  0  0  0
  3  8  1  6  0  0  0
  4 13  1  0  0  0  0
  6  9  1  0  0  0  0
  6  5  1  0  0  0  0
  7 12  1  1  0  0  0
  7 10  1  0  0  0  0
  8  4  2  0  0  0  0
  8 11  1  0  0  0  0
  9  2  1  0  0  0  0
 10 11  2  0  0  0  0
 10  2  1  0  0  0  0
 11  1  1  0  0  0  0
 12  6  1  0  0  0  0
 13  1  1  0  0  0  0
 13 28  1  1  0  0  0
 14  6  1  0  0  0  0
 15 17  1  0  0  0  0
 16 15  1  6  0  0  0
 16 17  1  0  0  0  0
 16  3  1  0  0  0  0
 17 18  1  6  0  0  0
 19 18  1  6  0  0  0
 19 20  1  0  0  0  0
 20 23  1  0  0  0  0
 21 19  1  0  0  0  0
 21 20  1  0  0  0  0
 23 24  1  0  0  0  0
 23 22  1  1  0  0  0
 24 25  1  0  0  0  0
 25 26  1  0  0  0  0
 26 27  1  0  0  0  0
 28 29  1  0  0  0  0
 29 31  1  0  0  0  0
 31 30  1  1  0  0  0
 31 32  1  0  0  0  0
 33 32  1  0  0  0  0
 33 35  1  0  0  0  0
 35 34  2  0  0  0  0
 36 38  1  0  0  0  0
 38 35  1  0  0  0  0
 38 37  2  0  0  0  0
M  END
>  <MODEL>
4

>  <REMARK>
 VINA RESULT:      -7.4      3.158      6.539
  Name = 
  13 active torsions:
  status: ('A' for Active; 'I' for Inactive)
    1  A    between atoms: C_1  and  C_37
    2  A    between atoms: N_3  and  C_32
    3  A    between atoms: C_5  and  C_27
    4  A    between atoms: C_12  and  C_15
    5  A    between atoms: N_14  and  C_24
    6  A    between atoms: C_15  and  O_20
    7  A    between atoms: C_18  and  C_35
    8  A    between atoms: C_18  and  C_36
    9  A    between atoms: O_20  and  C_32
   10  A    between atoms: C_24  and  C_31
   11  A    between atoms: C_26  and  C_33
   12  A    between atoms: C_31  and  C_36
   13  A    between atoms: C_34  and  C_37
                            x       y       z     vdW  Elec       q    Type
                         _______ _______ _______ _____ _____    ______ ____

>  <TORSDO>
F 13

$$$$
=
 OpenBabel11062414393D

 38 42  0  0  1  0  0  0  0  0999 V2000
  185.3700  177.8900  144.8310 C   0  0  0  0  0  2  0  0  0  0  0  0
  186.8090  177.8320  147.7400 C   0  0  0  0  0  2  0  0  0  0  0  0
  188.7770  176.9150  144.6640 C   0  0  2  0  0  3  0  0  0  0  0  0
  186.9120  177.2990  142.9090 C   0  0  0  0  0  3  0  0  0  0  0  0
  188.9540  179.9090  148.0940 F   0  0  0  0  0  0  0  0  0  0  0  0
  189.2150  178.5560  148.1660 C   0  0  0  0  0  0  0  0  0  0  0  0
  188.7450  176.9590  146.1820 C   0  0  2  0  0  3  0  0  0  0  0  0
  187.5370  177.0940  144.2290 C   0  0  0  0  0  0  0  0  0  0  0  0
  187.9750  177.8460  148.7340 C   0  0  0  0  0  2  0  0  0  0  0  0
  187.3040  177.3170  146.4330 C   0  0  0  0  0  0  0  0  0  0  0  0
  186.6620  177.3560  145.2850 C   0  0  0  0  0  0  0  0  0  0  0  0
  189.6340  178.0640  146.7650 C   0  0  0  0  0  2  0  0  0  0  0  0
  185.5230  177.8850  143.2860 C   0  0  2  0  0  3  0  0  0  0  0  0
  190.2710  178.3590  149.0340 F   0  0  0  0  0  0  0  0  0  0  0  0
  191.2540  177.7870  143.7810 S   0  0  0  0  0  0  0  0  0  0  0  0
  189.9330  176.5000  143.7980 C   0  0  2  0  0  3  0  0  0  0  0  0
  189.9620  177.2990  142.5670 C   0  0  2  0  0  3  0  0  0  0  0  0
  190.6020  176.4830  141.4450 C   0  0  0  0  0  2  0  0  0  0  0  0
  190.5850  177.3090  140.1700 C   0  0  1  0  0  3  0  0  0  0  0  0
  189.6640  176.7020  139.1940 N   0  0  0  0  0  0  0  0  0  0  0  0
  189.2550  177.8780  139.9890 C   0  0  0  0  0  2  0  0  0  0  0  0
  191.5020  176.4770  137.6300 C   0  0  0  0  0  1  0  0  0  0  0  0
  190.1450  177.1180  137.8720 C   0  0  1  0  0  3  0  0  0  0  0  0
  189.2680  176.7240  136.8420 O   0  0  0  0  0  0  0  0  0  0  0  0
  188.8270  177.9300  136.2760 C   0  0  0  0  0  2  0  0  0  0  0  0
  187.3170  178.0910  136.4680 C   0  0  0  0  0  2  0  0  0  0  0  0
  187.0430  179.0020  137.4880 O   0  0  0  0  0  1  0  0  0  0  0  0
  185.4440  179.3140  142.7620 C   0  0  0  0  0  2  0  0  0  0  0  0
  185.8280  179.3780  141.2900 C   0  0  0  0  0  2  0  0  0  0  0  0
  184.5500  180.0370  139.3600 O   0  0  0  0  0  1  0  0  0  0  0  0
  184.6420  179.0800  140.3710 C   0  0  2  0  0  3  0  0  0  0  0  0
  183.3260  179.0020  141.1320 C   0  0  0  0  0  2  0  0  0  0  0  0
  182.5430  177.8640  140.6730 N   0  0  0  0  0  2  0  0  0  0  0  0
  181.2350  179.1000  139.1910 O   0  0  0  0  0  0  0  0  0  0  0  0
  181.5090  177.9790  139.6950 C   0  0  0  0  0  0  0  0  0  0  0  0
  181.4390  175.4890  139.0840 C   0  0  0  0  0  1  0  0  0  0  0  0
  179.5060  176.8620  139.1190 O   0  0  0  0  0  0  0  0  0  0  0  0
  180.7540  176.7920  139.2800 C   0  0  0  0  0  0  0  0  0  0  0  0
  1 11  1  0  0  0  0
  2  9  1  0  0  0  0
  3  8  1  1  0  0  0
  3  7  1  0  0  0  0
  4 13  1  0  0  0  0
  4  8  2  0  0  0  0
  5  6  1  0  0  0  0
  6  9  1  0  0  0  0
  6 14  1  0  0  0  0
  7 10  1  0  0  0  0
  7 12  1  6  0  0  0
  8 11  1  0  0  0  0
 10  2  1  0  0  0  0
 11 10  2  0  0  0  0
 12  6  1  0  0  0  0
 13 28  1  1  0  0  0
 13  1  1  0  0  0  0
 16 15  1  1  0  0  0
 16  3  1  0  0  0  0
 17 18  1  6  0  0  0
 17 15  1  0  0  0  0
 17 16  1  0  0  0  0
 19 18  1  1  0  0  0
 20 21  1  0  0  0  0
 20 19  1  0  0  0  0
 21 19  1  0  0  0  0
 23 22  1  6  0  0  0
 23 20  1  0  0  0  0
 24 23  1  0  0  0  0
 25 26  1  0  0  0  0
 25 24  1  0  0  0  0
 26 27  1  0  0  0  0
 29 28  1  0  0  0  0
 31 30  1  6  0  0  0
 31 32  1  0  0  0  0
 31 29  1  0  0  0  0
 33 32  1  0  0  0  0
 34 35  2  0  0  0  0
 35 33  1  0  0  0  0
 36 38  1  0  0  0  0
 37 38  2  0  0  0  0
 38 35  1  0  0  0  0
M  END
>  <MODEL>
5

>  <REMARK>
 VINA RESULT:      -7.4      4.444      7.329
  Name = 
  13 active torsions:
  status: ('A' for Active; 'I' for Inactive)
    1  A    between atoms: C_1  and  C_37
    2  A    between atoms: N_3  and  C_32
    3  A    between atoms: C_5  and  C_27
    4  A    between atoms: C_12  and  C_15
    5  A    between atoms: N_14  and  C_24
    6  A    between atoms: C_15  and  O_20
    7  A    between atoms: C_18  and  C_35
    8  A    between atoms: C_18  and  C_36
    9  A    between atoms: O_20  and  C_32
   10  A    between atoms: C_24  and  C_31
   11  A    between atoms: C_26  and  C_33
   12  A    between atoms: C_31  and  C_36
   13  A    between atoms: C_34  and  C_37
                            x       y       z     vdW  Elec       q    Type
                         _______ _______ _______ _____ _____    ______ ____

>  <TORSDO>
F 13

$$$$
=
 OpenBabel11062414393D

 38 42  0  0  1  0  0  0  0  0999 V2000
  186.9590  178.3240  142.4150 C   0  0  0  0  0  2  0  0  0  0  0  0
  184.0040  178.8250  141.1690 C   0  0  0  0  0  2  0  0  0  0  0  0
  186.9210  178.2060  138.8700 C   0  0  2  0  0  3  0  0  0  0  0  0
  188.7440  177.8660  140.6770 C   0  0  0  0  0  3  0  0  0  0  0  0
  182.8270  176.4270  139.7880 F   0  0  0  0  0  0  0  0  0  0  0  0
  183.0830  177.6110  139.1270 C   0  0  0  0  0  0  0  0  0  0  0  0
  185.4640  178.6200  138.9860 C   0  0  2  0  0  3  0  0  0  0  0  0
  187.4550  178.2640  140.0830 C   0  0  0  0  0  0  0  0  0  0  0  0
  182.8950  178.7750  140.1120 C   0  0  0  0  0  2  0  0  0  0  0  0
  185.3220  178.7730  140.4780 C   0  0  0  0  0  0  0  0  0  0  0  0
  186.4940  178.5810  141.0450 C   0  0  0  0  0  0  0  0  0  0  0  0
  184.4950  177.5310  138.5100 C   0  0  0  0  0  2  0  0  0  0  0  0
  188.4150  177.8320  142.1950 C   0  0  2  0  0  3  0  0  0  0  0  0
  182.1650  177.7480  138.1040 F   0  0  0  0  0  0  0  0  0  0  0  0
  187.3400  176.3650  136.8420 S   0  0  0  0  0  0  0  0  0  0  0  0
  187.7030  178.0050  137.6020 C   0  0  2  0  0  3  0  0  0  0  0  0
  188.7630  177.0120  137.8080 C   0  0  2  0  0  3  0  0  0  0  0  0
  189.9270  177.3060  136.8620 C   0  0  0  0  0  2  0  0  0  0  0  0
  190.9010  176.1410  136.9090 C   0  0  1  0  0  3  0  0  0  0  0  0
  192.0930  176.5170  137.6870 N   0  0  0  0  0  0  0  0  0  0  0  0
  191.0300  175.6840  138.2870 C   0  0  0  0  0  2  0  0  0  0  0  0
  193.5610  176.1530  135.7930 C   0  0  0  0  0  1  0  0  0  0  0  0
  193.1850  175.6740  137.1860 C   0  0  1  0  0  3  0  0  0  0  0  0
  194.3240  175.7410  138.0110 O   0  0  0  0  0  0  0  0  0  0  0  0
  194.6590  174.4000  138.2570 C   0  0  0  0  0  2  0  0  0  0  0  0
  195.8680  174.3120  139.1910 C   0  0  0  0  0  2  0  0  0  0  0  0
  195.8720  175.3710  140.0970 O   0  0  0  0  0  1  0  0  0  0  0  0
  188.5470  176.3960  142.6850 C   0  0  0  0  0  2  0  0  0  0  0  0
  190.0070  176.0250  142.9040 C   0  0  0  0  0  2  0  0  0  0  0  0
  192.0550  177.2790  142.7600 O   0  0  0  0  0  1  0  0  0  0  0  0
  190.8310  177.2040  143.4230 C   0  0  2  0  0  3  0  0  0  0  0  0
  191.0600  177.1310  144.9270 C   0  0  0  0  0  2  0  0  0  0  0  0
  189.8420  177.4870  145.6410 N   0  0  0  0  0  2  0  0  0  0  0  0
  190.6990  177.0100  147.7560 O   0  0  0  0  0  0  0  0  0  0  0  0
  189.7260  177.4060  147.0620 C   0  0  0  0  0  0  0  0  0  0  0  0
  187.2020  177.8470  146.9440 C   0  0  0  0  0  1  0  0  0  0  0  0
  188.4450  177.9990  148.9590 O   0  0  0  0  0  0  0  0  0  0  0  0
  188.4670  177.7740  147.7190 C   0  0  0  0  0  0  0  0  0  0  0  0
  3  7  1  0  0  0  0
  3  8  1  1  0  0  0
  4 13  1  0  0  0  0
  6  5  1  0  0  0  0
  6  9  1  0  0  0  0
  7 12  1  1  0  0  0
  7 10  1  0  0  0  0
  8  4  2  0  0  0  0
  8 11  1  0  0  0  0
  9  2  1  0  0  0  0
 10 11  2  0  0  0  0
 10  2  1  0  0  0  0
 11  1  1  0  0  0  0
 12  6  1  0  0  0  0
 13  1  1  0  0  0  0
 13 28  1  6  0  0  0
 14  6  1  0  0  0  0
 15 17  1  0  0  0  0
 16 15  1  6  0  0  0
 16 17  1  0  0  0  0
 16  3  1  0  0  0  0
 17 18  1  6  0  0  0
 19 18  1  1  0  0  0
 19 20  1  0  0  0  0
 19 21  1  0  0  0  0
 20 21  1  0  0  0  0
 23 22  1  6  0  0  0
 23 20  1  0  0  0  0
 23 24  1  0  0  0  0
 24 25  1  0  0  0  0
 25 26  1  0  0  0  0
 26 27  1  0  0  0  0
 28 29  1  0  0  0  0
 29 31  1  0  0  0  0
 31 30  1  6  0  0  0
 31 32  1  0  0  0  0
 32 33  1  0  0  0  0
 33 35  1  0  0  0  0
 35 38  1  0  0  0  0
 35 34  2  0  0  0  0
 36 38  1  0  0  0  0
 38 37  2  0  0  0  0
M  END
>  <MODEL>
6

>  <REMARK>
 VINA RESULT:      -7.4      3.873      7.440
  Name = 
  13 active torsions:
  status: ('A' for Active; 'I' for Inactive)
    1  A    between atoms: C_1  and  C_37
    2  A    between atoms: N_3  and  C_32
    3  A    between atoms: C_5  and  C_27
    4  A    between atoms: C_12  and  C_15
    5  A    between atoms: N_14  and  C_24
    6  A    between atoms: C_15  and  O_20
    7  A    between atoms: C_18  and  C_35
    8  A    between atoms: C_18  and  C_36
    9  A    between atoms: O_20  and  C_32
   10  A    between atoms: C_24  and  C_31
   11  A    between atoms: C_26  and  C_33
   12  A    between atoms: C_31  and  C_36
   13  A    between atoms: C_34  and  C_37
                            x       y       z     vdW  Elec       q    Type
                         _______ _______ _______ _____ _____    ______ ____

>  <TORSDO>
F 13

$$$$
=
 OpenBabel11062414393D

 38 42  0  0  1  0  0  0  0  0999 V2000
  183.4770  179.0000  144.9360 C   0  0  0  0  0  2  0  0  0  0  0  0
  180.5230  178.7790  143.6080 C   0  0  0  0  0  2  0  0  0  0  0  0
  183.5680  178.8480  141.3930 C   0  0  2  0  0  3  0  0  0  0  0  0
  185.3680  178.9620  143.2500 C   0  0  0  0  0  3  0  0  0  0  0  0
  179.9850  176.1600  142.2320 F   0  0  0  0  0  0  0  0  0  0  0  0
  179.9720  177.3660  141.5600 C   0  0  0  0  0  0  0  0  0  0  0  0
  182.0510  178.9070  141.4660 C   0  0  2  0  0  3  0  0  0  0  0  0
  184.0380  179.0400  142.6180 C   0  0  0  0  0  0  0  0  0  0  0  0
  179.4880  178.4600  142.5240 C   0  0  0  0  0  2  0  0  0  0  0  0
  181.8350  179.0340  142.9510 C   0  0  0  0  0  0  0  0  0  0  0  0
  183.0030  179.1290  143.5500 C   0  0  0  0  0  0  0  0  0  0  0  0
  181.3800  177.6170  140.9810 C   0  0  0  0  0  2  0  0  0  0  0  0
  185.0130  178.8640  144.7600 C   0  0  2  0  0  3  0  0  0  0  0  0
  179.0780  177.2740  140.5120 F   0  0  0  0  0  0  0  0  0  0  0  0
  183.5990  179.7500  138.7730 S   0  0  0  0  0  0  0  0  0  0  0  0
  184.4100  178.8270  140.1490 C   0  0  2  0  0  3  0  0  0  0  0  0
  183.8020  177.9590  139.1340 C   0  0  2  0  0  3  0  0  0  0  0  0
  184.8950  177.3800  138.2370 C   0  0  0  0  0  2  0  0  0  0  0  0
  186.0960  178.3090  138.2700 C   0  0  1  0  0  3  0  0  0  0  0  0
  187.3370  177.5250  138.1550 N   0  0  0  0  0  0  0  0  0  0  0  0
  186.7860  178.2410  136.9870 C   0  0  0  0  0  2  0  0  0  0  0  0
  188.3040  178.0960  140.3030 C   0  0  0  0  0  1  0  0  0  0  0  0
  188.3830  178.3260  138.8020 C   0  0  1  0  0  3  0  0  0  0  0  0
  189.6710  177.9720  138.3570 O   0  0  0  0  0  0  0  0  0  0  0  0
  190.1630  177.1130  139.3520 C   0  0  0  0  0  2  0  0  0  0  0  0
  191.0160  176.0040  138.7300 C   0  0  0  0  0  2  0  0  0  0  0  0
  190.2280  175.1430  137.9690 O   0  0  0  0  0  1  0  0  0  0  0  0
  185.4670  177.5030  145.2740 C   0  0  0  0  0  2  0  0  0  0  0  0
  186.9700  177.4790  145.5060 C   0  0  0  0  0  2  0  0  0  0  0  0
  186.6990  178.5760  147.6300 O   0  0  0  0  0  1  0  0  0  0  0  0
  187.3260  177.5050  146.9930 C   0  0  2  0  0  3  0  0  0  0  0  0
  188.8290  177.5710  147.2270 C   0  0  0  0  0  2  0  0  0  0  0  0
  189.5200  177.8830  145.9850 N   0  0  0  0  0  2  0  0  0  0  0  0
  191.2200  176.3180  146.2970 O   0  0  0  0  0  0  0  0  0  0  0  0
  190.7150  177.2170  145.5740 C   0  0  0  0  0  0  0  0  0  0  0  0
  191.5930  179.0110  143.9650 C   0  0  0  0  0  1  0  0  0  0  0  0
  191.7660  176.6870  143.5230 O   0  0  0  0  0  0  0  0  0  0  0  0
  191.3650  177.5850  144.3120 C   0  0  0  0  0  0  0  0  0  0  0  0
  3  7  1  0  0  0  0
  3  8  1  1  0  0  0
  4 13  1  0  0  0  0
  6  5  1  0  0  0  0
  6  9  1  0  0  0  0
  7 12  1  1  0  0  0
  7 10  1  0  0  0  0
  8  4  2  0  0  0  0
  8 11  1  0  0  0  0
  9  2  1  0  0  0  0
 10 11  2  0  0  0  0
 10  2  1  0  0  0  0
 11  1  1  0  0  0  0
 12  6  1  0  0  0  0
 13  1  1  0  0  0  0
 13 28  1  6  0  0  0
 14  6  1  0  0  0  0
 15 17  1  0  0  0  0
 16 15  1  6  0  0  0
 16  3  1  0  0  0  0
 17 18  1  6  0  0  0
 17 16  1  0  0  0  0
 19 18  1  6  0  0  0
 20 19  1  0  0  0  0
 20 23  1  0  0  0  0
 21 20  1  0  0  0  0
 21 19  1  0  0  0  0
 23 22  1  1  0  0  0
 24 23  1  0  0  0  0
 24 25  1  0  0  0  0
 26 25  1  0  0  0  0
 27 26  1  0  0  0  0
 28 29  1  0  0  0  0
 29 31  1  0  0  0  0
 31 32  1  0  0  0  0
 31 30  1  6  0  0  0
 33 32  1  0  0  0  0
 35 33  1  0  0  0  0
 35 34  2  0  0  0  0
 36 38  1  0  0  0  0
 37 38  2  0  0  0  0
 38 35  1  0  0  0  0
M  END
>  <MODEL>
7

>  <REMARK>
 VINA RESULT:      -7.4      3.854      7.802
  Name = 
  13 active torsions:
  status: ('A' for Active; 'I' for Inactive)
    1  A    between atoms: C_1  and  C_37
    2  A    between atoms: N_3  and  C_32
    3  A    between atoms: C_5  and  C_27
    4  A    between atoms: C_12  and  C_15
    5  A    between atoms: N_14  and  C_24
    6  A    between atoms: C_15  and  O_20
    7  A    between atoms: C_18  and  C_35
    8  A    between atoms: C_18  and  C_36
    9  A    between atoms: O_20  and  C_32
   10  A    between atoms: C_24  and  C_31
   11  A    between atoms: C_26  and  C_33
   12  A    between atoms: C_31  and  C_36
   13  A    between atoms: C_34  and  C_37
                            x       y       z     vdW  Elec       q    Type
                         _______ _______ _______ _____ _____    ______ ____

>  <TORSDO>
F 13

$$$$
=
 OpenBabel11062414393D

 38 42  0  0  1  0  0  0  0  0999 V2000
  185.5340  177.8800  144.7380 C   0  0  0  0  0  2  0  0  0  0  0  0
  186.8200  177.8310  147.7180 C   0  0  0  0  0  2  0  0  0  0  0  0
  188.9700  177.0000  144.7400 C   0  0  2  0  0  3  0  0  0  0  0  0
  187.1890  177.3510  142.8950 C   0  0  0  0  0  3  0  0  0  0  0  0
  188.8860  179.9620  148.2020 F   0  0  0  0  0  0  0  0  0  0  0  0
  189.1800  178.6150  148.2760 C   0  0  0  0  0  0  0  0  0  0  0  0
  188.8590  177.0270  146.2560 C   0  0  2  0  0  3  0  0  0  0  0  0
  187.7500  177.1500  144.2430 C   0  0  0  0  0  0  0  0  0  0  0  0
  187.9330  177.8670  148.7710 C   0  0  0  0  0  2  0  0  0  0  0  0
  187.3970  177.3440  146.4350 C   0  0  0  0  0  0  0  0  0  0  0  0
  186.8150  177.3760  145.2550 C   0  0  0  0  0  0  0  0  0  0  0  0
  189.6850  178.1500  146.8940 C   0  0  0  0  0  2  0  0  0  0  0  0
  185.7670  177.8950  143.2040 C   0  0  2  0  0  3  0  0  0  0  0  0
  190.1950  178.4380  149.1950 F   0  0  0  0  0  0  0  0  0  0  0  0
  191.3260  178.0580  143.7370 S   0  0  0  0  0  0  0  0  0  0  0  0
  190.1810  176.6250  143.9330 C   0  0  2  0  0  3  0  0  0  0  0  0
  190.1230  177.2500  142.6060 C   0  0  2  0  0  3  0  0  0  0  0  0
  190.8760  176.3800  141.6000 C   0  0  0  0  0  2  0  0  0  0  0  0
  190.9690  177.1280  140.2810 C   0  0  1  0  0  3  0  0  0  0  0  0
  190.3520  176.3290  139.2090 N   0  0  0  0  0  0  0  0  0  0  0  0
  189.6240  177.4570  139.8250 C   0  0  0  0  0  2  0  0  0  0  0  0
  192.5020  176.5660  138.1140 C   0  0  0  0  0  1  0  0  0  0  0  0
  191.0010  176.7550  137.9640 C   0  0  1  0  0  3  0  0  0  0  0  0
  190.5590  176.0060  136.8560 O   0  0  0  0  0  0  0  0  0  0  0  0
  189.9290  174.8860  137.4180 C   0  0  0  0  0  2  0  0  0  0  0  0
  189.1410  174.1220  136.3510 C   0  0  0  0  0  2  0  0  0  0  0  0
  187.7790  174.4050  136.4430 O   0  0  0  0  0  1  0  0  0  0  0  0
  185.6760  179.3260  142.6890 C   0  0  0  0  0  2  0  0  0  0  0  0
  185.7780  179.3690  141.1710 C   0  0  0  0  0  2  0  0  0  0  0  0
  183.4900  178.6430  141.3320 O   0  0  0  0  0  1  0  0  0  0  0  0
  184.4080  179.2790  140.4970 C   0  0  2  0  0  3  0  0  0  0  0  0
  184.4710  178.5630  139.1540 C   0  0  0  0  0  2  0  0  0  0  0  0
  185.6980  178.9110  138.4530 N   0  0  0  0  0  2  0  0  0  0  0  0
  185.7610  176.9630  137.1740 O   0  0  0  0  0  0  0  0  0  0  0  0
  186.2940  178.0650  137.4680 C   0  0  0  0  0  0  0  0  0  0  0  0
  187.9480  177.8490  135.5200 C   0  0  0  0  0  1  0  0  0  0  0  0
  188.2500  179.3820  137.3040 O   0  0  0  0  0  0  0  0  0  0  0  0
  187.5360  178.4720  136.8040 C   0  0  0  0  0  0  0  0  0  0  0  0
  1 11  1  0  0  0  0
  2  9  1  0  0  0  0
  3  8  1  6  0  0  0
  3  7  1  0  0  0  0
  4 13  1  0  0  0  0
  4  8  2  0  0  0  0
  5  6  1  0  0  0  0
  6  9  1  0  0  0  0
  6 14  1  0  0  0  0
  7 10  1  0  0  0  0
  7 12  1  6  0  0  0
  8 11  1  0  0  0  0
 10  2  1  0  0  0  0
 11 10  2  0  0  0  0
 12  6  1  0  0  0  0
 13 28  1  1  0  0  0
 13  1  1  0  0  0  0
 16 15  1  1  0  0  0
 16  3  1  0  0  0  0
 17 18  1  6  0  0  0
 17 15  1  0  0  0  0
 17 16  1  0  0  0  0
 19 18  1  1  0  0  0
 20 21  1  0  0  0  0
 20 19  1  0  0  0  0
 21 19  1  0  0  0  0
 23 22  1  1  0  0  0
 23 20  1  0  0  0  0
 24 25  1  0  0  0  0
 24 23  1  0  0  0  0
 26 27  1  0  0  0  0
 26 25  1  0  0  0  0
 29 28  1  0  0  0  0
 31 29  1  0  0  0  0
 31 30  1  1  0  0  0
 32 31  1  0  0  0  0
 33 32  1  0  0  0  0
 34 35  2  0  0  0  0
 35 33  1  0  0  0  0
 36 38  1  0  0  0  0
 38 37  2  0  0  0  0
 38 35  1  0  0  0  0
M  END
>  <MODEL>
8

>  <REMARK>
 VINA RESULT:      -7.4      4.633      7.964
  Name = 
  13 active torsions:
  status: ('A' for Active; 'I' for Inactive)
    1  A    between atoms: C_1  and  C_37
    2  A    between atoms: N_3  and  C_32
    3  A    between atoms: C_5  and  C_27
    4  A    between atoms: C_12  and  C_15
    5  A    between atoms: N_14  and  C_24
    6  A    between atoms: C_15  and  O_20
    7  A    between atoms: C_18  and  C_35
    8  A    between atoms: C_18  and  C_36
    9  A    between atoms: O_20  and  C_32
   10  A    between atoms: C_24  and  C_31
   11  A    between atoms: C_26  and  C_33
   12  A    between atoms: C_31  and  C_36
   13  A    between atoms: C_34  and  C_37
                            x       y       z     vdW  Elec       q    Type
                         _______ _______ _______ _____ _____    ______ ____

>  <TORSDO>
F 13

$$$$
=
 OpenBabel11062414393D

 38 42  0  0  1  0  0  0  0  0999 V2000
  183.1040  178.8390  142.2260 C   0  0  0  0  0  2  0  0  0  0  0  0
  180.2780  177.5870  141.2340 C   0  0  0  0  0  2  0  0  0  0  0  0
  183.1680  177.8130  138.8300 C   0  0  2  0  0  3  0  0  0  0  0  0
  184.9140  178.8250  140.4530 C   0  0  0  0  0  3  0  0  0  0  0  0
  180.3920  174.6530  140.5830 F   0  0  0  0  0  0  0  0  0  0  0  0
  180.0640  175.6080  139.6420 C   0  0  0  0  0  0  0  0  0  0  0  0
  181.6870  177.5250  139.0080 C   0  0  2  0  0  3  0  0  0  0  0  0
  183.5960  178.4180  139.9300 C   0  0  0  0  0  0  0  0  0  0  0  0
  179.3370  176.7640  140.3470 C   0  0  0  0  0  2  0  0  0  0  0  0
  181.4720  177.9710  140.4310 C   0  0  0  0  0  0  0  0  0  0  0  0
  182.5890  178.4930  140.8930 C   0  0  0  0  0  0  0  0  0  0  0  0
  181.3540  176.0320  138.9080 C   0  0  0  0  0  2  0  0  0  0  0  0
  184.6220  179.0330  141.9640 C   0  0  2  0  0  3  0  0  0  0  0  0
  179.2040  175.0410  138.7240 F   0  0  0  0  0  0  0  0  0  0  0  0
  184.4470  175.9230  137.2590 S   0  0  0  0  0  0  0  0  0  0  0  0
  183.9670  177.6770  137.5640 C   0  0  2  0  0  3  0  0  0  0  0  0
  185.3710  177.3880  137.8750 C   0  0  2  0  0  3  0  0  0  0  0  0
  186.2630  177.9330  136.7600 C   0  0  0  0  0  2  0  0  0  0  0  0
  187.5770  178.3930  137.3660 C   0  0  1  0  0  3  0  0  0  0  0  0
  188.2470  177.2600  138.0260 N   0  0  0  0  0  0  0  0  0  0  0  0
  188.6770  177.7170  136.6890 C   0  0  0  0  0  2  0  0  0  0  0  0
  188.2090  178.3320  140.2000 C   0  0  0  0  0  1  0  0  0  0  0  0
  189.0990  177.8450  139.0680 C   0  0  1  0  0  3  0  0  0  0  0  0
  190.0190  176.9120  139.5840 O   0  0  0  0  0  0  0  0  0  0  0  0
  189.9130  177.0490  140.9770 C   0  0  0  0  0  2  0  0  0  0  0  0
  191.2940  177.2640  141.6000 C   0  0  0  0  0  2  0  0  0  0  0  0
  192.2250  177.6280  140.6280 O   0  0  0  0  0  1  0  0  0  0  0  0
  185.4120  177.9980  142.7550 C   0  0  0  0  0  2  0  0  0  0  0  0
  185.3150  178.2620  144.2510 C   0  0  0  0  0  2  0  0  0  0  0  0
  186.7730  178.3950  146.1610 O   0  0  0  0  0  1  0  0  0  0  0  0
  186.4820  177.6440  145.0230 C   0  0  2  0  0  3  0  0  0  0  0  0
  187.7320  177.5010  144.1640 C   0  0  0  0  0  2  0  0  0  0  0  0
  188.7960  176.8600  144.9230 N   0  0  0  0  0  2  0  0  0  0  0  0
  190.2850  178.6430  144.7340 O   0  0  0  0  0  0  0  0  0  0  0  0
  190.0540  177.4870  145.1760 C   0  0  0  0  0  0  0  0  0  0  0  0
  191.0500  176.7720  147.4290 C   0  0  0  0  0  1  0  0  0  0  0  0
  191.9960  176.1500  145.3450 O   0  0  0  0  0  0  0  0  0  0  0  0
  191.0850  176.7830  145.9440 C   0  0  0  0  0  0  0  0  0  0  0  0
  3  7  1  0  0  0  0
  3  8  1  6  0  0  0
  4 13  1  0  0  0  0
  6  9  1  0  0  0  0
  6  5  1  0  0  0  0
  7 12  1  1  0  0  0
  7 10  1  0  0  0  0
  8  4  2  0  0  0  0
  8 11  1  0  0  0  0
  9  2  1  0  0  0  0
 10 11  2  0  0  0  0
 10  2  1  0  0  0  0
 11  1  1  0  0  0  0
 12  6  1  0  0  0  0
 13  1  1  0  0  0  0
 13 28  1  1  0  0  0
 14  6  1  0  0  0  0
 15 17  1  0  0  0  0
 16 15  1  6  0  0  0
 16 17  1  0  0  0  0
 16  3  1  0  0  0  0
 17 18  1  6  0  0  0
 19 18  1  6  0  0  0
 19 20  1  0  0  0  0
 20 23  1  0  0  0  0
 21 19  1  0  0  0  0
 21 20  1  0  0  0  0
 23 24  1  0  0  0  0
 23 22  1  1  0  0  0
 24 25  1  0  0  0  0
 25 26  1  0  0  0  0
 27 26  1  0  0  0  0
 28 29  1  0  0  0  0
 29 31  1  0  0  0  0
 31 30  1  1  0  0  0
 32 33  1  0  0  0  0
 32 31  1  0  0  0  0
 33 35  1  0  0  0  0
 34 35  2  0  0  0  0
 35 38  1  0  0  0  0
 37 38  2  0  0  0  0
 38 36  1  0  0  0  0
M  END
>  <MODEL>
9

>  <REMARK>
 VINA RESULT:      -7.3      3.582      7.050
  Name = 
  13 active torsions:
  status: ('A' for Active; 'I' for Inactive)
    1  A    between atoms: C_1  and  C_37
    2  A    between atoms: N_3  and  C_32
    3  A    between atoms: C_5  and  C_27
    4  A    between atoms: C_12  and  C_15
    5  A    between atoms: N_14  and  C_24
    6  A    between atoms: C_15  and  O_20
    7  A    between atoms: C_18  and  C_35
    8  A    between atoms: C_18  and  C_36
    9  A    between atoms: O_20  and  C_32
   10  A    between atoms: C_24  and  C_31
   11  A    between atoms: C_26  and  C_33
   12  A    between atoms: C_31  and  C_36
   13  A    between atoms: C_34  and  C_37
                            x       y       z     vdW  Elec       q    Type
                         _______ _______ _______ _____ _____    ______ ____

>  <TORSDO>
F 13

$$$$
