=
 OpenBabel11062413273D

 30 33  0  0  1  0  0  0  0  0999 V2000
  191.2160  177.8890  141.7970 C   0  0  0  0  0  3  0  0  0  0  0  0
  191.4740  178.3780  142.9800 C   0  0  0  0  0  0  0  0  0  0  0  0
  188.0140  177.3090  142.9030 C   0  0  0  0  0  2  0  0  0  0  0  0
  190.4480  176.0820  146.3040 C   0  0  2  0  0  3  0  0  0  0  0  0
  188.4380  178.3440  146.2340 C   0  0  0  0  0  2  0  0  0  0  0  0
  190.2220  176.8140  141.7110 C   0  0  0  0  0  0  0  0  0  0  0  0
  191.6290  178.8900  144.1690 C   0  0  0  0  0  3  0  0  0  0  0  0
  189.7030  176.5180  145.0300 C   0  0  0  0  0  2  0  0  0  0  0  0
  190.0540  176.8990  147.5410 C   0  0  0  0  0  2  0  0  0  0  0  0
  189.3410  178.0210  145.0290 C   0  0  1  0  0  0  0  0  0  0  0  0
  188.6190  177.3970  147.4320 C   0  0  1  0  0  3  0  0  0  0  0  0
  188.5660  178.4560  143.7640 C   0  0  0  0  0  2  0  0  0  0  0  0
  188.2510  178.0420  148.6080 O   0  0  0  0  0  1  0  0  0  0  0  0
  190.5680  178.8250  145.1370 N   0  0  0  0  0  2  0  0  0  0  0  0
  188.7480  177.1170  141.5610 C   0  0  2  0  0  3  0  0  0  0  0  0
  190.5660  175.6390  142.0210 O   0  0  0  0  0  0  0  0  0  0  0  0
  192.3950  175.7220  147.3240 C   0  0  0  0  0  1  0  0  0  0  0  0
  191.8360  176.1360  146.1100 O   0  0  0  0  0  0  0  0  0  0  0  0
  188.3710  178.1540  140.4820 C   0  0  2  0  0  3  0  0  0  0  0  0
  186.8790  178.3590  140.4350 C   0  0  0  0  0  0  0  0  0  0  0  0
  184.8640  178.4560  139.1480 N   0  0  0  0  0  0  0  0  0  0  0  0
  186.1790  178.8600  141.5410 C   0  0  0  0  0  3  0  0  0  0  0  0
  184.1730  178.9560  140.2120 C   0  0  0  0  0  3  0  0  0  0  0  0
  186.1920  178.1860  139.2270 C   0  0  0  0  0  3  0  0  0  0  0  0
  184.8220  179.1630  141.4290 C   0  0  0  0  0  3  0  0  0  0  0  0
  188.8760  177.7580  139.1260 C   0  0  0  0  0  0  0  0  0  0  0  0
  189.5750  177.6320  136.7360 N   0  0  0  0  0  0  0  0  0  0  0  0
  189.2360  178.7940  137.8740 S   0  0  0  0  0  0  0  0  0  0  0  0
  188.9790  176.4870  138.6780 N   0  0  0  0  0  0  0  0  0  0  0  0
  189.3760  176.4380  137.3690 C   0  0  0  0  0  3  0  0  0  0  0  0
  1  2  2  0  0  0  0
  2  7  2  0  0  0  0
  3 12  1  0  0  0  0
  4 18  1  6  0  0  0
  4  9  1  0  0  0  0
  5 11  1  0  0  0  0
  6  1  1  0  0  0  0
  6 16  2  0  0  0  0
  7 14  1  0  0  0  0
  8  4  1  0  0  0  0
 10 12  1  6  0  0  0
 10  8  1  0  0  0  0
 10 14  1  0  0  0  0
 10  5  1  0  0  0  0
 11  9  1  0  0  0  0
 11 13  1  1  0  0  0
 15 19  1  6  0  0  0
 15  6  1  0  0  0  0
 15  3  1  0  0  0  0
 18 17  1  0  0  0  0
 19 26  1  6  0  0  0
 20 19  1  0  0  0  0
 20 22  1  0  0  0  0
 21 24  1  0  0  0  0
 21 23  2  0  0  0  0
 23 25  1  0  0  0  0
 24 20  2  0  0  0  0
 25 22  2  0  0  0  0
 27 30  2  0  0  0  0
 27 28  1  0  0  0  0
 28 26  1  0  0  0  0
 29 26  2  0  0  0  0
 30 29  1  0  0  0  0
M  END
>  <MODEL>
1

>  <REMARK>
 VINA RESULT:      -7.3      0.000      0.000
  Name = 
  4 active torsions:
  status: ('A' for Active; 'I' for Inactive)
    1  A    between atoms: C_2  and  C_11
    2  A    between atoms: C_5  and  C_11
    3  A    between atoms: C_9  and  O_28
    4  A    between atoms: C_11  and  C_29
                            x       y       z     vdW  Elec       q    Type
                         _______ _______ _______ _____ _____    ______ ____

>  <TORSDO>
F 4

$$$$
=
 OpenBabel11062413273D

 30 33  0  0  1  0  0  0  0  0999 V2000
  191.7770  177.2830  142.4360 C   0  0  0  0  0  3  0  0  0  0  0  0
  191.3250  178.0770  143.3690 C   0  0  0  0  0  0  0  0  0  0  0  0
  188.5320  176.9640  141.3490 C   0  0  0  0  0  2  0  0  0  0  0  0
  188.1240  176.7450  145.6820 C   0  0  2  0  0  3  0  0  0  0  0  0
  186.9720  178.8680  143.8570 C   0  0  0  0  0  2  0  0  0  0  0  0
  190.8920  176.2060  141.9770 C   0  0  0  0  0  0  0  0  0  0  0  0
  190.7930  178.8940  144.2350 C   0  0  0  0  0  3  0  0  0  0  0  0
  188.4010  176.8070  144.1700 C   0  0  0  0  0  2  0  0  0  0  0  0
  187.1870  177.8580  146.1680 C   0  0  0  0  0  2  0  0  0  0  0  0
  188.3600  178.2480  143.6090 C   0  0  1  0  0  0  0  0  0  0  0  0
  186.2240  178.2820  145.0670 C   0  0  1  0  0  3  0  0  0  0  0  0
  188.6090  178.3110  142.0850 C   0  0  0  0  0  2  0  0  0  0  0  0
  185.3180  179.2140  145.5630 O   0  0  0  0  0  1  0  0  0  0  0  0
  189.3680  179.0730  144.2920 N   0  0  0  0  0  2  0  0  0  0  0  0
  189.8940  176.4310  140.8630 C   0  0  2  0  0  3  0  0  0  0  0  0
  190.7810  175.1650  142.6830 O   0  0  0  0  0  0  0  0  0  0  0  0
  189.0330  177.4840  147.5760 C   0  0  0  0  0  1  0  0  0  0  0  0
  189.3230  176.7690  146.4080 O   0  0  0  0  0  0  0  0  0  0  0  0
  190.4310  177.1310  139.5970 C   0  0  2  0  0  3  0  0  0  0  0  0
  189.3030  177.4850  138.6620 C   0  0  0  0  0  0  0  0  0  0  0  0
  188.0260  179.1680  137.5390 N   0  0  0  0  0  0  0  0  0  0  0  0
  188.3690  176.5240  138.2530 C   0  0  0  0  0  3  0  0  0  0  0  0
  187.1020  178.2450  137.1440 C   0  0  0  0  0  3  0  0  0  0  0  0
  189.0930  178.8230  138.3050 C   0  0  0  0  0  3  0  0  0  0  0  0
  187.2630  176.9050  137.4940 C   0  0  0  0  0  3  0  0  0  0  0  0
  191.4450  176.2890  138.8800 C   0  0  0  0  0  0  0  0  0  0  0  0
  193.4320  175.3690  137.6870 N   0  0  0  0  0  0  0  0  0  0  0  0
  193.0420  176.6830  138.6280 S   0  0  0  0  0  0  0  0  0  0  0  0
  191.1710  175.1460  138.2130 N   0  0  0  0  0  0  0  0  0  0  0  0
  192.2760  174.6510  137.5760 C   0  0  0  0  0  3  0  0  0  0  0  0
  1  2  2  0  0  0  0
  2  7  2  0  0  0  0
  3 12  1  0  0  0  0
  4  9  1  0  0  0  0
  4 18  1  1  0  0  0
  5 11  1  0  0  0  0
  6  1  1  0  0  0  0
  6 16  2  0  0  0  0
  7 14  1  0  0  0  0
  8  4  1  0  0  0  0
 10 12  1  6  0  0  0
 10  5  1  0  0  0  0
 10  8  1  0  0  0  0
 10 14  1  0  0  0  0
 11 13  1  1  0  0  0
 11  9  1  0  0  0  0
 15 19  1  6  0  0  0
 15  3  1  0  0  0  0
 15  6  1  0  0  0  0
 18 17  1  0  0  0  0
 19 20  1  6  0  0  0
 21 24  2  0  0  0  0
 22 20  2  0  0  0  0
 23 25  2  0  0  0  0
 23 21  1  0  0  0  0
 24 20  1  0  0  0  0
 25 22  1  0  0  0  0
 26 19  1  0  0  0  0
 27 28  1  0  0  0  0
 28 26  1  0  0  0  0
 29 26  2  0  0  0  0
 30 27  2  0  0  0  0
 30 29  1  0  0  0  0
M  END
>  <MODEL>
2

>  <REMARK>
 VINA RESULT:      -7.0      2.207      2.998
  Name = 
  4 active torsions:
  status: ('A' for Active; 'I' for Inactive)
    1  A    between atoms: C_2  and  C_11
    2  A    between atoms: C_5  and  C_11
    3  A    between atoms: C_9  and  O_28
    4  A    between atoms: C_11  and  C_29
                            x       y       z     vdW  Elec       q    Type
                         _______ _______ _______ _____ _____    ______ ____

>  <TORSDO>
F 4

$$$$
=
 OpenBabel11062413273D

 30 33  0  0  1  0  0  0  0  0999 V2000
  187.4550  177.7150  141.5520 C   0  0  0  0  0  3  0  0  0  0  0  0
  187.4890  177.1080  142.7070 C   0  0  0  0  0  0  0  0  0  0  0  0
  190.8210  177.0730  141.2860 C   0  0  0  0  0  2  0  0  0  0  0  0
  190.3970  178.2950  145.4480 C   0  0  2  0  0  3  0  0  0  0  0  0
  191.3000  175.5890  144.4350 C   0  0  0  0  0  2  0  0  0  0  0  0
  188.6620  178.4340  141.1300 C   0  0  0  0  0  0  0  0  0  0  0  0
  187.6070  176.4460  143.8250 C   0  0  0  0  0  3  0  0  0  0  0  0
  190.4210  177.9100  143.9590 C   0  0  0  0  0  2  0  0  0  0  0  0
  190.8960  177.1730  146.3680 C   0  0  0  0  0  2  0  0  0  0  0  0
  190.1990  176.3970  143.7240 C   0  0  1  0  0  0  0  0  0  0  0  0
  191.9160  176.2960  145.6550 C   0  0  1  0  0  3  0  0  0  0  0  0
  190.2510  176.0030  142.2310 C   0  0  0  0  0  2  0  0  0  0  0  0
  192.4310  175.3540  146.5400 O   0  0  0  0  0  1  0  0  0  0  0  0
  188.8960  175.9980  144.2780 N   0  0  0  0  0  2  0  0  0  0  0  0
  189.7690  177.7340  140.3740 C   0  0  2  0  0  3  0  0  0  0  0  0
  188.8950  179.5750  141.6190 O   0  0  0  0  0  0  0  0  0  0  0  0
  188.8540  178.0260  147.0320 C   0  0  0  0  0  1  0  0  0  0  0  0
  189.1120  178.7030  145.8350 O   0  0  0  0  0  0  0  0  0  0  0  0
  189.3340  176.8620  139.1780 C   0  0  2  0  0  3  0  0  0  0  0  0
  190.5310  176.2500  138.4980 C   0  0  0  0  0  0  0  0  0  0  0  0
  191.5290  174.3650  137.4130 N   0  0  0  0  0  0  0  0  0  0  0  0
  191.7840  176.8750  138.5300 C   0  0  0  0  0  3  0  0  0  0  0  0
  192.7570  174.9570  137.4480 C   0  0  0  0  0  3  0  0  0  0  0  0
  190.4350  174.9660  137.9460 C   0  0  0  0  0  3  0  0  0  0  0  0
  192.9020  176.2260  138.0060 C   0  0  0  0  0  3  0  0  0  0  0  0
  188.5240  177.6410  138.1840 C   0  0  0  0  0  0  0  0  0  0  0  0
  187.5750  179.3300  136.6150 N   0  0  0  0  0  0  0  0  0  0  0  0
  189.0150  179.0140  137.3820 S   0  0  0  0  0  0  0  0  0  0  0  0
  187.2220  177.4160  137.8990 N   0  0  0  0  0  0  0  0  0  0  0  0
  186.7230  178.3450  137.0280 C   0  0  0  0  0  3  0  0  0  0  0  0
  1  2  2  0  0  0  0
  2  7  2  0  0  0  0
  3 12  1  0  0  0  0
  4 18  1  1  0  0  0
  4  9  1  0  0  0  0
  5 11  1  0  0  0  0
  6  1  1  0  0  0  0
  6 16  2  0  0  0  0
  7 14  1  0  0  0  0
  8  4  1  0  0  0  0
 10 12  1  6  0  0  0
 10  8  1  0  0  0  0
 10 14  1  0  0  0  0
 10  5  1  0  0  0  0
 11  9  1  0  0  0  0
 11 13  1  1  0  0  0
 15 19  1  1  0  0  0
 15  6  1  0  0  0  0
 15  3  1  0  0  0  0
 18 17  1  0  0  0  0
 19 26  1  6  0  0  0
 20 22  1  0  0  0  0
 20 19  1  0  0  0  0
 21 23  2  0  0  0  0
 21 24  1  0  0  0  0
 23 25  1  0  0  0  0
 24 20  2  0  0  0  0
 25 22  2  0  0  0  0
 27 30  2  0  0  0  0
 27 28  1  0  0  0  0
 28 26  1  0  0  0  0
 29 26  2  0  0  0  0
 30 29  1  0  0  0  0
M  END
>  <MODEL>
3

>  <REMARK>
 VINA RESULT:      -6.7      2.114      4.460
  Name = 
  4 active torsions:
  status: ('A' for Active; 'I' for Inactive)
    1  A    between atoms: C_2  and  C_11
    2  A    between atoms: C_5  and  C_11
    3  A    between atoms: C_9  and  O_28
    4  A    between atoms: C_11  and  C_29
                            x       y       z     vdW  Elec       q    Type
                         _______ _______ _______ _____ _____    ______ ____

>  <TORSDO>
F 4

$$$$
=
 OpenBabel11062413273D

 30 33  0  0  1  0  0  0  0  0999 V2000
  179.2310  177.4400  138.2200 C   0  0  0  0  0  3  0  0  0  0  0  0
  179.4640  176.7260  137.1520 C   0  0  0  0  0  0  0  0  0  0  0  0
  182.1530  176.1790  139.5170 C   0  0  0  0  0  2  0  0  0  0  0  0
  180.3310  172.6810  137.6650 C   0  0  2  0  0  3  0  0  0  0  0  0
  182.9570  173.9780  136.8990 C   0  0  0  0  0  2  0  0  0  0  0  0
  179.7030  176.9120  139.5040 C   0  0  0  0  0  0  0  0  0  0  0  0
  179.8020  176.0180  136.1100 C   0  0  0  0  0  3  0  0  0  0  0  0
  180.8560  173.9790  138.3030 C   0  0  0  0  0  2  0  0  0  0  0  0
  181.2850  172.0990  136.6140 C   0  0  0  0  0  2  0  0  0  0  0  0
  181.7380  174.8090  137.3410 C   0  0  1  0  0  0  0  0  0  0  0  0
  182.7310  172.4570  136.9310 C   0  0  1  0  0  3  0  0  0  0  0  0
  182.2900  176.0990  137.9890 C   0  0  0  0  0  2  0  0  0  0  0  0
  183.5820  171.8310  136.0260 O   0  0  0  0  0  1  0  0  0  0  0  0
  180.9610  175.1690  136.1450 N   0  0  0  0  0  2  0  0  0  0  0  0
  181.1020  177.1960  140.0040 C   0  0  2  0  0  3  0  0  0  0  0  0
  179.0330  176.0060  140.0750 O   0  0  0  0  0  0  0  0  0  0  0  0
  179.0190  172.0590  135.9760 C   0  0  0  0  0  1  0  0  0  0  0  0
  179.0590  172.8800  137.1080 O   0  0  0  0  0  0  0  0  0  0  0  0
  181.5660  178.6670  139.9340 C   0  0  2  0  0  3  0  0  0  0  0  0
  182.9630  178.8130  140.4800 C   0  0  0  0  0  0  0  0  0  0  0  0
  185.2630  179.3550  140.1030 N   0  0  0  0  0  0  0  0  0  0  0  0
  183.3000  178.3360  141.7530 C   0  0  0  0  0  3  0  0  0  0  0  0
  185.6070  178.8820  141.3350 C   0  0  0  0  0  3  0  0  0  0  0  0
  183.9820  179.3040  139.6540 C   0  0  0  0  0  3  0  0  0  0  0  0
  184.6260  178.3670  142.1820 C   0  0  0  0  0  3  0  0  0  0  0  0
  180.6310  179.5830  140.6660 C   0  0  0  0  0  0  0  0  0  0  0  0
  179.2010  181.4640  141.4610 N   0  0  0  0  0  0  0  0  0  0  0  0
  179.9600  180.9820  140.0630 S   0  0  0  0  0  0  0  0  0  0  0  0
  180.3080  179.4770  141.9740 N   0  0  0  0  0  0  0  0  0  0  0  0
  179.5130  180.5110  142.3880 C   0  0  0  0  0  3  0  0  0  0  0  0
  1  6  1  0  0  0  0
  2  1  2  0  0  0  0
  3 15  1  0  0  0  0
  4 18  1  6  0  0  0
  4  8  1  0  0  0  0
  5 11  1  0  0  0  0
  6 15  1  0  0  0  0
  6 16  2  0  0  0  0
  7 14  1  0  0  0  0
  7  2  2  0  0  0  0
  9 11  1  0  0  0  0
  9  4  1  0  0  0  0
 10  5  1  6  0  0  0
 10 12  1  0  0  0  0
 10  8  1  0  0  0  0
 11 13  1  6  0  0  0
 12  3  1  0  0  0  0
 14 10  1  0  0  0  0
 15 19  1  6  0  0  0
 17 18  1  0  0  0  0
 19 20  1  1  0  0  0
 19 26  1  0  0  0  0
 20 22  1  0  0  0  0
 21 23  2  0  0  0  0
 22 25  2  0  0  0  0
 23 25  1  0  0  0  0
 24 21  1  0  0  0  0
 24 20  2  0  0  0  0
 26 29  2  0  0  0  0
 27 30  2  0  0  0  0
 28 26  1  0  0  0  0
 28 27  1  0  0  0  0
 29 30  1  0  0  0  0
M  END
>  <MODEL>
4

>  <REMARK>
 VINA RESULT:      -6.5      6.469     10.913
  Name = 
  4 active torsions:
  status: ('A' for Active; 'I' for Inactive)
    1  A    between atoms: C_2  and  C_11
    2  A    between atoms: C_5  and  C_11
    3  A    between atoms: C_9  and  O_28
    4  A    between atoms: C_11  and  C_29
                            x       y       z     vdW  Elec       q    Type
                         _______ _______ _______ _____ _____    ______ ____

>  <TORSDO>
F 4

$$$$
=
 OpenBabel11062413273D

 30 33  0  0  1  0  0  0  0  0999 V2000
  190.9090  175.9400  134.8130 C   0  0  0  0  0  3  0  0  0  0  0  0
  192.2130  175.8800  134.7810 C   0  0  0  0  0  0  0  0  0  0  0  0
  191.1200  175.3770  138.1970 C   0  0  0  0  0  2  0  0  0  0  0  0
  194.0590  172.6000  136.5720 C   0  0  2  0  0  3  0  0  0  0  0  0
  194.5990  174.9380  138.4180 C   0  0  0  0  0  2  0  0  0  0  0  0
  190.2190  175.1230  135.8170 C   0  0  0  0  0  0  0  0  0  0  0  0
  193.5150  175.8520  134.8500 C   0  0  0  0  0  3  0  0  0  0  0  0
  192.9760  173.5980  137.0190 C   0  0  0  0  0  2  0  0  0  0  0  0
  195.4380  172.9000  137.1730 C   0  0  0  0  0  2  0  0  0  0  0  0
  193.5390  175.0100  137.3030 C   0  0  1  0  0  0  0  0  0  0  0  0
  195.3070  173.5770  138.5310 C   0  0  1  0  0  3  0  0  0  0  0  0
  192.4590  176.0070  137.7810 C   0  0  0  0  0  2  0  0  0  0  0  0
  196.5650  173.7410  139.1010 O   0  0  0  0  0  1  0  0  0  0  0  0
  194.1760  175.5420  136.0880 N   0  0  0  0  0  2  0  0  0  0  0  0
  189.9640  175.6450  137.2140 C   0  0  2  0  0  3  0  0  0  0  0  0
  190.0660  173.8880  135.5990 O   0  0  0  0  0  0  0  0  0  0  0  0
  192.9030  172.0560  134.7480 C   0  0  0  0  0  1  0  0  0  0  0  0
  194.1410  172.5500  135.1730 O   0  0  0  0  0  0  0  0  0  0  0  0
  189.3660  177.0640  137.3140 C   0  0  2  0  0  3  0  0  0  0  0  0
  188.9970  177.3910  138.7370 C   0  0  0  0  0  0  0  0  0  0  0  0
  187.5410  178.5110  140.2700 N   0  0  0  0  0  0  0  0  0  0  0  0
  189.8620  177.0960  139.7990 C   0  0  0  0  0  3  0  0  0  0  0  0
  188.3800  178.2410  141.3110 C   0  0  0  0  0  3  0  0  0  0  0  0
  187.8370  178.1300  139.0010 C   0  0  0  0  0  3  0  0  0  0  0  0
  189.5550  177.5240  141.0900 C   0  0  0  0  0  3  0  0  0  0  0  0
  188.1700  177.2310  136.4240 C   0  0  0  0  0  0  0  0  0  0  0  0
  186.0760  176.9720  135.0950 N   0  0  0  0  0  0  0  0  0  0  0  0
  186.8480  176.2220  136.3620 S   0  0  0  0  0  0  0  0  0  0  0  0
  188.0570  178.1510  135.4410 N   0  0  0  0  0  0  0  0  0  0  0  0
  186.8970  178.0010  134.7320 C   0  0  0  0  0  3  0  0  0  0  0  0
  1  6  1  0  0  0  0
  2  1  2  0  0  0  0
  2  7  2  0  0  0  0
  4 18  1  6  0  0  0
  4  8  1  0  0  0  0
  4  9  1  0  0  0  0
  5 11  1  0  0  0  0
  6 15  1  0  0  0  0
  7 14  1  0  0  0  0
  9 11  1  0  0  0  0
 10  8  1  6  0  0  0
 10 12  1  0  0  0  0
 10  5  1  0  0  0  0
 11 13  1  6  0  0  0
 12  3  1  0  0  0  0
 14 10  1  0  0  0  0
 15 19  1  6  0  0  0
 15  3  1  0  0  0  0
 16  6  2  0  0  0  0
 17 18  1  0  0  0  0
 19 26  1  6  0  0  0
 19 20  1  0  0  0  0
 20 24  2  0  0  0  0
 20 22  1  0  0  0  0
 21 23  2  0  0  0  0
 22 25  2  0  0  0  0
 24 21  1  0  0  0  0
 25 23  1  0  0  0  0
 27 28  1  0  0  0  0
 28 26  1  0  0  0  0
 29 26  2  0  0  0  0
 30 27  2  0  0  0  0
 30 29  1  0  0  0  0
M  END
>  <MODEL>
5

>  <REMARK>
 VINA RESULT:      -5.8      4.710      7.899
  Name = 
  4 active torsions:
  status: ('A' for Active; 'I' for Inactive)
    1  A    between atoms: C_2  and  C_11
    2  A    between atoms: C_5  and  C_11
    3  A    between atoms: C_9  and  O_28
    4  A    between atoms: C_11  and  C_29
                            x       y       z     vdW  Elec       q    Type
                         _______ _______ _______ _____ _____    ______ ____

>  <TORSDO>
F 4

$$$$
=
 OpenBabel11062413273D

 30 33  0  0  1  0  0  0  0  0999 V2000
  184.4130  177.9110  138.3830 C   0  0  0  0  0  3  0  0  0  0  0  0
  183.1990  177.5160  138.6570 C   0  0  0  0  0  0  0  0  0  0  0  0
  184.6310  178.9920  141.6380 C   0  0  0  0  0  2  0  0  0  0  0  0
  180.6240  180.2450  140.4720 C   0  0  2  0  0  3  0  0  0  0  0  0
  181.3440  178.2530  142.6350 C   0  0  0  0  0  2  0  0  0  0  0  0
  184.9190  179.0870  139.0990 C   0  0  0  0  0  0  0  0  0  0  0  0
  182.0170  177.1110  139.0310 C   0  0  0  0  0  3  0  0  0  0  0  0
  182.0630  179.7780  140.7530 C   0  0  0  0  0  2  0  0  0  0  0  0
  179.5920  179.6120  141.4140 C   0  0  0  0  0  2  0  0  0  0  0  0
  182.1300  178.3390  141.3140 C   0  0  1  0  0  0  0  0  0  0  0  0
  180.2130  179.2870  142.7660 C   0  0  1  0  0  3  0  0  0  0  0  0
  183.5730  177.8770  141.6240 C   0  0  0  0  0  2  0  0  0  0  0  0
  179.2340  178.8140  143.6350 O   0  0  0  0  0  1  0  0  0  0  0  0
  181.5270  177.4040  140.3510 N   0  0  0  0  0  2  0  0  0  0  0  0
  185.6020  178.9540  140.4420 C   0  0  2  0  0  3  0  0  0  0  0  0
  184.5580  180.2350  138.7190 O   0  0  0  0  0  0  0  0  0  0  0  0
  181.1990  180.7240  138.3750 C   0  0  0  0  0  1  0  0  0  0  0  0
  180.2740  180.0010  139.1360 O   0  0  0  0  0  0  0  0  0  0  0  0
  186.6940  177.8690  140.5490 C   0  0  2  0  0  3  0  0  0  0  0  0
  187.4000  177.9480  141.8770 C   0  0  0  0  0  0  0  0  0  0  0  0
  189.4290  178.2800  143.1020 N   0  0  0  0  0  0  0  0  0  0  0  0
  186.7690  177.5440  143.0610 C   0  0  0  0  0  3  0  0  0  0  0  0
  188.8310  177.8770  144.2600 C   0  0  0  0  0  3  0  0  0  0  0  0
  188.7570  178.2940  141.9230 C   0  0  0  0  0  3  0  0  0  0  0  0
  187.4870  177.5050  144.2560 C   0  0  0  0  0  3  0  0  0  0  0  0
  187.6920  177.9680  139.4320 C   0  0  0  0  0  0  0  0  0  0  0  0
  189.2910  177.5680  137.5610 N   0  0  0  0  0  0  0  0  0  0  0  0
  188.0590  176.7670  138.3390 S   0  0  0  0  0  0  0  0  0  0  0  0
  188.5380  179.0030  139.2380 N   0  0  0  0  0  0  0  0  0  0  0  0
  189.3990  178.7700  138.2010 C   0  0  0  0  0  3  0  0  0  0  0  0
  1  2  2  0  0  0  0
  1  6  1  0  0  0  0
  2  7  2  0  0  0  0
  4 18  1  6  0  0  0
  4  8  1  0  0  0  0
  4  9  1  0  0  0  0
  5 11  1  0  0  0  0
  6 15  1  0  0  0  0
  7 14  1  0  0  0  0
  9 11  1  0  0  0  0
 10  8  1  6  0  0  0
 10 12  1  0  0  0  0
 10  5  1  0  0  0  0
 11 13  1  1  0  0  0
 12  3  1  0  0  0  0
 14 10  1  0  0  0  0
 15 19  1  6  0  0  0
 15  3  1  0  0  0  0
 16  6  2  0  0  0  0
 17 18  1  0  0  0  0
 19 26  1  6  0  0  0
 19 20  1  0  0  0  0
 20 24  2  0  0  0  0
 20 22  1  0  0  0  0
 21 23  2  0  0  0  0
 22 25  2  0  0  0  0
 24 21  1  0  0  0  0
 25 23  1  0  0  0  0
 27 30  2  0  0  0  0
 27 28  1  0  0  0  0
 28 26  1  0  0  0  0
 29 26  2  0  0  0  0
 30 29  1  0  0  0  0
M  END
>  <MODEL>
6

>  <REMARK>
 VINA RESULT:      -5.7      3.994      7.811
  Name = 
  4 active torsions:
  status: ('A' for Active; 'I' for Inactive)
    1  A    between atoms: C_2  and  C_11
    2  A    between atoms: C_5  and  C_11
    3  A    between atoms: C_9  and  O_28
    4  A    between atoms: C_11  and  C_29
                            x       y       z     vdW  Elec       q    Type
                         _______ _______ _______ _____ _____    ______ ____

>  <TORSDO>
F 4

$$$$
=
 OpenBabel11062413273D

 30 33  0  0  1  0  0  0  0  0999 V2000
  185.6160  178.2780  142.4920 C   0  0  0  0  0  3  0  0  0  0  0  0
  186.1630  177.4880  143.3760 C   0  0  0  0  0  0  0  0  0  0  0  0
  188.4670  177.8920  140.6110 C   0  0  0  0  0  2  0  0  0  0  0  0
  190.0330  178.3680  144.6490 C   0  0  2  0  0  3  0  0  0  0  0  0
  190.3020  175.9300  142.8750 C   0  0  0  0  0  2  0  0  0  0  0  0
  186.5110  179.1290  141.7000 C   0  0  0  0  0  0  0  0  0  0  0  0
  186.7640  176.6560  144.1800 C   0  0  0  0  0  3  0  0  0  0  0  0
  189.3600  178.2410  143.2710 C   0  0  0  0  0  2  0  0  0  0  0  0
  190.8710  177.1400  145.0250 C   0  0  0  0  0  2  0  0  0  0  0  0
  189.0180  176.7800  142.9010 C   0  0  1  0  0  0  0  0  0  0  0  0
  191.4270  176.4570  143.7830 C   0  0  1  0  0  3  0  0  0  0  0  0
  188.3680  176.6460  141.5050 C   0  0  0  0  0  2  0  0  0  0  0  0
  192.2680  175.4120  144.1530 O   0  0  0  0  0  1  0  0  0  0  0  0
  188.1050  176.2150  143.9080 N   0  0  0  0  0  2  0  0  0  0  0  0
  187.1300  178.6330  140.4120 C   0  0  2  0  0  3  0  0  0  0  0  0
  186.9720  180.1830  142.2220 O   0  0  0  0  0  0  0  0  0  0  0  0
  189.4290  177.7980  146.7160 C   0  0  0  0  0  1  0  0  0  0  0  0
  189.0800  178.6280  145.6450 O   0  0  0  0  0  0  0  0  0  0  0  0
  186.1720  177.9500  139.4130 C   0  0  2  0  0  3  0  0  0  0  0  0
  186.7440  177.9750  138.0200 C   0  0  0  0  0  0  0  0  0  0  0  0
  186.6870  177.1710  135.7670 N   0  0  0  0  0  0  0  0  0  0  0  0
  187.9620  178.6110  137.7450 C   0  0  0  0  0  3  0  0  0  0  0  0
  187.8780  177.7740  135.4890 C   0  0  0  0  0  3  0  0  0  0  0  0
  186.1310  177.2320  137.0040 C   0  0  0  0  0  3  0  0  0  0  0  0
  188.5330  178.5090  136.4770 C   0  0  0  0  0  3  0  0  0  0  0  0
  184.8120  178.5850  139.4190 C   0  0  0  0  0  0  0  0  0  0  0  0
  182.3740  179.1040  139.3880 N   0  0  0  0  0  0  0  0  0  0  0  0
  183.3660  177.7980  139.6580 S   0  0  0  0  0  0  0  0  0  0  0  0
  184.5560  179.8710  139.0930 N   0  0  0  0  0  0  0  0  0  0  0  0
  183.2140  180.1390  139.0930 C   0  0  0  0  0  3  0  0  0  0  0  0
  1  2  2  0  0  0  0
  2  7  2  0  0  0  0
  3 12  1  0  0  0  0
  4  9  1  0  0  0  0
  4 18  1  1  0  0  0
  5 10  1  0  0  0  0
  5 11  1  0  0  0  0
  6 16  2  0  0  0  0
  6  1  1  0  0  0  0
  8  4  1  0  0  0  0
 10 12  1  6  0  0  0
 10  8  1  0  0  0  0
 10 14  1  0  0  0  0
 11 13  1  1  0  0  0
 11  9  1  0  0  0  0
 14  7  1  0  0  0  0
 15 19  1  1  0  0  0
 15  3  1  0  0  0  0
 15  6  1  0  0  0  0
 18 17  1  0  0  0  0
 19 20  1  6  0  0  0
 19 26  1  0  0  0  0
 21 24  1  0  0  0  0
 22 20  1  0  0  0  0
 23 21  2  0  0  0  0
 23 25  1  0  0  0  0
 24 20  2  0  0  0  0
 25 22  2  0  0  0  0
 26 28  1  0  0  0  0
 27 28  1  0  0  0  0
 29 26  2  0  0  0  0
 30 29  1  0  0  0  0
 30 27  2  0  0  0  0
M  END
>  <MODEL>
7

>  <REMARK>
 VINA RESULT:      -5.6      2.386      4.651
  Name = 
  4 active torsions:
  status: ('A' for Active; 'I' for Inactive)
    1  A    between atoms: C_2  and  C_11
    2  A    between atoms: C_5  and  C_11
    3  A    between atoms: C_9  and  O_28
    4  A    between atoms: C_11  and  C_29
                            x       y       z     vdW  Elec       q    Type
                         _______ _______ _______ _____ _____    ______ ____

>  <TORSDO>
F 4

$$$$
=
 OpenBabel11062413273D

 30 33  0  0  1  0  0  0  0  0999 V2000
  193.3890  175.9260  138.1090 C   0  0  0  0  0  3  0  0  0  0  0  0
  194.2690  174.9760  138.2770 C   0  0  0  0  0  0  0  0  0  0  0  0
  192.0230  174.0080  135.6050 C   0  0  0  0  0  2  0  0  0  0  0  0
  196.3050  173.5890  134.9150 C   0  0  2  0  0  3  0  0  0  0  0  0
  194.3620  171.3860  135.6470 C   0  0  0  0  0  2  0  0  0  0  0  0
  192.8650  176.1320  136.7540 C   0  0  0  0  0  0  0  0  0  0  0  0
  195.0760  173.9600  138.4060 C   0  0  0  0  0  3  0  0  0  0  0  0
  194.8230  173.8380  135.2430 C   0  0  0  0  0  2  0  0  0  0  0  0
  196.6940  172.1070  134.9760 C   0  0  0  0  0  2  0  0  0  0  0  0
  194.2450  172.8040  136.2370 C   0  0  1  0  0  0  0  0  0  0  0  0
  195.5080  171.2160  134.6350 C   0  0  1  0  0  3  0  0  0  0  0  0
  192.7480  173.0340  136.5480 C   0  0  0  0  0  2  0  0  0  0  0  0
  195.9120  169.8850  134.5940 O   0  0  0  0  0  1  0  0  0  0  0  0
  195.0060  172.8490  137.4960 N   0  0  0  0  0  2  0  0  0  0  0  0
  191.6650  175.3610  136.2510 C   0  0  2  0  0  3  0  0  0  0  0  0
  193.5700  176.7620  135.9170 O   0  0  0  0  0  0  0  0  0  0  0  0
  196.8180  175.6800  135.4870 C   0  0  0  0  0  1  0  0  0  0  0  0
  197.1340  174.3440  135.7570 O   0  0  0  0  0  0  0  0  0  0  0  0
  190.4430  175.3080  137.1920 C   0  0  2  0  0  3  0  0  0  0  0  0
  189.3440  174.4680  136.5970 C   0  0  0  0  0  0  0  0  0  0  0  0
  187.5860  174.2340  134.9910 N   0  0  0  0  0  0  0  0  0  0  0  0
  188.9130  173.2890  137.2180 C   0  0  0  0  0  3  0  0  0  0  0  0
  187.1470  173.0920  135.5930 C   0  0  0  0  0  3  0  0  0  0  0  0
  188.6380  174.9370  135.4820 C   0  0  0  0  0  3  0  0  0  0  0  0
  187.8090  172.5990  136.7170 C   0  0  0  0  0  3  0  0  0  0  0  0
  189.9240  176.6790  137.5110 C   0  0  0  0  0  0  0  0  0  0  0  0
  188.9050  178.7150  138.5280 N   0  0  0  0  0  0  0  0  0  0  0  0
  189.4650  177.2270  139.0140 S   0  0  0  0  0  0  0  0  0  0  0  0
  189.6220  177.6260  136.5950 N   0  0  0  0  0  0  0  0  0  0  0  0
  189.0760  178.7390  137.1740 C   0  0  0  0  0  3  0  0  0  0  0  0
  1  2  2  0  0  0  0
  2  7  2  0  0  0  0
  3 15  1  0  0  0  0
  3 12  1  0  0  0  0
  4  9  1  0  0  0  0
  4  8  1  0  0  0  0
  4 18  1  1  0  0  0
  5 10  1  0  0  0  0
  6  1  1  0  0  0  0
 10  8  1  6  0  0  0
 10 12  1  0  0  0  0
 10 14  1  0  0  0  0
 11 13  1  1  0  0  0
 11  9  1  0  0  0  0
 11  5  1  0  0  0  0
 14  7  1  0  0  0  0
 15  6  1  0  0  0  0
 15 19  1  1  0  0  0
 16  6  2  0  0  0  0
 17 18  1  0  0  0  0
 19 20  1  6  0  0  0
 19 26  1  0  0  0  0
 20 22  1  0  0  0  0
 21 24  1  0  0  0  0
 21 23  2  0  0  0  0
 23 25  1  0  0  0  0
 24 20  2  0  0  0  0
 25 22  2  0  0  0  0
 26 28  1  0  0  0  0
 27 28  1  0  0  0  0
 29 30  1  0  0  0  0
 29 26  2  0  0  0  0
 30 27  2  0  0  0  0
M  END
>  <MODEL>
8

>  <REMARK>
 VINA RESULT:      -5.6      6.673      9.339
  Name = 
  4 active torsions:
  status: ('A' for Active; 'I' for Inactive)
    1  A    between atoms: C_2  and  C_11
    2  A    between atoms: C_5  and  C_11
    3  A    between atoms: C_9  and  O_28
    4  A    between atoms: C_11  and  C_29
                            x       y       z     vdW  Elec       q    Type
                         _______ _______ _______ _____ _____    ______ ____

>  <TORSDO>
F 4

$$$$
=
 OpenBabel11062413273D

 30 33  0  0  1  0  0  0  0  0999 V2000
  190.1830  176.7610  145.0470 C   0  0  0  0  0  3  0  0  0  0  0  0
  190.6270  176.0410  144.0530 C   0  0  0  0  0  0  0  0  0  0  0  0
  187.9620  178.1720  142.8370 C   0  0  0  0  0  2  0  0  0  0  0  0
  191.6530  178.0100  140.5250 C   0  0  2  0  0  3  0  0  0  0  0  0
  189.0660  176.5600  139.9160 C   0  0  0  0  0  2  0  0  0  0  0  0
  189.6710  178.1010  144.7380 C   0  0  0  0  0  0  0  0  0  0  0  0
  190.9730  175.3310  143.0150 C   0  0  0  0  0  3  0  0  0  0  0  0
  190.4240  178.0390  141.4510 C   0  0  0  0  0  2  0  0  0  0  0  0
  191.4270  177.1860  139.2510 C   0  0  0  0  0  2  0  0  0  0  0  0
  189.5710  176.7530  141.3590 C   0  0  1  0  0  0  0  0  0  0  0  0
  189.9600  177.2030  138.8430 C   0  0  1  0  0  3  0  0  0  0  0  0
  188.3200  176.7910  142.2660 C   0  0  0  0  0  2  0  0  0  0  0  0
  189.7990  176.5400  137.6300 O   0  0  0  0  0  1  0  0  0  0  0  0
  190.3910  175.5880  141.7250 N   0  0  0  0  0  2  0  0  0  0  0  0
  188.2260  178.3180  144.3480 C   0  0  2  0  0  3  0  0  0  0  0  0
  190.4940  179.0390  144.5440 O   0  0  0  0  0  0  0  0  0  0  0  0
  193.6650  177.1060  140.2190 C   0  0  0  0  0  1  0  0  0  0  0  0
  192.7810  177.5400  141.2120 O   0  0  0  0  0  0  0  0  0  0  0  0
  187.1680  177.6370  145.2420 C   0  0  2  0  0  3  0  0  0  0  0  0
  185.7990  178.2090  144.9810 C   0  0  0  0  0  0  0  0  0  0  0  0
  183.7130  179.0030  145.8430 N   0  0  0  0  0  0  0  0  0  0  0  0
  185.2630  178.2530  143.6870 C   0  0  0  0  0  3  0  0  0  0  0  0
  183.1750  179.0390  144.5910 C   0  0  0  0  0  3  0  0  0  0  0  0
  184.9820  178.5730  146.0600 C   0  0  0  0  0  3  0  0  0  0  0  0
  183.9460  178.6660  143.4910 C   0  0  0  0  0  3  0  0  0  0  0  0
  187.5050  177.7590  146.6990 C   0  0  0  0  0  0  0  0  0  0  0  0
  188.1160  178.5130  148.9960 N   0  0  0  0  0  0  0  0  0  0  0  0
  187.5570  179.1730  147.5760 S   0  0  0  0  0  0  0  0  0  0  0  0
  187.9520  176.7500  147.4790 N   0  0  0  0  0  0  0  0  0  0  0  0
  188.2700  177.1810  148.7370 C   0  0  0  0  0  3  0  0  0  0  0  0
  2  1  2  0  0  0  0
  3 15  1  0  0  0  0
  4 18  1  1  0  0  0
  4  8  1  0  0  0  0
  6  1  1  0  0  0  0
  7  2  2  0  0  0  0
  9  4  1  0  0  0  0
 10  5  1  6  0  0  0
 10  8  1  0  0  0  0
 10 14  1  0  0  0  0
 10 12  1  0  0  0  0
 11 13  1  6  0  0  0
 11  9  1  0  0  0  0
 11  5  1  0  0  0  0
 12  3  1  0  0  0  0
 14  7  1  0  0  0  0
 15  6  1  0  0  0  0
 15 19  1  1  0  0  0
 16  6  2  0  0  0  0
 17 18  1  0  0  0  0
 19 20  1  1  0  0  0
 19 26  1  0  0  0  0
 20 24  1  0  0  0  0
 21 24  2  0  0  0  0
 22 20  2  0  0  0  0
 23 21  1  0  0  0  0
 25 22  1  0  0  0  0
 25 23  2  0  0  0  0
 26 29  2  0  0  0  0
 26 28  1  0  0  0  0
 28 27  1  0  0  0  0
 29 30  1  0  0  0  0
 30 27  2  0  0  0  0
M  END
>  <MODEL>
9

>  <REMARK>
 VINA RESULT:      -5.3      3.300      6.475
  Name = 
  4 active torsions:
  status: ('A' for Active; 'I' for Inactive)
    1  A    between atoms: C_2  and  C_11
    2  A    between atoms: C_5  and  C_11
    3  A    between atoms: C_9  and  O_28
    4  A    between atoms: C_11  and  C_29
                            x       y       z     vdW  Elec       q    Type
                         _______ _______ _______ _____ _____    ______ ____

>  <TORSDO>
F 4

$$$$
