=
 OpenBabel11062417383D

 65 71  0  0  1  0  0  0  0  0999 V2000
  187.3950  177.6330  145.1240 C   0  0  0  0  0  0  0  0  0  0  0  0
  188.0520  177.2340  143.9530 C   0  0  0  0  0  3  0  0  0  0  0  0
  187.4590  177.4770  142.7090 C   0  0  0  0  0  0  0  0  0  0  0  0
  186.2220  178.1140  142.6560 C   0  0  0  0  0  3  0  0  0  0  0  0
  185.6020  178.5310  143.8390 C   0  0  0  0  0  0  0  0  0  0  0  0
  186.1900  178.2640  145.0360 N   0  0  0  0  0  0  0  0  0  0  0  0
  187.2700  177.6270  147.5340 O   0  0  0  0  0  1  0  0  0  0  0  0
  187.9710  177.3670  146.4060 N   0  0  0  0  0  0  0  0  0  0  0  0
  189.3080  176.9600  146.5120 N   0  0  0  0  0  1  0  0  0  0  0  0
  188.0770  177.1040  141.5100 O   0  0  0  0  0  0  0  0  0  0  0  0
  190.6860  174.9290  136.8590 C   0  0  1  0  0  0  0  0  0  0  0  0
  191.2810  177.0380  138.1930 O   0  0  0  0  0  0  0  0  0  0  0  0
  188.8150  176.7090  138.9980 O   0  0  0  0  0  0  0  0  0  0  0  0
  188.8100  179.5600  136.5040 C   0  0  0  0  0  1  0  0  0  0  0  0
  191.6940  177.4090  141.7430 O   0  0  0  0  0  0  0  0  0  0  0  0
  192.3240  176.2860  135.5700 O   0  0  0  0  0  1  0  0  0  0  0  0
  188.5220  178.1270  136.9390 C   0  0  0  0  0  0  0  0  0  0  0  0
  191.0180  174.0700  135.8220 F   0  0  0  0  0  0  0  0  0  0  0  0
  190.3640  177.7920  141.9440 C   0  0  0  0  0  2  0  0  0  0  0  0
  189.7970  176.3200  139.9670 C   0  0  1  0  0  3  0  0  0  0  0  0
  192.9390  174.6080  137.8930 O   0  0  0  0  0  1  0  0  0  0  0  0
  189.3630  175.6760  136.4840 C   0  0  1  0  0  3  0  0  0  0  0  0
  190.3990  174.1390  137.9740 O   0  0  0  0  0  1  0  0  0  0  0  0
  188.7590  177.9850  138.4310 C   0  0  0  0  0  0  0  0  0  0  0  0
  193.5780  176.8990  137.5320 O   0  0  0  0  0  1  0  0  0  0  0  0
  191.2670  176.5760  139.5170 C   0  0  2  0  0  3  0  0  0  0  0  0
  192.1920  175.9770  137.2290 P   0  0  0  0  0  0  0  0  0  0  0  0
  189.4390  176.6960  141.4170 C   0  0  2  0  0  3  0  0  0  0  0  0
  189.4550  177.1800  136.1210 C   0  0  1  0  0  3  0  0  0  0  0  0
  188.9480  179.0000  139.1600 O   0  0  0  0  0  0  0  0  0  0  0  0
  189.3450  177.3870  134.7410 O   0  0  0  0  0  1  0  0  0  0  0  0
  191.9390  177.6430  140.3850 C   0  0  0  0  0  2  0  0  0  0  0  0
  187.0560  177.8510  136.6610 C   0  0  0  0  0  1  0  0  0  0  0  0
  187.4800  175.5680  134.9060 O   0  0  0  0  0  1  0  0  0  0  0  0
  188.4120  174.8110  135.6140 C   0  0  2  0  0  3  0  0  0  0  0  0
  187.6910  173.7440  136.4340 C   0  0  0  0  0  2  0  0  0  0  0  0
  185.5800  173.2190  137.5690 C   0  0  0  0  0  2  0  0  0  0  0  0
  186.4920  174.3130  137.1800 C   0  0  2  0  0  3  0  0  0  0  0  0
  185.3210  174.0350  136.4530 O   0  0  0  0  0  0  0  0  0  0  0  0
  184.2870  179.2590  143.8050 C   0  0  0  0  0  2  0  0  0  0  0  0
  183.2250  178.6000  142.9090 C   0  0  1  0  0  3  0  0  0  0  0  0
  181.8290  179.0130  143.2860 C   0  0  0  0  0  0  0  0  0  0  0  0
  181.1460  178.3000  144.2630 O   0  0  0  0  0  1  0  0  0  0  0  0
  181.2880  180.0190  142.7540 O   0  0  0  0  0  0  0  0  0  0  0  0
  183.5650  178.8070  141.4300 C   0  0  0  0  0  2  0  0  0  0  0  0
  182.3600  178.7750  140.4920 C   0  0  2  0  0  3  0  0  0  0  0  0
  182.6140  177.5780  138.3950 O   0  0  0  0  0  0  0  0  0  0  0  0
  180.7390  175.4860  139.1920 C   0  0  0  0  0  2  0  0  0  0  0  0
  181.0480  174.9240  136.6530 C   0  0  0  0  0  2  0  0  0  0  0  0
  180.7670  176.8910  139.7960 C   0  0  0  0  0  2  0  0  0  0  0  0
  182.1950  177.4570  139.7320 C   0  0  2  0  0  3  0  0  0  0  0  0
  181.6270  175.4270  137.9560 C   0  0  0  0  0  0  0  0  0  0  0  0
  181.9040  174.0100  137.5200 C   0  0  0  0  0  2  0  0  0  0  0  0
  182.8950  176.2760  137.9460 C   0  0  0  0  0  2  0  0  0  0  0  0
  182.4730  179.8430  139.5630 O   0  0  0  0  0  0  0  0  0  0  0  0
  181.3610  180.5790  139.1570 C   0  0  0  0  0  0  0  0  0  0  0  0
  180.2360  180.3250  139.6660 O   0  0  0  0  0  0  0  0  0  0  0  0
  181.4990  181.6080  138.2180 O   0  0  0  0  0  0  0  0  0  0  0  0
  180.3810  182.3140  137.6840 C   0  0  0  0  0  2  0  0  0  0  0  0
  180.6510  183.8110  137.5040 C   0  0  2  0  0  0  0  0  0  0  0  0
  180.0120  184.7140  138.3310 F   0  0  0  0  0  0  0  0  0  0  0  0
  180.9500  185.6550  135.9070 F   0  0  0  0  0  0  0  0  0  0  0  0
  181.1370  184.3180  136.2050 C   0  0  0  0  0  0  0  0  0  0  0  0
  182.0070  184.1440  137.3030 O   0  0  0  0  0  0  0  0  0  0  0  0
  181.4110  183.4250  135.1860 F   0  0  0  0  0  0  0  0  0  0  0  0
  1  8  1  0  0  0  0
  2  1  2  0  0  0  0
  3  2  1  0  0  0  0
  4  3  2  0  0  0  0
  4  5  1  0  0  0  0
  5  6  2  0  0  0  0
  6  1  1  0  0  0  0
  8  9  1  0  0  0  0
  8  7  1  0  0  0  0
 10  3  1  0  0  0  0
 11 18  1  6  0  0  0
 11 27  1  0  0  0  0
 11 23  1  0  0  0  0
 12 26  1  0  0  0  0
 14 17  1  0  0  0  0
 15 19  1  0  0  0  0
 16 27  1  0  0  0  0
 17 24  1  0  0  0  0
 20 13  1  6  0  0  0
 20 28  1  0  0  0  0
 22 35  1  6  0  0  0
 22 11  1  0  0  0  0
 24 13  1  0  0  0  0
 24 30  2  0  0  0  0
 26 20  1  0  0  0  0
 26 32  1  1  0  0  0
 27 25  1  0  0  0  0
 27 21  1  0  0  0  0
 27 12  1  0  0  0  0
 28 10  1  6  0  0  0
 28 19  1  0  0  0  0
 29 31  1  6  0  0  0
 29 22  1  0  0  0  0
 29 17  1  0  0  0  0
 32 15  1  0  0  0  0
 33 17  1  0  0  0  0
 35 34  1  1  0  0  0
 35 36  1  0  0  0  0
 38 36  1  6  0  0  0
 38 37  1  0  0  0  0
 39 38  1  0  0  0  0
 39 37  1  0  0  0  0
 40  5  1  0  0  0  0
 41 45  1  6  0  0  0
 41 42  1  0  0  0  0
 41 40  1  0  0  0  0
 42 43  1  0  0  0  0
 44 42  2  0  0  0  0
 46 45  1  6  0  0  0
 47 51  1  0  0  0  0
 48 50  1  0  0  0  0
 49 53  1  0  0  0  0
 49 52  1  0  0  0  0
 51 50  1  0  0  0  0
 51 46  1  6  0  0  0
 52 48  1  0  0  0  0
 53 52  1  0  0  0  0
 54 52  1  0  0  0  0
 54 47  1  0  0  0  0
 55 46  1  0  0  0  0
 56 55  1  0  0  0  0
 56 57  2  0  0  0  0
 58 56  1  0  0  0  0
 59 58  1  0  0  0  0
 60 59  1  0  0  0  0
 60 61  1  1  0  0  0
 62 63  1  0  0  0  0
 63 64  1  0  0  0  0
 63 60  1  0  0  0  0
 64 60  1  0  0  0  0
 65 63  1  0  0  0  0
M  END
>  <MODEL>
1

>  <REMARK>
 VINA RESULT:      -8.4      0.000      0.000
  Name = 
  17 active torsions:
  status: ('A' for Active; 'I' for Inactive)
    1  A    between atoms: C_3  and  C_21
    2  A    between atoms: C_6  and  C_18
    3  A    between atoms: C_6  and  C_49
    4  A    between atoms: C_9  and  C_42
    5  A    between atoms: C_9  and  O_54
    6  A    between atoms: C_9  and  C_61
    7  A    between atoms: C_10  and  N_43
    8  A    between atoms: C_12  and  C_52
    9  A    between atoms: C_18  and  C_23
   10  A    between atoms: C_18  and  C_61
   11  A    between atoms: C_20  and  O_44
   12  A    between atoms: C_21  and  O_35
   13  A    between atoms: C_34  and  C_60
   14  A    between atoms: O_35  and  C_39
   15  A    between atoms: C_39  and  O_54
   16  A    between atoms: O_44  and  C_48
   17  A    between atoms: C_52  and  C_60
                            x       y       z     vdW  Elec       q    Type
                         _______ _______ _______ _____ _____    ______ ____

>  <TORSDO>
F 17

$$$$
=
 OpenBabel11062417383D

 65 71  0  0  1  0  0  0  0  0999 V2000
  189.5610  177.1380  145.1550 C   0  0  0  0  0  0  0  0  0  0  0  0
  190.0060  177.1740  143.8270 C   0  0  0  0  0  3  0  0  0  0  0  0
  189.0790  177.0890  142.7820 C   0  0  0  0  0  0  0  0  0  0  0  0
  187.7230  176.9710  143.0810 C   0  0  0  0  0  3  0  0  0  0  0  0
  187.3030  176.9710  144.4160 C   0  0  0  0  0  0  0  0  0  0  0  0
  188.2260  177.0340  145.4120 N   0  0  0  0  0  0  0  0  0  0  0  0
  191.8230  177.0990  145.9910 O   0  0  0  0  0  1  0  0  0  0  0  0
  190.4950  177.1950  146.2350 N   0  0  0  0  0  0  0  0  0  0  0  0
  190.0450  177.2190  147.5620 N   0  0  0  0  0  1  0  0  0  0  0  0
  189.4710  177.1260  141.4390 O   0  0  0  0  0  0  0  0  0  0  0  0
  190.4840  174.4170  136.4580 C   0  0  1  0  0  0  0  0  0  0  0  0
  191.4840  176.6170  137.3210 O   0  0  0  0  0  0  0  0  0  0  0  0
  189.3880  176.4650  138.8770 O   0  0  0  0  0  0  0  0  0  0  0  0
  188.6320  179.0650  136.2270 C   0  0  0  0  0  1  0  0  0  0  0  0
  192.9840  177.3060  140.5120 O   0  0  0  0  0  0  0  0  0  0  0  0
  191.6520  175.5790  134.5950 O   0  0  0  0  0  1  0  0  0  0  0  0
  188.4820  177.6930  136.8750 C   0  0  0  0  0  0  0  0  0  0  0  0
  190.4700  173.4510  135.4630 F   0  0  0  0  0  0  0  0  0  0  0  0
  191.7860  177.7590  141.0740 C   0  0  0  0  0  2  0  0  0  0  0  0
  190.6190  176.1310  139.5290 C   0  0  1  0  0  3  0  0  0  0  0  0
  192.9440  174.1050  136.7740 O   0  0  0  0  0  1  0  0  0  0  0  0
  189.1170  175.1780  136.4360 C   0  0  1  0  0  3  0  0  0  0  0  0
  190.5520  173.7480  137.6830 O   0  0  0  0  0  1  0  0  0  0  0  0
  189.1700  177.6840  138.2270 C   0  0  0  0  0  0  0  0  0  0  0  0
  193.4600  176.3250  136.0010 O   0  0  0  0  0  1  0  0  0  0  0  0
  191.8790  176.2830  138.6240 C   0  0  2  0  0  3  0  0  0  0  0  0
  192.0400  175.4340  136.2370 P   0  0  0  0  0  0  0  0  0  0  0  0
  190.7330  176.6560  140.9730 C   0  0  2  0  0  3  0  0  0  0  0  0
  189.1050  176.6360  135.9110 C   0  0  1  0  0  3  0  0  0  0  0  0
  189.5850  178.7540  138.7550 O   0  0  0  0  0  0  0  0  0  0  0  0
  188.5730  176.7160  134.6180 O   0  0  0  0  0  1  0  0  0  0  0  0
  192.7970  177.4010  139.1290 C   0  0  0  0  0  2  0  0  0  0  0  0
  186.9990  177.4510  137.0930 C   0  0  0  0  0  1  0  0  0  0  0  0
  187.1110  174.8760  135.0450 O   0  0  0  0  0  1  0  0  0  0  0  0
  187.9350  174.2740  135.9960 C   0  0  2  0  0  3  0  0  0  0  0  0
  187.0950  173.8040  137.1810 C   0  0  0  0  0  2  0  0  0  0  0  0
  184.9210  172.8180  137.7480 C   0  0  0  0  0  2  0  0  0  0  0  0
  185.6120  173.7590  136.8430 C   0  0  2  0  0  3  0  0  0  0  0  0
  185.2700  172.4570  136.4340 O   0  0  0  0  0  0  0  0  0  0  0  0
  185.8420  176.8880  144.7630 C   0  0  0  0  0  2  0  0  0  0  0  0
  185.1530  178.2530  144.9220 C   0  0  1  0  0  3  0  0  0  0  0  0
  185.2660  178.7850  146.3240 C   0  0  0  0  0  0  0  0  0  0  0  0
  186.2730  179.6900  146.6330 O   0  0  0  0  0  0  0  0  0  0  0  0
  184.4340  178.4500  147.2100 O   0  0  0  0  0  1  0  0  0  0  0  0
  185.6310  179.2260  143.8390 C   0  0  0  0  0  2  0  0  0  0  0  0
  184.7230  179.3060  142.6140 C   0  0  2  0  0  3  0  0  0  0  0  0
  182.4010  179.5050  141.9330 O   0  0  0  0  0  0  0  0  0  0  0  0
  181.4090  178.7550  144.5750 C   0  0  0  0  0  2  0  0  0  0  0  0
  179.1960  179.5700  143.4330 C   0  0  0  0  0  2  0  0  0  0  0  0
  182.8020  179.3280  144.3100 C   0  0  0  0  0  2  0  0  0  0  0  0
  183.2620  178.9470  142.8940 C   0  0  2  0  0  3  0  0  0  0  0  0
  180.5410  178.8870  143.3290 C   0  0  0  0  0  0  0  0  0  0  0  0
  179.2890  178.0490  143.4150 C   0  0  0  0  0  2  0  0  0  0  0  0
  181.2180  178.7470  141.9690 C   0  0  0  0  0  2  0  0  0  0  0  0
  185.2350  178.4440  141.6070 O   0  0  0  0  0  0  0  0  0  0  0  0
  184.8880  178.5990  140.2670 C   0  0  0  0  0  0  0  0  0  0  0  0
  185.1570  179.6840  139.6840 O   0  0  0  0  0  0  0  0  0  0  0  0
  184.2750  177.5520  139.5690 O   0  0  0  0  0  0  0  0  0  0  0  0
  182.9770  177.6710  138.9910 C   0  0  0  0  0  2  0  0  0  0  0  0
  182.3730  176.3200  138.5970 C   0  0  2  0  0  0  0  0  0  0  0  0
  182.9830  175.5710  137.6100 F   0  0  0  0  0  0  0  0  0  0  0  0
  180.3140  175.0650  138.1210 F   0  0  0  0  0  0  0  0  0  0  0  0
  180.9440  176.0530  138.8540 C   0  0  0  0  0  0  0  0  0  0  0  0
  181.9550  175.5240  139.6840 O   0  0  0  0  0  0  0  0  0  0  0  0
  180.1830  177.0010  139.5130 F   0  0  0  0  0  0  0  0  0  0  0  0
  1  6  1  0  0  0  0
  1  8  1  0  0  0  0
  2  1  2  0  0  0  0
  3  4  2  0  0  0  0
  3  2  1  0  0  0  0
  4  5  1  0  0  0  0
  5 40  1  0  0  0  0
  5  6  2  0  0  0  0
  7  8  1  0  0  0  0
  8  9  1  0  0  0  0
 10  3  1  0  0  0  0
 11 18  1  6  0  0  0
 11 23  1  0  0  0  0
 12 26  1  0  0  0  0
 14 17  1  0  0  0  0
 15 19  1  0  0  0  0
 16 27  1  0  0  0  0
 17 33  1  0  0  0  0
 17 24  1  0  0  0  0
 20 13  1  6  0  0  0
 20 28  1  0  0  0  0
 22 35  1  6  0  0  0
 22 11  1  0  0  0  0
 24 30  2  0  0  0  0
 24 13  1  0  0  0  0
 25 27  1  0  0  0  0
 26 32  1  1  0  0  0
 26 20  1  0  0  0  0
 27 11  1  0  0  0  0
 27 21  1  0  0  0  0
 27 12  1  0  0  0  0
 28 19  1  0  0  0  0
 28 10  1  6  0  0  0
 29 31  1  6  0  0  0
 29 22  1  0  0  0  0
 29 17  1  0  0  0  0
 32 15  1  0  0  0  0
 35 34  1  6  0  0  0
 35 36  1  0  0  0  0
 38 36  1  1  0  0  0
 38 37  1  0  0  0  0
 39 38  1  0  0  0  0
 39 37  1  0  0  0  0
 40 41  1  0  0  0  0
 41 45  1  6  0  0  0
 41 42  1  0  0  0  0
 42 43  2  0  0  0  0
 42 44  1  0  0  0  0
 46 45  1  1  0  0  0
 47 54  1  0  0  0  0
 47 51  1  0  0  0  0
 50 48  1  0  0  0  0
 51 46  1  6  0  0  0
 51 50  1  0  0  0  0
 52 53  1  0  0  0  0
 52 49  1  0  0  0  0
 52 48  1  0  0  0  0
 53 49  1  0  0  0  0
 54 52  1  0  0  0  0
 55 46  1  0  0  0  0
 56 55  1  0  0  0  0
 57 56  2  0  0  0  0
 58 56  1  0  0  0  0
 59 58  1  0  0  0  0
 60 61  1  6  0  0  0
 60 63  1  0  0  0  0
 60 59  1  0  0  0  0
 60 64  1  0  0  0  0
 62 63  1  0  0  0  0
 63 65  1  0  0  0  0
 63 64  1  0  0  0  0
M  END
>  <MODEL>
2

>  <REMARK>
 VINA RESULT:      -7.6      2.819      4.139
  Name = 
  17 active torsions:
  status: ('A' for Active; 'I' for Inactive)
    1  A    between atoms: C_3  and  C_21
    2  A    between atoms: C_6  and  C_18
    3  A    between atoms: C_6  and  C_49
    4  A    between atoms: C_9  and  C_42
    5  A    between atoms: C_9  and  O_54
    6  A    between atoms: C_9  and  C_61
    7  A    between atoms: C_10  and  N_43
    8  A    between atoms: C_12  and  C_52
    9  A    between atoms: C_18  and  C_23
   10  A    between atoms: C_18  and  C_61
   11  A    between atoms: C_20  and  O_44
   12  A    between atoms: C_21  and  O_35
   13  A    between atoms: C_34  and  C_60
   14  A    between atoms: O_35  and  C_39
   15  A    between atoms: C_39  and  O_54
   16  A    between atoms: O_44  and  C_48
   17  A    between atoms: C_52  and  C_60
                            x       y       z     vdW  Elec       q    Type
                         _______ _______ _______ _____ _____    ______ ____

>  <TORSDO>
F 17

$$$$
=
 OpenBabel11062417383D

 65 71  0  0  1  0  0  0  0  0999 V2000
  187.4310  177.7450  145.2490 C   0  0  0  0  0  0  0  0  0  0  0  0
  188.1290  177.4880  144.0620 C   0  0  0  0  0  3  0  0  0  0  0  0
  187.4440  177.4920  142.8410 C   0  0  0  0  0  0  0  0  0  0  0  0
  186.0760  177.7540  142.8270 C   0  0  0  0  0  3  0  0  0  0  0  0
  185.4100  178.0410  144.0240 C   0  0  0  0  0  0  0  0  0  0  0  0
  186.0950  178.0100  145.1980 N   0  0  0  0  0  0  0  0  0  0  0  0
  187.3990  177.7080  147.6610 O   0  0  0  0  0  1  0  0  0  0  0  0
  188.1080  177.7170  146.5090 N   0  0  0  0  0  0  0  0  0  0  0  0
  189.5040  177.8280  146.5670 N   0  0  0  0  0  1  0  0  0  0  0  0
  188.0950  177.2460  141.6270 O   0  0  0  0  0  0  0  0  0  0  0  0
  190.6170  175.0020  136.9610 C   0  0  1  0  0  0  0  0  0  0  0  0
  191.2960  177.0750  138.3110 O   0  0  0  0  0  0  0  0  0  0  0  0
  188.8180  176.8400  139.1120 O   0  0  0  0  0  0  0  0  0  0  0  0
  188.9290  179.7060  136.6390 C   0  0  0  0  0  1  0  0  0  0  0  0
  191.7210  177.4050  141.8630 O   0  0  0  0  0  0  0  0  0  0  0  0
  192.3090  176.3010  135.6820 O   0  0  0  0  0  1  0  0  0  0  0  0
  188.5840  178.2830  137.0640 C   0  0  0  0  0  0  0  0  0  0  0  0
  190.9150  174.1370  135.9180 F   0  0  0  0  0  0  0  0  0  0  0  0
  190.4070  177.8390  142.0660 C   0  0  0  0  0  2  0  0  0  0  0  0
  189.7830  176.4050  140.0790 C   0  0  1  0  0  3  0  0  0  0  0  0
  192.8540  174.5830  137.9930 O   0  0  0  0  0  1  0  0  0  0  0  0
  189.3250  175.8040  136.5910 C   0  0  1  0  0  3  0  0  0  0  0  0
  190.2980  174.2160  138.0700 O   0  0  0  0  0  1  0  0  0  0  0  0
  188.8140  178.1220  138.5550 C   0  0  0  0  0  0  0  0  0  0  0  0
  193.5850  176.8500  137.6490 O   0  0  0  0  0  1  0  0  0  0  0  0
  191.2630  176.6050  139.6310 C   0  0  2  0  0  3  0  0  0  0  0  0
  192.1630  175.9860  137.3390 P   0  0  0  0  0  0  0  0  0  0  0  0
  189.4390  176.7850  141.5320 C   0  0  2  0  0  3  0  0  0  0  0  0
  189.4780  177.3060  136.2390 C   0  0  1  0  0  3  0  0  0  0  0  0
  189.0430  179.1220  139.2910 O   0  0  0  0  0  0  0  0  0  0  0  0
  189.3770  177.5270  134.8610 O   0  0  0  0  0  1  0  0  0  0  0  0
  191.9760  177.6380  140.5070 C   0  0  0  0  0  2  0  0  0  0  0  0
  187.1070  178.0680  136.7830 C   0  0  0  0  0  1  0  0  0  0  0  0
  187.8710  175.6940  134.6110 O   0  0  0  0  0  1  0  0  0  0  0  0
  188.3410  174.9850  135.7150 C   0  0  2  0  0  3  0  0  0  0  0  0
  187.1600  174.4480  136.5210 C   0  0  0  0  0  2  0  0  0  0  0  0
  184.8150  174.7570  135.8710 C   0  0  0  0  0  2  0  0  0  0  0  0
  186.0330  173.9610  135.6220 C   0  0  2  0  0  3  0  0  0  0  0  0
  184.9830  173.4740  136.4200 O   0  0  0  0  0  0  0  0  0  0  0  0
  183.9430  178.3690  144.0300 C   0  0  0  0  0  2  0  0  0  0  0  0
  183.4740  179.1800  142.8100 C   0  0  1  0  0  3  0  0  0  0  0  0
  184.0640  178.6670  141.5260 C   0  0  0  0  0  0  0  0  0  0  0  0
  183.7690  177.3770  141.1060 O   0  0  0  0  0  1  0  0  0  0  0  0
  184.7900  179.4070  140.8090 O   0  0  0  0  0  0  0  0  0  0  0  0
  181.9460  179.2980  142.7980 C   0  0  0  0  0  2  0  0  0  0  0  0
  181.2890  178.8750  141.4860 C   0  0  2  0  0  3  0  0  0  0  0  0
  179.7060  180.3210  140.3470 O   0  0  0  0  0  0  0  0  0  0  0  0
  181.6320  181.0450  138.2760 C   0  0  0  0  0  2  0  0  0  0  0  0
  179.4300  182.0410  137.2660 C   0  0  0  0  0  2  0  0  0  0  0  0
  181.7200  179.7770  139.1260 C   0  0  0  0  0  2  0  0  0  0  0  0
  181.0710  180.0230  140.4980 C   0  0  2  0  0  3  0  0  0  0  0  0
  180.2790  181.7190  138.4740 C   0  0  0  0  0  0  0  0  0  0  0  0
  180.2600  183.1280  137.9360 C   0  0  0  0  0  2  0  0  0  0  0  0
  179.6360  181.6360  139.8550 C   0  0  0  0  0  2  0  0  0  0  0  0
  180.0410  178.2610  141.7760 O   0  0  0  0  0  0  0  0  0  0  0  0
  179.6030  177.1340  141.0830 C   0  0  0  0  0  0  0  0  0  0  0  0
  179.4000  176.0630  141.7160 O   0  0  0  0  0  0  0  0  0  0  0  0
  179.3630  177.2000  139.7060 O   0  0  0  0  0  0  0  0  0  0  0  0
  179.7650  176.1700  138.8070 C   0  0  0  0  0  2  0  0  0  0  0  0
  181.2720  175.8970  138.8470 C   0  0  2  0  0  0  0  0  0  0  0  0
  181.8470  175.4650  140.0270 F   0  0  0  0  0  0  0  0  0  0  0  0
  183.5060  176.6660  138.1710 F   0  0  0  0  0  0  0  0  0  0  0  0
  182.1620  176.5490  137.8670 C   0  0  0  0  0  0  0  0  0  0  0  0
  181.7730  175.2000  137.7280 O   0  0  0  0  0  0  0  0  0  0  0  0
  181.6170  177.3450  136.8770 F   0  0  0  0  0  0  0  0  0  0  0  0
  1  8  1  0  0  0  0
  2  1  2  0  0  0  0
  3  2  1  0  0  0  0
  4  3  2  0  0  0  0
  4  5  1  0  0  0  0
  5 40  1  0  0  0  0
  5  6  2  0  0  0  0
  6  1  1  0  0  0  0
  8  9  1  0  0  0  0
  8  7  1  0  0  0  0
 10  3  1  0  0  0  0
 11 18  1  6  0  0  0
 11 27  1  0  0  0  0
 11 23  1  0  0  0  0
 12 26  1  0  0  0  0
 14 17  1  0  0  0  0
 15 19  1  0  0  0  0
 16 27  1  0  0  0  0
 17 24  1  0  0  0  0
 20 13  1  6  0  0  0
 20 28  1  0  0  0  0
 22 35  1  6  0  0  0
 22 11  1  0  0  0  0
 24 13  1  0  0  0  0
 24 30  2  0  0  0  0
 26 20  1  0  0  0  0
 26 32  1  1  0  0  0
 27 25  1  0  0  0  0
 27 21  1  0  0  0  0
 27 12  1  0  0  0  0
 28 10  1  6  0  0  0
 28 19  1  0  0  0  0
 29 31  1  6  0  0  0
 29 22  1  0  0  0  0
 29 17  1  0  0  0  0
 32 15  1  0  0  0  0
 33 17  1  0  0  0  0
 35 34  1  6  0  0  0
 35 36  1  0  0  0  0
 37 39  1  0  0  0  0
 38 37  1  0  0  0  0
 38 39  1  0  0  0  0
 38 36  1  1  0  0  0
 41 45  1  6  0  0  0
 41 40  1  0  0  0  0
 42 41  1  0  0  0  0
 43 42  1  0  0  0  0
 44 42  2  0  0  0  0
 46 55  1  0  0  0  0
 46 45  1  1  0  0  0
 47 51  1  0  0  0  0
 48 52  1  0  0  0  0
 48 50  1  0  0  0  0
 49 53  1  0  0  0  0
 49 52  1  0  0  0  0
 50 51  1  0  0  0  0
 51 46  1  1  0  0  0
 52 54  1  0  0  0  0
 53 52  1  0  0  0  0
 54 47  1  0  0  0  0
 56 57  2  0  0  0  0
 56 55  1  0  0  0  0
 58 56  1  0  0  0  0
 59 60  1  0  0  0  0
 59 58  1  0  0  0  0
 60 61  1  1  0  0  0
 63 62  1  0  0  0  0
 63 60  1  0  0  0  0
 64 63  1  0  0  0  0
 64 60  1  0  0  0  0
 65 63  1  0  0  0  0
M  END
>  <MODEL>
3

>  <REMARK>
 VINA RESULT:      -7.3      2.061      3.745
  Name = 
  17 active torsions:
  status: ('A' for Active; 'I' for Inactive)
    1  A    between atoms: C_3  and  C_21
    2  A    between atoms: C_6  and  C_18
    3  A    between atoms: C_6  and  C_49
    4  A    between atoms: C_9  and  C_42
    5  A    between atoms: C_9  and  O_54
    6  A    between atoms: C_9  and  C_61
    7  A    between atoms: C_10  and  N_43
    8  A    between atoms: C_12  and  C_52
    9  A    between atoms: C_18  and  C_23
   10  A    between atoms: C_18  and  C_61
   11  A    between atoms: C_20  and  O_44
   12  A    between atoms: C_21  and  O_35
   13  A    between atoms: C_34  and  C_60
   14  A    between atoms: O_35  and  C_39
   15  A    between atoms: C_39  and  O_54
   16  A    between atoms: O_44  and  C_48
   17  A    between atoms: C_52  and  C_60
                            x       y       z     vdW  Elec       q    Type
                         _______ _______ _______ _____ _____    ______ ____

>  <TORSDO>
F 17

$$$$
=
 OpenBabel11062417383D

 65 71  0  0  1  0  0  0  0  0999 V2000
  189.6870  176.7520  137.7990 C   0  0  0  0  0  0  0  0  0  0  0  0
  188.4180  176.5500  137.2420 C   0  0  0  0  0  3  0  0  0  0  0  0
  187.2880  177.0690  137.8850 C   0  0  0  0  0  0  0  0  0  0  0  0
  187.4460  177.7810  139.0720 C   0  0  0  0  0  3  0  0  0  0  0  0
  188.7280  177.9960  139.5890 C   0  0  0  0  0  0  0  0  0  0  0  0
  189.8070  177.4630  138.9560 N   0  0  0  0  0  0  0  0  0  0  0  0
  190.9040  176.0860  135.8250 O   0  0  0  0  0  1  0  0  0  0  0  0
  190.8500  176.2050  137.1720 N   0  0  0  0  0  0  0  0  0  0  0  0
  191.8880  175.6680  137.9470 N   0  0  0  0  0  1  0  0  0  0  0  0
  185.9990  176.9000  137.3670 O   0  0  0  0  0  0  0  0  0  0  0  0
  180.6910  175.0900  138.6770 C   0  0  1  0  0  0  0  0  0  0  0  0
  181.7840  175.3180  136.3670 O   0  0  0  0  0  0  0  0  0  0  0  0
  183.3790  176.8650  137.7450 O   0  0  0  0  0  0  0  0  0  0  0  0
  181.0980  179.1190  135.7290 C   0  0  0  0  0  1  0  0  0  0  0  0
  184.9830  174.1100  135.2650 O   0  0  0  0  0  0  0  0  0  0  0  0
  178.9470  174.8880  136.9160 O   0  0  0  0  0  1  0  0  0  0  0  0
  181.5760  178.4640  137.0210 C   0  0  0  0  0  0  0  0  0  0  0  0
  179.5850  174.6890  139.4120 F   0  0  0  0  0  0  0  0  0  0  0  0
  185.6370  175.3090  135.5700 C   0  0  0  0  0  2  0  0  0  0  0  0
  183.9440  175.5860  137.4280 C   0  0  1  0  0  3  0  0  0  0  0  0
  180.8820  172.8160  137.6580 O   0  0  0  0  0  1  0  0  0  0  0  0
  180.8080  176.6480  138.7620 C   0  0  1  0  0  3  0  0  0  0  0  0
  181.8200  174.5660  139.3110 O   0  0  0  0  0  1  0  0  0  0  0  0
  182.8930  177.7510  136.7790 C   0  0  0  0  0  0  0  0  0  0  0  0
  180.3720  173.6180  135.4470 O   0  0  0  0  0  1  0  0  0  0  0  0
  183.0220  174.6860  136.5510 C   0  0  2  0  0  3  0  0  0  0  0  0
  180.5440  174.3290  136.9740 P   0  0  0  0  0  0  0  0  0  0  0  0
  185.4360  175.6300  137.0500 C   0  0  2  0  0  3  0  0  0  0  0  0
  180.4680  177.4730  137.4950 C   0  0  1  0  0  3  0  0  0  0  0  0
  183.5340  177.9110  135.7020 O   0  0  0  0  0  0  0  0  0  0  0  0
  179.2140  178.0870  137.5990 O   0  0  0  0  0  1  0  0  0  0  0  0
  183.6290  174.4490  135.1650 C   0  0  0  0  0  2  0  0  0  0  0  0
  181.8120  179.5710  138.0320 C   0  0  0  0  0  1  0  0  0  0  0  0
  178.9310  177.0330  140.3030 O   0  0  0  0  0  1  0  0  0  0  0  0
  180.3000  177.2150  140.1140 C   0  0  2  0  0  3  0  0  0  0  0  0
  180.6520  178.6900  140.2910 C   0  0  0  0  0  2  0  0  0  0  0  0
  179.8650  180.4580  141.7990 C   0  0  0  0  0  2  0  0  0  0  0  0
  179.4530  179.5100  140.7450 C   0  0  2  0  0  3  0  0  0  0  0  0
  179.2060  179.2550  142.1060 O   0  0  0  0  0  0  0  0  0  0  0  0
  188.9270  178.7980  140.8460 C   0  0  0  0  0  2  0  0  0  0  0  0
  189.3010  177.9570  142.0780 C   0  0  1  0  0  3  0  0  0  0  0  0
  190.4480  177.0250  141.8020 C   0  0  0  0  0  0  0  0  0  0  0  0
  190.2250  175.6540  141.7850 O   0  0  0  0  0  1  0  0  0  0  0  0
  191.5990  177.4740  141.5490 O   0  0  0  0  0  0  0  0  0  0  0  0
  189.5010  178.8560  143.3020 C   0  0  0  0  0  2  0  0  0  0  0  0
  188.8250  178.3510  144.5750 C   0  0  2  0  0  3  0  0  0  0  0  0
  189.5650  177.6650  146.7830 O   0  0  0  0  0  0  0  0  0  0  0  0
  191.9180  176.2940  145.7300 C   0  0  0  0  0  2  0  0  0  0  0  0
  192.4400  176.2600  148.2960 C   0  0  0  0  0  2  0  0  0  0  0  0
  191.1710  177.4080  144.9950 C   0  0  0  0  0  2  0  0  0  0  0  0
  189.6910  177.4030  145.4080 C   0  0  2  0  0  3  0  0  0  0  0  0
  191.4330  176.1970  147.1710 C   0  0  0  0  0  0  0  0  0  0  0  0
  191.8790  174.9200  147.8380 C   0  0  0  0  0  2  0  0  0  0  0  0
  189.9630  176.4930  147.4510 C   0  0  0  0  0  2  0  0  0  0  0  0
  187.6140  177.6980  144.2240 O   0  0  0  0  0  0  0  0  0  0  0  0
  186.4470  177.8740  144.9650 C   0  0  0  0  0  0  0  0  0  0  0  0
  186.1480  177.0300  145.8520 O   0  0  0  0  0  0  0  0  0  0  0  0
  185.6340  178.9920  144.7470 O   0  0  0  0  0  0  0  0  0  0  0  0
  184.5910  179.0040  143.7750 C   0  0  0  0  0  2  0  0  0  0  0  0
  185.1130  179.1170  142.3390 C   0  0  2  0  0  0  0  0  0  0  0  0
  185.9610  180.1580  142.0120 F   0  0  0  0  0  0  0  0  0  0  0  0
  184.5680  178.9570  139.9480 F   0  0  0  0  0  0  0  0  0  0  0  0
  184.3620  178.4910  141.2340 C   0  0  0  0  0  0  0  0  0  0  0  0
  185.5260  177.8960  141.7660 O   0  0  0  0  0  0  0  0  0  0  0  0
  183.2310  177.7470  141.5150 F   0  0  0  0  0  0  0  0  0  0  0  0
  1  6  1  0  0  0  0
  2  1  2  0  0  0  0
  2  3  1  0  0  0  0
  3  4  2  0  0  0  0
  4  5  1  0  0  0  0
  5 40  1  0  0  0  0
  6  5  2  0  0  0  0
  7  8  1  0  0  0  0
  8  1  1  0  0  0  0
  8  9  1  0  0  0  0
 10  3  1  0  0  0  0
 11 22  1  0  0  0  0
 11 23  1  1  0  0  0
 11 18  1  0  0  0  0
 12 26  1  0  0  0  0
 12 27  1  0  0  0  0
 14 17  1  0  0  0  0
 15 19  1  0  0  0  0
 16 27  1  0  0  0  0
 17 29  1  0  0  0  0
 17 33  1  0  0  0  0
 19 28  1  0  0  0  0
 20 13  1  6  0  0  0
 22 35  1  1  0  0  0
 24 17  1  0  0  0  0
 24 13  1  0  0  0  0
 25 27  1  0  0  0  0
 26 32  1  6  0  0  0
 26 20  1  0  0  0  0
 27 21  1  0  0  0  0
 27 11  1  0  0  0  0
 28 10  1  6  0  0  0
 28 20  1  0  0  0  0
 29 31  1  1  0  0  0
 29 22  1  0  0  0  0
 30 24  2  0  0  0  0
 32 15  1  0  0  0  0
 35 36  1  0  0  0  0
 35 34  1  6  0  0  0
 37 39  1  0  0  0  0
 38 36  1  1  0  0  0
 38 37  1  0  0  0  0
 38 39  1  0  0  0  0
 41 40  1  6  0  0  0
 41 45  1  0  0  0  0
 42 41  1  0  0  0  0
 43 42  1  0  0  0  0
 44 42  2  0  0  0  0
 46 45  1  6  0  0  0
 47 54  1  0  0  0  0
 48 52  1  0  0  0  0
 50 51  1  0  0  0  0
 50 48  1  0  0  0  0
 51 46  1  6  0  0  0
 51 47  1  0  0  0  0
 52 54  1  0  0  0  0
 52 53  1  0  0  0  0
 52 49  1  0  0  0  0
 53 49  1  0  0  0  0
 55 46  1  0  0  0  0
 55 56  1  0  0  0  0
 56 57  2  0  0  0  0
 58 56  1  0  0  0  0
 59 58  1  0  0  0  0
 60 61  1  6  0  0  0
 60 59  1  0  0  0  0
 62 63  1  0  0  0  0
 63 65  1  0  0  0  0
 63 64  1  0  0  0  0
 63 60  1  0  0  0  0
 64 60  1  0  0  0  0
M  END
>  <MODEL>
4

>  <REMARK>
 VINA RESULT:      -7.1      4.070      9.370
  Name = 
  17 active torsions:
  status: ('A' for Active; 'I' for Inactive)
    1  A    between atoms: C_3  and  C_21
    2  A    between atoms: C_6  and  C_18
    3  A    between atoms: C_6  and  C_49
    4  A    between atoms: C_9  and  C_42
    5  A    between atoms: C_9  and  O_54
    6  A    between atoms: C_9  and  C_61
    7  A    between atoms: C_10  and  N_43
    8  A    between atoms: C_12  and  C_52
    9  A    between atoms: C_18  and  C_23
   10  A    between atoms: C_18  and  C_61
   11  A    between atoms: C_20  and  O_44
   12  A    between atoms: C_21  and  O_35
   13  A    between atoms: C_34  and  C_60
   14  A    between atoms: O_35  and  C_39
   15  A    between atoms: C_39  and  O_54
   16  A    between atoms: O_44  and  C_48
   17  A    between atoms: C_52  and  C_60
                            x       y       z     vdW  Elec       q    Type
                         _______ _______ _______ _____ _____    ______ ____

>  <TORSDO>
F 17

$$$$
=
 OpenBabel11062417383D

 65 71  0  0  1  0  0  0  0  0999 V2000
  185.3490  178.2550  144.0650 C   0  0  0  0  0  0  0  0  0  0  0  0
  184.0870  178.2410  143.4560 C   0  0  0  0  0  3  0  0  0  0  0  0
  183.9820  178.4380  142.0740 C   0  0  0  0  0  0  0  0  0  0  0  0
  185.1380  178.6430  141.3250 C   0  0  0  0  0  3  0  0  0  0  0  0
  186.3890  178.6180  141.9540 C   0  0  0  0  0  0  0  0  0  0  0  0
  186.4610  178.4460  143.3000 N   0  0  0  0  0  0  0  0  0  0  0  0
  184.9980  179.0310  146.3220 O   0  0  0  0  0  1  0  0  0  0  0  0
  185.4740  178.0850  145.4790 N   0  0  0  0  0  0  0  0  0  0  0  0
  186.2010  177.0070  146.0030 N   0  0  0  0  0  1  0  0  0  0  0  0
  182.7470  178.4280  141.4170 O   0  0  0  0  0  0  0  0  0  0  0  0
  182.0930  176.6410  135.9820 C   0  0  1  0  0  0  0  0  0  0  0  0
  180.4150  177.8790  137.4760 O   0  0  0  0  0  0  0  0  0  0  0  0
  182.0390  176.9790  139.3170 O   0  0  0  0  0  0  0  0  0  0  0  0
  178.9300  174.8170  139.4110 C   0  0  0  0  0  1  0  0  0  0  0  0
  180.9110  180.8560  139.4260 O   0  0  0  0  0  0  0  0  0  0  0  0
  179.8400  176.5630  134.9320 O   0  0  0  0  0  1  0  0  0  0  0  0
  180.3950  175.0890  139.0830 C   0  0  0  0  0  0  0  0  0  0  0  0
  182.3770  176.1150  134.7300 F   0  0  0  0  0  0  0  0  0  0  0  0
  181.2480  180.1460  140.5820 C   0  0  0  0  0  2  0  0  0  0  0  0
  182.1940  178.3770  139.0410 C   0  0  1  0  0  3  0  0  0  0  0  0
  181.6320  178.8820  134.9750 O   0  0  0  0  0  1  0  0  0  0  0  0
  181.9570  175.4600  136.9990 C   0  0  1  0  0  3  0  0  0  0  0  0
  183.2050  177.3880  136.3780 O   0  0  0  0  0  1  0  0  0  0  0  0
  180.8260  176.4030  139.7050 C   0  0  0  0  0  0  0  0  0  0  0  0
  179.3030  178.8210  135.5770 O   0  0  0  0  0  1  0  0  0  0  0  0
  181.1840  178.9320  137.9920 C   0  0  2  0  0  3  0  0  0  0  0  0
  180.6270  177.7890  135.7940 P   0  0  0  0  0  0  0  0  0  0  0  0
  182.4470  179.2450  140.2890 C   0  0  2  0  0  3  0  0  0  0  0  0
  180.5420  175.1170  137.5300 C   0  0  1  0  0  3  0  0  0  0  0  0
  180.0880  177.0050  140.5350 O   0  0  0  0  0  0  0  0  0  0  0  0
  180.0290  173.9630  136.9260 O   0  0  0  0  0  1  0  0  0  0  0  0
  180.2200  179.9400  138.6240 C   0  0  0  0  0  2  0  0  0  0  0  0
  181.2160  173.9740  139.7060 C   0  0  0  0  0  1  0  0  0  0  0  0
  182.2800  173.0240  136.9040 O   0  0  0  0  0  1  0  0  0  0  0  0
  182.8760  174.2590  136.6510 C   0  0  2  0  0  3  0  0  0  0  0  0
  184.2230  174.3360  137.3640 C   0  0  0  0  0  2  0  0  0  0  0  0
  186.1660  173.1620  136.4330 C   0  0  0  0  0  2  0  0  0  0  0  0
  185.3830  174.4120  136.3820 C   0  0  2  0  0  3  0  0  0  0  0  0
  186.5950  174.3280  137.0890 O   0  0  0  0  0  0  0  0  0  0  0  0
  187.6530  178.7940  141.1590 C   0  0  0  0  0  2  0  0  0  0  0  0
  187.8400  177.7610  140.0360 C   0  0  1  0  0  3  0  0  0  0  0  0
  187.8940  178.4040  138.6770 C   0  0  0  0  0  0  0  0  0  0  0  0
  188.6000  179.5880  138.5090 O   0  0  0  0  0  1  0  0  0  0  0  0
  187.3400  177.8600  137.6840 O   0  0  0  0  0  0  0  0  0  0  0  0
  189.0250  176.8400  140.3430 C   0  0  0  0  0  2  0  0  0  0  0  0
  190.3900  177.4210  139.9810 C   0  0  2  0  0  3  0  0  0  0  0  0
  192.2420  177.2150  138.4250 O   0  0  0  0  0  0  0  0  0  0  0  0
  191.3520  174.5980  137.4830 C   0  0  0  0  0  2  0  0  0  0  0  0
  193.2180  175.1420  135.7270 C   0  0  0  0  0  2  0  0  0  0  0  0
  190.4390  175.6280  138.1500 C   0  0  0  0  0  2  0  0  0  0  0  0
  191.2550  176.4960  139.1220 C   0  0  2  0  0  3  0  0  0  0  0  0
  192.6970  175.2290  137.1430 C   0  0  0  0  0  0  0  0  0  0  0  0
  193.7410  174.1960  136.8000 C   0  0  0  0  0  2  0  0  0  0  0  0
  193.2480  176.2910  138.0910 C   0  0  0  0  0  2  0  0  0  0  0  0
  191.0860  177.7370  141.1790 O   0  0  0  0  0  0  0  0  0  0  0  0
  191.3380  176.7740  142.1540 C   0  0  0  0  0  0  0  0  0  0  0  0
  190.9310  175.5950  141.9730 O   0  0  0  0  0  0  0  0  0  0  0  0
  192.0620  177.1060  143.3050 O   0  0  0  0  0  0  0  0  0  0  0  0
  191.5020  177.8770  144.3660 C   0  0  0  0  0  2  0  0  0  0  0  0
  190.4450  177.1110  145.1680 C   0  0  2  0  0  0  0  0  0  0  0  0
  189.1110  177.2770  144.8520 F   0  0  0  0  0  0  0  0  0  0  0  0
  189.7130  176.3650  147.3920 F   0  0  0  0  0  0  0  0  0  0  0  0
  190.7590  176.6380  146.5300 C   0  0  0  0  0  0  0  0  0  0  0  0
  190.7660  175.7620  145.4240 O   0  0  0  0  0  0  0  0  0  0  0  0
  192.0290  176.8290  147.0410 F   0  0  0  0  0  0  0  0  0  0  0  0
  1  8  1  0  0  0  0
  2  1  1  0  0  0  0
  3  2  2  0  0  0  0
  4  5  2  0  0  0  0
  4  3  1  0  0  0  0
  5  6  1  0  0  0  0
  6  1  2  0  0  0  0
  8  9  1  0  0  0  0
  8  7  1  0  0  0  0
 10  3  1  0  0  0  0
 11 18  1  6  0  0  0
 11 23  1  0  0  0  0
 11 22  1  0  0  0  0
 12 26  1  0  0  0  0
 13 24  1  0  0  0  0
 15 19  1  0  0  0  0
 16 27  1  0  0  0  0
 17 14  1  0  0  0  0
 17 24  1  0  0  0  0
 17 33  1  0  0  0  0
 20 13  1  1  0  0  0
 20 28  1  0  0  0  0
 21 27  1  0  0  0  0
 22 35  1  6  0  0  0
 22 29  1  0  0  0  0
 24 30  2  0  0  0  0
 25 27  1  0  0  0  0
 26 32  1  1  0  0  0
 26 20  1  0  0  0  0
 27 11  1  0  0  0  0
 27 12  1  0  0  0  0
 28 19  1  0  0  0  0
 28 10  1  1  0  0  0
 29 31  1  1  0  0  0
 29 17  1  0  0  0  0
 32 15  1  0  0  0  0
 35 34  1  1  0  0  0
 35 36  1  0  0  0  0
 37 39  1  0  0  0  0
 38 37  1  0  0  0  0
 38 39  1  0  0  0  0
 38 36  1  1  0  0  0
 40  5  1  0  0  0  0
 41 45  1  1  0  0  0
 41 40  1  0  0  0  0
 42 41  1  0  0  0  0
 43 42  1  0  0  0  0
 44 42  2  0  0  0  0
 46 45  1  1  0  0  0
 46 55  1  0  0  0  0
 47 51  1  0  0  0  0
 48 50  1  0  0  0  0
 49 53  1  0  0  0  0
 49 52  1  0  0  0  0
 50 51  1  0  0  0  0
 51 46  1  6  0  0  0
 52 48  1  0  0  0  0
 52 54  1  0  0  0  0
 53 52  1  0  0  0  0
 54 47  1  0  0  0  0
 55 56  1  0  0  0  0
 56 58  1  0  0  0  0
 57 56  2  0  0  0  0
 58 59  1  0  0  0  0
 59 60  1  0  0  0  0
 60 61  1  6  0  0  0
 60 64  1  0  0  0  0
 60 63  1  0  0  0  0
 63 65  1  0  0  0  0
 63 62  1  0  0  0  0
 64 63  1  0  0  0  0
M  END
>  <MODEL>
5

>  <REMARK>
 VINA RESULT:      -6.3      3.595      9.538
  Name = 
  17 active torsions:
  status: ('A' for Active; 'I' for Inactive)
    1  A    between atoms: C_3  and  C_21
    2  A    between atoms: C_6  and  C_18
    3  A    between atoms: C_6  and  C_49
    4  A    between atoms: C_9  and  C_42
    5  A    between atoms: C_9  and  O_54
    6  A    between atoms: C_9  and  C_61
    7  A    between atoms: C_10  and  N_43
    8  A    between atoms: C_12  and  C_52
    9  A    between atoms: C_18  and  C_23
   10  A    between atoms: C_18  and  C_61
   11  A    between atoms: C_20  and  O_44
   12  A    between atoms: C_21  and  O_35
   13  A    between atoms: C_34  and  C_60
   14  A    between atoms: O_35  and  C_39
   15  A    between atoms: C_39  and  O_54
   16  A    between atoms: O_44  and  C_48
   17  A    between atoms: C_52  and  C_60
                            x       y       z     vdW  Elec       q    Type
                         _______ _______ _______ _____ _____    ______ ____

>  <TORSDO>
F 17

$$$$
=
 OpenBabel11062417383D

 65 71  0  0  1  0  0  0  0  0999 V2000
  185.1020  178.6030  145.4220 C   0  0  0  0  0  0  0  0  0  0  0  0
  183.8040  178.7570  144.9190 C   0  0  0  0  0  3  0  0  0  0  0  0
  183.5200  178.3720  143.6030 C   0  0  0  0  0  0  0  0  0  0  0  0
  184.5380  177.8380  142.8150 C   0  0  0  0  0  3  0  0  0  0  0  0
  185.8170  177.6640  143.3530 C   0  0  0  0  0  0  0  0  0  0  0  0
  186.0710  178.0660  144.6270 N   0  0  0  0  0  0  0  0  0  0  0  0
  184.9950  178.2860  147.8120 O   0  0  0  0  0  1  0  0  0  0  0  0
  185.4180  179.0170  146.7540 N   0  0  0  0  0  0  0  0  0  0  0  0
  186.0530  180.2460  146.9830 N   0  0  0  0  0  1  0  0  0  0  0  0
  182.2400  178.5000  143.0540 O   0  0  0  0  0  0  0  0  0  0  0  0
  182.0780  178.7060  137.3010 C   0  0  1  0  0  0  0  0  0  0  0  0
  180.1610  179.0400  138.9730 O   0  0  0  0  0  0  0  0  0  0  0  0
  181.8680  177.8100  140.5250 O   0  0  0  0  0  0  0  0  0  0  0  0
  179.2010  175.2930  139.5740 C   0  0  0  0  0  1  0  0  0  0  0  0
  180.0520  181.1560  141.8750 O   0  0  0  0  0  0  0  0  0  0  0  0
  179.9080  178.6540  136.0880 O   0  0  0  0  0  1  0  0  0  0  0  0
  180.6010  175.8940  139.4970 C   0  0  0  0  0  0  0  0  0  0  0  0
  182.4890  178.7180  135.9760 F   0  0  0  0  0  0  0  0  0  0  0  0
  180.4800  180.1410  142.7370 C   0  0  0  0  0  2  0  0  0  0  0  0
  181.7740  179.2190  140.7700 C   0  0  1  0  0  3  0  0  0  0  0  0
  181.2470  181.0550  137.1020 O   0  0  0  0  0  1  0  0  0  0  0  0
  182.1290  177.2330  137.8260 C   0  0  1  0  0  3  0  0  0  0  0  0
  183.0240  179.4270  138.0330 O   0  0  0  0  0  1  0  0  0  0  0  0
  180.7690  176.9470  140.5750 C   0  0  0  0  0  0  0  0  0  0  0  0
  178.9520  180.4120  137.4280 O   0  0  0  0  0  1  0  0  0  0  0  0
  180.7110  179.9450  139.8920 C   0  0  2  0  0  3  0  0  0  0  0  0
  180.4340  179.5960  137.3920 P   0  0  0  0  0  0  0  0  0  0  0  0
  181.8300  179.6080  142.2590 C   0  0  2  0  0  3  0  0  0  0  0  0
  180.7850  176.5020  138.0710 C   0  0  1  0  0  3  0  0  0  0  0  0
  179.9100  177.0850  141.4910 O   0  0  0  0  0  0  0  0  0  0  0  0
  180.5070  175.5760  137.0590 O   0  0  0  0  0  1  0  0  0  0  0  0
  179.5630  180.4920  140.7450 C   0  0  0  0  0  2  0  0  0  0  0  0
  181.5920  174.7760  139.7640 C   0  0  0  0  0  1  0  0  0  0  0  0
  183.0570  176.1860  135.8030 O   0  0  0  0  0  1  0  0  0  0  0  0
  183.2600  176.4000  137.1660 C   0  0  2  0  0  3  0  0  0  0  0  0
  183.4790  175.0630  137.8700 C   0  0  0  0  0  2  0  0  0  0  0  0
  182.9890  172.8120  137.0260 C   0  0  0  0  0  2  0  0  0  0  0  0
  183.8960  173.9700  136.8960 C   0  0  2  0  0  3  0  0  0  0  0  0
  184.2630  172.8220  137.6200 O   0  0  0  0  0  0  0  0  0  0  0  0
  186.9200  177.0510  142.5360 C   0  0  0  0  0  2  0  0  0  0  0  0
  187.5170  177.9910  141.4760 C   0  0  1  0  0  3  0  0  0  0  0  0
  186.5430  179.0530  141.0460 C   0  0  0  0  0  0  0  0  0  0  0  0
  185.7540  178.8420  139.9230 O   0  0  0  0  0  0  0  0  0  0  0  0
  186.4080  180.1130  141.7150 O   0  0  0  0  0  1  0  0  0  0  0  0
  188.8740  178.5310  141.9380 C   0  0  0  0  0  2  0  0  0  0  0  0
  189.9380  177.4590  142.1680 C   0  0  2  0  0  3  0  0  0  0  0  0
  190.8910  176.0420  143.8930 O   0  0  0  0  0  0  0  0  0  0  0  0
  189.8750  177.7290  146.0480 C   0  0  0  0  0  2  0  0  0  0  0  0
  190.6920  175.6420  147.4040 C   0  0  0  0  0  2  0  0  0  0  0  0
  189.2880  177.6910  144.6360 C   0  0  0  0  0  2  0  0  0  0  0  0
  190.3860  177.3260  143.6250 C   0  0  2  0  0  3  0  0  0  0  0  0
  190.8660  176.5870  146.2360 C   0  0  0  0  0  0  0  0  0  0  0  0
  191.7160  176.7680  147.4690 C   0  0  0  0  0  2  0  0  0  0  0  0
  191.7030  176.1620  145.0340 C   0  0  0  0  0  2  0  0  0  0  0  0
  191.0650  177.7500  141.3530 O   0  0  0  0  0  0  0  0  0  0  0  0
  191.2340  177.1590  140.1020 C   0  0  0  0  0  0  0  0  0  0  0  0
  192.2680  177.4230  139.4330 O   0  0  0  0  0  0  0  0  0  0  0  0
  190.2800  176.2590  139.6110 O   0  0  0  0  0  0  0  0  0  0  0  0
  190.2060  175.8980  138.2340 C   0  0  0  0  0  2  0  0  0  0  0  0
  188.9430  176.4250  137.5460 C   0  0  2  0  0  0  0  0  0  0  0  0
  188.1740  175.5570  136.7950 F   0  0  0  0  0  0  0  0  0  0  0  0
  187.9310  178.2590  136.2600 F   0  0  0  0  0  0  0  0  0  0  0  0
  188.8180  177.8650  137.2450 C   0  0  0  0  0  0  0  0  0  0  0  0
  188.1520  177.2790  138.3430 O   0  0  0  0  0  0  0  0  0  0  0  0
  189.8130  178.7330  137.6520 F   0  0  0  0  0  0  0  0  0  0  0  0
  1  8  1  0  0  0  0
  2  1  1  0  0  0  0
  3  2  2  0  0  0  0
  4  5  2  0  0  0  0
  4  3  1  0  0  0  0
  5  6  1  0  0  0  0
  6  1  2  0  0  0  0
  8  9  1  0  0  0  0
  8  7  1  0  0  0  0
 10  3  1  0  0  0  0
 11 18  1  6  0  0  0
 11 27  1  0  0  0  0
 11 22  1  0  0  0  0
 11 23  1  0  0  0  0
 12 26  1  0  0  0  0
 13 24  1  0  0  0  0
 15 19  1  0  0  0  0
 16 27  1  0  0  0  0
 17 14  1  0  0  0  0
 17 33  1  0  0  0  0
 17 24  1  0  0  0  0
 20 13  1  1  0  0  0
 20 28  1  0  0  0  0
 21 27  1  0  0  0  0
 22 35  1  6  0  0  0
 22 29  1  0  0  0  0
 24 30  2  0  0  0  0
 26 32  1  1  0  0  0
 26 20  1  0  0  0  0
 27 25  1  0  0  0  0
 27 12  1  0  0  0  0
 28 19  1  0  0  0  0
 28 10  1  1  0  0  0
 29 31  1  6  0  0  0
 29 17  1  0  0  0  0
 32 15  1  0  0  0  0
 35 34  1  6  0  0  0
 35 36  1  0  0  0  0
 37 39  1  0  0  0  0
 38 37  1  0  0  0  0
 38 39  1  0  0  0  0
 38 36  1  1  0  0  0
 40  5  1  0  0  0  0
 41 45  1  1  0  0  0
 41 40  1  0  0  0  0
 42 41  1  0  0  0  0
 42 44  1  0  0  0  0
 43 42  2  0  0  0  0
 46 45  1  1  0  0  0
 47 54  1  0  0  0  0
 48 52  1  0  0  0  0
 49 53  1  0  0  0  0
 50 48  1  0  0  0  0
 51 46  1  6  0  0  0
 51 47  1  0  0  0  0
 51 50  1  0  0  0  0
 52 49  1  0  0  0  0
 52 53  1  0  0  0  0
 54 52  1  0  0  0  0
 55 46  1  0  0  0  0
 56 55  1  0  0  0  0
 57 56  2  0  0  0  0
 58 56  1  0  0  0  0
 59 58  1  0  0  0  0
 60 61  1  6  0  0  0
 60 59  1  0  0  0  0
 60 64  1  0  0  0  0
 62 63  1  0  0  0  0
 63 60  1  0  0  0  0
 63 65  1  0  0  0  0
 63 64  1  0  0  0  0
M  END
>  <MODEL>
6

>  <REMARK>
 VINA RESULT:      -6.1      2.976      9.003
  Name = 
  17 active torsions:
  status: ('A' for Active; 'I' for Inactive)
    1  A    between atoms: C_3  and  C_21
    2  A    between atoms: C_6  and  C_18
    3  A    between atoms: C_6  and  C_49
    4  A    between atoms: C_9  and  C_42
    5  A    between atoms: C_9  and  O_54
    6  A    between atoms: C_9  and  C_61
    7  A    between atoms: C_10  and  N_43
    8  A    between atoms: C_12  and  C_52
    9  A    between atoms: C_18  and  C_23
   10  A    between atoms: C_18  and  C_61
   11  A    between atoms: C_20  and  O_44
   12  A    between atoms: C_21  and  O_35
   13  A    between atoms: C_34  and  C_60
   14  A    between atoms: O_35  and  C_39
   15  A    between atoms: C_39  and  O_54
   16  A    between atoms: O_44  and  C_48
   17  A    between atoms: C_52  and  C_60
                            x       y       z     vdW  Elec       q    Type
                         _______ _______ _______ _____ _____    ______ ____

>  <TORSDO>
F 17

$$$$
=
 OpenBabel11062417383D

 65 71  0  0  1  0  0  0  0  0999 V2000
  184.2760  178.6450  143.6830 C   0  0  0  0  0  0  0  0  0  0  0  0
  184.3270  179.0370  142.3390 C   0  0  0  0  0  3  0  0  0  0  0  0
  185.4130  178.6500  141.5440 C   0  0  0  0  0  0  0  0  0  0  0  0
  186.4260  177.8760  142.1060 C   0  0  0  0  0  3  0  0  0  0  0  0
  186.3330  177.4700  143.4420 C   0  0  0  0  0  0  0  0  0  0  0  0
  185.2790  177.8780  144.1960 N   0  0  0  0  0  0  0  0  0  0  0  0
  183.3820  179.2330  145.8450 O   0  0  0  0  0  1  0  0  0  0  0  0
  183.1900  179.0550  144.5170 N   0  0  0  0  0  0  0  0  0  0  0  0
  181.8920  179.1520  143.9960 N   0  0  0  0  0  1  0  0  0  0  0  0
  185.5090  179.0110  140.1960 O   0  0  0  0  0  0  0  0  0  0  0  0
  181.0940  176.1560  137.8450 C   0  0  1  0  0  0  0  0  0  0  0  0
  182.7600  177.7470  136.7160 O   0  0  0  0  0  0  0  0  0  0  0  0
  183.1160  178.4580  139.2060 O   0  0  0  0  0  0  0  0  0  0  0  0
  181.0310  181.1560  137.5560 C   0  0  0  0  0  1  0  0  0  0  0  0
  186.3490  177.7400  136.8930 O   0  0  0  0  0  0  0  0  0  0  0  0
  180.2610  176.7480  135.5780 O   0  0  0  0  0  1  0  0  0  0  0  0
  181.2320  179.9620  138.4830 C   0  0  0  0  0  0  0  0  0  0  0  0
  180.0230  175.2870  137.6970 F   0  0  0  0  0  0  0  0  0  0  0  0
  186.3830  178.6410  137.9620 C   0  0  0  0  0  2  0  0  0  0  0  0
  184.1720  177.6440  138.6800 C   0  0  1  0  0  3  0  0  0  0  0  0
  182.4230  174.8600  136.1710 O   0  0  0  0  0  1  0  0  0  0  0  0
  180.6110  177.4110  138.6450 C   0  0  1  0  0  3  0  0  0  0  0  0
  182.0420  175.5100  138.6430 O   0  0  0  0  0  1  0  0  0  0  0  0
  182.7130  179.6630  138.6230 C   0  0  0  0  0  0  0  0  0  0  0  0
  182.4590  176.6770  134.5950 O   0  0  0  0  0  1  0  0  0  0  0  0
  183.9960  177.2720  137.1760 C   0  0  2  0  0  3  0  0  0  0  0  0
  181.8260  176.4470  136.1480 P   0  0  0  0  0  0  0  0  0  0  0  0
  185.5830  178.0680  139.1310 C   0  0  2  0  0  3  0  0  0  0  0  0
  180.4600  178.7490  137.8780 C   0  0  1  0  0  3  0  0  0  0  0  0
  183.5840  180.4650  138.1830 O   0  0  0  0  0  0  0  0  0  0  0  0
  179.1170  179.0480  137.6200 O   0  0  0  0  0  1  0  0  0  0  0  0
  185.0870  177.9110  136.3120 C   0  0  0  0  0  2  0  0  0  0  0  0
  180.6920  180.3490  139.8490 C   0  0  0  0  0  1  0  0  0  0  0  0
  179.1160  178.1730  140.4430 O   0  0  0  0  0  1  0  0  0  0  0  0
  179.5010  177.0740  139.6760 C   0  0  2  0  0  3  0  0  0  0  0  0
  179.8950  175.9190  140.5930 C   0  0  0  0  0  2  0  0  0  0  0  0
  179.0200  173.9030  141.6830 C   0  0  0  0  0  2  0  0  0  0  0  0
  178.9340  174.7450  140.4730 C   0  0  2  0  0  3  0  0  0  0  0  0
  179.6660  173.5450  140.4870 O   0  0  0  0  0  0  0  0  0  0  0  0
  187.3930  176.5990  144.0570 C   0  0  0  0  0  2  0  0  0  0  0  0
  188.4410  177.3670  144.8790 C   0  0  1  0  0  3  0  0  0  0  0  0
  187.8860  177.8620  146.1860 C   0  0  0  0  0  0  0  0  0  0  0  0
  186.6240  177.4500  146.5920 O   0  0  0  0  0  0  0  0  0  0  0  0
  188.5690  178.6140  146.9340 O   0  0  0  0  0  1  0  0  0  0  0  0
  189.7280  176.5460  145.0130 C   0  0  0  0  0  2  0  0  0  0  0  0
  190.9150  177.0970  144.2260 C   0  0  2  0  0  3  0  0  0  0  0  0
  190.0520  176.0360  142.2210 O   0  0  0  0  0  0  0  0  0  0  0  0
  191.5910  177.7820  140.4570 C   0  0  0  0  0  2  0  0  0  0  0  0
  190.7180  176.0030  138.7440 C   0  0  0  0  0  2  0  0  0  0  0  0
  191.9510  177.5010  141.9170 C   0  0  0  0  0  2  0  0  0  0  0  0
  190.6760  177.1940  142.7180 C   0  0  2  0  0  3  0  0  0  0  0  0
  190.4980  176.8280  139.9920 C   0  0  0  0  0  0  0  0  0  0  0  0
  189.8720  177.2690  138.6920 C   0  0  0  0  0  2  0  0  0  0  0  0
  189.4420  176.4020  141.0070 C   0  0  0  0  0  2  0  0  0  0  0  0
  192.0480  176.2750  144.4710 O   0  0  0  0  0  0  0  0  0  0  0  0
  192.2480  175.6530  145.7020 C   0  0  0  0  0  0  0  0  0  0  0  0
  192.0640  174.4110  145.8010 O   0  0  0  0  0  0  0  0  0  0  0  0
  192.6790  176.3970  146.8070 O   0  0  0  0  0  0  0  0  0  0  0  0
  192.0610  176.2940  148.0880 C   0  0  0  0  0  2  0  0  0  0  0  0
  193.0600  176.0020  149.2110 C   0  0  2  0  0  0  0  0  0  0  0  0
  193.2050  174.7040  149.6630 F   0  0  0  0  0  0  0  0  0  0  0  0
  193.9820  176.7370  151.3680 F   0  0  0  0  0  0  0  0  0  0  0  0
  193.4640  177.0820  150.1330 C   0  0  0  0  0  0  0  0  0  0  0  0
  194.3020  176.6590  149.0790 O   0  0  0  0  0  0  0  0  0  0  0  0
  192.9900  178.3640  149.9280 F   0  0  0  0  0  0  0  0  0  0  0  0
  1  6  1  0  0  0  0
  1  8  1  0  0  0  0
  2  1  2  0  0  0  0
  3  4  2  0  0  0  0
  3  2  1  0  0  0  0
  4  5  1  0  0  0  0
  5 40  1  0  0  0  0
  5  6  2  0  0  0  0
  8  7  1  0  0  0  0
  9  8  1  0  0  0  0
 10  3  1  0  0  0  0
 11 18  1  6  0  0  0
 11 23  1  0  0  0  0
 11 22  1  0  0  0  0
 12 26  1  0  0  0  0
 14 17  1  0  0  0  0
 15 19  1  0  0  0  0
 16 27  1  0  0  0  0
 17 24  1  0  0  0  0
 17 33  1  0  0  0  0
 19 28  1  0  0  0  0
 20 28  1  0  0  0  0
 20 13  1  6  0  0  0
 22 35  1  6  0  0  0
 24 13  1  0  0  0  0
 25 27  1  0  0  0  0
 26 32  1  6  0  0  0
 26 20  1  0  0  0  0
 27 21  1  0  0  0  0
 27 12  1  0  0  0  0
 27 11  1  0  0  0  0
 28 10  1  1  0  0  0
 29 31  1  1  0  0  0
 29 17  1  0  0  0  0
 29 22  1  0  0  0  0
 30 24  2  0  0  0  0
 32 15  1  0  0  0  0
 35 34  1  1  0  0  0
 35 36  1  0  0  0  0
 38 39  1  0  0  0  0
 38 36  1  1  0  0  0
 38 37  1  0  0  0  0
 39 37  1  0  0  0  0
 41 40  1  1  0  0  0
 41 45  1  0  0  0  0
 41 42  1  0  0  0  0
 42 43  2  0  0  0  0
 42 44  1  0  0  0  0
 46 55  1  0  0  0  0
 46 45  1  1  0  0  0
 47 51  1  0  0  0  0
 48 50  1  0  0  0  0
 49 52  1  0  0  0  0
 50 51  1  0  0  0  0
 51 46  1  1  0  0  0
 52 48  1  0  0  0  0
 52 54  1  0  0  0  0
 53 49  1  0  0  0  0
 53 52  1  0  0  0  0
 54 47  1  0  0  0  0
 55 56  1  0  0  0  0
 56 57  2  0  0  0  0
 56 58  1  0  0  0  0
 58 59  1  0  0  0  0
 59 60  1  0  0  0  0
 60 61  1  1  0  0  0
 60 63  1  0  0  0  0
 63 62  1  0  0  0  0
 64 60  1  0  0  0  0
 64 63  1  0  0  0  0
 65 63  1  0  0  0  0
M  END
>  <MODEL>
7

>  <REMARK>
 VINA RESULT:      -6.0      4.625     10.238
  Name = 
  17 active torsions:
  status: ('A' for Active; 'I' for Inactive)
    1  A    between atoms: C_3  and  C_21
    2  A    between atoms: C_6  and  C_18
    3  A    between atoms: C_6  and  C_49
    4  A    between atoms: C_9  and  C_42
    5  A    between atoms: C_9  and  O_54
    6  A    between atoms: C_9  and  C_61
    7  A    between atoms: C_10  and  N_43
    8  A    between atoms: C_12  and  C_52
    9  A    between atoms: C_18  and  C_23
   10  A    between atoms: C_18  and  C_61
   11  A    between atoms: C_20  and  O_44
   12  A    between atoms: C_21  and  O_35
   13  A    between atoms: C_34  and  C_60
   14  A    between atoms: O_35  and  C_39
   15  A    between atoms: C_39  and  O_54
   16  A    between atoms: O_44  and  C_48
   17  A    between atoms: C_52  and  C_60
                            x       y       z     vdW  Elec       q    Type
                         _______ _______ _______ _____ _____    ______ ____

>  <TORSDO>
F 17

$$$$
=
 OpenBabel11062417383D

 65 71  0  0  1  0  0  0  0  0999 V2000
  184.8680  178.6200  144.6300 C   0  0  0  0  0  0  0  0  0  0  0  0
  183.9010  178.4840  143.6250 C   0  0  0  0  0  3  0  0  0  0  0  0
  184.2990  178.1810  142.3180 C   0  0  0  0  0  0  0  0  0  0  0  0
  185.6540  178.0160  142.0380 C   0  0  0  0  0  3  0  0  0  0  0  0
  186.5950  178.1240  143.0670 C   0  0  0  0  0  0  0  0  0  0  0  0
  186.1840  178.4400  144.3240 N   0  0  0  0  0  0  0  0  0  0  0  0
  183.1790  178.9300  146.3250 O   0  0  0  0  0  1  0  0  0  0  0  0
  184.4840  178.9580  145.9650 N   0  0  0  0  0  0  0  0  0  0  0  0
  185.4320  179.4440  146.8750 N   0  0  0  0  0  1  0  0  0  0  0  0
  183.3730  178.0290  141.2790 O   0  0  0  0  0  0  0  0  0  0  0  0
  182.7280  176.0810  135.8980 C   0  0  1  0  0  0  0  0  0  0  0  0
  181.3110  177.8070  137.1600 O   0  0  0  0  0  0  0  0  0  0  0  0
  182.4900  176.6600  139.1920 O   0  0  0  0  0  0  0  0  0  0  0  0
  178.9310  175.3670  139.0860 C   0  0  0  0  0  1  0  0  0  0  0  0
  182.3980  180.6940  139.0030 O   0  0  0  0  0  0  0  0  0  0  0  0
  180.6250  176.5010  134.6380 O   0  0  0  0  0  1  0  0  0  0  0  0
  180.4380  175.2350  138.8900 C   0  0  0  0  0  0  0  0  0  0  0  0
  182.9680  175.4130  134.7070 F   0  0  0  0  0  0  0  0  0  0  0  0
  182.4440  180.0060  140.2200 C   0  0  0  0  0  2  0  0  0  0  0  0
  183.0230  177.9500  138.8660 C   0  0  1  0  0  3  0  0  0  0  0  0
  182.9460  178.2880  134.7450 O   0  0  0  0  0  1  0  0  0  0  0  0
  182.2080  175.0500  136.9530 C   0  0  1  0  0  3  0  0  0  0  0  0
  183.9590  176.5490  136.3650 O   0  0  0  0  0  1  0  0  0  0  0  0
  181.1420  176.4390  139.4870 C   0  0  0  0  0  0  0  0  0  0  0  0
  180.6390  178.8620  135.1180 O   0  0  0  0  0  1  0  0  0  0  0  0
  182.2800  178.6650  137.6970 C   0  0  2  0  0  3  0  0  0  0  0  0
  181.6290  177.5470  135.5130 P   0  0  0  0  0  0  0  0  0  0  0  0
  183.3890  178.8120  140.0890 C   0  0  2  0  0  3  0  0  0  0  0  0
  180.7140  175.1150  137.3590 C   0  0  1  0  0  3  0  0  0  0  0  0
  180.5190  177.2660  140.2110 O   0  0  0  0  0  0  0  0  0  0  0  0
  179.9720  174.0880  136.7640 O   0  0  0  0  0  1  0  0  0  0  0  0
  181.5620  179.9280  138.1830 C   0  0  0  0  0  2  0  0  0  0  0  0
  180.8890  173.9970  139.6430 C   0  0  0  0  0  1  0  0  0  0  0  0
  184.1320  173.6590  136.3100 O   0  0  0  0  0  1  0  0  0  0  0  0
  182.8110  173.6330  136.7540 C   0  0  2  0  0  3  0  0  0  0  0  0
  181.9690  172.7740  135.8130 C   0  0  0  0  0  2  0  0  0  0  0  0
  182.4060  170.6280  134.7070 C   0  0  0  0  0  2  0  0  0  0  0  0
  182.2280  171.2880  136.0160 C   0  0  2  0  0  3  0  0  0  0  0  0
  181.1930  170.5520  135.4140 O   0  0  0  0  0  0  0  0  0  0  0  0
  188.0590  177.9080  142.7980 C   0  0  0  0  0  2  0  0  0  0  0  0
  188.4030  177.7010  141.3140 C   0  0  1  0  0  3  0  0  0  0  0  0
  188.5380  179.0030  140.5750 C   0  0  0  0  0  0  0  0  0  0  0  0
  188.3420  179.0320  139.2000 O   0  0  0  0  0  0  0  0  0  0  0  0
  188.7870  180.0740  141.1930 O   0  0  0  0  0  1  0  0  0  0  0  0
  189.6080  176.7660  141.1660 C   0  0  0  0  0  2  0  0  0  0  0  0
  190.9400  177.4790  140.9470 C   0  0  2  0  0  3  0  0  0  0  0  0
  191.4030  175.6710  139.3940 O   0  0  0  0  0  0  0  0  0  0  0  0
  193.8870  176.9000  138.4740 C   0  0  0  0  0  2  0  0  0  0  0  0
  194.0800  174.5280  137.3810 C   0  0  0  0  0  2  0  0  0  0  0  0
  193.2250  177.2010  139.8200 C   0  0  0  0  0  2  0  0  0  0  0  0
  191.7040  177.0080  139.7080 C   0  0  2  0  0  3  0  0  0  0  0  0
  193.2240  175.6930  137.8210 C   0  0  0  0  0  0  0  0  0  0  0  0
  193.5970  175.5560  136.3660 C   0  0  0  0  0  2  0  0  0  0  0  0
  191.7260  175.4970  138.0370 C   0  0  0  0  0  2  0  0  0  0  0  0
  191.7530  177.2980  142.0980 O   0  0  0  0  0  0  0  0  0  0  0  0
  191.4590  177.9270  143.3060 C   0  0  0  0  0  0  0  0  0  0  0  0
  191.1270  179.1430  143.3010 O   0  0  0  0  0  0  0  0  0  0  0  0
  191.5020  177.2080  144.5060 O   0  0  0  0  0  0  0  0  0  0  0  0
  190.3570  176.5540  145.0490 C   0  0  0  0  0  2  0  0  0  0  0  0
  189.5740  177.4340  146.0280 C   0  0  2  0  0  0  0  0  0  0  0  0
  188.8860  178.5310  145.5450 F   0  0  0  0  0  0  0  0  0  0  0  0
  189.5620  178.5340  148.2250 F   0  0  0  0  0  0  0  0  0  0  0  0
  189.9430  177.4500  147.4570 C   0  0  0  0  0  0  0  0  0  0  0  0
  188.8280  176.7220  146.9900 O   0  0  0  0  0  0  0  0  0  0  0  0
  190.9480  176.6150  147.9090 F   0  0  0  0  0  0  0  0  0  0  0  0
  1  8  1  0  0  0  0
  2  1  2  0  0  0  0
  3  2  1  0  0  0  0
  4  3  2  0  0  0  0
  4  5  1  0  0  0  0
  5  6  2  0  0  0  0
  6  1  1  0  0  0  0
  8  7  1  0  0  0  0
  8  9  1  0  0  0  0
 10  3  1  0  0  0  0
 11 18  1  6  0  0  0
 11 23  1  0  0  0  0
 11 22  1  0  0  0  0
 12 26  1  0  0  0  0
 13 24  1  0  0  0  0
 15 19  1  0  0  0  0
 16 27  1  0  0  0  0
 17 14  1  0  0  0  0
 17 24  1  0  0  0  0
 17 33  1  0  0  0  0
 20 13  1  1  0  0  0
 20 28  1  0  0  0  0
 21 27  1  0  0  0  0
 22 35  1  6  0  0  0
 22 29  1  0  0  0  0
 24 30  2  0  0  0  0
 25 27  1  0  0  0  0
 26 32  1  1  0  0  0
 26 20  1  0  0  0  0
 27 11  1  0  0  0  0
 27 12  1  0  0  0  0
 28 19  1  0  0  0  0
 28 10  1  1  0  0  0
 29 31  1  1  0  0  0
 29 17  1  0  0  0  0
 32 15  1  0  0  0  0
 35 34  1  6  0  0  0
 36 35  1  0  0  0  0
 37 39  1  0  0  0  0
 37 38  1  0  0  0  0
 38 36  1  6  0  0  0
 39 38  1  0  0  0  0
 40  5  1  0  0  0  0
 41 45  1  1  0  0  0
 41 40  1  0  0  0  0
 42 44  1  0  0  0  0
 42 41  1  0  0  0  0
 43 42  2  0  0  0  0
 46 45  1  1  0  0  0
 46 55  1  0  0  0  0
 47 51  1  0  0  0  0
 48 50  1  0  0  0  0
 49 52  1  0  0  0  0
 51 50  1  0  0  0  0
 51 46  1  1  0  0  0
 52 54  1  0  0  0  0
 52 48  1  0  0  0  0
 53 49  1  0  0  0  0
 53 52  1  0  0  0  0
 54 47  1  0  0  0  0
 55 56  1  0  0  0  0
 56 58  1  0  0  0  0
 57 56  2  0  0  0  0
 58 59  1  0  0  0  0
 59 60  1  0  0  0  0
 60 61  1  6  0  0  0
 60 64  1  0  0  0  0
 60 63  1  0  0  0  0
 63 65  1  0  0  0  0
 63 62  1  0  0  0  0
 64 63  1  0  0  0  0
M  END
>  <MODEL>
8

>  <REMARK>
 VINA RESULT:      -5.7      3.824      9.401
  Name = 
  17 active torsions:
  status: ('A' for Active; 'I' for Inactive)
    1  A    between atoms: C_3  and  C_21
    2  A    between atoms: C_6  and  C_18
    3  A    between atoms: C_6  and  C_49
    4  A    between atoms: C_9  and  C_42
    5  A    between atoms: C_9  and  O_54
    6  A    between atoms: C_9  and  C_61
    7  A    between atoms: C_10  and  N_43
    8  A    between atoms: C_12  and  C_52
    9  A    between atoms: C_18  and  C_23
   10  A    between atoms: C_18  and  C_61
   11  A    between atoms: C_20  and  O_44
   12  A    between atoms: C_21  and  O_35
   13  A    between atoms: C_34  and  C_60
   14  A    between atoms: O_35  and  C_39
   15  A    between atoms: C_39  and  O_54
   16  A    between atoms: O_44  and  C_48
   17  A    between atoms: C_52  and  C_60
                            x       y       z     vdW  Elec       q    Type
                         _______ _______ _______ _____ _____    ______ ____

>  <TORSDO>
F 17

$$$$
=
 OpenBabel11062417383D

 65 71  0  0  1  0  0  0  0  0999 V2000
  190.2620  176.2060  136.9050 C   0  0  0  0  0  0  0  0  0  0  0  0
  188.9080  176.0320  136.5900 C   0  0  0  0  0  3  0  0  0  0  0  0
  187.9310  176.2910  137.5590 C   0  0  0  0  0  0  0  0  0  0  0  0
  188.3240  176.7220  138.8240 C   0  0  0  0  0  3  0  0  0  0  0  0
  189.6820  176.9200  139.1020 C   0  0  0  0  0  0  0  0  0  0  0  0
  190.6100  176.6400  138.1490 N   0  0  0  0  0  0  0  0  0  0  0  0
  192.5820  176.0200  136.2710 O   0  0  0  0  0  1  0  0  0  0  0  0
  191.2740  175.9180  135.9380 N   0  0  0  0  0  0  0  0  0  0  0  0
  190.9280  175.6530  134.6050 N   0  0  0  0  0  1  0  0  0  0  0  0
  186.5660  176.1380  137.2940 O   0  0  0  0  0  0  0  0  0  0  0  0
  181.1050  174.4420  137.9750 C   0  0  1  0  0  0  0  0  0  0  0  0
  182.3990  174.8480  135.7970 O   0  0  0  0  0  0  0  0  0  0  0  0
  183.9240  176.1810  137.4510 O   0  0  0  0  0  0  0  0  0  0  0  0
  181.9050  178.7190  135.4940 C   0  0  0  0  0  1  0  0  0  0  0  0
  185.6370  173.6160  134.8430 O   0  0  0  0  0  0  0  0  0  0  0  0
  179.5120  174.4900  136.0660 O   0  0  0  0  0  1  0  0  0  0  0  0
  182.2470  177.9200  136.7480 C   0  0  0  0  0  0  0  0  0  0  0  0
  179.9270  174.0190  138.5730 F   0  0  0  0  0  0  0  0  0  0  0  0
  186.3030  174.7490  135.3210 C   0  0  0  0  0  2  0  0  0  0  0  0
  184.4680  174.9160  137.0530 C   0  0  1  0  0  3  0  0  0  0  0  0
  181.3020  172.2720  136.7490 O   0  0  0  0  0  1  0  0  0  0  0  0
  181.2690  175.9770  138.2270 C   0  0  1  0  0  3  0  0  0  0  0  0
  182.1560  173.8090  138.6420 O   0  0  0  0  0  1  0  0  0  0  0  0
  183.5530  177.1770  136.5430 C   0  0  0  0  0  0  0  0  0  0  0  0
  181.0120  173.3090  134.5970 O   0  0  0  0  0  1  0  0  0  0  0  0
  183.5930  174.1480  136.0160 C   0  0  2  0  0  3  0  0  0  0  0  0
  181.0770  173.8590  136.1970 P   0  0  0  0  0  0  0  0  0  0  0  0
  185.9880  174.9310  136.8050 C   0  0  2  0  0  3  0  0  0  0  0  0
  181.0680  176.9370  137.0260 C   0  0  1  0  0  3  0  0  0  0  0  0
  184.2900  177.4150  135.5450 O   0  0  0  0  0  0  0  0  0  0  0  0
  179.8320  177.5910  137.0890 O   0  0  0  0  0  1  0  0  0  0  0  0
  184.3090  174.0210  134.6680 C   0  0  0  0  0  2  0  0  0  0  0  0
  182.4340  178.9110  137.8830 C   0  0  0  0  0  1  0  0  0  0  0  0
  179.2790  176.5530  139.5520 O   0  0  0  0  0  1  0  0  0  0  0  0
  180.6680  176.4300  139.5840 C   0  0  2  0  0  3  0  0  0  0  0  0
  181.2880  177.7320  140.0860 C   0  0  0  0  0  2  0  0  0  0  0  0
  180.5980  179.4450  141.7010 C   0  0  0  0  0  2  0  0  0  0  0  0
  180.2290  178.7650  140.4430 C   0  0  2  0  0  3  0  0  0  0  0  0
  179.6390  178.4170  141.6710 O   0  0  0  0  0  0  0  0  0  0  0  0
  190.1270  177.4250  140.4460 C   0  0  0  0  0  2  0  0  0  0  0  0
  190.0550  176.3780  141.5690 C   0  0  1  0  0  3  0  0  0  0  0  0
  191.2540  176.4330  142.4750 C   0  0  0  0  0  0  0  0  0  0  0  0
  191.3370  175.5600  143.5520 O   0  0  0  0  0  1  0  0  0  0  0  0
  192.1990  177.2350  142.2460 O   0  0  0  0  0  0  0  0  0  0  0  0
  188.7100  176.4620  142.2980 C   0  0  0  0  0  2  0  0  0  0  0  0
  188.6660  177.4870  143.4300 C   0  0  2  0  0  3  0  0  0  0  0  0
  186.5460  177.5060  144.6110 O   0  0  0  0  0  0  0  0  0  0  0  0
  185.2440  179.1130  142.5490 C   0  0  0  0  0  2  0  0  0  0  0  0
  183.1780  178.4040  143.9950 C   0  0  0  0  0  2  0  0  0  0  0  0
  186.4920  178.2610  142.3150 C   0  0  0  0  0  2  0  0  0  0  0  0
  187.3010  178.1530  143.6170 C   0  0  2  0  0  3  0  0  0  0  0  0
  184.6360  178.7930  143.9100 C   0  0  0  0  0  0  0  0  0  0  0  0
  183.6190  179.8220  144.3360 C   0  0  0  0  0  2  0  0  0  0  0  0
  185.5850  178.4350  145.0500 C   0  0  0  0  0  2  0  0  0  0  0  0
  189.6460  178.4850  143.1820 O   0  0  0  0  0  0  0  0  0  0  0  0
  190.4460  178.9930  144.2050 C   0  0  0  0  0  0  0  0  0  0  0  0
  191.0580  180.0800  144.0250 O   0  0  0  0  0  0  0  0  0  0  0  0
  190.5440  178.3170  145.4270 O   0  0  0  0  0  0  0  0  0  0  0  0
  189.8540  178.7480  146.5980 C   0  0  0  0  0  2  0  0  0  0  0  0
  189.2750  177.5860  147.4110 C   0  0  2  0  0  0  0  0  0  0  0  0
  189.4650  176.2920  146.9650 F   0  0  0  0  0  0  0  0  0  0  0  0
  187.3510  176.7450  148.6880 F   0  0  0  0  0  0  0  0  0  0  0  0
  188.1360  177.8220  148.3190 C   0  0  0  0  0  0  0  0  0  0  0  0
  189.4550  177.6980  148.8060 O   0  0  0  0  0  0  0  0  0  0  0  0
  187.6490  179.1060  148.4790 F   0  0  0  0  0  0  0  0  0  0  0  0
  1  6  1  0  0  0  0
  2  1  2  0  0  0  0
  2  3  1  0  0  0  0
  3  4  2  0  0  0  0
  4  5  1  0  0  0  0
  5 40  1  0  0  0  0
  6  5  2  0  0  0  0
  8  7  1  0  0  0  0
  8  1  1  0  0  0  0
  9  8  1  0  0  0  0
 10  3  1  0  0  0  0
 11 22  1  0  0  0  0
 11 18  1  1  0  0  0
 11 23  1  0  0  0  0
 12 26  1  0  0  0  0
 12 27  1  0  0  0  0
 14 17  1  0  0  0  0
 15 19  1  0  0  0  0
 16 27  1  0  0  0  0
 17 29  1  0  0  0  0
 17 33  1  0  0  0  0
 19 28  1  0  0  0  0
 20 13  1  6  0  0  0
 22 35  1  1  0  0  0
 24 17  1  0  0  0  0
 24 13  1  0  0  0  0
 25 27  1  0  0  0  0
 26 32  1  6  0  0  0
 26 20  1  0  0  0  0
 27 21  1  0  0  0  0
 27 11  1  0  0  0  0
 28 20  1  0  0  0  0
 28 10  1  6  0  0  0
 29 31  1  1  0  0  0
 29 22  1  0  0  0  0
 30 24  2  0  0  0  0
 32 15  1  0  0  0  0
 35 34  1  6  0  0  0
 35 36  1  0  0  0  0
 38 36  1  1  0  0  0
 38 39  1  0  0  0  0
 38 37  1  0  0  0  0
 39 37  1  0  0  0  0
 41 40  1  6  0  0  0
 41 45  1  0  0  0  0
 41 42  1  0  0  0  0
 42 43  1  0  0  0  0
 44 42  2  0  0  0  0
 46 45  1  6  0  0  0
 47 54  1  0  0  0  0
 48 52  1  0  0  0  0
 49 53  1  0  0  0  0
 50 48  1  0  0  0  0
 50 51  1  0  0  0  0
 51 46  1  6  0  0  0
 51 47  1  0  0  0  0
 52 49  1  0  0  0  0
 52 53  1  0  0  0  0
 52 54  1  0  0  0  0
 55 46  1  0  0  0  0
 55 56  1  0  0  0  0
 56 58  1  0  0  0  0
 57 56  2  0  0  0  0
 58 59  1  0  0  0  0
 59 60  1  0  0  0  0
 60 61  1  6  0  0  0
 60 63  1  0  0  0  0
 60 64  1  0  0  0  0
 63 65  1  0  0  0  0
 63 62  1  0  0  0  0
 63 64  1  0  0  0  0
M  END
>  <MODEL>
9

>  <REMARK>
 VINA RESULT:      -5.7      4.627      9.705
  Name = 
  17 active torsions:
  status: ('A' for Active; 'I' for Inactive)
    1  A    between atoms: C_3  and  C_21
    2  A    between atoms: C_6  and  C_18
    3  A    between atoms: C_6  and  C_49
    4  A    between atoms: C_9  and  C_42
    5  A    between atoms: C_9  and  O_54
    6  A    between atoms: C_9  and  C_61
    7  A    between atoms: C_10  and  N_43
    8  A    between atoms: C_12  and  C_52
    9  A    between atoms: C_18  and  C_23
   10  A    between atoms: C_18  and  C_61
   11  A    between atoms: C_20  and  O_44
   12  A    between atoms: C_21  and  O_35
   13  A    between atoms: C_34  and  C_60
   14  A    between atoms: O_35  and  C_39
   15  A    between atoms: C_39  and  O_54
   16  A    between atoms: O_44  and  C_48
   17  A    between atoms: C_52  and  C_60
                            x       y       z     vdW  Elec       q    Type
                         _______ _______ _______ _____ _____    ______ ____

>  <TORSDO>
F 17

$$$$
