=
 OpenBabel11062414533D

 56 62  0  0  1  0  0  0  0  0999 V2000
  190.9390  175.9230  139.5740 C   0  0  0  0  0  2  0  0  0  0  0  0
  188.2510  176.6800  143.3480 O   0  0  0  0  0  0  0  0  0  0  0  0
  194.9600  174.7710  136.0490 C   0  0  0  0  0  0  0  0  0  0  0  0
  194.4280  175.7600  139.5080 C   0  0  0  0  0  1  0  0  0  0  0  0
  184.6150  179.3440  141.2980 N   0  0  0  0  0  0  0  0  0  0  0  0
  195.7540  174.0950  134.9640 C   0  0  1  0  0  3  0  0  0  0  0  0
  189.6680  174.6280  136.3240 F   0  0  0  0  0  0  0  0  0  0  0  0
  188.6400  177.8220  137.7870 C   0  0  0  0  0  3  0  0  0  0  0  0
  196.5270  172.6340  137.1300 O   0  0  0  0  0  0  0  0  0  0  0  0
  194.0970  175.9940  135.8870 C   0  0  2  0  0  0  0  0  0  0  0  0
  191.6340  176.7180  135.9600 C   0  0  0  0  0  0  0  0  0  0  0  0
  194.9670  174.4700  137.3560 C   0  0  0  0  0  0  0  0  0  0  0  0
  192.1430  173.8860  137.9270 C   0  0  0  0  0  1  0  0  0  0  0  0
  187.5860  175.3710  137.1000 N   0  0  0  0  0  0  0  0  0  0  0  0
  191.2900  177.1970  134.7660 C   0  0  0  0  0  2  0  0  0  0  0  0
  190.9490  177.1270  137.2190 C   0  0  2  0  0  3  0  0  0  0  0  0
  194.4690  176.7140  137.1590 C   0  0  0  0  0  2  0  0  0  0  0  0
  197.2590  173.9940  135.2610 C   0  0  2  0  0  3  0  0  0  0  0  0
  194.1220  175.5300  138.0320 C   0  0  2  0  0  0  0  0  0  0  0  0
  197.6070  173.3690  136.6230 C   0  0  2  0  0  3  0  0  0  0  0  0
  185.3400  178.1230  139.4770 C   0  0  2  0  0  3  0  0  0  0  0  0
  195.2250  172.8350  134.6990 O   0  0  0  0  0  1  0  0  0  0  0  0
  187.2940  177.5590  138.0180 C   0  0  0  0  0  0  0  0  0  0  0  0
  192.6250  175.3180  137.6680 C   0  0  2  0  0  0  0  0  0  0  0  0
  183.5400  179.0860  137.9000 N   0  0  0  0  0  2  0  0  0  0  0  0
  186.4970  178.5270  138.7010 N   0  0  0  0  0  2  0  0  0  0  0  0
  182.3360  179.8100  137.6320 C   0  0  0  0  0  0  0  0  0  0  0  0
  191.7200  176.3920  138.3300 C   0  0  2  0  0  3  0  0  0  0  0  0
  188.9080  175.6060  136.8770 C   0  0  0  0  0  0  0  0  0  0  0  0
  190.0210  176.6550  141.7570 C   0  0  1  0  0  3  0  0  0  0  0  0
  189.4660  176.8520  137.2230 C   0  0  0  0  0  0  0  0  0  0  0  0
  188.6110  176.9650  142.1730 C   0  0  0  0  0  0  0  0  0  0  0  0
  186.7800  176.3050  137.6690 C   0  0  0  0  0  3  0  0  0  0  0  0
  183.7810  179.6540  140.2210 N   0  0  0  0  0  0  0  0  0  0  0  0
  195.8820  173.4750  138.0480 C   0  0  1  0  0  3  0  0  0  0  0  0
  187.6920  177.5380  141.2900 O   0  0  0  0  0  0  0  0  0  0  0  0
  184.1760  179.0010  139.1800 C   0  0  0  0  0  0  0  0  0  0  0  0
  185.5170  178.5090  140.9080 C   0  0  0  0  0  0  0  0  0  0  0  0
  186.5090  178.0340  141.7630 O   0  0  0  0  0  0  0  0  0  0  0  0
  181.9150  179.8940  136.4120 N   0  0  0  0  0  2  0  0  0  0  0  0
  197.8460  175.2570  135.1550 O   0  0  0  0  0  1  0  0  0  0  0  0
  192.6190  175.6010  136.1440 C   0  0  2  0  0  3  0  0  0  0  0  0
  190.3200  177.0820  140.3280 C   0  0  0  0  0  2  0  0  0  0  0  0
  198.7650  172.4910  136.4860 N   0  0  0  0  0  2  0  0  0  0  0  0
  197.9290  171.2880  134.6580 O   0  0  0  0  0  0  0  0  0  0  0  0
  198.8570  171.4660  135.4930 C   0  0  0  0  0  3  0  0  0  0  0  0
  195.0870  172.6240  139.0220 C   0  0  0  0  0  2  0  0  0  0  0  0
  195.1660  171.2830  138.6510 O   0  0  0  0  0  1  0  0  0  0  0  0
  190.9190  177.2850  142.6200 O   0  0  0  0  0  0  0  0  0  0  0  0
  191.5770  176.2450  143.2940 C   0  0  0  0  0  1  0  0  0  0  0  0
  180.6320  181.4010  138.4310 C   0  0  0  0  0  1  0  0  0  0  0  0
  181.6250  180.4160  138.6710 O   0  0  0  0  0  0  0  0  0  0  0  0
  194.3530  176.7660  134.7120 O   0  0  0  0  0  0  0  0  0  0  0  0
  195.3590  177.7330  134.6170 C   0  0  0  0  0  0  0  0  0  0  0  0
  195.0810  178.9660  134.5940 O   0  0  0  0  0  1  0  0  0  0  0  0
  196.6870  177.3300  134.5940 O   0  0  0  0  0  0  0  0  0  0  0  0
  1 43  1  0  0  0  0
  3 12  2  0  0  0  0
  6 22  1  1  0  0  0
  6 18  1  0  0  0  0
  6  3  1  0  0  0  0
  7 29  1  0  0  0  0
  8 23  1  0  0  0  0
  9 35  1  0  0  0  0
 10 53  1  6  0  0  0
 10  3  1  0  0  0  0
 10 42  1  0  0  0  0
 10 17  1  0  0  0  0
 12 19  1  0  0  0  0
 12 35  1  0  0  0  0
 14 33  1  0  0  0  0
 15 11  2  0  0  0  0
 16 11  1  6  0  0  0
 16 31  1  0  0  0  0
 16 28  1  0  0  0  0
 17 19  1  0  0  0  0
 18 41  1  1  0  0  0
 18 20  1  0  0  0  0
 19  4  1  1  0  0  0
 20 44  1  6  0  0  0
 20  9  1  0  0  0  0
 21 26  1  6  0  0  0
 21 38  1  0  0  0  0
 23 26  1  0  0  0  0
 24 13  1  1  0  0  0
 24 19  1  0  0  0  0
 24 28  1  0  0  0  0
 25 37  1  0  0  0  0
 27 25  1  0  0  0  0
 27 52  1  0  0  0  0
 28  1  1  1  0  0  0
 29 14  2  0  0  0  0
 29 31  1  0  0  0  0
 30 32  1  0  0  0  0
 30 49  1  1  0  0  0
 31  8  2  0  0  0  0
 32  2  2  0  0  0  0
 33 23  2  0  0  0  0
 34  5  1  0  0  0  0
 35 47  1  1  0  0  0
 36 39  1  0  0  0  0
 36 32  1  0  0  0  0
 37 21  1  0  0  0  0
 37 34  2  0  0  0  0
 38  5  2  0  0  0  0
 38 39  1  0  0  0  0
 40 27  2  0  0  0  0
 42 11  1  1  0  0  0
 42 24  1  0  0  0  0
 43 30  1  0  0  0  0
 45 46  2  0  0  0  0
 46 44  1  0  0  0  0
 48 47  1  0  0  0  0
 49 50  1  0  0  0  0
 51 52  1  0  0  0  0
 54 53  1  0  0  0  0
 55 54  1  0  0  0  0
 56 54  2  0  0  0  0
M  END
>  <MODEL>
1

>  <REMARK>
 VINA RESULT:      -1.3      0.000      0.000
  Name = 
  6 active torsions:
  status: ('A' for Active; 'I' for Inactive)
    1  A    between atoms: C_10  and  O_37
    2  A    between atoms: C_15  and  C_45
    3  A    between atoms: C_16  and  O_37
    4  A    between atoms: N_19  and  C_25
    5  A    between atoms: C_33  and  O_50
    6  A    between atoms: O_38  and  C_39
                            x       y       z     vdW  Elec       q    Type
                         _______ _______ _______ _____ _____    ______ ____

>  <TORSDO>
F 6

$$$$
=
 OpenBabel11062414533D

 56 62  0  0  1  0  0  0  0  0999 V2000
  187.9120  177.6610  138.7660 C   0  0  0  0  0  2  0  0  0  0  0  0
  191.9660  178.3560  141.0280 O   0  0  0  0  0  0  0  0  0  0  0  0
  182.7220  177.6140  137.0380 C   0  0  0  0  0  0  0  0  0  0  0  0
  184.7050  178.2640  140.0160 C   0  0  0  0  0  1  0  0  0  0  0  0
  194.6090  174.5660  139.2480 N   0  0  0  0  0  0  0  0  0  0  0  0
  181.5040  177.8190  136.1780 C   0  0  1  0  0  3  0  0  0  0  0  0
  187.6290  177.1220  135.0940 F   0  0  0  0  0  0  0  0  0  0  0  0
  189.3950  174.8500  137.3560 C   0  0  0  0  0  3  0  0  0  0  0  0
  181.5940  180.2050  137.4900 O   0  0  0  0  0  0  0  0  0  0  0  0
  183.5260  176.3450  137.1520 C   0  0  2  0  0  0  0  0  0  0  0  0
  185.8430  175.3980  136.5790 C   0  0  0  0  0  0  0  0  0  0  0  0
  183.2340  178.4800  137.9250 C   0  0  0  0  0  0  0  0  0  0  0  0
  185.9920  178.8580  136.9780 C   0  0  0  0  0  1  0  0  0  0  0  0
  189.8930  176.5350  135.2340 N   0  0  0  0  0  0  0  0  0  0  0  0
  185.6970  174.3810  135.7330 C   0  0  0  0  0  2  0  0  0  0  0  0
  187.0150  175.5230  137.4930 C   0  0  2  0  0  3  0  0  0  0  0  0
  183.7660  176.3520  138.6410 C   0  0  0  0  0  2  0  0  0  0  0  0
  180.2540  178.2540  136.9590 C   0  0  2  0  0  3  0  0  0  0  0  0
  184.3570  177.7430  138.6260 C   0  0  2  0  0  0  0  0  0  0  0  0
  180.4560  179.4780  137.8690 C   0  0  2  0  0  3  0  0  0  0  0  0
  193.1110  174.9000  137.5220 C   0  0  2  0  0  3  0  0  0  0  0  0
  181.7850  178.7270  135.1610 O   0  0  0  0  0  1  0  0  0  0  0  0
  190.6940  174.9990  136.8810 C   0  0  0  0  0  0  0  0  0  0  0  0
  185.5500  177.5510  137.6470 C   0  0  2  0  0  0  0  0  0  0  0  0
  194.1620  173.0780  136.0300 N   0  0  0  0  0  2  0  0  0  0  0  0
  191.7690  174.3520  137.5630 N   0  0  0  0  0  2  0  0  0  0  0  0
  195.1960  172.1510  135.6880 C   0  0  0  0  0  0  0  0  0  0  0  0
  186.7220  176.7870  138.3210 C   0  0  2  0  0  3  0  0  0  0  0  0
  188.6180  176.4120  135.6930 C   0  0  0  0  0  0  0  0  0  0  0  0
  189.7000  177.8940  140.4660 C   0  0  1  0  0  3  0  0  0  0  0  0
  188.3430  175.5580  136.7780 C   0  0  0  0  0  0  0  0  0  0  0  0
  191.1740  177.6160  140.3830 C   0  0  0  0  0  0  0  0  0  0  0  0
  190.9270  175.8650  135.8060 C   0  0  0  0  0  3  0  0  0  0  0  0
  194.9440  173.6820  138.2190 N   0  0  0  0  0  0  0  0  0  0  0  0
  182.6190  179.7990  138.3570 C   0  0  1  0  0  3  0  0  0  0  0  0
  191.6840  176.5780  139.5980 O   0  0  0  0  0  0  0  0  0  0  0  0
  194.1080  173.8300  137.2460 C   0  0  0  0  0  0  0  0  0  0  0  0
  193.5700  175.2450  138.9010 C   0  0  0  0  0  0  0  0  0  0  0  0
  192.9890  176.1950  139.7390 O   0  0  0  0  0  0  0  0  0  0  0  0
  195.0800  171.4560  134.6030 N   0  0  0  0  0  2  0  0  0  0  0  0
  179.7680  177.1810  137.7080 O   0  0  0  0  0  1  0  0  0  0  0  0
  184.9460  176.6010  136.5820 C   0  0  2  0  0  3  0  0  0  0  0  0
  188.8680  176.9050  139.6650 C   0  0  0  0  0  2  0  0  0  0  0  0
  179.2860  180.3480  137.8010 N   0  0  0  0  0  2  0  0  0  0  0  0
  179.8190  181.6040  139.7060 O   0  0  0  0  0  0  0  0  0  0  0  0
  179.0210  181.3790  138.7550 C   0  0  0  0  0  3  0  0  0  0  0  0
  183.6830  180.8810  138.4030 C   0  0  0  0  0  2  0  0  0  0  0  0
  183.0780  182.1370  138.4000 O   0  0  0  0  0  1  0  0  0  0  0  0
  189.2870  177.8650  141.7990 O   0  0  0  0  0  0  0  0  0  0  0  0
  188.2650  176.9040  141.8500 C   0  0  0  0  0  1  0  0  0  0  0  0
  197.6220  171.8340  135.9850 C   0  0  0  0  0  1  0  0  0  0  0  0
  196.3140  171.9970  136.5110 O   0  0  0  0  0  0  0  0  0  0  0  0
  182.8630  175.1640  136.6970 O   0  0  0  0  0  0  0  0  0  0  0  0
  182.8700  173.9490  137.3900 C   0  0  0  0  0  0  0  0  0  0  0  0
  183.9170  173.5290  137.9620 O   0  0  0  0  0  1  0  0  0  0  0  0
  181.6960  173.2170  137.4860 O   0  0  0  0  0  0  0  0  0  0  0  0
  1 43  1  0  0  0  0
  3 10  1  0  0  0  0
  3 12  2  0  0  0  0
  6 22  1  6  0  0  0
  6 18  1  0  0  0  0
  6  3  1  0  0  0  0
  7 29  1  0  0  0  0
  9 20  1  0  0  0  0
  9 35  1  0  0  0  0
 10 53  1  6  0  0  0
 10 17  1  0  0  0  0
 12 35  1  0  0  0  0
 12 19  1  0  0  0  0
 14 29  2  0  0  0  0
 14 33  1  0  0  0  0
 15 11  2  0  0  0  0
 16 11  1  6  0  0  0
 16 28  1  0  0  0  0
 18 41  1  1  0  0  0
 18 20  1  0  0  0  0
 19 17  1  0  0  0  0
 19  4  1  1  0  0  0
 20 44  1  6  0  0  0
 21 37  1  1  0  0  0
 21 26  1  0  0  0  0
 21 38  1  0  0  0  0
 23  8  1  0  0  0  0
 23 26  1  0  0  0  0
 24 13  1  6  0  0  0
 24 28  1  0  0  0  0
 24 19  1  0  0  0  0
 25 37  1  0  0  0  0
 27 25  1  0  0  0  0
 27 52  1  0  0  0  0
 28  1  1  6  0  0  0
 29 31  1  0  0  0  0
 30 49  1  1  0  0  0
 31  8  2  0  0  0  0
 31 16  1  0  0  0  0
 32 30  1  0  0  0  0
 32  2  2  0  0  0  0
 33 23  2  0  0  0  0
 34  5  1  0  0  0  0
 35 47  1  6  0  0  0
 36 39  1  0  0  0  0
 36 32  1  0  0  0  0
 37 34  2  0  0  0  0
 38  5  2  0  0  0  0
 38 39  1  0  0  0  0
 40 27  2  0  0  0  0
 42 11  1  1  0  0  0
 42 10  1  0  0  0  0
 42 24  1  0  0  0  0
 43 30  1  0  0  0  0
 44 46  1  0  0  0  0
 46 45  2  0  0  0  0
 48 47  1  0  0  0  0
 49 50  1  0  0  0  0
 51 52  1  0  0  0  0
 53 54  1  0  0  0  0
 54 56  2  0  0  0  0
 54 55  1  0  0  0  0
M  END
>  <MODEL>
2

>  <REMARK>
 VINA RESULT:      -1.0      2.873     11.721
  Name = 
  6 active torsions:
  status: ('A' for Active; 'I' for Inactive)
    1  A    between atoms: C_10  and  O_37
    2  A    between atoms: C_15  and  C_45
    3  A    between atoms: C_16  and  O_37
    4  A    between atoms: N_19  and  C_25
    5  A    between atoms: C_33  and  O_50
    6  A    between atoms: O_38  and  C_39
                            x       y       z     vdW  Elec       q    Type
                         _______ _______ _______ _____ _____    ______ ____

>  <TORSDO>
F 6

$$$$
