=
 OpenBabel11062416423D

 57 62  0  0  1  0  0  0  0  0999 V2000
  185.5170  178.9850  142.3090 C   0  0  0  0  0  2  0  0  0  0  0  0
  189.9160  176.2330  137.8000 C   0  0  2  0  0  3  0  0  0  0  0  0
  190.9830  176.1310  139.9960 N   0  0  0  0  0  2  0  0  0  0  0  0
  190.2350  177.2160  140.5060 N   0  0  1  0  0  0  0  0  0  0  0  0
  188.8670  177.2060  139.9500 C   0  0  1  0  0  3  0  0  0  0  0  0
  188.3920  178.6500  139.7900 C   0  0  2  0  0  3  0  0  0  0  0  0
  190.2090  177.1260  141.9880 C   0  0  0  0  0  0  0  0  0  0  0  0
  191.6310  177.2630  142.5140 C   0  0  0  0  0  1  0  0  0  0  0  0
  188.6760  176.3140  138.7010 C   0  0  0  0  0  2  0  0  0  0  0  0
  187.1170  178.8890  140.5220 C   0  0  0  0  0  3  0  0  0  0  0  0
  186.8970  178.6660  141.8250 C   0  0  0  0  0  0  0  0  0  0  0  0
  189.4020  178.2850  142.6330 C   0  0  2  0  0  3  0  0  0  0  0  0
  187.9080  178.1030  142.7750 C   0  0  0  0  0  0  0  0  0  0  0  0
  187.4870  177.5150  143.8900 C   0  0  0  0  0  2  0  0  0  0  0  0
  191.2300  176.3910  138.5800 C   0  0  1  0  0  3  0  0  0  0  0  0
  189.7450  179.5320  142.1330 F   0  0  0  0  0  0  0  0  0  0  0  0
  188.2570  179.0340  138.4560 O   0  0  0  0  0  1  0  0  0  0  0  0
  189.6870  175.7650  142.4620 C   0  0  0  0  0  1  0  0  0  0  0  0
  193.1900  174.5770  135.2860 C   0  0  0  0  0  2  0  0  0  0  0  0
  194.1200  175.2630  136.2930 C   0  0  0  0  0  2  0  0  0  0  0  0
  193.3470  176.2050  137.2130 C   0  0  0  0  0  2  0  0  0  0  0  0
  191.7070  174.2350  137.3060 C   0  0  0  0  0  2  0  0  0  0  0  0
  191.7470  174.4270  135.7900 C   0  0  0  0  0  2  0  0  0  0  0  0
  192.3130  175.4380  138.0570 C   0  0  0  0  0  3  0  0  0  0  0  0
  189.8370  177.2430  136.6620 C   0  0  0  0  0  2  0  0  0  0  0  0
  188.5830  177.0790  135.9380 N   0  0  0  0  0  2  0  0  0  0  0  0
  188.7970  176.0550  134.9270 C   0  0  0  0  0  2  0  0  0  0  0  0
  187.6540  175.0570  134.9570 C   0  0  0  0  0  2  0  0  0  0  0  0
  187.8640  174.1280  135.9780 O   0  0  0  0  0  1  0  0  0  0  0  0
  184.6900  177.7160  142.4540 C   0  0  0  0  0  2  0  0  0  0  0  0
  183.4730  177.8250  141.6630 N   0  0  0  0  0  2  0  0  0  0  0  0
  182.3680  178.6280  142.0840 C   0  0  0  0  0  0  0  0  0  0  0  0
  182.3430  179.1190  143.2460 O   0  0  0  0  0  0  0  0  0  0  0  0
  180.5350  180.1390  141.4680 N   0  0  0  0  0  2  0  0  0  0  0  0
  182.9950  179.8180  139.5220 C   0  0  0  0  0  1  0  0  0  0  0  0
  181.2600  178.9190  141.1150 C   0  0  1  0  0  3  0  0  0  0  0  0
  180.4990  179.7890  139.0880 C   0  0  2  0  0  3  0  0  0  0  0  0
  180.1050  180.7400  140.2050 C   0  0  0  0  0  2  0  0  0  0  0  0
  181.6880  179.0260  139.6530 C   0  0  1  0  0  3  0  0  0  0  0  0
  180.8110  182.3920  136.3080 C   0  0  0  0  0  0  0  0  0  0  0  0
  180.6070  180.4350  137.7150 C   0  0  0  0  0  0  0  0  0  0  0  0
  180.8540  180.2600  135.3390 N   0  0  0  0  0  0  0  0  0  0  0  0
  180.8730  183.8690  136.1510 C   0  0  0  0  0  1  0  0  0  0  0  0
  180.7330  179.6490  136.5530 C   0  0  0  0  0  0  0  0  0  0  0  0
  180.6780  181.8260  137.5720 C   0  0  0  0  0  3  0  0  0  0  0  0
  180.8890  181.5870  135.2190 N   0  0  0  0  0  0  0  0  0  0  0  0
  180.7570  178.2200  136.6370 N   0  0  0  0  0  2  0  0  0  0  0  0
  184.6960  177.0620  135.1510 C   0  0  0  0  0  2  0  0  0  0  0  0
  182.1430  176.9570  135.0280 C   0  0  1  0  0  3  0  0  0  0  0  0
  180.9890  176.0670  134.5940 C   0  0  0  0  0  1  0  0  0  0  0  0
  182.0790  176.3310  137.5050 C   0  0  0  0  0  0  0  0  0  0  0  0
  181.0370  175.7310  137.8810 O   0  0  0  0  0  0  0  0  0  0  0  0
  183.3380  175.9870  138.1030 N   0  0  0  0  0  2  0  0  0  0  0  0
  181.9760  177.4340  136.4780 C   0  0  2  0  0  3  0  0  0  0  0  0
  184.6560  176.0560  137.4680 C   0  0  0  0  0  2  0  0  0  0  0  0
  184.8480  177.3290  136.6530 C   0  0  0  0  0  2  0  0  0  0  0  0
  183.4630  176.2200  134.8040 C   0  0  0  0  0  2  0  0  0  0  0  0
  1 30  1  0  0  0  0
  2 25  1  6  0  0  0
  2 15  1  0  0  0  0
  2  9  1  0  0  0  0
  4  3  1  6  0  0  0
  4  7  1  0  0  0  0
  5  9  1  6  0  0  0
  5  4  1  0  0  0  0
  6 17  1  6  0  0  0
  6  5  1  0  0  0  0
  6 10  1  0  0  0  0
  7 18  1  0  0  0  0
  7  8  1  0  0  0  0
  7 12  1  0  0  0  0
 10 11  2  0  0  0  0
 11  1  1  0  0  0  0
 11 13  1  0  0  0  0
 12 16  1  6  0  0  0
 12 13  1  0  0  0  0
 13 14  2  0  0  0  0
 15 24  1  6  0  0  0
 15  3  1  0  0  0  0
 19 23  1  0  0  0  0
 19 20  1  0  0  0  0
 20 21  1  0  0  0  0
 21 24  1  0  0  0  0
 22 24  1  0  0  0  0
 23 22  1  0  0  0  0
 26 25  1  0  0  0  0
 27 28  1  0  0  0  0
 27 26  1  0  0  0  0
 28 29  1  0  0  0  0
 31 32  1  0  0  0  0
 31 30  1  0  0  0  0
 32 33  2  0  0  0  0
 36 34  1  0  0  0  0
 36 32  1  1  0  0  0
 37 41  1  6  0  0  0
 37 39  1  0  0  0  0
 37 38  1  0  0  0  0
 38 34  1  0  0  0  0
 39 35  1  1  0  0  0
 39 36  1  0  0  0  0
 40 45  1  0  0  0  0
 42 44  2  0  0  0  0
 43 40  1  0  0  0  0
 44 47  1  0  0  0  0
 44 41  1  0  0  0  0
 45 41  2  0  0  0  0
 46 42  1  0  0  0  0
 46 40  2  0  0  0  0
 48 56  1  0  0  0  0
 49 50  1  1  0  0  0
 49 54  1  0  0  0  0
 51 52  2  0  0  0  0
 51 53  1  0  0  0  0
 54 47  1  6  0  0  0
 54 51  1  0  0  0  0
 55 53  1  0  0  0  0
 56 55  1  0  0  0  0
 57 49  1  0  0  0  0
 57 48  1  0  0  0  0
M  END
>  <MODEL>
1

>  <REMARK>
 VINA RESULT:      -6.8      0.000      0.000
  Name = 
  12 active torsions:
  status: ('A' for Active; 'I' for Inactive)
    1  A    between atoms: C_1  and  C_46
    2  A    between atoms: N_3  and  C_27
    3  A    between atoms: N_3  and  C_53
    4  A    between atoms: N_6  and  C_35
    5  A    between atoms: C_16  and  C_23
    6  A    between atoms: C_17  and  C_33
    7  A    between atoms: C_17  and  C_35
    8  A    between atoms: C_19  and  C_26
    9  A    between atoms: N_22  and  C_26
   10  A    between atoms: N_22  and  C_46
   11  A    between atoms: C_29  and  C_31
   12  A    between atoms: C_44  and  C_50
                            x       y       z     vdW  Elec       q    Type
                         _______ _______ _______ _____ _____    ______ ____

>  <TORSDO>
F 12

$$$$
=
 OpenBabel11062416423D

 57 62  0  0  1  0  0  0  0  0999 V2000
  182.5780  178.0910  141.5840 C   0  0  0  0  0  2  0  0  0  0  0  0
  189.1130  177.1850  143.5170 C   0  0  2  0  0  3  0  0  0  0  0  0
  187.9110  178.0740  145.4500 N   0  0  0  0  0  2  0  0  0  0  0  0
  186.9180  178.6940  144.6570 N   0  0  1  0  0  0  0  0  0  0  0  0
  186.6240  177.8740  143.4650 C   0  0  1  0  0  3  0  0  0  0  0  0
  186.2790  178.8040  142.3020 C   0  0  2  0  0  3  0  0  0  0  0  0
  185.6990  178.8920  145.4810 C   0  0  0  0  0  0  0  0  0  0  0  0
  186.0290  179.8410  146.6250 C   0  0  0  0  0  1  0  0  0  0  0  0
  187.6780  176.7880  143.1420 C   0  0  0  0  0  2  0  0  0  0  0  0
  184.9410  178.4880  141.7300 C   0  0  0  0  0  3  0  0  0  0  0  0
  183.7830  178.4410  142.4010 C   0  0  0  0  0  0  0  0  0  0  0  0
  184.5530  179.5690  144.6830 C   0  0  2  0  0  3  0  0  0  0  0  0
  183.6420  178.6750  143.8730 C   0  0  0  0  0  0  0  0  0  0  0  0
  182.5810  178.1830  144.5050 C   0  0  0  0  0  2  0  0  0  0  0  0
  189.1720  178.1450  144.7160 C   0  0  1  0  0  3  0  0  0  0  0  0
  184.9670  180.6900  143.9800 F   0  0  0  0  0  0  0  0  0  0  0  0
  187.2440  178.7970  141.2950 O   0  0  0  0  0  1  0  0  0  0  0  0
  185.2250  177.5790  146.1130 C   0  0  0  0  0  1  0  0  0  0  0  0
  190.9700  175.4440  147.4460 C   0  0  0  0  0  2  0  0  0  0  0  0
  191.8760  175.9000  146.2960 C   0  0  0  0  0  2  0  0  0  0  0  0
  191.0670  176.5380  145.1690 C   0  0  0  0  0  2  0  0  0  0  0  0
  189.8870  177.7070  147.1230 C   0  0  0  0  0  2  0  0  0  0  0  0
  189.6730  176.2580  147.5610 C   0  0  0  0  0  2  0  0  0  0  0  0
  190.3380  177.8050  145.6520 C   0  0  0  0  0  3  0  0  0  0  0  0
  189.8540  177.7670  142.3200 C   0  0  0  0  0  2  0  0  0  0  0  0
  190.7000  176.7480  141.7160 N   0  0  0  0  0  2  0  0  0  0  0  0
  192.0570  177.2710  141.6840 C   0  0  0  0  0  2  0  0  0  0  0  0
  192.4520  177.5870  140.2540 C   0  0  0  0  0  2  0  0  0  0  0  0
  191.6040  176.9160  139.3690 O   0  0  0  0  0  1  0  0  0  0  0  0
  182.5120  178.9450  140.3270 C   0  0  0  0  0  2  0  0  0  0  0  0
  182.9420  178.1660  139.1750 N   0  0  0  0  0  2  0  0  0  0  0  0
  182.0070  177.5250  138.3050 C   0  0  0  0  0  0  0  0  0  0  0  0
  180.7860  177.4620  138.6180 O   0  0  0  0  0  0  0  0  0  0  0  0
  183.7240  177.6040  136.5540 N   0  0  0  0  0  2  0  0  0  0  0  0
  183.3700  174.9730  138.2540 C   0  0  0  0  0  1  0  0  0  0  0  0
  182.4830  176.9700  136.9960 C   0  0  1  0  0  3  0  0  0  0  0  0
  183.6010  175.3380  135.7570 C   0  0  2  0  0  3  0  0  0  0  0  0
  184.4750  176.5780  135.8300 C   0  0  0  0  0  2  0  0  0  0  0  0
  182.6880  175.4560  136.9680 C   0  0  1  0  0  3  0  0  0  0  0  0
  184.4080  171.6390  135.2390 C   0  0  0  0  0  0  0  0  0  0  0  0
  184.3600  174.0410  135.5140 C   0  0  0  0  0  0  0  0  0  0  0  0
  186.3790  172.8760  134.9690 N   0  0  0  0  0  0  0  0  0  0  0  0
  183.7130  170.3260  135.2340 C   0  0  0  0  0  1  0  0  0  0  0  0
  185.7340  174.0540  135.2070 C   0  0  0  0  0  0  0  0  0  0  0  0
  183.6990  172.8070  135.4970 C   0  0  0  0  0  3  0  0  0  0  0  0
  185.7390  171.7070  134.9880 N   0  0  0  0  0  0  0  0  0  0  0  0
  186.4520  175.2900  135.1210 N   0  0  0  0  0  2  0  0  0  0  0  0
  190.2360  174.2980  137.0600 C   0  0  0  0  0  2  0  0  0  0  0  0
  187.9090  175.3560  137.1160 C   0  0  1  0  0  3  0  0  0  0  0  0
  187.0940  176.4530  137.7850 C   0  0  0  0  0  1  0  0  0  0  0  0
  188.4880  176.6710  135.0030 C   0  0  0  0  0  0  0  0  0  0  0  0
  187.8090  177.7160  134.8160 O   0  0  0  0  0  0  0  0  0  0  0  0
  189.8680  176.6550  134.6060 N   0  0  0  0  0  2  0  0  0  0  0  0
  187.8270  175.4440  135.5850 C   0  0  2  0  0  3  0  0  0  0  0  0
  190.9480  175.8850  135.2280 C   0  0  0  0  0  2  0  0  0  0  0  0
  190.5320  174.4580  135.5640 C   0  0  0  0  0  2  0  0  0  0  0  0
  189.3480  175.4090  137.6270 C   0  0  0  0  0  2  0  0  0  0  0  0
  1 11  1  0  0  0  0
  2 25  1  6  0  0  0
  2 15  1  0  0  0  0
  4  3  1  1  0  0  0
  4  7  1  0  0  0  0
  5  9  1  6  0  0  0
  5  4  1  0  0  0  0
  6 17  1  6  0  0  0
  6  5  1  0  0  0  0
  7 18  1  0  0  0  0
  7  8  1  0  0  0  0
  9  2  1  0  0  0  0
 10  6  1  0  0  0  0
 10 11  2  0  0  0  0
 11 13  1  0  0  0  0
 12 16  1  6  0  0  0
 12  7  1  0  0  0  0
 13 14  2  0  0  0  0
 13 12  1  0  0  0  0
 15  3  1  0  0  0  0
 15 24  1  1  0  0  0
 19 23  1  0  0  0  0
 20 19  1  0  0  0  0
 21 24  1  0  0  0  0
 21 20  1  0  0  0  0
 22 23  1  0  0  0  0
 24 22  1  0  0  0  0
 26 25  1  0  0  0  0
 27 26  1  0  0  0  0
 28 27  1  0  0  0  0
 29 28  1  0  0  0  0
 30  1  1  0  0  0  0
 31 30  1  0  0  0  0
 32 33  2  0  0  0  0
 32 31  1  0  0  0  0
 34 36  1  0  0  0  0
 36 32  1  1  0  0  0
 37 41  1  1  0  0  0
 37 38  1  0  0  0  0
 37 39  1  0  0  0  0
 38 34  1  0  0  0  0
 39 36  1  0  0  0  0
 39 35  1  1  0  0  0
 40 45  1  0  0  0  0
 42 46  1  0  0  0  0
 42 44  2  0  0  0  0
 43 40  1  0  0  0  0
 44 41  1  0  0  0  0
 45 41  2  0  0  0  0
 46 40  2  0  0  0  0
 47 44  1  0  0  0  0
 48 57  1  0  0  0  0
 49 57  1  0  0  0  0
 49 50  1  1  0  0  0
 51 54  1  0  0  0  0
 52 51  2  0  0  0  0
 53 51  1  0  0  0  0
 53 55  1  0  0  0  0
 54 47  1  1  0  0  0
 54 49  1  0  0  0  0
 55 56  1  0  0  0  0
 56 48  1  0  0  0  0
M  END
>  <MODEL>
2

>  <REMARK>
 VINA RESULT:      -6.7      2.898      7.068
  Name = 
  12 active torsions:
  status: ('A' for Active; 'I' for Inactive)
    1  A    between atoms: C_1  and  C_46
    2  A    between atoms: N_3  and  C_27
    3  A    between atoms: N_3  and  C_53
    4  A    between atoms: N_6  and  C_35
    5  A    between atoms: C_16  and  C_23
    6  A    between atoms: C_17  and  C_33
    7  A    between atoms: C_17  and  C_35
    8  A    between atoms: C_19  and  C_26
    9  A    between atoms: N_22  and  C_26
   10  A    between atoms: N_22  and  C_46
   11  A    between atoms: C_29  and  C_31
   12  A    between atoms: C_44  and  C_50
                            x       y       z     vdW  Elec       q    Type
                         _______ _______ _______ _____ _____    ______ ____

>  <TORSDO>
F 12

$$$$
=
 OpenBabel11062416423D

 57 62  0  0  1  0  0  0  0  0999 V2000
  182.5040  178.0810  141.6270 C   0  0  0  0  0  2  0  0  0  0  0  0
  189.0510  177.1820  143.5220 C   0  0  2  0  0  3  0  0  0  0  0  0
  187.8690  178.1160  145.4470 N   0  0  0  0  0  2  0  0  0  0  0  0
  186.8730  178.7240  144.6500 N   0  0  1  0  0  0  0  0  0  0  0  0
  186.5650  177.8820  143.4770 C   0  0  1  0  0  3  0  0  0  0  0  0
  186.2140  178.7910  142.2980 C   0  0  2  0  0  3  0  0  0  0  0  0
  185.6620  178.9460  145.4800 C   0  0  0  0  0  0  0  0  0  0  0  0
  186.0060  179.9150  146.6020 C   0  0  0  0  0  1  0  0  0  0  0  0
  187.6110  176.7850  143.1670 C   0  0  0  0  0  2  0  0  0  0  0  0
  184.8700  178.4700  141.7440 C   0  0  0  0  0  3  0  0  0  0  0  0
  183.7170  178.4420  142.4260 C   0  0  0  0  0  0  0  0  0  0  0  0
  184.5120  179.6120  144.6790 C   0  0  2  0  0  3  0  0  0  0  0  0
  183.5900  178.7060  143.8940 C   0  0  0  0  0  0  0  0  0  0  0  0
  182.5320  178.2320  144.5460 C   0  0  0  0  0  2  0  0  0  0  0  0
  189.1240  178.1650  144.7000 C   0  0  1  0  0  3  0  0  0  0  0  0
  184.9260  180.7160  143.9490 F   0  0  0  0  0  0  0  0  0  0  0  0
  187.1710  178.7590  141.2840 O   0  0  0  0  0  1  0  0  0  0  0  0
  185.1870  177.6470  146.1420 C   0  0  0  0  0  1  0  0  0  0  0  0
  191.0240  175.4310  147.3260 C   0  0  0  0  0  2  0  0  0  0  0  0
  191.9180  175.9810  146.2080 C   0  0  0  0  0  2  0  0  0  0  0  0
  191.0900  176.6310  145.1010 C   0  0  0  0  0  2  0  0  0  0  0  0
  189.8380  177.6530  147.0930 C   0  0  0  0  0  2  0  0  0  0  0  0
  189.6890  176.1770  147.4630 C   0  0  0  0  0  2  0  0  0  0  0  0
  190.2970  177.8390  145.6330 C   0  0  0  0  0  3  0  0  0  0  0  0
  189.7850  177.7370  142.3070 C   0  0  0  0  0  2  0  0  0  0  0  0
  189.9600  176.6880  141.3120 N   0  0  0  0  0  2  0  0  0  0  0  0
  190.3930  177.3270  140.0790 C   0  0  0  0  0  2  0  0  0  0  0  0
  189.3390  177.1410  139.0050 C   0  0  0  0  0  2  0  0  0  0  0  0
  189.3730  178.2180  138.1160 O   0  0  0  0  0  1  0  0  0  0  0  0
  182.3610  178.9980  140.4210 C   0  0  0  0  0  2  0  0  0  0  0  0
  182.1690  178.2040  139.2160 N   0  0  0  0  0  2  0  0  0  0  0  0
  180.8680  177.9230  138.6960 C   0  0  0  0  0  0  0  0  0  0  0  0
  179.8380  178.1980  139.3720 O   0  0  0  0  0  0  0  0  0  0  0  0
  181.9380  177.5600  136.5180 N   0  0  0  0  0  2  0  0  0  0  0  0
  181.2150  175.0750  138.3190 C   0  0  0  0  0  1  0  0  0  0  0  0
  180.7360  177.3400  137.3210 C   0  0  1  0  0  3  0  0  0  0  0  0
  180.8370  175.5270  135.8540 C   0  0  2  0  0  3  0  0  0  0  0  0
  182.0610  176.4000  135.6350 C   0  0  0  0  0  2  0  0  0  0  0  0
  180.4010  175.8510  137.2760 C   0  0  1  0  0  3  0  0  0  0  0  0
  180.0940  171.8980  134.9170 C   0  0  0  0  0  0  0  0  0  0  0  0
  181.0110  174.0740  135.4360 C   0  0  0  0  0  0  0  0  0  0  0  0
  182.3890  172.2790  134.6550 N   0  0  0  0  0  0  0  0  0  0  0  0
  178.9310  170.9760  134.8210 C   0  0  0  0  0  1  0  0  0  0  0  0
  182.2720  173.5790  135.0480 C   0  0  0  0  0  0  0  0  0  0  0  0
  179.9130  173.2120  135.3340 C   0  0  0  0  0  3  0  0  0  0  0  0
  181.3370  171.4640  134.5940 N   0  0  0  0  0  0  0  0  0  0  0  0
  183.4220  174.4320  135.0450 N   0  0  0  0  0  2  0  0  0  0  0  0
  186.6430  171.6300  135.9550 C   0  0  0  0  0  2  0  0  0  0  0  0
  184.8220  173.2590  136.7090 C   0  0  1  0  0  3  0  0  0  0  0  0
  184.4380  174.2080  137.8340 C   0  0  0  0  0  1  0  0  0  0  0  0
  185.8080  175.0330  135.1560 C   0  0  0  0  0  0  0  0  0  0  0  0
  185.5290  176.2250  135.4540 O   0  0  0  0  0  0  0  0  0  0  0  0
  187.0960  174.7370  134.5940 N   0  0  0  0  0  2  0  0  0  0  0  0
  184.7680  173.9530  135.3400 C   0  0  2  0  0  3  0  0  0  0  0  0
  187.8490  173.4890  134.7420 C   0  0  0  0  0  2  0  0  0  0  0  0
  186.9690  172.2530  134.5940 C   0  0  0  0  0  2  0  0  0  0  0  0
  186.1940  172.6540  137.0020 C   0  0  0  0  0  2  0  0  0  0  0  0
  1 11  1  0  0  0  0
  2 25  1  6  0  0  0
  2 15  1  0  0  0  0
  4  3  1  1  0  0  0
  4  7  1  0  0  0  0
  5  9  1  6  0  0  0
  5  4  1  0  0  0  0
  6 17  1  6  0  0  0
  6  5  1  0  0  0  0
  7 18  1  0  0  0  0
  7  8  1  0  0  0  0
  9  2  1  0  0  0  0
 10  6  1  0  0  0  0
 10 11  2  0  0  0  0
 11 13  1  0  0  0  0
 12 16  1  6  0  0  0
 12  7  1  0  0  0  0
 13 14  2  0  0  0  0
 13 12  1  0  0  0  0
 15  3  1  0  0  0  0
 15 24  1  1  0  0  0
 19 23  1  0  0  0  0
 20 19  1  0  0  0  0
 21 24  1  0  0  0  0
 21 20  1  0  0  0  0
 22 23  1  0  0  0  0
 24 22  1  0  0  0  0
 26 25  1  0  0  0  0
 27 26  1  0  0  0  0
 28 27  1  0  0  0  0
 29 28  1  0  0  0  0
 30  1  1  0  0  0  0
 31 30  1  0  0  0  0
 32 31  1  0  0  0  0
 32 33  2  0  0  0  0
 34 36  1  0  0  0  0
 36 32  1  1  0  0  0
 37 41  1  1  0  0  0
 37 39  1  0  0  0  0
 38 37  1  0  0  0  0
 38 34  1  0  0  0  0
 39 36  1  0  0  0  0
 39 35  1  1  0  0  0
 40 45  1  0  0  0  0
 42 44  2  0  0  0  0
 43 40  1  0  0  0  0
 44 41  1  0  0  0  0
 45 41  2  0  0  0  0
 46 42  1  0  0  0  0
 46 40  2  0  0  0  0
 47 44  1  0  0  0  0
 48 57  1  0  0  0  0
 49 57  1  0  0  0  0
 49 50  1  1  0  0  0
 51 54  1  0  0  0  0
 51 52  2  0  0  0  0
 53 55  1  0  0  0  0
 53 51  1  0  0  0  0
 54 47  1  1  0  0  0
 54 49  1  0  0  0  0
 56 55  1  0  0  0  0
 56 48  1  0  0  0  0
M  END
>  <MODEL>
3

>  <REMARK>
 VINA RESULT:      -6.6      2.997      6.474
  Name = 
  12 active torsions:
  status: ('A' for Active; 'I' for Inactive)
    1  A    between atoms: C_1  and  C_46
    2  A    between atoms: N_3  and  C_27
    3  A    between atoms: N_3  and  C_53
    4  A    between atoms: N_6  and  C_35
    5  A    between atoms: C_16  and  C_23
    6  A    between atoms: C_17  and  C_33
    7  A    between atoms: C_17  and  C_35
    8  A    between atoms: C_19  and  C_26
    9  A    between atoms: N_22  and  C_26
   10  A    between atoms: N_22  and  C_46
   11  A    between atoms: C_29  and  C_31
   12  A    between atoms: C_44  and  C_50
                            x       y       z     vdW  Elec       q    Type
                         _______ _______ _______ _____ _____    ______ ____

>  <TORSDO>
F 12

$$$$
=
 OpenBabel11062416423D

 57 62  0  0  1  0  0  0  0  0999 V2000
  185.7410  179.1870  142.7880 C   0  0  0  0  0  2  0  0  0  0  0  0
  189.8820  176.3000  138.1200 C   0  0  2  0  0  3  0  0  0  0  0  0
  190.9430  176.0030  140.3010 N   0  0  0  0  0  2  0  0  0  0  0  0
  190.2900  177.1200  140.8690 N   0  0  1  0  0  0  0  0  0  0  0  0
  188.9240  177.2510  140.3230 C   0  0  1  0  0  3  0  0  0  0  0  0
  188.5700  178.7360  140.2350 C   0  0  2  0  0  3  0  0  0  0  0  0
  190.2600  176.9620  142.3440 C   0  0  0  0  0  0  0  0  0  0  0  0
  191.6910  176.9540  142.8660 C   0  0  0  0  0  1  0  0  0  0  0  0
  188.6550  176.4400  139.0340 C   0  0  0  0  0  2  0  0  0  0  0  0
  187.3220  179.0440  140.9870 C   0  0  0  0  0  3  0  0  0  0  0  0
  187.0890  178.7780  142.2780 C   0  0  0  0  0  0  0  0  0  0  0  0
  189.5550  178.1510  143.0500 C   0  0  2  0  0  3  0  0  0  0  0  0
  188.0510  178.0880  143.1930 C   0  0  0  0  0  0  0  0  0  0  0  0
  187.5860  177.4830  144.2830 C   0  0  0  0  0  2  0  0  0  0  0  0
  191.2070  176.3090  138.8980 C   0  0  1  0  0  3  0  0  0  0  0  0
  189.9990  179.3880  142.6080 F   0  0  0  0  0  0  0  0  0  0  0  0
  188.4650  179.1940  138.9220 O   0  0  0  0  0  1  0  0  0  0  0  0
  189.6280  175.6280  142.7570 C   0  0  0  0  0  1  0  0  0  0  0  0
  193.4980  174.9370  135.6040 C   0  0  0  0  0  2  0  0  0  0  0  0
  194.2920  175.1550  136.8980 C   0  0  0  0  0  2  0  0  0  0  0  0
  193.5060  176.0000  137.8980 C   0  0  0  0  0  2  0  0  0  0  0  0
  191.5830  174.4580  137.1860 C   0  0  0  0  0  2  0  0  0  0  0  0
  191.9760  174.9850  135.8060 C   0  0  0  0  0  2  0  0  0  0  0  0
  192.2040  175.2960  138.3220 C   0  0  0  0  0  3  0  0  0  0  0  0
  189.8830  177.3670  137.0330 C   0  0  0  0  0  2  0  0  0  0  0  0
  188.6270  177.3280  136.2980 N   0  0  0  0  0  2  0  0  0  0  0  0
  188.9300  176.8980  134.9410 C   0  0  0  0  0  2  0  0  0  0  0  0
  188.4140  175.4880  134.7230 C   0  0  0  0  0  2  0  0  0  0  0  0
  187.4190  175.1980  135.6590 O   0  0  0  0  0  1  0  0  0  0  0  0
  185.0300  178.0090  143.4370 C   0  0  0  0  0  2  0  0  0  0  0  0
  183.6880  177.8790  142.8900 N   0  0  0  0  0  2  0  0  0  0  0  0
  182.6840  178.8740  143.1050 C   0  0  0  0  0  0  0  0  0  0  0  0
  182.8790  179.8070  143.9320 O   0  0  0  0  0  0  0  0  0  0  0  0
  180.7220  180.1100  142.3040 N   0  0  0  0  0  2  0  0  0  0  0  0
  182.8190  179.0190  140.2180 C   0  0  0  0  0  1  0  0  0  0  0  0
  181.4170  178.8240  142.3040 C   0  0  1  0  0  3  0  0  0  0  0  0
  180.2880  178.9130  140.2640 C   0  0  2  0  0  3  0  0  0  0  0  0
  180.0600  180.2200  141.0040 C   0  0  0  0  0  2  0  0  0  0  0  0
  181.5820  178.3730  140.8550 C   0  0  1  0  0  3  0  0  0  0  0  0
  180.1920  180.2750  136.6950 C   0  0  0  0  0  0  0  0  0  0  0  0
  180.1350  179.0050  138.7530 C   0  0  0  0  0  0  0  0  0  0  0  0
  179.8070  177.9660  136.6210 N   0  0  0  0  0  0  0  0  0  0  0  0
  180.3550  181.5680  135.9800 C   0  0  0  0  0  1  0  0  0  0  0  0
  179.9140  177.8510  137.9750 C   0  0  0  0  0  0  0  0  0  0  0  0
  180.3020  180.2220  138.0810 C   0  0  0  0  0  3  0  0  0  0  0  0
  179.9380  179.1380  136.0000 N   0  0  0  0  0  0  0  0  0  0  0  0
  179.8210  176.5630  138.5920 N   0  0  0  0  0  2  0  0  0  0  0  0
  179.8960  172.9070  136.2050 C   0  0  0  0  0  2  0  0  0  0  0  0
  179.5620  174.1100  138.4370 C   0  0  1  0  0  3  0  0  0  0  0  0
  179.6570  173.9150  139.9420 C   0  0  0  0  0  1  0  0  0  0  0  0
  181.8410  175.2270  138.1430 C   0  0  0  0  0  0  0  0  0  0  0  0
  182.3840  175.6290  139.2070 O   0  0  0  0  0  0  0  0  0  0  0  0
  182.6680  174.7100  137.0890 N   0  0  0  0  0  2  0  0  0  0  0  0
  180.3450  175.3480  137.9770 C   0  0  2  0  0  3  0  0  0  0  0  0
  182.2990  173.6840  136.1110 C   0  0  0  0  0  2  0  0  0  0  0  0
  180.8910  173.8790  135.5600 C   0  0  0  0  0  2  0  0  0  0  0  0
  180.0180  172.8340  137.7300 C   0  0  0  0  0  2  0  0  0  0  0  0
  1 30  1  0  0  0  0
  2 25  1  6  0  0  0
  2 15  1  0  0  0  0
  2  9  1  0  0  0  0
  4  3  1  6  0  0  0
  4  7  1  0  0  0  0
  5  9  1  6  0  0  0
  5  4  1  0  0  0  0
  6 17  1  6  0  0  0
  6  5  1  0  0  0  0
  6 10  1  0  0  0  0
  7 18  1  0  0  0  0
  7  8  1  0  0  0  0
  7 12  1  0  0  0  0
 10 11  2  0  0  0  0
 11  1  1  0  0  0  0
 11 13  1  0  0  0  0
 12 16  1  6  0  0  0
 12 13  1  0  0  0  0
 13 14  2  0  0  0  0
 15 24  1  6  0  0  0
 15  3  1  0  0  0  0
 19 23  1  0  0  0  0
 19 20  1  0  0  0  0
 20 21  1  0  0  0  0
 21 24  1  0  0  0  0
 22 24  1  0  0  0  0
 23 22  1  0  0  0  0
 26 25  1  0  0  0  0
 27 26  1  0  0  0  0
 28 27  1  0  0  0  0
 28 29  1  0  0  0  0
 31 32  1  0  0  0  0
 31 30  1  0  0  0  0
 32 33  2  0  0  0  0
 36 34  1  0  0  0  0
 36 32  1  6  0  0  0
 37 41  1  6  0  0  0
 37 39  1  0  0  0  0
 37 38  1  0  0  0  0
 38 34  1  0  0  0  0
 39 35  1  6  0  0  0
 39 36  1  0  0  0  0
 40 45  1  0  0  0  0
 42 44  2  0  0  0  0
 43 40  1  0  0  0  0
 44 47  1  0  0  0  0
 44 41  1  0  0  0  0
 45 41  2  0  0  0  0
 46 42  1  0  0  0  0
 46 40  2  0  0  0  0
 48 57  1  0  0  0  0
 49 50  1  1  0  0  0
 51 52  2  0  0  0  0
 53 51  1  0  0  0  0
 54 51  1  0  0  0  0
 54 49  1  0  0  0  0
 54 47  1  1  0  0  0
 55 53  1  0  0  0  0
 56 55  1  0  0  0  0
 56 48  1  0  0  0  0
 57 49  1  0  0  0  0
M  END
>  <MODEL>
4

>  <REMARK>
 VINA RESULT:      -5.6      1.483      2.144
  Name = 
  12 active torsions:
  status: ('A' for Active; 'I' for Inactive)
    1  A    between atoms: C_1  and  C_46
    2  A    between atoms: N_3  and  C_27
    3  A    between atoms: N_3  and  C_53
    4  A    between atoms: N_6  and  C_35
    5  A    between atoms: C_16  and  C_23
    6  A    between atoms: C_17  and  C_33
    7  A    between atoms: C_17  and  C_35
    8  A    between atoms: C_19  and  C_26
    9  A    between atoms: N_22  and  C_26
   10  A    between atoms: N_22  and  C_46
   11  A    between atoms: C_29  and  C_31
   12  A    between atoms: C_44  and  C_50
                            x       y       z     vdW  Elec       q    Type
                         _______ _______ _______ _____ _____    ______ ____

>  <TORSDO>
F 12

$$$$
=
 OpenBabel11062416423D

 57 62  0  0  1  0  0  0  0  0999 V2000
  189.4590  174.9960  136.9950 C   0  0  0  0  0  2  0  0  0  0  0  0
  182.9020  176.8990  137.8010 C   0  0  2  0  0  3  0  0  0  0  0  0
  182.8930  174.5250  137.2200 N   0  0  0  0  0  2  0  0  0  0  0  0
  184.1400  174.5930  136.5590 N   0  0  1  0  0  0  0  0  0  0  0  0
  185.0340  175.5520  137.2390 C   0  0  1  0  0  3  0  0  0  0  0  0
  185.9160  176.2300  136.1900 C   0  0  2  0  0  3  0  0  0  0  0  0
  184.7420  173.2360  136.5250 C   0  0  0  0  0  0  0  0  0  0  0  0
  183.8410  172.3190  135.7110 C   0  0  0  0  0  1  0  0  0  0  0  0
  184.3290  176.5180  138.2210 C   0  0  0  0  0  2  0  0  0  0  0  0
  187.3620  176.0550  136.5000 C   0  0  0  0  0  3  0  0  0  0  0  0
  187.9980  174.8910  136.6880 C   0  0  0  0  0  0  0  0  0  0  0  0
  186.1210  173.2210  135.8140 C   0  0  2  0  0  3  0  0  0  0  0  0
  187.3410  173.5460  136.6460 C   0  0  0  0  0  0  0  0  0  0  0  0
  187.9240  172.5240  137.2650 C   0  0  0  0  0  2  0  0  0  0  0  0
  182.2030  175.7930  136.9960 C   0  0  1  0  0  3  0  0  0  0  0  0
  186.1120  173.8820  134.5950 F   0  0  0  0  0  0  0  0  0  0  0  0
  185.6220  177.5830  136.0230 O   0  0  0  0  0  1  0  0  0  0  0  0
  184.8430  172.6300  137.9290 C   0  0  0  0  0  1  0  0  0  0  0  0
  179.1350  173.5450  138.8700 C   0  0  0  0  0  2  0  0  0  0  0  0
  179.2430  175.0030  139.3330 C   0  0  0  0  0  2  0  0  0  0  0  0
  180.5770  175.6200  138.9220 C   0  0  0  0  0  2  0  0  0  0  0  0
  180.0530  174.4570  136.6970 C   0  0  0  0  0  2  0  0  0  0  0  0
  179.9680  173.2390  137.6170 C   0  0  0  0  0  2  0  0  0  0  0  0
  180.7270  175.6580  137.3900 C   0  0  0  0  0  3  0  0  0  0  0  0
  182.8860  178.2180  137.0390 C   0  0  0  0  0  2  0  0  0  0  0  0
  182.5990  179.3160  137.9510 N   0  0  0  0  0  2  0  0  0  0  0  0
  181.1530  179.4640  138.0130 C   0  0  0  0  0  2  0  0  0  0  0  0
  180.8000  180.7940  138.6520 C   0  0  0  0  0  2  0  0  0  0  0  0
  179.5080  180.7360  139.1800 O   0  0  0  0  0  1  0  0  0  0  0  0
  189.8910  176.4530  137.0660 C   0  0  0  0  0  2  0  0  0  0  0  0
  189.3990  177.0560  138.2970 N   0  0  0  0  0  2  0  0  0  0  0  0
  190.2460  177.2590  139.4300 C   0  0  0  0  0  0  0  0  0  0  0  0
  191.4010  176.7510  139.4610 O   0  0  0  0  0  0  0  0  0  0  0  0
  188.4570  178.7070  140.2810 N   0  0  0  0  0  2  0  0  0  0  0  0
  189.1140  176.0160  141.7850 C   0  0  0  0  0  1  0  0  0  0  0  0
  189.7670  178.1210  140.5600 C   0  0  1  0  0  3  0  0  0  0  0  0
  188.7480  178.3710  142.6450 C   0  0  2  0  0  3  0  0  0  0  0  0
  187.7710  178.8120  141.5680 C   0  0  0  0  0  2  0  0  0  0  0  0
  189.6970  177.4280  141.9190 C   0  0  1  0  0  3  0  0  0  0  0  0
  188.2040  177.4930  146.3230 C   0  0  0  0  0  0  0  0  0  0  0  0
  188.0980  177.9260  143.9470 C   0  0  0  0  0  0  0  0  0  0  0  0
  186.1620  177.2730  145.1960 N   0  0  0  0  0  0  0  0  0  0  0  0
  188.9790  177.4190  147.5890 C   0  0  0  0  0  1  0  0  0  0  0  0
  186.7190  177.6460  144.0080 C   0  0  0  0  0  0  0  0  0  0  0  0
  188.8280  177.8700  145.1390 C   0  0  0  0  0  3  0  0  0  0  0  0
  186.8800  177.1960  146.3170 N   0  0  0  0  0  0  0  0  0  0  0  0
  185.8960  177.7690  142.8430 N   0  0  0  0  0  2  0  0  0  0  0  0
  181.5550  177.7970  142.3700 C   0  0  0  0  0  2  0  0  0  0  0  0
  183.9010  178.2990  141.4840 C   0  0  1  0  0  3  0  0  0  0  0  0
  184.6700  179.2250  140.5540 C   0  0  0  0  0  1  0  0  0  0  0  0
  184.4130  179.5650  143.6440 C   0  0  0  0  0  0  0  0  0  0  0  0
  185.3420  180.4130  143.5640 O   0  0  0  0  0  0  0  0  0  0  0  0
  183.2930  179.8360  144.5000 N   0  0  0  0  0  2  0  0  0  0  0  0
  184.5240  178.2630  142.8870 C   0  0  2  0  0  3  0  0  0  0  0  0
  181.9150  179.3770  144.3090 C   0  0  0  0  0  2  0  0  0  0  0  0
  181.8400  177.9180  143.8720 C   0  0  0  0  0  2  0  0  0  0  0  0
  182.4300  178.7130  141.5090 C   0  0  0  0  0  2  0  0  0  0  0  0
  1 30  1  0  0  0  0
  2 25  1  6  0  0  0
  2  9  1  0  0  0  0
  4  3  1  1  0  0  0
  4  5  1  0  0  0  0
  5  9  1  6  0  0  0
  6 17  1  1  0  0  0
  6 10  1  0  0  0  0
  6  5  1  0  0  0  0
  7  4  1  0  0  0  0
  7 18  1  0  0  0  0
  8  7  1  0  0  0  0
 10 11  2  0  0  0  0
 11  1  1  0  0  0  0
 12 16  1  6  0  0  0
 12  7  1  0  0  0  0
 12 13  1  0  0  0  0
 13 11  1  0  0  0  0
 13 14  2  0  0  0  0
 15  3  1  0  0  0  0
 15 24  1  1  0  0  0
 15  2  1  0  0  0  0
 19 20  1  0  0  0  0
 21 20  1  0  0  0  0
 22 24  1  0  0  0  0
 22 23  1  0  0  0  0
 23 19  1  0  0  0  0
 24 21  1  0  0  0  0
 25 26  1  0  0  0  0
 26 27  1  0  0  0  0
 27 28  1  0  0  0  0
 28 29  1  0  0  0  0
 30 31  1  0  0  0  0
 31 32  1  0  0  0  0
 32 33  2  0  0  0  0
 34 36  1  0  0  0  0
 34 38  1  0  0  0  0
 36 32  1  6  0  0  0
 36 39  1  0  0  0  0
 37 41  1  1  0  0  0
 38 37  1  0  0  0  0
 39 35  1  6  0  0  0
 39 37  1  0  0  0  0
 40 43  1  0  0  0  0
 41 44  1  0  0  0  0
 41 45  2  0  0  0  0
 42 46  1  0  0  0  0
 44 42  2  0  0  0  0
 45 40  1  0  0  0  0
 46 40  2  0  0  0  0
 47 44  1  0  0  0  0
 48 56  1  0  0  0  0
 49 50  1  6  0  0  0
 49 57  1  0  0  0  0
 49 54  1  0  0  0  0
 51 53  1  0  0  0  0
 52 51  2  0  0  0  0
 54 47  1  6  0  0  0
 54 51  1  0  0  0  0
 55 53  1  0  0  0  0
 56 55  1  0  0  0  0
 57 48  1  0  0  0  0
M  END
>  <MODEL>
5

>  <REMARK>
 VINA RESULT:      -5.4      2.855      9.241
  Name = 
  12 active torsions:
  status: ('A' for Active; 'I' for Inactive)
    1  A    between atoms: C_1  and  C_46
    2  A    between atoms: N_3  and  C_27
    3  A    between atoms: N_3  and  C_53
    4  A    between atoms: N_6  and  C_35
    5  A    between atoms: C_16  and  C_23
    6  A    between atoms: C_17  and  C_33
    7  A    between atoms: C_17  and  C_35
    8  A    between atoms: C_19  and  C_26
    9  A    between atoms: N_22  and  C_26
   10  A    between atoms: N_22  and  C_46
   11  A    between atoms: C_29  and  C_31
   12  A    between atoms: C_44  and  C_50
                            x       y       z     vdW  Elec       q    Type
                         _______ _______ _______ _____ _____    ______ ____

>  <TORSDO>
F 12

$$$$
=
 OpenBabel11062416423D

 57 62  0  0  1  0  0  0  0  0999 V2000
  182.6000  178.1330  141.7470 C   0  0  0  0  0  2  0  0  0  0  0  0
  189.2200  177.1780  143.3380 C   0  0  2  0  0  3  0  0  0  0  0  0
  188.1150  178.0220  145.3470 N   0  0  0  0  0  2  0  0  0  0  0  0
  187.0860  178.6610  144.6190 N   0  0  1  0  0  0  0  0  0  0  0  0
  186.7330  177.8690  143.4230 C   0  0  1  0  0  3  0  0  0  0  0  0
  186.3330  178.8270  142.3000 C   0  0  2  0  0  3  0  0  0  0  0  0
  185.9090  178.8400  145.5050 C   0  0  0  0  0  0  0  0  0  0  0  0
  186.2950  179.7610  146.6550 C   0  0  0  0  0  1  0  0  0  0  0  0
  187.7680  176.7910  143.0240 C   0  0  0  0  0  2  0  0  0  0  0  0
  184.9680  178.5260  141.7870 C   0  0  0  0  0  3  0  0  0  0  0  0
  183.8440  178.4630  142.5120 C   0  0  0  0  0  0  0  0  0  0  0  0
  184.7260  179.5370  144.7800 C   0  0  2  0  0  3  0  0  0  0  0  0
  183.7750  178.6620  143.9940 C   0  0  0  0  0  0  0  0  0  0  0  0
  182.7450  178.1560  144.6660 C   0  0  0  0  0  2  0  0  0  0  0  0
  189.3380  178.1090  144.5540 C   0  0  1  0  0  3  0  0  0  0  0  0
  185.1080  180.6740  144.0840 F   0  0  0  0  0  0  0  0  0  0  0  0
  187.2480  178.8440  141.2480 O   0  0  0  0  0  1  0  0  0  0  0  0
  185.4640  177.5130  146.1280 C   0  0  0  0  0  1  0  0  0  0  0  0
  191.1020  175.5500  147.4390 C   0  0  0  0  0  2  0  0  0  0  0  0
  191.9350  175.7640  146.1700 C   0  0  0  0  0  2  0  0  0  0  0  0
  191.0910  176.3570  145.0430 C   0  0  0  0  0  2  0  0  0  0  0  0
  190.2340  177.8710  146.9290 C   0  0  0  0  0  2  0  0  0  0  0  0
  189.9140  176.5160  147.5600 C   0  0  0  0  0  2  0  0  0  0  0  0
  190.5490  177.7470  145.4250 C   0  0  0  0  0  3  0  0  0  0  0  0
  189.9030  177.7880  142.1200 C   0  0  0  0  0  2  0  0  0  0  0  0
  191.0500  176.9770  141.7360 N   0  0  0  0  0  2  0  0  0  0  0  0
  190.9840  176.7850  140.2960 C   0  0  0  0  0  2  0  0  0  0  0  0
  189.9270  177.6980  139.7040 C   0  0  0  0  0  2  0  0  0  0  0  0
  190.0340  177.7040  138.3110 O   0  0  0  0  0  1  0  0  0  0  0  0
  182.3130  179.1990  140.7000 C   0  0  0  0  0  2  0  0  0  0  0  0
  182.2670  178.5940  139.3770 N   0  0  0  0  0  2  0  0  0  0  0  0
  183.2940  178.8160  138.4080 C   0  0  0  0  0  0  0  0  0  0  0  0
  184.1780  179.6940  138.6070 O   0  0  0  0  0  0  0  0  0  0  0  0
  184.6430  178.0180  136.5210 N   0  0  0  0  0  2  0  0  0  0  0  0
  183.6130  175.9520  138.6680 C   0  0  0  0  0  1  0  0  0  0  0  0
  183.3370  177.9650  137.1750 C   0  0  1  0  0  3  0  0  0  0  0  0
  183.5900  175.8900  136.1350 C   0  0  2  0  0  3  0  0  0  0  0  0
  184.8550  176.7030  135.9170 C   0  0  0  0  0  2  0  0  0  0  0  0
  182.9710  176.4970  137.3860 C   0  0  1  0  0  3  0  0  0  0  0  0
  185.1610  172.4100  136.2740 C   0  0  0  0  0  0  0  0  0  0  0  0
  183.7810  174.3840  136.0480 C   0  0  0  0  0  0  0  0  0  0  0  0
  182.8940  172.1820  135.7320 N   0  0  0  0  0  0  0  0  0  0  0  0
  186.4780  171.7810  136.5550 C   0  0  0  0  0  1  0  0  0  0  0  0
  182.6940  173.5300  135.7770 C   0  0  0  0  0  0  0  0  0  0  0  0
  185.0200  173.7930  136.3260 C   0  0  0  0  0  3  0  0  0  0  0  0
  184.0880  171.6390  135.9690 N   0  0  0  0  0  0  0  0  0  0  0  0
  181.3810  174.0640  135.5700 N   0  0  0  0  0  2  0  0  0  0  0  0
  179.6940  174.0880  139.5970 C   0  0  0  0  0  2  0  0  0  0  0  0
  179.8060  173.1290  137.2290 C   0  0  1  0  0  3  0  0  0  0  0  0
  178.9760  172.4150  136.1730 C   0  0  0  0  0  1  0  0  0  0  0  0
  179.5050  175.4880  136.2920 C   0  0  0  0  0  0  0  0  0  0  0  0
  179.0540  175.5460  135.1170 O   0  0  0  0  0  0  0  0  0  0  0  0
  179.1270  176.5010  137.2360 N   0  0  0  0  0  2  0  0  0  0  0  0
  180.4750  174.3910  136.6660 C   0  0  2  0  0  3  0  0  0  0  0  0
  178.9950  176.3390  138.6860 C   0  0  0  0  0  2  0  0  0  0  0  0
  180.1330  175.5250  139.2910 C   0  0  0  0  0  2  0  0  0  0  0  0
  178.9300  173.4260  138.4460 C   0  0  0  0  0  2  0  0  0  0  0  0
  1 11  1  0  0  0  0
  2 25  1  6  0  0  0
  2 15  1  0  0  0  0
  4  3  1  1  0  0  0
  4  7  1  0  0  0  0
  5  9  1  6  0  0  0
  5  4  1  0  0  0  0
  6 17  1  6  0  0  0
  6  5  1  0  0  0  0
  7 18  1  0  0  0  0
  7  8  1  0  0  0  0
  9  2  1  0  0  0  0
 10  6  1  0  0  0  0
 10 11  2  0  0  0  0
 11 13  1  0  0  0  0
 12 16  1  6  0  0  0
 12  7  1  0  0  0  0
 13 14  2  0  0  0  0
 13 12  1  0  0  0  0
 15  3  1  0  0  0  0
 15 24  1  1  0  0  0
 19 23  1  0  0  0  0
 20 19  1  0  0  0  0
 21 24  1  0  0  0  0
 21 20  1  0  0  0  0
 22 23  1  0  0  0  0
 24 22  1  0  0  0  0
 26 25  1  0  0  0  0
 27 26  1  0  0  0  0
 28 27  1  0  0  0  0
 29 28  1  0  0  0  0
 30  1  1  0  0  0  0
 31 30  1  0  0  0  0
 32 33  2  0  0  0  0
 32 31  1  0  0  0  0
 34 36  1  0  0  0  0
 36 39  1  0  0  0  0
 36 32  1  1  0  0  0
 37 41  1  1  0  0  0
 37 39  1  0  0  0  0
 38 37  1  0  0  0  0
 38 34  1  0  0  0  0
 39 35  1  1  0  0  0
 40 45  1  0  0  0  0
 40 43  1  0  0  0  0
 41 45  2  0  0  0  0
 42 44  2  0  0  0  0
 42 46  1  0  0  0  0
 44 41  1  0  0  0  0
 46 40  2  0  0  0  0
 47 44  1  0  0  0  0
 49 50  1  6  0  0  0
 49 57  1  0  0  0  0
 51 54  1  0  0  0  0
 51 53  1  0  0  0  0
 52 51  2  0  0  0  0
 53 55  1  0  0  0  0
 54 47  1  6  0  0  0
 54 49  1  0  0  0  0
 55 56  1  0  0  0  0
 56 48  1  0  0  0  0
 57 48  1  0  0  0  0
M  END
>  <MODEL>
6

>  <REMARK>
 VINA RESULT:      -5.3      3.051      6.509
  Name = 
  12 active torsions:
  status: ('A' for Active; 'I' for Inactive)
    1  A    between atoms: C_1  and  C_46
    2  A    between atoms: N_3  and  C_27
    3  A    between atoms: N_3  and  C_53
    4  A    between atoms: N_6  and  C_35
    5  A    between atoms: C_16  and  C_23
    6  A    between atoms: C_17  and  C_33
    7  A    between atoms: C_17  and  C_35
    8  A    between atoms: C_19  and  C_26
    9  A    between atoms: N_22  and  C_26
   10  A    between atoms: N_22  and  C_46
   11  A    between atoms: C_29  and  C_31
   12  A    between atoms: C_44  and  C_50
                            x       y       z     vdW  Elec       q    Type
                         _______ _______ _______ _____ _____    ______ ____

>  <TORSDO>
F 12

$$$$
=
 OpenBabel11062416423D

 57 62  0  0  1  0  0  0  0  0999 V2000
  180.0910  179.5290  140.3170 C   0  0  0  0  0  2  0  0  0  0  0  0
  181.5130  173.5870  137.1630 C   0  0  2  0  0  3  0  0  0  0  0  0
  182.7660  175.3340  136.0010 N   0  0  0  0  0  2  0  0  0  0  0  0
  181.8730  176.3570  136.3920 N   0  0  1  0  0  0  0  0  0  0  0  0
  181.3550  176.0980  137.7500 C   0  0  1  0  0  3  0  0  0  0  0  0
  179.9160  176.6090  137.8330 C   0  0  2  0  0  3  0  0  0  0  0  0
  182.5780  177.6610  136.3300 C   0  0  0  0  0  0  0  0  0  0  0  0
  182.9830  177.9340  134.8880 C   0  0  0  0  0  1  0  0  0  0  0  0
  181.5650  174.6550  138.2660 C   0  0  0  0  0  2  0  0  0  0  0  0
  179.7500  177.5920  138.9390 C   0  0  0  0  0  3  0  0  0  0  0  0
  180.4560  178.7170  139.1130 C   0  0  0  0  0  0  0  0  0  0  0  0
  181.6650  178.8450  136.7470 C   0  0  2  0  0  3  0  0  0  0  0  0
  181.5700  179.1700  138.2210 C   0  0  0  0  0  0  0  0  0  0  0  0
  182.4750  180.0190  138.6990 C   0  0  0  0  0  2  0  0  0  0  0  0
  181.9850  174.1160  135.8000 C   0  0  1  0  0  3  0  0  0  0  0  0
  180.4270  178.8240  136.1220 F   0  0  0  0  0  0  0  0  0  0  0  0
  178.9810  175.5830  137.9600 O   0  0  0  0  0  1  0  0  0  0  0  0
  183.8670  177.6450  137.1600 C   0  0  0  0  0  1  0  0  0  0  0  0
  185.3790  171.5760  135.7160 C   0  0  0  0  0  2  0  0  0  0  0  0
  184.0460  170.8830  135.4090 C   0  0  0  0  0  2  0  0  0  0  0  0
  182.8600  171.7460  135.8330 C   0  0  0  0  0  2  0  0  0  0  0  0
  184.2380  173.6040  134.7240 C   0  0  0  0  0  2  0  0  0  0  0  0
  185.2840  173.1090  135.7230 C   0  0  0  0  0  2  0  0  0  0  0  0
  182.8280  173.0740  135.0540 C   0  0  0  0  0  3  0  0  0  0  0  0
  180.1220  172.9750  137.0550 C   0  0  0  0  0  2  0  0  0  0  0  0
  180.1890  171.5430  137.3140 N   0  0  0  0  0  2  0  0  0  0  0  0
  178.9310  170.9630  136.8710 C   0  0  0  0  0  2  0  0  0  0  0  0
  178.9540  170.7720  135.3670 C   0  0  0  0  0  2  0  0  0  0  0  0
  180.2300  170.3730  134.9600 O   0  0  0  0  0  1  0  0  0  0  0  0
  180.4680  178.7940  141.5950 C   0  0  0  0  0  2  0  0  0  0  0  0
  181.8210  179.1530  141.9920 N   0  0  0  0  0  2  0  0  0  0  0  0
  182.2910  178.9700  143.3290 C   0  0  0  0  0  0  0  0  0  0  0  0
  181.4850  178.6650  144.2510 O   0  0  0  0  0  0  0  0  0  0  0  0
  184.1960  178.1530  144.6420 N   0  0  0  0  0  2  0  0  0  0  0  0
  184.2080  177.7920  141.5100 C   0  0  0  0  0  1  0  0  0  0  0  0
  183.7570  179.1000  143.6180 C   0  0  1  0  0  3  0  0  0  0  0  0
  185.9860  178.6330  143.1080 C   0  0  2  0  0  3  0  0  0  0  0  0
  185.5730  177.7920  144.3040 C   0  0  0  0  0  2  0  0  0  0  0  0
  184.6730  178.9470  142.4050 C   0  0  1  0  0  3  0  0  0  0  0  0
  188.4240  177.9020  140.2580 C   0  0  0  0  0  0  0  0  0  0  0  0
  187.1480  178.0650  142.3050 C   0  0  0  0  0  0  0  0  0  0  0  0
  189.1660  176.7830  142.1770 N   0  0  0  0  0  0  0  0  0  0  0  0
  188.6180  178.2510  138.8260 C   0  0  0  0  0  1  0  0  0  0  0  0
  188.1230  177.2540  142.9180 C   0  0  0  0  0  0  0  0  0  0  0  0
  187.3350  178.4060  140.9610 C   0  0  0  0  0  3  0  0  0  0  0  0
  189.3110  177.0930  140.8890 N   0  0  0  0  0  0  0  0  0  0  0  0
  188.0390  176.9400  144.3120 N   0  0  0  0  0  2  0  0  0  0  0  0
  190.8230  175.5640  147.3830 C   0  0  0  0  0  2  0  0  0  0  0  0
  188.7720  176.9180  146.6720 C   0  0  1  0  0  3  0  0  0  0  0  0
  187.9480  178.1440  147.0340 C   0  0  0  0  0  1  0  0  0  0  0  0
  190.1780  178.0360  144.8550 C   0  0  0  0  0  0  0  0  0  0  0  0
  189.7470  179.1490  144.4510 O   0  0  0  0  0  0  0  0  0  0  0  0
  191.5950  177.8200  144.9280 N   0  0  0  0  0  2  0  0  0  0  0  0
  189.1990  176.9370  145.1980 C   0  0  2  0  0  3  0  0  0  0  0  0
  192.3000  176.9490  145.8720 C   0  0  0  0  0  2  0  0  0  0  0  0
  191.6020  175.6080  146.0640 C   0  0  0  0  0  2  0  0  0  0  0  0
  189.9630  176.8090  147.6240 C   0  0  0  0  0  2  0  0  0  0  0  0
  1 30  1  0  0  0  0
  2 25  1  6  0  0  0
  2  9  1  0  0  0  0
  4  3  1  1  0  0  0
  4  5  1  0  0  0  0
  5  6  1  0  0  0  0
  5  9  1  6  0  0  0
  6 17  1  1  0  0  0
  6 10  1  0  0  0  0
  7  4  1  0  0  0  0
  7 12  1  0  0  0  0
  7 18  1  0  0  0  0
  8  7  1  0  0  0  0
 10 11  2  0  0  0  0
 11  1  1  0  0  0  0
 12 16  1  1  0  0  0
 12 13  1  0  0  0  0
 13 14  2  0  0  0  0
 13 11  1  0  0  0  0
 15 24  1  1  0  0  0
 15  3  1  0  0  0  0
 15  2  1  0  0  0  0
 19 23  1  0  0  0  0
 20 19  1  0  0  0  0
 20 21  1  0  0  0  0
 22 24  1  0  0  0  0
 22 23  1  0  0  0  0
 24 21  1  0  0  0  0
 25 26  1  0  0  0  0
 27 26  1  0  0  0  0
 28 27  1  0  0  0  0
 29 28  1  0  0  0  0
 30 31  1  0  0  0  0
 31 32  1  0  0  0  0
 32 33  2  0  0  0  0
 36 32  1  6  0  0  0
 36 34  1  0  0  0  0
 37 41  1  6  0  0  0
 37 38  1  0  0  0  0
 38 34  1  0  0  0  0
 39 35  1  6  0  0  0
 39 37  1  0  0  0  0
 39 36  1  0  0  0  0
 40 46  2  0  0  0  0
 40 45  1  0  0  0  0
 41 44  1  0  0  0  0
 42 44  2  0  0  0  0
 43 40  1  0  0  0  0
 44 47  1  0  0  0  0
 45 41  2  0  0  0  0
 46 42  1  0  0  0  0
 48 57  1  0  0  0  0
 49 50  1  1  0  0  0
 49 57  1  0  0  0  0
 51 53  1  0  0  0  0
 51 54  1  0  0  0  0
 52 51  2  0  0  0  0
 53 55  1  0  0  0  0
 54 47  1  6  0  0  0
 54 49  1  0  0  0  0
 55 56  1  0  0  0  0
 56 48  1  0  0  0  0
M  END
>  <MODEL>
7

>  <REMARK>
 VINA RESULT:      -5.2      3.519      9.364
  Name = 
  12 active torsions:
  status: ('A' for Active; 'I' for Inactive)
    1  A    between atoms: C_1  and  C_46
    2  A    between atoms: N_3  and  C_27
    3  A    between atoms: N_3  and  C_53
    4  A    between atoms: N_6  and  C_35
    5  A    between atoms: C_16  and  C_23
    6  A    between atoms: C_17  and  C_33
    7  A    between atoms: C_17  and  C_35
    8  A    between atoms: C_19  and  C_26
    9  A    between atoms: N_22  and  C_26
   10  A    between atoms: N_22  and  C_46
   11  A    between atoms: C_29  and  C_31
   12  A    between atoms: C_44  and  C_50
                            x       y       z     vdW  Elec       q    Type
                         _______ _______ _______ _____ _____    ______ ____

>  <TORSDO>
F 12

$$$$
=
 OpenBabel11062416423D

 57 62  0  0  1  0  0  0  0  0999 V2000
  185.2790  174.5800  134.8490 C   0  0  0  0  0  2  0  0  0  0  0  0
  182.9950  178.1750  140.2470 C   0  0  2  0  0  3  0  0  0  0  0  0
  181.0400  177.5660  138.9120 N   0  0  0  0  0  2  0  0  0  0  0  0
  181.7850  177.4470  137.7170 N   0  0  1  0  0  0  0  0  0  0  0  0
  183.1310  176.9090  137.9990 C   0  0  1  0  0  3  0  0  0  0  0  0
  184.1240  177.5290  137.0160 C   0  0  2  0  0  3  0  0  0  0  0  0
  181.0470  176.5680  136.7750 C   0  0  0  0  0  0  0  0  0  0  0  0
  179.7200  177.2280  136.4240 C   0  0  0  0  0  1  0  0  0  0  0  0
  183.5600  176.9670  139.4840 C   0  0  0  0  0  2  0  0  0  0  0  0
  184.8580  176.4840  136.2510 C   0  0  0  0  0  3  0  0  0  0  0  0
  184.3100  175.5090  135.5140 C   0  0  0  0  0  0  0  0  0  0  0  0
  181.7990  176.3810  135.4310 C   0  0  2  0  0  3  0  0  0  0  0  0
  182.8390  175.2850  135.3570 C   0  0  0  0  0  0  0  0  0  0  0  0
  182.4030  174.0810  134.9990 C   0  0  0  0  0  2  0  0  0  0  0  0
  181.6370  178.6410  139.7000 C   0  0  1  0  0  3  0  0  0  0  0  0
  182.2410  177.5760  134.8840 F   0  0  0  0  0  0  0  0  0  0  0  0
  185.0270  178.3970  137.6300 O   0  0  0  0  0  1  0  0  0  0  0  0
  180.7160  175.2130  137.4100 C   0  0  0  0  0  1  0  0  0  0  0  0
  179.7910  177.7100  143.4020 C   0  0  0  0  0  2  0  0  0  0  0  0
  180.4980  179.0700  143.3560 C   0  0  0  0  0  2  0  0  0  0  0  0
  181.4470  179.1650  142.1640 C   0  0  0  0  0  2  0  0  0  0  0  0
  179.4670  178.1050  140.9250 C   0  0  0  0  0  2  0  0  0  0  0  0
  179.6380  177.0540  142.0220 C   0  0  0  0  0  2  0  0  0  0  0  0
  180.6840  179.0470  140.8320 C   0  0  0  0  0  3  0  0  0  0  0  0
  183.9930  179.3250  140.2740 C   0  0  0  0  0  2  0  0  0  0  0  0
  185.1870  178.9290  141.0070 N   0  0  0  0  0  2  0  0  0  0  0  0
  184.7980  178.7240  142.3930 C   0  0  0  0  0  2  0  0  0  0  0  0
  186.0350  178.5410  143.2530 C   0  0  0  0  0  2  0  0  0  0  0  0
  187.0900  178.0700  142.4680 O   0  0  0  0  0  1  0  0  0  0  0  0
  185.9040  173.6360  135.8660 C   0  0  0  0  0  2  0  0  0  0  0  0
  187.2490  174.0840  136.1970 N   0  0  0  0  0  2  0  0  0  0  0  0
  188.3950  173.6360  135.4710 C   0  0  0  0  0  0  0  0  0  0  0  0
  188.2930  172.6930  134.6380 O   0  0  0  0  0  0  0  0  0  0  0  0
  189.7270  175.6550  135.0600 N   0  0  0  0  0  2  0  0  0  0  0  0
  188.9720  174.8780  138.0200 C   0  0  0  0  0  1  0  0  0  0  0  0
  189.7100  174.3280  135.6730 C   0  0  1  0  0  3  0  0  0  0  0  0
  191.1710  175.5920  136.9830 C   0  0  2  0  0  3  0  0  0  0  0  0
  190.5850  176.4870  135.9040 C   0  0  0  0  0  2  0  0  0  0  0  0
  190.1510  174.4720  137.1280 C   0  0  1  0  0  3  0  0  0  0  0  0
  191.2890  177.1780  140.4570 C   0  0  0  0  0  0  0  0  0  0  0  0
  191.6560  176.3290  138.2230 C   0  0  0  0  0  0  0  0  0  0  0  0
  193.4050  177.3810  139.4740 N   0  0  0  0  0  0  0  0  0  0  0  0
  190.3920  177.4080  141.6200 C   0  0  0  0  0  1  0  0  0  0  0  0
  192.9960  176.7460  138.3390 C   0  0  0  0  0  0  0  0  0  0  0  0
  190.8120  176.5320  139.3220 C   0  0  0  0  0  3  0  0  0  0  0  0
  192.5790  177.5940  140.4990 N   0  0  0  0  0  0  0  0  0  0  0  0
  193.9340  176.4910  137.2870 N   0  0  0  0  0  2  0  0  0  0  0  0
  193.4620  172.2110  136.5640 C   0  0  0  0  0  2  0  0  0  0  0  0
  194.3510  174.1530  137.9700 C   0  0  1  0  0  3  0  0  0  0  0  0
  195.4610  174.5380  138.9360 C   0  0  0  0  0  1  0  0  0  0  0  0
  195.4310  175.1380  135.8740 C   0  0  0  0  0  0  0  0  0  0  0  0
  196.3930  175.9240  136.0840 O   0  0  0  0  0  0  0  0  0  0  0  0
  195.4630  174.2860  134.7190 N   0  0  0  0  0  2  0  0  0  0  0  0
  194.2420  175.1480  136.8060 C   0  0  2  0  0  3  0  0  0  0  0  0
  194.8560  172.9590  134.5940 C   0  0  0  0  0  2  0  0  0  0  0  0
  193.4560  172.8960  135.1930 C   0  0  0  0  0  2  0  0  0  0  0  0
  194.5690  172.7180  137.4930 C   0  0  0  0  0  2  0  0  0  0  0  0
  1 11  1  0  0  0  0
  1 30  1  0  0  0  0
  2 25  1  6  0  0  0
  3 15  1  0  0  0  0
  4  5  1  0  0  0  0
  4  3  1  1  0  0  0
  5  9  1  1  0  0  0
  6 17  1  1  0  0  0
  6  5  1  0  0  0  0
  7 18  1  0  0  0  0
  7  4  1  0  0  0  0
  8  7  1  0  0  0  0
  9  2  1  0  0  0  0
 10  6  1  0  0  0  0
 11 10  2  0  0  0  0
 12 16  1  1  0  0  0
 12  7  1  0  0  0  0
 13 12  1  0  0  0  0
 13 11  1  0  0  0  0
 14 13  2  0  0  0  0
 15  2  1  0  0  0  0
 15 24  1  1  0  0  0
 20 19  1  0  0  0  0
 21 20  1  0  0  0  0
 22 23  1  0  0  0  0
 23 19  1  0  0  0  0
 24 22  1  0  0  0  0
 24 21  1  0  0  0  0
 25 26  1  0  0  0  0
 26 27  1  0  0  0  0
 27 28  1  0  0  0  0
 29 28  1  0  0  0  0
 30 31  1  0  0  0  0
 32 31  1  0  0  0  0
 33 32  2  0  0  0  0
 34 36  1  0  0  0  0
 34 38  1  0  0  0  0
 36 32  1  1  0  0  0
 36 39  1  0  0  0  0
 37 39  1  0  0  0  0
 37 41  1  1  0  0  0
 38 37  1  0  0  0  0
 39 35  1  1  0  0  0
 40 46  2  0  0  0  0
 40 43  1  0  0  0  0
 41 44  1  0  0  0  0
 41 45  2  0  0  0  0
 42 46  1  0  0  0  0
 44 42  2  0  0  0  0
 45 40  1  0  0  0  0
 47 44  1  0  0  0  0
 48 57  1  0  0  0  0
 49 50  1  1  0  0  0
 51 52  2  0  0  0  0
 51 54  1  0  0  0  0
 53 51  1  0  0  0  0
 54 47  1  1  0  0  0
 54 49  1  0  0  0  0
 55 53  1  0  0  0  0
 55 56  1  0  0  0  0
 56 48  1  0  0  0  0
 57 49  1  0  0  0  0
M  END
>  <MODEL>
8

>  <REMARK>
 VINA RESULT:      -4.9      2.863     11.022
  Name = 
  12 active torsions:
  status: ('A' for Active; 'I' for Inactive)
    1  A    between atoms: C_1  and  C_46
    2  A    between atoms: N_3  and  C_27
    3  A    between atoms: N_3  and  C_53
    4  A    between atoms: N_6  and  C_35
    5  A    between atoms: C_16  and  C_23
    6  A    between atoms: C_17  and  C_33
    7  A    between atoms: C_17  and  C_35
    8  A    between atoms: C_19  and  C_26
    9  A    between atoms: N_22  and  C_26
   10  A    between atoms: N_22  and  C_46
   11  A    between atoms: C_29  and  C_31
   12  A    between atoms: C_44  and  C_50
                            x       y       z     vdW  Elec       q    Type
                         _______ _______ _______ _____ _____    ______ ____

>  <TORSDO>
F 12

$$$$
=
 OpenBabel11062416423D

 57 62  0  0  1  0  0  0  0  0999 V2000
  179.7440  178.0730  142.0590 C   0  0  0  0  0  2  0  0  0  0  0  0
  183.9160  175.2260  137.3940 C   0  0  2  0  0  3  0  0  0  0  0  0
  183.1410  177.3480  136.4620 N   0  0  0  0  0  2  0  0  0  0  0  0
  181.9610  177.3580  137.2400 N   0  0  1  0  0  0  0  0  0  0  0  0
  182.2150  176.7740  138.5720 C   0  0  1  0  0  3  0  0  0  0  0  0
  180.9550  176.0430  139.0370 C   0  0  2  0  0  3  0  0  0  0  0  0
  181.4740  178.7560  137.3560 C   0  0  0  0  0  0  0  0  0  0  0  0
  181.1120  179.2670  135.9690 C   0  0  0  0  0  1  0  0  0  0  0  0
  183.5230  175.9560  138.6870 C   0  0  0  0  0  2  0  0  0  0  0  0
  180.4830  176.5540  140.3530 C   0  0  0  0  0  3  0  0  0  0  0  0
  180.1930  177.8270  140.6520 C   0  0  0  0  0  0  0  0  0  0  0  0
  180.1750  178.8590  138.2010 C   0  0  2  0  0  3  0  0  0  0  0  0
  180.3240  178.9760  139.7010 C   0  0  0  0  0  0  0  0  0  0  0  0
  180.4470  180.2060  140.1880 C   0  0  0  0  0  2  0  0  0  0  0  0
  183.4400  175.9570  136.1300 C   0  0  1  0  0  3  0  0  0  0  0  0
  179.2090  177.9360  137.8280 F   0  0  0  0  0  0  0  0  0  0  0  0
  181.1170  174.6590  139.0900 O   0  0  0  0  0  1  0  0  0  0  0  0
  182.5590  179.6880  137.9060 C   0  0  0  0  0  1  0  0  0  0  0  0
  187.4060  176.7330  134.8460 C   0  0  0  0  0  2  0  0  0  0  0  0
  186.9190  175.2980  134.6100 C   0  0  0  0  0  2  0  0  0  0  0  0
  185.6670  174.9930  135.4290 C   0  0  0  0  0  2  0  0  0  0  0  0
  184.9570  177.3120  134.5940 C   0  0  0  0  0  2  0  0  0  0  0  0
  186.2830  177.7010  135.2470 C   0  0  0  0  0  2  0  0  0  0  0  0
  184.4950  175.9040  135.0180 C   0  0  0  0  0  3  0  0  0  0  0  0
  183.4230  173.7840  137.4050 C   0  0  0  0  0  2  0  0  0  0  0  0
  182.5960  173.5340  136.2330 N   0  0  0  0  0  2  0  0  0  0  0  0
  181.8420  172.3160  136.4860 C   0  0  0  0  0  2  0  0  0  0  0  0
  182.7720  171.1180  136.4500 C   0  0  0  0  0  2  0  0  0  0  0  0
  182.2480  170.1380  135.6030 O   0  0  0  0  0  1  0  0  0  0  0  0
  179.8750  179.5470  142.4150 C   0  0  0  0  0  2  0  0  0  0  0  0
  181.2460  179.8430  142.8030 N   0  0  0  0  0  2  0  0  0  0  0  0
  181.9290  179.0860  143.8050 C   0  0  0  0  0  0  0  0  0  0  0  0
  181.2980  178.2550  144.5150 O   0  0  0  0  0  0  0  0  0  0  0  0
  183.9490  178.3570  144.9910 N   0  0  0  0  0  2  0  0  0  0  0  0
  183.7240  177.8770  141.8830 C   0  0  0  0  0  1  0  0  0  0  0  0
  183.4090  179.2550  143.9710 C   0  0  1  0  0  3  0  0  0  0  0  0
  185.6020  178.8130  143.3040 C   0  0  2  0  0  3  0  0  0  0  0  0
  185.3030  178.0110  144.5590 C   0  0  0  0  0  2  0  0  0  0  0  0
  184.2310  179.0740  142.6970 C   0  0  1  0  0  3  0  0  0  0  0  0
  187.8540  178.0610  140.3110 C   0  0  0  0  0  0  0  0  0  0  0  0
  186.7100  178.2390  142.4340 C   0  0  0  0  0  0  0  0  0  0  0  0
  188.7140  176.9510  142.1860 N   0  0  0  0  0  0  0  0  0  0  0  0
  187.9580  178.4000  138.8670 C   0  0  0  0  0  1  0  0  0  0  0  0
  187.7210  177.4290  142.9890 C   0  0  0  0  0  0  0  0  0  0  0  0
  186.8120  178.5710  141.0780 C   0  0  0  0  0  3  0  0  0  0  0  0
  188.7780  177.2530  140.8890 N   0  0  0  0  0  0  0  0  0  0  0  0
  187.7240  177.1230  144.3870 N   0  0  0  0  0  2  0  0  0  0  0  0
  190.6620  175.8260  147.3460 C   0  0  0  0  0  2  0  0  0  0  0  0
  188.6000  177.1930  146.6970 C   0  0  1  0  0  3  0  0  0  0  0  0
  187.8250  178.4530  147.0490 C   0  0  0  0  0  1  0  0  0  0  0  0
  189.9140  178.1930  144.7470 C   0  0  0  0  0  0  0  0  0  0  0  0
  189.4830  179.2960  144.3170 O   0  0  0  0  0  0  0  0  0  0  0  0
  191.3290  177.9470  144.7440 N   0  0  0  0  0  2  0  0  0  0  0  0
  188.9370  177.1350  145.2000 C   0  0  2  0  0  3  0  0  0  0  0  0
  192.0720  177.1050  145.6850 C   0  0  0  0  0  2  0  0  0  0  0  0
  191.3600  175.7900  145.9820 C   0  0  0  0  0  2  0  0  0  0  0  0
  189.8450  177.1000  147.5790 C   0  0  0  0  0  2  0  0  0  0  0  0
  1 30  1  0  0  0  0
  2 25  1  1  0  0  0
  2  9  1  0  0  0  0
  4  3  1  6  0  0  0
  4  7  1  0  0  0  0
  4  5  1  0  0  0  0
  5  9  1  6  0  0  0
  5  6  1  0  0  0  0
  6 17  1  1  0  0  0
  6 10  1  0  0  0  0
  7 18  1  0  0  0  0
  7 12  1  0  0  0  0
  8  7  1  0  0  0  0
 10 11  2  0  0  0  0
 11  1  1  0  0  0  0
 12 16  1  1  0  0  0
 12 13  1  0  0  0  0
 13 14  2  0  0  0  0
 13 11  1  0  0  0  0
 15 24  1  6  0  0  0
 15  3  1  0  0  0  0
 15  2  1  0  0  0  0
 19 23  1  0  0  0  0
 20 19  1  0  0  0  0
 20 21  1  0  0  0  0
 22 24  1  0  0  0  0
 22 23  1  0  0  0  0
 24 21  1  0  0  0  0
 26 27  1  0  0  0  0
 26 25  1  0  0  0  0
 28 27  1  0  0  0  0
 29 28  1  0  0  0  0
 30 31  1  0  0  0  0
 31 32  1  0  0  0  0
 32 33  2  0  0  0  0
 36 32  1  6  0  0  0
 36 34  1  0  0  0  0
 37 41  1  6  0  0  0
 37 38  1  0  0  0  0
 38 34  1  0  0  0  0
 39 35  1  1  0  0  0
 39 37  1  0  0  0  0
 39 36  1  0  0  0  0
 40 46  2  0  0  0  0
 40 45  1  0  0  0  0
 41 44  1  0  0  0  0
 42 44  2  0  0  0  0
 43 40  1  0  0  0  0
 44 47  1  0  0  0  0
 45 41  2  0  0  0  0
 46 42  1  0  0  0  0
 48 57  1  0  0  0  0
 49 50  1  6  0  0  0
 49 57  1  0  0  0  0
 51 54  1  0  0  0  0
 52 51  2  0  0  0  0
 53 51  1  0  0  0  0
 53 55  1  0  0  0  0
 54 47  1  6  0  0  0
 54 49  1  0  0  0  0
 55 56  1  0  0  0  0
 56 48  1  0  0  0  0
M  END
>  <MODEL>
9

>  <REMARK>
 VINA RESULT:      -4.6      3.438      8.741
  Name = 
  12 active torsions:
  status: ('A' for Active; 'I' for Inactive)
    1  A    between atoms: C_1  and  C_46
    2  A    between atoms: N_3  and  C_27
    3  A    between atoms: N_3  and  C_53
    4  A    between atoms: N_6  and  C_35
    5  A    between atoms: C_16  and  C_23
    6  A    between atoms: C_17  and  C_33
    7  A    between atoms: C_17  and  C_35
    8  A    between atoms: C_19  and  C_26
    9  A    between atoms: N_22  and  C_26
   10  A    between atoms: N_22  and  C_46
   11  A    between atoms: C_29  and  C_31
   12  A    between atoms: C_44  and  C_50
                            x       y       z     vdW  Elec       q    Type
                         _______ _______ _______ _____ _____    ______ ____

>  <TORSDO>
F 12

$$$$
