=
 OpenBabel11062417413D

 39 41  0  0  1  0  0  0  0  0999 V2000
  189.1050  178.5380  138.6090 C   0  0  0  0  0  2  0  0  0  0  0  0
  188.0910  177.6870  142.1340 C   0  0  0  0  0  2  0  0  0  0  0  0
  191.5750  176.5630  142.6990 C   0  0  0  0  0  1  0  0  0  0  0  0
  190.1670  176.4190  142.1320 C   0  0  2  0  0  3  0  0  0  0  0  0
  188.2880  178.6070  139.9210 C   0  0  2  0  0  3  0  0  0  0  0  0
  188.5310  177.4370  140.7680 N   0  0  1  0  0  0  0  0  0  0  0  0
  186.9310  178.6850  139.6070 O   0  0  0  0  0  1  0  0  0  0  0  0
  190.5020  176.6160  139.5970 C   0  0  1  0  0  3  0  0  0  0  0  0
  189.9670  177.2460  140.8850 C   0  0  2  0  0  3  0  0  0  0  0  0
  189.7570  177.1610  138.3640 C   0  0  1  0  0  3  0  0  0  0  0  0
  189.0380  176.9100  143.0480 C   0  0  1  0  0  3  0  0  0  0  0  0
  192.2770  176.9610  139.4180 S   0  0  0  0  0  0  0  0  0  0  0  0
  192.3330  176.1930  137.7760 C   0  0  2  0  0  3  0  0  0  0  0  0
  191.3780  174.0390  137.5810 O   0  0  0  0  0  0  0  0  0  0  0  0
  192.3360  174.7050  137.9350 C   0  0  0  0  0  3  0  0  0  0  0  0
  194.2860  175.4850  136.3980 C   0  0  0  0  0  1  0  0  0  0  0  0
  193.5850  176.6600  137.0530 C   0  0  0  0  0  2  0  0  0  0  0  0
  189.4570  177.7580  144.2580 C   0  0  0  0  0  2  0  0  0  0  0  0
  189.2770  177.0300  145.5850 C   0  0  0  0  0  2  0  0  0  0  0  0
  188.7340  178.1690  147.6010 O   0  0  0  0  0  0  0  0  0  0  0  0
  188.3520  177.7970  146.4600 C   0  0  0  0  0  0  0  0  0  0  0  0
  187.0460  178.1310  145.9870 N   0  0  0  0  0  2  0  0  0  0  0  0
  186.1590  178.8960  146.7590 N   0  0  0  0  0  2  0  0  0  0  0  0
  184.8620  178.4660  146.4430 N   0  0  0  0  0  2  0  0  0  0  0  0
  182.8750  178.8450  141.2400 F   0  0  0  0  0  0  0  0  0  0  0  0
  182.5220  179.0550  143.5880 C   0  0  0  0  0  3  0  0  0  0  0  0
  184.3420  178.5670  145.1170 C   0  0  0  0  0  0  0  0  0  0  0  0
  185.1680  178.2660  144.0300 C   0  0  0  0  0  3  0  0  0  0  0  0
  184.6750  178.3590  142.7250 C   0  0  0  0  0  3  0  0  0  0  0  0
  183.3520  178.7540  142.5040 C   0  0  0  0  0  0  0  0  0  0  0  0
  183.0150  178.9620  144.8930 C   0  0  0  0  0  3  0  0  0  0  0  0
  188.7520  176.2030  137.9360 N   0  0  0  0  0  2  0  0  0  0  0  0
  188.1670  176.7250  136.7750 N   0  0  0  0  0  2  0  0  0  0  0  0
  187.0240  175.8830  136.4640 C   0  0  1  0  0  3  0  0  0  0  0  0
  187.2790  174.5790  136.8870 O   0  0  0  0  0  0  0  0  0  0  0  0
  187.1270  173.7960  135.7430 C   0  0  0  0  0  1  0  0  0  0  0  0
  185.7870  176.4100  137.1740 C   0  0  0  0  0  2  0  0  0  0  0  0
  185.1900  177.4150  136.4120 O   0  0  0  0  0  0  0  0  0  0  0  0
  184.9880  176.8320  135.1630 C   0  0  0  0  0  1  0  0  0  0  0  0
  1  5  1  0  0  0  0
  2 11  1  0  0  0  0
  4  3  1  1  0  0  0
  4 11  1  0  0  0  0
  5  7  1  6  0  0  0
  5  6  1  0  0  0  0
  6  9  1  0  0  0  0
  6  2  1  1  0  0  0
  8 12  1  6  0  0  0
  8  9  1  0  0  0  0
  9  4  1  0  0  0  0
 10  1  1  0  0  0  0
 10  8  1  0  0  0  0
 11 18  1  0  0  0  0
 13 15  1  0  0  0  0
 13 12  1  0  0  0  0
 14 15  2  0  0  0  0
 16 17  1  0  0  0  0
 17 13  1  0  0  0  0
 18 19  1  0  0  0  0
 19 21  1  0  0  0  0
 21 20  2  0  0  0  0
 22 21  1  0  0  0  0
 22 23  1  0  0  0  0
 24 23  1  0  0  0  0
 25 30  1  0  0  0  0
 26 31  1  0  0  0  0
 27 24  1  0  0  0  0
 28 27  1  0  0  0  0
 29 28  2  0  0  0  0
 30 29  1  0  0  0  0
 30 26  2  0  0  0  0
 31 27  2  0  0  0  0
 32 10  1  0  0  0  0
 33 32  1  0  0  0  0
 34 33  1  0  0  0  0
 34 35  1  0  0  0  0
 34 37  1  0  0  0  0
 36 35  1  0  0  0  0
 38 37  1  0  0  0  0
 39 38  1  0  0  0  0
M  END
>  <MODEL>
1

>  <REMARK>
 VINA RESULT:      -7.1      0.000      0.000
  Name = 
  16 active torsions:
  status: ('A' for Active; 'I' for Inactive)
    1  A    between atoms: O_4  and  C_23
    2  A    between atoms: C_6  and  C_32
    3  A    between atoms: O_9  and  C_27
    4  A    between atoms: N_11  and  C_20
    5  A    between atoms: N_11  and  N_25
    6  A    between atoms: C_16  and  C_32
    7  A    between atoms: C_16  and  C_36
    8  A    between atoms: C_18  and  S_30
    9  A    between atoms: C_21  and  N_22
   10  A    between atoms: N_22  and  N_38
   11  A    between atoms: C_23  and  C_27
   12  A    between atoms: N_25  and  C_27
   13  A    between atoms: C_26  and  S_30
   14  A    between atoms: C_26  and  C_31
   15  A    between atoms: C_26  and  C_37
   16  A    between atoms: N_28  and  N_38
                            x       y       z     vdW  Elec       q    Type
                         _______ _______ _______ _____ _____    ______ ____

>  <TORSDO>
F 16

$$$$
=
 OpenBabel11062417413D

 39 41  0  0  1  0  0  0  0  0999 V2000
  180.4900  179.8520  140.3170 C   0  0  0  0  0  2  0  0  0  0  0  0
  182.0050  178.7850  143.5950 C   0  0  0  0  0  2  0  0  0  0  0  0
  185.3060  178.8590  141.9150 C   0  0  0  0  0  1  0  0  0  0  0  0
  183.9370  178.2570  142.2150 C   0  0  2  0  0  3  0  0  0  0  0  0
  180.6130  179.6770  141.8490 C   0  0  2  0  0  3  0  0  0  0  0  0
  181.6120  178.6650  142.1970 N   0  0  1  0  0  0  0  0  0  0  0  0
  179.3700  179.3060  142.3650 O   0  0  0  0  0  1  0  0  0  0  0  0
  182.6590  178.5030  140.0050 C   0  0  1  0  0  3  0  0  0  0  0  0
  182.8310  178.9510  141.4580 C   0  0  2  0  0  3  0  0  0  0  0  0
  181.2210  178.7550  139.5140 C   0  0  1  0  0  3  0  0  0  0  0  0
  183.4750  178.3740  143.6730 C   0  0  1  0  0  3  0  0  0  0  0  0
  183.8170  179.4010  138.9300 S   0  0  0  0  0  0  0  0  0  0  0  0
  184.5550  177.8610  138.3170 C   0  0  2  0  0  3  0  0  0  0  0  0
  186.4870  179.0520  137.6550 O   0  0  0  0  0  0  0  0  0  0  0  0
  186.0330  178.0510  138.1820 C   0  0  0  0  0  3  0  0  0  0  0  0
  184.5910  176.2770  136.3930 C   0  0  0  0  0  1  0  0  0  0  0  0
  183.9310  177.5130  136.9770 C   0  0  0  0  0  2  0  0  0  0  0  0
  184.2700  179.3340  144.5700 C   0  0  0  0  0  2  0  0  0  0  0  0
  184.3340  178.8760  146.0220 C   0  0  0  0  0  2  0  0  0  0  0  0
  186.0370  179.6550  147.4890 O   0  0  0  0  0  0  0  0  0  0  0  0
  185.7390  178.9260  146.5050 C   0  0  0  0  0  0  0  0  0  0  0  0
  186.7360  178.1250  145.8690 N   0  0  0  0  0  2  0  0  0  0  0  0
  188.0620  178.1040  146.3230 N   0  0  0  0  0  2  0  0  0  0  0  0
  188.6820  176.9930  145.7340 N   0  0  0  0  0  2  0  0  0  0  0  0
  191.8890  177.4630  141.1880 F   0  0  0  0  0  0  0  0  0  0  0  0
  191.4720  178.0210  143.4680 C   0  0  0  0  0  3  0  0  0  0  0  0
  189.5100  177.1220  144.5790 C   0  0  0  0  0  0  0  0  0  0  0  0
  189.1560  176.4560  143.4010 C   0  0  0  0  0  3  0  0  0  0  0  0
  189.9550  176.5700  142.2600 C   0  0  0  0  0  3  0  0  0  0  0  0
  191.1140  177.3530  142.2930 C   0  0  0  0  0  0  0  0  0  0  0  0
  190.6720  177.9060  144.6090 C   0  0  0  0  0  3  0  0  0  0  0  0
  180.4640  177.5160  139.5600 N   0  0  0  0  0  2  0  0  0  0  0  0
  181.3940  176.4730  139.4670 N   0  0  0  0  0  2  0  0  0  0  0  0
  180.6520  175.2320  139.6140 C   0  0  1  0  0  3  0  0  0  0  0  0
  179.4270  175.4940  140.2250 O   0  0  0  0  0  0  0  0  0  0  0  0
  179.1440  174.3470  140.9670 C   0  0  0  0  0  1  0  0  0  0  0  0
  180.4120  174.6100  138.2480 C   0  0  0  0  0  2  0  0  0  0  0  0
  181.5760  174.6740  137.4820 O   0  0  0  0  0  0  0  0  0  0  0  0
  181.1700  174.3110  136.1990 C   0  0  0  0  0  1  0  0  0  0  0  0
  1  5  1  0  0  0  0
  2 11  1  0  0  0  0
  4  3  1  1  0  0  0
  4 11  1  0  0  0  0
  5  6  1  0  0  0  0
  5  7  1  6  0  0  0
  6  2  1  1  0  0  0
  8 12  1  6  0  0  0
  8  9  1  0  0  0  0
  9  6  1  0  0  0  0
  9  4  1  0  0  0  0
 10 32  1  0  0  0  0
 10  8  1  0  0  0  0
 10  1  1  0  0  0  0
 11 18  1  0  0  0  0
 13 12  1  0  0  0  0
 14 15  2  0  0  0  0
 15 13  1  0  0  0  0
 16 17  1  0  0  0  0
 17 13  1  0  0  0  0
 18 19  1  0  0  0  0
 19 21  1  0  0  0  0
 21 20  2  0  0  0  0
 22 23  1  0  0  0  0
 22 21  1  0  0  0  0
 24 23  1  0  0  0  0
 25 30  1  0  0  0  0
 26 31  1  0  0  0  0
 27 31  2  0  0  0  0
 27 24  1  0  0  0  0
 28 27  1  0  0  0  0
 29 30  1  0  0  0  0
 29 28  2  0  0  0  0
 30 26  2  0  0  0  0
 33 32  1  0  0  0  0
 33 34  1  0  0  0  0
 34 35  1  0  0  0  0
 35 36  1  0  0  0  0
 37 34  1  0  0  0  0
 38 37  1  0  0  0  0
 39 38  1  0  0  0  0
M  END
>  <MODEL>
2

>  <REMARK>
 VINA RESULT:      -6.9      4.124      7.033
  Name = 
  16 active torsions:
  status: ('A' for Active; 'I' for Inactive)
    1  A    between atoms: O_4  and  C_23
    2  A    between atoms: C_6  and  C_32
    3  A    between atoms: O_9  and  C_27
    4  A    between atoms: N_11  and  C_20
    5  A    between atoms: N_11  and  N_25
    6  A    between atoms: C_16  and  C_32
    7  A    between atoms: C_16  and  C_36
    8  A    between atoms: C_18  and  S_30
    9  A    between atoms: C_21  and  N_22
   10  A    between atoms: N_22  and  N_38
   11  A    between atoms: C_23  and  C_27
   12  A    between atoms: N_25  and  C_27
   13  A    between atoms: C_26  and  S_30
   14  A    between atoms: C_26  and  C_31
   15  A    between atoms: C_26  and  C_37
   16  A    between atoms: N_28  and  N_38
                            x       y       z     vdW  Elec       q    Type
                         _______ _______ _______ _____ _____    ______ ____

>  <TORSDO>
F 16

$$$$
=
 OpenBabel11062417413D

 39 41  0  0  1  0  0  0  0  0999 V2000
  187.4100  178.2750  137.1510 C   0  0  0  0  0  2  0  0  0  0  0  0
  188.9020  177.6700  140.5550 C   0  0  0  0  0  2  0  0  0  0  0  0
  191.9130  176.3700  138.8330 C   0  0  0  0  0  1  0  0  0  0  0  0
  190.4700  176.2820  139.3180 C   0  0  2  0  0  3  0  0  0  0  0  0
  187.6340  178.4600  138.6710 C   0  0  2  0  0  3  0  0  0  0  0  0
  188.3520  177.3230  139.2510 N   0  0  1  0  0  0  0  0  0  0  0  0
  186.3960  178.6030  139.2990 O   0  0  0  0  0  1  0  0  0  0  0  0
  189.0900  176.3260  137.1570 C   0  0  1  0  0  3  0  0  0  0  0  0
  189.5220  177.0530  138.4320 C   0  0  2  0  0  3  0  0  0  0  0  0
  187.7320  176.8500  136.6530 C   0  0  1  0  0  3  0  0  0  0  0  0
  190.2060  176.8870  140.7030 C   0  0  1  0  0  3  0  0  0  0  0  0
  190.3330  176.5550  135.8510 S   0  0  0  0  0  0  0  0  0  0  0  0
  190.2100  174.8220  135.3300 C   0  0  2  0  0  3  0  0  0  0  0  0
  190.8670  173.5230  137.1940 O   0  0  0  0  0  0  0  0  0  0  0  0
  189.9450  173.9710  136.5320 C   0  0  0  0  0  3  0  0  0  0  0  0
  192.5710  175.4750  134.8700 C   0  0  0  0  0  1  0  0  0  0  0  0
  191.5080  174.4130  134.6560 C   0  0  0  0  0  2  0  0  0  0  0  0
  191.3180  177.7690  141.2890 C   0  0  0  0  0  2  0  0  0  0  0  0
  191.8720  177.2340  142.6040 C   0  0  0  0  0  2  0  0  0  0  0  0
  191.0920  179.1880  143.7130 O   0  0  0  0  0  0  0  0  0  0  0  0
  191.2280  177.9350  143.7450 C   0  0  0  0  0  0  0  0  0  0  0  0
  190.7410  177.1810  144.8560 N   0  0  0  0  0  2  0  0  0  0  0  0
  190.0840  177.7970  145.9300 N   0  0  0  0  0  2  0  0  0  0  0  0
  188.9260  177.0490  146.1880 N   0  0  0  0  0  2  0  0  0  0  0  0
  183.8310  179.1320  145.2560 F   0  0  0  0  0  0  0  0  0  0  0  0
  185.5930  178.6330  146.7830 C   0  0  0  0  0  3  0  0  0  0  0  0
  187.6220  177.5840  145.9640 C   0  0  0  0  0  0  0  0  0  0  0  0
  187.0920  177.5800  144.6700 C   0  0  0  0  0  3  0  0  0  0  0  0
  185.8160  178.1010  144.4310 C   0  0  0  0  0  3  0  0  0  0  0  0
  185.0660  178.6270  145.4880 C   0  0  0  0  0  0  0  0  0  0  0  0
  186.8680  178.1130  147.0220 C   0  0  0  0  0  3  0  0  0  0  0  0
  186.6770  175.9330  137.0480 N   0  0  0  0  0  2  0  0  0  0  0  0
  185.5170  176.3410  136.3770 N   0  0  0  0  0  2  0  0  0  0  0  0
  184.5120  175.3160  136.6100 C   0  0  1  0  0  3  0  0  0  0  0  0
  185.0880  174.2510  137.3030 O   0  0  0  0  0  0  0  0  0  0  0  0
  184.0970  173.2700  137.3390 C   0  0  0  0  0  1  0  0  0  0  0  0
  183.3700  175.8920  137.4310 C   0  0  0  0  0  2  0  0  0  0  0  0
  183.8010  177.0240  138.1220 O   0  0  0  0  0  0  0  0  0  0  0  0
  182.7750  177.9510  137.9470 C   0  0  0  0  0  1  0  0  0  0  0  0
  1  5  1  0  0  0  0
  2 11  1  0  0  0  0
  4  3  1  6  0  0  0
  4 11  1  0  0  0  0
  5  6  1  0  0  0  0
  5  7  1  1  0  0  0
  6  2  1  1  0  0  0
  8 12  1  6  0  0  0
  8  9  1  0  0  0  0
  9  6  1  0  0  0  0
  9  4  1  0  0  0  0
 10 32  1  0  0  0  0
 10  1  1  0  0  0  0
 10  8  1  0  0  0  0
 11 18  1  0  0  0  0
 13 12  1  0  0  0  0
 13 15  1  0  0  0  0
 15 14  2  0  0  0  0
 17 16  1  0  0  0  0
 17 13  1  0  0  0  0
 18 19  1  0  0  0  0
 19 21  1  0  0  0  0
 20 21  2  0  0  0  0
 21 22  1  0  0  0  0
 22 23  1  0  0  0  0
 23 24  1  0  0  0  0
 25 30  1  0  0  0  0
 26 31  1  0  0  0  0
 27 24  1  0  0  0  0
 27 31  2  0  0  0  0
 28 27  1  0  0  0  0
 29 28  2  0  0  0  0
 29 30  1  0  0  0  0
 30 26  2  0  0  0  0
 33 34  1  0  0  0  0
 33 32  1  0  0  0  0
 34 35  1  0  0  0  0
 34 37  1  0  0  0  0
 35 36  1  0  0  0  0
 37 38  1  0  0  0  0
 39 38  1  0  0  0  0
M  END
>  <MODEL>
3

>  <REMARK>
 VINA RESULT:      -6.8      2.333      3.167
  Name = 
  16 active torsions:
  status: ('A' for Active; 'I' for Inactive)
    1  A    between atoms: O_4  and  C_23
    2  A    between atoms: C_6  and  C_32
    3  A    between atoms: O_9  and  C_27
    4  A    between atoms: N_11  and  C_20
    5  A    between atoms: N_11  and  N_25
    6  A    between atoms: C_16  and  C_32
    7  A    between atoms: C_16  and  C_36
    8  A    between atoms: C_18  and  S_30
    9  A    between atoms: C_21  and  N_22
   10  A    between atoms: N_22  and  N_38
   11  A    between atoms: C_23  and  C_27
   12  A    between atoms: N_25  and  C_27
   13  A    between atoms: C_26  and  S_30
   14  A    between atoms: C_26  and  C_31
   15  A    between atoms: C_26  and  C_37
   16  A    between atoms: N_28  and  N_38
                            x       y       z     vdW  Elec       q    Type
                         _______ _______ _______ _____ _____    ______ ____

>  <TORSDO>
F 16

$$$$
=
 OpenBabel11062417413D

 39 41  0  0  1  0  0  0  0  0999 V2000
  186.9560  176.6670  144.9850 C   0  0  0  0  0  2  0  0  0  0  0  0
  185.0070  179.0510  142.8180 C   0  0  0  0  0  2  0  0  0  0  0  0
  187.3210  178.1890  140.0570 C   0  0  0  0  0  1  0  0  0  0  0  0
  186.9490  178.8830  141.3630 C   0  0  2  0  0  3  0  0  0  0  0  0
  185.7460  177.5000  144.5010 C   0  0  2  0  0  3  0  0  0  0  0  0
  186.1540  178.5460  143.5600 N   0  0  1  0  0  0  0  0  0  0  0  0
  185.1230  178.0810  145.6060 O   0  0  0  0  0  1  0  0  0  0  0  0
  188.3960  177.7040  143.1210 C   0  0  1  0  0  3  0  0  0  0  0  0
  187.0000  177.9430  142.5430 C   0  0  2  0  0  3  0  0  0  0  0  0
  188.3180  177.2840  144.6010 C   0  0  1  0  0  3  0  0  0  0  0  0
  185.5170  179.4310  141.4280 C   0  0  1  0  0  3  0  0  0  0  0  0
  189.2510  176.4050  142.1810 S   0  0  0  0  0  0  0  0  0  0  0  0
  190.6590  177.4910  141.8220 C   0  0  2  0  0  3  0  0  0  0  0  0
  190.5320  177.1920  139.4800 O   0  0  0  0  0  0  0  0  0  0  0  0
  191.2230  177.1290  140.4830 C   0  0  0  0  0  3  0  0  0  0  0  0
  191.5360  175.9830  143.6030 C   0  0  0  0  0  1  0  0  0  0  0  0
  191.7050  177.3220  142.9100 C   0  0  0  0  0  2  0  0  0  0  0  0
  184.5500  178.9540  140.3350 C   0  0  0  0  0  2  0  0  0  0  0  0
  183.4090  178.1030  140.8810 C   0  0  0  0  0  2  0  0  0  0  0  0
  181.2560  178.8970  141.5070 O   0  0  0  0  0  0  0  0  0  0  0  0
  182.1070  178.7580  140.5880 C   0  0  0  0  0  0  0  0  0  0  0  0
  181.8420  179.2520  139.2740 N   0  0  0  0  0  2  0  0  0  0  0  0
  180.6490  179.9200  138.9670 N   0  0  0  0  0  2  0  0  0  0  0  0
  180.6690  180.1900  137.5920 N   0  0  0  0  0  2  0  0  0  0  0  0
  181.1760  185.3740  135.5820 F   0  0  0  0  0  0  0  0  0  0  0  0
  181.2480  183.8810  137.4390 C   0  0  0  0  0  3  0  0  0  0  0  0
  180.8010  181.5210  137.0910 C   0  0  0  0  0  0  0  0  0  0  0  0
  180.6080  181.7640  135.7270 C   0  0  0  0  0  3  0  0  0  0  0  0
  180.7330  183.0600  135.2190 C   0  0  0  0  0  3  0  0  0  0  0  0
  181.0530  184.1190  136.0750 C   0  0  0  0  0  0  0  0  0  0  0  0
  181.1220  182.5840  137.9470 C   0  0  0  0  0  3  0  0  0  0  0  0
  188.6050  178.4270  145.4500 N   0  0  0  0  0  2  0  0  0  0  0  0
  188.3070  178.0390  146.7620 N   0  0  0  0  0  2  0  0  0  0  0  0
  189.5600  178.0400  147.4990 C   0  0  1  0  0  3  0  0  0  0  0  0
  189.3010  178.2300  148.8550 O   0  0  0  0  0  0  0  0  0  0  0  0
  187.9560  177.8960  149.0120 C   0  0  0  0  0  1  0  0  0  0  0  0
  190.2740  176.7120  147.3030 C   0  0  0  0  0  2  0  0  0  0  0  0
  191.6500  176.9180  147.2110 O   0  0  0  0  0  0  0  0  0  0  0  0
  192.2030  175.6480  147.3650 C   0  0  0  0  0  1  0  0  0  0  0  0
  4  3  1  6  0  0  0
  4 11  1  0  0  0  0
  4  9  1  0  0  0  0
  5  1  1  0  0  0  0
  5  7  1  1  0  0  0
  6  2  1  6  0  0  0
  6  5  1  0  0  0  0
  8 12  1  6  0  0  0
  8 10  1  0  0  0  0
  9  8  1  0  0  0  0
  9  6  1  0  0  0  0
 10  1  1  0  0  0  0
 10 32  1  0  0  0  0
 11  2  1  0  0  0  0
 13 12  1  0  0  0  0
 13 17  1  0  0  0  0
 14 15  2  0  0  0  0
 15 13  1  0  0  0  0
 17 16  1  0  0  0  0
 18 19  1  0  0  0  0
 18 11  1  0  0  0  0
 21 19  1  0  0  0  0
 21 20  2  0  0  0  0
 22 21  1  0  0  0  0
 23 22  1  0  0  0  0
 24 23  1  0  0  0  0
 25 30  1  0  0  0  0
 26 31  1  0  0  0  0
 27 24  1  0  0  0  0
 27 31  2  0  0  0  0
 28 27  1  0  0  0  0
 29 28  2  0  0  0  0
 29 30  1  0  0  0  0
 30 26  2  0  0  0  0
 32 33  1  0  0  0  0
 33 34  1  0  0  0  0
 34 35  1  0  0  0  0
 35 36  1  0  0  0  0
 37 34  1  0  0  0  0
 38 37  1  0  0  0  0
 38 39  1  0  0  0  0
M  END
>  <MODEL>
4

>  <REMARK>
 VINA RESULT:      -6.7      4.391      8.277
  Name = 
  16 active torsions:
  status: ('A' for Active; 'I' for Inactive)
    1  A    between atoms: O_4  and  C_23
    2  A    between atoms: C_6  and  C_32
    3  A    between atoms: O_9  and  C_27
    4  A    between atoms: N_11  and  C_20
    5  A    between atoms: N_11  and  N_25
    6  A    between atoms: C_16  and  C_32
    7  A    between atoms: C_16  and  C_36
    8  A    between atoms: C_18  and  S_30
    9  A    between atoms: C_21  and  N_22
   10  A    between atoms: N_22  and  N_38
   11  A    between atoms: C_23  and  C_27
   12  A    between atoms: N_25  and  C_27
   13  A    between atoms: C_26  and  S_30
   14  A    between atoms: C_26  and  C_31
   15  A    between atoms: C_26  and  C_37
   16  A    between atoms: N_28  and  N_38
                            x       y       z     vdW  Elec       q    Type
                         _______ _______ _______ _____ _____    ______ ____

>  <TORSDO>
F 16

$$$$
=
 OpenBabel11062417413D

 39 41  0  0  1  0  0  0  0  0999 V2000
  182.1570  179.2910  138.5500 C   0  0  0  0  0  2  0  0  0  0  0  0
  182.6140  178.6490  142.2320 C   0  0  0  0  0  2  0  0  0  0  0  0
  186.2680  178.8110  141.6480 C   0  0  0  0  0  1  0  0  0  0  0  0
  184.9010  178.1390  141.5790 C   0  0  2  0  0  3  0  0  0  0  0  0
  181.8010  179.2690  140.0550 C   0  0  2  0  0  3  0  0  0  0  0  0
  182.6830  178.3700  140.8040 N   0  0  1  0  0  0  0  0  0  0  0  0
  180.4760  178.8570  140.2040 O   0  0  0  0  0  1  0  0  0  0  0  0
  184.3690  178.0830  139.0710 C   0  0  1  0  0  3  0  0  0  0  0  0
  184.0590  178.6760  140.4470 C   0  0  2  0  0  3  0  0  0  0  0  0
  183.1470  178.1810  138.1370 C   0  0  1  0  0  3  0  0  0  0  0  0
  184.0010  178.3570  142.8020 C   0  0  1  0  0  3  0  0  0  0  0  0
  185.7670  178.9600  138.3090 S   0  0  0  0  0  0  0  0  0  0  0  0
  186.6800  177.4170  138.0380 C   0  0  2  0  0  3  0  0  0  0  0  0
  188.5810  178.1210  139.2550 O   0  0  0  0  0  0  0  0  0  0  0  0
  188.1440  177.6830  138.2040 C   0  0  0  0  0  3  0  0  0  0  0  0
  186.8250  177.9160  135.6000 C   0  0  0  0  0  1  0  0  0  0  0  0
  186.3820  176.9040  136.6400 C   0  0  0  0  0  2  0  0  0  0  0  0
  184.4360  179.4530  143.7860 C   0  0  0  0  0  2  0  0  0  0  0  0
  184.0470  179.1460  145.2280 C   0  0  0  0  0  2  0  0  0  0  0  0
  185.5340  179.5140  147.0480 O   0  0  0  0  0  0  0  0  0  0  0  0
  185.2640  178.8330  146.0220 C   0  0  0  0  0  0  0  0  0  0  0  0
  186.1030  177.7440  145.6340 N   0  0  0  0  0  2  0  0  0  0  0  0
  187.2320  177.3830  146.3820 N   0  0  0  0  0  2  0  0  0  0  0  0
  188.3280  178.0570  145.8260 N   0  0  0  0  0  2  0  0  0  0  0  0
  190.6620  176.4800  141.0060 F   0  0  0  0  0  0  0  0  0  0  0  0
  188.9630  176.1870  142.6520 C   0  0  0  0  0  3  0  0  0  0  0  0
  188.9150  177.6440  144.5920 C   0  0  0  0  0  0  0  0  0  0  0  0
  190.0450  178.3130  144.1110 C   0  0  0  0  0  3  0  0  0  0  0  0
  190.6340  177.9210  142.9040 C   0  0  0  0  0  3  0  0  0  0  0  0
  190.0930  176.8580  142.1750 C   0  0  0  0  0  0  0  0  0  0  0  0
  188.3740  176.5780  143.8580 C   0  0  0  0  0  3  0  0  0  0  0  0
  182.4660  176.8990  138.0870 N   0  0  0  0  0  2  0  0  0  0  0  0
  183.4620  175.9140  138.0980 N   0  0  0  0  0  2  0  0  0  0  0  0
  182.8420  174.6820  137.6370 C   0  0  1  0  0  3  0  0  0  0  0  0
  181.8480  174.9840  136.7070 O   0  0  0  0  0  0  0  0  0  0  0  0
  180.8480  174.0380  136.9330 C   0  0  0  0  0  1  0  0  0  0  0  0
  183.8880  173.7920  136.9860 C   0  0  0  0  0  2  0  0  0  0  0  0
  184.6520  173.1570  137.9660 O   0  0  0  0  0  0  0  0  0  0  0  0
  185.9340  173.0960  137.4220 C   0  0  0  0  0  1  0  0  0  0  0  0
  1  5  1  0  0  0  0
  2 11  1  0  0  0  0
  4  3  1  1  0  0  0
  4 11  1  0  0  0  0
  5  7  1  6  0  0  0
  5  6  1  0  0  0  0
  6  2  1  1  0  0  0
  8 12  1  6  0  0  0
  8  9  1  0  0  0  0
  9  6  1  0  0  0  0
  9  4  1  0  0  0  0
 10  1  1  0  0  0  0
 10  8  1  0  0  0  0
 11 18  1  0  0  0  0
 13 15  1  0  0  0  0
 13 12  1  0  0  0  0
 15 14  2  0  0  0  0
 16 17  1  0  0  0  0
 17 13  1  0  0  0  0
 18 19  1  0  0  0  0
 19 21  1  0  0  0  0
 21 20  2  0  0  0  0
 22 21  1  0  0  0  0
 22 23  1  0  0  0  0
 24 23  1  0  0  0  0
 25 30  1  0  0  0  0
 26 31  1  0  0  0  0
 27 24  1  0  0  0  0
 28 27  1  0  0  0  0
 29 28  2  0  0  0  0
 30 26  2  0  0  0  0
 30 29  1  0  0  0  0
 31 27  2  0  0  0  0
 32 33  1  0  0  0  0
 32 10  1  0  0  0  0
 34 33  1  0  0  0  0
 35 36  1  0  0  0  0
 35 34  1  0  0  0  0
 37 34  1  0  0  0  0
 37 38  1  0  0  0  0
 39 38  1  0  0  0  0
M  END
>  <MODEL>
5

>  <REMARK>
 VINA RESULT:      -6.7      3.361      5.671
  Name = 
  16 active torsions:
  status: ('A' for Active; 'I' for Inactive)
    1  A    between atoms: O_4  and  C_23
    2  A    between atoms: C_6  and  C_32
    3  A    between atoms: O_9  and  C_27
    4  A    between atoms: N_11  and  C_20
    5  A    between atoms: N_11  and  N_25
    6  A    between atoms: C_16  and  C_32
    7  A    between atoms: C_16  and  C_36
    8  A    between atoms: C_18  and  S_30
    9  A    between atoms: C_21  and  N_22
   10  A    between atoms: N_22  and  N_38
   11  A    between atoms: C_23  and  C_27
   12  A    between atoms: N_25  and  C_27
   13  A    between atoms: C_26  and  S_30
   14  A    between atoms: C_26  and  C_31
   15  A    between atoms: C_26  and  C_37
   16  A    between atoms: N_28  and  N_38
                            x       y       z     vdW  Elec       q    Type
                         _______ _______ _______ _____ _____    ______ ____

>  <TORSDO>
F 16

$$$$
=
 OpenBabel11062417413D

 39 41  0  0  1  0  0  0  0  0999 V2000
  188.7260  176.2450  142.6020 C   0  0  0  0  0  2  0  0  0  0  0  0
  185.8180  178.3020  143.8200 C   0  0  0  0  0  2  0  0  0  0  0  0
  185.0260  179.0020  140.2700 C   0  0  0  0  0  1  0  0  0  0  0  0
  185.8380  179.1730  141.5490 C   0  0  2  0  0  3  0  0  0  0  0  0
  187.6060  176.7160  143.5590 C   0  0  2  0  0  3  0  0  0  0  0  0
  187.1040  178.0420  143.1880 N   0  0  1  0  0  0  0  0  0  0  0  0
  188.1060  176.7520  144.8620 O   0  0  0  0  0  1  0  0  0  0  0  0
  188.1150  178.1430  140.9760 C   0  0  1  0  0  3  0  0  0  0  0  0
  186.8090  178.0380  141.7650 C   0  0  2  0  0  3  0  0  0  0  0  0
  189.2460  177.3590  141.6700 C   0  0  1  0  0  3  0  0  0  0  0  0
  185.0210  179.1730  142.8480 C   0  0  1  0  0  3  0  0  0  0  0  0
  187.8880  177.4920  139.2950 S   0  0  0  0  0  0  0  0  0  0  0  0
  189.4040  178.2930  138.7020 C   0  0  2  0  0  3  0  0  0  0  0  0
  187.9010  179.3470  137.2120 O   0  0  0  0  0  0  0  0  0  0  0  0
  189.0570  179.2230  137.5820 C   0  0  0  0  0  3  0  0  0  0  0  0
  189.8170  176.4880  137.0330 C   0  0  0  0  0  1  0  0  0  0  0  0
  190.3780  177.2260  138.2350 C   0  0  0  0  0  2  0  0  0  0  0  0
  183.5660  178.6940  142.7430 C   0  0  0  0  0  2  0  0  0  0  0  0
  182.7800  178.8920  144.0330 C   0  0  0  0  0  2  0  0  0  0  0  0
  180.4700  178.4150  144.3410 O   0  0  0  0  0  0  0  0  0  0  0  0
  181.3390  179.0850  143.7210 C   0  0  0  0  0  0  0  0  0  0  0  0
  180.9490  180.0490  142.7420 N   0  0  0  0  0  2  0  0  0  0  0  0
  179.6010  180.2980  142.4520 N   0  0  0  0  0  2  0  0  0  0  0  0
  179.2670  179.5150  141.3380 N   0  0  0  0  0  2  0  0  0  0  0  0
  183.0160  178.2570  137.3970 F   0  0  0  0  0  0  0  0  0  0  0  0
  181.5950  179.8660  138.4340 C   0  0  0  0  0  3  0  0  0  0  0  0
  180.2250  179.2070  140.3250 C   0  0  0  0  0  0  0  0  0  0  0  0
  180.7380  177.9090  140.2380 C   0  0  0  0  0  3  0  0  0  0  0  0
  181.6770  177.5880  139.2520 C   0  0  0  0  0  3  0  0  0  0  0  0
  182.1060  178.5670  138.3500 C   0  0  0  0  0  0  0  0  0  0  0  0
  180.6560  180.1870  139.4190 C   0  0  0  0  0  3  0  0  0  0  0  0
  190.0930  178.2760  142.4120 N   0  0  0  0  0  2  0  0  0  0  0  0
  191.2970  177.6030  142.6550 N   0  0  0  0  0  2  0  0  0  0  0  0
  191.6340  177.8320  144.0510 C   0  0  1  0  0  3  0  0  0  0  0  0
  190.7130  178.7170  144.6110 O   0  0  0  0  0  0  0  0  0  0  0  0
  191.3590  179.9530  144.6120 C   0  0  0  0  0  1  0  0  0  0  0  0
  191.5970  176.5170  144.8120 C   0  0  0  0  0  2  0  0  0  0  0  0
  191.1670  176.7340  146.1210 O   0  0  0  0  0  0  0  0  0  0  0  0
  192.0530  175.9970  146.9050 C   0  0  0  0  0  1  0  0  0  0  0  0
  1  5  1  0  0  0  0
  4  3  1  6  0  0  0
  4  9  1  0  0  0  0
  4 11  1  0  0  0  0
  5  7  1  1  0  0  0
  6  5  1  0  0  0  0
  6  2  1  1  0  0  0
  8 12  1  6  0  0  0
  8 10  1  0  0  0  0
  8  9  1  0  0  0  0
  9  6  1  0  0  0  0
 10 32  1  0  0  0  0
 10  1  1  0  0  0  0
 11  2  1  0  0  0  0
 13 12  1  0  0  0  0
 14 15  2  0  0  0  0
 15 13  1  0  0  0  0
 16 17  1  0  0  0  0
 17 13  1  0  0  0  0
 18 11  1  0  0  0  0
 18 19  1  0  0  0  0
 21 19  1  0  0  0  0
 21 20  2  0  0  0  0
 22 21  1  0  0  0  0
 23 22  1  0  0  0  0
 24 23  1  0  0  0  0
 25 30  1  0  0  0  0
 26 31  1  0  0  0  0
 27 24  1  0  0  0  0
 28 27  1  0  0  0  0
 29 28  2  0  0  0  0
 30 26  2  0  0  0  0
 30 29  1  0  0  0  0
 31 27  2  0  0  0  0
 32 33  1  0  0  0  0
 33 34  1  0  0  0  0
 34 35  1  0  0  0  0
 34 37  1  0  0  0  0
 35 36  1  0  0  0  0
 37 38  1  0  0  0  0
 38 39  1  0  0  0  0
M  END
>  <MODEL>
6

>  <REMARK>
 VINA RESULT:      -6.6      3.411      6.682
  Name = 
  16 active torsions:
  status: ('A' for Active; 'I' for Inactive)
    1  A    between atoms: O_4  and  C_23
    2  A    between atoms: C_6  and  C_32
    3  A    between atoms: O_9  and  C_27
    4  A    between atoms: N_11  and  C_20
    5  A    between atoms: N_11  and  N_25
    6  A    between atoms: C_16  and  C_32
    7  A    between atoms: C_16  and  C_36
    8  A    between atoms: C_18  and  S_30
    9  A    between atoms: C_21  and  N_22
   10  A    between atoms: N_22  and  N_38
   11  A    between atoms: C_23  and  C_27
   12  A    between atoms: N_25  and  C_27
   13  A    between atoms: C_26  and  S_30
   14  A    between atoms: C_26  and  C_31
   15  A    between atoms: C_26  and  C_37
   16  A    between atoms: N_28  and  N_38
                            x       y       z     vdW  Elec       q    Type
                         _______ _______ _______ _____ _____    ______ ____

>  <TORSDO>
F 16

$$$$
=
 OpenBabel11062417413D

 39 41  0  0  1  0  0  0  0  0999 V2000
  188.1510  178.1460  137.6890 C   0  0  0  0  0  2  0  0  0  0  0  0
  188.5660  177.9850  141.4280 C   0  0  0  0  0  2  0  0  0  0  0  0
  192.0830  176.9830  140.8390 C   0  0  0  0  0  1  0  0  0  0  0  0
  190.5780  176.7360  140.8750 C   0  0  2  0  0  3  0  0  0  0  0  0
  187.8710  178.4650  139.1760 C   0  0  2  0  0  3  0  0  0  0  0  0
  188.4890  177.4770  140.0640 N   0  0  1  0  0  0  0  0  0  0  0  0
  186.4910  178.4840  139.3850 O   0  0  0  0  0  1  0  0  0  0  0  0
  189.9430  176.4440  138.4080 C   0  0  1  0  0  3  0  0  0  0  0  0
  189.8770  177.3100  139.6680 C   0  0  2  0  0  3  0  0  0  0  0  0
  188.7610  176.7460  137.4660 C   0  0  1  0  0  3  0  0  0  0  0  0
  189.8340  177.3950  142.0440 C   0  0  1  0  0  3  0  0  0  0  0  0
  191.4990  176.7460  137.5190 S   0  0  0  0  0  0  0  0  0  0  0  0
  191.9560  174.9910  137.5750 C   0  0  2  0  0  3  0  0  0  0  0  0
  194.1660  175.8200  137.7150 O   0  0  0  0  0  0  0  0  0  0  0  0
  193.4130  174.8780  137.8980 C   0  0  0  0  0  3  0  0  0  0  0  0
  191.4100  175.4290  135.1820 C   0  0  0  0  0  1  0  0  0  0  0  0
  191.6510  174.3570  136.2290 C   0  0  0  0  0  2  0  0  0  0  0  0
  190.6080  178.4570  142.8380 C   0  0  0  0  0  2  0  0  0  0  0  0
  191.6710  177.8590  143.7510 C   0  0  0  0  0  2  0  0  0  0  0  0
  191.6680  176.7370  145.8490 O   0  0  0  0  0  0  0  0  0  0  0  0
  191.0750  177.5340  145.0730 C   0  0  0  0  0  0  0  0  0  0  0  0
  189.8470  178.1490  145.4670 N   0  0  0  0  0  2  0  0  0  0  0  0
  189.2750  177.9090  146.7240 N   0  0  0  0  0  2  0  0  0  0  0  0
  188.1340  177.1230  146.5140 N   0  0  0  0  0  2  0  0  0  0  0  0
  183.4520  179.2720  144.3620 F   0  0  0  0  0  0  0  0  0  0  0  0
  185.5030  178.0990  144.0440 C   0  0  0  0  0  3  0  0  0  0  0  0
  186.9410  177.6680  145.9510 C   0  0  0  0  0  0  0  0  0  0  0  0
  186.0240  178.3200  146.7830 C   0  0  0  0  0  3  0  0  0  0  0  0
  184.8510  178.8600  146.2480 C   0  0  0  0  0  3  0  0  0  0  0  0
  184.5900  178.7500  144.8790 C   0  0  0  0  0  0  0  0  0  0  0  0
  186.6770  177.5590  144.5780 C   0  0  0  0  0  3  0  0  0  0  0  0
  187.7390  175.7260  137.6230 N   0  0  0  0  0  2  0  0  0  0  0  0
  188.1400  174.6310  136.8460 N   0  0  0  0  0  2  0  0  0  0  0  0
  186.9870  174.2270  136.0590 C   0  0  1  0  0  3  0  0  0  0  0  0
  186.9200  172.8340  136.0170 O   0  0  0  0  0  0  0  0  0  0  0  0
  188.1880  172.4270  135.6050 C   0  0  0  0  0  1  0  0  0  0  0  0
  185.7160  174.7740  136.6880 C   0  0  0  0  0  2  0  0  0  0  0  0
  184.9490  175.4290  135.7250 O   0  0  0  0  0  0  0  0  0  0  0  0
  183.6300  175.1860  136.1060 C   0  0  0  0  0  1  0  0  0  0  0  0
  1  5  1  0  0  0  0
  2 11  1  0  0  0  0
  4  3  1  6  0  0  0
  4 11  1  0  0  0  0
  5  7  1  6  0  0  0
  5  6  1  0  0  0  0
  6  2  1  1  0  0  0
  8 12  1  6  0  0  0
  8  9  1  0  0  0  0
  9  6  1  0  0  0  0
  9  4  1  0  0  0  0
 10 32  1  0  0  0  0
 10  1  1  0  0  0  0
 10  8  1  0  0  0  0
 11 18  1  0  0  0  0
 12 13  1  0  0  0  0
 13 15  1  0  0  0  0
 14 15  2  0  0  0  0
 16 17  1  0  0  0  0
 17 13  1  0  0  0  0
 18 19  1  0  0  0  0
 19 21  1  0  0  0  0
 21 22  1  0  0  0  0
 21 20  2  0  0  0  0
 22 23  1  0  0  0  0
 24 23  1  0  0  0  0
 25 30  1  0  0  0  0
 26 31  2  0  0  0  0
 26 30  1  0  0  0  0
 27 24  1  0  0  0  0
 27 28  2  0  0  0  0
 29 28  1  0  0  0  0
 30 29  2  0  0  0  0
 31 27  1  0  0  0  0
 33 32  1  0  0  0  0
 34 37  1  0  0  0  0
 34 33  1  0  0  0  0
 35 34  1  0  0  0  0
 36 35  1  0  0  0  0
 38 39  1  0  0  0  0
 38 37  1  0  0  0  0
M  END
>  <MODEL>
7

>  <REMARK>
 VINA RESULT:      -6.6      1.852      2.393
  Name = 
  16 active torsions:
  status: ('A' for Active; 'I' for Inactive)
    1  A    between atoms: O_4  and  C_23
    2  A    between atoms: C_6  and  C_32
    3  A    between atoms: O_9  and  C_27
    4  A    between atoms: N_11  and  C_20
    5  A    between atoms: N_11  and  N_25
    6  A    between atoms: C_16  and  C_32
    7  A    between atoms: C_16  and  C_36
    8  A    between atoms: C_18  and  S_30
    9  A    between atoms: C_21  and  N_22
   10  A    between atoms: N_22  and  N_38
   11  A    between atoms: C_23  and  C_27
   12  A    between atoms: N_25  and  C_27
   13  A    between atoms: C_26  and  S_30
   14  A    between atoms: C_26  and  C_31
   15  A    between atoms: C_26  and  C_37
   16  A    between atoms: N_28  and  N_38
                            x       y       z     vdW  Elec       q    Type
                         _______ _______ _______ _____ _____    ______ ____

>  <TORSDO>
F 16

$$$$
=
 OpenBabel11062417413D

 39 41  0  0  1  0  0  0  0  0999 V2000
  182.0070  179.4370  138.3270 C   0  0  0  0  0  2  0  0  0  0  0  0
  182.2960  178.6190  141.9910 C   0  0  0  0  0  2  0  0  0  0  0  0
  185.9700  178.8680  141.5980 C   0  0  0  0  0  1  0  0  0  0  0  0
  184.6210  178.1790  141.4280 C   0  0  2  0  0  3  0  0  0  0  0  0
  181.5790  179.3340  139.8100 C   0  0  2  0  0  3  0  0  0  0  0  0
  182.4400  178.4130  140.5560 N   0  0  1  0  0  0  0  0  0  0  0  0
  180.2560  178.8930  139.8720 O   0  0  0  0  0  1  0  0  0  0  0  0
  184.2130  178.2400  138.8970 C   0  0  1  0  0  3  0  0  0  0  0  0
  183.8250  178.7580  140.2840 C   0  0  2  0  0  3  0  0  0  0  0  0
  183.0370  178.3650  137.9100 C   0  0  1  0  0  3  0  0  0  0  0  0
  183.6590  178.3210  142.6150 C   0  0  1  0  0  3  0  0  0  0  0  0
  185.6300  179.1770  138.2500 S   0  0  0  0  0  0  0  0  0  0  0  0
  186.5050  177.6620  137.7720 C   0  0  2  0  0  3  0  0  0  0  0  0
  188.2510  178.6290  139.0400 O   0  0  0  0  0  0  0  0  0  0  0  0
  187.8600  177.6620  138.4080 C   0  0  0  0  0  3  0  0  0  0  0  0
  187.3920  176.3800  135.8260 C   0  0  0  0  0  1  0  0  0  0  0  0
  186.6200  177.6130  136.2580 C   0  0  0  0  0  2  0  0  0  0  0  0
  184.0240  179.3730  143.6720 C   0  0  0  0  0  2  0  0  0  0  0  0
  183.5480  179.0000  145.0710 C   0  0  0  0  0  2  0  0  0  0  0  0
  184.5540  178.5790  147.1850 O   0  0  0  0  0  0  0  0  0  0  0  0
  184.7180  178.7170  145.9430 C   0  0  0  0  0  0  0  0  0  0  0  0
  186.0160  178.5740  145.3630 N   0  0  0  0  0  2  0  0  0  0  0  0
  187.1380  178.2580  146.1410 N   0  0  0  0  0  2  0  0  0  0  0  0
  188.1420  177.8300  145.2620 N   0  0  0  0  0  2  0  0  0  0  0  0
  192.9550  175.6540  147.0710 F   0  0  0  0  0  0  0  0  0  0  0  0
  190.7090  176.3160  147.5190 C   0  0  0  0  0  3  0  0  0  0  0  0
  189.3670  177.2730  145.7370 C   0  0  0  0  0  0  0  0  0  0  0  0
  190.4470  177.1370  144.8590 C   0  0  0  0  0  3  0  0  0  0  0  0
  191.6550  176.5930  145.3070 C   0  0  0  0  0  3  0  0  0  0  0  0
  191.7850  176.1820  146.6370 C   0  0  0  0  0  0  0  0  0  0  0  0
  189.5010  176.8600  147.0710 C   0  0  0  0  0  3  0  0  0  0  0  0
  182.3830  177.0760  137.7630 N   0  0  0  0  0  2  0  0  0  0  0  0
  183.3890  176.1050  137.8310 N   0  0  0  0  0  2  0  0  0  0  0  0
  182.7370  174.8420  138.1370 C   0  0  1  0  0  3  0  0  0  0  0  0
  181.4620  175.0900  138.6440 O   0  0  0  0  0  0  0  0  0  0  0  0
  180.6150  174.2700  137.8990 C   0  0  0  0  0  1  0  0  0  0  0  0
  182.6230  174.0020  136.8740 C   0  0  0  0  0  2  0  0  0  0  0  0
  183.8820  173.5350  136.4960 O   0  0  0  0  0  0  0  0  0  0  0  0
  184.0400  172.3460  137.2050 C   0  0  0  0  0  1  0  0  0  0  0  0
  1  5  1  0  0  0  0
  2 11  1  0  0  0  0
  4  3  1  1  0  0  0
  4 11  1  0  0  0  0
  5  7  1  6  0  0  0
  5  6  1  0  0  0  0
  6  2  1  1  0  0  0
  8 12  1  6  0  0  0
  8  9  1  0  0  0  0
  9  6  1  0  0  0  0
  9  4  1  0  0  0  0
 10  1  1  0  0  0  0
 10  8  1  0  0  0  0
 11 18  1  0  0  0  0
 13 12  1  0  0  0  0
 13 15  1  0  0  0  0
 15 14  2  0  0  0  0
 16 17  1  0  0  0  0
 17 13  1  0  0  0  0
 18 19  1  0  0  0  0
 19 21  1  0  0  0  0
 21 20  2  0  0  0  0
 22 21  1  0  0  0  0
 22 23  1  0  0  0  0
 24 27  1  0  0  0  0
 24 23  1  0  0  0  0
 27 31  2  0  0  0  0
 28 29  2  0  0  0  0
 28 27  1  0  0  0  0
 29 30  1  0  0  0  0
 30 25  1  0  0  0  0
 30 26  2  0  0  0  0
 31 26  1  0  0  0  0
 32 33  1  0  0  0  0
 32 10  1  0  0  0  0
 33 34  1  0  0  0  0
 34 35  1  0  0  0  0
 36 35  1  0  0  0  0
 37 34  1  0  0  0  0
 38 37  1  0  0  0  0
 38 39  1  0  0  0  0
M  END
>  <MODEL>
8

>  <REMARK>
 VINA RESULT:      -6.6      3.835      6.284
  Name = 
  16 active torsions:
  status: ('A' for Active; 'I' for Inactive)
    1  A    between atoms: O_4  and  C_23
    2  A    between atoms: C_6  and  C_32
    3  A    between atoms: O_9  and  C_27
    4  A    between atoms: N_11  and  C_20
    5  A    between atoms: N_11  and  N_25
    6  A    between atoms: C_16  and  C_32
    7  A    between atoms: C_16  and  C_36
    8  A    between atoms: C_18  and  S_30
    9  A    between atoms: C_21  and  N_22
   10  A    between atoms: N_22  and  N_38
   11  A    between atoms: C_23  and  C_27
   12  A    between atoms: N_25  and  C_27
   13  A    between atoms: C_26  and  S_30
   14  A    between atoms: C_26  and  C_31
   15  A    between atoms: C_26  and  C_37
   16  A    between atoms: N_28  and  N_38
                            x       y       z     vdW  Elec       q    Type
                         _______ _______ _______ _____ _____    ______ ____

>  <TORSDO>
F 16

$$$$
=
 OpenBabel11062417413D

 39 41  0  0  1  0  0  0  0  0999 V2000
  189.9500  178.9950  144.0020 C   0  0  0  0  0  2  0  0  0  0  0  0
  191.3690  177.0100  141.1350 C   0  0  0  0  0  2  0  0  0  0  0  0
  188.1960  177.6410  139.3300 C   0  0  0  0  0  1  0  0  0  0  0  0
  189.0550  176.9550  140.3870 C   0  0  2  0  0  3  0  0  0  0  0  0
  191.0310  178.3670  143.0910 C   0  0  2  0  0  3  0  0  0  0  0  0
  190.4710  177.3120  142.2420 N   0  0  1  0  0  0  0  0  0  0  0  0
  192.0460  177.8370  143.8890 O   0  0  0  0  0  1  0  0  0  0  0  0
  188.1230  177.8390  142.6060 C   0  0  1  0  0  3  0  0  0  0  0  0
  189.2740  177.8280  141.5990 C   0  0  2  0  0  3  0  0  0  0  0  0
  188.6240  178.2050  144.0170 C   0  0  1  0  0  3  0  0  0  0  0  0
  190.4870  176.6170  139.9500 C   0  0  1  0  0  3  0  0  0  0  0  0
  186.8550  179.0390  142.1000 S   0  0  0  0  0  0  0  0  0  0  0  0
  185.5420  178.1190  142.9490 C   0  0  2  0  0  3  0  0  0  0  0  0
  184.3220  178.2560  140.9280 O   0  0  0  0  0  0  0  0  0  0  0  0
  184.2830  178.2170  142.1460 C   0  0  0  0  0  3  0  0  0  0  0  0
  183.8700  178.7290  144.6940 C   0  0  0  0  0  1  0  0  0  0  0  0
  185.3450  178.7040  144.3360 C   0  0  0  0  0  2  0  0  0  0  0  0
  190.9800  177.2730  138.6520 C   0  0  0  0  0  2  0  0  0  0  0  0
  191.5930  176.2750  137.6770 C   0  0  0  0  0  2  0  0  0  0  0  0
  190.4480  174.1920  137.5990 O   0  0  0  0  0  0  0  0  0  0  0  0
  190.5370  175.3680  137.1550 C   0  0  0  0  0  0  0  0  0  0  0  0
  189.6140  175.8450  136.1750 N   0  0  0  0  0  2  0  0  0  0  0  0
  188.5730  175.0400  135.6930 N   0  0  0  0  0  2  0  0  0  0  0  0
  187.4430  175.3130  136.4770 N   0  0  0  0  0  2  0  0  0  0  0  0
  183.4010  171.5480  137.2860 F   0  0  0  0  0  0  0  0  0  0  0  0
  185.5860  172.0680  136.4890 C   0  0  0  0  0  3  0  0  0  0  0  0
  186.4170  174.3400  136.6770 C   0  0  0  0  0  0  0  0  0  0  0  0
  185.2130  174.7260  137.2740 C   0  0  0  0  0  3  0  0  0  0  0  0
  184.1970  173.7870  137.4790 C   0  0  0  0  0  3  0  0  0  0  0  0
  184.3840  172.4580  137.0870 C   0  0  0  0  0  0  0  0  0  0  0  0
  186.6020  173.0070  136.2840 C   0  0  0  0  0  3  0  0  0  0  0  0
  188.7720  176.9980  144.8120 N   0  0  0  0  0  2  0  0  0  0  0  0
  188.2770  177.2940  146.0880 N   0  0  0  0  0  2  0  0  0  0  0  0
  189.4300  177.5130  146.9470 C   0  0  1  0  0  3  0  0  0  0  0  0
  189.0040  177.6390  148.2700 O   0  0  0  0  0  0  0  0  0  0  0  0
  187.7130  178.1590  148.1820 C   0  0  0  0  0  1  0  0  0  0  0  0
  190.3860  176.3360  146.8350 C   0  0  0  0  0  2  0  0  0  0  0  0
  191.7030  176.7760  146.9740 O   0  0  0  0  0  0  0  0  0  0  0  0
  192.3960  175.6580  147.4360 C   0  0  0  0  0  1  0  0  0  0  0  0
  1 10  1  0  0  0  0
  4  3  1  6  0  0  0
  4  9  1  0  0  0  0
  5  7  1  1  0  0  0
  5  1  1  0  0  0  0
  6  2  1  6  0  0  0
  6  5  1  0  0  0  0
  8 12  1  6  0  0  0
  8 10  1  0  0  0  0
  9  6  1  0  0  0  0
  9  8  1  0  0  0  0
 10 32  1  0  0  0  0
 11  4  1  0  0  0  0
 11  2  1  0  0  0  0
 12 13  1  0  0  0  0
 13 17  1  0  0  0  0
 14 15  2  0  0  0  0
 15 13  1  0  0  0  0
 17 16  1  0  0  0  0
 18 11  1  0  0  0  0
 19 18  1  0  0  0  0
 21 20  2  0  0  0  0
 21 19  1  0  0  0  0
 22 21  1  0  0  0  0
 23 22  1  0  0  0  0
 23 24  1  0  0  0  0
 24 27  1  0  0  0  0
 26 30  1  0  0  0  0
 27 28  2  0  0  0  0
 28 29  1  0  0  0  0
 30 25  1  0  0  0  0
 30 29  2  0  0  0  0
 31 26  2  0  0  0  0
 31 27  1  0  0  0  0
 32 33  1  0  0  0  0
 33 34  1  0  0  0  0
 34 35  1  0  0  0  0
 36 35  1  0  0  0  0
 37 34  1  0  0  0  0
 37 38  1  0  0  0  0
 38 39  1  0  0  0  0
M  END
>  <MODEL>
9

>  <REMARK>
 VINA RESULT:      -6.5      2.569      8.928
  Name = 
  16 active torsions:
  status: ('A' for Active; 'I' for Inactive)
    1  A    between atoms: O_4  and  C_23
    2  A    between atoms: C_6  and  C_32
    3  A    between atoms: O_9  and  C_27
    4  A    between atoms: N_11  and  C_20
    5  A    between atoms: N_11  and  N_25
    6  A    between atoms: C_16  and  C_32
    7  A    between atoms: C_16  and  C_36
    8  A    between atoms: C_18  and  S_30
    9  A    between atoms: C_21  and  N_22
   10  A    between atoms: N_22  and  N_38
   11  A    between atoms: C_23  and  C_27
   12  A    between atoms: N_25  and  C_27
   13  A    between atoms: C_26  and  S_30
   14  A    between atoms: C_26  and  C_31
   15  A    between atoms: C_26  and  C_37
   16  A    between atoms: N_28  and  N_38
                            x       y       z     vdW  Elec       q    Type
                         _______ _______ _______ _____ _____    ______ ____

>  <TORSDO>
F 16

$$$$
