=
 OpenBabel11062414013D

 49 50  0  0  1  0  0  0  0  0999 V2000
  186.9750  178.5450  143.5270 C   0  0  2  0  0  3  0  0  0  0  0  0
  185.6950  179.0550  144.0570 N   0  0  0  0  0  0  0  0  0  0  0  0
  185.0310  178.5620  139.2200 C   0  0  0  0  0  0  0  0  0  0  0  0
  186.9760  178.3680  142.0040 C   0  0  0  0  0  2  0  0  0  0  0  0
  186.1020  179.3960  141.3050 C   0  0  0  0  0  2  0  0  0  0  0  0
  184.0660  177.8960  141.4480 C   0  0  0  0  0  2  0  0  0  0  0  0
  184.9800  178.7240  140.6520 N   0  0  0  0  0  0  0  0  0  0  0  0
  185.8410  179.2650  145.3880 O   0  0  0  0  0  1  0  0  0  0  0  0
  186.0950  178.8540  138.6070 O   0  0  0  0  0  0  0  0  0  0  0  0
  183.6750  178.5540  142.7680 C   0  0  0  0  0  2  0  0  0  0  0  0
  184.6060  178.0980  143.8840 C   0  0  0  0  0  2  0  0  0  0  0  0
  183.8820  178.0500  138.4340 C   0  0  0  0  0  0  0  0  0  0  0  0
  181.5790  177.0450  137.0960 C   0  0  0  0  0  3  0  0  0  0  0  0
  182.7070  176.1920  137.3090 N   0  0  0  0  0  2  0  0  0  0  0  0
  181.6050  178.2990  137.5430 C   0  0  0  0  0  3  0  0  0  0  0  0
  182.7750  178.7920  138.2860 C   0  0  0  0  0  3  0  0  0  0  0  0
  184.0120  176.7230  137.7120 C   0  0  1  0  0  3  0  0  0  0  0  0
  184.8930  176.8850  136.4840 C   0  0  0  0  0  2  0  0  0  0  0  0
  185.3980  175.5880  136.0690 N   0  0  0  0  0  2  0  0  0  0  0  0
  186.1380  175.0400  137.1970 C   0  0  1  0  0  3  0  0  0  0  0  0
  186.1710  173.5150  137.1110 C   0  0  2  0  0  3  0  0  0  0  0  0
  185.5420  173.0390  135.8140 C   0  0  0  0  0  1  0  0  0  0  0  0
  185.4690  172.9570  138.1810 O   0  0  0  0  0  1  0  0  0  0  0  0
  187.5530  175.6010  137.1870 C   0  0  0  0  0  2  0  0  0  0  0  0
  188.0830  175.5350  135.8980 O   0  0  0  0  0  1  0  0  0  0  0  0
  186.6870  176.8920  145.4830 C   0  0  0  0  0  1  0  0  0  0  0  0
  187.5220  177.3110  144.2780 C   0  0  1  0  0  3  0  0  0  0  0  0
  187.8550  176.1330  143.3540 C   0  0  0  0  0  2  0  0  0  0  0  0
  189.3100  175.6540  143.4220 C   0  0  0  0  0  2  0  0  0  0  0  0
  190.2710  176.7710  143.8340 C   0  0  1  0  0  3  0  0  0  0  0  0
  192.0330  175.1080  144.0820 O   0  0  0  0  0  1  0  0  0  0  0  0
  191.4700  176.2580  144.6470 C   0  0  2  0  0  3  0  0  0  0  0  0
  192.3280  175.6020  146.9450 C   0  0  0  0  0  1  0  0  0  0  0  0
  191.1270  176.0630  146.1260 C   0  0  1  0  0  3  0  0  0  0  0  0
  190.5620  177.3490  146.7010 C   0  0  0  0  0  2  0  0  0  0  0  0
  189.3510  177.0470  147.5710 C   0  0  0  0  0  2  0  0  0  0  0  0
  187.5750  178.2070  148.8800 C   0  0  0  0  0  1  0  0  0  0  0  0
  189.0380  178.2210  148.4790 C   0  0  0  0  0  2  0  0  0  0  0  0
  190.6860  177.6390  142.6390 C   0  0  1  0  0  3  0  0  0  0  0  0
  191.0140  179.6760  144.0420 C   0  0  0  0  0  1  0  0  0  0  0  0
  191.6760  178.7090  143.0800 C   0  0  0  0  0  2  0  0  0  0  0  0
  191.2340  176.8620  141.6110 O   0  0  0  0  0  0  0  0  0  0  0  0
  190.5030  177.2010  140.4690 C   0  0  0  0  0  2  0  0  0  0  0  0
  191.2740  176.8570  139.2730 C   0  0  0  0  0  0  0  0  0  0  0  0
  191.9110  176.5800  138.2870 C   0  0  0  0  0  0  0  0  0  0  0  0
  192.0140  175.0960  136.3600 C   0  0  0  0  0  1  0  0  0  0  0  0
  192.6830  176.2480  137.0860 C   0  0  2  0  0  3  0  0  0  0  0  0
  194.6540  175.7010  136.2410 C   0  0  0  0  0  1  0  0  0  0  0  0
  193.9790  175.8800  137.4510 O   0  0  0  0  0  0  0  0  0  0  0  0
  1  2  1  0  0  0  0
  1 27  1  1  0  0  0
  2  8  1  0  0  0  0
  3  7  1  0  0  0  0
  4  1  1  0  0  0  0
  5  4  1  0  0  0  0
  6 10  1  0  0  0  0
  7  5  1  0  0  0  0
  7  6  1  0  0  0  0
  9  3  2  0  0  0  0
 10 11  1  0  0  0  0
 11  2  1  0  0  0  0
 12  3  1  0  0  0  0
 13 14  1  0  0  0  0
 13 15  2  0  0  0  0
 14 17  1  0  0  0  0
 15 16  1  0  0  0  0
 16 12  2  0  0  0  0
 17 18  1  6  0  0  0
 17 12  1  0  0  0  0
 19 18  1  0  0  0  0
 19 20  1  0  0  0  0
 20 24  1  6  0  0  0
 21 22  1  6  0  0  0
 21 20  1  0  0  0  0
 21 23  1  0  0  0  0
 25 24  1  0  0  0  0
 27 26  1  1  0  0  0
 28 29  1  0  0  0  0
 28 27  1  0  0  0  0
 30 29  1  6  0  0  0
 30 32  1  0  0  0  0
 32 31  1  6  0  0  0
 32 34  1  0  0  0  0
 34 35  1  0  0  0  0
 34 33  1  1  0  0  0
 35 36  1  0  0  0  0
 36 38  1  0  0  0  0
 38 37  1  0  0  0  0
 39 41  1  1  0  0  0
 39 30  1  0  0  0  0
 41 40  1  0  0  0  0
 42 39  1  0  0  0  0
 43 42  1  0  0  0  0
 44 43  1  0  0  0  0
 45 44  3  0  0  0  0
 47 46  1  1  0  0  0
 47 49  1  0  0  0  0
 47 45  1  0  0  0  0
 48 49  1  0  0  0  0
M  END
>  <MODEL>
1

>  <REMARK>
 VINA RESULT:      -6.5      0.000      0.000
  Name = 
  22 active torsions:
  status: ('A' for Active; 'I' for Inactive)
    1  A    between atoms: C_2  and  C_35
    2  A    between atoms: C_3  and  CA_19
    3  A    between atoms: C_7  and  C_8
    4  A    between atoms: C_8  and  C_9
    5  A    between atoms: C_9  and  C_45
    6  A    between atoms: C_12  and  C_25
    7  A    between atoms: C_12  and  O_43
    8  A    between atoms: C_13  and  C_27
    9  A    between atoms: C_13  and  C_33
   10  A    between atoms: C_13  and  O_43
   11  A    between atoms: C_16  and  N_29
   12  A    between atoms: C_16  and  C_49
   13  A    between atoms: C_17  and  C_18
   14  A    between atoms: CA_19  and  CB_21
   15  A    between atoms: CA_19  and  N_29
   16  A    between atoms: C_22  and  C_33
   17  A    between atoms: C_22  and  C_41
   18  A    between atoms: C_26  and  C_39
   19  A    between atoms: C_33  and  C_45
   20  A    between atoms: C_35  and  C_47
   21  A    between atoms: C_39  and  O_46
   22  A    between atoms: C_41  and  C_47
                            x       y       z     vdW  Elec       q    Type
                         _______ _______ _______ _____ _____    ______ ____

>  <TORSDO>
F 22

$$$$
=
 OpenBabel11062414013D

 49 50  0  0  1  0  0  0  0  0999 V2000
  185.7140  179.1400  142.8540 C   0  0  2  0  0  3  0  0  0  0  0  0
  184.4220  179.6920  143.3090 N   0  0  0  0  0  0  0  0  0  0  0  0
  183.5900  177.8800  138.8260 C   0  0  0  0  0  0  0  0  0  0  0  0
  185.6630  178.5620  141.4360 C   0  0  0  0  0  2  0  0  0  0  0  0
  184.6830  179.3080  140.5450 C   0  0  0  0  0  2  0  0  0  0  0  0
  182.7760  177.7760  141.2060 C   0  0  0  0  0  2  0  0  0  0  0  0
  183.5880  178.4160  140.1650 N   0  0  0  0  0  0  0  0  0  0  0  0
  184.6100  180.2600  144.5260 O   0  0  0  0  0  1  0  0  0  0  0  0
  184.6000  178.0630  138.0920 O   0  0  0  0  0  0  0  0  0  0  0  0
  182.3940  178.7370  142.3270 C   0  0  0  0  0  2  0  0  0  0  0  0
  183.4050  178.6570  143.4640 C   0  0  0  0  0  2  0  0  0  0  0  0
  182.4510  177.1040  138.2770 C   0  0  0  0  0  0  0  0  0  0  0  0
  180.1530  175.6910  137.3670 C   0  0  0  0  0  3  0  0  0  0  0  0
  181.1570  175.0060  138.1210 N   0  0  0  0  0  2  0  0  0  0  0  0
  180.2900  176.9900  137.1110 C   0  0  0  0  0  3  0  0  0  0  0  0
  181.4500  177.7260  137.6360 C   0  0  0  0  0  3  0  0  0  0  0  0
  182.4810  175.5900  138.3540 C   0  0  1  0  0  3  0  0  0  0  0  0
  183.4630  175.0380  137.3350 C   0  0  0  0  0  2  0  0  0  0  0  0
  183.1380  173.6530  137.0400 N   0  0  0  0  0  2  0  0  0  0  0  0
  184.3040  173.0740  136.3890 C   0  0  1  0  0  3  0  0  0  0  0  0
  185.5820  173.6750  136.9710 C   0  0  2  0  0  3  0  0  0  0  0  0
  186.6240  173.8700  135.8840 C   0  0  0  0  0  1  0  0  0  0  0  0
  186.1080  172.8310  137.9510 O   0  0  0  0  0  1  0  0  0  0  0  0
  184.2910  171.5650  136.5900 C   0  0  0  0  0  2  0  0  0  0  0  0
  183.0350  171.1540  137.0370 O   0  0  0  0  0  1  0  0  0  0  0  0
  185.6330  178.0480  145.1870 C   0  0  0  0  0  1  0  0  0  0  0  0
  186.3870  178.1900  143.8690 C   0  0  1  0  0  3  0  0  0  0  0  0
  186.7830  176.8360  143.2670 C   0  0  0  0  0  2  0  0  0  0  0  0
  188.2920  176.6120  143.1230 C   0  0  0  0  0  2  0  0  0  0  0  0
  189.0430  177.9040  142.7950 C   0  0  1  0  0  3  0  0  0  0  0  0
  191.2220  178.8060  143.4040 O   0  0  0  0  0  1  0  0  0  0  0  0
  190.0060  178.3360  143.9120 C   0  0  2  0  0  3  0  0  0  0  0  0
  191.6530  176.7620  145.0330 C   0  0  0  0  0  1  0  0  0  0  0  0
  190.2070  177.2390  144.9610 C   0  0  1  0  0  3  0  0  0  0  0  0
  189.7480  177.7340  146.3210 C   0  0  0  0  0  2  0  0  0  0  0  0
  188.6790  176.8080  146.8820 C   0  0  0  0  0  2  0  0  0  0  0  0
  188.8600  178.4160  148.7790 C   0  0  0  0  0  1  0  0  0  0  0  0
  187.9370  177.4780  148.0230 C   0  0  0  0  0  2  0  0  0  0  0  0
  189.7140  177.8410  141.4170 C   0  0  1  0  0  3  0  0  0  0  0  0
  191.9710  177.2280  140.5470 C   0  0  0  0  0  1  0  0  0  0  0  0
  190.8050  176.7790  141.4070 C   0  0  0  0  0  2  0  0  0  0  0  0
  188.7790  177.5890  140.4050 O   0  0  0  0  0  0  0  0  0  0  0  0
  188.8700  178.6850  139.5430 C   0  0  0  0  0  2  0  0  0  0  0  0
  189.0260  178.2150  138.1660 C   0  0  0  0  0  0  0  0  0  0  0  0
  189.1510  177.8240  137.0310 C   0  0  0  0  0  0  0  0  0  0  0  0
  187.9880  177.5330  134.9130 C   0  0  0  0  0  1  0  0  0  0  0  0
  189.2980  177.3450  135.6540 C   0  0  2  0  0  3  0  0  0  0  0  0
  191.0070  175.9700  135.9530 C   0  0  0  0  0  1  0  0  0  0  0  0
  189.6400  175.9920  135.6640 O   0  0  0  0  0  0  0  0  0  0  0  0
  1  2  1  0  0  0  0
  1 27  1  1  0  0  0
  2 11  1  0  0  0  0
  2  8  1  0  0  0  0
  3  7  1  0  0  0  0
  4  1  1  0  0  0  0
  5  4  1  0  0  0  0
  6 10  1  0  0  0  0
  7  5  1  0  0  0  0
  7  6  1  0  0  0  0
  9  3  2  0  0  0  0
 10 11  1  0  0  0  0
 12 17  1  0  0  0  0
 12  3  1  0  0  0  0
 13 14  1  0  0  0  0
 14 17  1  0  0  0  0
 15 13  2  0  0  0  0
 15 16  1  0  0  0  0
 16 12  2  0  0  0  0
 17 18  1  6  0  0  0
 19 18  1  0  0  0  0
 20 24  1  1  0  0  0
 20 21  1  0  0  0  0
 20 19  1  0  0  0  0
 21 22  1  6  0  0  0
 21 23  1  0  0  0  0
 24 25  1  0  0  0  0
 27 26  1  1  0  0  0
 28 27  1  0  0  0  0
 29 28  1  0  0  0  0
 30 29  1  1  0  0  0
 30 32  1  0  0  0  0
 32 31  1  6  0  0  0
 32 34  1  0  0  0  0
 34 33  1  1  0  0  0
 34 35  1  0  0  0  0
 35 36  1  0  0  0  0
 36 38  1  0  0  0  0
 38 37  1  0  0  0  0
 39 41  1  1  0  0  0
 39 30  1  0  0  0  0
 40 41  1  0  0  0  0
 42 39  1  0  0  0  0
 43 42  1  0  0  0  0
 44 43  1  0  0  0  0
 45 44  3  0  0  0  0
 47 46  1  6  0  0  0
 47 49  1  0  0  0  0
 47 45  1  0  0  0  0
 49 48  1  0  0  0  0
M  END
>  <MODEL>
2

>  <REMARK>
 VINA RESULT:      -6.1      1.816      2.609
  Name = 
  22 active torsions:
  status: ('A' for Active; 'I' for Inactive)
    1  A    between atoms: C_2  and  C_35
    2  A    between atoms: C_3  and  CA_19
    3  A    between atoms: C_7  and  C_8
    4  A    between atoms: C_8  and  C_9
    5  A    between atoms: C_9  and  C_45
    6  A    between atoms: C_12  and  C_25
    7  A    between atoms: C_12  and  O_43
    8  A    between atoms: C_13  and  C_27
    9  A    between atoms: C_13  and  C_33
   10  A    between atoms: C_13  and  O_43
   11  A    between atoms: C_16  and  N_29
   12  A    between atoms: C_16  and  C_49
   13  A    between atoms: C_17  and  C_18
   14  A    between atoms: CA_19  and  CB_21
   15  A    between atoms: CA_19  and  N_29
   16  A    between atoms: C_22  and  C_33
   17  A    between atoms: C_22  and  C_41
   18  A    between atoms: C_26  and  C_39
   19  A    between atoms: C_33  and  C_45
   20  A    between atoms: C_35  and  C_47
   21  A    between atoms: C_39  and  O_46
   22  A    between atoms: C_41  and  C_47
                            x       y       z     vdW  Elec       q    Type
                         _______ _______ _______ _____ _____    ______ ____

>  <TORSDO>
F 22

$$$$
=
 OpenBabel11062414013D

 49 50  0  0  1  0  0  0  0  0999 V2000
  185.4740  179.2540  142.8590 C   0  0  2  0  0  3  0  0  0  0  0  0
  184.0550  179.6100  143.0540 N   0  0  0  0  0  0  0  0  0  0  0  0
  184.3740  177.8710  138.4770 C   0  0  0  0  0  0  0  0  0  0  0  0
  185.7820  178.7280  141.4530 C   0  0  0  0  0  2  0  0  0  0  0  0
  184.9000  179.3680  140.3930 C   0  0  0  0  0  2  0  0  0  0  0  0
  183.1340  177.5690  140.6480 C   0  0  0  0  0  2  0  0  0  0  0  0
  184.0360  178.3520  139.7940 N   0  0  0  0  0  0  0  0  0  0  0  0
  183.9200  180.1520  144.2890 O   0  0  0  0  0  1  0  0  0  0  0  0
  185.4730  178.2160  137.9600 O   0  0  0  0  0  0  0  0  0  0  0  0
  182.4100  178.4280  141.6800 C   0  0  0  0  0  2  0  0  0  0  0  0
  183.1810  178.4420  142.9940 C   0  0  0  0  0  2  0  0  0  0  0  0
  183.4830  176.9690  137.7060 C   0  0  0  0  0  0  0  0  0  0  0  0
  181.9340  175.1740  136.1310 C   0  0  0  0  0  3  0  0  0  0  0  0
  181.9590  176.5670  135.8050 N   0  0  0  0  0  2  0  0  0  0  0  0
  182.6510  174.7230  137.1570 C   0  0  0  0  0  3  0  0  0  0  0  0
  183.4960  175.6470  137.9290 C   0  0  0  0  0  3  0  0  0  0  0  0
  182.4830  177.5690  136.7370 C   0  0  1  0  0  3  0  0  0  0  0  0
  181.3310  178.1960  137.5040 C   0  0  0  0  0  2  0  0  0  0  0  0
  181.5130  179.6360  137.5720 N   0  0  0  0  0  2  0  0  0  0  0  0
  180.2250  180.2410  137.2690 C   0  0  1  0  0  3  0  0  0  0  0  0
  179.6830  180.9630  138.5020 C   0  0  2  0  0  3  0  0  0  0  0  0
  179.1020  182.3130  138.1200 C   0  0  0  0  0  1  0  0  0  0  0  0
  180.7060  181.1630  139.4310 O   0  0  0  0  0  1  0  0  0  0  0  0
  180.3890  181.2200  136.1150 C   0  0  0  0  0  2  0  0  0  0  0  0
  180.9490  180.5690  135.0150 O   0  0  0  0  0  1  0  0  0  0  0  0
  185.2210  178.3240  145.2490 C   0  0  0  0  0  1  0  0  0  0  0  0
  186.0620  178.3670  143.9780 C   0  0  1  0  0  3  0  0  0  0  0  0
  186.4720  176.9690  143.4960 C   0  0  0  0  0  2  0  0  0  0  0  0
  187.9750  176.6810  143.5630 C   0  0  0  0  0  2  0  0  0  0  0  0
  188.8200  177.9280  143.2900 C   0  0  1  0  0  3  0  0  0  0  0  0
  190.8980  178.9680  144.0180 O   0  0  0  0  0  1  0  0  0  0  0  0
  189.7610  178.2780  144.4530 C   0  0  2  0  0  3  0  0  0  0  0  0
  191.5990  176.6990  145.2100 C   0  0  0  0  0  1  0  0  0  0  0  0
  190.1190  177.0530  145.2980 C   0  0  1  0  0  3  0  0  0  0  0  0
  189.7210  177.2880  146.7450 C   0  0  0  0  0  2  0  0  0  0  0  0
  188.2170  177.1260  146.9070 C   0  0  0  0  0  2  0  0  0  0  0  0
  188.8860  178.4340  148.9220 C   0  0  0  0  0  1  0  0  0  0  0  0
  187.7180  177.9290  148.0940 C   0  0  0  0  0  2  0  0  0  0  0  0
  189.5420  177.8460  141.9390 C   0  0  1  0  0  3  0  0  0  0  0  0
  191.8830  177.0710  141.5580 C   0  0  0  0  0  1  0  0  0  0  0  0
  190.4720  176.6400  141.9080 C   0  0  0  0  0  2  0  0  0  0  0  0
  188.6320  177.7870  140.8770 O   0  0  0  0  0  0  0  0  0  0  0  0
  189.3630  178.1640  139.7470 C   0  0  0  0  0  2  0  0  0  0  0  0
  188.9470  177.3550  138.6010 C   0  0  0  0  0  0  0  0  0  0  0  0
  188.5980  176.6880  137.6580 C   0  0  0  0  0  0  0  0  0  0  0  0
  187.0250  174.9770  136.9380 C   0  0  0  0  0  1  0  0  0  0  0  0
  188.1710  175.8750  136.5160 C   0  0  2  0  0  3  0  0  0  0  0  0
  189.2480  173.9860  136.9260 C   0  0  0  0  0  1  0  0  0  0  0  0
  189.2390  175.0930  136.0740 O   0  0  0  0  0  0  0  0  0  0  0  0
  1  2  1  0  0  0  0
  1 27  1  1  0  0  0
  2  8  1  0  0  0  0
  3  7  1  0  0  0  0
  4  1  1  0  0  0  0
  5  4  1  0  0  0  0
  6 10  1  0  0  0  0
  7  5  1  0  0  0  0
  7  6  1  0  0  0  0
  9  3  2  0  0  0  0
 10 11  1  0  0  0  0
 11  2  1  0  0  0  0
 12 16  2  0  0  0  0
 12  3  1  0  0  0  0
 13 15  2  0  0  0  0
 14 13  1  0  0  0  0
 14 17  1  0  0  0  0
 15 16  1  0  0  0  0
 17 18  1  1  0  0  0
 17 12  1  0  0  0  0
 18 19  1  0  0  0  0
 20 24  1  6  0  0  0
 20 19  1  0  0  0  0
 20 21  1  0  0  0  0
 21 22  1  6  0  0  0
 21 23  1  0  0  0  0
 25 24  1  0  0  0  0
 27 26  1  1  0  0  0
 28 29  1  0  0  0  0
 28 27  1  0  0  0  0
 30 29  1  1  0  0  0
 30 32  1  0  0  0  0
 32 31  1  6  0  0  0
 32 34  1  0  0  0  0
 34 33  1  1  0  0  0
 34 35  1  0  0  0  0
 35 36  1  0  0  0  0
 36 38  1  0  0  0  0
 38 37  1  0  0  0  0
 39 41  1  1  0  0  0
 39 30  1  0  0  0  0
 40 41  1  0  0  0  0
 42 39  1  0  0  0  0
 43 42  1  0  0  0  0
 44 43  1  0  0  0  0
 45 44  3  0  0  0  0
 47 46  1  1  0  0  0
 47 45  1  0  0  0  0
 49 47  1  0  0  0  0
 49 48  1  0  0  0  0
M  END
>  <MODEL>
3

>  <REMARK>
 VINA RESULT:      -6.1      2.238      4.217
  Name = 
  22 active torsions:
  status: ('A' for Active; 'I' for Inactive)
    1  A    between atoms: C_2  and  C_35
    2  A    between atoms: C_3  and  CA_19
    3  A    between atoms: C_7  and  C_8
    4  A    between atoms: C_8  and  C_9
    5  A    between atoms: C_9  and  C_45
    6  A    between atoms: C_12  and  C_25
    7  A    between atoms: C_12  and  O_43
    8  A    between atoms: C_13  and  C_27
    9  A    between atoms: C_13  and  C_33
   10  A    between atoms: C_13  and  O_43
   11  A    between atoms: C_16  and  N_29
   12  A    between atoms: C_16  and  C_49
   13  A    between atoms: C_17  and  C_18
   14  A    between atoms: CA_19  and  CB_21
   15  A    between atoms: CA_19  and  N_29
   16  A    between atoms: C_22  and  C_33
   17  A    between atoms: C_22  and  C_41
   18  A    between atoms: C_26  and  C_39
   19  A    between atoms: C_33  and  C_45
   20  A    between atoms: C_35  and  C_47
   21  A    between atoms: C_39  and  O_46
   22  A    between atoms: C_41  and  C_47
                            x       y       z     vdW  Elec       q    Type
                         _______ _______ _______ _____ _____    ______ ____

>  <TORSDO>
F 22

$$$$
=
 OpenBabel11062414013D

 49 50  0  0  1  0  0  0  0  0999 V2000
  186.0780  178.8460  143.6650 C   0  0  2  0  0  3  0  0  0  0  0  0
  184.8610  179.5130  144.1690 N   0  0  0  0  0  0  0  0  0  0  0  0
  183.8870  178.3080  139.5130 C   0  0  0  0  0  0  0  0  0  0  0  0
  185.9800  178.4320  142.1930 C   0  0  0  0  0  2  0  0  0  0  0  0
  185.1230  179.3910  141.3820 C   0  0  0  0  0  2  0  0  0  0  0  0
  183.0210  178.0620  141.8640 C   0  0  0  0  0  2  0  0  0  0  0  0
  183.9290  178.6960  140.9020 N   0  0  0  0  0  0  0  0  0  0  0  0
  185.0970  179.9200  145.4400 O   0  0  0  0  0  1  0  0  0  0  0  0
  184.9270  178.4320  138.8090 O   0  0  0  0  0  0  0  0  0  0  0  0
  182.7450  178.9430  143.0790 C   0  0  0  0  0  2  0  0  0  0  0  0
  183.7140  178.6110  144.2060 C   0  0  0  0  0  2  0  0  0  0  0  0
  182.6680  177.7510  138.8780 C   0  0  0  0  0  0  0  0  0  0  0  0
  180.2210  176.7760  137.7960 C   0  0  0  0  0  3  0  0  0  0  0  0
  181.0360  175.9180  138.6020 N   0  0  0  0  0  2  0  0  0  0  0  0
  180.6040  178.0320  137.5740 C   0  0  0  0  0  3  0  0  0  0  0  0
  181.8390  178.5460  138.1860 C   0  0  0  0  0  3  0  0  0  0  0  0
  182.4230  176.2560  138.9300 C   0  0  1  0  0  3  0  0  0  0  0  0
  183.3580  175.5440  137.9660 C   0  0  0  0  0  2  0  0  0  0  0  0
  182.7530  174.2970  137.5280 N   0  0  0  0  0  2  0  0  0  0  0  0
  183.5370  173.8200  136.3980 C   0  0  1  0  0  3  0  0  0  0  0  0
  184.2190  172.4990  136.7530 C   0  0  2  0  0  3  0  0  0  0  0  0
  183.1850  171.4240  137.0370 C   0  0  0  0  0  1  0  0  0  0  0  0
  185.0210  172.6610  137.8840 O   0  0  0  0  0  1  0  0  0  0  0  0
  182.6210  173.6360  135.1960 C   0  0  0  0  0  2  0  0  0  0  0  0
  181.4510  174.3740  135.3710 O   0  0  0  0  0  1  0  0  0  0  0  0
  185.6440  177.3210  145.6960 C   0  0  0  0  0  1  0  0  0  0  0  0
  186.6010  177.7140  144.5770 C   0  0  1  0  0  3  0  0  0  0  0  0
  187.1300  176.5010  143.8010 C   0  0  0  0  0  2  0  0  0  0  0  0
  188.6570  176.4230  143.6930 C   0  0  0  0  0  2  0  0  0  0  0  0
  189.3000  177.8010  143.5180 C   0  0  1  0  0  3  0  0  0  0  0  0
  191.3260  178.8540  144.3660 O   0  0  0  0  0  1  0  0  0  0  0  0
  190.1280  178.2330  144.7380 C   0  0  2  0  0  3  0  0  0  0  0  0
  191.8010  176.5940  145.7170 C   0  0  0  0  0  1  0  0  0  0  0  0
  190.3570  177.0820  145.7210 C   0  0  1  0  0  3  0  0  0  0  0  0
  189.9500  177.5090  147.1210 C   0  0  0  0  0  2  0  0  0  0  0  0
  188.8160  176.6300  147.6270 C   0  0  0  0  0  2  0  0  0  0  0  0
  187.7980  178.8400  148.1720 C   0  0  0  0  0  1  0  0  0  0  0  0
  187.9460  177.3940  148.6080 C   0  0  0  0  0  2  0  0  0  0  0  0
  190.0770  177.9070  142.1990 C   0  0  1  0  0  3  0  0  0  0  0  0
  192.4110  177.2820  141.5800 C   0  0  0  0  0  1  0  0  0  0  0  0
  191.0770  176.7640  142.0810 C   0  0  0  0  0  2  0  0  0  0  0  0
  189.2120  177.9140  141.0970 O   0  0  0  0  0  0  0  0  0  0  0  0
  189.7980  177.0520  140.1680 C   0  0  0  0  0  2  0  0  0  0  0  0
  189.0710  177.1290  138.9000 C   0  0  0  0  0  0  0  0  0  0  0  0
  188.4670  177.1910  137.8580 C   0  0  0  0  0  0  0  0  0  0  0  0
  187.3510  178.7050  136.3130 C   0  0  0  0  0  1  0  0  0  0  0  0
  187.7280  177.2630  136.5940 C   0  0  2  0  0  3  0  0  0  0  0  0
  186.9980  175.1810  136.4280 C   0  0  0  0  0  1  0  0  0  0  0  0
  186.5720  176.4870  136.6830 O   0  0  0  0  0  0  0  0  0  0  0  0
  1  2  1  0  0  0  0
  1 27  1  1  0  0  0
  2 11  1  0  0  0  0
  2  8  1  0  0  0  0
  3  7  1  0  0  0  0
  4  1  1  0  0  0  0
  5  4  1  0  0  0  0
  6 10  1  0  0  0  0
  7  5  1  0  0  0  0
  7  6  1  0  0  0  0
  9  3  2  0  0  0  0
 10 11  1  0  0  0  0
 12 17  1  0  0  0  0
 12  3  1  0  0  0  0
 13 14  1  0  0  0  0
 14 17  1  0  0  0  0
 15 13  2  0  0  0  0
 15 16  1  0  0  0  0
 16 12  2  0  0  0  0
 17 18  1  6  0  0  0
 19 18  1  0  0  0  0
 20 24  1  6  0  0  0
 20 21  1  0  0  0  0
 20 19  1  0  0  0  0
 21 22  1  1  0  0  0
 21 23  1  0  0  0  0
 24 25  1  0  0  0  0
 27 26  1  1  0  0  0
 28 27  1  0  0  0  0
 29 28  1  0  0  0  0
 30 29  1  1  0  0  0
 30 32  1  0  0  0  0
 32 31  1  6  0  0  0
 32 34  1  0  0  0  0
 34 33  1  1  0  0  0
 34 35  1  0  0  0  0
 35 36  1  0  0  0  0
 36 38  1  0  0  0  0
 37 38  1  0  0  0  0
 39 41  1  6  0  0  0
 39 30  1  0  0  0  0
 40 41  1  0  0  0  0
 42 39  1  0  0  0  0
 43 42  1  0  0  0  0
 44 43  1  0  0  0  0
 45 44  3  0  0  0  0
 47 46  1  1  0  0  0
 47 49  1  0  0  0  0
 47 45  1  0  0  0  0
 48 49  1  0  0  0  0
M  END
>  <MODEL>
4

>  <REMARK>
 VINA RESULT:      -6.1      2.125      2.857
  Name = 
  22 active torsions:
  status: ('A' for Active; 'I' for Inactive)
    1  A    between atoms: C_2  and  C_35
    2  A    between atoms: C_3  and  CA_19
    3  A    between atoms: C_7  and  C_8
    4  A    between atoms: C_8  and  C_9
    5  A    between atoms: C_9  and  C_45
    6  A    between atoms: C_12  and  C_25
    7  A    between atoms: C_12  and  O_43
    8  A    between atoms: C_13  and  C_27
    9  A    between atoms: C_13  and  C_33
   10  A    between atoms: C_13  and  O_43
   11  A    between atoms: C_16  and  N_29
   12  A    between atoms: C_16  and  C_49
   13  A    between atoms: C_17  and  C_18
   14  A    between atoms: CA_19  and  CB_21
   15  A    between atoms: CA_19  and  N_29
   16  A    between atoms: C_22  and  C_33
   17  A    between atoms: C_22  and  C_41
   18  A    between atoms: C_26  and  C_39
   19  A    between atoms: C_33  and  C_45
   20  A    between atoms: C_35  and  C_47
   21  A    between atoms: C_39  and  O_46
   22  A    between atoms: C_41  and  C_47
                            x       y       z     vdW  Elec       q    Type
                         _______ _______ _______ _____ _____    ______ ____

>  <TORSDO>
F 22

$$$$
=
 OpenBabel11062414013D

 49 50  0  0  1  0  0  0  0  0999 V2000
  185.8740  179.1390  142.0990 C   0  0  2  0  0  3  0  0  0  0  0  0
  184.5640  179.5770  142.6190 N   0  0  0  0  0  0  0  0  0  0  0  0
  183.6540  177.5890  138.2260 C   0  0  0  0  0  0  0  0  0  0  0  0
  185.7980  178.5260  140.6960 C   0  0  0  0  0  2  0  0  0  0  0  0
  184.7010  179.1540  139.8520 C   0  0  0  0  0  2  0  0  0  0  0  0
  182.9920  177.4640  140.6520 C   0  0  0  0  0  2  0  0  0  0  0  0
  183.6780  178.1540  139.5530 N   0  0  0  0  0  0  0  0  0  0  0  0
  184.7650  180.1880  143.8120 O   0  0  0  0  0  1  0  0  0  0  0  0
  184.5990  177.8500  137.4310 O   0  0  0  0  0  0  0  0  0  0  0  0
  182.5830  178.4110  141.7760 C   0  0  0  0  0  2  0  0  0  0  0  0
  183.6600  178.4540  142.8520 C   0  0  0  0  0  2  0  0  0  0  0  0
  182.5650  176.6960  137.7600 C   0  0  0  0  0  0  0  0  0  0  0  0
  180.3590  175.0660  136.9980 C   0  0  0  0  0  3  0  0  0  0  0  0
  181.3960  174.5220  137.8200 N   0  0  0  0  0  2  0  0  0  0  0  0
  180.4220  176.3380  136.6110 C   0  0  0  0  0  3  0  0  0  0  0  0
  181.5350  177.1900  137.0580 C   0  0  0  0  0  3  0  0  0  0  0  0
  182.6820  175.2030  137.9920 C   0  0  1  0  0  3  0  0  0  0  0  0
  183.7010  174.6070  137.0350 C   0  0  0  0  0  2  0  0  0  0  0  0
  184.6330  173.7690  137.7700 N   0  0  0  0  0  2  0  0  0  0  0  0
  185.9460  173.9750  137.1770 C   0  0  1  0  0  3  0  0  0  0  0  0
  186.6250  172.6290  136.9270 C   0  0  2  0  0  3  0  0  0  0  0  0
  188.1350  172.7690  137.0020 C   0  0  0  0  0  1  0  0  0  0  0  0
  186.2820  172.1450  135.6620 O   0  0  0  0  0  1  0  0  0  0  0  0
  185.7910  174.7390  135.8690 C   0  0  0  0  0  2  0  0  0  0  0  0
  186.7230  175.7750  135.8090 O   0  0  0  0  0  1  0  0  0  0  0  0
  185.8450  177.3900  143.9910 C   0  0  0  0  0  1  0  0  0  0  0  0
  186.6920  178.2810  143.0890 C   0  0  1  0  0  3  0  0  0  0  0  0
  187.8480  177.5200  142.4270 C   0  0  0  0  0  2  0  0  0  0  0  0
  189.1250  178.3420  142.2220 C   0  0  0  0  0  2  0  0  0  0  0  0
  190.2400  177.5300  141.5580 C   0  0  1  0  0  3  0  0  0  0  0  0
  189.9020  175.5470  142.9320 O   0  0  0  0  0  1  0  0  0  0  0  0
  190.8520  176.4780  142.4950 C   0  0  2  0  0  3  0  0  0  0  0  0
  191.5740  178.6360  143.6210 C   0  0  0  0  0  1  0  0  0  0  0  0
  191.6130  177.1120  143.6620 C   0  0  1  0  0  3  0  0  0  0  0  0
  191.0540  176.6080  144.9800 C   0  0  0  0  0  2  0  0  0  0  0  0
  190.2390  177.7010  145.6560 C   0  0  0  0  0  2  0  0  0  0  0  0
  188.3840  177.7870  147.3180 C   0  0  0  0  0  1  0  0  0  0  0  0
  188.8510  177.1960  146.0010 C   0  0  0  0  0  2  0  0  0  0  0  0
  189.7960  176.9460  140.2100 C   0  0  1  0  0  3  0  0  0  0  0  0
  188.2830  177.6620  138.3610 C   0  0  0  0  0  1  0  0  0  0  0  0
  189.4550  178.0640  139.2350 C   0  0  0  0  0  2  0  0  0  0  0  0
  190.7800  176.1090  139.6690 O   0  0  0  0  0  0  0  0  0  0  0  0
  191.6640  176.9660  139.0080 C   0  0  0  0  0  2  0  0  0  0  0  0
  192.7260  176.1820  138.3750 C   0  0  0  0  0  0  0  0  0  0  0  0
  193.6050  175.5380  137.8570 C   0  0  0  0  0  0  0  0  0  0  0  0
  194.3290  173.2820  137.2970 C   0  0  0  0  0  1  0  0  0  0  0  0
  194.6760  174.7570  137.2320 C   0  0  2  0  0  3  0  0  0  0  0  0
  195.7780  174.2250  139.0760 C   0  0  0  0  0  1  0  0  0  0  0  0
  195.8760  174.9850  137.9080 O   0  0  0  0  0  0  0  0  0  0  0  0
  1  2  1  0  0  0  0
  1 27  1  1  0  0  0
  2 11  1  0  0  0  0
  2  8  1  0  0  0  0
  3  7  1  0  0  0  0
  4  1  1  0  0  0  0
  5  4  1  0  0  0  0
  6 10  1  0  0  0  0
  7  5  1  0  0  0  0
  7  6  1  0  0  0  0
  9  3  2  0  0  0  0
 10 11  1  0  0  0  0
 12 17  1  0  0  0  0
 12  3  1  0  0  0  0
 13 14  1  0  0  0  0
 14 17  1  0  0  0  0
 15 13  2  0  0  0  0
 15 16  1  0  0  0  0
 16 12  2  0  0  0  0
 17 18  1  6  0  0  0
 18 19  1  0  0  0  0
 20 24  1  6  0  0  0
 20 19  1  0  0  0  0
 21 22  1  6  0  0  0
 21 20  1  0  0  0  0
 23 21  1  0  0  0  0
 25 24  1  0  0  0  0
 27 26  1  6  0  0  0
 28 27  1  0  0  0  0
 29 28  1  0  0  0  0
 30 29  1  1  0  0  0
 30 32  1  0  0  0  0
 32 31  1  1  0  0  0
 32 34  1  0  0  0  0
 34 33  1  1  0  0  0
 34 35  1  0  0  0  0
 35 36  1  0  0  0  0
 36 38  1  0  0  0  0
 38 37  1  0  0  0  0
 39 41  1  6  0  0  0
 39 30  1  0  0  0  0
 40 41  1  0  0  0  0
 42 39  1  0  0  0  0
 43 42  1  0  0  0  0
 44 43  1  0  0  0  0
 45 44  3  0  0  0  0
 47 46  1  1  0  0  0
 47 45  1  0  0  0  0
 47 49  1  0  0  0  0
 49 48  1  0  0  0  0
M  END
>  <MODEL>
5

>  <REMARK>
 VINA RESULT:      -6.0      1.668      2.502
  Name = 
  22 active torsions:
  status: ('A' for Active; 'I' for Inactive)
    1  A    between atoms: C_2  and  C_35
    2  A    between atoms: C_3  and  CA_19
    3  A    between atoms: C_7  and  C_8
    4  A    between atoms: C_8  and  C_9
    5  A    between atoms: C_9  and  C_45
    6  A    between atoms: C_12  and  C_25
    7  A    between atoms: C_12  and  O_43
    8  A    between atoms: C_13  and  C_27
    9  A    between atoms: C_13  and  C_33
   10  A    between atoms: C_13  and  O_43
   11  A    between atoms: C_16  and  N_29
   12  A    between atoms: C_16  and  C_49
   13  A    between atoms: C_17  and  C_18
   14  A    between atoms: CA_19  and  CB_21
   15  A    between atoms: CA_19  and  N_29
   16  A    between atoms: C_22  and  C_33
   17  A    between atoms: C_22  and  C_41
   18  A    between atoms: C_26  and  C_39
   19  A    between atoms: C_33  and  C_45
   20  A    between atoms: C_35  and  C_47
   21  A    between atoms: C_39  and  O_46
   22  A    between atoms: C_41  and  C_47
                            x       y       z     vdW  Elec       q    Type
                         _______ _______ _______ _____ _____    ______ ____

>  <TORSDO>
F 22

$$$$
=
 OpenBabel11062414013D

 49 50  0  0  1  0  0  0  0  0999 V2000
  186.0340  179.1490  141.5700 C   0  0  2  0  0  3  0  0  0  0  0  0
  184.8240  179.4720  142.3520 N   0  0  0  0  0  0  0  0  0  0  0  0
  183.2140  177.5590  138.1300 C   0  0  0  0  0  0  0  0  0  0  0  0
  185.7280  178.5760  140.1830 C   0  0  0  0  0  2  0  0  0  0  0  0
  184.4490  179.1470  139.5930 C   0  0  0  0  0  2  0  0  0  0  0  0
  183.0450  177.3090  140.6290 C   0  0  0  0  0  2  0  0  0  0  0  0
  183.4560  178.0820  139.4510 N   0  0  0  0  0  0  0  0  0  0  0  0
  185.2110  180.0590  143.5100 O   0  0  0  0  0  1  0  0  0  0  0  0
  183.9660  177.9140  137.1800 O   0  0  0  0  0  0  0  0  0  0  0  0
  182.8000  178.1880  141.8520 C   0  0  0  0  0  2  0  0  0  0  0  0
  184.0610  178.2770  142.7030 C   0  0  0  0  0  2  0  0  0  0  0  0
  182.1180  176.6020  137.8410 C   0  0  0  0  0  0  0  0  0  0  0  0
  180.1020  174.7270  137.1140 C   0  0  0  0  0  3  0  0  0  0  0  0
  179.8440  176.1300  137.0020 N   0  0  0  0  0  2  0  0  0  0  0  0
  181.2910  174.3070  137.5400 C   0  0  0  0  0  3  0  0  0  0  0  0
  182.3470  175.2800  137.8560 C   0  0  0  0  0  3  0  0  0  0  0  0
  180.7110  177.1280  137.6330 C   0  0  1  0  0  3  0  0  0  0  0  0
  180.1130  177.5480  138.9640 C   0  0  0  0  0  2  0  0  0  0  0  0
  180.1010  178.9980  139.0610 N   0  0  0  0  0  2  0  0  0  0  0  0
  179.8600  179.3280  140.4580 C   0  0  1  0  0  3  0  0  0  0  0  0
  179.2410  180.7210  140.5690 C   0  0  2  0  0  3  0  0  0  0  0  0
  179.7320  181.6150  139.4440 C   0  0  0  0  0  1  0  0  0  0  0  0
  179.5860  181.3050  141.7890 O   0  0  0  0  0  1  0  0  0  0  0  0
  178.9310  178.2860  141.0650 C   0  0  0  0  0  2  0  0  0  0  0  0
  179.2380  178.1010  142.4130 O   0  0  0  0  0  1  0  0  0  0  0  0
  186.5170  177.5350  143.5200 C   0  0  0  0  0  1  0  0  0  0  0  0
  187.0850  178.3250  142.3460 C   0  0  1  0  0  3  0  0  0  0  0  0
  187.9800  177.4700  141.4400 C   0  0  0  0  0  2  0  0  0  0  0  0
  188.7540  178.2550  140.3750 C   0  0  0  0  0  2  0  0  0  0  0  0
  189.1920  177.3720  139.2040 C   0  0  1  0  0  3  0  0  0  0  0  0
  188.9830  179.4150  137.8960 O   0  0  0  0  0  1  0  0  0  0  0  0
  188.9250  178.0180  137.8360 C   0  0  2  0  0  3  0  0  0  0  0  0
  187.2980  178.2420  135.9000 C   0  0  0  0  0  1  0  0  0  0  0  0
  187.6210  177.5240  137.2060 C   0  0  1  0  0  3  0  0  0  0  0  0
  187.6920  176.0240  136.9770 C   0  0  0  0  0  2  0  0  0  0  0  0
  186.3310  175.3910  137.2230 C   0  0  0  0  0  2  0  0  0  0  0  0
  187.8350  173.4460  136.8120 C   0  0  0  0  0  1  0  0  0  0  0  0
  186.4340  173.8780  137.2070 C   0  0  0  0  0  2  0  0  0  0  0  0
  190.6390  176.8850  139.3640 C   0  0  1  0  0  3  0  0  0  0  0  0
  191.2160  175.1520  137.6650 C   0  0  0  0  0  1  0  0  0  0  0  0
  191.2650  176.6300  138.0000 C   0  0  0  0  0  2  0  0  0  0  0  0
  191.4080  177.8030  140.0900 O   0  0  0  0  0  0  0  0  0  0  0  0
  192.2040  177.0250  140.9340 C   0  0  0  0  0  2  0  0  0  0  0  0
  191.8920  177.3360  142.3290 C   0  0  0  0  0  0  0  0  0  0  0  0
  191.6370  177.5970  143.4790 C   0  0  0  0  0  0  0  0  0  0  0  0
  191.5900  176.6970  145.7400 C   0  0  0  0  0  1  0  0  0  0  0  0
  191.3330  177.9170  144.8770 C   0  0  2  0  0  3  0  0  0  0  0  0
  189.3380  177.1530  145.4510 C   0  0  0  0  0  1  0  0  0  0  0  0
  189.9950  178.2960  144.9890 O   0  0  0  0  0  0  0  0  0  0  0  0
  1 27  1  1  0  0  0
  1  2  1  0  0  0  0
  2 11  1  0  0  0  0
  2  8  1  0  0  0  0
  3  7  1  0  0  0  0
  4  1  1  0  0  0  0
  5  4  1  0  0  0  0
  6 10  1  0  0  0  0
  7  5  1  0  0  0  0
  7  6  1  0  0  0  0
  9  3  2  0  0  0  0
 10 11  1  0  0  0  0
 12 16  2  0  0  0  0
 12  3  1  0  0  0  0
 13 15  2  0  0  0  0
 14 13  1  0  0  0  0
 14 17  1  0  0  0  0
 15 16  1  0  0  0  0
 17 12  1  0  0  0  0
 17 18  1  1  0  0  0
 18 19  1  0  0  0  0
 19 20  1  0  0  0  0
 20 21  1  0  0  0  0
 20 24  1  6  0  0  0
 21 22  1  6  0  0  0
 21 23  1  0  0  0  0
 24 25  1  0  0  0  0
 27 26  1  1  0  0  0
 28 27  1  0  0  0  0
 29 28  1  0  0  0  0
 30 39  1  0  0  0  0
 30 29  1  1  0  0  0
 32 31  1  1  0  0  0
 32 30  1  0  0  0  0
 34 33  1  6  0  0  0
 34 32  1  0  0  0  0
 35 34  1  0  0  0  0
 35 36  1  0  0  0  0
 37 38  1  0  0  0  0
 38 36  1  0  0  0  0
 39 41  1  6  0  0  0
 39 42  1  0  0  0  0
 40 41  1  0  0  0  0
 42 43  1  0  0  0  0
 43 44  1  0  0  0  0
 44 45  3  0  0  0  0
 45 47  1  0  0  0  0
 47 49  1  0  0  0  0
 47 46  1  1  0  0  0
 49 48  1  0  0  0  0
M  END
>  <MODEL>
6

>  <REMARK>
 VINA RESULT:      -5.9      2.627      6.842
  Name = 
  22 active torsions:
  status: ('A' for Active; 'I' for Inactive)
    1  A    between atoms: C_2  and  C_35
    2  A    between atoms: C_3  and  CA_19
    3  A    between atoms: C_7  and  C_8
    4  A    between atoms: C_8  and  C_9
    5  A    between atoms: C_9  and  C_45
    6  A    between atoms: C_12  and  C_25
    7  A    between atoms: C_12  and  O_43
    8  A    between atoms: C_13  and  C_27
    9  A    between atoms: C_13  and  C_33
   10  A    between atoms: C_13  and  O_43
   11  A    between atoms: C_16  and  N_29
   12  A    between atoms: C_16  and  C_49
   13  A    between atoms: C_17  and  C_18
   14  A    between atoms: CA_19  and  CB_21
   15  A    between atoms: CA_19  and  N_29
   16  A    between atoms: C_22  and  C_33
   17  A    between atoms: C_22  and  C_41
   18  A    between atoms: C_26  and  C_39
   19  A    between atoms: C_33  and  C_45
   20  A    between atoms: C_35  and  C_47
   21  A    between atoms: C_39  and  O_46
   22  A    between atoms: C_41  and  C_47
                            x       y       z     vdW  Elec       q    Type
                         _______ _______ _______ _____ _____    ______ ____

>  <TORSDO>
F 22

$$$$
=
 OpenBabel11062414013D

 49 50  0  0  1  0  0  0  0  0999 V2000
  185.8140  179.2310  142.0900 C   0  0  2  0  0  3  0  0  0  0  0  0
  184.6090  179.7140  142.7930 N   0  0  0  0  0  0  0  0  0  0  0  0
  183.0080  177.7980  138.5690 C   0  0  0  0  0  0  0  0  0  0  0  0
  185.5150  178.6320  140.7110 C   0  0  0  0  0  2  0  0  0  0  0  0
  184.3350  179.3090  140.0340 C   0  0  0  0  0  2  0  0  0  0  0  0
  182.6930  177.6780  141.0640 C   0  0  0  0  0  2  0  0  0  0  0  0
  183.2410  178.3500  139.8800 N   0  0  0  0  0  0  0  0  0  0  0  0
  185.0020  180.3070  143.9470 O   0  0  0  0  0  1  0  0  0  0  0  0
  183.8390  178.0290  137.6480 O   0  0  0  0  0  0  0  0  0  0  0  0
  182.4860  178.6310  142.2380 C   0  0  0  0  0  2  0  0  0  0  0  0
  183.7060  178.6230  143.1490 C   0  0  0  0  0  2  0  0  0  0  0  0
  181.8300  176.9500  138.2600 C   0  0  0  0  0  0  0  0  0  0  0  0
  179.4900  175.3850  137.8360 C   0  0  0  0  0  3  0  0  0  0  0  0
  180.6940  174.7580  138.2900 N   0  0  0  0  0  2  0  0  0  0  0  0
  179.4660  176.7000  137.6340 C   0  0  0  0  0  3  0  0  0  0  0  0
  180.6620  177.5110  137.9130 C   0  0  0  0  0  3  0  0  0  0  0  0
  181.9880  175.4430  138.2370 C   0  0  1  0  0  3  0  0  0  0  0  0
  182.7340  175.0180  136.9830 C   0  0  0  0  0  2  0  0  0  0  0  0
  184.0050  174.4160  137.3490 N   0  0  0  0  0  2  0  0  0  0  0  0
  184.2090  173.2840  136.4560 C   0  0  1  0  0  3  0  0  0  0  0  0
  185.6410  173.2900  135.9220 C   0  0  2  0  0  3  0  0  0  0  0  0
  186.5830  172.6280  136.9110 C   0  0  0  0  0  1  0  0  0  0  0  0
  186.0670  174.6020  135.7040 O   0  0  0  0  0  1  0  0  0  0  0  0
  183.9330  171.9930  137.2140 C   0  0  0  0  0  2  0  0  0  0  0  0
  182.7900  171.3760  136.7040 O   0  0  0  0  0  1  0  0  0  0  0  0
  186.0050  177.5790  144.0590 C   0  0  0  0  0  1  0  0  0  0  0  0
  186.7310  178.3340  142.9510 C   0  0  1  0  0  3  0  0  0  0  0  0
  187.6490  177.4260  142.1230 C   0  0  0  0  0  2  0  0  0  0  0  0
  188.7790  178.1530  141.3870 C   0  0  0  0  0  2  0  0  0  0  0  0
  189.4870  177.2510  140.3730 C   0  0  1  0  0  3  0  0  0  0  0  0
  188.7250  179.0040  138.8640 O   0  0  0  0  0  1  0  0  0  0  0  0
  189.3480  177.7530  138.9270 C   0  0  2  0  0  3  0  0  0  0  0  0
  187.4070  177.2760  137.3600 C   0  0  0  0  0  1  0  0  0  0  0  0
  188.6670  176.7250  138.0190 C   0  0  1  0  0  3  0  0  0  0  0  0
  189.6440  176.2410  136.9620 C   0  0  0  0  0  2  0  0  0  0  0  0
  190.4800  175.0940  137.5070 C   0  0  0  0  0  2  0  0  0  0  0  0
  190.6060  173.6960  135.4470 C   0  0  0  0  0  1  0  0  0  0  0  0
  190.0710  173.7820  136.8640 C   0  0  0  0  0  2  0  0  0  0  0  0
  190.9420  176.9730  140.7720 C   0  0  1  0  0  3  0  0  0  0  0  0
  193.3330  177.3000  140.1400 C   0  0  0  0  0  1  0  0  0  0  0  0
  191.8940  177.5010  139.7070 C   0  0  0  0  0  2  0  0  0  0  0  0
  191.2450  177.5360  142.0180 O   0  0  0  0  0  0  0  0  0  0  0  0
  191.2120  176.4680  142.9190 C   0  0  0  0  0  2  0  0  0  0  0  0
  190.7120  176.9330  144.2130 C   0  0  0  0  0  0  0  0  0  0  0  0
  190.2960  177.3110  145.2800 C   0  0  0  0  0  0  0  0  0  0  0  0
  190.2380  176.8090  147.6610 C   0  0  0  0  0  1  0  0  0  0  0  0
  189.7860  177.7680  146.5760 C   0  0  2  0  0  3  0  0  0  0  0  0
  187.9870  177.2840  147.7710 C   0  0  0  0  0  1  0  0  0  0  0  0
  188.3910  177.8100  146.5410 O   0  0  0  0  0  0  0  0  0  0  0  0
  1  2  1  0  0  0  0
  1 27  1  1  0  0  0
  2 11  1  0  0  0  0
  2  8  1  0  0  0  0
  3  7  1  0  0  0  0
  4  1  1  0  0  0  0
  5  4  1  0  0  0  0
  6 10  1  0  0  0  0
  7  5  1  0  0  0  0
  7  6  1  0  0  0  0
  9  3  2  0  0  0  0
 10 11  1  0  0  0  0
 12  3  1  0  0  0  0
 13 14  1  0  0  0  0
 15 13  2  0  0  0  0
 15 16  1  0  0  0  0
 16 12  2  0  0  0  0
 17 18  1  6  0  0  0
 17 12  1  0  0  0  0
 17 14  1  0  0  0  0
 18 19  1  0  0  0  0
 20 24  1  1  0  0  0
 20 19  1  0  0  0  0
 21 20  1  0  0  0  0
 21 22  1  1  0  0  0
 23 21  1  0  0  0  0
 25 24  1  0  0  0  0
 27 26  1  1  0  0  0
 28 27  1  0  0  0  0
 29 28  1  0  0  0  0
 30 39  1  0  0  0  0
 30 29  1  1  0  0  0
 32 31  1  1  0  0  0
 32 30  1  0  0  0  0
 34 33  1  6  0  0  0
 34 32  1  0  0  0  0
 35 36  1  0  0  0  0
 35 34  1  0  0  0  0
 37 38  1  0  0  0  0
 38 36  1  0  0  0  0
 39 41  1  6  0  0  0
 39 42  1  0  0  0  0
 41 40  1  0  0  0  0
 42 43  1  0  0  0  0
 43 44  1  0  0  0  0
 44 45  3  0  0  0  0
 45 47  1  0  0  0  0
 47 46  1  1  0  0  0
 49 47  1  0  0  0  0
 49 48  1  0  0  0  0
M  END
>  <MODEL>
7

>  <REMARK>
 VINA RESULT:      -5.6      1.990      5.945
  Name = 
  22 active torsions:
  status: ('A' for Active; 'I' for Inactive)
    1  A    between atoms: C_2  and  C_35
    2  A    between atoms: C_3  and  CA_19
    3  A    between atoms: C_7  and  C_8
    4  A    between atoms: C_8  and  C_9
    5  A    between atoms: C_9  and  C_45
    6  A    between atoms: C_12  and  C_25
    7  A    between atoms: C_12  and  O_43
    8  A    between atoms: C_13  and  C_27
    9  A    between atoms: C_13  and  C_33
   10  A    between atoms: C_13  and  O_43
   11  A    between atoms: C_16  and  N_29
   12  A    between atoms: C_16  and  C_49
   13  A    between atoms: C_17  and  C_18
   14  A    between atoms: CA_19  and  CB_21
   15  A    between atoms: CA_19  and  N_29
   16  A    between atoms: C_22  and  C_33
   17  A    between atoms: C_22  and  C_41
   18  A    between atoms: C_26  and  C_39
   19  A    between atoms: C_33  and  C_45
   20  A    between atoms: C_35  and  C_47
   21  A    between atoms: C_39  and  O_46
   22  A    between atoms: C_41  and  C_47
                            x       y       z     vdW  Elec       q    Type
                         _______ _______ _______ _____ _____    ______ ____

>  <TORSDO>
F 22

$$$$
=
 OpenBabel11062414013D

 49 50  0  0  1  0  0  0  0  0999 V2000
  185.9050  179.2040  142.2440 C   0  0  2  0  0  3  0  0  0  0  0  0
  184.6400  179.6850  142.8330 N   0  0  0  0  0  0  0  0  0  0  0  0
  183.4350  177.7450  138.4900 C   0  0  0  0  0  0  0  0  0  0  0  0
  185.7350  178.5990  140.8470 C   0  0  0  0  0  2  0  0  0  0  0  0
  184.6190  179.2680  140.0620 C   0  0  0  0  0  2  0  0  0  0  0  0
  182.8960  177.6350  140.9470 C   0  0  0  0  0  2  0  0  0  0  0  0
  183.5470  178.3040  139.8150 N   0  0  0  0  0  0  0  0  0  0  0  0
  184.9230  180.2850  144.0150 O   0  0  0  0  0  1  0  0  0  0  0  0
  184.3460  177.9770  137.6470 O   0  0  0  0  0  0  0  0  0  0  0  0
  182.5790  178.5910  142.0930 C   0  0  0  0  0  2  0  0  0  0  0  0
  183.7120  178.5920  143.1110 C   0  0  0  0  0  2  0  0  0  0  0  0
  182.2930  176.8920  138.0790 C   0  0  0  0  0  0  0  0  0  0  0  0
  180.2230  175.1660  137.1620 C   0  0  0  0  0  3  0  0  0  0  0  0
  180.2650  176.5260  136.7190 N   0  0  0  0  0  2  0  0  0  0  0  0
  181.1640  174.7110  137.9860 C   0  0  0  0  0  3  0  0  0  0  0  0
  182.2640  175.5920  138.4080 C   0  0  0  0  0  3  0  0  0  0  0  0
  181.1100  177.5270  137.3760 C   0  0  1  0  0  3  0  0  0  0  0  0
  180.2770  178.3160  138.3720 C   0  0  0  0  0  2  0  0  0  0  0  0
  180.6430  179.7210  138.3140 N   0  0  0  0  0  2  0  0  0  0  0  0
  179.5150  180.4740  138.8420 C   0  0  1  0  0  3  0  0  0  0  0  0
  179.7480  180.8030  140.3160 C   0  0  2  0  0  3  0  0  0  0  0  0
  179.1860  179.7070  141.2040 C   0  0  0  0  0  1  0  0  0  0  0  0
  179.1260  182.0090  140.6450 O   0  0  0  0  0  1  0  0  0  0  0  0
  179.3470  181.7550  138.0360 C   0  0  0  0  0  2  0  0  0  0  0  0
  180.5860  182.3690  137.8550 O   0  0  0  0  0  1  0  0  0  0  0  0
  185.9150  177.4490  144.1310 C   0  0  0  0  0  1  0  0  0  0  0  0
  186.7440  178.3150  143.1890 C   0  0  1  0  0  3  0  0  0  0  0  0
  187.8380  177.5190  142.4660 C   0  0  0  0  0  2  0  0  0  0  0  0
  189.0730  178.3370  142.0700 C   0  0  0  0  0  2  0  0  0  0  0  0
  190.1330  177.4850  141.3670 C   0  0  1  0  0  3  0  0  0  0  0  0
  189.8470  175.5650  142.8370 O   0  0  0  0  0  1  0  0  0  0  0  0
  190.7850  176.4540  142.3000 C   0  0  2  0  0  3  0  0  0  0  0  0
  191.4920  178.6290  143.4030 C   0  0  0  0  0  1  0  0  0  0  0  0
  191.6420  177.1120  143.3840 C   0  0  1  0  0  3  0  0  0  0  0  0
  191.2900  176.5330  144.7430 C   0  0  0  0  0  2  0  0  0  0  0  0
  190.2420  177.3990  145.4260 C   0  0  0  0  0  2  0  0  0  0  0  0
  191.2780  176.1220  147.3000 C   0  0  0  0  0  1  0  0  0  0  0  0
  190.1710  177.0830  146.9080 C   0  0  0  0  0  2  0  0  0  0  0  0
  189.6000  176.8660  140.0680 C   0  0  1  0  0  3  0  0  0  0  0  0
  187.9750  177.4850  138.2800 C   0  0  0  0  0  1  0  0  0  0  0  0
  189.1570  177.9580  139.1040 C   0  0  0  0  0  2  0  0  0  0  0  0
  190.5590  176.0430  139.4650 O   0  0  0  0  0  0  0  0  0  0  0  0
  191.4840  176.9190  138.8920 C   0  0  0  0  0  2  0  0  0  0  0  0
  192.6020  176.1570  138.3340 C   0  0  0  0  0  0  0  0  0  0  0  0
  193.5220  175.5310  137.8680 C   0  0  0  0  0  0  0  0  0  0  0  0
  195.2400  173.8800  138.3670 C   0  0  0  0  0  1  0  0  0  0  0  0
  194.6380  174.7710  137.2970 C   0  0  2  0  0  3  0  0  0  0  0  0
  196.4920  174.8550  136.0910 C   0  0  0  0  0  1  0  0  0  0  0  0
  195.6100  175.6540  136.8230 O   0  0  0  0  0  0  0  0  0  0  0  0
  1  2  1  0  0  0  0
  1 27  1  1  0  0  0
  2 11  1  0  0  0  0
  2  8  1  0  0  0  0
  3  7  1  0  0  0  0
  4  1  1  0  0  0  0
  5  4  1  0  0  0  0
  6 10  1  0  0  0  0
  7  5  1  0  0  0  0
  7  6  1  0  0  0  0
  9  3  2  0  0  0  0
 10 11  1  0  0  0  0
 12 16  2  0  0  0  0
 12  3  1  0  0  0  0
 13 15  2  0  0  0  0
 14 13  1  0  0  0  0
 14 17  1  0  0  0  0
 15 16  1  0  0  0  0
 17 12  1  0  0  0  0
 17 18  1  1  0  0  0
 19 18  1  0  0  0  0
 19 20  1  0  0  0  0
 20 24  1  6  0  0  0
 20 21  1  0  0  0  0
 21 23  1  0  0  0  0
 21 22  1  1  0  0  0
 25 24  1  0  0  0  0
 27 26  1  6  0  0  0
 28 27  1  0  0  0  0
 29 28  1  0  0  0  0
 30 29  1  1  0  0  0
 30 32  1  0  0  0  0
 32 31  1  1  0  0  0
 32 34  1  0  0  0  0
 34 33  1  1  0  0  0
 34 35  1  0  0  0  0
 35 36  1  0  0  0  0
 36 38  1  0  0  0  0
 38 37  1  0  0  0  0
 39 41  1  6  0  0  0
 39 30  1  0  0  0  0
 40 41  1  0  0  0  0
 42 39  1  0  0  0  0
 43 42  1  0  0  0  0
 44 43  1  0  0  0  0
 45 44  3  0  0  0  0
 47 45  1  0  0  0  0
 47 46  1  1  0  0  0
 48 49  1  0  0  0  0
 49 47  1  0  0  0  0
M  END
>  <MODEL>
8

>  <REMARK>
 VINA RESULT:      -5.2      2.456      4.555
  Name = 
  22 active torsions:
  status: ('A' for Active; 'I' for Inactive)
    1  A    between atoms: C_2  and  C_35
    2  A    between atoms: C_3  and  CA_19
    3  A    between atoms: C_7  and  C_8
    4  A    between atoms: C_8  and  C_9
    5  A    between atoms: C_9  and  C_45
    6  A    between atoms: C_12  and  C_25
    7  A    between atoms: C_12  and  O_43
    8  A    between atoms: C_13  and  C_27
    9  A    between atoms: C_13  and  C_33
   10  A    between atoms: C_13  and  O_43
   11  A    between atoms: C_16  and  N_29
   12  A    between atoms: C_16  and  C_49
   13  A    between atoms: C_17  and  C_18
   14  A    between atoms: CA_19  and  CB_21
   15  A    between atoms: CA_19  and  N_29
   16  A    between atoms: C_22  and  C_33
   17  A    between atoms: C_22  and  C_41
   18  A    between atoms: C_26  and  C_39
   19  A    between atoms: C_33  and  C_45
   20  A    between atoms: C_35  and  C_47
   21  A    between atoms: C_39  and  O_46
   22  A    between atoms: C_41  and  C_47
                            x       y       z     vdW  Elec       q    Type
                         _______ _______ _______ _____ _____    ______ ____

>  <TORSDO>
F 22

$$$$
=
 OpenBabel11062414013D

 49 50  0  0  1  0  0  0  0  0999 V2000
  188.3320  178.3760  138.3050 C   0  0  2  0  0  3  0  0  0  0  0  0
  188.6670  178.9600  136.9910 N   0  0  0  0  0  0  0  0  0  0  0  0
  191.3770  174.8860  137.3700 C   0  0  0  0  0  0  0  0  0  0  0  0
  189.1250  177.1050  138.6270 C   0  0  0  0  0  2  0  0  0  0  0  0
  190.5200  177.1280  138.0240 C   0  0  0  0  0  2  0  0  0  0  0  0
  189.7110  176.0470  135.8810 C   0  0  0  0  0  2  0  0  0  0  0  0
  190.6390  176.0740  137.0180 N   0  0  0  0  0  0  0  0  0  0  0  0
  187.9860  180.1240  136.8580 O   0  0  0  0  0  1  0  0  0  0  0  0
  191.7520  174.7270  138.5640 O   0  0  0  0  0  0  0  0  0  0  0  0
  189.4910  177.4270  135.2690 C   0  0  0  0  0  2  0  0  0  0  0  0
  188.2680  178.0920  135.8860 C   0  0  0  0  0  2  0  0  0  0  0  0
  191.7040  173.8300  136.3810 C   0  0  0  0  0  0  0  0  0  0  0  0
  192.2280  171.6760  134.5940 C   0  0  0  0  0  3  0  0  0  0  0  0
  193.2400  172.1030  135.5110 N   0  0  0  0  0  2  0  0  0  0  0  0
  191.0400  172.2760  134.5960 C   0  0  0  0  0  3  0  0  0  0  0  0
  190.7570  173.3480  135.5620 C   0  0  0  0  0  3  0  0  0  0  0  0
  193.1420  173.3750  136.2320 C   0  0  1  0  0  3  0  0  0  0  0  0
  193.9480  174.4340  135.4980 C   0  0  0  0  0  2  0  0  0  0  0  0
  194.9920  174.9460  136.3690 N   0  0  0  0  0  2  0  0  0  0  0  0
  195.3590  173.8650  137.2720 C   0  0  1  0  0  3  0  0  0  0  0  0
  196.7390  173.3220  136.9060 C   0  0  2  0  0  3  0  0  0  0  0  0
  197.6430  174.4420  136.4220 C   0  0  0  0  0  1  0  0  0  0  0  0
  196.6270  172.3670  135.8930 O   0  0  0  0  0  1  0  0  0  0  0  0
  195.3590  174.3860  138.7030 C   0  0  0  0  0  2  0  0  0  0  0  0
  194.6700  175.5970  138.7690 O   0  0  0  0  0  1  0  0  0  0  0  0
  186.1760  177.0470  137.8340 C   0  0  0  0  0  1  0  0  0  0  0  0
  186.8170  178.2240  138.5610 C   0  0  1  0  0  3  0  0  0  0  0  0
  186.4410  178.2730  140.0480 C   0  0  0  0  0  2  0  0  0  0  0  0
  185.0870  178.9250  140.3480 C   0  0  0  0  0  2  0  0  0  0  0  0
  184.1110  177.9570  141.0220 C   0  0  1  0  0  3  0  0  0  0  0  0
  182.6010  178.8710  142.6990 O   0  0  0  0  0  1  0  0  0  0  0  0
  183.8600  178.2940  142.4990 C   0  0  2  0  0  3  0  0  0  0  0  0
  184.4970  180.0250  144.2450 C   0  0  0  0  0  1  0  0  0  0  0  0
  184.9830  179.1440  143.0990 C   0  0  1  0  0  3  0  0  0  0  0  0
  186.1150  178.2480  143.5710 C   0  0  0  0  0  2  0  0  0  0  0  0
  185.8750  177.8140  145.0090 C   0  0  0  0  0  2  0  0  0  0  0  0
  186.7440  178.4280  147.2630 C   0  0  0  0  0  1  0  0  0  0  0  0
  187.1210  178.0310  145.8480 C   0  0  0  0  0  2  0  0  0  0  0  0
  182.8160  177.7970  140.2150 C   0  0  1  0  0  3  0  0  0  0  0  0
  181.7200  179.6970  139.0270 C   0  0  0  0  0  1  0  0  0  0  0  0
  182.8480  178.6850  138.9790 C   0  0  0  0  0  2  0  0  0  0  0  0
  182.6040  176.4610  139.8510 O   0  0  0  0  0  0  0  0  0  0  0  0
  182.6090  176.4580  138.4540 C   0  0  0  0  0  2  0  0  0  0  0  0
  183.2900  175.2590  137.9670 C   0  0  0  0  0  0  0  0  0  0  0  0
  183.8550  174.2690  137.5710 C   0  0  0  0  0  0  0  0  0  0  0  0
  183.6160  171.8750  137.2020 C   0  0  0  0  0  1  0  0  0  0  0  0
  184.5460  173.0680  137.0930 C   0  0  2  0  0  3  0  0  0  0  0  0
  186.7450  173.3210  137.0910 C   0  0  0  0  0  1  0  0  0  0  0  0
  185.6850  172.8440  137.8670 O   0  0  0  0  0  0  0  0  0  0  0  0
  1 27  1  6  0  0  0
  1  4  1  0  0  0  0
  2  1  1  0  0  0  0
  3  9  2  0  0  0  0
  5  4  1  0  0  0  0
  6  7  1  0  0  0  0
  7  3  1  0  0  0  0
  7  5  1  0  0  0  0
  8  2  1  0  0  0  0
 10  6  1  0  0  0  0
 10 11  1  0  0  0  0
 11  2  1  0  0  0  0
 12  3  1  0  0  0  0
 13 15  2  0  0  0  0
 13 14  1  0  0  0  0
 14 17  1  0  0  0  0
 15 16  1  0  0  0  0
 16 12  2  0  0  0  0
 17 18  1  6  0  0  0
 17 12  1  0  0  0  0
 18 19  1  0  0  0  0
 19 20  1  0  0  0  0
 20 24  1  1  0  0  0
 21 22  1  6  0  0  0
 21 20  1  0  0  0  0
 23 21  1  0  0  0  0
 24 25  1  0  0  0  0
 27 26  1  1  0  0  0
 27 28  1  0  0  0  0
 28 29  1  0  0  0  0
 30 29  1  6  0  0  0
 30 32  1  0  0  0  0
 32 31  1  6  0  0  0
 32 34  1  0  0  0  0
 34 35  1  0  0  0  0
 34 33  1  1  0  0  0
 35 36  1  0  0  0  0
 36 38  1  0  0  0  0
 38 37  1  0  0  0  0
 39 41  1  6  0  0  0
 39 30  1  0  0  0  0
 41 40  1  0  0  0  0
 42 39  1  0  0  0  0
 43 42  1  0  0  0  0
 44 43  1  0  0  0  0
 45 44  3  0  0  0  0
 47 46  1  1  0  0  0
 47 45  1  0  0  0  0
 47 49  1  0  0  0  0
 48 49  1  0  0  0  0
M  END
>  <MODEL>
9

>  <REMARK>
 VINA RESULT:      -5.2      3.253      8.475
  Name = 
  22 active torsions:
  status: ('A' for Active; 'I' for Inactive)
    1  A    between atoms: C_2  and  C_35
    2  A    between atoms: C_3  and  CA_19
    3  A    between atoms: C_7  and  C_8
    4  A    between atoms: C_8  and  C_9
    5  A    between atoms: C_9  and  C_45
    6  A    between atoms: C_12  and  C_25
    7  A    between atoms: C_12  and  O_43
    8  A    between atoms: C_13  and  C_27
    9  A    between atoms: C_13  and  C_33
   10  A    between atoms: C_13  and  O_43
   11  A    between atoms: C_16  and  N_29
   12  A    between atoms: C_16  and  C_49
   13  A    between atoms: C_17  and  C_18
   14  A    between atoms: CA_19  and  CB_21
   15  A    between atoms: CA_19  and  N_29
   16  A    between atoms: C_22  and  C_33
   17  A    between atoms: C_22  and  C_41
   18  A    between atoms: C_26  and  C_39
   19  A    between atoms: C_33  and  C_45
   20  A    between atoms: C_35  and  C_47
   21  A    between atoms: C_39  and  O_46
   22  A    between atoms: C_41  and  C_47
                            x       y       z     vdW  Elec       q    Type
                         _______ _______ _______ _____ _____    ______ ____

>  <TORSDO>
F 22

$$$$
