=
 OpenBabel11062412163D

 69 78  0  0  1  0  0  0  0  0999 V2000
  179.6670  180.0430  142.5380 C   0  0  0  0  0  2  0  0  0  0  0  0
  181.2100  175.7980  138.3680 C   0  0  2  0  0  3  0  0  0  0  0  0
  185.9920  174.7280  136.1310 C   0  0  0  0  0  0  0  0  0  0  0  0
  182.4320  172.8670  134.8950 O   0  0  0  0  0  0  0  0  0  0  0  0
  180.4380  175.0310  139.4520 C   0  0  0  0  0  2  0  0  0  0  0  0
  182.1220  174.7990  137.6960 C   0  0  0  0  0  2  0  0  0  0  0  0
  186.3560  176.1680  135.9240 C   0  0  0  0  0  2  0  0  0  0  0  0
  182.1090  171.9440  136.9770 O   0  0  0  0  0  0  0  0  0  0  0  0
  186.6970  173.9360  136.9870 N   0  0  0  0  0  0  0  0  0  0  0  0
  179.9920  178.6540  139.0530 C   0  0  1  0  0  3  0  0  0  0  0  0
  186.4490  172.6030  137.0950 C   0  0  0  0  0  3  0  0  0  0  0  0
  184.7620  172.7860  135.3860 C   0  0  0  0  0  0  0  0  0  0  0  0
  179.6180  177.9180  141.9090 C   0  0  0  0  0  2  0  0  0  0  0  0
  185.4700  172.0050  136.2970 C   0  0  0  0  0  3  0  0  0  0  0  0
  178.9330  180.8040  139.1370 O   0  0  0  0  0  0  0  0  0  0  0  0
  182.0210  176.9710  138.9660 C   0  0  2  0  0  3  0  0  0  0  0  0
  181.9440  172.9200  136.1980 C   0  0  0  0  0  0  0  0  0  0  0  0
  190.4530  176.8120  138.8850 C   0  0  0  0  0  2  0  0  0  0  0  0
  185.3340  177.5320  137.8510 C   0  0  0  0  0  0  0  0  0  0  0  0
  187.4420  176.2770  138.0800 O   0  0  0  0  0  0  0  0  0  0  0  0
  188.7380  178.0380  136.4890 O   0  0  0  0  0  0  0  0  0  0  0  0
  184.1660  179.2050  139.4110 C   0  0  0  0  0  2  0  0  0  0  0  0
  189.2540  177.7190  138.8030 C   0  0  2  0  0  0  0  0  0  0  0  0
  185.4740  178.7110  138.8060 C   0  0  0  0  0  2  0  0  0  0  0  0
  180.4670  177.0350  140.9820 C   0  0  2  0  0  0  0  0  0  0  0  0
  181.4880  176.4470  141.7380 O   0  0  0  0  0  1  0  0  0  0  0  0
  187.9170  177.0620  139.1530 C   0  0  0  0  0  2  0  0  0  0  0  0
  185.0220  174.1570  135.3000 C   0  0  0  0  0  3  0  0  0  0  0  0
  183.6420  172.1830  134.5960 C   0  0  0  0  0  2  0  0  0  0  0  0
  181.0820  177.8610  139.8310 C   0  0  2  0  0  3  0  0  0  0  0  0
  183.0950  179.2250  138.3390 C   0  0  0  0  0  2  0  0  0  0  0  0
  179.5970  175.9370  140.3490 C   0  0  2  0  0  3  0  0  0  0  0  0
  178.9710  175.1660  141.3320 O   0  0  0  0  0  1  0  0  0  0  0  0
  180.4090  178.8600  142.5770 O   0  0  0  0  0  0  0  0  0  0  0  0
  180.8380  180.5920  140.4640 N   0  0  0  0  0  2  0  0  0  0  0  0
  189.3030  178.6610  137.6080 C   0  0  0  0  0  2  0  0  0  0  0  0
  180.4090  181.1180  141.7500 C   0  0  0  0  0  2  0  0  0  0  0  0
  187.3580  178.2610  136.6170 C   0  0  0  0  0  2  0  0  0  0  0  0
  181.4160  174.1060  136.6780 O   0  0  0  0  0  0  0  0  0  0  0  0
  182.8170  177.7840  137.9010 C   0  0  1  0  0  3  0  0  0  0  0  0
  190.3030  177.9600  139.8850 C   0  0  1  0  0  3  0  0  0  0  0  0
  184.1070  177.1270  137.4410 C   0  0  0  0  0  3  0  0  0  0  0  0
  186.6240  177.0250  137.1820 C   0  0  1  0  0  0  0  0  0  0  0  0
  179.8960  180.0820  139.5230 C   0  0  0  0  0  0  0  0  0  0  0  0
  189.9330  177.4150  141.2420 C   0  0  0  0  0  0  0  0  0  0  0  0
  190.3380  176.1890  141.5840 C   0  0  0  0  0  2  0  0  0  0  0  0
  188.7630  177.9970  141.9710 C   0  0  0  0  0  2  0  0  0  0  0  0
  188.2330  177.0470  143.0340 C   0  0  0  0  0  2  0  0  0  0  0  0
  186.5680  178.4380  144.4860 C   0  0  2  0  0  3  0  0  0  0  0  0
  187.9600  177.8130  144.3280 C   0  0  2  0  0  0  0  0  0  0  0  0
  188.3280  176.9940  145.5480 C   0  0  2  0  0  3  0  0  0  0  0  0
  186.8750  177.0890  145.1040 C   0  0  1  0  0  3  0  0  0  0  0  0
  185.6260  178.2440  143.3030 C   0  0  0  0  0  1  0  0  0  0  0  0
  188.6390  177.9440  146.6990 C   0  0  0  0  0  2  0  0  0  0  0  0
  189.6950  177.3630  147.6330 C   0  0  0  0  0  2  0  0  0  0  0  0
  190.8840  176.8780  146.8360 C   0  0  1  0  0  3  0  0  0  0  0  0
  191.1840  177.7860  145.8340 F   0  0  0  0  0  0  0  0  0  0  0  0
  192.0760  176.7260  147.7620 C   0  0  0  0  0  2  0  0  0  0  0  0
  192.3540  175.2520  148.0110 C   0  0  0  0  0  1  0  0  0  0  0  0
  180.1480  178.5960  137.6590 O   0  0  0  0  0  0  0  0  0  0  0  0
  179.7890  179.8650  137.1980 C   0  0  0  0  0  2  0  0  0  0  0  0
  180.5440  180.1890  135.9250 C   0  0  2  0  0  3  0  0  0  0  0  0
  180.1670  182.1960  134.5940 N   0  0  0  0  0  0  0  0  0  0  0  0
  181.0010  182.6150  136.6610 N   0  0  0  0  0  0  0  0  0  0  0  0
  180.5380  181.6660  135.7050 C   0  0  0  0  0  0  0  0  0  0  0  0
  180.8490  183.9070  136.0090 C   0  0  0  0  0  3  0  0  0  0  0  0
  180.3280  183.5800  134.6880 N   0  0  0  0  0  2  0  0  0  0  0  0
  180.3510  178.1420  134.7180 O   0  0  0  0  0  1  0  0  0  0  0  0
  179.9100  179.4590  134.7440 C   0  0  0  0  0  2  0  0  0  0  0  0
  1 34  1  0  0  0  0
  2  6  1  1  0  0  0
  2 16  1  0  0  0  0
  2  5  1  0  0  0  0
  3  9  1  0  0  0  0
  4 17  1  0  0  0  0
  5 32  1  0  0  0  0
  7  3  1  0  0  0  0
  7 43  1  0  0  0  0
  9 11  2  0  0  0  0
 10 60  1  6  0  0  0
 10 44  1  0  0  0  0
 10 30  1  0  0  0  0
 12 14  2  0  0  0  0
 13 34  1  0  0  0  0
 14 11  1  0  0  0  0
 15 44  2  0  0  0  0
 16 30  1  0  0  0  0
 17 39  1  0  0  0  0
 17  8  2  0  0  0  0
 18 41  1  0  0  0  0
 19 24  1  0  0  0  0
 20 27  1  0  0  0  0
 21 38  1  0  0  0  0
 21 36  1  0  0  0  0
 23 18  1  0  0  0  0
 23 27  1  0  0  0  0
 23 41  1  0  0  0  0
 24 22  1  0  0  0  0
 25 26  1  0  0  0  0
 25 13  1  0  0  0  0
 28 12  1  0  0  0  0
 28  3  2  0  0  0  0
 29  4  1  0  0  0  0
 29 12  1  0  0  0  0
 30 25  1  0  0  0  0
 31 22  1  0  0  0  0
 32 25  1  0  0  0  0
 32 33  1  0  0  0  0
 35 37  1  0  0  0  0
 36 23  1  0  0  0  0
 37  1  1  0  0  0  0
 38 43  1  0  0  0  0
 39  6  1  0  0  0  0
 40 31  1  0  0  0  0
 40 16  1  0  0  0  0
 41 45  1  0  0  0  0
 42 19  2  0  0  0  0
 42 40  1  0  0  0  0
 43 19  1  0  0  0  0
 43 20  1  0  0  0  0
 44 35  1  0  0  0  0
 45 46  2  0  0  0  0
 45 47  1  0  0  0  0
 47 48  1  0  0  0  0
 48 50  1  0  0  0  0
 49 52  1  0  0  0  0
 50 49  1  0  0  0  0
 50 52  1  0  0  0  0
 50 51  1  0  0  0  0
 51 54  1  0  0  0  0
 52 51  1  0  0  0  0
 53 49  1  0  0  0  0
 54 55  1  0  0  0  0
 56 55  1  0  0  0  0
 56 58  1  0  0  0  0
 57 56  1  0  0  0  0
 58 59  1  0  0  0  0
 61 60  1  0  0  0  0
 62 61  1  0  0  0  0
 63 67  1  0  0  0  0
 63 65  2  0  0  0  0
 65 62  1  0  0  0  0
 65 64  1  0  0  0  0
 66 64  2  0  0  0  0
 67 66  1  0  0  0  0
 68 69  1  0  0  0  0
 69 62  1  0  0  0  0
M  END
>  <MODEL>
1

>  <REMARK>
 VINA RESULT:      -6.9      0.000      0.000
  Name = 
  13 active torsions:
  status: ('A' for Active; 'I' for Inactive)
    1  A    between atoms: C_7  and  C_56
    2  A    between atoms: C_7  and  C_66
    3  A    between atoms: C_8  and  C_30
    4  A    between atoms: O_11  and  C_18
    5  A    between atoms: O_11  and  C_28
    6  A    between atoms: C_12  and  C_22
    7  A    between atoms: C_12  and  C_57
    8  A    between atoms: C_15  and  C_57
    9  A    between atoms: C_19  and  C_28
   10  A    between atoms: C_19  and  C_40
   11  A    between atoms: C_19  and  C_64
   12  A    between atoms: C_22  and  C_54
   13  A    between atoms: C_30  and  C_56
                            x       y       z     vdW  Elec       q    Type
                         _______ _______ _______ _____ _____    ______ ____

>  <TORSDO>
F 13

$$$$
=
 OpenBabel11062412163D

 69 78  0  0  1  0  0  0  0  0999 V2000
  179.6800  179.9020  142.6380 C   0  0  0  0  0  2  0  0  0  0  0  0
  181.2990  175.7400  138.4130 C   0  0  2  0  0  3  0  0  0  0  0  0
  186.0990  174.7860  136.1620 C   0  0  0  0  0  0  0  0  0  0  0  0
  182.5730  172.8770  134.9020 O   0  0  0  0  0  0  0  0  0  0  0  0
  180.5410  174.9450  139.4870 C   0  0  0  0  0  2  0  0  0  0  0  0
  182.2280  174.7660  137.7280 C   0  0  0  0  0  2  0  0  0  0  0  0
  186.4360  176.2350  135.9740 C   0  0  0  0  0  2  0  0  0  0  0  0
  182.2670  171.9220  136.9720 O   0  0  0  0  0  0  0  0  0  0  0  0
  186.8180  173.9960  137.0080 N   0  0  0  0  0  0  0  0  0  0  0  0
  180.0300  178.5640  139.1350 C   0  0  1  0  0  3  0  0  0  0  0  0
  186.5940  172.6580  137.0980 C   0  0  0  0  0  3  0  0  0  0  0  0
  184.9040  172.8320  135.3910 C   0  0  0  0  0  0  0  0  0  0  0  0
  179.6700  177.7840  141.9820 C   0  0  0  0  0  2  0  0  0  0  0  0
  185.6270  172.0520  136.2930 C   0  0  0  0  0  3  0  0  0  0  0  0
  178.9320  180.6930  139.2470 O   0  0  0  0  0  0  0  0  0  0  0  0
  182.0890  176.9200  139.0260 C   0  0  2  0  0  3  0  0  0  0  0  0
  182.0850  172.9050  136.2050 C   0  0  0  0  0  0  0  0  0  0  0  0
  190.5220  176.9150  138.9420 C   0  0  0  0  0  2  0  0  0  0  0  0
  185.3910  177.5560  137.9180 C   0  0  0  0  0  0  0  0  0  0  0  0
  187.5210  176.3360  138.1300 O   0  0  0  0  0  0  0  0  0  0  0  0
  188.7840  178.1410  136.5630 O   0  0  0  0  0  0  0  0  0  0  0  0
  184.1930  179.1860  139.5000 C   0  0  0  0  0  2  0  0  0  0  0  0
  189.3070  177.8010  138.8720 C   0  0  2  0  0  0  0  0  0  0  0  0
  185.5090  178.7240  138.8880 C   0  0  0  0  0  2  0  0  0  0  0  0
  180.5350  176.9300  141.0430 C   0  0  2  0  0  0  0  0  0  0  0  0
  181.5660  176.3500  141.7910 O   0  0  0  0  0  1  0  0  0  0  0  0
  187.9820  177.1160  139.2130 C   0  0  0  0  0  2  0  0  0  0  0  0
  185.1400  174.2080  135.3240 C   0  0  0  0  0  3  0  0  0  0  0  0
  183.7950  172.2190  134.5940 C   0  0  0  0  0  2  0  0  0  0  0  0
  181.1340  177.7810  139.9020 C   0  0  2  0  0  3  0  0  0  0  0  0
  183.1220  179.2010  138.4280 C   0  0  0  0  0  2  0  0  0  0  0  0
  179.6840  175.8240  140.3960 C   0  0  2  0  0  3  0  0  0  0  0  0
  179.0730  175.0290  141.3690 O   0  0  0  0  0  1  0  0  0  0  0  0
  180.4440  178.7320  142.6620 O   0  0  0  0  0  0  0  0  0  0  0  0
  180.8410  180.4990  140.5710 N   0  0  0  0  0  2  0  0  0  0  0  0
  189.3390  178.7590  137.6890 C   0  0  0  0  0  2  0  0  0  0  0  0
  180.4030  181.0000  141.8630 C   0  0  0  0  0  2  0  0  0  0  0  0
  187.4010  178.3370  136.6930 C   0  0  0  0  0  2  0  0  0  0  0  0
  181.5350  174.0740  136.7010 O   0  0  0  0  0  0  0  0  0  0  0  0
  182.8690  177.7600  137.9720 C   0  0  1  0  0  3  0  0  0  0  0  0
  190.3520  178.0470  139.9560 C   0  0  1  0  0  3  0  0  0  0  0  0
  184.1710  177.1330  137.5030 C   0  0  0  0  0  3  0  0  0  0  0  0
  186.6890  177.0800  137.2420 C   0  0  1  0  0  0  0  0  0  0  0  0
  179.9080  179.9840  139.6230 C   0  0  0  0  0  0  0  0  0  0  0  0
  189.9920  177.4780  141.3070 C   0  0  0  0  0  0  0  0  0  0  0  0
  190.9670  177.0560  142.1160 C   0  0  0  0  0  2  0  0  0  0  0  0
  188.6120  176.9480  141.5340 C   0  0  0  0  0  2  0  0  0  0  0  0
  188.4850  176.2730  142.8920 C   0  0  0  0  0  2  0  0  0  0  0  0
  187.6680  177.5350  145.0250 C   0  0  2  0  0  3  0  0  0  0  0  0
  187.3280  176.8930  143.6760 C   0  0  2  0  0  0  0  0  0  0  0  0
  186.5170  177.8380  142.8140 C   0  0  2  0  0  3  0  0  0  0  0  0
  187.5570  178.3900  143.7790 C   0  0  1  0  0  3  0  0  0  0  0  0
  189.1320  177.4460  145.4430 C   0  0  0  0  0  1  0  0  0  0  0  0
  185.1040  177.9250  143.3800 C   0  0  0  0  0  2  0  0  0  0  0  0
  184.7820  179.3350  143.8640 C   0  0  0  0  0  2  0  0  0  0  0  0
  183.9480  179.2740  145.1230 C   0  0  1  0  0  3  0  0  0  0  0  0
  182.6910  178.7700  144.8340 F   0  0  0  0  0  0  0  0  0  0  0  0
  184.6370  178.3780  146.1350 C   0  0  0  0  0  2  0  0  0  0  0  0
  185.4980  179.2160  147.0670 C   0  0  0  0  0  1  0  0  0  0  0  0
  180.1860  178.5270  137.7410 O   0  0  0  0  0  0  0  0  0  0  0  0
  179.5710  179.6910  137.2720 C   0  0  0  0  0  2  0  0  0  0  0  0
  180.5010  180.4290  136.3310 C   0  0  2  0  0  3  0  0  0  0  0  0
  181.2040  182.7420  136.6380 N   0  0  0  0  0  0  0  0  0  0  0  0
  178.9620  182.4940  136.4020 N   0  0  0  0  0  2  0  0  0  0  0  0
  180.2550  181.8980  136.4390 C   0  0  0  0  0  0  0  0  0  0  0  0
  179.2020  183.9180  136.5820 C   0  0  0  0  0  3  0  0  0  0  0  0
  180.6460  184.0180  136.7440 N   0  0  0  0  0  0  0  0  0  0  0  0
  181.0370  178.7960  134.6790 O   0  0  0  0  0  1  0  0  0  0  0  0
  180.2860  179.9430  134.9000 C   0  0  0  0  0  2  0  0  0  0  0  0
  1 34  1  0  0  0  0
  2  6  1  1  0  0  0
  2 16  1  0  0  0  0
  2  5  1  0  0  0  0
  3  9  1  0  0  0  0
  4 17  1  0  0  0  0
  5 32  1  0  0  0  0
  7  3  1  0  0  0  0
  7 43  1  0  0  0  0
  9 11  2  0  0  0  0
 10 60  1  6  0  0  0
 10 44  1  0  0  0  0
 10 30  1  0  0  0  0
 12 14  2  0  0  0  0
 13 34  1  0  0  0  0
 14 11  1  0  0  0  0
 15 44  2  0  0  0  0
 16 30  1  0  0  0  0
 17 39  1  0  0  0  0
 17  8  2  0  0  0  0
 18 41  1  0  0  0  0
 19 24  1  0  0  0  0
 20 27  1  0  0  0  0
 21 38  1  0  0  0  0
 21 36  1  0  0  0  0
 23 18  1  0  0  0  0
 23 27  1  0  0  0  0
 23 41  1  0  0  0  0
 24 22  1  0  0  0  0
 25 26  1  0  0  0  0
 25 13  1  0  0  0  0
 28 12  1  0  0  0  0
 28  3  2  0  0  0  0
 29  4  1  0  0  0  0
 29 12  1  0  0  0  0
 30 25  1  0  0  0  0
 31 22  1  0  0  0  0
 32 25  1  0  0  0  0
 32 33  1  0  0  0  0
 35 37  1  0  0  0  0
 36 23  1  0  0  0  0
 37  1  1  0  0  0  0
 38 43  1  0  0  0  0
 39  6  1  0  0  0  0
 40 31  1  0  0  0  0
 40 16  1  0  0  0  0
 41 45  1  0  0  0  0
 42 19  2  0  0  0  0
 42 40  1  0  0  0  0
 43 19  1  0  0  0  0
 43 20  1  0  0  0  0
 44 35  1  0  0  0  0
 45 47  1  0  0  0  0
 45 46  2  0  0  0  0
 47 48  1  0  0  0  0
 48 50  1  0  0  0  0
 49 53  1  0  0  0  0
 50 52  1  0  0  0  0
 50 49  1  0  0  0  0
 51 54  1  0  0  0  0
 51 50  1  0  0  0  0
 51 52  1  0  0  0  0
 52 49  1  0  0  0  0
 54 55  1  0  0  0  0
 55 56  1  0  0  0  0
 56 58  1  0  0  0  0
 57 56  1  0  0  0  0
 58 59  1  0  0  0  0
 61 60  1  0  0  0  0
 62 65  1  0  0  0  0
 62 61  1  0  0  0  0
 63 67  1  0  0  0  0
 64 65  1  0  0  0  0
 64 66  1  0  0  0  0
 65 63  2  0  0  0  0
 66 67  2  0  0  0  0
 68 69  1  0  0  0  0
 69 62  1  0  0  0  0
M  END
>  <MODEL>
2

>  <REMARK>
 VINA RESULT:      -6.9      1.455      2.352
  Name = 
  13 active torsions:
  status: ('A' for Active; 'I' for Inactive)
    1  A    between atoms: C_7  and  C_56
    2  A    between atoms: C_7  and  C_66
    3  A    between atoms: C_8  and  C_30
    4  A    between atoms: O_11  and  C_18
    5  A    between atoms: O_11  and  C_28
    6  A    between atoms: C_12  and  C_22
    7  A    between atoms: C_12  and  C_57
    8  A    between atoms: C_15  and  C_57
    9  A    between atoms: C_19  and  C_28
   10  A    between atoms: C_19  and  C_40
   11  A    between atoms: C_19  and  C_64
   12  A    between atoms: C_22  and  C_54
   13  A    between atoms: C_30  and  C_56
                            x       y       z     vdW  Elec       q    Type
                         _______ _______ _______ _____ _____    ______ ____

>  <TORSDO>
F 13

$$$$
=
 OpenBabel11062412163D

 69 78  0  0  1  0  0  0  0  0999 V2000
  179.6440  180.0810  142.4690 C   0  0  0  0  0  2  0  0  0  0  0  0
  181.1920  175.8010  138.3370 C   0  0  2  0  0  3  0  0  0  0  0  0
  185.9810  174.6940  136.1350 C   0  0  0  0  0  0  0  0  0  0  0  0
  182.4200  172.8420  134.8900 O   0  0  0  0  0  0  0  0  0  0  0  0
  180.4100  175.0450  139.4210 C   0  0  0  0  0  2  0  0  0  0  0  0
  182.1030  174.7930  137.6760 C   0  0  0  0  0  2  0  0  0  0  0  0
  186.3530  176.1310  135.9210 C   0  0  0  0  0  2  0  0  0  0  0  0
  182.0810  171.9340  136.9760 O   0  0  0  0  0  0  0  0  0  0  0  0
  186.6780  173.9040  137.0000 N   0  0  0  0  0  0  0  0  0  0  0  0
  179.9830  178.6670  138.9950 C   0  0  1  0  0  3  0  0  0  0  0  0
  186.4230  172.5740  137.1150 C   0  0  0  0  0  3  0  0  0  0  0  0
  184.7470  172.7530  135.3950 C   0  0  0  0  0  0  0  0  0  0  0  0
  179.5890  177.9520  141.8540 C   0  0  0  0  0  2  0  0  0  0  0  0
  185.4470  171.9750  136.3160 C   0  0  0  0  0  3  0  0  0  0  0  0
  178.9340  180.8220  139.0580 O   0  0  0  0  0  0  0  0  0  0  0  0
  182.0050  176.9740  138.9310 C   0  0  2  0  0  3  0  0  0  0  0  0
  181.9250  172.9060  136.1900 C   0  0  0  0  0  0  0  0  0  0  0  0
  190.4360  176.7760  138.9010 C   0  0  0  0  0  2  0  0  0  0  0  0
  185.3270  177.5130  137.8320 C   0  0  0  0  0  0  0  0  0  0  0  0
  187.4270  176.2490  138.0820 O   0  0  0  0  0  0  0  0  0  0  0  0
  188.7410  177.9940  136.4870 O   0  0  0  0  0  0  0  0  0  0  0  0
  184.1570  179.2010  139.3750 C   0  0  0  0  0  2  0  0  0  0  0  0
  189.2420  177.6880  138.8060 C   0  0  2  0  0  0  0  0  0  0  0  0
  185.4660  178.6970  138.7800 C   0  0  0  0  0  2  0  0  0  0  0  0
  180.4390  177.0590  140.9370 C   0  0  2  0  0  0  0  0  0  0  0  0
  181.4530  176.4710  141.7030 O   0  0  0  0  0  1  0  0  0  0  0  0
  187.9000  177.0400  139.1520 C   0  0  0  0  0  2  0  0  0  0  0  0
  185.0150  174.1220  135.3020 C   0  0  0  0  0  3  0  0  0  0  0  0
  183.6290  172.1500  134.6020 C   0  0  0  0  0  2  0  0  0  0  0  0
  181.0650  177.8750  139.7850 C   0  0  2  0  0  3  0  0  0  0  0  0
  183.0930  179.2200  138.2960 C   0  0  0  0  0  2  0  0  0  0  0  0
  179.5680  175.9610  140.3070 C   0  0  2  0  0  3  0  0  0  0  0  0
  178.9330  175.1990  141.2910 O   0  0  0  0  0  1  0  0  0  0  0  0
  180.3800  178.8940  142.5210 O   0  0  0  0  0  0  0  0  0  0  0  0
  180.8300  180.6110  140.3980 N   0  0  0  0  0  2  0  0  0  0  0  0
  189.3030  178.6210  137.6050 C   0  0  0  0  0  2  0  0  0  0  0  0
  180.3960  181.1470  141.6780 C   0  0  0  0  0  2  0  0  0  0  0  0
  187.3610  178.2240  136.6050 C   0  0  0  0  0  2  0  0  0  0  0  0
  181.4000  174.0970  136.6590 O   0  0  0  0  0  0  0  0  0  0  0  0
  182.8110  177.7760  137.8660 C   0  0  1  0  0  3  0  0  0  0  0  0
  190.2860  177.9310  139.8920 C   0  0  1  0  0  3  0  0  0  0  0  0
  184.1000  177.1100  137.4180 C   0  0  0  0  0  3  0  0  0  0  0  0
  186.6180  176.9950  137.1740 C   0  0  1  0  0  0  0  0  0  0  0  0
  179.8910  180.0980  139.4550 C   0  0  0  0  0  0  0  0  0  0  0  0
  189.9050  177.3970  141.2510 C   0  0  0  0  0  0  0  0  0  0  0  0
  188.7120  176.8180  141.4120 C   0  0  0  0  0  2  0  0  0  0  0  0
  190.5990  177.9260  142.4670 C   0  0  0  0  0  2  0  0  0  0  0  0
  190.8500  176.8310  143.4920 C   0  0  0  0  0  2  0  0  0  0  0  0
  190.2270  176.8120  146.0270 C   0  0  2  0  0  3  0  0  0  0  0  0
  189.7630  176.8640  144.5670 C   0  0  2  0  0  0  0  0  0  0  0  0
  188.7970  178.0100  144.3450 C   0  0  2  0  0  3  0  0  0  0  0  0
  189.9130  178.1420  145.3720 C   0  0  1  0  0  3  0  0  0  0  0  0
  191.7330  176.6980  146.2320 C   0  0  0  0  0  1  0  0  0  0  0  0
  187.4620  177.6560  144.9890 C   0  0  0  0  0  2  0  0  0  0  0  0
  186.3000  178.3410  144.2800 C   0  0  0  0  0  2  0  0  0  0  0  0
  185.1460  178.5310  145.2390 C   0  0  1  0  0  3  0  0  0  0  0  0
  185.3130  179.7060  145.9530 F   0  0  0  0  0  0  0  0  0  0  0  0
  183.8500  178.5920  144.4520 C   0  0  0  0  0  2  0  0  0  0  0  0
  184.1460  178.5410  142.9620 C   0  0  0  0  0  1  0  0  0  0  0  0
  180.1470  178.5990  137.6030 O   0  0  0  0  0  0  0  0  0  0  0  0
  179.4250  179.6830  137.0960 C   0  0  0  0  0  2  0  0  0  0  0  0
  179.1030  179.4550  135.6330 C   0  0  2  0  0  3  0  0  0  0  0  0
  178.9900  177.0980  135.0250 N   0  0  0  0  0  0  0  0  0  0  0  0
  181.0890  177.9550  134.9700 N   0  0  0  0  0  0  0  0  0  0  0  0
  179.6970  178.1600  135.1880 C   0  0  0  0  0  0  0  0  0  0  0  0
  181.2070  176.5540  134.5940 C   0  0  0  0  0  3  0  0  0  0  0  0
  179.8400  176.0520  134.6610 N   0  0  0  0  0  2  0  0  0  0  0  0
  178.9490  181.7790  135.1210 O   0  0  0  0  0  1  0  0  0  0  0  0
  179.6360  180.6160  134.7970 C   0  0  0  0  0  2  0  0  0  0  0  0
  1 34  1  0  0  0  0
  2  6  1  1  0  0  0
  2 16  1  0  0  0  0
  2  5  1  0  0  0  0
  3  9  1  0  0  0  0
  4 17  1  0  0  0  0
  5 32  1  0  0  0  0
  7  3  1  0  0  0  0
  7 43  1  0  0  0  0
  9 11  2  0  0  0  0
 10 60  1  6  0  0  0
 10 44  1  0  0  0  0
 10 30  1  0  0  0  0
 12 14  2  0  0  0  0
 13 34  1  0  0  0  0
 14 11  1  0  0  0  0
 15 44  2  0  0  0  0
 16 30  1  0  0  0  0
 17 39  1  0  0  0  0
 17  8  2  0  0  0  0
 18 41  1  0  0  0  0
 19 24  1  0  0  0  0
 20 27  1  0  0  0  0
 21 38  1  0  0  0  0
 21 36  1  0  0  0  0
 23 18  1  0  0  0  0
 23 27  1  0  0  0  0
 23 41  1  0  0  0  0
 24 22  1  0  0  0  0
 25 26  1  0  0  0  0
 25 13  1  0  0  0  0
 28 12  1  0  0  0  0
 28  3  2  0  0  0  0
 29  4  1  0  0  0  0
 29 12  1  0  0  0  0
 30 25  1  0  0  0  0
 31 22  1  0  0  0  0
 32 25  1  0  0  0  0
 32 33  1  0  0  0  0
 35 37  1  0  0  0  0
 36 23  1  0  0  0  0
 37  1  1  0  0  0  0
 38 43  1  0  0  0  0
 39  6  1  0  0  0  0
 40 31  1  0  0  0  0
 40 16  1  0  0  0  0
 41 45  1  0  0  0  0
 42 19  2  0  0  0  0
 42 40  1  0  0  0  0
 43 19  1  0  0  0  0
 43 20  1  0  0  0  0
 44 35  1  0  0  0  0
 45 46  2  0  0  0  0
 45 47  1  0  0  0  0
 47 48  1  0  0  0  0
 48 50  1  0  0  0  0
 49 53  1  0  0  0  0
 50 52  1  0  0  0  0
 50 49  1  0  0  0  0
 51 50  1  0  0  0  0
 51 54  1  0  0  0  0
 51 52  1  0  0  0  0
 52 49  1  0  0  0  0
 55 54  1  0  0  0  0
 55 56  1  0  0  0  0
 56 57  1  0  0  0  0
 58 56  1  0  0  0  0
 59 58  1  0  0  0  0
 61 60  1  0  0  0  0
 62 61  1  0  0  0  0
 63 65  2  0  0  0  0
 64 65  1  0  0  0  0
 65 62  1  0  0  0  0
 66 67  1  0  0  0  0
 66 64  2  0  0  0  0
 67 63  1  0  0  0  0
 69 68  1  0  0  0  0
 69 62  1  0  0  0  0
M  END
>  <MODEL>
3

>  <REMARK>
 VINA RESULT:      -6.4      1.620      2.915
  Name = 
  13 active torsions:
  status: ('A' for Active; 'I' for Inactive)
    1  A    between atoms: C_7  and  C_56
    2  A    between atoms: C_7  and  C_66
    3  A    between atoms: C_8  and  C_30
    4  A    between atoms: O_11  and  C_18
    5  A    between atoms: O_11  and  C_28
    6  A    between atoms: C_12  and  C_22
    7  A    between atoms: C_12  and  C_57
    8  A    between atoms: C_15  and  C_57
    9  A    between atoms: C_19  and  C_28
   10  A    between atoms: C_19  and  C_40
   11  A    between atoms: C_19  and  C_64
   12  A    between atoms: C_22  and  C_54
   13  A    between atoms: C_30  and  C_56
                            x       y       z     vdW  Elec       q    Type
                         _______ _______ _______ _____ _____    ______ ____

>  <TORSDO>
F 13

$$$$
=
 OpenBabel11062412163D

 69 78  0  0  1  0  0  0  0  0999 V2000
  179.7650  180.0270  142.6720 C   0  0  0  0  0  2  0  0  0  0  0  0
  181.3330  175.7250  138.5700 C   0  0  2  0  0  3  0  0  0  0  0  0
  186.0960  174.7180  136.2660 C   0  0  0  0  0  0  0  0  0  0  0  0
  182.5600  172.7460  135.1390 O   0  0  0  0  0  0  0  0  0  0  0  0
  180.5990  174.9660  139.6850 C   0  0  0  0  0  2  0  0  0  0  0  0
  182.2550  174.7330  137.9020 C   0  0  0  0  0  2  0  0  0  0  0  0
  186.4220  176.1610  136.0200 C   0  0  0  0  0  2  0  0  0  0  0  0
  182.2980  171.8630  137.2480 O   0  0  0  0  0  0  0  0  0  0  0  0
  186.8360  173.9620  137.1260 N   0  0  0  0  0  0  0  0  0  0  0  0
  180.0590  178.5660  139.2130 C   0  0  1  0  0  3  0  0  0  0  0  0
  186.6220  172.6270  137.2680 C   0  0  0  0  0  3  0  0  0  0  0  0
  184.9000  172.7310  135.5880 C   0  0  0  0  0  0  0  0  0  0  0  0
  179.7560  177.8870  142.0920 C   0  0  0  0  0  2  0  0  0  0  0  0
  185.6440  171.9880  136.5030 C   0  0  0  0  0  3  0  0  0  0  0  0
  178.9510  180.6920  139.2690 O   0  0  0  0  0  0  0  0  0  0  0  0
  182.1260  176.9310  139.1250 C   0  0  2  0  0  3  0  0  0  0  0  0
  182.0950  172.8170  136.4500 C   0  0  0  0  0  0  0  0  0  0  0  0
  190.5560  176.9690  138.8870 C   0  0  0  0  0  2  0  0  0  0  0  0
  185.4040  177.5440  137.9340 C   0  0  0  0  0  0  0  0  0  0  0  0
  187.5450  176.3440  138.1510 O   0  0  0  0  0  0  0  0  0  0  0  0
  188.7680  178.0990  136.4970 O   0  0  0  0  0  0  0  0  0  0  0  0
  184.2240  179.2240  139.4790 C   0  0  0  0  0  2  0  0  0  0  0  0
  189.3350  177.8450  138.8070 C   0  0  2  0  0  0  0  0  0  0  0  0
  185.5320  178.7470  138.8600 C   0  0  0  0  0  2  0  0  0  0  0  0
  180.6090  177.0040  141.1680 C   0  0  2  0  0  0  0  0  0  0  0  0
  181.6570  176.4570  141.9180 O   0  0  0  0  0  1  0  0  0  0  0  0
  188.0200  177.1650  139.1970 C   0  0  0  0  0  2  0  0  0  0  0  0
  185.1260  174.1050  135.4670 C   0  0  0  0  0  3  0  0  0  0  0  0
  183.7800  172.0840  134.8330 C   0  0  0  0  0  2  0  0  0  0  0  0
  181.1820  177.8180  139.9880 C   0  0  2  0  0  3  0  0  0  0  0  0
  183.1340  179.1950  138.4270 C   0  0  0  0  0  2  0  0  0  0  0  0
  179.7530  175.8720  140.5770 C   0  0  2  0  0  3  0  0  0  0  0  0
  179.1650  175.1080  141.5890 O   0  0  0  0  0  1  0  0  0  0  0  0
  180.5360  178.8620  142.7230 O   0  0  0  0  0  0  0  0  0  0  0  0
  180.8840  180.5560  140.5640 N   0  0  0  0  0  2  0  0  0  0  0  0
  189.3390  178.7600  137.5900 C   0  0  0  0  0  2  0  0  0  0  0  0
  180.4670  181.1010  141.8450 C   0  0  0  0  0  2  0  0  0  0  0  0
  187.3860  178.2920  136.6460 C   0  0  0  0  0  2  0  0  0  0  0  0
  181.5480  174.0000  136.9140 O   0  0  0  0  0  0  0  0  0  0  0  0
  182.8820  177.7370  138.0270 C   0  0  1  0  0  3  0  0  0  0  0  0
  190.3980  178.1350  139.8630 C   0  0  1  0  0  3  0  0  0  0  0  0
  184.1790  177.1000  137.5570 C   0  0  0  0  0  3  0  0  0  0  0  0
  186.6930  177.0520  137.2520 C   0  0  1  0  0  0  0  0  0  0  0  0
  179.9380  180.0020  139.6530 C   0  0  0  0  0  0  0  0  0  0  0  0
  190.0660  177.6130  141.2390 C   0  0  0  0  0  0  0  0  0  0  0  0
  191.0460  177.1250  142.0040 C   0  0  0  0  0  2  0  0  0  0  0  0
  188.6620  177.1970  141.5460 C   0  0  0  0  0  2  0  0  0  0  0  0
  187.8670  178.3250  142.1860 C   0  0  0  0  0  2  0  0  0  0  0  0
  185.9590  177.7280  143.8640 C   0  0  2  0  0  3  0  0  0  0  0  0
  187.4560  177.9330  143.6050 C   0  0  2  0  0  0  0  0  0  0  0  0
  188.2600  176.7530  144.1110 C   0  0  2  0  0  3  0  0  0  0  0  0
  186.8530  176.5400  143.5700 C   0  0  1  0  0  3  0  0  0  0  0  0
  185.0480  177.9770  142.6670 C   0  0  0  0  0  1  0  0  0  0  0  0
  188.2890  176.7980  145.6340 C   0  0  0  0  0  2  0  0  0  0  0  0
  189.5840  176.2120  146.1860 C   0  0  0  0  0  2  0  0  0  0  0  0
  190.7230  176.4730  145.2270 C   0  0  1  0  0  3  0  0  0  0  0  0
  191.0850  177.8090  145.2760 F   0  0  0  0  0  0  0  0  0  0  0  0
  191.9090  175.6080  145.6150 C   0  0  0  0  0  2  0  0  0  0  0  0
  192.2800  175.8600  147.0670 C   0  0  0  0  0  1  0  0  0  0  0  0
  180.1910  178.4800  137.8180 O   0  0  0  0  0  0  0  0  0  0  0  0
  179.1110  179.2030  137.3040 C   0  0  0  0  0  2  0  0  0  0  0  0
  179.2050  179.2750  135.7930 C   0  0  2  0  0  3  0  0  0  0  0  0
  179.6080  176.9720  135.1030 N   0  0  0  0  0  0  0  0  0  0  0  0
  181.4610  178.2790  135.0500 N   0  0  0  0  0  0  0  0  0  0  0  0
  180.0630  178.1600  135.2940 C   0  0  0  0  0  0  0  0  0  0  0  0
  181.8810  176.9530  134.6220 C   0  0  0  0  0  3  0  0  0  0  0  0
  180.6630  176.1550  134.6900 N   0  0  0  0  0  2  0  0  0  0  0  0
  180.8630  180.9470  136.1650 O   0  0  0  0  0  1  0  0  0  0  0  0
  179.7690  180.6290  135.3710 C   0  0  0  0  0  2  0  0  0  0  0  0
  1 34  1  0  0  0  0
  2  6  1  1  0  0  0
  2 16  1  0  0  0  0
  2  5  1  0  0  0  0
  3  9  1  0  0  0  0
  4 17  1  0  0  0  0
  5 32  1  0  0  0  0
  7  3  1  0  0  0  0
  7 43  1  0  0  0  0
  9 11  2  0  0  0  0
 10 60  1  6  0  0  0
 10 44  1  0  0  0  0
 10 30  1  0  0  0  0
 12 14  2  0  0  0  0
 13 34  1  0  0  0  0
 14 11  1  0  0  0  0
 15 44  2  0  0  0  0
 16 30  1  0  0  0  0
 17 39  1  0  0  0  0
 17  8  2  0  0  0  0
 18 41  1  0  0  0  0
 19 24  1  0  0  0  0
 20 27  1  0  0  0  0
 21 38  1  0  0  0  0
 21 36  1  0  0  0  0
 23 18  1  0  0  0  0
 23 27  1  0  0  0  0
 23 41  1  0  0  0  0
 24 22  1  0  0  0  0
 25 26  1  0  0  0  0
 25 13  1  0  0  0  0
 28 12  1  0  0  0  0
 28  3  2  0  0  0  0
 29  4  1  0  0  0  0
 29 12  1  0  0  0  0
 30 25  1  0  0  0  0
 31 22  1  0  0  0  0
 32 25  1  0  0  0  0
 32 33  1  0  0  0  0
 35 37  1  0  0  0  0
 36 23  1  0  0  0  0
 37  1  1  0  0  0  0
 38 43  1  0  0  0  0
 39  6  1  0  0  0  0
 40 31  1  0  0  0  0
 40 16  1  0  0  0  0
 41 45  1  0  0  0  0
 42 19  2  0  0  0  0
 42 40  1  0  0  0  0
 43 19  1  0  0  0  0
 43 20  1  0  0  0  0
 44 35  1  0  0  0  0
 45 47  1  0  0  0  0
 45 46  2  0  0  0  0
 47 48  1  0  0  0  0
 48 50  1  0  0  0  0
 50 49  1  0  0  0  0
 50 51  1  0  0  0  0
 51 54  1  0  0  0  0
 52 50  1  0  0  0  0
 52 49  1  0  0  0  0
 52 51  1  0  0  0  0
 53 49  1  0  0  0  0
 54 55  1  0  0  0  0
 56 57  1  0  0  0  0
 56 58  1  0  0  0  0
 56 55  1  0  0  0  0
 58 59  1  0  0  0  0
 61 60  1  0  0  0  0
 62 61  1  0  0  0  0
 63 65  2  0  0  0  0
 64 65  1  0  0  0  0
 65 62  1  0  0  0  0
 66 67  1  0  0  0  0
 66 64  2  0  0  0  0
 67 63  1  0  0  0  0
 69 62  1  0  0  0  0
 69 68  1  0  0  0  0
M  END
>  <MODEL>
4

>  <REMARK>
 VINA RESULT:      -4.9      1.364      1.765
  Name = 
  13 active torsions:
  status: ('A' for Active; 'I' for Inactive)
    1  A    between atoms: C_7  and  C_56
    2  A    between atoms: C_7  and  C_66
    3  A    between atoms: C_8  and  C_30
    4  A    between atoms: O_11  and  C_18
    5  A    between atoms: O_11  and  C_28
    6  A    between atoms: C_12  and  C_22
    7  A    between atoms: C_12  and  C_57
    8  A    between atoms: C_15  and  C_57
    9  A    between atoms: C_19  and  C_28
   10  A    between atoms: C_19  and  C_40
   11  A    between atoms: C_19  and  C_64
   12  A    between atoms: C_22  and  C_54
   13  A    between atoms: C_30  and  C_56
                            x       y       z     vdW  Elec       q    Type
                         _______ _______ _______ _____ _____    ______ ____

>  <TORSDO>
F 13

$$$$
