=
 OpenBabel11062417493D

 58 63  0  0  1  0  0  0  0  0999 V2000
  185.5710  178.3420  143.3240 C   0  0  0  0  0  0  0  0  0  0  0  0
  187.4280  176.9190  142.7390 N   0  0  0  0  0  0  0  0  0  0  0  0
  187.2980  179.0940  141.6390 C   0  0  0  0  0  2  0  0  0  0  0  0
  186.3280  177.2610  143.5840 C   0  0  0  0  0  3  0  0  0  0  0  0
  187.8810  177.7120  141.8150 C   0  0  0  0  0  0  0  0  0  0  0  0
  185.8050  179.1200  142.0520 C   0  0  1  0  0  3  0  0  0  0  0  0
  183.7360  177.9990  141.4850 O   0  0  0  0  0  0  0  0  0  0  0  0
  185.8910  178.7830  138.6850 C   0  0  0  0  0  2  0  0  0  0  0  0
  180.4240  177.7310  139.9920 O   0  0  0  0  0  0  0  0  0  0  0  0
  185.4520  177.8800  139.8230 C   0  0  0  0  0  2  0  0  0  0  0  0
  186.2670  177.9940  137.4450 C   0  0  0  0  0  2  0  0  0  0  0  0
  181.6460  177.2720  140.5080 C   0  0  1  0  0  3  0  0  0  0  0  0
  184.8080  178.7110  140.9280 C   0  0  2  0  0  3  0  0  0  0  0  0
  184.5320  176.2080  137.4910 C   0  0  0  0  0  2  0  0  0  0  0  0
  182.3700  176.2990  139.5400 C   0  0  2  0  0  3  0  0  0  0  0  0
  179.8980  175.6800  138.8980 C   0  0  1  0  0  3  0  0  0  0  0  0
  185.4720  176.9940  135.3400 C   0  0  0  0  0  1  0  0  0  0  0  0
  185.0500  177.4250  136.7350 C   0  0  2  0  0  3  0  0  0  0  0  0
  183.0920  175.8740  137.1240 C   0  0  0  0  0  2  0  0  0  0  0  0
  179.5770  176.6170  140.0490 C   0  0  0  0  0  2  0  0  0  0  0  0
  182.0710  176.5210  138.0580 C   0  0  1  0  0  3  0  0  0  0  0  0
  181.3980  175.3710  138.8040 C   0  0  1  0  0  3  0  0  0  0  0  0
  182.5510  178.4620  140.8720 C   0  0  1  0  0  3  0  0  0  0  0  0
  179.1230  174.3900  139.0890 C   0  0  0  0  0  2  0  0  0  0  0  0
  179.5890  173.6860  140.2020 O   0  0  0  0  0  1  0  0  0  0  0  0
  181.8430  179.4050  141.6580 O   0  0  0  0  0  0  0  0  0  0  0  0
  181.4240  178.8040  142.8540 C   0  0  0  0  0  2  0  0  0  0  0  0
  180.0980  179.3950  143.2780 C   0  0  0  0  0  1  0  0  0  0  0  0
  184.6660  178.9640  145.5310 C   0  0  0  0  0  1  0  0  0  0  0  0
  184.4980  178.6820  144.1430 O   0  0  0  0  0  0  0  0  0  0  0  0
  189.0380  177.3240  141.0510 N   0  0  0  0  0  0  0  0  0  0  0  0
  190.2040  176.9970  141.5440 C   0  0  0  0  0  0  0  0  0  0  0  0
  191.3890  177.0280  145.7840 C   0  0  2  0  0  3  0  0  0  0  0  0
  191.5920  175.9950  143.4910 C   0  0  0  0  0  2  0  0  0  0  0  0
  190.3840  176.8200  143.0400 C   0  0  1  0  0  3  0  0  0  0  0  0
  190.1970  178.1060  143.8490 C   0  0  2  0  0  3  0  0  0  0  0  0
  191.2090  179.2070  143.5470 C   0  0  0  0  0  1  0  0  0  0  0  0
  190.1400  177.8000  145.3410 C   0  0  0  0  0  2  0  0  0  0  0  0
  191.5240  175.7190  144.9940 C   0  0  0  0  0  2  0  0  0  0  0  0
  191.2960  176.7170  147.2600 C   0  0  0  0  0  1  0  0  0  0  0  0
  191.2650  176.8510  140.6360 O   0  0  0  0  0  0  0  0  0  0  0  0
  192.7580  177.3860  138.7920 C   0  0  2  0  0  3  0  0  0  0  0  0
  193.5340  176.4660  139.5140 O   0  0  0  0  0  1  0  0  0  0  0  0
  191.3710  177.5830  139.4130 C   0  0  1  0  0  3  0  0  0  0  0  0
  191.5350  176.7110  138.1660 C   0  0  2  0  0  3  0  0  0  0  0  0
  191.3790  175.2010  138.4330 C   0  0  0  0  0  2  0  0  0  0  0  0
  191.9690  174.3960  137.2760 C   0  0  0  0  0  2  0  0  0  0  0  0
  191.5480  174.9580  135.9200 C   0  0  2  0  0  3  0  0  0  0  0  0
  190.3690  174.1870  135.3930 C   0  0  0  0  0  0  0  0  0  0  0  0
  189.3410  174.8540  134.7410 O   0  0  0  0  0  0  0  0  0  0  0  0
  190.2810  172.9390  135.5700 O   0  0  0  0  0  1  0  0  0  0  0  0
  192.6600  174.9140  134.9750 N   0  0  0  0  0  2  0  0  0  0  0  0
  193.8000  175.5750  135.5920 C   0  0  0  0  0  2  0  0  0  0  0  0
  195.0670  174.7750  135.3420 C   0  0  0  0  0  2  0  0  0  0  0  0
  195.8520  174.6000  136.6250 C   0  0  0  0  0  2  0  0  0  0  0  0
  197.3020  174.9750  136.3940 C   0  0  1  0  0  3  0  0  0  0  0  0
  197.8480  175.4970  137.5700 O   0  0  0  0  0  1  0  0  0  0  0  0
  198.0550  173.7970  135.9930 N   0  0  0  0  0  1  0  0  0  0  0  0
  1  4  2  0  0  0  0
  1 30  1  0  0  0  0
  2  4  1  0  0  0  0
  3  5  1  0  0  0  0
  5  2  2  0  0  0  0
  6  3  1  6  0  0  0
  6  1  1  0  0  0  0
  8 10  1  0  0  0  0
  9 20  1  0  0  0  0
 11  8  1  0  0  0  0
 12  9  1  6  0  0  0
 12 23  1  0  0  0  0
 13 10  1  6  0  0  0
 13  7  1  0  0  0  0
 13  6  1  0  0  0  0
 15 12  1  0  0  0  0
 16 24  1  0  0  0  0
 16 20  1  0  0  0  0
 17 18  1  0  0  0  0
 18 11  1  0  0  0  0
 18 14  1  0  0  0  0
 19 14  1  0  0  0  0
 19 21  1  0  0  0  0
 21 22  1  0  0  0  0
 21 15  1  0  0  0  0
 22 16  1  0  0  0  0
 22 15  1  0  0  0  0
 23  7  1  0  0  0  0
 23 26  1  0  0  0  0
 24 25  1  0  0  0  0
 26 27  1  0  0  0  0
 27 28  1  0  0  0  0
 30 29  1  0  0  0  0
 31 32  2  0  0  0  0
 31  5  1  0  0  0  0
 32 35  1  0  0  0  0
 33 40  1  0  0  0  0
 34 39  1  0  0  0  0
 35 34  1  0  0  0  0
 35 36  1  0  0  0  0
 36 38  1  0  0  0  0
 37 36  1  0  0  0  0
 38 33  1  0  0  0  0
 39 33  1  0  0  0  0
 41 32  1  0  0  0  0
 42 44  1  0  0  0  0
 42 43  1  0  0  0  0
 44 41  1  0  0  0  0
 45 46  1  0  0  0  0
 45 42  1  0  0  0  0
 45 44  1  0  0  0  0
 47 46  1  0  0  0  0
 48 47  1  0  0  0  0
 49 51  1  0  0  0  0
 49 48  1  0  0  0  0
 50 49  2  0  0  0  0
 52 53  1  0  0  0  0
 52 48  1  0  0  0  0
 54 53  1  0  0  0  0
 54 55  1  0  0  0  0
 56 55  1  0  0  0  0
 56 57  1  0  0  0  0
 58 56  1  0  0  0  0
M  END
>  <MODEL>
1

>  <REMARK>
 VINA RESULT:      -6.5      0.000      0.000
  Name = 
  18 active torsions:
  status: ('A' for Active; 'I' for Inactive)
    1  A    between atoms: CA_1  and  C_3
    2  A    between atoms: CA_1  and  C_27
    3  A    between atoms: CA_1  and  N_35
    4  A    between atoms: C_2  and  C_38
    5  A    between atoms: C_5  and  O_57
    6  A    between atoms: C_8  and  C_37
    7  A    between atoms: C_12  and  C_55
    8  A    between atoms: O_14  and  C_21
    9  A    between atoms: O_14  and  C_56
   10  A    between atoms: O_15  and  C_20
   11  A    between atoms: O_15  and  C_55
   12  A    between atoms: N_22  and  C_44
   13  A    between atoms: C_23  and  C_37
   14  A    between atoms: C_23  and  C_39
   15  A    between atoms: C_27  and  C_40
   16  A    between atoms: C_30  and  C_58
   17  A    between atoms: N_35  and  C_39
   18  A    between atoms: C_40  and  C_51
                            x       y       z     vdW  Elec       q    Type
                         _______ _______ _______ _____ _____    ______ ____

>  <TORSDO>
F 18

$$$$
=
 OpenBabel11062417493D

 58 63  0  0  1  0  0  0  0  0999 V2000
  182.8560  179.2500  141.3030 C   0  0  0  0  0  0  0  0  0  0  0  0
  183.7850  179.4680  139.0890 N   0  0  0  0  0  0  0  0  0  0  0  0
  183.9040  177.2670  140.1380 C   0  0  0  0  0  2  0  0  0  0  0  0
  182.9880  179.9590  140.1680 C   0  0  0  0  0  3  0  0  0  0  0  0
  184.2530  178.2560  139.0520 C   0  0  0  0  0  0  0  0  0  0  0  0
  183.6660  177.9900  141.4880 C   0  0  1  0  0  3  0  0  0  0  0  0
  186.0140  177.4930  141.8030 O   0  0  0  0  0  0  0  0  0  0  0  0
  184.4010  179.1690  144.5750 C   0  0  0  0  0  2  0  0  0  0  0  0
  189.5390  178.3140  142.2150 O   0  0  0  0  0  0  0  0  0  0  0  0
  184.7820  177.9160  143.8080 C   0  0  0  0  0  2  0  0  0  0  0  0
  184.5030  178.9710  146.0750 C   0  0  0  0  0  2  0  0  0  0  0  0
  188.3780  177.5300  142.3120 C   0  0  1  0  0  3  0  0  0  0  0  0
  184.9520  178.2430  142.3280 C   0  0  2  0  0  3  0  0  0  0  0  0
  186.5580  177.5710  146.2170 C   0  0  0  0  0  2  0  0  0  0  0  0
  188.1360  177.0060  143.7530 C   0  0  2  0  0  3  0  0  0  0  0  0
  190.7620  177.0370  143.8140 C   0  0  1  0  0  3  0  0  0  0  0  0
  185.9530  179.1080  148.0610 C   0  0  0  0  0  1  0  0  0  0  0  0
  185.9440  178.9250  146.5520 C   0  0  2  0  0  3  0  0  0  0  0  0
  188.0810  177.6100  146.2370 C   0  0  0  0  0  2  0  0  0  0  0  0
  190.5930  177.4000  142.3490 C   0  0  0  0  0  2  0  0  0  0  0  0
  188.6900  177.8950  144.8650 C   0  0  1  0  0  3  0  0  0  0  0  0
  189.4360  176.6240  144.4660 C   0  0  1  0  0  3  0  0  0  0  0  0
  187.1600  178.3180  141.8000 C   0  0  1  0  0  3  0  0  0  0  0  0
  191.7600  175.9000  143.9230 C   0  0  0  0  0  2  0  0  0  0  0  0
  192.1540  175.7040  145.2490 O   0  0  0  0  0  1  0  0  0  0  0  0
  187.4350  178.8940  140.5340 O   0  0  0  0  0  0  0  0  0  0  0  0
  188.1720  177.9910  139.7540 C   0  0  0  0  0  2  0  0  0  0  0  0
  189.0950  178.7570  138.8330 C   0  0  0  0  0  1  0  0  0  0  0  0
  181.1130  178.9020  143.0110 C   0  0  0  0  0  1  0  0  0  0  0  0
  182.0800  179.7220  142.3590 O   0  0  0  0  0  0  0  0  0  0  0  0
  184.9900  177.8140  137.8960 N   0  0  0  0  0  0  0  0  0  0  0  0
  184.6680  176.8110  137.1230 C   0  0  0  0  0  0  0  0  0  0  0  0
  181.0070  174.3780  136.8660 C   0  0  2  0  0  3  0  0  0  0  0  0
  182.2200  176.5220  136.3180 C   0  0  0  0  0  2  0  0  0  0  0  0
  183.3310  176.1110  137.2870 C   0  0  1  0  0  3  0  0  0  0  0  0
  183.4390  174.5950  137.4740 C   0  0  2  0  0  3  0  0  0  0  0  0
  184.0340  173.8430  136.2880 C   0  0  0  0  0  1  0  0  0  0  0  0
  182.0930  174.0070  137.8830 C   0  0  0  0  0  2  0  0  0  0  0  0
  180.8850  175.9020  136.7370 C   0  0  0  0  0  2  0  0  0  0  0  0
  179.6810  173.8040  137.3090 C   0  0  0  0  0  1  0  0  0  0  0  0
  185.6170  176.4040  136.1720 O   0  0  0  0  0  0  0  0  0  0  0  0
  187.9000  177.2320  136.0170 C   0  0  2  0  0  3  0  0  0  0  0  0
  188.0360  176.2370  136.9960 O   0  0  0  0  0  1  0  0  0  0  0  0
  186.4720  177.3070  135.4650 C   0  0  1  0  0  3  0  0  0  0  0  0
  187.5740  176.6260  134.6500 C   0  0  2  0  0  3  0  0  0  0  0  0
  187.4560  175.0900  134.5960 C   0  0  0  0  0  2  0  0  0  0  0  0
  188.8430  174.4520  134.6270 C   0  0  0  0  0  2  0  0  0  0  0  0
  188.7690  172.9330  134.7630 C   0  0  2  0  0  3  0  0  0  0  0  0
  187.9760  172.5700  135.9890 C   0  0  0  0  0  0  0  0  0  0  0  0
  186.8060  171.8330  135.8640 O   0  0  0  0  0  0  0  0  0  0  0  0
  188.3390  172.9620  137.1340 O   0  0  0  0  0  1  0  0  0  0  0  0
  190.1070  172.3530  134.8220 N   0  0  0  0  0  2  0  0  0  0  0  0
  191.0700  173.4240  134.6190 C   0  0  0  0  0  2  0  0  0  0  0  0
  192.1530  173.3630  135.6810 C   0  0  0  0  0  2  0  0  0  0  0  0
  191.6690  173.9820  136.9760 C   0  0  0  0  0  2  0  0  0  0  0  0
  192.4480  175.2500  137.2620 C   0  0  1  0  0  3  0  0  0  0  0  0
  192.9400  175.7820  136.0660 O   0  0  0  0  0  1  0  0  0  0  0  0
  191.5800  176.2250  137.9040 N   0  0  0  0  0  1  0  0  0  0  0  0
  1  6  1  0  0  0  0
  1 30  1  0  0  0  0
  2  4  1  0  0  0  0
  4  1  2  0  0  0  0
  5  2  2  0  0  0  0
  5  3  1  0  0  0  0
  6  3  1  6  0  0  0
  6 13  1  0  0  0  0
  7 13  1  0  0  0  0
  8 11  1  0  0  0  0
  9 20  1  0  0  0  0
 10  8  1  0  0  0  0
 11 18  1  0  0  0  0
 12  9  1  1  0  0  0
 12 15  1  0  0  0  0
 13 10  1  1  0  0  0
 14 19  1  0  0  0  0
 14 18  1  0  0  0  0
 15 22  1  0  0  0  0
 15 21  1  0  0  0  0
 16 24  1  0  0  0  0
 16 22  1  0  0  0  0
 18 17  1  0  0  0  0
 20 16  1  0  0  0  0
 21 19  1  0  0  0  0
 22 21  1  0  0  0  0
 23  7  1  0  0  0  0
 23 12  1  0  0  0  0
 24 25  1  0  0  0  0
 26 23  1  0  0  0  0
 27 26  1  0  0  0  0
 28 27  1  0  0  0  0
 30 29  1  0  0  0  0
 31  5  1  0  0  0  0
 32 35  1  0  0  0  0
 32 31  2  0  0  0  0
 33 40  1  0  0  0  0
 33 38  1  0  0  0  0
 34 39  1  0  0  0  0
 34 35  1  0  0  0  0
 35 36  1  0  0  0  0
 36 38  1  0  0  0  0
 37 36  1  0  0  0  0
 39 33  1  0  0  0  0
 41 32  1  0  0  0  0
 42 43  1  0  0  0  0
 44 42  1  0  0  0  0
 44 41  1  0  0  0  0
 45 44  1  0  0  0  0
 45 42  1  0  0  0  0
 46 47  1  0  0  0  0
 46 45  1  0  0  0  0
 47 48  1  0  0  0  0
 48 52  1  0  0  0  0
 48 49  1  0  0  0  0
 49 51  1  0  0  0  0
 50 49  2  0  0  0  0
 53 52  1  0  0  0  0
 53 54  1  0  0  0  0
 54 55  1  0  0  0  0
 55 56  1  0  0  0  0
 56 58  1  0  0  0  0
 57 56  1  0  0  0  0
M  END
>  <MODEL>
2

>  <REMARK>
 VINA RESULT:      -6.4      2.664      7.990
  Name = 
  18 active torsions:
  status: ('A' for Active; 'I' for Inactive)
    1  A    between atoms: CA_1  and  C_3
    2  A    between atoms: CA_1  and  C_27
    3  A    between atoms: CA_1  and  N_35
    4  A    between atoms: C_2  and  C_38
    5  A    between atoms: C_5  and  O_57
    6  A    between atoms: C_8  and  C_37
    7  A    between atoms: C_12  and  C_55
    8  A    between atoms: O_14  and  C_21
    9  A    between atoms: O_14  and  C_56
   10  A    between atoms: O_15  and  C_20
   11  A    between atoms: O_15  and  C_55
   12  A    between atoms: N_22  and  C_44
   13  A    between atoms: C_23  and  C_37
   14  A    between atoms: C_23  and  C_39
   15  A    between atoms: C_27  and  C_40
   16  A    between atoms: C_30  and  C_58
   17  A    between atoms: N_35  and  C_39
   18  A    between atoms: C_40  and  C_51
                            x       y       z     vdW  Elec       q    Type
                         _______ _______ _______ _____ _____    ______ ____

>  <TORSDO>
F 18

$$$$
=
 OpenBabel11062417493D

 58 63  0  0  1  0  0  0  0  0999 V2000
  181.1760  179.4520  141.4230 C   0  0  0  0  0  0  0  0  0  0  0  0
  181.5600  178.5480  139.2210 N   0  0  0  0  0  0  0  0  0  0  0  0
  181.6970  176.9990  141.1020 C   0  0  0  0  0  2  0  0  0  0  0  0
  181.1050  179.5890  140.0880 C   0  0  0  0  0  3  0  0  0  0  0  0
  181.8750  177.3620  139.6480 C   0  0  0  0  0  0  0  0  0  0  0  0
  181.8700  178.2450  142.0080 C   0  0  1  0  0  3  0  0  0  0  0  0
  184.2190  177.9850  141.4810 O   0  0  0  0  0  0  0  0  0  0  0  0
  183.5040  179.1970  144.8150 C   0  0  0  0  0  2  0  0  0  0  0  0
  187.6080  179.1510  140.8330 O   0  0  0  0  0  0  0  0  0  0  0  0
  183.6990  178.0740  143.8130 C   0  0  0  0  0  2  0  0  0  0  0  0
  184.1160  178.8680  146.1640 C   0  0  0  0  0  2  0  0  0  0  0  0
  186.6080  178.2360  141.1990 C   0  0  1  0  0  3  0  0  0  0  0  0
  183.3410  178.5580  142.4120 C   0  0  2  0  0  3  0  0  0  0  0  0
  186.1980  177.7000  145.4540 C   0  0  0  0  0  2  0  0  0  0  0  0
  186.8990  177.5530  142.5620 C   0  0  2  0  0  3  0  0  0  0  0  0
  189.3860  177.8710  141.7740 C   0  0  1  0  0  3  0  0  0  0  0  0
  186.1310  178.9750  147.5750 C   0  0  0  0  0  1  0  0  0  0  0  0
  185.6330  178.9380  146.1400 C   0  0  2  0  0  3  0  0  0  0  0  0
  187.6320  177.9060  144.9860 C   0  0  0  0  0  2  0  0  0  0  0  0
  188.7100  178.3510  140.5020 C   0  0  0  0  0  2  0  0  0  0  0  0
  187.7260  178.3870  143.5390 C   0  0  1  0  0  3  0  0  0  0  0  0
  188.3870  177.2520  142.7620 C   0  0  1  0  0  3  0  0  0  0  0  0
  185.2340  178.9300  141.2130 C   0  0  1  0  0  3  0  0  0  0  0  0
  190.4430  176.8470  141.4090 C   0  0  0  0  0  2  0  0  0  0  0  0
  190.3370  175.7090  142.2130 O   0  0  0  0  0  1  0  0  0  0  0  0
  185.0270  179.6510  140.0110 O   0  0  0  0  0  0  0  0  0  0  0  0
  184.5470  178.7860  139.0160 C   0  0  0  0  0  2  0  0  0  0  0  0
  185.6880  178.3710  138.1150 C   0  0  0  0  0  1  0  0  0  0  0  0
  179.3870  180.9280  142.2550 C   0  0  0  0  0  1  0  0  0  0  0  0
  180.7340  180.4610  142.2740 O   0  0  0  0  0  0  0  0  0  0  0  0
  182.2590  176.3460  138.7020 N   0  0  0  0  0  0  0  0  0  0  0  0
  181.9050  176.3000  137.4450 C   0  0  0  0  0  0  0  0  0  0  0  0
  179.6370  179.1320  134.9510 C   0  0  2  0  0  3  0  0  0  0  0  0
  181.8590  178.1420  135.6200 C   0  0  0  0  0  2  0  0  0  0  0  0
  181.1710  177.4670  136.8090 C   0  0  1  0  0  3  0  0  0  0  0  0
  179.6780  177.2150  136.5790 C   0  0  2  0  0  3  0  0  0  0  0  0
  179.3600  176.0860  135.6040 C   0  0  0  0  0  1  0  0  0  0  0  0
  178.9700  178.5050  136.1820 C   0  0  0  0  0  2  0  0  0  0  0  0
  181.1180  179.4220  135.2260 C   0  0  0  0  0  2  0  0  0  0  0  0
  178.9310  180.4200  134.5940 C   0  0  0  0  0  1  0  0  0  0  0  0
  182.2060  175.1260  136.7370 O   0  0  0  0  0  0  0  0  0  0  0  0
  181.7050  172.7910  136.2740 C   0  0  2  0  0  3  0  0  0  0  0  0
  181.5340  173.3630  135.0040 O   0  0  0  0  0  1  0  0  0  0  0  0
  182.1680  173.8180  137.3130 C   0  0  1  0  0  3  0  0  0  0  0  0
  183.1720  172.8320  136.7100 C   0  0  2  0  0  3  0  0  0  0  0  0
  184.1600  173.4730  135.7160 C   0  0  0  0  0  2  0  0  0  0  0  0
  185.2060  172.4500  135.2780 C   0  0  0  0  0  2  0  0  0  0  0  0
  186.6200  173.0270  135.3240 C   0  0  2  0  0  3  0  0  0  0  0  0
  187.5220  172.1040  136.0960 C   0  0  0  0  0  0  0  0  0  0  0  0
  188.2460  171.1250  135.4310 O   0  0  0  0  0  0  0  0  0  0  0  0
  187.6000  172.1800  137.3560 O   0  0  0  0  0  1  0  0  0  0  0  0
  186.6150  174.3610  135.9160 N   0  0  0  0  0  2  0  0  0  0  0  0
  187.7500  175.0950  135.3810 C   0  0  0  0  0  2  0  0  0  0  0  0
  187.5100  176.5900  135.4970 C   0  0  0  0  0  2  0  0  0  0  0  0
  188.7730  177.3630  135.1810 C   0  0  0  0  0  2  0  0  0  0  0  0
  189.4660  177.7630  136.4670 C   0  0  1  0  0  3  0  0  0  0  0  0
  188.9530  178.9810  136.9210 O   0  0  0  0  0  1  0  0  0  0  0  0
  189.2510  176.7400  137.4790 N   0  0  0  0  0  1  0  0  0  0  0  0
  1  6  1  0  0  0  0
  1 30  1  0  0  0  0
  2  5  2  0  0  0  0
  2  4  1  0  0  0  0
  4  1  2  0  0  0  0
  5  3  1  0  0  0  0
  6  3  1  6  0  0  0
  6 13  1  0  0  0  0
  7 13  1  0  0  0  0
  8 11  1  0  0  0  0
 10  8  1  0  0  0  0
 12  9  1  1  0  0  0
 12 23  1  0  0  0  0
 12 15  1  0  0  0  0
 13 10  1  1  0  0  0
 14 18  1  0  0  0  0
 15 22  1  0  0  0  0
 15 21  1  0  0  0  0
 16 22  1  0  0  0  0
 18 11  1  0  0  0  0
 18 17  1  0  0  0  0
 19 14  1  0  0  0  0
 20  9  1  0  0  0  0
 20 16  1  0  0  0  0
 21 19  1  0  0  0  0
 22 21  1  0  0  0  0
 23  7  1  0  0  0  0
 24 16  1  0  0  0  0
 24 25  1  0  0  0  0
 26 23  1  0  0  0  0
 27 26  1  0  0  0  0
 28 27  1  0  0  0  0
 29 30  1  0  0  0  0
 31  5  1  0  0  0  0
 32 31  2  0  0  0  0
 33 39  1  0  0  0  0
 33 38  1  0  0  0  0
 34 35  1  0  0  0  0
 35 32  1  0  0  0  0
 36 35  1  0  0  0  0
 37 36  1  0  0  0  0
 38 36  1  0  0  0  0
 39 34  1  0  0  0  0
 40 33  1  0  0  0  0
 41 44  1  0  0  0  0
 41 32  1  0  0  0  0
 42 45  1  0  0  0  0
 42 44  1  0  0  0  0
 43 42  1  0  0  0  0
 45 44  1  0  0  0  0
 46 45  1  0  0  0  0
 47 48  1  0  0  0  0
 47 46  1  0  0  0  0
 48 52  1  0  0  0  0
 48 49  1  0  0  0  0
 49 51  1  0  0  0  0
 50 49  2  0  0  0  0
 53 54  1  0  0  0  0
 53 52  1  0  0  0  0
 55 54  1  0  0  0  0
 55 56  1  0  0  0  0
 56 57  1  0  0  0  0
 56 58  1  0  0  0  0
M  END
>  <MODEL>
3

>  <REMARK>
 VINA RESULT:      -6.1      3.548      8.985
  Name = 
  18 active torsions:
  status: ('A' for Active; 'I' for Inactive)
    1  A    between atoms: CA_1  and  C_3
    2  A    between atoms: CA_1  and  C_27
    3  A    between atoms: CA_1  and  N_35
    4  A    between atoms: C_2  and  C_38
    5  A    between atoms: C_5  and  O_57
    6  A    between atoms: C_8  and  C_37
    7  A    between atoms: C_12  and  C_55
    8  A    between atoms: O_14  and  C_21
    9  A    between atoms: O_14  and  C_56
   10  A    between atoms: O_15  and  C_20
   11  A    between atoms: O_15  and  C_55
   12  A    between atoms: N_22  and  C_44
   13  A    between atoms: C_23  and  C_37
   14  A    between atoms: C_23  and  C_39
   15  A    between atoms: C_27  and  C_40
   16  A    between atoms: C_30  and  C_58
   17  A    between atoms: N_35  and  C_39
   18  A    between atoms: C_40  and  C_51
                            x       y       z     vdW  Elec       q    Type
                         _______ _______ _______ _____ _____    ______ ____

>  <TORSDO>
F 18

$$$$
=
 OpenBabel11062417493D

 58 63  0  0  1  0  0  0  0  0999 V2000
  185.2250  178.5710  143.1440 C   0  0  0  0  0  0  0  0  0  0  0  0
  187.1280  177.1470  142.7400 N   0  0  0  0  0  0  0  0  0  0  0  0
  187.0030  179.2290  141.4730 C   0  0  0  0  0  2  0  0  0  0  0  0
  185.9890  177.5290  143.5140 C   0  0  0  0  0  3  0  0  0  0  0  0
  187.6030  177.8770  141.7760 C   0  0  0  0  0  0  0  0  0  0  0  0
  185.4940  179.2560  141.8260 C   0  0  1  0  0  3  0  0  0  0  0  0
  183.5130  177.9850  141.2620 O   0  0  0  0  0  0  0  0  0  0  0  0
  185.6760  178.7990  138.4770 C   0  0  0  0  0  2  0  0  0  0  0  0
  180.2580  177.4520  139.7150 O   0  0  0  0  0  0  0  0  0  0  0  0
  185.2690  177.9130  139.6400 C   0  0  0  0  0  2  0  0  0  0  0  0
  186.1290  177.9890  137.2760 C   0  0  0  0  0  2  0  0  0  0  0  0
  181.4950  177.0910  140.2730 C   0  0  1  0  0  3  0  0  0  0  0  0
  184.5510  178.7420  140.6990 C   0  0  2  0  0  3  0  0  0  0  0  0
  184.5080  176.0990  137.3580 C   0  0  0  0  0  2  0  0  0  0  0  0
  182.2990  176.1300  139.3580 C   0  0  2  0  0  3  0  0  0  0  0  0
  179.8860  175.3320  138.6920 C   0  0  1  0  0  3  0  0  0  0  0  0
  185.4450  176.8620  135.1960 C   0  0  0  0  0  1  0  0  0  0  0  0
  184.9660  177.3170  136.5650 C   0  0  2  0  0  3  0  0  0  0  0  0
  183.1000  175.6610  136.9750 C   0  0  0  0  0  2  0  0  0  0  0  0
  179.4810  176.2900  139.7990 C   0  0  0  0  0  2  0  0  0  0  0  0
  182.0200  176.2770  137.8620 C   0  0  1  0  0  3  0  0  0  0  0  0
  181.4040  175.1160  138.6390 C   0  0  1  0  0  3  0  0  0  0  0  0
  182.3150  178.3490  140.6080 C   0  0  1  0  0  3  0  0  0  0  0  0
  179.1890  174.0040  138.9170 C   0  0  0  0  0  2  0  0  0  0  0  0
  179.9870  172.9410  138.4870 O   0  0  0  0  0  1  0  0  0  0  0  0
  181.5320  179.2740  141.3420 O   0  0  0  0  0  0  0  0  0  0  0  0
  180.9380  178.6270  142.4360 C   0  0  0  0  0  2  0  0  0  0  0  0
  180.3190  179.6560  143.3550 C   0  0  0  0  0  1  0  0  0  0  0  0
  183.9770  178.6030  145.2690 C   0  0  0  0  0  1  0  0  0  0  0  0
  184.1140  178.9490  143.8930 O   0  0  0  0  0  0  0  0  0  0  0  0
  188.7970  177.4570  141.0880 N   0  0  0  0  0  0  0  0  0  0  0  0
  189.9300  177.1360  141.6540 C   0  0  0  0  0  0  0  0  0  0  0  0
  190.9510  177.1860  145.9360 C   0  0  2  0  0  3  0  0  0  0  0  0
  191.0810  176.0300  143.6970 C   0  0  0  0  0  2  0  0  0  0  0  0
  190.0280  177.0030  143.1630 C   0  0  1  0  0  3  0  0  0  0  0  0
  190.0050  178.3390  143.9100 C   0  0  2  0  0  3  0  0  0  0  0  0
  191.1800  179.2630  143.6090 C   0  0  0  0  0  1  0  0  0  0  0  0
  189.8480  178.1130  145.4100 C   0  0  0  0  0  2  0  0  0  0  0  0
  190.9180  175.8370  145.2060 C   0  0  0  0  0  2  0  0  0  0  0  0
  190.7580  176.9600  147.4180 C   0  0  0  0  0  1  0  0  0  0  0  0
  191.0380  176.9540  140.8100 O   0  0  0  0  0  0  0  0  0  0  0  0
  192.6830  177.4810  139.0970 C   0  0  2  0  0  3  0  0  0  0  0  0
  193.3780  176.5300  139.8590 O   0  0  0  0  0  1  0  0  0  0  0  0
  191.2570  177.7040  139.6130 C   0  0  1  0  0  3  0  0  0  0  0  0
  191.4960  176.8480  138.3660 C   0  0  2  0  0  3  0  0  0  0  0  0
  191.2820  175.3380  138.5930 C   0  0  0  0  0  2  0  0  0  0  0  0
  191.9490  174.5380  137.4750 C   0  0  0  0  0  2  0  0  0  0  0  0
  190.9700  174.2100  136.3490 C   0  0  2  0  0  3  0  0  0  0  0  0
  191.1980  175.1400  135.1890 C   0  0  0  0  0  0  0  0  0  0  0  0
  192.4590  175.2410  134.6190 O   0  0  0  0  0  0  0  0  0  0  0  0
  190.2620  175.8660  134.7480 O   0  0  0  0  0  1  0  0  0  0  0  0
  189.5920  174.2970  136.8210 N   0  0  0  0  0  2  0  0  0  0  0  0
  188.9460  173.0200  136.5620 C   0  0  0  0  0  2  0  0  0  0  0  0
  188.1530  173.0870  135.2680 C   0  0  0  0  0  2  0  0  0  0  0  0
  186.6990  173.4070  135.5460 C   0  0  0  0  0  2  0  0  0  0  0  0
  186.0550  172.2590  136.2960 C   0  0  1  0  0  3  0  0  0  0  0  0
  184.7600  172.6150  136.6830 O   0  0  0  0  0  1  0  0  0  0  0  0
  185.9990  171.0840  135.4400 N   0  0  0  0  0  1  0  0  0  0  0  0
  1  4  2  0  0  0  0
  1 30  1  0  0  0  0
  2  4  1  0  0  0  0
  3  5  1  0  0  0  0
  5  2  2  0  0  0  0
  6  3  1  6  0  0  0
  6  1  1  0  0  0  0
  8 10  1  0  0  0  0
  9 20  1  0  0  0  0
 11  8  1  0  0  0  0
 12  9  1  6  0  0  0
 12 23  1  0  0  0  0
 13 10  1  6  0  0  0
 13  7  1  0  0  0  0
 13  6  1  0  0  0  0
 15 12  1  0  0  0  0
 16 24  1  0  0  0  0
 16 20  1  0  0  0  0
 17 18  1  0  0  0  0
 18 11  1  0  0  0  0
 18 14  1  0  0  0  0
 19 14  1  0  0  0  0
 19 21  1  0  0  0  0
 21 22  1  0  0  0  0
 21 15  1  0  0  0  0
 22 16  1  0  0  0  0
 22 15  1  0  0  0  0
 23  7  1  0  0  0  0
 23 26  1  0  0  0  0
 25 24  1  0  0  0  0
 26 27  1  0  0  0  0
 27 28  1  0  0  0  0
 30 29  1  0  0  0  0
 31 32  2  0  0  0  0
 31  5  1  0  0  0  0
 32 35  1  0  0  0  0
 33 40  1  0  0  0  0
 34 39  1  0  0  0  0
 35 34  1  0  0  0  0
 35 36  1  0  0  0  0
 36 38  1  0  0  0  0
 37 36  1  0  0  0  0
 38 33  1  0  0  0  0
 39 33  1  0  0  0  0
 41 32  1  0  0  0  0
 42 44  1  0  0  0  0
 42 43  1  0  0  0  0
 44 41  1  0  0  0  0
 45 46  1  0  0  0  0
 45 42  1  0  0  0  0
 45 44  1  0  0  0  0
 47 46  1  0  0  0  0
 48 52  1  0  0  0  0
 48 47  1  0  0  0  0
 49 48  1  0  0  0  0
 50 49  2  0  0  0  0
 51 49  1  0  0  0  0
 53 52  1  0  0  0  0
 54 55  1  0  0  0  0
 54 53  1  0  0  0  0
 55 56  1  0  0  0  0
 56 57  1  0  0  0  0
 58 56  1  0  0  0  0
M  END
>  <MODEL>
4

>  <REMARK>
 VINA RESULT:      -6.1      1.872      3.427
  Name = 
  18 active torsions:
  status: ('A' for Active; 'I' for Inactive)
    1  A    between atoms: CA_1  and  C_3
    2  A    between atoms: CA_1  and  C_27
    3  A    between atoms: CA_1  and  N_35
    4  A    between atoms: C_2  and  C_38
    5  A    between atoms: C_5  and  O_57
    6  A    between atoms: C_8  and  C_37
    7  A    between atoms: C_12  and  C_55
    8  A    between atoms: O_14  and  C_21
    9  A    between atoms: O_14  and  C_56
   10  A    between atoms: O_15  and  C_20
   11  A    between atoms: O_15  and  C_55
   12  A    between atoms: N_22  and  C_44
   13  A    between atoms: C_23  and  C_37
   14  A    between atoms: C_23  and  C_39
   15  A    between atoms: C_27  and  C_40
   16  A    between atoms: C_30  and  C_58
   17  A    between atoms: N_35  and  C_39
   18  A    between atoms: C_40  and  C_51
                            x       y       z     vdW  Elec       q    Type
                         _______ _______ _______ _____ _____    ______ ____

>  <TORSDO>
F 18

$$$$
=
 OpenBabel11062417493D

 58 63  0  0  1  0  0  0  0  0999 V2000
  183.1270  179.1950  142.3860 C   0  0  0  0  0  0  0  0  0  0  0  0
  183.7700  179.6830  140.1140 N   0  0  0  0  0  0  0  0  0  0  0  0
  184.1340  177.4060  140.9120 C   0  0  0  0  0  2  0  0  0  0  0  0
  183.0830  180.0160  141.3220 C   0  0  0  0  0  3  0  0  0  0  0  0
  184.2950  178.5140  139.9000 C   0  0  0  0  0  0  0  0  0  0  0  0
  184.0220  177.9800  142.3470 C   0  0  1  0  0  3  0  0  0  0  0  0
  186.4000  177.5300  142.3960 O   0  0  0  0  0  0  0  0  0  0  0  0
  185.0530  179.0750  145.3800 C   0  0  0  0  0  2  0  0  0  0  0  0
  189.9300  178.4240  142.4660 O   0  0  0  0  0  0  0  0  0  0  0  0
  185.3770  177.8580  144.5340 C   0  0  0  0  0  2  0  0  0  0  0  0
  185.3170  178.8300  146.8530 C   0  0  0  0  0  2  0  0  0  0  0  0
  188.8030  177.6090  142.6560 C   0  0  1  0  0  3  0  0  0  0  0  0
  185.3830  178.2370  143.0560 C   0  0  2  0  0  3  0  0  0  0  0  0
  187.4050  177.4780  146.7290 C   0  0  0  0  0  2  0  0  0  0  0  0
  188.7250  177.0330  144.0950 C   0  0  2  0  0  3  0  0  0  0  0  0
  191.3420  177.1260  143.8810 C   0  0  1  0  0  3  0  0  0  0  0  0
  186.9660  178.9380  148.6800 C   0  0  0  0  0  1  0  0  0  0  0  0
  186.8020  178.8040  147.1750 C   0  0  2  0  0  3  0  0  0  0  0  0
  188.9200  177.5530  146.5910 C   0  0  0  0  0  2  0  0  0  0  0  0
  191.0110  177.5320  142.4560 C   0  0  0  0  0  2  0  0  0  0  0  0
  189.3750  177.8980  145.1740 C   0  0  1  0  0  3  0  0  0  0  0  0
  190.1010  176.6590  144.6540 C   0  0  1  0  0  3  0  0  0  0  0  0
  187.5210  178.3830  142.3020 C   0  0  1  0  0  3  0  0  0  0  0  0
  192.3690  176.0110  143.8450 C   0  0  0  0  0  2  0  0  0  0  0  0
  191.7570  174.7620  143.9830 O   0  0  0  0  0  1  0  0  0  0  0  0
  187.6490  179.0070  141.0360 O   0  0  0  0  0  0  0  0  0  0  0  0
  188.0060  178.0520  140.0720 C   0  0  0  0  0  2  0  0  0  0  0  0
  188.9940  178.6600  139.1020 C   0  0  0  0  0  1  0  0  0  0  0  0
  181.2530  178.8580  143.9500 C   0  0  0  0  0  1  0  0  0  0  0  0
  182.4600  179.5120  143.5660 O   0  0  0  0  0  0  0  0  0  0  0  0
  184.9110  178.2340  138.6280 N   0  0  0  0  0  0  0  0  0  0  0  0
  184.3700  177.5540  137.6520 C   0  0  0  0  0  0  0  0  0  0  0  0
  180.4100  175.6440  137.4290 C   0  0  2  0  0  3  0  0  0  0  0  0
  182.1280  177.1820  136.4040 C   0  0  0  0  0  2  0  0  0  0  0  0
  182.9120  177.1390  137.7180 C   0  0  1  0  0  3  0  0  0  0  0  0
  182.6610  175.8650  138.5300 C   0  0  2  0  0  3  0  0  0  0  0  0
  183.3120  174.6070  137.9650 C   0  0  0  0  0  1  0  0  0  0  0  0
  181.1680  175.6610  138.7620 C   0  0  0  0  0  2  0  0  0  0  0  0
  180.6370  176.9520  136.6600 C   0  0  0  0  0  2  0  0  0  0  0  0
  178.9320  175.4640  137.6890 C   0  0  0  0  0  1  0  0  0  0  0  0
  185.2010  177.2090  136.5740 O   0  0  0  0  0  0  0  0  0  0  0  0
  186.0080  176.0500  134.5940 C   0  0  2  0  0  3  0  0  0  0  0  0
  186.9580  177.0750  134.7160 O   0  0  0  0  0  1  0  0  0  0  0  0
  184.9830  176.0750  135.7330 C   0  0  1  0  0  3  0  0  0  0  0  0
  186.1180  175.0490  135.7460 C   0  0  2  0  0  3  0  0  0  0  0  0
  187.2090  175.3360  136.7970 C   0  0  0  0  0  2  0  0  0  0  0  0
  188.4370  174.4650  136.5350 C   0  0  0  0  0  2  0  0  0  0  0  0
  189.7030  175.0690  137.1400 C   0  0  2  0  0  3  0  0  0  0  0  0
  190.2520  176.1260  136.2210 C   0  0  0  0  0  0  0  0  0  0  0  0
  190.9550  177.2020  136.7440 O   0  0  0  0  0  1  0  0  0  0  0  0
  190.0490  176.0680  134.9750 O   0  0  0  0  0  0  0  0  0  0  0  0
  190.6990  174.0330  137.3920 N   0  0  0  0  0  2  0  0  0  0  0  0
  191.9490  174.6870  137.7450 C   0  0  0  0  0  2  0  0  0  0  0  0
  193.0670  174.2030  136.8390 C   0  0  0  0  0  2  0  0  0  0  0  0
  194.2990  175.0700  136.9970 C   0  0  0  0  0  2  0  0  0  0  0  0
  195.4030  174.2760  137.6660 C   0  0  1  0  0  3  0  0  0  0  0  0
  195.9990  175.0470  138.6680 O   0  0  0  0  0  1  0  0  0  0  0  0
  194.8510  173.0650  138.2520 N   0  0  0  0  0  1  0  0  0  0  0  0
  1 30  1  0  0  0  0
  2  4  1  0  0  0  0
  4  1  2  0  0  0  0
  5  2  2  0  0  0  0
  5  3  1  0  0  0  0
  6  3  1  6  0  0  0
  6  1  1  0  0  0  0
  6 13  1  0  0  0  0
  7 13  1  0  0  0  0
  8 11  1  0  0  0  0
 10  8  1  0  0  0  0
 11 18  1  0  0  0  0
 12  9  1  1  0  0  0
 12 15  1  0  0  0  0
 13 10  1  1  0  0  0
 14 18  1  0  0  0  0
 15 22  1  0  0  0  0
 15 21  1  0  0  0  0
 16 22  1  0  0  0  0
 18 17  1  0  0  0  0
 19 14  1  0  0  0  0
 20  9  1  0  0  0  0
 20 16  1  0  0  0  0
 21 19  1  0  0  0  0
 22 21  1  0  0  0  0
 23  7  1  0  0  0  0
 23 12  1  0  0  0  0
 24 16  1  0  0  0  0
 24 25  1  0  0  0  0
 26 23  1  0  0  0  0
 27 26  1  0  0  0  0
 28 27  1  0  0  0  0
 30 29  1  0  0  0  0
 31  5  1  0  0  0  0
 32 35  1  0  0  0  0
 32 31  2  0  0  0  0
 33 40  1  0  0  0  0
 33 38  1  0  0  0  0
 34 39  1  0  0  0  0
 34 35  1  0  0  0  0
 35 36  1  0  0  0  0
 36 38  1  0  0  0  0
 37 36  1  0  0  0  0
 39 33  1  0  0  0  0
 41 32  1  0  0  0  0
 42 43  1  0  0  0  0
 42 44  1  0  0  0  0
 42 45  1  0  0  0  0
 44 45  1  0  0  0  0
 44 41  1  0  0  0  0
 45 46  1  0  0  0  0
 47 46  1  0  0  0  0
 47 48  1  0  0  0  0
 48 52  1  0  0  0  0
 49 50  1  0  0  0  0
 49 48  1  0  0  0  0
 51 49  2  0  0  0  0
 52 53  1  0  0  0  0
 54 55  1  0  0  0  0
 54 53  1  0  0  0  0
 55 56  1  0  0  0  0
 56 58  1  0  0  0  0
 56 57  1  0  0  0  0
M  END
>  <MODEL>
5

>  <REMARK>
 VINA RESULT:      -5.7      2.321      8.056
  Name = 
  18 active torsions:
  status: ('A' for Active; 'I' for Inactive)
    1  A    between atoms: CA_1  and  C_3
    2  A    between atoms: CA_1  and  C_27
    3  A    between atoms: CA_1  and  N_35
    4  A    between atoms: C_2  and  C_38
    5  A    between atoms: C_5  and  O_57
    6  A    between atoms: C_8  and  C_37
    7  A    between atoms: C_12  and  C_55
    8  A    between atoms: O_14  and  C_21
    9  A    between atoms: O_14  and  C_56
   10  A    between atoms: O_15  and  C_20
   11  A    between atoms: O_15  and  C_55
   12  A    between atoms: N_22  and  C_44
   13  A    between atoms: C_23  and  C_37
   14  A    between atoms: C_23  and  C_39
   15  A    between atoms: C_27  and  C_40
   16  A    between atoms: C_30  and  C_58
   17  A    between atoms: N_35  and  C_39
   18  A    between atoms: C_40  and  C_51
                            x       y       z     vdW  Elec       q    Type
                         _______ _______ _______ _____ _____    ______ ____

>  <TORSDO>
F 18

$$$$
=
 OpenBabel11062417493D

 58 63  0  0  1  0  0  0  0  0999 V2000
  183.4570  178.9350  142.7660 C   0  0  0  0  0  0  0  0  0  0  0  0
  185.3480  177.4940  143.1610 N   0  0  0  0  0  0  0  0  0  0  0  0
  185.6550  179.3290  141.5820 C   0  0  0  0  0  2  0  0  0  0  0  0
  184.0510  177.9820  143.5050 C   0  0  0  0  0  3  0  0  0  0  0  0
  186.1000  178.0580  142.2640 C   0  0  0  0  0  0  0  0  0  0  0  0
  184.1100  179.3920  141.4830 C   0  0  1  0  0  3  0  0  0  0  0  0
  182.5070  177.7830  140.6440 O   0  0  0  0  0  0  0  0  0  0  0  0
  185.0350  178.8310  138.2760 C   0  0  0  0  0  2  0  0  0  0  0  0
  179.7570  176.6480  138.5420 O   0  0  0  0  0  0  0  0  0  0  0  0
  184.5440  177.9390  139.4010 C   0  0  0  0  0  2  0  0  0  0  0  0
  185.8420  178.0600  137.2490 C   0  0  0  0  0  2  0  0  0  0  0  0
  180.8960  176.5220  139.3540 C   0  0  1  0  0  3  0  0  0  0  0  0
  183.5060  178.6800  140.2370 C   0  0  2  0  0  3  0  0  0  0  0  0
  184.5540  175.9300  137.1560 C   0  0  0  0  0  2  0  0  0  0  0  0
  182.0090  175.6730  138.6850 C   0  0  2  0  0  3  0  0  0  0  0  0
  179.9350  174.4540  137.6270 C   0  0  1  0  0  3  0  0  0  0  0  0
  185.7780  176.7480  135.1660 C   0  0  0  0  0  1  0  0  0  0  0  0
  184.9670  177.1730  136.3790 C   0  0  2  0  0  3  0  0  0  0  0  0
  183.3390  175.2460  136.5430 C   0  0  0  0  0  2  0  0  0  0  0  0
  179.1700  175.3760  138.5610 C   0  0  0  0  0  2  0  0  0  0  0  0
  182.0190  175.7080  137.1570 C   0  0  1  0  0  3  0  0  0  0  0  0
  181.4470  174.4940  137.8850 C   0  0  1  0  0  3  0  0  0  0  0  0
  181.4250  177.9130  139.7460 C   0  0  1  0  0  3  0  0  0  0  0  0
  179.4240  173.0390  137.8120 C   0  0  0  0  0  2  0  0  0  0  0  0
  180.3500  172.1060  137.3390 O   0  0  0  0  0  1  0  0  0  0  0  0
  180.3750  178.7240  140.2450 O   0  0  0  0  0  0  0  0  0  0  0  0
  179.9320  179.5970  139.2400 C   0  0  0  0  0  2  0  0  0  0  0  0
  181.0200  180.6000  138.9280 C   0  0  0  0  0  1  0  0  0  0  0  0
  181.3930  178.8110  144.1080 C   0  0  0  0  0  1  0  0  0  0  0  0
  182.1930  179.4170  143.0950 O   0  0  0  0  0  0  0  0  0  0  0  0
  187.4240  177.5460  142.0230 N   0  0  0  0  0  0  0  0  0  0  0  0
  188.3970  177.5040  142.8960 C   0  0  0  0  0  0  0  0  0  0  0  0
  187.9900  177.7080  147.2740 C   0  0  2  0  0  3  0  0  0  0  0  0
  186.9980  177.0890  145.0390 C   0  0  0  0  0  2  0  0  0  0  0  0
  188.1390  177.8420  144.3520 C   0  0  1  0  0  3  0  0  0  0  0  0
  189.4070  177.9280  145.2070 C   0  0  2  0  0  3  0  0  0  0  0  0
  190.1860  176.6220  145.3300 C   0  0  0  0  0  1  0  0  0  0  0  0
  189.0920  178.5160  146.5780 C   0  0  0  0  0  2  0  0  0  0  0  0
  186.7150  177.6830  146.4200 C   0  0  0  0  0  2  0  0  0  0  0  0
  187.6810  178.3270  148.6190 C   0  0  0  0  0  1  0  0  0  0  0  0
  189.6720  177.1640  142.4170 O   0  0  0  0  0  0  0  0  0  0  0  0
  192.0830  177.4920  142.3970 C   0  0  2  0  0  3  0  0  0  0  0  0
  191.9960  176.1270  142.7070 O   0  0  0  0  0  1  0  0  0  0  0  0
  190.7040  178.1190  142.1580 C   0  0  1  0  0  3  0  0  0  0  0  0
  191.6040  177.7700  140.9700 C   0  0  2  0  0  3  0  0  0  0  0  0
  191.1280  176.5480  140.1610 C   0  0  0  0  0  2  0  0  0  0  0  0
  191.9550  176.4050  138.8840 C   0  0  0  0  0  2  0  0  0  0  0  0
  191.1140  176.6490  137.6320 C   0  0  2  0  0  3  0  0  0  0  0  0
  189.9880  175.6540  137.5730 C   0  0  0  0  0  0  0  0  0  0  0  0
  190.2630  174.3040  137.4090 O   0  0  0  0  0  0  0  0  0  0  0  0
  188.7840  176.0360  137.6330 O   0  0  0  0  0  1  0  0  0  0  0  0
  191.9410  176.5670  136.4320 N   0  0  0  0  0  2  0  0  0  0  0  0
  193.2490  176.0620  136.8200 C   0  0  0  0  0  2  0  0  0  0  0  0
  193.8710  175.2850  135.6740 C   0  0  0  0  0  2  0  0  0  0  0  0
  195.2170  174.7190  136.0780 C   0  0  0  0  0  2  0  0  0  0  0  0
  196.2920  175.2330  135.1420 C   0  0  1  0  0  3  0  0  0  0  0  0
  197.1600  176.0780  135.8390 O   0  0  0  0  0  1  0  0  0  0  0  0
  197.0410  174.1130  134.5950 N   0  0  0  0  0  1  0  0  0  0  0  0
  1 30  1  0  0  0  0
  1  4  2  0  0  0  0
  2  4  1  0  0  0  0
  3  5  1  0  0  0  0
  5  2  2  0  0  0  0
  6  3  1  1  0  0  0
  6  1  1  0  0  0  0
  8 10  1  0  0  0  0
  9 20  1  0  0  0  0
 11  8  1  0  0  0  0
 12  9  1  6  0  0  0
 12 23  1  0  0  0  0
 13 10  1  1  0  0  0
 13  7  1  0  0  0  0
 13  6  1  0  0  0  0
 15 12  1  0  0  0  0
 16 24  1  0  0  0  0
 16 22  1  0  0  0  0
 16 20  1  0  0  0  0
 17 18  1  0  0  0  0
 18 14  1  0  0  0  0
 18 11  1  0  0  0  0
 19 14  1  0  0  0  0
 19 21  1  0  0  0  0
 21 22  1  0  0  0  0
 21 15  1  0  0  0  0
 22 15  1  0  0  0  0
 23 26  1  0  0  0  0
 23  7  1  0  0  0  0
 25 24  1  0  0  0  0
 27 26  1  0  0  0  0
 28 27  1  0  0  0  0
 30 29  1  0  0  0  0
 31  5  1  0  0  0  0
 31 32  2  0  0  0  0
 32 35  1  0  0  0  0
 33 40  1  0  0  0  0
 34 39  1  0  0  0  0
 35 34  1  0  0  0  0
 35 36  1  0  0  0  0
 36 37  1  0  0  0  0
 36 38  1  0  0  0  0
 38 33  1  0  0  0  0
 39 33  1  0  0  0  0
 41 32  1  0  0  0  0
 42 43  1  0  0  0  0
 44 42  1  0  0  0  0
 44 41  1  0  0  0  0
 45 44  1  0  0  0  0
 45 42  1  0  0  0  0
 46 45  1  0  0  0  0
 47 46  1  0  0  0  0
 48 47  1  0  0  0  0
 49 48  1  0  0  0  0
 49 51  1  0  0  0  0
 50 49  2  0  0  0  0
 52 53  1  0  0  0  0
 52 48  1  0  0  0  0
 54 55  1  0  0  0  0
 54 53  1  0  0  0  0
 56 57  1  0  0  0  0
 56 55  1  0  0  0  0
 58 56  1  0  0  0  0
M  END
>  <MODEL>
6

>  <REMARK>
 VINA RESULT:      -5.1      1.753      2.513
  Name = 
  18 active torsions:
  status: ('A' for Active; 'I' for Inactive)
    1  A    between atoms: CA_1  and  C_3
    2  A    between atoms: CA_1  and  C_27
    3  A    between atoms: CA_1  and  N_35
    4  A    between atoms: C_2  and  C_38
    5  A    between atoms: C_5  and  O_57
    6  A    between atoms: C_8  and  C_37
    7  A    between atoms: C_12  and  C_55
    8  A    between atoms: O_14  and  C_21
    9  A    between atoms: O_14  and  C_56
   10  A    between atoms: O_15  and  C_20
   11  A    between atoms: O_15  and  C_55
   12  A    between atoms: N_22  and  C_44
   13  A    between atoms: C_23  and  C_37
   14  A    between atoms: C_23  and  C_39
   15  A    between atoms: C_27  and  C_40
   16  A    between atoms: C_30  and  C_58
   17  A    between atoms: N_35  and  C_39
   18  A    between atoms: C_40  and  C_51
                            x       y       z     vdW  Elec       q    Type
                         _______ _______ _______ _____ _____    ______ ____

>  <TORSDO>
F 18

$$$$
=
 OpenBabel11062417493D

 58 63  0  0  1  0  0  0  0  0999 V2000
  183.0400  178.6550  141.3850 C   0  0  0  0  0  0  0  0  0  0  0  0
  184.9260  177.6900  140.2350 N   0  0  0  0  0  0  0  0  0  0  0  0
  184.2430  179.9360  139.5690 C   0  0  0  0  0  2  0  0  0  0  0  0
  183.9880  177.7040  141.3120 C   0  0  0  0  0  3  0  0  0  0  0  0
  185.0520  178.6730  139.3950 C   0  0  0  0  0  0  0  0  0  0  0  0
  182.8820  179.6330  140.2460 C   0  0  1  0  0  3  0  0  0  0  0  0
  181.8230  177.8300  139.0260 O   0  0  0  0  0  0  0  0  0  0  0  0
  180.8600  181.1670  138.0060 C   0  0  0  0  0  2  0  0  0  0  0  0
  179.0230  175.7510  137.9730 O   0  0  0  0  0  0  0  0  0  0  0  0
  181.7800  179.9610  137.9420 C   0  0  0  0  0  2  0  0  0  0  0  0
  180.6280  181.7790  136.6380 C   0  0  0  0  0  2  0  0  0  0  0  0
  180.2950  176.3400  137.8880 C   0  0  1  0  0  3  0  0  0  0  0  0
  181.7470  179.2100  139.2680 C   0  0  2  0  0  3  0  0  0  0  0  0
  180.4810  179.7280  135.2330 C   0  0  0  0  0  2  0  0  0  0  0  0
  180.5320  177.0430  136.5250 C   0  0  2  0  0  3  0  0  0  0  0  0
  178.9520  175.1240  135.6750 C   0  0  1  0  0  3  0  0  0  0  0  0
  179.2370  181.7750  134.6060 C   0  0  0  0  0  1  0  0  0  0  0  0
  179.7130  180.9270  135.7750 C   0  0  2  0  0  3  0  0  0  0  0  0
  179.5520  178.6160  134.7630 C   0  0  0  0  0  2  0  0  0  0  0  0
  179.0880  174.6490  137.1110 C   0  0  0  0  0  2  0  0  0  0  0  0
  179.2710  177.5740  135.8440 C   0  0  1  0  0  3  0  0  0  0  0  0
  179.9110  176.2780  135.3530 C   0  0  1  0  0  3  0  0  0  0  0  0
  180.5070  177.3180  139.0570 C   0  0  1  0  0  3  0  0  0  0  0  0
  179.2290  173.9570  134.7470 C   0  0  0  0  0  2  0  0  0  0  0  0
  179.8640  172.9150  135.4290 O   0  0  0  0  0  1  0  0  0  0  0  0
  180.1730  176.7030  140.2890 O   0  0  0  0  0  0  0  0  0  0  0  0
  180.7600  175.4310  140.3580 C   0  0  0  0  0  2  0  0  0  0  0  0
  179.7650  174.4460  140.9280 C   0  0  0  0  0  1  0  0  0  0  0  0
  182.5160  178.9350  143.7770 C   0  0  0  0  0  1  0  0  0  0  0  0
  182.1220  178.6760  142.4320 O   0  0  0  0  0  0  0  0  0  0  0  0
  186.0690  178.6130  138.3780 N   0  0  0  0  0  0  0  0  0  0  0  0
  186.3140  177.5890  137.6030 C   0  0  0  0  0  0  0  0  0  0  0  0
  183.7330  174.1340  136.7210 C   0  0  2  0  0  3  0  0  0  0  0  0
  183.9720  176.6240  137.0480 C   0  0  0  0  0  2  0  0  0  0  0  0
  185.3830  176.3900  137.5940 C   0  0  1  0  0  3  0  0  0  0  0  0
  186.0270  175.1030  137.0710 C   0  0  2  0  0  3  0  0  0  0  0  0
  186.4740  175.1550  135.6140 C   0  0  0  0  0  1  0  0  0  0  0  0
  185.1210  173.9050  137.3310 C   0  0  0  0  0  2  0  0  0  0  0  0
  183.0890  175.4000  137.3000 C   0  0  0  0  0  2  0  0  0  0  0  0
  182.8490  172.9420  137.0140 C   0  0  0  0  0  1  0  0  0  0  0  0
  187.4770  177.6430  136.8180 O   0  0  0  0  0  0  0  0  0  0  0  0
  189.8800  177.3450  136.5810 C   0  0  2  0  0  3  0  0  0  0  0  0
  189.7580  178.7310  136.3990 O   0  0  0  0  0  1  0  0  0  0  0  0
  188.5340  176.6830  136.8950 C   0  0  1  0  0  3  0  0  0  0  0  0
  189.5420  176.9410  138.0180 C   0  0  2  0  0  3  0  0  0  0  0  0
  189.1400  178.0840  138.9710 C   0  0  0  0  0  2  0  0  0  0  0  0
  188.8540  177.5320  140.3660 C   0  0  0  0  0  2  0  0  0  0  0  0
  189.7090  178.2130  141.4330 C   0  0  2  0  0  3  0  0  0  0  0  0
  191.0840  177.6020  141.4500 C   0  0  0  0  0  0  0  0  0  0  0  0
  191.7380  177.4000  142.6570 O   0  0  0  0  0  1  0  0  0  0  0  0
  191.6720  177.3050  140.3720 O   0  0  0  0  0  0  0  0  0  0  0  0
  189.0790  178.1060  142.7450 N   0  0  0  0  0  2  0  0  0  0  0  0
  188.1640  176.9760  142.7140 C   0  0  0  0  0  2  0  0  0  0  0  0
  187.4460  176.8460  144.0460 C   0  0  0  0  0  2  0  0  0  0  0  0
  188.4020  177.0840  145.1960 C   0  0  0  0  0  2  0  0  0  0  0  0
  187.6860  177.8110  146.3170 C   0  0  1  0  0  3  0  0  0  0  0  0
  186.4880  177.1570  146.6140 O   0  0  0  0  0  1  0  0  0  0  0  0
  188.5300  177.8380  147.5010 N   0  0  0  0  0  1  0  0  0  0  0  0
  1 30  1  0  0  0  0
  2  4  1  0  0  0  0
  4  1  2  0  0  0  0
  5  3  1  0  0  0  0
  5  2  2  0  0  0  0
  6  3  1  6  0  0  0
  6  1  1  0  0  0  0
  7 23  1  0  0  0  0
  7 13  1  0  0  0  0
 10  8  1  0  0  0  0
 11  8  1  0  0  0  0
 12  9  1  6  0  0  0
 12 23  1  0  0  0  0
 13 10  1  6  0  0  0
 13  6  1  0  0  0  0
 14 18  1  0  0  0  0
 15 12  1  0  0  0  0
 16 20  1  0  0  0  0
 17 18  1  0  0  0  0
 18 11  1  0  0  0  0
 19 14  1  0  0  0  0
 19 21  1  0  0  0  0
 20  9  1  0  0  0  0
 21 15  1  0  0  0  0
 22 16  1  0  0  0  0
 22 21  1  0  0  0  0
 22 15  1  0  0  0  0
 23 26  1  0  0  0  0
 24 25  1  0  0  0  0
 24 16  1  0  0  0  0
 26 27  1  0  0  0  0
 27 28  1  0  0  0  0
 30 29  1  0  0  0  0
 31  5  1  0  0  0  0
 32 31  2  0  0  0  0
 33 40  1  0  0  0  0
 33 39  1  0  0  0  0
 33 38  1  0  0  0  0
 34 39  1  0  0  0  0
 34 35  1  0  0  0  0
 35 32  1  0  0  0  0
 36 38  1  0  0  0  0
 36 35  1  0  0  0  0
 37 36  1  0  0  0  0
 41 44  1  0  0  0  0
 41 32  1  0  0  0  0
 42 44  1  0  0  0  0
 42 45  1  0  0  0  0
 43 42  1  0  0  0  0
 44 45  1  0  0  0  0
 45 46  1  0  0  0  0
 46 47  1  0  0  0  0
 47 48  1  0  0  0  0
 48 49  1  0  0  0  0
 48 52  1  0  0  0  0
 49 50  1  0  0  0  0
 51 49  2  0  0  0  0
 53 52  1  0  0  0  0
 53 54  1  0  0  0  0
 54 55  1  0  0  0  0
 55 56  1  0  0  0  0
 56 57  1  0  0  0  0
 56 58  1  0  0  0  0
M  END
>  <MODEL>
7

>  <REMARK>
 VINA RESULT:      -4.5      3.465      7.150
  Name = 
  18 active torsions:
  status: ('A' for Active; 'I' for Inactive)
    1  A    between atoms: CA_1  and  C_3
    2  A    between atoms: CA_1  and  C_27
    3  A    between atoms: CA_1  and  N_35
    4  A    between atoms: C_2  and  C_38
    5  A    between atoms: C_5  and  O_57
    6  A    between atoms: C_8  and  C_37
    7  A    between atoms: C_12  and  C_55
    8  A    between atoms: O_14  and  C_21
    9  A    between atoms: O_14  and  C_56
   10  A    between atoms: O_15  and  C_20
   11  A    between atoms: O_15  and  C_55
   12  A    between atoms: N_22  and  C_44
   13  A    between atoms: C_23  and  C_37
   14  A    between atoms: C_23  and  C_39
   15  A    between atoms: C_27  and  C_40
   16  A    between atoms: C_30  and  C_58
   17  A    between atoms: N_35  and  C_39
   18  A    between atoms: C_40  and  C_51
                            x       y       z     vdW  Elec       q    Type
                         _______ _______ _______ _____ _____    ______ ____

>  <TORSDO>
F 18

$$$$
=
 OpenBabel11062417493D

 58 63  0  0  1  0  0  0  0  0999 V2000
  185.7690  178.6250  142.7210 C   0  0  0  0  0  0  0  0  0  0  0  0
  187.5850  177.0730  142.3920 N   0  0  0  0  0  0  0  0  0  0  0  0
  187.5300  179.0460  140.9570 C   0  0  0  0  0  2  0  0  0  0  0  0
  186.4900  177.5780  143.1590 C   0  0  0  0  0  3  0  0  0  0  0  0
  188.0690  177.6940  141.3580 C   0  0  0  0  0  0  0  0  0  0  0  0
  186.0360  179.1830  141.3440 C   0  0  1  0  0  3  0  0  0  0  0  0
  184.0570  177.8520  140.9260 O   0  0  0  0  0  0  0  0  0  0  0  0
  186.0110  178.6840  137.9950 C   0  0  0  0  0  2  0  0  0  0  0  0
  180.7240  177.2130  139.6040 O   0  0  0  0  0  0  0  0  0  0  0  0
  185.7050  177.8040  139.1940 C   0  0  0  0  0  2  0  0  0  0  0  0
  186.4060  177.8690  136.7780 C   0  0  0  0  0  2  0  0  0  0  0  0
  182.0040  176.8910  140.0840 C   0  0  1  0  0  3  0  0  0  0  0  0
  185.0350  178.6290  140.2880 C   0  0  2  0  0  3  0  0  0  0  0  0
  184.8460  175.9390  136.9890 C   0  0  0  0  0  2  0  0  0  0  0  0
  182.7720  175.9390  139.1290 C   0  0  2  0  0  3  0  0  0  0  0  0
  180.3430  175.0690  138.6330 C   0  0  1  0  0  3  0  0  0  0  0  0
  185.6180  176.6950  134.7620 C   0  0  0  0  0  1  0  0  0  0  0  0
  185.2180  177.1570  136.1530 C   0  0  2  0  0  3  0  0  0  0  0  0
  183.4290  175.4590  136.7050 C   0  0  0  0  0  2  0  0  0  0  0  0
  179.9860  176.0310  139.7530 C   0  0  0  0  0  2  0  0  0  0  0  0
  182.3930  176.0580  137.6540 C   0  0  1  0  0  3  0  0  0  0  0  0
  181.8600  174.8920  138.4840 C   0  0  1  0  0  3  0  0  0  0  0  0
  182.8100  178.1750  140.3480 C   0  0  1  0  0  3  0  0  0  0  0  0
  179.6990  173.7260  138.9200 C   0  0  0  0  0  2  0  0  0  0  0  0
  180.2540  172.7240  138.1200 O   0  0  0  0  0  1  0  0  0  0  0  0
  182.0520  179.0900  141.1210 O   0  0  0  0  0  0  0  0  0  0  0  0
  181.5200  180.0860  140.2890 C   0  0  0  0  0  2  0  0  0  0  0  0
  180.1210  180.4320  140.7480 C   0  0  0  0  0  1  0  0  0  0  0  0
  184.5760  178.8820  144.8610 C   0  0  0  0  0  1  0  0  0  0  0  0
  184.7020  179.1230  143.4620 O   0  0  0  0  0  0  0  0  0  0  0  0
  189.2190  177.1550  140.6790 N   0  0  0  0  0  0  0  0  0  0  0  0
  190.4110  177.0120  141.1950 C   0  0  0  0  0  0  0  0  0  0  0  0
  190.4490  177.1270  145.5950 C   0  0  2  0  0  3  0  0  0  0  0  0
  189.5720  178.0500  143.4170 C   0  0  0  0  0  2  0  0  0  0  0  0
  190.6440  177.2490  142.6760 C   0  0  1  0  0  3  0  0  0  0  0  0
  191.1070  176.0060  143.4420 C   0  0  2  0  0  3  0  0  0  0  0  0
  190.1030  174.8590  143.4700 C   0  0  0  0  0  1  0  0  0  0  0  0
  191.5610  176.3800  144.8490 C   0  0  0  0  0  2  0  0  0  0  0  0
  190.0400  178.3940  144.8330 C   0  0  0  0  0  2  0  0  0  0  0  0
  190.9330  177.5060  146.9760 C   0  0  0  0  0  1  0  0  0  0  0  0
  191.4510  176.6640  140.3170 O   0  0  0  0  0  0  0  0  0  0  0  0
  193.4350  177.5870  139.2560 C   0  0  2  0  0  3  0  0  0  0  0  0
  194.0080  176.7520  140.2270 O   0  0  0  0  0  1  0  0  0  0  0  0
  191.9050  177.5020  139.2510 C   0  0  1  0  0  3  0  0  0  0  0  0
  192.7160  176.7730  138.1770 C   0  0  2  0  0  3  0  0  0  0  0  0
  192.7460  175.2410  138.3460 C   0  0  0  0  0  2  0  0  0  0  0  0
  194.0990  174.6880  137.9020 C   0  0  0  0  0  2  0  0  0  0  0  0
  194.2750  174.7600  136.3860 C   0  0  2  0  0  3  0  0  0  0  0  0
  195.3090  175.7960  136.0420 C   0  0  0  0  0  0  0  0  0  0  0  0
  194.9140  177.0480  135.5920 O   0  0  0  0  0  0  0  0  0  0  0  0
  196.5430  175.5290  136.1190 O   0  0  0  0  0  1  0  0  0  0  0  0
  193.0040  175.0600  135.7330 N   0  0  0  0  0  2  0  0  0  0  0  0
  192.5770  173.8720  135.0130 C   0  0  0  0  0  2  0  0  0  0  0  0
  191.0610  173.8000  134.9720 C   0  0  0  0  0  2  0  0  0  0  0  0
  190.4490  175.0760  135.5130 C   0  0  0  0  0  2  0  0  0  0  0  0
  189.4710  174.7470  136.6220 C   0  0  1  0  0  3  0  0  0  0  0  0
  189.3280  175.8500  137.4680 O   0  0  0  0  0  1  0  0  0  0  0  0
  188.1780  174.4050  136.0500 N   0  0  0  0  0  1  0  0  0  0  0  0
  1  4  2  0  0  0  0
  1 30  1  0  0  0  0
  2  4  1  0  0  0  0
  3  5  1  0  0  0  0
  5  2  2  0  0  0  0
  6  3  1  6  0  0  0
  6  1  1  0  0  0  0
  8 10  1  0  0  0  0
  9 20  1  0  0  0  0
 11  8  1  0  0  0  0
 12  9  1  6  0  0  0
 12 23  1  0  0  0  0
 13 10  1  6  0  0  0
 13  7  1  0  0  0  0
 13  6  1  0  0  0  0
 15 12  1  0  0  0  0
 16 24  1  0  0  0  0
 16 20  1  0  0  0  0
 17 18  1  0  0  0  0
 18 11  1  0  0  0  0
 18 14  1  0  0  0  0
 19 14  1  0  0  0  0
 19 21  1  0  0  0  0
 21 22  1  0  0  0  0
 21 15  1  0  0  0  0
 22 16  1  0  0  0  0
 22 15  1  0  0  0  0
 23  7  1  0  0  0  0
 23 26  1  0  0  0  0
 25 24  1  0  0  0  0
 27 28  1  0  0  0  0
 27 26  1  0  0  0  0
 30 29  1  0  0  0  0
 31 32  2  0  0  0  0
 31  5  1  0  0  0  0
 32 35  1  0  0  0  0
 33 40  1  0  0  0  0
 34 39  1  0  0  0  0
 35 34  1  0  0  0  0
 35 36  1  0  0  0  0
 36 37  1  0  0  0  0
 36 38  1  0  0  0  0
 38 33  1  0  0  0  0
 39 33  1  0  0  0  0
 41 32  1  0  0  0  0
 42 43  1  0  0  0  0
 44 42  1  0  0  0  0
 44 41  1  0  0  0  0
 45 46  1  0  0  0  0
 45 44  1  0  0  0  0
 45 42  1  0  0  0  0
 47 46  1  0  0  0  0
 48 47  1  0  0  0  0
 49 51  1  0  0  0  0
 49 48  1  0  0  0  0
 50 49  2  0  0  0  0
 52 48  1  0  0  0  0
 53 52  1  0  0  0  0
 54 53  1  0  0  0  0
 54 55  1  0  0  0  0
 55 56  1  0  0  0  0
 56 57  1  0  0  0  0
 58 56  1  0  0  0  0
M  END
>  <MODEL>
8

>  <REMARK>
 VINA RESULT:      -4.0      1.411      2.930
  Name = 
  18 active torsions:
  status: ('A' for Active; 'I' for Inactive)
    1  A    between atoms: CA_1  and  C_3
    2  A    between atoms: CA_1  and  C_27
    3  A    between atoms: CA_1  and  N_35
    4  A    between atoms: C_2  and  C_38
    5  A    between atoms: C_5  and  O_57
    6  A    between atoms: C_8  and  C_37
    7  A    between atoms: C_12  and  C_55
    8  A    between atoms: O_14  and  C_21
    9  A    between atoms: O_14  and  C_56
   10  A    between atoms: O_15  and  C_20
   11  A    between atoms: O_15  and  C_55
   12  A    between atoms: N_22  and  C_44
   13  A    between atoms: C_23  and  C_37
   14  A    between atoms: C_23  and  C_39
   15  A    between atoms: C_27  and  C_40
   16  A    between atoms: C_30  and  C_58
   17  A    between atoms: N_35  and  C_39
   18  A    between atoms: C_40  and  C_51
                            x       y       z     vdW  Elec       q    Type
                         _______ _______ _______ _____ _____    ______ ____

>  <TORSDO>
F 18

$$$$
=
 OpenBabel11062417493D

 58 63  0  0  1  0  0  0  0  0999 V2000
  182.0790  178.7980  139.4970 C   0  0  0  0  0  0  0  0  0  0  0  0
  183.9940  177.9580  140.6970 N   0  0  0  0  0  0  0  0  0  0  0  0
  184.4240  179.2360  138.6630 C   0  0  0  0  0  2  0  0  0  0  0  0
  182.6000  178.2610  140.6140 C   0  0  0  0  0  3  0  0  0  0  0  0
  184.8560  178.3540  139.8090 C   0  0  0  0  0  0  0  0  0  0  0  0
  182.9500  178.9550  138.2750 C   0  0  1  0  0  3  0  0  0  0  0  0
  181.5680  177.0980  137.5670 O   0  0  0  0  0  0  0  0  0  0  0  0
  184.8920  177.1880  136.1380 C   0  0  0  0  0  2  0  0  0  0  0  0
  179.6420  175.1350  135.1790 O   0  0  0  0  0  0  0  0  0  0  0  0
  183.9190  176.8060  137.2380 C   0  0  0  0  0  2  0  0  0  0  0  0
  185.9100  176.0950  135.8740 C   0  0  0  0  0  2  0  0  0  0  0  0
  180.3850  175.3790  136.3450 C   0  0  1  0  0  3  0  0  0  0  0  0
  182.7520  177.7880  137.2650 C   0  0  2  0  0  3  0  0  0  0  0  0
  184.4830  174.0680  136.1150 C   0  0  0  0  0  2  0  0  0  0  0  0
  181.5470  174.3670  136.5290 C   0  0  2  0  0  3  0  0  0  0  0  0
  179.8580  172.7650  135.3100 C   0  0  1  0  0  3  0  0  0  0  0  0
  186.4360  174.0580  134.5940 C   0  0  0  0  0  1  0  0  0  0  0  0
  185.3030  174.9090  135.1440 C   0  0  2  0  0  3  0  0  0  0  0  0
  183.4950  173.1600  135.3940 C   0  0  0  0  0  2  0  0  0  0  0  0
  178.9310  173.9590  135.4540 C   0  0  0  0  0  2  0  0  0  0  0  0
  182.1120  173.7890  135.2320 C   0  0  1  0  0  3  0  0  0  0  0  0
  181.1670  172.9500  136.0890 C   0  0  1  0  0  3  0  0  0  0  0  0
  180.9090  176.8260  136.3480 C   0  0  1  0  0  3  0  0  0  0  0  0
  179.1390  171.5270  135.8080 C   0  0  0  0  0  2  0  0  0  0  0  0
  180.0480  170.5210  136.1450 O   0  0  0  0  0  1  0  0  0  0  0  0
  179.8620  177.7360  136.0600 O   0  0  0  0  0  0  0  0  0  0  0  0
  180.3950  178.9160  135.5220 C   0  0  0  0  0  2  0  0  0  0  0  0
  179.2870  179.9260  135.3230 C   0  0  0  0  0  1  0  0  0  0  0  0
  180.0290  179.7780  140.4520 C   0  0  0  0  0  1  0  0  0  0  0  0
  180.7220  179.0970  139.4090 O   0  0  0  0  0  0  0  0  0  0  0  0
  186.2550  178.0680  140.0000 N   0  0  0  0  0  0  0  0  0  0  0  0
  186.8710  178.0060  141.1510 C   0  0  0  0  0  0  0  0  0  0  0  0
  185.1500  178.7790  145.1290 C   0  0  2  0  0  3  0  0  0  0  0  0
  186.7790  177.4960  143.6920 C   0  0  0  0  0  2  0  0  0  0  0  0
  186.0850  178.0580  142.4490 C   0  0  1  0  0  3  0  0  0  0  0  0
  185.3840  179.3950  142.7010 C   0  0  2  0  0  3  0  0  0  0  0  0
  186.3190  180.5890  142.8620 C   0  0  0  0  0  1  0  0  0  0  0  0
  184.4210  179.2830  143.8780 C   0  0  0  0  0  2  0  0  0  0  0  0
  185.7990  177.4140  144.8640 C   0  0  0  0  0  2  0  0  0  0  0  0
  184.1690  178.6540  146.2720 C   0  0  0  0  0  1  0  0  0  0  0  0
  188.2720  177.9220  141.1240 O   0  0  0  0  0  0  0  0  0  0  0  0
  190.2040  176.9800  139.9840 C   0  0  2  0  0  3  0  0  0  0  0  0
  190.3660  178.3460  139.7110 O   0  0  0  0  0  1  0  0  0  0  0  0
  188.9910  176.7100  140.8810 C   0  0  1  0  0  3  0  0  0  0  0  0
  190.4020  176.6830  141.4730 C   0  0  2  0  0  3  0  0  0  0  0  0
  190.7280  177.8920  142.3710 C   0  0  0  0  0  2  0  0  0  0  0  0
  191.9090  177.5690  143.2840 C   0  0  0  0  0  2  0  0  0  0  0  0
  191.4560  177.2270  144.7020 C   0  0  2  0  0  3  0  0  0  0  0  0
  191.9270  175.8470  145.0680 C   0  0  0  0  0  0  0  0  0  0  0  0
  192.0510  174.8730  144.0870 O   0  0  0  0  0  0  0  0  0  0  0  0
  192.1770  175.5460  146.2700 O   0  0  0  0  0  1  0  0  0  0  0  0
  190.0040  177.3270  144.8180 N   0  0  0  0  0  2  0  0  0  0  0  0
  189.6990  178.4590  145.6790 C   0  0  0  0  0  2  0  0  0  0  0  0
  189.9260  178.0860  147.1330 C   0  0  0  0  0  2  0  0  0  0  0  0
  189.0970  176.8780  147.5130 C   0  0  0  0  0  2  0  0  0  0  0  0
  188.1120  177.2520  148.6030 C   0  0  1  0  0  3  0  0  0  0  0  0
  188.5780  178.3740  149.2940 O   0  0  0  0  0  1  0  0  0  0  0  0
  186.8170  177.5510  148.0120 N   0  0  0  0  0  1  0  0  0  0  0  0
  1  4  2  0  0  0  0
  3  5  1  0  0  0  0
  4  2  1  0  0  0  0
  5 31  1  0  0  0  0
  5  2  2  0  0  0  0
  6  3  1  1  0  0  0
  6  1  1  0  0  0  0
  8 10  1  0  0  0  0
  9 20  1  0  0  0  0
 11  8  1  0  0  0  0
 12  9  1  6  0  0  0
 12 23  1  0  0  0  0
 12 15  1  0  0  0  0
 13 10  1  1  0  0  0
 13  7  1  0  0  0  0
 13  6  1  0  0  0  0
 16 20  1  0  0  0  0
 16 24  1  0  0  0  0
 16 22  1  0  0  0  0
 17 18  1  0  0  0  0
 18 11  1  0  0  0  0
 18 14  1  0  0  0  0
 19 14  1  0  0  0  0
 21 19  1  0  0  0  0
 21 22  1  0  0  0  0
 21 15  1  0  0  0  0
 22 15  1  0  0  0  0
 23  7  1  0  0  0  0
 24 25  1  0  0  0  0
 26 23  1  0  0  0  0
 27 26  1  0  0  0  0
 28 27  1  0  0  0  0
 30  1  1  0  0  0  0
 30 29  1  0  0  0  0
 31 32  2  0  0  0  0
 32 35  1  0  0  0  0
 33 40  1  0  0  0  0
 34 39  1  0  0  0  0
 35 36  1  0  0  0  0
 35 34  1  0  0  0  0
 36 37  1  0  0  0  0
 36 38  1  0  0  0  0
 38 33  1  0  0  0  0
 39 33  1  0  0  0  0
 41 32  1  0  0  0  0
 42 44  1  0  0  0  0
 42 45  1  0  0  0  0
 43 42  1  0  0  0  0
 44 41  1  0  0  0  0
 44 45  1  0  0  0  0
 45 46  1  0  0  0  0
 46 47  1  0  0  0  0
 47 48  1  0  0  0  0
 48 52  1  0  0  0  0
 48 49  1  0  0  0  0
 49 51  1  0  0  0  0
 50 49  2  0  0  0  0
 52 53  1  0  0  0  0
 53 54  1  0  0  0  0
 54 55  1  0  0  0  0
 55 56  1  0  0  0  0
 56 57  1  0  0  0  0
 58 56  1  0  0  0  0
M  END
>  <MODEL>
9

>  <REMARK>
 VINA RESULT:      -3.7      3.855      6.988
  Name = 
  18 active torsions:
  status: ('A' for Active; 'I' for Inactive)
    1  A    between atoms: CA_1  and  C_3
    2  A    between atoms: CA_1  and  C_27
    3  A    between atoms: CA_1  and  N_35
    4  A    between atoms: C_2  and  C_38
    5  A    between atoms: C_5  and  O_57
    6  A    between atoms: C_8  and  C_37
    7  A    between atoms: C_12  and  C_55
    8  A    between atoms: O_14  and  C_21
    9  A    between atoms: O_14  and  C_56
   10  A    between atoms: O_15  and  C_20
   11  A    between atoms: O_15  and  C_55
   12  A    between atoms: N_22  and  C_44
   13  A    between atoms: C_23  and  C_37
   14  A    between atoms: C_23  and  C_39
   15  A    between atoms: C_27  and  C_40
   16  A    between atoms: C_30  and  C_58
   17  A    between atoms: N_35  and  C_39
   18  A    between atoms: C_40  and  C_51
                            x       y       z     vdW  Elec       q    Type
                         _______ _______ _______ _____ _____    ______ ____

>  <TORSDO>
F 18

$$$$
