=
 OpenBabel11062417003D

 26 29  0  0  1  0  0  0  0  0999 V2000
  183.6300  179.0110  141.9010 C   0  0  1  0  0  3  0  0  0  0  0  0
  183.7830  178.0970  142.9670 O   0  0  0  0  0  0  0  0  0  0  0  0
  184.9420  178.7940  142.5840 C   0  0  1  0  0  0  0  0  0  0  0  0
  186.8790  178.4990  140.9760 C   0  0  0  0  0  2  0  0  0  0  0  0
  191.4090  177.6360  141.8540 C   0  0  0  0  0  1  0  0  0  0  0  0
  188.8210  177.0770  144.4640 N   0  0  0  0  0  2  0  0  0  0  0  0
  188.9550  178.2320  142.3490 C   0  0  2  0  0  3  0  0  0  0  0  0
  189.0890  178.6420  139.8800 C   0  0  0  0  0  1  0  0  0  0  0  0
  186.7760  177.1210  143.1490 C   0  0  0  0  0  2  0  0  0  0  0  0
  188.3040  177.9590  140.9840 C   0  0  2  0  0  3  0  0  0  0  0  0
  190.0450  176.8140  143.8130 C   0  0  0  0  0  0  0  0  0  0  0  0
  190.1470  177.4170  142.5420 N   0  0  0  0  0  0  0  0  0  0  0  0
  190.9620  176.1230  144.3310 O   0  0  0  0  0  0  0  0  0  0  0  0
  188.0270  177.9010  143.5600 C   0  0  1  0  0  3  0  0  0  0  0  0
  185.9920  177.8210  142.0290 C   0  0  1  0  0  3  0  0  0  0  0  0
  184.3690  180.1870  139.3080 N   0  0  0  0  0  1  0  0  0  0  0  0
  183.0450  176.9890  140.6020 N   0  0  0  0  0  0  0  0  0  0  0  0
  183.8550  178.8600  139.3690 C   0  0  0  0  0  0  0  0  0  0  0  0
  183.7340  178.1370  138.2230 N   0  0  0  0  0  0  0  0  0  0  0  0
  183.2740  176.8590  138.2400 C   0  0  0  0  0  3  0  0  0  0  0  0
  182.9250  176.2710  139.4550 C   0  0  0  0  0  3  0  0  0  0  0  0
  183.4840  178.2770  140.5940 C   0  0  0  0  0  0  0  0  0  0  0  0
  185.3270  179.8100  143.6540 C   0  0  0  0  0  2  0  0  0  0  0  0
  184.9290  179.3440  145.0120 C   0  0  0  0  0  0  0  0  0  0  0  0
  183.5890  179.3210  145.3720 O   0  0  0  0  0  0  0  0  0  0  0  0
  185.8050  178.9540  145.8280 O   0  0  0  0  0  1  0  0  0  0  0  0
  1 22  1  6  0  0  0
  1  3  1  0  0  0  0
  1  2  1  0  0  0  0
  3  2  1  0  0  0  0
  3 23  1  1  0  0  0
  4 10  1  0  0  0  0
  5 12  1  0  0  0  0
  7 12  1  1  0  0  0
  7 14  1  0  0  0  0
 10  8  1  6  0  0  0
 10  7  1  0  0  0  0
 11 13  2  0  0  0  0
 11  6  1  0  0  0  0
 12 11  1  0  0  0  0
 14  9  1  6  0  0  0
 14  6  1  0  0  0  0
 15  4  1  6  0  0  0
 15  3  1  0  0  0  0
 15  9  1  0  0  0  0
 16 18  1  0  0  0  0
 18 22  2  0  0  0  0
 19 20  2  0  0  0  0
 19 18  1  0  0  0  0
 20 21  1  0  0  0  0
 21 17  2  0  0  0  0
 22 17  1  0  0  0  0
 23 24  1  0  0  0  0
 24 25  2  0  0  0  0
 24 26  1  0  0  0  0
M  END
>  <MODEL>
1

>  <REMARK>
 VINA RESULT:      -6.3      0.000      0.000
  Name = 
  4 active torsions:
  status: ('A' for Active; 'I' for Inactive)
    1  A    between atoms: C_1  and  C_24
    2  A    between atoms: C_6  and  C_9
    3  A    between atoms: C_9  and  C_26
    4  A    between atoms: C_23  and  C_26
                            x       y       z     vdW  Elec       q    Type
                         _______ _______ _______ _____ _____    ______ ____

>  <TORSDO>
F 4

$$$$
=
 OpenBabel11062417003D

 26 29  0  0  1  0  0  0  0  0999 V2000
  189.1650  177.9720  140.3660 C   0  0  1  0  0  3  0  0  0  0  0  0
  190.0530  178.3850  139.3470 O   0  0  0  0  0  0  0  0  0  0  0  0
  189.3260  177.2100  139.0900 C   0  0  1  0  0  0  0  0  0  0  0  0
  189.8100  175.0270  137.8960 C   0  0  0  0  0  2  0  0  0  0  0  0
  193.3960  173.8610  135.1000 C   0  0  0  0  0  1  0  0  0  0  0  0
  193.6010  176.8330  137.3240 N   0  0  0  0  0  2  0  0  0  0  0  0
  191.8620  175.3760  136.5030 C   0  0  2  0  0  3  0  0  0  0  0  0
  190.4250  173.3460  136.1920 C   0  0  0  0  0  1  0  0  0  0  0  0
  191.7420  176.4430  138.8420 C   0  0  0  0  0  2  0  0  0  0  0  0
  190.9770  174.3320  137.2040 C   0  0  2  0  0  3  0  0  0  0  0  0
  194.1410  175.7410  136.6120 C   0  0  0  0  0  0  0  0  0  0  0  0
  193.1660  174.8260  136.1630 N   0  0  0  0  0  0  0  0  0  0  0  0
  195.3730  175.6140  136.3840 O   0  0  0  0  0  0  0  0  0  0  0  0
  192.1580  176.6320  137.3810 C   0  0  1  0  0  3  0  0  0  0  0  0
  190.2760  176.0080  138.9800 C   0  0  1  0  0  3  0  0  0  0  0  0
  187.8810  176.4590  142.5360 N   0  0  0  0  0  1  0  0  0  0  0  0
  191.2820  177.5290  141.5660 N   0  0  0  0  0  0  0  0  0  0  0  0
  189.2890  176.6700  142.5500 C   0  0  0  0  0  0  0  0  0  0  0  0
  190.0340  176.1450  143.5600 N   0  0  0  0  0  0  0  0  0  0  0  0
  191.3830  176.3000  143.5980 C   0  0  0  0  0  3  0  0  0  0  0  0
  192.0210  177.0040  142.5770 C   0  0  0  0  0  3  0  0  0  0  0  0
  189.9270  177.3990  141.5300 C   0  0  0  0  0  0  0  0  0  0  0  0
  188.2790  177.4590  138.0110 C   0  0  0  0  0  2  0  0  0  0  0  0
  188.7750  178.4230  136.9880 C   0  0  0  0  0  0  0  0  0  0  0  0
  188.6430  179.7880  137.2000 O   0  0  0  0  0  1  0  0  0  0  0  0
  189.3280  178.0010  135.9380 O   0  0  0  0  0  0  0  0  0  0  0  0
  1 22  1  1  0  0  0
  2  1  1  0  0  0  0
  3 23  1  6  0  0  0
  3  2  1  0  0  0  0
  3  1  1  0  0  0  0
  5 12  1  0  0  0  0
  6 14  1  0  0  0  0
  7 12  1  1  0  0  0
  7 10  1  0  0  0  0
  7 14  1  0  0  0  0
  9 15  1  0  0  0  0
 10  8  1  6  0  0  0
 10  4  1  0  0  0  0
 11  6  1  0  0  0  0
 12 11  1  0  0  0  0
 13 11  2  0  0  0  0
 14  9  1  1  0  0  0
 15  4  1  6  0  0  0
 15  3  1  0  0  0  0
 16 18  1  0  0  0  0
 17 21  1  0  0  0  0
 18 19  2  0  0  0  0
 19 20  1  0  0  0  0
 21 20  2  0  0  0  0
 22 17  2  0  0  0  0
 22 18  1  0  0  0  0
 24 25  1  0  0  0  0
 24 23  1  0  0  0  0
 26 24  2  0  0  0  0
M  END
>  <MODEL>
2

>  <REMARK>
 VINA RESULT:      -5.8      4.974      7.698
  Name = 
  4 active torsions:
  status: ('A' for Active; 'I' for Inactive)
    1  A    between atoms: C_1  and  C_24
    2  A    between atoms: C_6  and  C_9
    3  A    between atoms: C_9  and  C_26
    4  A    between atoms: C_23  and  C_26
                            x       y       z     vdW  Elec       q    Type
                         _______ _______ _______ _____ _____    ______ ____

>  <TORSDO>
F 4

$$$$
=
 OpenBabel11062417003D

 26 29  0  0  1  0  0  0  0  0999 V2000
  179.9050  178.3830  139.0540 C   0  0  1  0  0  3  0  0  0  0  0  0
  180.7680  179.1610  139.8580 O   0  0  0  0  0  0  0  0  0  0  0  0
  181.3000  178.7170  138.6350 C   0  0  1  0  0  0  0  0  0  0  0  0
  183.3440  177.6070  137.6270 C   0  0  0  0  0  2  0  0  0  0  0  0
  187.8810  178.0960  138.7290 C   0  0  0  0  0  1  0  0  0  0  0  0
  185.2190  179.2170  141.0690 N   0  0  0  0  0  2  0  0  0  0  0  0
  185.3570  178.5940  138.7420 C   0  0  2  0  0  3  0  0  0  0  0  0
  185.5870  177.1940  136.6760 C   0  0  0  0  0  1  0  0  0  0  0  0
  183.2560  178.1140  140.1500 C   0  0  0  0  0  2  0  0  0  0  0  0
  184.8130  177.3840  137.9660 C   0  0  2  0  0  3  0  0  0  0  0  0
  186.4980  178.7130  140.7490 C   0  0  0  0  0  0  0  0  0  0  0  0
  186.6110  178.2770  139.4120 N   0  0  0  0  0  0  0  0  0  0  0  0
  187.4470  178.6800  141.5740 O   0  0  0  0  0  0  0  0  0  0  0  0
  184.4000  179.0930  139.8700 C   0  0  1  0  0  3  0  0  0  0  0  0
  182.4710  177.7540  138.8800 C   0  0  1  0  0  3  0  0  0  0  0  0
  179.0670  177.8930  141.8300 N   0  0  0  0  0  1  0  0  0  0  0  0
  179.9390  175.9200  138.8300 N   0  0  0  0  0  0  0  0  0  0  0  0
  179.3330  176.7960  140.9610 C   0  0  0  0  0  0  0  0  0  0  0  0
  179.1730  175.5260  141.4190 N   0  0  0  0  0  0  0  0  0  0  0  0
  179.3900  174.4520  140.6170 C   0  0  0  0  0  3  0  0  0  0  0  0
  179.7780  174.6530  139.2920 C   0  0  0  0  0  3  0  0  0  0  0  0
  179.7460  177.0020  139.6320 C   0  0  0  0  0  0  0  0  0  0  0  0
  181.4600  179.8870  137.6710 C   0  0  0  0  0  2  0  0  0  0  0  0
  181.6430  181.1720  138.4030 C   0  0  0  0  0  0  0  0  0  0  0  0
  180.5410  181.9570  138.7110 O   0  0  0  0  0  0  0  0  0  0  0  0
  182.7940  181.5390  138.7570 O   0  0  0  0  0  1  0  0  0  0  0  0
  1 22  1  1  0  0  0
  1  2  1  0  0  0  0
  3 23  1  6  0  0  0
  3 15  1  0  0  0  0
  3  1  1  0  0  0  0
  3  2  1  0  0  0  0
  4 10  1  0  0  0  0
  5 12  1  0  0  0  0
  7 12  1  1  0  0  0
  7 14  1  0  0  0  0
 10  8  1  6  0  0  0
 10  7  1  0  0  0  0
 11  6  1  0  0  0  0
 11 13  2  0  0  0  0
 12 11  1  0  0  0  0
 14  9  1  1  0  0  0
 14  6  1  0  0  0  0
 15  4  1  6  0  0  0
 15  9  1  0  0  0  0
 17 21  2  0  0  0  0
 17 22  1  0  0  0  0
 18 19  1  0  0  0  0
 18 16  1  0  0  0  0
 20 19  2  0  0  0  0
 21 20  1  0  0  0  0
 22 18  2  0  0  0  0
 23 24  1  0  0  0  0
 24 25  2  0  0  0  0
 24 26  1  0  0  0  0
M  END
>  <MODEL>
3

>  <REMARK>
 VINA RESULT:      -5.7      3.407      5.466
  Name = 
  4 active torsions:
  status: ('A' for Active; 'I' for Inactive)
    1  A    between atoms: C_1  and  C_24
    2  A    between atoms: C_6  and  C_9
    3  A    between atoms: C_9  and  C_26
    4  A    between atoms: C_23  and  C_26
                            x       y       z     vdW  Elec       q    Type
                         _______ _______ _______ _____ _____    ______ ____

>  <TORSDO>
F 4

$$$$
=
 OpenBabel11062417003D

 26 29  0  0  1  0  0  0  0  0999 V2000
  189.7040  178.2070  138.5080 C   0  0  1  0  0  3  0  0  0  0  0  0
  190.6020  177.3850  137.7910 O   0  0  0  0  0  0  0  0  0  0  0  0
  189.2450  177.2600  137.4460 C   0  0  1  0  0  0  0  0  0  0  0  0
  187.2480  175.6980  137.4350 C   0  0  0  0  0  2  0  0  0  0  0  0
  186.5370  171.7460  135.0050 C   0  0  0  0  0  1  0  0  0  0  0  0
  189.9510  173.1690  135.3720 N   0  0  0  0  0  2  0  0  0  0  0  0
  187.6890  173.9340  135.7130 C   0  0  2  0  0  3  0  0  0  0  0  0
  185.4100  174.2120  136.7190 C   0  0  0  0  0  1  0  0  0  0  0  0
  189.6330  174.7560  137.1870 C   0  0  0  0  0  2  0  0  0  0  0  0
  186.9010  174.2840  136.9860 C   0  0  2  0  0  3  0  0  0  0  0  0
  189.0260  172.1160  135.2160 C   0  0  0  0  0  0  0  0  0  0  0  0
  187.6910  172.4990  135.4660 N   0  0  0  0  0  0  0  0  0  0  0  0
  189.3620  170.9540  134.8670 O   0  0  0  0  0  0  0  0  0  0  0  0
  189.1930  174.3460  135.7790 C   0  0  1  0  0  3  0  0  0  0  0  0
  188.7350  175.8510  137.7820 C   0  0  1  0  0  3  0  0  0  0  0  0
  187.2410  178.6110  140.0640 N   0  0  0  0  0  1  0  0  0  0  0  0
  190.5200  176.9600  140.4810 N   0  0  0  0  0  0  0  0  0  0  0  0
  188.3330  177.8930  140.6300 C   0  0  0  0  0  0  0  0  0  0  0  0
  188.2160  177.3780  141.8830 N   0  0  0  0  0  0  0  0  0  0  0  0
  189.2230  176.6640  142.4510 C   0  0  0  0  0  3  0  0  0  0  0  0
  190.3990  176.4480  141.7330 C   0  0  0  0  0  3  0  0  0  0  0  0
  189.5260  177.6950  139.9120 C   0  0  0  0  0  0  0  0  0  0  0  0
  188.9920  177.8560  136.0650 C   0  0  0  0  0  2  0  0  0  0  0  0
  187.6230  178.4370  135.9680 C   0  0  0  0  0  0  0  0  0  0  0  0
  186.7470  177.9870  134.9910 O   0  0  0  0  0  0  0  0  0  0  0  0
  187.2540  179.3240  136.7820 O   0  0  0  0  0  1  0  0  0  0  0  0
  1 22  1  1  0  0  0
  2  1  1  0  0  0  0
  3 23  1  6  0  0  0
  3 15  1  0  0  0  0
  3  2  1  0  0  0  0
  3  1  1  0  0  0  0
  4 15  1  0  0  0  0
  5 12  1  0  0  0  0
  6 14  1  0  0  0  0
  7 12  1  1  0  0  0
  7 14  1  0  0  0  0
  7 10  1  0  0  0  0
 10  8  1  6  0  0  0
 10  4  1  0  0  0  0
 11  6  1  0  0  0  0
 11 12  1  0  0  0  0
 13 11  2  0  0  0  0
 14  9  1  1  0  0  0
 15  9  1  6  0  0  0
 16 18  1  0  0  0  0
 17 21  1  0  0  0  0
 18 19  2  0  0  0  0
 19 20  1  0  0  0  0
 21 20  2  0  0  0  0
 22 17  2  0  0  0  0
 22 18  1  0  0  0  0
 24 23  1  0  0  0  0
 24 26  1  0  0  0  0
 25 24  2  0  0  0  0
M  END
>  <MODEL>
4

>  <REMARK>
 VINA RESULT:      -5.6      5.373      7.911
  Name = 
  4 active torsions:
  status: ('A' for Active; 'I' for Inactive)
    1  A    between atoms: C_1  and  C_24
    2  A    between atoms: C_6  and  C_9
    3  A    between atoms: C_9  and  C_26
    4  A    between atoms: C_23  and  C_26
                            x       y       z     vdW  Elec       q    Type
                         _______ _______ _______ _____ _____    ______ ____

>  <TORSDO>
F 4

$$$$
=
 OpenBabel11062417003D

 26 29  0  0  1  0  0  0  0  0999 V2000
  188.2750  178.2470  139.5840 C   0  0  1  0  0  3  0  0  0  0  0  0
  187.2010  177.4870  140.1000 O   0  0  0  0  0  0  0  0  0  0  0  0
  187.9550  178.2060  141.0430 C   0  0  1  0  0  0  0  0  0  0  0  0
  190.0550  177.7740  142.3970 C   0  0  0  0  0  2  0  0  0  0  0  0
  190.6340  177.5260  147.0490 C   0  0  0  0  0  1  0  0  0  0  0  0
  187.2500  177.2660  145.5330 N   0  0  0  0  0  2  0  0  0  0  0  0
  189.4400  177.9800  144.8150 C   0  0  2  0  0  3  0  0  0  0  0  0
  191.8410  177.8960  144.1000 C   0  0  0  0  0  1  0  0  0  0  0  0
  187.7850  176.8560  143.1960 C   0  0  0  0  0  2  0  0  0  0  0  0
  190.4430  177.3800  143.8170 C   0  0  2  0  0  3  0  0  0  0  0  0
  188.2250  176.9910  146.5140 C   0  0  0  0  0  0  0  0  0  0  0  0
  189.5340  177.3340  146.1170 N   0  0  0  0  0  0  0  0  0  0  0  0
  187.9440  176.5070  147.6420 O   0  0  0  0  0  0  0  0  0  0  0  0
  187.9510  177.8150  144.3780 C   0  0  1  0  0  3  0  0  0  0  0  0
  188.6700  177.2430  142.0020 C   0  0  1  0  0  3  0  0  0  0  0  0
  187.9260  175.9420  137.7920 N   0  0  0  0  0  1  0  0  0  0  0  0
  190.6710  177.6340  139.5960 N   0  0  0  0  0  0  0  0  0  0  0  0
  189.2170  176.2560  138.3060 C   0  0  0  0  0  0  0  0  0  0  0  0
  190.2860  175.4980  137.9420 N   0  0  0  0  0  0  0  0  0  0  0  0
  191.5370  175.7800  138.3870 C   0  0  0  0  0  3  0  0  0  0  0  0
  191.7350  176.8730  139.2310 C   0  0  0  0  0  3  0  0  0  0  0  0
  189.4090  177.3470  139.1740 C   0  0  0  0  0  0  0  0  0  0  0  0
  187.1410  179.3720  141.5950 C   0  0  0  0  0  2  0  0  0  0  0  0
  185.6790  179.1410  141.4240 C   0  0  0  0  0  0  0  0  0  0  0  0
  185.0290  179.6190  140.2960 O   0  0  0  0  0  0  0  0  0  0  0  0
  185.0350  178.4970  142.2940 O   0  0  0  0  0  1  0  0  0  0  0  0
  1 22  1  1  0  0  0
  1  2  1  0  0  0  0
  1  3  1  0  0  0  0
  2  3  1  0  0  0  0
  3 23  1  1  0  0  0
  3 15  1  0  0  0  0
  4 10  1  0  0  0  0
  6 11  1  0  0  0  0
  7 12  1  1  0  0  0
 10  8  1  1  0  0  0
 10  7  1  0  0  0  0
 11 13  2  0  0  0  0
 12 11  1  0  0  0  0
 12  5  1  0  0  0  0
 14  9  1  6  0  0  0
 14  7  1  0  0  0  0
 14  6  1  0  0  0  0
 15  4  1  1  0  0  0
 15  9  1  0  0  0  0
 16 18  1  0  0  0  0
 18 22  1  0  0  0  0
 19 18  2  0  0  0  0
 19 20  1  0  0  0  0
 20 21  2  0  0  0  0
 21 17  1  0  0  0  0
 22 17  2  0  0  0  0
 24 23  1  0  0  0  0
 24 26  1  0  0  0  0
 25 24  2  0  0  0  0
M  END
>  <MODEL>
5

>  <REMARK>
 VINA RESULT:      -5.6      3.021      4.919
  Name = 
  4 active torsions:
  status: ('A' for Active; 'I' for Inactive)
    1  A    between atoms: C_1  and  C_24
    2  A    between atoms: C_6  and  C_9
    3  A    between atoms: C_9  and  C_26
    4  A    between atoms: C_23  and  C_26
                            x       y       z     vdW  Elec       q    Type
                         _______ _______ _______ _____ _____    ______ ____

>  <TORSDO>
F 4

$$$$
=
 OpenBabel11062417003D

 26 29  0  0  1  0  0  0  0  0999 V2000
  189.2260  178.6280  139.3930 C   0  0  1  0  0  3  0  0  0  0  0  0
  190.3840  178.2290  138.6890 O   0  0  0  0  0  0  0  0  0  0  0  0
  189.1610  177.7670  138.1730 C   0  0  1  0  0  0  0  0  0  0  0  0
  187.9670  175.6770  137.3760 C   0  0  0  0  0  2  0  0  0  0  0  0
  189.5670  172.1040  134.7870 C   0  0  0  0  0  1  0  0  0  0  0  0
  191.9180  174.4560  136.4490 N   0  0  0  0  0  2  0  0  0  0  0  0
  189.5640  174.4140  135.9200 C   0  0  2  0  0  3  0  0  0  0  0  0
  187.1320  173.8110  135.9890 C   0  0  0  0  0  1  0  0  0  0  0  0
  190.4550  175.5780  138.0350 C   0  0  0  0  0  2  0  0  0  0  0  0
  188.3110  174.3080  136.8040 C   0  0  2  0  0  3  0  0  0  0  0  0
  191.5310  173.2010  135.9350 C   0  0  0  0  0  0  0  0  0  0  0  0
  190.1500  173.1050  135.6660 N   0  0  0  0  0  0  0  0  0  0  0  0
  192.3480  172.2680  135.7180 O   0  0  0  0  0  0  0  0  0  0  0  0
  190.7080  175.2620  136.5590 C   0  0  1  0  0  3  0  0  0  0  0  0
  189.0870  176.2360  138.2650 C   0  0  1  0  0  3  0  0  0  0  0  0
  186.7890  178.6280  141.0410 N   0  0  0  0  0  1  0  0  0  0  0  0
  190.1540  177.1030  141.1040 N   0  0  0  0  0  0  0  0  0  0  0  0
  187.9300  177.8820  141.4540 C   0  0  0  0  0  0  0  0  0  0  0  0
  187.8720  177.1520  142.6000 N   0  0  0  0  0  0  0  0  0  0  0  0
  188.9270  176.4050  143.0160 C   0  0  0  0  0  3  0  0  0  0  0  0
  190.0930  176.3770  142.2510 C   0  0  0  0  0  3  0  0  0  0  0  0
  189.1110  177.8730  140.6900 C   0  0  0  0  0  0  0  0  0  0  0  0
  188.8390  178.4710  136.8590 C   0  0  0  0  0  2  0  0  0  0  0  0
  187.3680  178.5950  136.6570 C   0  0  0  0  0  0  0  0  0  0  0  0
  186.8050  178.2520  135.4360 O   0  0  0  0  0  0  0  0  0  0  0  0
  186.6330  178.9950  137.5970 O   0  0  0  0  0  1  0  0  0  0  0  0
  1 22  1  1  0  0  0
  2  1  1  0  0  0  0
  3 23  1  6  0  0  0
  3 15  1  0  0  0  0
  3  2  1  0  0  0  0
  3  1  1  0  0  0  0
  5 12  1  0  0  0  0
  6 14  1  0  0  0  0
  7 12  1  1  0  0  0
  7 14  1  0  0  0  0
  7 10  1  0  0  0  0
  9 15  1  0  0  0  0
 10  8  1  6  0  0  0
 10  4  1  0  0  0  0
 11  6  1  0  0  0  0
 12 11  1  0  0  0  0
 13 11  2  0  0  0  0
 14  9  1  1  0  0  0
 15  4  1  6  0  0  0
 16 18  1  0  0  0  0
 17 21  1  0  0  0  0
 18 19  2  0  0  0  0
 19 20  1  0  0  0  0
 21 20  2  0  0  0  0
 22 17  2  0  0  0  0
 22 18  1  0  0  0  0
 24 23  1  0  0  0  0
 24 26  1  0  0  0  0
 25 24  2  0  0  0  0
M  END
>  <MODEL>
6

>  <REMARK>
 VINA RESULT:      -5.6      5.086      7.344
  Name = 
  4 active torsions:
  status: ('A' for Active; 'I' for Inactive)
    1  A    between atoms: C_1  and  C_24
    2  A    between atoms: C_6  and  C_9
    3  A    between atoms: C_9  and  C_26
    4  A    between atoms: C_23  and  C_26
                            x       y       z     vdW  Elec       q    Type
                         _______ _______ _______ _____ _____    ______ ____

>  <TORSDO>
F 4

$$$$
=
 OpenBabel11062417003D

 26 29  0  0  1  0  0  0  0  0999 V2000
  190.4560  177.1460  137.4170 C   0  0  1  0  0  3  0  0  0  0  0  0
  189.1870  176.6640  137.8110 O   0  0  0  0  0  0  0  0  0  0  0  0
  189.8080  177.5610  138.6980 C   0  0  1  0  0  0  0  0  0  0  0  0
  191.1990  177.6250  140.8160 C   0  0  0  0  0  2  0  0  0  0  0  0
  189.8570  178.1950  145.2780 C   0  0  0  0  0  1  0  0  0  0  0  0
  187.3970  177.2620  142.6520 N   0  0  0  0  0  2  0  0  0  0  0  0
  189.6470  178.1300  142.7150 C   0  0  2  0  0  3  0  0  0  0  0  0
  192.1320  178.2460  143.0180 C   0  0  0  0  0  1  0  0  0  0  0  0
  188.8540  176.5590  140.8370 C   0  0  0  0  0  2  0  0  0  0  0  0
  191.0000  177.5150  142.3230 C   0  0  2  0  0  3  0  0  0  0  0  0
  187.9040  177.2750  143.9680 C   0  0  0  0  0  0  0  0  0  0  0  0
  189.2410  177.7180  144.0510 N   0  0  0  0  0  0  0  0  0  0  0  0
  187.2180  176.9430  144.9700 O   0  0  0  0  0  0  0  0  0  0  0  0
  188.4740  177.7060  141.7760 C   0  0  1  0  0  3  0  0  0  0  0  0
  190.1250  176.8630  140.0290 C   0  0  1  0  0  3  0  0  0  0  0  0
  189.8760  174.2840  137.0640 N   0  0  0  0  0  1  0  0  0  0  0  0
  192.7870  176.4290  137.8270 N   0  0  0  0  0  0  0  0  0  0  0  0
  191.1970  174.7100  137.3860 C   0  0  0  0  0  0  0  0  0  0  0  0
  192.1880  173.7860  137.5030 N   0  0  0  0  0  0  0  0  0  0  0  0
  193.4660  174.1510  137.7810 C   0  0  0  0  0  3  0  0  0  0  0  0
  193.7730  175.5020  137.9430 C   0  0  0  0  0  3  0  0  0  0  0  0
  191.4990  176.0710  137.5700 C   0  0  0  0  0  0  0  0  0  0  0  0
  189.0820  178.9020  138.6910 C   0  0  0  0  0  2  0  0  0  0  0  0
  187.7250  178.7800  138.0890 C   0  0  0  0  0  0  0  0  0  0  0  0
  187.5200  179.1330  136.7630 O   0  0  0  0  0  0  0  0  0  0  0  0
  186.7650  178.3410  138.7770 O   0  0  0  0  0  1  0  0  0  0  0  0
  1 22  1  1  0  0  0
  1  2  1  0  0  0  0
  1  3  1  0  0  0  0
  2  3  1  0  0  0  0
  3 23  1  1  0  0  0
  3 15  1  0  0  0  0
  4 10  1  0  0  0  0
  6 11  1  0  0  0  0
  7 12  1  1  0  0  0
 10  7  1  0  0  0  0
 10  8  1  1  0  0  0
 11 12  1  0  0  0  0
 11 13  2  0  0  0  0
 12  5  1  0  0  0  0
 14  9  1  6  0  0  0
 14  6  1  0  0  0  0
 14  7  1  0  0  0  0
 15  4  1  1  0  0  0
 15  9  1  0  0  0  0
 16 18  1  0  0  0  0
 17 21  1  0  0  0  0
 18 19  2  0  0  0  0
 18 22  1  0  0  0  0
 19 20  1  0  0  0  0
 20 21  2  0  0  0  0
 22 17  2  0  0  0  0
 24 23  1  0  0  0  0
 24 26  1  0  0  0  0
 25 24  2  0  0  0  0
M  END
>  <MODEL>
7

>  <REMARK>
 VINA RESULT:      -5.6      3.874      6.739
  Name = 
  4 active torsions:
  status: ('A' for Active; 'I' for Inactive)
    1  A    between atoms: C_1  and  C_24
    2  A    between atoms: C_6  and  C_9
    3  A    between atoms: C_9  and  C_26
    4  A    between atoms: C_23  and  C_26
                            x       y       z     vdW  Elec       q    Type
                         _______ _______ _______ _____ _____    ______ ____

>  <TORSDO>
F 4

$$$$
=
 OpenBabel11062417003D

 26 29  0  0  1  0  0  0  0  0999 V2000
  190.4850  177.8520  141.9100 C   0  0  1  0  0  3  0  0  0  0  0  0
  189.8010  176.8960  141.1260 O   0  0  0  0  0  0  0  0  0  0  0  0
  188.9950  177.8370  141.7900 C   0  0  1  0  0  0  0  0  0  0  0  0
  188.5730  177.4470  144.2590 C   0  0  0  0  0  2  0  0  0  0  0  0
  184.9300  178.7340  146.9260 C   0  0  0  0  0  1  0  0  0  0  0  0
  184.6710  178.7290  143.2170 N   0  0  0  0  0  2  0  0  0  0  0  0
  186.4450  178.6280  144.8490 C   0  0  2  0  0  3  0  0  0  0  0  0
  187.9710  177.7550  146.6360 C   0  0  0  0  0  1  0  0  0  0  0  0
  186.6140  177.4110  142.5870 C   0  0  0  0  0  2  0  0  0  0  0  0
  187.4140  177.5030  145.2470 C   0  0  2  0  0  3  0  0  0  0  0  0
  184.1570  178.6060  144.5250 C   0  0  0  0  0  0  0  0  0  0  0  0
  185.1570  178.4800  145.5120 N   0  0  0  0  0  0  0  0  0  0  0  0
  182.9250  178.6280  144.7820 O   0  0  0  0  0  0  0  0  0  0  0  0
  186.1230  178.6610  143.3220 C   0  0  1  0  0  3  0  0  0  0  0  0
  188.1060  177.1390  142.8300 C   0  0  1  0  0  3  0  0  0  0  0  0
  191.1710  179.3990  144.3160 N   0  0  0  0  0  1  0  0  0  0  0  0
  191.1250  175.8650  143.2370 N   0  0  0  0  0  0  0  0  0  0  0  0
  191.3210  177.9830  144.3120 C   0  0  0  0  0  0  0  0  0  0  0  0
  191.7600  177.3540  145.4350 N   0  0  0  0  0  0  0  0  0  0  0  0
  191.8920  176.0030  145.4830 C   0  0  0  0  0  3  0  0  0  0  0  0
  191.5650  175.2410  144.3610 C   0  0  0  0  0  3  0  0  0  0  0  0
  191.0110  177.2200  143.1710 C   0  0  0  0  0  0  0  0  0  0  0  0
  188.3830  178.8110  140.7900 C   0  0  0  0  0  2  0  0  0  0  0  0
  188.4150  178.2590  139.4070 C   0  0  0  0  0  0  0  0  0  0  0  0
  189.4310  178.6260  138.5360 O   0  0  0  0  0  0  0  0  0  0  0  0
  187.5290  177.4460  139.0310 O   0  0  0  0  0  1  0  0  0  0  0  0
  1 22  1  1  0  0  0
  2  3  1  0  0  0  0
  2  1  1  0  0  0  0
  3 23  1  6  0  0  0
  3  1  1  0  0  0  0
  3 15  1  0  0  0  0
  4 10  1  0  0  0  0
  6 14  1  0  0  0  0
  6 11  1  0  0  0  0
  7 10  1  0  0  0  0
  7 12  1  1  0  0  0
 10  8  1  1  0  0  0
 11 13  2  0  0  0  0
 11 12  1  0  0  0  0
 12  5  1  0  0  0  0
 14  9  1  6  0  0  0
 14  7  1  0  0  0  0
 15  9  1  1  0  0  0
 15  4  1  0  0  0  0
 17 21  1  0  0  0  0
 18 16  1  0  0  0  0
 18 19  2  0  0  0  0
 19 20  1  0  0  0  0
 21 20  2  0  0  0  0
 22 17  2  0  0  0  0
 22 18  1  0  0  0  0
 24 23  1  0  0  0  0
 25 24  2  0  0  0  0
 26 24  1  0  0  0  0
M  END
>  <MODEL>
8

>  <REMARK>
 VINA RESULT:      -5.5      2.819      7.010
  Name = 
  4 active torsions:
  status: ('A' for Active; 'I' for Inactive)
    1  A    between atoms: C_1  and  C_24
    2  A    between atoms: C_6  and  C_9
    3  A    between atoms: C_9  and  C_26
    4  A    between atoms: C_23  and  C_26
                            x       y       z     vdW  Elec       q    Type
                         _______ _______ _______ _____ _____    ______ ____

>  <TORSDO>
F 4

$$$$
=
 OpenBabel11062417003D

 26 29  0  0  1  0  0  0  0  0999 V2000
  186.5680  177.2000  146.0700 C   0  0  1  0  0  3  0  0  0  0  0  0
  187.2300  176.2500  145.2610 O   0  0  0  0  0  0  0  0  0  0  0  0
  188.0300  177.2870  145.7710 C   0  0  1  0  0  0  0  0  0  0  0  0
  190.0180  178.5940  144.8960 C   0  0  0  0  0  2  0  0  0  0  0  0
  192.6850  177.8310  141.1090 C   0  0  0  0  0  1  0  0  0  0  0  0
  189.3640  176.1980  141.4620 N   0  0  0  0  0  2  0  0  0  0  0  0
  190.9080  177.3580  142.9080 C   0  0  2  0  0  3  0  0  0  0  0  0
  192.2230  179.2100  143.9680 C   0  0  0  0  0  1  0  0  0  0  0  0
  188.3610  177.5000  143.2550 C   0  0  0  0  0  2  0  0  0  0  0  0
  190.8320  178.7220  143.6140 C   0  0  2  0  0  3  0  0  0  0  0  0
  190.4320  176.7570  140.7280 C   0  0  0  0  0  0  0  0  0  0  0  0
  191.3310  177.4990  141.5220 N   0  0  0  0  0  0  0  0  0  0  0  0
  190.5740  176.5870  139.4890 O   0  0  0  0  0  0  0  0  0  0  0  0
  189.5390  176.6100  142.8490 C   0  0  1  0  0  3  0  0  0  0  0  0
  188.5710  178.1570  144.6270 C   0  0  1  0  0  3  0  0  0  0  0  0
  185.6800  179.8590  146.9600 N   0  0  0  0  0  1  0  0  0  0  0  0
  185.3650  177.7110  143.9700 N   0  0  0  0  0  0  0  0  0  0  0  0
  185.3060  179.3760  145.6730 C   0  0  0  0  0  0  0  0  0  0  0  0
  184.5590  180.1630  144.8540 N   0  0  0  0  0  0  0  0  0  0  0  0
  184.2030  179.7530  143.6100 C   0  0  0  0  0  3  0  0  0  0  0  0
  184.6180  178.5010  143.1560 C   0  0  0  0  0  3  0  0  0  0  0  0
  185.7080  178.1040  145.2280 C   0  0  0  0  0  0  0  0  0  0  0  0
  188.9760  176.7510  146.8390 C   0  0  0  0  0  2  0  0  0  0  0  0
  188.9070  177.5670  148.0840 C   0  0  0  0  0  0  0  0  0  0  0  0
  187.7760  177.5140  148.8860 O   0  0  0  0  0  1  0  0  0  0  0  0
  189.8810  178.2920  148.4180 O   0  0  0  0  0  0  0  0  0  0  0  0
  1 22  1  6  0  0  0
  2  3  1  0  0  0  0
  2  1  1  0  0  0  0
  3  1  1  0  0  0  0
  3 23  1  1  0  0  0
  5 12  1  0  0  0  0
  6 14  1  0  0  0  0
  7 12  1  6  0  0  0
  7 10  1  0  0  0  0
 10  8  1  1  0  0  0
 10  4  1  0  0  0  0
 11  6  1  0  0  0  0
 11 12  1  0  0  0  0
 13 11  2  0  0  0  0
 14  7  1  0  0  0  0
 14  9  1  6  0  0  0
 15  9  1  6  0  0  0
 15  4  1  0  0  0  0
 15  3  1  0  0  0  0
 17 22  1  0  0  0  0
 18 16  1  0  0  0  0
 19 18  1  0  0  0  0
 20 19  2  0  0  0  0
 21 20  1  0  0  0  0
 21 17  2  0  0  0  0
 22 18  2  0  0  0  0
 23 24  1  0  0  0  0
 24 26  2  0  0  0  0
 24 25  1  0  0  0  0
M  END
>  <MODEL>
9

>  <REMARK>
 VINA RESULT:      -5.5      3.231      4.740
  Name = 
  4 active torsions:
  status: ('A' for Active; 'I' for Inactive)
    1  A    between atoms: C_1  and  C_24
    2  A    between atoms: C_6  and  C_9
    3  A    between atoms: C_9  and  C_26
    4  A    between atoms: C_23  and  C_26
                            x       y       z     vdW  Elec       q    Type
                         _______ _______ _______ _____ _____    ______ ____

>  <TORSDO>
F 4

$$$$
