=
 OpenBabel11062416233D

 67 74  0  0  1  0  0  0  0  0999 V2000
  185.5940  178.8000  142.3010 O   0  0  0  0  0  0  0  0  0  0  0  0
  182.7590  178.4920  136.9780 C   0  0  0  0  0  0  0  0  0  0  0  0
  185.3030  177.9710  141.2110 C   0  0  2  0  0  3  0  0  0  0  0  0
  184.5090  175.2020  137.8380 N   0  0  0  0  0  0  0  0  0  0  0  0
  180.9810  179.2490  139.7560 C   0  0  0  0  0  2  0  0  0  0  0  0
  187.1810  179.0180  139.9250 C   0  0  0  0  0  2  0  0  0  0  0  0
  183.8460  178.6950  137.5740 O   0  0  0  0  0  0  0  0  0  0  0  0
  184.7270  178.3960  143.3360 C   0  0  2  0  0  3  0  0  0  0  0  0
  181.9470  178.1560  140.1980 C   0  0  0  0  0  2  0  0  0  0  0  0
  186.8610  174.5560  137.7420 C   0  0  0  0  0  2  0  0  0  0  0  0
  185.7170  178.6220  139.8950 C   0  0  0  0  0  2  0  0  0  0  0  0
  183.8280  177.6400  141.2700 C   0  0  2  0  0  3  0  0  0  0  0  0
  188.0170  178.1530  138.9930 C   0  0  0  0  0  2  0  0  0  0  0  0
  186.0770  176.3110  136.3060 C   0  0  0  0  0  2  0  0  0  0  0  0
  185.6480  175.0260  136.9480 C   0  0  2  0  0  3  0  0  0  0  0  0
  182.6800  177.4410  136.0050 N   0  0  0  0  0  0  0  0  0  0  0  0
  183.3560  175.5910  137.4020 C   0  0  0  0  0  0  0  0  0  0  0  0
  183.0630  178.7280  140.8170 O   0  0  0  0  0  0  0  0  0  0  0  0
  187.3810  176.4900  136.4430 C   0  0  1  0  0  3  0  0  0  0  0  0
  182.0240  174.7980  135.1650 S   0  0  0  0  0  1  0  0  0  0  0  0
  181.5530  180.0800  138.6020 C   0  0  0  0  0  2  0  0  0  0  0  0
  183.6450  177.5000  142.7540 C   0  0  0  0  0  2  0  0  0  0  0  0
  188.1670  176.7080  139.4640 C   0  0  1  0  0  3  0  0  0  0  0  0
  188.9020  175.9090  138.3920 C   0  0  0  0  0  2  0  0  0  0  0  0
  181.5730  179.2930  137.3300 C   0  0  0  0  0  0  0  0  0  0  0  0
  181.8980  175.8870  137.6210 O   0  0  0  0  0  0  0  0  0  0  0  0
  180.4640  179.2200  136.6060 C   0  0  0  0  0  2  0  0  0  0  0  0
  182.7200  177.8020  134.5970 C   0  0  0  0  0  1  0  0  0  0  0  0
  182.5130  176.0370  136.4090 C   0  0  2  0  0  0  0  0  0  0  0  0
  188.0240  175.4020  137.2420 C   0  0  1  0  0  3  0  0  0  0  0  0
  190.3850  178.1770  134.5950 C   0  0  0  0  0  1  0  0  0  0  0  0
  189.0880  178.1570  136.6240 O   0  0  0  0  0  0  0  0  0  0  0  0
  189.5740  177.3440  135.5880 C   0  0  1  0  0  0  0  0  0  0  0  0
  188.1190  177.6070  135.7580 C   0  0  1  0  0  3  0  0  0  0  0  0
  190.4780  175.2160  135.0130 C   0  0  0  0  0  2  0  0  0  0  0  0
  192.2790  175.3330  136.5320 C   0  0  2  0  0  3  0  0  0  0  0  0
  190.1480  176.1020  136.1260 N   0  0  1  0  0  0  0  0  0  0  0  0
  191.9110  174.7860  135.1780 C   0  0  0  0  0  2  0  0  0  0  0  0
  191.3490  176.4210  136.7960 N   0  0  0  0  0  2  0  0  0  0  0  0
  194.2070  176.3980  135.5780 O   0  0  0  0  0  0  0  0  0  0  0  0
  193.6960  175.8240  136.5790 C   0  0  0  0  0  0  0  0  0  0  0  0
  194.5070  175.5560  137.7200 N   0  0  0  0  0  1  0  0  0  0  0  0
  189.0070  176.6420  140.7330 C   0  0  0  0  0  2  0  0  0  0  0  0
  190.3200  177.0480  140.4660 O   0  0  0  0  0  0  0  0  0  0  0  0
  190.6180  175.9730  142.5670 C   0  0  0  0  0  1  0  0  0  0  0  0
  190.9090  177.2010  141.7190 C   0  0  1  0  0  3  0  0  0  0  0  0
  192.2910  177.3450  141.5690 O   0  0  0  0  0  0  0  0  0  0  0  0
  192.4890  177.4010  140.1870 C   0  0  0  0  0  1  0  0  0  0  0  0
  184.1240  179.5180  143.9170 O   0  0  0  0  0  0  0  0  0  0  0  0
  183.2790  179.0330  144.9280 C   0  0  1  0  0  3  0  0  0  0  0  0
  183.9620  179.0580  146.2990 C   0  0  0  0  0  2  0  0  0  0  0  0
  184.9730  177.9310  146.4830 C   0  0  0  0  0  2  0  0  0  0  0  0
  186.3620  178.4900  146.7550 C   0  0  0  0  0  2  0  0  0  0  0  0
  190.7420  176.6410  146.7980 C   0  0  0  0  0  2  0  0  0  0  0  0
  190.8630  177.8350  145.8680 C   0  0  0  0  0  2  0  0  0  0  0  0
  189.2970  178.2850  147.9710 C   0  0  0  0  0  2  0  0  0  0  0  0
  188.3610  176.9290  146.1780 C   0  0  2  0  0  3  0  0  0  0  0  0
  188.0160  177.8540  148.3770 O   0  0  0  0  0  0  0  0  0  0  0  0
  187.3300  177.3980  147.2210 C   0  0  1  0  0  3  0  0  0  0  0  0
  189.5890  177.6170  146.6630 C   0  0  0  0  0  0  0  0  0  0  0  0
  187.6760  176.1450  143.8770 N   0  0  0  0  0  1  0  0  0  0  0  0
  188.0600  178.3960  144.2880 O   0  0  0  0  0  0  0  0  0  0  0  0
  188.0350  177.2170  144.7370 C   0  0  0  0  0  0  0  0  0  0  0  0
  181.9000  179.7000  144.9150 C   0  0  0  0  0  2  0  0  0  0  0  0
  180.2630  177.9860  143.8880 C   0  0  0  0  0  1  0  0  0  0  0  0
  181.0310  179.2580  143.7780 C   0  0  0  0  0  0  0  0  0  0  0  0
  180.9070  179.9620  142.7900 O   0  0  0  0  0  0  0  0  0  0  0  0
  1  8  1  0  0  0  0
  2 25  1  0  0  0  0
  2  7  2  0  0  0  0
  3 11  1  6  0  0  0
  3 12  1  0  0  0  0
  3  1  1  0  0  0  0
  5  9  1  0  0  0  0
  8 49  1  6  0  0  0
  9 18  1  0  0  0  0
 11  6  1  0  0  0  0
 12 22  1  1  0  0  0
 13 23  1  0  0  0  0
 13  6  1  0  0  0  0
 15 14  1  1  0  0  0
 15 10  1  0  0  0  0
 15  4  1  0  0  0  0
 16 29  1  0  0  0  0
 16  2  1  0  0  0  0
 17 26  1  0  0  0  0
 17  4  2  0  0  0  0
 18 12  1  0  0  0  0
 19 14  1  6  0  0  0
 19 30  1  0  0  0  0
 21  5  1  0  0  0  0
 22  8  1  0  0  0  0
 23 43  1  1  0  0  0
 24 23  1  0  0  0  0
 25 21  1  0  0  0  0
 27 25  2  0  0  0  0
 28 16  1  0  0  0  0
 29 20  1  6  0  0  0
 29 17  1  0  0  0  0
 29 26  1  0  0  0  0
 30 10  1  1  0  0  0
 30 24  1  0  0  0  0
 33 31  1  6  0  0  0
 33 34  1  0  0  0  0
 33 37  1  0  0  0  0
 33 32  1  0  0  0  0
 34 19  1  0  0  0  0
 34 32  1  1  0  0  0
 35 38  1  0  0  0  0
 36 41  1  6  0  0  0
 36 39  1  0  0  0  0
 37 35  1  6  0  0  0
 37 39  1  0  0  0  0
 38 36  1  0  0  0  0
 40 41  2  0  0  0  0
 41 42  1  0  0  0  0
 44 43  1  0  0  0  0
 44 46  1  0  0  0  0
 46 45  1  1  0  0  0
 47 46  1  0  0  0  0
 48 47  1  0  0  0  0
 49 50  1  0  0  0  0
 50 64  1  1  0  0  0
 50 51  1  0  0  0  0
 51 52  1  0  0  0  0
 52 53  1  0  0  0  0
 55 60  1  0  0  0  0
 55 54  1  0  0  0  0
 56 58  1  0  0  0  0
 57 63  1  6  0  0  0
 57 60  1  0  0  0  0
 57 59  1  0  0  0  0
 59 53  1  6  0  0  0
 59 58  1  0  0  0  0
 60 54  1  0  0  0  0
 60 56  1  0  0  0  0
 61 63  1  0  0  0  0
 62 63  2  0  0  0  0
 66 65  1  0  0  0  0
 66 64  1  0  0  0  0
 67 66  2  0  0  0  0
M  END
>  <MODEL>
1

>  <REMARK>
 VINA RESULT:      -3.2      0.000      0.000
  Name = 
  16 active torsions:
  status: ('A' for Active; 'I' for Inactive)
    1  A    between atoms: O_2  and  C_15
    2  A    between atoms: O_2  and  C_23
    3  A    between atoms: C_21  and  C_24
    4  A    between atoms: C_23  and  C_40
    5  A    between atoms: C_23  and  C_65
    6  A    between atoms: C_30  and  C_51
    7  A    between atoms: O_31  and  C_42
    8  A    between atoms: N_37  and  C_49
    9  A    between atoms: C_39  and  C_52
   10  A    between atoms: C_40  and  C_43
   11  A    between atoms: C_41  and  C_54
   12  A    between atoms: C_42  and  O_62
   13  A    between atoms: C_48  and  C_52
   14  A    between atoms: C_48  and  C_65
   15  A    between atoms: C_50  and  C_53
   16  A    between atoms: C_50  and  O_62
                            x       y       z     vdW  Elec       q    Type
                         _______ _______ _______ _____ _____    ______ ____

>  <TORSDO>
F 16

$$$$
