=
 OpenBabel11062412443D

 32 34  0  0  1  0  0  0  0  0999 V2000
  184.4920  178.5170  141.9820 C   0  0  2  0  0  3  0  0  0  0  0  0
  183.0190  178.6350  142.3330 C   0  0  0  0  0  1  0  0  0  0  0  0
  184.7070  178.3880  144.4080 C   0  0  0  0  0  2  0  0  0  0  0  0
  185.3190  178.3750  143.2230 C   0  0  0  0  0  0  0  0  0  0  0  0
  187.1060  177.5100  141.9030 O   0  0  0  0  0  1  0  0  0  0  0  0
  186.7980  178.1250  143.1200 C   0  0  2  0  0  3  0  0  0  0  0  0
  188.1230  176.2450  143.8840 O   0  0  0  0  0  1  0  0  0  0  0  0
  187.3140  177.3040  144.3040 C   0  0  1  0  0  3  0  0  0  0  0  0
  188.0240  178.1680  145.3470 C   0  0  0  0  0  2  0  0  0  0  0  0
  189.2520  177.5510  145.8410 N   0  0  0  0  0  0  0  0  0  0  0  0
  191.3690  175.8820  144.4950 O   0  0  0  0  0  1  0  0  0  0  0  0
  190.5160  177.9920  145.2520 C   0  0  0  0  0  2  0  0  0  0  0  0
  191.6820  176.3990  146.7820 C   0  0  0  0  0  0  0  0  0  0  0  0
  188.2250  176.7320  147.7860 O   0  0  0  0  0  0  0  0  0  0  0  0
  190.5020  176.3170  147.5830 N   0  0  0  0  0  2  0  0  0  0  0  0
  192.7770  175.9770  147.2380 O   0  0  0  0  0  0  0  0  0  0  0  0
  191.6100  176.9290  145.3830 C   0  0  1  0  0  3  0  0  0  0  0  0
  189.2740  176.8570  147.0990 C   0  0  0  0  0  0  0  0  0  0  0  0
  184.9000  179.6440  141.2570 O   0  0  0  0  0  0  0  0  0  0  0  0
  184.4450  177.9550  139.5280 C   0  0  0  0  0  2  0  0  0  0  0  0
  185.8090  178.5030  139.3660 N   0  0  0  0  0  0  0  0  0  0  0  0
  184.7110  179.3360  139.9010 C   0  0  2  0  0  0  0  0  0  0  0  0
  184.2880  180.3640  139.0450 O   0  0  0  0  0  1  0  0  0  0  0  0
  185.9720  178.7540  137.9950 N   0  0  0  0  0  2  0  0  0  0  0  0
  186.9650  177.8120  137.5110 C   0  0  0  0  0  2  0  0  0  0  0  0
  189.0360  177.2100  138.8180 N   0  0  0  0  0  2  0  0  0  0  0  0
  188.7570  179.3320  137.8780 O   0  0  0  0  0  0  0  0  0  0  0  0
  188.3010  178.1720  138.0570 C   0  0  0  0  0  0  0  0  0  0  0  0
  190.3460  177.4930  139.3850 C   0  0  0  0  0  2  0  0  0  0  0  0
  190.4890  176.8120  140.7330 C   0  0  2  0  0  3  0  0  0  0  0  0
  190.3080  177.7680  141.7480 O   0  0  0  0  0  0  0  0  0  0  0  0
  191.6330  177.3900  141.4670 C   0  0  0  0  0  2  0  0  0  0  0  0
  1  2  1  1  0  0  0
  1  4  1  0  0  0  0
  4  3  2  0  0  0  0
  6  5  1  6  0  0  0
  6  4  1  0  0  0  0
  6  8  1  0  0  0  0
  8  7  1  6  0  0  0
  8  9  1  0  0  0  0
  9 10  1  0  0  0  0
 10 18  1  0  0  0  0
 12 17  1  0  0  0  0
 12 10  1  0  0  0  0
 13 16  2  0  0  0  0
 13 15  1  0  0  0  0
 17 11  1  6  0  0  0
 17 13  1  0  0  0  0
 18 15  1  0  0  0  0
 18 14  2  0  0  0  0
 19  1  1  0  0  0  0
 20 22  1  0  0  0  0
 21 20  1  0  0  0  0
 21 22  1  0  0  0  0
 22 23  1  6  0  0  0
 22 19  1  0  0  0  0
 24 21  1  0  0  0  0
 25 24  1  0  0  0  0
 25 28  1  0  0  0  0
 26 29  1  0  0  0  0
 27 28  2  0  0  0  0
 28 26  1  0  0  0  0
 30 29  1  6  0  0  0
 30 32  1  0  0  0  0
 30 31  1  0  0  0  0
 32 31  1  0  0  0  0
M  END
>  <MODEL>
1

>  <REMARK>
 VINA RESULT:      -7.3      0.000      0.000
  Name = 
  12 active torsions:
  status: ('A' for Active; 'I' for Inactive)
    1  A    between atoms: N_1  and  C_5
    2  A    between atoms: C_2  and  O_20
    3  A    between atoms: C_2  and  C_27
    4  A    between atoms: C_4  and  C_30
    5  A    between atoms: C_5  and  C_22
    6  A    between atoms: N_7  and  N_11
    7  A    between atoms: N_7  and  C_31
    8  A    between atoms: N_9  and  C_30
    9  A    between atoms: C_14  and  O_20
   10  A    between atoms: C_19  and  C_22
   11  A    between atoms: C_19  and  C_27
   12  A    between atoms: C_28  and  C_31
                            x       y       z     vdW  Elec       q    Type
                         _______ _______ _______ _____ _____    ______ ____

>  <TORSDO>
F 12

$$$$
=
 OpenBabel11062412443D

 32 34  0  0  1  0  0  0  0  0999 V2000
  187.0220  178.2550  145.9080 C   0  0  2  0  0  3  0  0  0  0  0  0
  186.6590  178.5110  147.3600 C   0  0  0  0  0  1  0  0  0  0  0  0
  184.6660  178.7830  145.5660 C   0  0  0  0  0  2  0  0  0  0  0  0
  185.8050  178.3320  145.0390 C   0  0  0  0  0  0  0  0  0  0  0  0
  187.1950  178.2280  143.1040 O   0  0  0  0  0  1  0  0  0  0  0  0
  185.8990  177.9990  143.5750 C   0  0  2  0  0  3  0  0  0  0  0  0
  185.4690  179.7070  141.9110 O   0  0  0  0  0  1  0  0  0  0  0  0
  184.8640  178.7710  142.7540 C   0  0  1  0  0  3  0  0  0  0  0  0
  183.9280  177.8460  141.9780 C   0  0  0  0  0  2  0  0  0  0  0  0
  183.2480  178.5300  140.8810 N   0  0  0  0  0  0  0  0  0  0  0  0
  184.1610  180.6310  138.9240 O   0  0  0  0  0  1  0  0  0  0  0  0
  183.7810  178.3410  139.5320 C   0  0  0  0  0  2  0  0  0  0  0  0
  181.9500  179.8220  138.6980 C   0  0  0  0  0  0  0  0  0  0  0  0
  181.3040  178.9160  142.1380 O   0  0  0  0  0  0  0  0  0  0  0  0
  181.2500  179.6360  139.9300 N   0  0  0  0  0  2  0  0  0  0  0  0
  181.3470  180.3040  137.7030 O   0  0  0  0  0  0  0  0  0  0  0  0
  183.4100  179.5010  138.6030 C   0  0  1  0  0  3  0  0  0  0  0  0
  181.9090  179.0260  141.0380 C   0  0  0  0  0  0  0  0  0  0  0  0
  187.6240  176.9950  145.7830 O   0  0  0  0  0  0  0  0  0  0  0  0
  189.6290  178.3600  145.3760 C   0  0  0  0  0  2  0  0  0  0  0  0
  189.7560  177.0470  144.7080 N   0  0  0  0  0  0  0  0  0  0  0  0
  189.0010  177.1910  145.9710 C   0  0  2  0  0  0  0  0  0  0  0  0
  189.6050  176.5890  147.0850 O   0  0  0  0  0  1  0  0  0  0  0  0
  191.0560  176.5920  144.9810 N   0  0  0  0  0  2  0  0  0  0  0  0
  191.4840  175.8280  143.8230 C   0  0  0  0  0  2  0  0  0  0  0  0
  190.5800  176.2040  141.5000 N   0  0  0  0  0  2  0  0  0  0  0  0
  191.9900  177.7580  142.5290 O   0  0  0  0  0  0  0  0  0  0  0  0
  191.3660  176.6660  142.6000 C   0  0  0  0  0  0  0  0  0  0  0  0
  190.4230  176.9680  140.2710 C   0  0  0  0  0  2  0  0  0  0  0  0
  189.0300  177.5640  140.2010 C   0  0  2  0  0  3  0  0  0  0  0  0
  188.4350  177.1920  138.9820 O   0  0  0  0  0  0  0  0  0  0  0  0
  188.9410  178.5010  139.0630 C   0  0  0  0  0  2  0  0  0  0  0  0
  1  2  1  1  0  0  0
  4  3  2  0  0  0  0
  4  1  1  0  0  0  0
  6  5  1  6  0  0  0
  6  4  1  0  0  0  0
  8  7  1  6  0  0  0
  8  6  1  0  0  0  0
  9  8  1  0  0  0  0
 10 18  1  0  0  0  0
 10  9  1  0  0  0  0
 12 10  1  0  0  0  0
 13 15  1  0  0  0  0
 15 18  1  0  0  0  0
 16 13  2  0  0  0  0
 17 13  1  0  0  0  0
 17 11  1  1  0  0  0
 17 12  1  0  0  0  0
 18 14  2  0  0  0  0
 19  1  1  0  0  0  0
 19 22  1  0  0  0  0
 20 22  1  0  0  0  0
 21 24  1  0  0  0  0
 21 20  1  0  0  0  0
 21 22  1  0  0  0  0
 22 23  1  1  0  0  0
 25 24  1  0  0  0  0
 26 28  1  0  0  0  0
 27 28  2  0  0  0  0
 28 25  1  0  0  0  0
 29 26  1  0  0  0  0
 30 29  1  6  0  0  0
 31 32  1  0  0  0  0
 31 30  1  0  0  0  0
 32 30  1  0  0  0  0
M  END
>  <MODEL>
2

>  <REMARK>
 VINA RESULT:      -7.0      2.040      7.506
  Name = 
  12 active torsions:
  status: ('A' for Active; 'I' for Inactive)
    1  A    between atoms: N_1  and  C_5
    2  A    between atoms: C_2  and  O_20
    3  A    between atoms: C_2  and  C_27
    4  A    between atoms: C_4  and  C_30
    5  A    between atoms: C_5  and  C_22
    6  A    between atoms: N_7  and  N_11
    7  A    between atoms: N_7  and  C_31
    8  A    between atoms: N_9  and  C_30
    9  A    between atoms: C_14  and  O_20
   10  A    between atoms: C_19  and  C_22
   11  A    between atoms: C_19  and  C_27
   12  A    between atoms: C_28  and  C_31
                            x       y       z     vdW  Elec       q    Type
                         _______ _______ _______ _____ _____    ______ ____

>  <TORSDO>
F 12

$$$$
=
 OpenBabel11062412443D

 32 34  0  0  1  0  0  0  0  0999 V2000
  189.7020  177.3090  144.9780 C   0  0  2  0  0  3  0  0  0  0  0  0
  190.6220  176.8310  146.0880 C   0  0  0  0  0  1  0  0  0  0  0  0
  190.9800  179.0940  143.9160 C   0  0  0  0  0  2  0  0  0  0  0  0
  190.4970  177.8530  143.8320 C   0  0  0  0  0  0  0  0  0  0  0  0
  192.1620  177.1380  142.2810 O   0  0  0  0  0  1  0  0  0  0  0  0
  190.8250  176.9750  142.6550 C   0  0  2  0  0  3  0  0  0  0  0  0
  188.9570  178.2410  141.7740 O   0  0  0  0  0  1  0  0  0  0  0  0
  189.8820  177.2370  141.4780 C   0  0  1  0  0  3  0  0  0  0  0  0
  190.6360  177.5380  140.1830 C   0  0  0  0  0  2  0  0  0  0  0  0
  189.7970  177.3850  138.9990 N   0  0  0  0  0  0  0  0  0  0  0  0
  186.8790  177.9440  138.4940 O   0  0  0  0  0  1  0  0  0  0  0  0
  189.1880  178.5920  138.4400 C   0  0  0  0  0  2  0  0  0  0  0  0
  188.1650  177.1520  136.6740 C   0  0  0  0  0  0  0  0  0  0  0  0
  190.6500  175.2580  138.4940 O   0  0  0  0  0  0  0  0  0  0  0  0
  189.0890  176.1110  137.0000 N   0  0  0  0  0  2  0  0  0  0  0  0
  187.5150  177.0970  135.5970 O   0  0  0  0  0  0  0  0  0  0  0  0
  187.9250  178.2760  137.6340 C   0  0  1  0  0  3  0  0  0  0  0  0
  189.8780  176.2050  138.1830 C   0  0  0  0  0  0  0  0  0  0  0  0
  188.8320  178.2910  145.4710 O   0  0  0  0  0  0  0  0  0  0  0  0
  187.2210  176.7590  144.4190 C   0  0  0  0  0  2  0  0  0  0  0  0
  186.7740  178.1600  144.2660 N   0  0  0  0  0  0  0  0  0  0  0  0
  187.5460  177.7310  145.4520 C   0  0  2  0  0  0  0  0  0  0  0  0
  186.8160  177.7170  146.6490 O   0  0  0  0  0  1  0  0  0  0  0  0
  185.4040  178.1710  144.5690 N   0  0  0  0  0  2  0  0  0  0  0  0
  184.8410  179.3440  143.9250 C   0  0  0  0  0  2  0  0  0  0  0  0
  183.7420  178.2390  141.9430 N   0  0  0  0  0  2  0  0  0  0  0  0
  185.5820  179.6580  141.6870 O   0  0  0  0  0  0  0  0  0  0  0  0
  184.7490  179.1130  142.4580 C   0  0  0  0  0  0  0  0  0  0  0  0
  183.5950  177.9630  140.5220 C   0  0  0  0  0  2  0  0  0  0  0  0
  182.6190  178.9430  139.8980 C   0  0  2  0  0  3  0  0  0  0  0  0
  182.5460  178.6960  138.5150 O   0  0  0  0  0  0  0  0  0  0  0  0
  183.3220  179.7960  138.9190 C   0  0  0  0  0  2  0  0  0  0  0  0
  1 19  1  0  0  0  0
  1  2  1  1  0  0  0
  4  3  2  0  0  0  0
  4  1  1  0  0  0  0
  6  5  1  6  0  0  0
  6  4  1  0  0  0  0
  8  7  1  1  0  0  0
  8  6  1  0  0  0  0
  9  8  1  0  0  0  0
 10  9  1  0  0  0  0
 12 10  1  0  0  0  0
 13 15  1  0  0  0  0
 13 17  1  0  0  0  0
 15 18  1  0  0  0  0
 16 13  2  0  0  0  0
 17 12  1  0  0  0  0
 17 11  1  1  0  0  0
 18 14  2  0  0  0  0
 18 10  1  0  0  0  0
 20 22  1  0  0  0  0
 21 20  1  0  0  0  0
 21 24  1  0  0  0  0
 21 22  1  0  0  0  0
 22 19  1  0  0  0  0
 22 23  1  1  0  0  0
 25 24  1  0  0  0  0
 26 28  1  0  0  0  0
 27 28  2  0  0  0  0
 28 25  1  0  0  0  0
 29 26  1  0  0  0  0
 30 29  1  1  0  0  0
 31 32  1  0  0  0  0
 31 30  1  0  0  0  0
 32 30  1  0  0  0  0
M  END
>  <MODEL>
3

>  <REMARK>
 VINA RESULT:      -7.0      2.208      7.380
  Name = 
  12 active torsions:
  status: ('A' for Active; 'I' for Inactive)
    1  A    between atoms: N_1  and  C_5
    2  A    between atoms: C_2  and  O_20
    3  A    between atoms: C_2  and  C_27
    4  A    between atoms: C_4  and  C_30
    5  A    between atoms: C_5  and  C_22
    6  A    between atoms: N_7  and  N_11
    7  A    between atoms: N_7  and  C_31
    8  A    between atoms: N_9  and  C_30
    9  A    between atoms: C_14  and  O_20
   10  A    between atoms: C_19  and  C_22
   11  A    between atoms: C_19  and  C_27
   12  A    between atoms: C_28  and  C_31
                            x       y       z     vdW  Elec       q    Type
                         _______ _______ _______ _____ _____    ______ ____

>  <TORSDO>
F 12

$$$$
=
 OpenBabel11062412443D

 32 34  0  0  1  0  0  0  0  0999 V2000
  190.2560  176.9350  137.3220 C   0  0  2  0  0  3  0  0  0  0  0  0
  190.7670  176.2420  136.0700 C   0  0  0  0  0  1  0  0  0  0  0  0
  191.9950  175.5950  138.3850 C   0  0  0  0  0  2  0  0  0  0  0  0
  191.1070  176.5830  138.5030 C   0  0  0  0  0  0  0  0  0  0  0  0
  192.2820  177.5050  140.3620 O   0  0  0  0  0  1  0  0  0  0  0  0
  191.0230  177.4000  139.7640 C   0  0  2  0  0  3  0  0  0  0  0  0
  190.5540  175.8660  141.5800 O   0  0  0  0  0  1  0  0  0  0  0  0
  189.9900  176.8270  140.7370 C   0  0  1  0  0  3  0  0  0  0  0  0
  189.2750  177.9180  141.5360 C   0  0  0  0  0  2  0  0  0  0  0  0
  189.4370  177.7520  142.9780 N   0  0  0  0  0  0  0  0  0  0  0  0
  191.7470  176.8040  144.6650 O   0  0  0  0  0  1  0  0  0  0  0  0
  190.4660  178.5550  143.6400 C   0  0  0  0  0  2  0  0  0  0  0  0
  189.7840  177.4880  145.7940 C   0  0  0  0  0  0  0  0  0  0  0  0
  187.3430  176.7250  143.2380 O   0  0  0  0  0  0  0  0  0  0  0  0
  188.5630  177.0610  145.1860 N   0  0  0  0  0  2  0  0  0  0  0  0
  189.9010  177.4620  147.0470 O   0  0  0  0  0  0  0  0  0  0  0  0
  190.9440  177.9090  144.9440 C   0  0  1  0  0  3  0  0  0  0  0  0
  188.4000  177.1550  143.7730 C   0  0  0  0  0  0  0  0  0  0  0  0
  188.9250  176.5660  137.5590 O   0  0  0  0  0  0  0  0  0  0  0  0
  188.5010  178.9830  137.3970 C   0  0  0  0  0  2  0  0  0  0  0  0
  187.4240  178.3220  138.1650 N   0  0  0  0  0  0  0  0  0  0  0  0
  188.1280  177.6140  137.0750 C   0  0  2  0  0  0  0  0  0  0  0  0
  187.3470  177.3750  135.9350 O   0  0  0  0  0  1  0  0  0  0  0  0
  186.2170  178.8530  137.6860 N   0  0  0  0  0  2  0  0  0  0  0  0
  185.1490  178.0850  138.2980 C   0  0  0  0  0  2  0  0  0  0  0  0
  184.2110  178.0960  140.6380 N   0  0  0  0  0  2  0  0  0  0  0  0
  184.4870  180.0730  139.4220 O   0  0  0  0  0  0  0  0  0  0  0  0
  184.6150  178.8210  139.4750 C   0  0  0  0  0  0  0  0  0  0  0  0
  183.6760  178.7490  141.8240 C   0  0  0  0  0  2  0  0  0  0  0  0
  184.7950  179.0500  142.8040 C   0  0  2  0  0  3  0  0  0  0  0  0
  184.5860  178.3050  143.9770 O   0  0  0  0  0  0  0  0  0  0  0  0
  184.2390  179.6660  144.0250 C   0  0  0  0  0  2  0  0  0  0  0  0
  1  2  1  6  0  0  0
  1 19  1  0  0  0  0
  1  4  1  0  0  0  0
  3  4  2  0  0  0  0
  4  6  1  0  0  0  0
  6  5  1  1  0  0  0
  6  8  1  0  0  0  0
  8  9  1  0  0  0  0
  8  7  1  1  0  0  0
  9 10  1  0  0  0  0
 10 12  1  0  0  0  0
 10 18  1  0  0  0  0
 12 17  1  0  0  0  0
 13 16  2  0  0  0  0
 14 18  2  0  0  0  0
 15 13  1  0  0  0  0
 17 11  1  6  0  0  0
 17 13  1  0  0  0  0
 18 15  1  0  0  0  0
 20 21  1  0  0  0  0
 22 23  1  6  0  0  0
 22 20  1  0  0  0  0
 22 19  1  0  0  0  0
 22 21  1  0  0  0  0
 24 21  1  0  0  0  0
 24 25  1  0  0  0  0
 25 28  1  0  0  0  0
 26 29  1  0  0  0  0
 27 28  2  0  0  0  0
 28 26  1  0  0  0  0
 30 29  1  6  0  0  0
 30 31  1  0  0  0  0
 30 32  1  0  0  0  0
 31 32  1  0  0  0  0
M  END
>  <MODEL>
4

>  <REMARK>
 VINA RESULT:      -7.0      1.805      5.249
  Name = 
  12 active torsions:
  status: ('A' for Active; 'I' for Inactive)
    1  A    between atoms: N_1  and  C_5
    2  A    between atoms: C_2  and  O_20
    3  A    between atoms: C_2  and  C_27
    4  A    between atoms: C_4  and  C_30
    5  A    between atoms: C_5  and  C_22
    6  A    between atoms: N_7  and  N_11
    7  A    between atoms: N_7  and  C_31
    8  A    between atoms: N_9  and  C_30
    9  A    between atoms: C_14  and  O_20
   10  A    between atoms: C_19  and  C_22
   11  A    between atoms: C_19  and  C_27
   12  A    between atoms: C_28  and  C_31
                            x       y       z     vdW  Elec       q    Type
                         _______ _______ _______ _____ _____    ______ ____

>  <TORSDO>
F 12

$$$$
=
 OpenBabel11062412443D

 32 34  0  0  1  0  0  0  0  0999 V2000
  189.9630  177.2580  144.7920 C   0  0  2  0  0  3  0  0  0  0  0  0
  190.8740  176.8490  145.9350 C   0  0  0  0  0  1  0  0  0  0  0  0
  191.3210  179.0180  143.7890 C   0  0  0  0  0  2  0  0  0  0  0  0
  190.7620  177.8150  143.6540 C   0  0  0  0  0  0  0  0  0  0  0  0
  192.3150  177.1610  141.9670 O   0  0  0  0  0  1  0  0  0  0  0  0
  191.0060  176.9830  142.4250 C   0  0  2  0  0  3  0  0  0  0  0  0
  189.0600  178.2520  141.7370 O   0  0  0  0  0  1  0  0  0  0  0  0
  189.9860  177.2900  141.3260 C   0  0  1  0  0  3  0  0  0  0  0  0
  190.6510  177.6840  140.0070 C   0  0  0  0  0  2  0  0  0  0  0  0
  189.8000  177.4170  138.8500 N   0  0  0  0  0  0  0  0  0  0  0  0
  186.8730  177.9060  138.3280 O   0  0  0  0  0  1  0  0  0  0  0  0
  189.1760  178.5640  138.1900 C   0  0  0  0  0  2  0  0  0  0  0  0
  188.1480  176.9600  136.5740 C   0  0  0  0  0  0  0  0  0  0  0  0
  190.6670  175.2600  138.5330 O   0  0  0  0  0  0  0  0  0  0  0  0
  189.0830  175.9610  136.9840 N   0  0  0  0  0  2  0  0  0  0  0  0
  187.4880  176.8020  135.5140 O   0  0  0  0  0  0  0  0  0  0  0  0
  187.9070  178.1660  137.4300 C   0  0  1  0  0  3  0  0  0  0  0  0
  189.8840  176.1680  138.1450 C   0  0  0  0  0  0  0  0  0  0  0  0
  189.0350  178.2090  145.2400 O   0  0  0  0  0  0  0  0  0  0  0  0
  187.3590  176.6870  144.2800 C   0  0  0  0  0  2  0  0  0  0  0  0
  186.7990  178.0490  144.4170 N   0  0  0  0  0  0  0  0  0  0  0  0
  187.8090  177.5400  145.3690 C   0  0  2  0  0  0  0  0  0  0  0  0
  187.3230  177.3000  146.6630 O   0  0  0  0  0  1  0  0  0  0  0  0
  185.5140  177.8930  144.9590 N   0  0  0  0  0  2  0  0  0  0  0  0
  184.8170  179.1500  144.7540 C   0  0  0  0  0  2  0  0  0  0  0  0
  182.3590  179.1000  144.1930 N   0  0  0  0  0  2  0  0  0  0  0  0
  183.9890  178.6300  142.5860 O   0  0  0  0  0  0  0  0  0  0  0  0
  183.7170  178.9560  143.7710 C   0  0  0  0  0  0  0  0  0  0  0  0
  181.2330  178.9220  143.2890 C   0  0  0  0  0  2  0  0  0  0  0  0
  180.0620  178.3020  144.0280 C   0  0  2  0  0  3  0  0  0  0  0  0
  178.9310  178.3280  143.1950 O   0  0  0  0  0  0  0  0  0  0  0  0
  178.9920  179.3040  144.2040 C   0  0  0  0  0  2  0  0  0  0  0  0
  1 19  1  0  0  0  0
  1  2  1  1  0  0  0
  4  3  2  0  0  0  0
  4  1  1  0  0  0  0
  6  5  1  6  0  0  0
  6  4  1  0  0  0  0
  8  7  1  1  0  0  0
  8  6  1  0  0  0  0
  9  8  1  0  0  0  0
 10  9  1  0  0  0  0
 12 10  1  0  0  0  0
 13 15  1  0  0  0  0
 13 17  1  0  0  0  0
 15 18  1  0  0  0  0
 16 13  2  0  0  0  0
 17 12  1  0  0  0  0
 17 11  1  1  0  0  0
 18 14  2  0  0  0  0
 18 10  1  0  0  0  0
 19 22  1  0  0  0  0
 20 21  1  0  0  0  0
 20 22  1  0  0  0  0
 21 24  1  0  0  0  0
 21 22  1  0  0  0  0
 22 23  1  1  0  0  0
 25 24  1  0  0  0  0
 27 28  2  0  0  0  0
 28 26  1  0  0  0  0
 28 25  1  0  0  0  0
 29 26  1  0  0  0  0
 30 29  1  6  0  0  0
 30 32  1  0  0  0  0
 31 30  1  0  0  0  0
 31 32  1  0  0  0  0
M  END
>  <MODEL>
5

>  <REMARK>
 VINA RESULT:      -6.9      2.615      8.174
  Name = 
  12 active torsions:
  status: ('A' for Active; 'I' for Inactive)
    1  A    between atoms: N_1  and  C_5
    2  A    between atoms: C_2  and  O_20
    3  A    between atoms: C_2  and  C_27
    4  A    between atoms: C_4  and  C_30
    5  A    between atoms: C_5  and  C_22
    6  A    between atoms: N_7  and  N_11
    7  A    between atoms: N_7  and  C_31
    8  A    between atoms: N_9  and  C_30
    9  A    between atoms: C_14  and  O_20
   10  A    between atoms: C_19  and  C_22
   11  A    between atoms: C_19  and  C_27
   12  A    between atoms: C_28  and  C_31
                            x       y       z     vdW  Elec       q    Type
                         _______ _______ _______ _____ _____    ______ ____

>  <TORSDO>
F 12

$$$$
=
 OpenBabel11062412443D

 32 34  0  0  1  0  0  0  0  0999 V2000
  188.2220  177.4720  147.1200 C   0  0  2  0  0  3  0  0  0  0  0  0
  188.2640  177.5530  148.6360 C   0  0  0  0  0  1  0  0  0  0  0  0
  190.6340  177.2310  147.3960 C   0  0  0  0  0  2  0  0  0  0  0  0
  189.5880  177.1970  146.5690 C   0  0  0  0  0  0  0  0  0  0  0  0
  191.0730  176.4040  144.8800 O   0  0  0  0  0  1  0  0  0  0  0  0
  189.7550  176.7940  145.1290 C   0  0  2  0  0  3  0  0  0  0  0  0
  190.4130  178.5730  143.6210 O   0  0  0  0  0  1  0  0  0  0  0  0
  189.3160  177.9110  144.1780 C   0  0  1  0  0  3  0  0  0  0  0  0
  188.3580  177.4110  143.0970 C   0  0  0  0  0  2  0  0  0  0  0  0
  188.9460  177.4640  141.7610 N   0  0  0  0  0  0  0  0  0  0  0  0
  191.7910  177.7400  140.8070 O   0  0  0  0  0  1  0  0  0  0  0  0
  189.8860  176.4050  141.3940 C   0  0  0  0  0  2  0  0  0  0  0  0
  190.1100  177.5010  139.1600 C   0  0  0  0  0  0  0  0  0  0  0  0
  187.3260  178.9550  140.9510 O   0  0  0  0  0  0  0  0  0  0  0  0
  188.9130  178.2400  139.4130 N   0  0  0  0  0  2  0  0  0  0  0  0
  190.5700  177.4370  137.9900 O   0  0  0  0  0  0  0  0  0  0  0  0
  190.8490  176.8520  140.2900 C   0  0  1  0  0  3  0  0  0  0  0  0
  188.3490  178.2570  140.7220 C   0  0  0  0  0  0  0  0  0  0  0  0
  187.7220  178.6700  146.5930 O   0  0  0  0  0  0  0  0  0  0  0  0
  185.7940  177.2290  146.0870 C   0  0  0  0  0  2  0  0  0  0  0  0
  185.8850  178.3310  145.1050 N   0  0  0  0  0  0  0  0  0  0  0  0
  186.3300  178.5160  146.5030 C   0  0  2  0  0  0  0  0  0  0  0  0
  185.5220  179.3730  147.2640 O   0  0  0  0  0  1  0  0  0  0  0  0
  184.5820  178.8280  144.9520 N   0  0  0  0  0  2  0  0  0  0  0  0
  184.5640  179.5810  143.7110 C   0  0  0  0  0  2  0  0  0  0  0  0
  182.1610  179.1140  143.1070 N   0  0  0  0  0  2  0  0  0  0  0  0
  183.9240  178.3840  141.7580 O   0  0  0  0  0  0  0  0  0  0  0  0
  183.5500  179.0020  142.7900 C   0  0  0  0  0  0  0  0  0  0  0  0
  181.1140  178.5690  142.2550 C   0  0  0  0  0  2  0  0  0  0  0  0
  180.0870  179.6400  141.9380 C   0  0  2  0  0  3  0  0  0  0  0  0
  180.1030  180.6040  142.9610 O   0  0  0  0  0  0  0  0  0  0  0  0
  179.0530  179.6700  142.9910 C   0  0  0  0  0  2  0  0  0  0  0  0
  1  2  1  1  0  0  0
  4  1  1  0  0  0  0
  4  3  2  0  0  0  0
  6  5  1  1  0  0  0
  6  4  1  0  0  0  0
  8  7  1  6  0  0  0
  8  6  1  0  0  0  0
  9  8  1  0  0  0  0
 10  9  1  0  0  0  0
 12 10  1  0  0  0  0
 13 15  1  0  0  0  0
 13 17  1  0  0  0  0
 15 18  1  0  0  0  0
 16 13  2  0  0  0  0
 17 11  1  1  0  0  0
 17 12  1  0  0  0  0
 18 14  2  0  0  0  0
 18 10  1  0  0  0  0
 19  1  1  0  0  0  0
 20 22  1  0  0  0  0
 21 20  1  0  0  0  0
 21 22  1  0  0  0  0
 22 19  1  0  0  0  0
 22 23  1  1  0  0  0
 24 21  1  0  0  0  0
 25 24  1  0  0  0  0
 27 28  2  0  0  0  0
 28 26  1  0  0  0  0
 28 25  1  0  0  0  0
 29 26  1  0  0  0  0
 30 29  1  1  0  0  0
 30 31  1  0  0  0  0
 30 32  1  0  0  0  0
 31 32  1  0  0  0  0
M  END
>  <MODEL>
6

>  <REMARK>
 VINA RESULT:      -6.8      2.547      7.126
  Name = 
  12 active torsions:
  status: ('A' for Active; 'I' for Inactive)
    1  A    between atoms: N_1  and  C_5
    2  A    between atoms: C_2  and  O_20
    3  A    between atoms: C_2  and  C_27
    4  A    between atoms: C_4  and  C_30
    5  A    between atoms: C_5  and  C_22
    6  A    between atoms: N_7  and  N_11
    7  A    between atoms: N_7  and  C_31
    8  A    between atoms: N_9  and  C_30
    9  A    between atoms: C_14  and  O_20
   10  A    between atoms: C_19  and  C_22
   11  A    between atoms: C_19  and  C_27
   12  A    between atoms: C_28  and  C_31
                            x       y       z     vdW  Elec       q    Type
                         _______ _______ _______ _____ _____    ______ ____

>  <TORSDO>
F 12

$$$$
=
 OpenBabel11062412443D

 32 34  0  0  1  0  0  0  0  0999 V2000
  189.9770  177.3240  145.7440 C   0  0  2  0  0  3  0  0  0  0  0  0
  191.2410  176.7300  146.3410 C   0  0  0  0  0  1  0  0  0  0  0  0
  188.9380  176.4760  147.7810 C   0  0  0  0  0  2  0  0  0  0  0  0
  188.8660  177.3170  146.7480 C   0  0  0  0  0  0  0  0  0  0  0  0
  187.0200  178.3660  147.8340 O   0  0  0  0  0  1  0  0  0  0  0  0
  187.7430  178.3120  146.6390 C   0  0  2  0  0  3  0  0  0  0  0  0
  186.2150  176.7540  145.5850 O   0  0  0  0  0  1  0  0  0  0  0  0
  186.8300  178.0020  145.4500 C   0  0  1  0  0  3  0  0  0  0  0  0
  185.8030  179.1060  145.2010 C   0  0  0  0  0  2  0  0  0  0  0  0
  185.0050  178.8670  144.0020 N   0  0  0  0  0  0  0  0  0  0  0  0
  185.3260  179.7580  141.1410 O   0  0  0  0  0  1  0  0  0  0  0  0
  185.6430  178.1530  142.8950 C   0  0  0  0  0  2  0  0  0  0  0  0
  183.4900  178.3520  141.6430 C   0  0  0  0  0  0  0  0  0  0  0  0
  182.9720  179.2790  145.0990 O   0  0  0  0  0  0  0  0  0  0  0  0
  182.8170  178.6590  142.8660 N   0  0  0  0  0  2  0  0  0  0  0  0
  182.8230  178.0300  140.6260 O   0  0  0  0  0  0  0  0  0  0  0  0
  184.9810  178.4710  141.5510 C   0  0  1  0  0  3  0  0  0  0  0  0
  183.5710  178.9560  144.0390 C   0  0  0  0  0  0  0  0  0  0  0  0
  189.6020  176.5980  144.6050 O   0  0  0  0  0  0  0  0  0  0  0  0
  190.3750  178.6450  143.4820 C   0  0  0  0  0  2  0  0  0  0  0  0
  189.3290  177.9790  142.6760 N   0  0  0  0  0  0  0  0  0  0  0  0
  190.2580  177.1960  143.5180 C   0  0  2  0  0  0  0  0  0  0  0  0
  191.1840  176.4230  142.8020 O   0  0  0  0  0  1  0  0  0  0  0  0
  189.7870  177.9930  141.3490 N   0  0  0  0  0  2  0  0  0  0  0  0
  188.6240  178.2090  140.5070 C   0  0  0  0  0  2  0  0  0  0  0  0
  189.7530  176.9770  138.6190 N   0  0  0  0  0  2  0  0  0  0  0  0
  188.7400  179.0570  138.2880 O   0  0  0  0  0  0  0  0  0  0  0  0
  189.0200  178.1150  139.0760 C   0  0  0  0  0  0  0  0  0  0  0  0
  190.1760  176.8190  137.2350 C   0  0  0  0  0  2  0  0  0  0  0  0
  190.2490  175.3470  136.8750 C   0  0  2  0  0  3  0  0  0  0  0  0
  190.8240  174.6430  137.9480 O   0  0  0  0  0  0  0  0  0  0  0  0
  191.6580  174.9070  136.8480 C   0  0  0  0  0  2  0  0  0  0  0  0
  1  2  1  1  0  0  0
  1  4  1  0  0  0  0
  4  3  2  0  0  0  0
  6  4  1  0  0  0  0
  6  5  1  1  0  0  0
  8  7  1  1  0  0  0
  8  6  1  0  0  0  0
  9  8  1  0  0  0  0
 10 18  1  0  0  0  0
 10  9  1  0  0  0  0
 12 10  1  0  0  0  0
 13 15  1  0  0  0  0
 15 18  1  0  0  0  0
 16 13  2  0  0  0  0
 17 11  1  1  0  0  0
 17 13  1  0  0  0  0
 17 12  1  0  0  0  0
 18 14  2  0  0  0  0
 19  1  1  0  0  0  0
 20 22  1  0  0  0  0
 21 20  1  0  0  0  0
 21 22  1  0  0  0  0
 22 23  1  6  0  0  0
 22 19  1  0  0  0  0
 24 21  1  0  0  0  0
 25 24  1  0  0  0  0
 26 28  1  0  0  0  0
 27 28  2  0  0  0  0
 28 25  1  0  0  0  0
 29 26  1  0  0  0  0
 30 29  1  1  0  0  0
 30 31  1  0  0  0  0
 32 30  1  0  0  0  0
 32 31  1  0  0  0  0
M  END
>  <MODEL>
7

>  <REMARK>
 VINA RESULT:      -6.7      2.409      6.146
  Name = 
  12 active torsions:
  status: ('A' for Active; 'I' for Inactive)
    1  A    between atoms: N_1  and  C_5
    2  A    between atoms: C_2  and  O_20
    3  A    between atoms: C_2  and  C_27
    4  A    between atoms: C_4  and  C_30
    5  A    between atoms: C_5  and  C_22
    6  A    between atoms: N_7  and  N_11
    7  A    between atoms: N_7  and  C_31
    8  A    between atoms: N_9  and  C_30
    9  A    between atoms: C_14  and  O_20
   10  A    between atoms: C_19  and  C_22
   11  A    between atoms: C_19  and  C_27
   12  A    between atoms: C_28  and  C_31
                            x       y       z     vdW  Elec       q    Type
                         _______ _______ _______ _____ _____    ______ ____

>  <TORSDO>
F 12

$$$$
=
 OpenBabel11062412443D

 32 34  0  0  1  0  0  0  0  0999 V2000
  188.8110  177.9190  140.3470 C   0  0  2  0  0  3  0  0  0  0  0  0
  188.1340  178.8480  141.3410 C   0  0  0  0  0  1  0  0  0  0  0  0
  191.0860  177.1240  139.9720 C   0  0  0  0  0  2  0  0  0  0  0  0
  190.1550  177.4960  140.8530 C   0  0  0  0  0  0  0  0  0  0  0  0
  191.8570  177.6410  142.5180 O   0  0  0  0  0  1  0  0  0  0  0  0
  190.4740  177.5880  142.3200 C   0  0  2  0  0  3  0  0  0  0  0  0
  190.3010  175.1940  142.6560 O   0  0  0  0  0  1  0  0  0  0  0  0
  189.8430  176.4360  143.1050 C   0  0  1  0  0  3  0  0  0  0  0  0
  190.0330  176.5860  144.6150 C   0  0  0  0  0  2  0  0  0  0  0  0
  188.8440  177.1110  145.2790 N   0  0  0  0  0  0  0  0  0  0  0  0
  187.9120  177.0170  148.1430 O   0  0  0  0  0  1  0  0  0  0  0  0
  189.0400  178.1100  146.3300 C   0  0  0  0  0  2  0  0  0  0  0  0
  186.5570  178.1870  146.5960 C   0  0  0  0  0  0  0  0  0  0  0  0
  187.3970  176.3650  143.5890 O   0  0  0  0  0  0  0  0  0  0  0  0
  186.4100  177.5490  145.3260 N   0  0  0  0  0  2  0  0  0  0  0  0
  185.5660  178.7480  147.1330 O   0  0  0  0  0  0  0  0  0  0  0  0
  187.8700  178.1400  147.3170 C   0  0  1  0  0  3  0  0  0  0  0  0
  187.5440  176.9740  144.6820 C   0  0  0  0  0  0  0  0  0  0  0  0
  188.9410  178.5630  139.1090 O   0  0  0  0  0  0  0  0  0  0  0  0
  187.6380  178.6050  137.0240 C   0  0  0  0  0  2  0  0  0  0  0  0
  186.7360  178.5440  138.1940 N   0  0  0  0  0  0  0  0  0  0  0  0
  188.0700  177.9080  138.2250 C   0  0  2  0  0  0  0  0  0  0  0  0
  188.0480  176.5060  138.2410 O   0  0  0  0  0  1  0  0  0  0  0  0
  185.7590  177.5840  137.8860 N   0  0  0  0  0  2  0  0  0  0  0  0
  184.4690  178.2110  138.1120 C   0  0  0  0  0  2  0  0  0  0  0  0
  184.6620  178.3780  140.6210 N   0  0  0  0  0  2  0  0  0  0  0  0
  184.4030  180.2790  139.2850 O   0  0  0  0  0  0  0  0  0  0  0  0
  184.5220  179.0270  139.3550 C   0  0  0  0  0  0  0  0  0  0  0  0
  184.7160  179.1110  141.8760 C   0  0  0  0  0  2  0  0  0  0  0  0
  183.8820  178.4070  142.9290 C   0  0  2  0  0  3  0  0  0  0  0  0
  182.6060  178.9960  142.9690 O   0  0  0  0  0  0  0  0  0  0  0  0
  183.5010  179.3620  143.9890 C   0  0  0  0  0  2  0  0  0  0  0  0
  1  4  1  0  0  0  0
  1  2  1  1  0  0  0
  3  4  2  0  0  0  0
  4  6  1  0  0  0  0
  6  5  1  6  0  0  0
  6  8  1  0  0  0  0
  8  7  1  6  0  0  0
  8  9  1  0  0  0  0
  9 10  1  0  0  0  0
 10 12  1  0  0  0  0
 12 17  1  0  0  0  0
 13 16  2  0  0  0  0
 13 17  1  0  0  0  0
 14 18  2  0  0  0  0
 15 13  1  0  0  0  0
 17 11  1  6  0  0  0
 18 10  1  0  0  0  0
 18 15  1  0  0  0  0
 19  1  1  0  0  0  0
 20 21  1  0  0  0  0
 20 22  1  0  0  0  0
 21 22  1  0  0  0  0
 22 23  1  6  0  0  0
 22 19  1  0  0  0  0
 24 25  1  0  0  0  0
 24 21  1  0  0  0  0
 25 28  1  0  0  0  0
 26 29  1  0  0  0  0
 27 28  2  0  0  0  0
 28 26  1  0  0  0  0
 30 29  1  6  0  0  0
 30 31  1  0  0  0  0
 30 32  1  0  0  0  0
 31 32  1  0  0  0  0
M  END
>  <MODEL>
8

>  <REMARK>
 VINA RESULT:      -6.7      1.772      4.932
  Name = 
  12 active torsions:
  status: ('A' for Active; 'I' for Inactive)
    1  A    between atoms: N_1  and  C_5
    2  A    between atoms: C_2  and  O_20
    3  A    between atoms: C_2  and  C_27
    4  A    between atoms: C_4  and  C_30
    5  A    between atoms: C_5  and  C_22
    6  A    between atoms: N_7  and  N_11
    7  A    between atoms: N_7  and  C_31
    8  A    between atoms: N_9  and  C_30
    9  A    between atoms: C_14  and  O_20
   10  A    between atoms: C_19  and  C_22
   11  A    between atoms: C_19  and  C_27
   12  A    between atoms: C_28  and  C_31
                            x       y       z     vdW  Elec       q    Type
                         _______ _______ _______ _____ _____    ______ ____

>  <TORSDO>
F 12

$$$$
=
 OpenBabel11062412443D

 32 34  0  0  1  0  0  0  0  0999 V2000
  191.2840  176.7250  138.9700 C   0  0  2  0  0  3  0  0  0  0  0  0
  192.7840  176.8100  138.7460 C   0  0  0  0  0  1  0  0  0  0  0  0
  191.8980  177.5000  141.2000 C   0  0  0  0  0  2  0  0  0  0  0  0
  190.9490  177.0070  140.4020 C   0  0  0  0  0  0  0  0  0  0  0  0
  188.6300  177.3810  139.9900 O   0  0  0  0  0  1  0  0  0  0  0  0
  189.5390  176.8290  140.8970 C   0  0  2  0  0  3  0  0  0  0  0  0
  188.5060  178.5280  142.2830 O   0  0  0  0  0  1  0  0  0  0  0  0
  189.3560  177.4180  142.2970 C   0  0  1  0  0  3  0  0  0  0  0  0
  188.8910  176.3740  143.3130 C   0  0  0  0  0  2  0  0  0  0  0  0
  188.9120  176.8780  144.6830 N   0  0  0  0  0  0  0  0  0  0  0  0
  190.3580  175.9570  147.1610 O   0  0  0  0  0  1  0  0  0  0  0  0
  190.1930  177.3460  145.2120 C   0  0  0  0  0  2  0  0  0  0  0  0
  189.0110  177.8930  147.3440 C   0  0  0  0  0  0  0  0  0  0  0  0
  186.5840  177.1630  144.7650 O   0  0  0  0  0  0  0  0  0  0  0  0
  187.7590  177.8200  146.6580 N   0  0  0  0  0  2  0  0  0  0  0  0
  189.0710  178.4300  148.4810 O   0  0  0  0  0  0  0  0  0  0  0  0
  190.2390  177.2810  146.7420 C   0  0  1  0  0  3  0  0  0  0  0  0
  187.6990  177.2760  145.3420 C   0  0  0  0  0  0  0  0  0  0  0  0
  190.8220  175.4530  138.6080 O   0  0  0  0  0  0  0  0  0  0  0  0
  190.8240  175.9190  136.1940 C   0  0  0  0  0  2  0  0  0  0  0  0
  190.1460  177.0090  136.9280 N   0  0  0  0  0  0  0  0  0  0  0  0
  190.0980  175.6150  137.4170 C   0  0  2  0  0  0  0  0  0  0  0  0
  188.8380  175.0070  137.3240 O   0  0  0  0  0  1  0  0  0  0  0  0
  188.9780  177.3010  136.2070 N   0  0  0  0  0  2  0  0  0  0  0  0
  188.3300  178.4060  136.8890 C   0  0  0  0  0  2  0  0  0  0  0  0
  186.1620  178.5840  138.1650 N   0  0  0  0  0  2  0  0  0  0  0  0
  186.2850  177.4700  136.1150 O   0  0  0  0  0  0  0  0  0  0  0  0
  186.8730  178.1320  137.0110 C   0  0  0  0  0  0  0  0  0  0  0  0
  184.7390  178.3490  138.3530 C   0  0  0  0  0  2  0  0  0  0  0  0
  184.1700  179.3500  139.3410 C   0  0  2  0  0  3  0  0  0  0  0  0
  185.1370  179.6210  140.3250 O   0  0  0  0  0  0  0  0  0  0  0  0
  184.1000  178.7440  140.6860 C   0  0  0  0  0  2  0  0  0  0  0  0
  1  2  1  1  0  0  0
  1  4  1  0  0  0  0
  4  6  1  0  0  0  0
  4  3  2  0  0  0  0
  6  5  1  6  0  0  0
  6  8  1  0  0  0  0
  8  7  1  6  0  0  0
  8  9  1  0  0  0  0
  9 10  1  0  0  0  0
 10 12  1  0  0  0  0
 10 18  1  0  0  0  0
 12 17  1  0  0  0  0
 13 16  2  0  0  0  0
 14 18  2  0  0  0  0
 15 13  1  0  0  0  0
 17 11  1  6  0  0  0
 17 13  1  0  0  0  0
 18 15  1  0  0  0  0
 19  1  1  0  0  0  0
 20 21  1  0  0  0  0
 20 22  1  0  0  0  0
 21 22  1  0  0  0  0
 22 23  1  6  0  0  0
 22 19  1  0  0  0  0
 24 25  1  0  0  0  0
 24 21  1  0  0  0  0
 25 28  1  0  0  0  0
 26 29  1  0  0  0  0
 27 28  2  0  0  0  0
 28 26  1  0  0  0  0
 30 29  1  6  0  0  0
 30 31  1  0  0  0  0
 30 32  1  0  0  0  0
 31 32  1  0  0  0  0
M  END
>  <MODEL>
9

>  <REMARK>
 VINA RESULT:      -6.7      2.057      5.162
  Name = 
  12 active torsions:
  status: ('A' for Active; 'I' for Inactive)
    1  A    between atoms: N_1  and  C_5
    2  A    between atoms: C_2  and  O_20
    3  A    between atoms: C_2  and  C_27
    4  A    between atoms: C_4  and  C_30
    5  A    between atoms: C_5  and  C_22
    6  A    between atoms: N_7  and  N_11
    7  A    between atoms: N_7  and  C_31
    8  A    between atoms: N_9  and  C_30
    9  A    between atoms: C_14  and  O_20
   10  A    between atoms: C_19  and  C_22
   11  A    between atoms: C_19  and  C_27
   12  A    between atoms: C_28  and  C_31
                            x       y       z     vdW  Elec       q    Type
                         _______ _______ _______ _____ _____    ______ ____

>  <TORSDO>
F 12

$$$$
