=
 OpenBabel11062412033D

 48 54  0  0  1  0  0  0  0  0999 V2000
  188.9040  177.6000  139.5230 C   0  0  0  0  0  0  0  0  0  0  0  0
  188.1470  177.0710  140.3780 O   0  0  0  0  0  0  0  0  0  0  0  0
  188.3400  178.1430  138.3270 N   0  0  0  0  0  2  0  0  0  0  0  0
  189.1360  178.7840  137.2930 C   0  0  0  0  0  2  0  0  0  0  0  0
  191.1130  176.4900  135.9150 N   0  0  0  0  0  2  0  0  0  0  0  0
  188.6620  176.8450  135.8970 N   0  0  0  0  0  0  0  0  0  0  0  0
  188.7050  178.3060  135.9130 C   0  0  1  0  0  3  0  0  0  0  0  0
  187.3840  176.3690  135.6510 N   0  0  0  0  0  0  0  0  0  0  0  0
  185.2890  177.3580  135.2220 O   0  0  0  0  0  0  0  0  0  0  0  0
  189.5790  174.6690  135.8200 N   0  0  0  0  0  0  0  0  0  0  0  0
  186.0050  174.5490  135.1460 O   0  0  0  0  0  0  0  0  0  0  0  0
  189.7820  175.9560  135.8970 C   0  0  0  0  0  0  0  0  0  0  0  0
  188.2510  174.0140  135.8280 C   0  0  2  0  0  3  0  0  0  0  0  0
  187.2510  178.7540  135.6180 C   0  0  0  0  0  2  0  0  0  0  0  0
  186.5200  177.4650  135.4710 C   0  0  0  0  0  0  0  0  0  0  0  0
  187.1360  174.9720  135.5050 C   0  0  0  0  0  0  0  0  0  0  0  0
  193.1350  174.9000  134.7700 S   0  0  0  0  0  0  0  0  0  0  0  0
  192.3270  175.7550  136.1190 C   0  0  0  0  0  0  0  0  0  0  0  0
  195.0480  174.9180  138.2420 O   0  0  0  0  0  1  0  0  0  0  0  0
  194.5370  174.5010  135.8750 C   0  0  0  0  0  2  0  0  0  0  0  0
  192.9840  175.7230  137.2630 C   0  0  0  0  0  3  0  0  0  0  0  0
  194.1960  174.9990  137.1950 N   0  0  0  0  0  0  0  0  0  0  0  0
  187.9370  173.2700  137.1430 C   0  0  0  0  0  3  0  0  0  0  0  0
  187.9650  171.7580  136.9830 C   0  0  0  0  0  2  0  0  0  0  0  0
  186.6360  172.4880  137.0710 C   0  0  0  0  0  2  0  0  0  0  0  0
  190.3740  177.6870  139.7870 C   0  0  0  0  0  2  0  0  0  0  0  0
  190.7960  176.6190  140.7830 C   0  0  0  0  0  2  0  0  0  0  0  0
  190.4750  176.4170  143.2410 C   0  0  0  0  0  2  0  0  0  0  0  0
  191.1410  179.3440  143.5030 C   0  0  0  0  0  2  0  0  0  0  0  0
  190.6980  178.6970  142.1890 C   0  0  0  0  0  2  0  0  0  0  0  0
  191.1960  178.3540  144.6790 C   0  0  0  0  0  2  0  0  0  0  0  0
  191.1400  177.2390  142.1270 C   0  0  2  0  0  3  0  0  0  0  0  0
  190.1860  177.1830  144.5500 C   0  0  1  0  0  0  0  0  0  0  0  0
  186.9030  177.5890  145.8080 C   0  0  1  0  0  3  0  0  0  0  0  0
  186.4780  177.0510  144.4600 C   0  0  0  0  0  2  0  0  0  0  0  0
  188.2220  178.0810  145.7350 O   0  0  0  0  0  0  0  0  0  0  0  0
  187.7790  176.7360  143.8060 C   0  0  0  0  0  2  0  0  0  0  0  0
  188.7280  177.7120  144.4710 C   0  0  2  0  0  3  0  0  0  0  0  0
  186.2140  179.3040  147.4240 C   0  0  0  0  0  2  0  0  0  0  0  0
  185.9550  178.6450  146.2950 C   0  0  0  0  0  0  0  0  0  0  0  0
  184.8270  179.0540  145.4390 C   0  0  0  0  0  0  0  0  0  0  0  0
  185.0670  179.6790  144.2210 O   0  0  0  0  0  0  0  0  0  0  0  0
  183.6370  178.8510  145.8030 O   0  0  0  0  0  1  0  0  0  0  0  0
  190.3480  176.2440  145.6050 O   0  0  0  0  0  0  0  0  0  0  0  0
  191.6620  175.5210  147.4660 C   0  0  0  0  0  2  0  0  0  0  0  0
  190.0180  177.2750  148.0650 C   0  0  0  0  0  1  0  0  0  0  0  0
  191.4580  177.0110  147.6460 C   0  0  2  0  0  3  0  0  0  0  0  0
  191.5950  176.4130  146.2440 C   0  0  2  0  0  3  0  0  0  0  0  0
  1 26  1  0  0  0  0
  1  2  2  0  0  0  0
  3  1  1  0  0  0  0
  4  3  1  0  0  0  0
  5 18  1  0  0  0  0
  6 12  1  0  0  0  0
  6  7  1  0  0  0  0
  7  4  1  1  0  0  0
  8  6  1  0  0  0  0
  9 15  2  0  0  0  0
 10 13  1  0  0  0  0
 10 12  2  0  0  0  0
 11 16  2  0  0  0  0
 12  5  1  0  0  0  0
 13 23  1  1  0  0  0
 14  7  1  0  0  0  0
 15 14  1  0  0  0  0
 15  8  1  0  0  0  0
 16  8  1  0  0  0  0
 16 13  1  0  0  0  0
 17 20  1  0  0  0  0
 17 18  1  0  0  0  0
 18 21  2  0  0  0  0
 20 22  1  0  0  0  0
 22 21  1  0  0  0  0
 22 19  1  0  0  0  0
 24 25  1  0  0  0  0
 24 23  1  0  0  0  0
 25 23  1  0  0  0  0
 26 27  1  0  0  0  0
 28 33  1  0  0  0  0
 29 31  1  0  0  0  0
 30 29  1  0  0  0  0
 32 27  1  6  0  0  0
 32 30  1  0  0  0  0
 32 28  1  0  0  0  0
 33 31  1  0  0  0  0
 33 44  1  1  0  0  0
 34 40  1  6  0  0  0
 35 34  1  0  0  0  0
 36 34  1  0  0  0  0
 37 35  1  0  0  0  0
 38 37  1  1  0  0  0
 38 33  1  0  0  0  0
 38 36  1  0  0  0  0
 40 39  2  0  0  0  0
 41 43  1  0  0  0  0
 41 40  1  0  0  0  0
 42 41  2  0  0  0  0
 45 47  1  0  0  0  0
 47 46  1  6  0  0  0
 48 44  1  6  0  0  0
 48 45  1  0  0  0  0
 48 47  1  0  0  0  0
M  END
>  <MODEL>
1

>  <REMARK>
 VINA RESULT:      -7.5      0.000      0.000
  Name = 
  12 active torsions:
  status: ('A' for Active; 'I' for Inactive)
    1  A    between atoms: N_1  and  C_23
    2  A    between atoms: C_2  and  C_24
    3  A    between atoms: C_3  and  C_35
    4  A    between atoms: C_3  and  C_46
    5  A    between atoms: C_6  and  C_14
    6  A    between atoms: C_7  and  C_24
    7  A    between atoms: C_14  and  N_47
    8  A    between atoms: C_19  and  C_28
    9  A    between atoms: C_35  and  C_38
   10  A    between atoms: C_37  and  C_48
   11  A    between atoms: C_42  and  O_45
   12  A    between atoms: O_45  and  C_48
                            x       y       z     vdW  Elec       q    Type
                         _______ _______ _______ _____ _____    ______ ____

>  <TORSDO>
F 12

$$$$
=
 OpenBabel11062412033D

 48 54  0  0  1  0  0  0  0  0999 V2000
  185.0710  178.9510  139.5920 C   0  0  0  0  0  0  0  0  0  0  0  0
  185.4210  178.7850  138.3940 O   0  0  0  0  0  0  0  0  0  0  0  0
  186.0640  179.2400  140.5790 N   0  0  0  0  0  2  0  0  0  0  0  0
  185.7490  179.4610  141.9810 C   0  0  0  0  0  2  0  0  0  0  0  0
  188.1130  177.2810  141.1250 N   0  0  0  0  0  2  0  0  0  0  0  0
  187.0370  177.8530  143.2820 N   0  0  0  0  0  0  0  0  0  0  0  0
  185.7120  178.1390  142.7350 C   0  0  1  0  0  3  0  0  0  0  0  0
  187.0250  177.7980  144.6660 N   0  0  0  0  0  0  0  0  0  0  0  0
  185.3700  178.0220  146.3290 O   0  0  0  0  0  0  0  0  0  0  0  0
  189.2970  177.1680  143.1910 N   0  0  0  0  0  0  0  0  0  0  0  0
  188.1510  177.2590  146.6430 O   0  0  0  0  0  0  0  0  0  0  0  0
  188.1950  177.4440  142.5480 C   0  0  0  0  0  0  0  0  0  0  0  0
  189.4970  177.3330  144.6490 C   0  0  2  0  0  3  0  0  0  0  0  0
  184.7830  178.2510  143.9710 C   0  0  0  0  0  2  0  0  0  0  0  0
  185.7090  178.0190  145.1150 C   0  0  0  0  0  0  0  0  0  0  0  0
  188.1960  177.4430  145.3980 C   0  0  0  0  0  0  0  0  0  0  0  0
  188.9390  176.8410  138.4700 S   0  0  0  0  0  0  0  0  0  0  0  0
  189.2100  177.0780  140.2230 C   0  0  0  0  0  0  0  0  0  0  0  0
  192.7140  177.1010  139.6510 O   0  0  0  0  0  1  0  0  0  0  0  0
  190.7480  176.8810  138.1960 C   0  0  0  0  0  2  0  0  0  0  0  0
  190.4780  177.1410  140.5820 C   0  0  0  0  0  3  0  0  0  0  0  0
  191.3750  176.9900  139.5000 N   0  0  0  0  0  0  0  0  0  0  0  0
  190.4150  178.5170  145.0160 C   0  0  0  0  0  3  0  0  0  0  0  0
  190.9470  179.2490  143.7950 C   0  0  0  0  0  2  0  0  0  0  0  0
  191.8500  178.3010  144.5640 C   0  0  0  0  0  2  0  0  0  0  0  0
  183.6220  178.8850  139.9570 C   0  0  0  0  0  2  0  0  0  0  0  0
  182.7870  179.6510  138.9430 C   0  0  0  0  0  2  0  0  0  0  0  0
  181.7650  177.3860  139.0270 C   0  0  0  0  0  2  0  0  0  0  0  0
  180.4810  177.9370  136.3570 C   0  0  0  0  0  2  0  0  0  0  0  0
  181.6840  178.7200  136.8890 C   0  0  0  0  0  2  0  0  0  0  0  0
  180.0040  176.8320  137.3150 C   0  0  0  0  0  2  0  0  0  0  0  0
  181.6550  178.7890  138.4120 C   0  0  2  0  0  3  0  0  0  0  0  0
  181.1380  176.2450  138.1960 C   0  0  1  0  0  0  0  0  0  0  0  0
  183.1480  173.5610  137.0640 C   0  0  1  0  0  3  0  0  0  0  0  0
  184.3040  174.4770  137.4030 C   0  0  0  0  0  2  0  0  0  0  0  0
  181.9670  174.3150  136.9100 O   0  0  0  0  0  0  0  0  0  0  0  0
  183.6210  175.6630  137.9910 C   0  0  0  0  0  2  0  0  0  0  0  0
  182.2630  175.6310  137.3200 C   0  0  2  0  0  3  0  0  0  0  0  0
  184.1980  173.2560  134.8660 C   0  0  0  0  0  2  0  0  0  0  0  0
  183.4390  172.7490  135.8360 C   0  0  0  0  0  0  0  0  0  0  0  0
  183.0110  171.3400  135.7850 C   0  0  0  0  0  0  0  0  0  0  0  0
  183.8890  170.3600  135.3380 O   0  0  0  0  0  0  0  0  0  0  0  0
  181.8460  171.0080  136.1350 O   0  0  0  0  0  1  0  0  0  0  0  0
  180.6290  175.3040  139.1330 O   0  0  0  0  0  0  0  0  0  0  0  0
  179.7080  176.1130  141.1840 C   0  0  0  0  0  2  0  0  0  0  0  0
  179.8180  173.6400  141.0810 C   0  0  0  0  0  1  0  0  0  0  0  0
  178.9350  174.8560  140.8410 C   0  0  2  0  0  3  0  0  0  0  0  0
  179.4420  175.7800  139.7310 C   0  0  2  0  0  3  0  0  0  0  0  0
  1 26  1  0  0  0  0
  1  3  1  0  0  0  0
  2  1  2  0  0  0  0
  3  4  1  0  0  0  0
  5 12  1  0  0  0  0
  6  8  1  0  0  0  0
  7  4  1  1  0  0  0
  7  6  1  0  0  0  0
  7 14  1  0  0  0  0
  8 15  1  0  0  0  0
  8 16  1  0  0  0  0
 10 13  1  0  0  0  0
 12 10  2  0  0  0  0
 12  6  1  0  0  0  0
 13 23  1  6  0  0  0
 13 16  1  0  0  0  0
 14 15  1  0  0  0  0
 15  9  2  0  0  0  0
 16 11  2  0  0  0  0
 17 18  1  0  0  0  0
 18 21  2  0  0  0  0
 18  5  1  0  0  0  0
 20 17  1  0  0  0  0
 20 22  1  0  0  0  0
 22 19  1  0  0  0  0
 22 21  1  0  0  0  0
 24 25  1  0  0  0  0
 24 23  1  0  0  0  0
 25 23  1  0  0  0  0
 27 26  1  0  0  0  0
 29 30  1  0  0  0  0
 29 31  1  0  0  0  0
 30 32  1  0  0  0  0
 31 33  1  0  0  0  0
 32 27  1  1  0  0  0
 32 28  1  0  0  0  0
 33 28  1  0  0  0  0
 33 44  1  1  0  0  0
 34 40  1  6  0  0  0
 34 35  1  0  0  0  0
 35 37  1  0  0  0  0
 36 34  1  0  0  0  0
 36 38  1  0  0  0  0
 38 37  1  1  0  0  0
 38 33  1  0  0  0  0
 39 40  2  0  0  0  0
 41 40  1  0  0  0  0
 41 43  1  0  0  0  0
 42 41  2  0  0  0  0
 47 46  1  6  0  0  0
 47 45  1  0  0  0  0
 48 44  1  6  0  0  0
 48 47  1  0  0  0  0
 48 45  1  0  0  0  0
M  END
>  <MODEL>
2

>  <REMARK>
 VINA RESULT:      -7.4      4.555      9.772
  Name = 
  12 active torsions:
  status: ('A' for Active; 'I' for Inactive)
    1  A    between atoms: N_1  and  C_23
    2  A    between atoms: C_2  and  C_24
    3  A    between atoms: C_3  and  C_35
    4  A    between atoms: C_3  and  C_46
    5  A    between atoms: C_6  and  C_14
    6  A    between atoms: C_7  and  C_24
    7  A    between atoms: C_14  and  N_47
    8  A    between atoms: C_19  and  C_28
    9  A    between atoms: C_35  and  C_38
   10  A    between atoms: C_37  and  C_48
   11  A    between atoms: C_42  and  O_45
   12  A    between atoms: O_45  and  C_48
                            x       y       z     vdW  Elec       q    Type
                         _______ _______ _______ _____ _____    ______ ____

>  <TORSDO>
F 12

$$$$
=
 OpenBabel11062412033D

 48 54  0  0  1  0  0  0  0  0999 V2000
  185.2140  178.9260  139.8050 C   0  0  0  0  0  0  0  0  0  0  0  0
  185.1650  178.7710  138.5560 O   0  0  0  0  0  0  0  0  0  0  0  0
  186.4860  178.9690  140.4560 N   0  0  0  0  0  2  0  0  0  0  0  0
  186.6380  179.1580  141.8900 C   0  0  0  0  0  2  0  0  0  0  0  0
  189.0120  177.0010  141.0050 N   0  0  0  0  0  2  0  0  0  0  0  0
  187.9160  177.5220  143.1650 N   0  0  0  0  0  0  0  0  0  0  0  0
  186.5950  177.8200  142.6130 C   0  0  1  0  0  3  0  0  0  0  0  0
  187.8920  177.4360  144.5470 N   0  0  0  0  0  0  0  0  0  0  0  0
  186.2230  177.6200  146.2000 O   0  0  0  0  0  0  0  0  0  0  0  0
  190.1780  176.8420  143.0770 N   0  0  0  0  0  0  0  0  0  0  0  0
  189.0020  176.8530  146.5210 O   0  0  0  0  0  0  0  0  0  0  0  0
  189.0810  177.1320  142.4320 C   0  0  0  0  0  0  0  0  0  0  0  0
  190.3650  176.9740  144.5410 C   0  0  2  0  0  3  0  0  0  0  0  0
  185.6560  177.9020  143.8430 C   0  0  0  0  0  2  0  0  0  0  0  0
  186.5730  177.6460  144.9900 C   0  0  0  0  0  0  0  0  0  0  0  0
  189.0570  177.0660  145.2810 C   0  0  0  0  0  0  0  0  0  0  0  0
  189.8690  176.2260  138.4380 S   0  0  0  0  0  0  0  0  0  0  0  0
  190.1160  176.8200  140.1080 C   0  0  0  0  0  0  0  0  0  0  0  0
  193.5590  177.3130  139.3950 O   0  0  0  0  0  1  0  0  0  0  0  0
  191.6420  176.5110  138.0860 C   0  0  0  0  0  2  0  0  0  0  0  0
  191.3600  177.1540  140.3960 C   0  0  0  0  0  3  0  0  0  0  0  0
  192.2570  176.9580  139.3210 N   0  0  0  0  0  0  0  0  0  0  0  0
  191.2780  178.1500  144.9430 C   0  0  0  0  0  3  0  0  0  0  0  0
  190.9050  179.4490  144.2470 C   0  0  0  0  0  2  0  0  0  0  0  0
  192.1150  178.6590  143.7810 C   0  0  0  0  0  2  0  0  0  0  0  0
  183.9470  179.1010  140.5810 C   0  0  0  0  0  2  0  0  0  0  0  0
  183.3030  177.7510  140.8520 C   0  0  0  0  0  2  0  0  0  0  0  0
  181.8820  177.0740  138.9270 C   0  0  0  0  0  2  0  0  0  0  0  0
  179.8070  179.0570  139.8450 C   0  0  0  0  0  2  0  0  0  0  0  0
  181.2740  179.1130  140.2780 C   0  0  0  0  0  2  0  0  0  0  0  0
  179.5030  177.8960  138.8810 C   0  0  0  0  0  2  0  0  0  0  0  0
  181.8800  177.7140  140.3220 C   0  0  2  0  0  3  0  0  0  0  0  0
  180.7150  177.4870  138.0040 C   0  0  1  0  0  0  0  0  0  0  0  0
  180.1920  180.2630  135.8720 C   0  0  1  0  0  3  0  0  0  0  0  0
  181.1850  179.5680  134.9670 C   0  0  0  0  0  2  0  0  0  0  0  0
  180.3210  179.7780  137.1890 O   0  0  0  0  0  0  0  0  0  0  0  0
  181.4580  178.2970  135.6930 C   0  0  0  0  0  2  0  0  0  0  0  0
  181.2030  178.6790  137.1370 C   0  0  2  0  0  3  0  0  0  0  0  0
  180.5510  182.3640  134.6550 C   0  0  0  0  0  2  0  0  0  0  0  0
  180.3600  181.7530  135.8230 C   0  0  0  0  0  0  0  0  0  0  0  0
  180.1570  182.5440  137.0500 C   0  0  0  0  0  0  0  0  0  0  0  0
  181.2340  183.1760  137.6590 O   0  0  0  0  0  1  0  0  0  0  0  0
  179.0110  182.6490  137.5650 O   0  0  0  0  0  0  0  0  0  0  0  0
  180.4150  176.3470  137.2080 O   0  0  0  0  0  0  0  0  0  0  0  0
  181.3720  174.2730  136.5080 C   0  0  0  0  0  2  0  0  0  0  0  0
  178.9310  174.1270  136.9020 C   0  0  0  0  0  1  0  0  0  0  0  0
  180.3050  173.9230  137.5250 C   0  0  2  0  0  3  0  0  0  0  0  0
  181.1170  175.2130  137.6680 C   0  0  2  0  0  3  0  0  0  0  0  0
  1  3  1  0  0  0  0
  1 26  1  0  0  0  0
  2  1  2  0  0  0  0
  3  4  1  0  0  0  0
  5 12  1  0  0  0  0
  6  8  1  0  0  0  0
  7  4  1  1  0  0  0
  7  6  1  0  0  0  0
  7 14  1  0  0  0  0
  8 15  1  0  0  0  0
  8 16  1  0  0  0  0
 10 13  1  0  0  0  0
 12 10  2  0  0  0  0
 12  6  1  0  0  0  0
 13 23  1  6  0  0  0
 13 16  1  0  0  0  0
 14 15  1  0  0  0  0
 15  9  2  0  0  0  0
 16 11  2  0  0  0  0
 17 18  1  0  0  0  0
 18 21  2  0  0  0  0
 18  5  1  0  0  0  0
 20 17  1  0  0  0  0
 20 22  1  0  0  0  0
 22 19  1  0  0  0  0
 22 21  1  0  0  0  0
 24 23  1  0  0  0  0
 25 24  1  0  0  0  0
 25 23  1  0  0  0  0
 26 27  1  0  0  0  0
 28 32  1  0  0  0  0
 29 30  1  0  0  0  0
 30 32  1  0  0  0  0
 31 29  1  0  0  0  0
 32 27  1  6  0  0  0
 33 44  1  6  0  0  0
 33 31  1  0  0  0  0
 33 28  1  0  0  0  0
 34 40  1  1  0  0  0
 34 36  1  0  0  0  0
 35 37  1  0  0  0  0
 35 34  1  0  0  0  0
 38 37  1  6  0  0  0
 38 36  1  0  0  0  0
 38 33  1  0  0  0  0
 39 40  2  0  0  0  0
 40 41  1  0  0  0  0
 41 43  2  0  0  0  0
 41 42  1  0  0  0  0
 45 47  1  0  0  0  0
 45 48  1  0  0  0  0
 47 46  1  6  0  0  0
 47 48  1  0  0  0  0
 48 44  1  6  0  0  0
M  END
>  <MODEL>
3

>  <REMARK>
 VINA RESULT:      -7.3      5.049      9.786
  Name = 
  12 active torsions:
  status: ('A' for Active; 'I' for Inactive)
    1  A    between atoms: N_1  and  C_23
    2  A    between atoms: C_2  and  C_24
    3  A    between atoms: C_3  and  C_35
    4  A    between atoms: C_3  and  C_46
    5  A    between atoms: C_6  and  C_14
    6  A    between atoms: C_7  and  C_24
    7  A    between atoms: C_14  and  N_47
    8  A    between atoms: C_19  and  C_28
    9  A    between atoms: C_35  and  C_38
   10  A    between atoms: C_37  and  C_48
   11  A    between atoms: C_42  and  O_45
   12  A    between atoms: O_45  and  C_48
                            x       y       z     vdW  Elec       q    Type
                         _______ _______ _______ _____ _____    ______ ____

>  <TORSDO>
F 12

$$$$
=
 OpenBabel11062412033D

 48 54  0  0  1  0  0  0  0  0999 V2000
  185.5870  178.7850  139.3060 C   0  0  0  0  0  0  0  0  0  0  0  0
  185.8000  178.5860  138.0810 O   0  0  0  0  0  0  0  0  0  0  0  0
  186.6940  178.8650  140.2070 N   0  0  0  0  0  2  0  0  0  0  0  0
  186.5430  179.1060  141.6330 C   0  0  0  0  0  2  0  0  0  0  0  0
  189.0260  176.9940  140.9680 N   0  0  0  0  0  2  0  0  0  0  0  0
  187.7820  177.5490  143.0370 N   0  0  0  0  0  0  0  0  0  0  0  0
  186.4910  177.7900  142.3950 C   0  0  1  0  0  3  0  0  0  0  0  0
  187.6730  177.5040  144.4170 N   0  0  0  0  0  0  0  0  0  0  0  0
  185.8990  177.6900  145.9560 O   0  0  0  0  0  0  0  0  0  0  0  0
  190.0620  176.9330  143.1130 N   0  0  0  0  0  0  0  0  0  0  0  0
  188.6710  177.0150  146.4740 O   0  0  0  0  0  0  0  0  0  0  0  0
  189.0010  177.1700  142.3910 C   0  0  0  0  0  0  0  0  0  0  0  0
  190.1530  177.1140  144.5800 C   0  0  2  0  0  3  0  0  0  0  0  0
  185.4740  177.8830  143.5610 C   0  0  0  0  0  2  0  0  0  0  0  0
  186.3230  177.6880  144.7700 C   0  0  0  0  0  0  0  0  0  0  0  0
  188.7990  177.1910  145.2340 C   0  0  0  0  0  0  0  0  0  0  0  0
  190.0660  176.1490  138.4920 S   0  0  0  0  0  0  0  0  0  0  0  0
  190.1890  176.8180  140.1480 C   0  0  0  0  0  0  0  0  0  0  0  0
  193.6510  177.4070  139.6240 O   0  0  0  0  0  1  0  0  0  0  0  0
  191.8470  176.4850  138.2360 C   0  0  0  0  0  2  0  0  0  0  0  0
  191.4000  177.2080  140.4960 C   0  0  0  0  0  3  0  0  0  0  0  0
  192.3690  177.0020  139.4870 N   0  0  0  0  0  0  0  0  0  0  0  0
  191.0070  178.3290  145.0000 C   0  0  0  0  0  3  0  0  0  0  0  0
  190.8310  179.5200  144.0720 C   0  0  0  0  0  2  0  0  0  0  0  0
  192.0810  178.6640  143.9780 C   0  0  0  0  0  2  0  0  0  0  0  0
  184.1850  178.9740  139.7930 C   0  0  0  0  0  2  0  0  0  0  0  0
  183.4390  179.9450  138.8920 C   0  0  0  0  0  2  0  0  0  0  0  0
  181.6750  178.9240  140.3160 C   0  0  0  0  0  2  0  0  0  0  0  0
  179.6930  179.4130  138.1000 C   0  0  0  0  0  2  0  0  0  0  0  0
  181.2080  179.3890  137.8830 C   0  0  0  0  0  2  0  0  0  0  0  0
  179.2850  179.1460  139.5590 C   0  0  0  0  0  2  0  0  0  0  0  0
  181.9420  179.8650  139.1330 C   0  0  2  0  0  3  0  0  0  0  0  0
  180.2880  178.2470  140.3280 C   0  0  1  0  0  0  0  0  0  0  0  0
  181.3650  176.1230  137.7100 C   0  0  1  0  0  3  0  0  0  0  0  0
  179.9250  175.6570  137.6930 C   0  0  0  0  0  2  0  0  0  0  0  0
  181.6570  176.7380  138.9430 O   0  0  0  0  0  0  0  0  0  0  0  0
  179.2840  176.5360  138.7110 C   0  0  0  0  0  2  0  0  0  0  0  0
  180.4370  176.8630  139.6390 C   0  0  2  0  0  3  0  0  0  0  0  0
  183.5000  174.9530  138.0200 C   0  0  0  0  0  2  0  0  0  0  0  0
  182.3070  174.9890  137.4300 C   0  0  0  0  0  0  0  0  0  0  0  0
  181.8400  173.8450  136.6270 C   0  0  0  0  0  0  0  0  0  0  0  0
  181.4770  172.6570  137.2500 O   0  0  0  0  0  1  0  0  0  0  0  0
  181.7740  173.9250  135.3700 O   0  0  0  0  0  0  0  0  0  0  0  0
  179.9200  178.1160  141.6950 O   0  0  0  0  0  0  0  0  0  0  0  0
  179.8070  180.2320  142.8000 C   0  0  0  0  0  2  0  0  0  0  0  0
  179.8120  178.3180  144.3730 C   0  0  0  0  0  1  0  0  0  0  0  0
  178.9320  179.2910  143.6010 C   0  0  2  0  0  3  0  0  0  0  0  0
  179.0360  179.1460  142.0800 C   0  0  2  0  0  3  0  0  0  0  0  0
  1 26  1  0  0  0  0
  1  3  1  0  0  0  0
  2  1  2  0  0  0  0
  3  4  1  0  0  0  0
  5 12  1  0  0  0  0
  6  8  1  0  0  0  0
  7  4  1  1  0  0  0
  7  6  1  0  0  0  0
  7 14  1  0  0  0  0
  8 15  1  0  0  0  0
  8 16  1  0  0  0  0
 10 13  1  0  0  0  0
 12  6  1  0  0  0  0
 12 10  2  0  0  0  0
 13 23  1  6  0  0  0
 13 16  1  0  0  0  0
 14 15  1  0  0  0  0
 15  9  2  0  0  0  0
 16 11  2  0  0  0  0
 17 18  1  0  0  0  0
 18 21  2  0  0  0  0
 18  5  1  0  0  0  0
 20 17  1  0  0  0  0
 20 22  1  0  0  0  0
 22 19  1  0  0  0  0
 22 21  1  0  0  0  0
 24 23  1  0  0  0  0
 25 24  1  0  0  0  0
 25 23  1  0  0  0  0
 27 26  1  0  0  0  0
 28 33  1  0  0  0  0
 29 31  1  0  0  0  0
 30 29  1  0  0  0  0
 30 32  1  0  0  0  0
 31 33  1  0  0  0  0
 32 27  1  6  0  0  0
 32 28  1  0  0  0  0
 33 44  1  1  0  0  0
 34 40  1  1  0  0  0
 34 36  1  0  0  0  0
 35 34  1  0  0  0  0
 35 37  1  0  0  0  0
 36 38  1  0  0  0  0
 38 37  1  6  0  0  0
 38 33  1  0  0  0  0
 40 39  2  0  0  0  0
 41 42  1  0  0  0  0
 41 40  1  0  0  0  0
 43 41  2  0  0  0  0
 45 47  1  0  0  0  0
 47 46  1  1  0  0  0
 48 44  1  1  0  0  0
 48 45  1  0  0  0  0
 48 47  1  0  0  0  0
M  END
>  <MODEL>
4

>  <REMARK>
 VINA RESULT:      -7.1      4.712      9.247
  Name = 
  12 active torsions:
  status: ('A' for Active; 'I' for Inactive)
    1  A    between atoms: N_1  and  C_23
    2  A    between atoms: C_2  and  C_24
    3  A    between atoms: C_3  and  C_35
    4  A    between atoms: C_3  and  C_46
    5  A    between atoms: C_6  and  C_14
    6  A    between atoms: C_7  and  C_24
    7  A    between atoms: C_14  and  N_47
    8  A    between atoms: C_19  and  C_28
    9  A    between atoms: C_35  and  C_38
   10  A    between atoms: C_37  and  C_48
   11  A    between atoms: C_42  and  O_45
   12  A    between atoms: O_45  and  C_48
                            x       y       z     vdW  Elec       q    Type
                         _______ _______ _______ _____ _____    ______ ____

>  <TORSDO>
F 12

$$$$
=
 OpenBabel11062412033D

 48 54  0  0  1  0  0  0  0  0999 V2000
  186.9020  178.5990  138.8620 C   0  0  0  0  0  0  0  0  0  0  0  0
  187.6660  178.4540  137.8710 O   0  0  0  0  0  0  0  0  0  0  0  0
  187.4600  178.9490  140.1310 N   0  0  0  0  0  2  0  0  0  0  0  0
  186.6540  179.1510  141.3240 C   0  0  0  0  0  2  0  0  0  0  0  0
  189.1260  176.9740  140.8550 N   0  0  0  0  0  2  0  0  0  0  0  0
  187.7750  177.6020  142.8330 N   0  0  0  0  0  0  0  0  0  0  0  0
  186.5290  177.8540  142.1110 C   0  0  1  0  0  3  0  0  0  0  0  0
  187.5840  177.5920  144.2050 N   0  0  0  0  0  0  0  0  0  0  0  0
  185.7260  177.8490  145.6320 O   0  0  0  0  0  0  0  0  0  0  0  0
  190.0330  176.9420  143.0580 N   0  0  0  0  0  0  0  0  0  0  0  0
  188.4490  177.1310  146.3290 O   0  0  0  0  0  0  0  0  0  0  0  0
  189.0210  177.1840  142.2700 C   0  0  0  0  0  0  0  0  0  0  0  0
  190.0410  177.1570  144.5240 C   0  0  2  0  0  3  0  0  0  0  0  0
  185.4480  177.9940  143.2120 C   0  0  0  0  0  2  0  0  0  0  0  0
  186.2190  177.8110  144.4740 C   0  0  0  0  0  0  0  0  0  0  0  0
  188.6530  177.2750  145.0940 C   0  0  0  0  0  0  0  0  0  0  0  0
  190.3020  175.9580  138.5070 S   0  0  0  0  0  0  0  0  0  0  0  0
  190.3320  176.7560  140.1090 C   0  0  0  0  0  0  0  0  0  0  0  0
  193.8070  177.3650  139.7110 O   0  0  0  0  0  1  0  0  0  0  0  0
  192.0880  176.3040  138.3130 C   0  0  0  0  0  2  0  0  0  0  0  0
  191.5180  177.1940  140.4850 C   0  0  0  0  0  3  0  0  0  0  0  0
  192.5390  176.9280  139.5440 N   0  0  0  0  0  0  0  0  0  0  0  0
  190.8940  178.3630  144.9670 C   0  0  0  0  0  3  0  0  0  0  0  0
  190.8500  179.5120  143.9720 C   0  0  0  0  0  2  0  0  0  0  0  0
  192.0720  178.6130  144.0390 C   0  0  0  0  0  2  0  0  0  0  0  0
  185.4250  178.4440  138.6880 C   0  0  0  0  0  2  0  0  0  0  0  0
  185.1100  177.1220  138.0050 C   0  0  0  0  0  2  0  0  0  0  0  0
  182.9310  178.3150  138.1070 C   0  0  0  0  0  2  0  0  0  0  0  0
  181.5420  175.6410  138.1450 C   0  0  0  0  0  2  0  0  0  0  0  0
  183.0180  175.8280  138.5060 C   0  0  0  0  0  2  0  0  0  0  0  0
  180.8360  176.9580  137.7780 C   0  0  0  0  0  2  0  0  0  0  0  0
  183.6210  176.9960  137.7330 C   0  0  2  0  0  3  0  0  0  0  0  0
  181.4370  178.2010  138.4840 C   0  0  1  0  0  0  0  0  0  0  0  0
  180.6850  179.3960  141.7300 C   0  0  1  0  0  3  0  0  0  0  0  0
  182.1020  178.9770  142.0530 C   0  0  0  0  0  2  0  0  0  0  0  0
  180.2390  178.7290  140.5710 O   0  0  0  0  0  0  0  0  0  0  0  0
  182.6160  178.5110  140.7350 C   0  0  0  0  0  2  0  0  0  0  0  0
  181.3540  178.0580  140.0290 C   0  0  2  0  0  3  0  0  0  0  0  0
  178.9310  180.1000  143.2960 C   0  0  0  0  0  2  0  0  0  0  0  0
  179.7650  179.1450  142.8890 C   0  0  0  0  0  0  0  0  0  0  0  0
  179.6840  177.7910  143.4660 C   0  0  0  0  0  0  0  0  0  0  0  0
  179.6110  176.6810  142.6320 O   0  0  0  0  0  0  0  0  0  0  0  0
  179.6690  177.6240  144.7150 O   0  0  0  0  0  1  0  0  0  0  0  0
  180.8200  179.4000  138.0340 O   0  0  0  0  0  0  0  0  0  0  0  0
  181.3450  181.6310  138.7110 C   0  0  0  0  0  2  0  0  0  0  0  0
  179.7160  181.5430  136.8460 C   0  0  0  0  0  1  0  0  0  0  0  0
  181.1900  181.6720  137.2050 C   0  0  2  0  0  3  0  0  0  0  0  0
  181.7710  180.4320  137.8900 C   0  0  2  0  0  3  0  0  0  0  0  0
  1  3  1  0  0  0  0
  2  1  2  0  0  0  0
  3  4  1  0  0  0  0
  5 12  1  0  0  0  0
  6  8  1  0  0  0  0
  7  4  1  1  0  0  0
  7  6  1  0  0  0  0
  7 14  1  0  0  0  0
  8 15  1  0  0  0  0
  8 16  1  0  0  0  0
 10 13  1  0  0  0  0
 12  6  1  0  0  0  0
 12 10  2  0  0  0  0
 13 23  1  6  0  0  0
 13 16  1  0  0  0  0
 14 15  1  0  0  0  0
 15  9  2  0  0  0  0
 16 11  2  0  0  0  0
 17 18  1  0  0  0  0
 18 21  2  0  0  0  0
 18  5  1  0  0  0  0
 20 17  1  0  0  0  0
 20 22  1  0  0  0  0
 22 19  1  0  0  0  0
 22 21  1  0  0  0  0
 24 25  1  0  0  0  0
 24 23  1  0  0  0  0
 25 23  1  0  0  0  0
 26  1  1  0  0  0  0
 27 26  1  0  0  0  0
 28 33  1  0  0  0  0
 29 30  1  0  0  0  0
 31 29  1  0  0  0  0
 31 33  1  0  0  0  0
 32 27  1  1  0  0  0
 32 28  1  0  0  0  0
 32 30  1  0  0  0  0
 33 44  1  6  0  0  0
 33 38  1  0  0  0  0
 34 35  1  0  0  0  0
 34 40  1  1  0  0  0
 36 34  1  0  0  0  0
 37 35  1  0  0  0  0
 38 36  1  0  0  0  0
 38 37  1  1  0  0  0
 40 39  2  0  0  0  0
 40 41  1  0  0  0  0
 41 43  1  0  0  0  0
 42 41  2  0  0  0  0
 47 46  1  1  0  0  0
 47 48  1  0  0  0  0
 47 45  1  0  0  0  0
 48 44  1  1  0  0  0
 48 45  1  0  0  0  0
M  END
>  <MODEL>
5

>  <REMARK>
 VINA RESULT:      -7.0      4.391      8.669
  Name = 
  12 active torsions:
  status: ('A' for Active; 'I' for Inactive)
    1  A    between atoms: N_1  and  C_23
    2  A    between atoms: C_2  and  C_24
    3  A    between atoms: C_3  and  C_35
    4  A    between atoms: C_3  and  C_46
    5  A    between atoms: C_6  and  C_14
    6  A    between atoms: C_7  and  C_24
    7  A    between atoms: C_14  and  N_47
    8  A    between atoms: C_19  and  C_28
    9  A    between atoms: C_35  and  C_38
   10  A    between atoms: C_37  and  C_48
   11  A    between atoms: C_42  and  O_45
   12  A    between atoms: O_45  and  C_48
                            x       y       z     vdW  Elec       q    Type
                         _______ _______ _______ _____ _____    ______ ____

>  <TORSDO>
F 12

$$$$
=
 OpenBabel11062412033D

 48 54  0  0  1  0  0  0  0  0999 V2000
  185.2160  179.1000  139.9320 C   0  0  0  0  0  0  0  0  0  0  0  0
  185.5970  179.0050  138.7350 O   0  0  0  0  0  0  0  0  0  0  0  0
  186.1760  179.3770  140.9540 N   0  0  0  0  0  2  0  0  0  0  0  0
  185.8250  179.5170  142.3580 C   0  0  0  0  0  2  0  0  0  0  0  0
  188.1660  177.4140  141.2780 N   0  0  0  0  0  2  0  0  0  0  0  0
  187.2010  177.8720  143.5120 N   0  0  0  0  0  0  0  0  0  0  0  0
  185.8450  178.1630  143.0510 C   0  0  1  0  0  3  0  0  0  0  0  0
  187.2650  177.7550  144.8910 N   0  0  0  0  0  0  0  0  0  0  0  0
  185.7000  177.8790  146.6490 O   0  0  0  0  0  0  0  0  0  0  0  0
  189.4610  177.2260  143.2690 N   0  0  0  0  0  0  0  0  0  0  0  0
  188.5030  177.1450  146.7790 O   0  0  0  0  0  0  0  0  0  0  0  0
  188.3230  177.5150  142.7000 C   0  0  0  0  0  0  0  0  0  0  0  0
  189.7380  177.3290  144.7200 C   0  0  2  0  0  3  0  0  0  0  0  0
  184.9830  178.2050  144.3390 C   0  0  0  0  0  2  0  0  0  0  0  0
  185.9730  177.9360  145.4200 C   0  0  0  0  0  0  0  0  0  0  0  0
  188.4780  177.3850  145.5430 C   0  0  0  0  0  0  0  0  0  0  0  0
  190.9080  176.9790  140.8110 S   0  0  0  0  0  0  0  0  0  0  0  0
  189.2150  177.2690  140.3100 C   0  0  0  0  0  0  0  0  0  0  0  0
  190.1790  176.8680  136.9160 O   0  0  0  0  0  1  0  0  0  0  0  0
  191.3770  176.7520  139.0570 C   0  0  0  0  0  2  0  0  0  0  0  0
  189.0140  177.2430  139.0060 C   0  0  0  0  0  3  0  0  0  0  0  0
  190.1910  177.0060  138.2610 N   0  0  0  0  0  0  0  0  0  0  0  0
  190.6600  178.5090  145.0920 C   0  0  0  0  0  3  0  0  0  0  0  0
  190.9020  179.4550  143.9270 C   0  0  0  0  0  2  0  0  0  0  0  0
  191.9810  178.4710  144.3430 C   0  0  0  0  0  2  0  0  0  0  0  0
  183.7630  178.9600  140.2610 C   0  0  0  0  0  2  0  0  0  0  0  0
  183.3560  177.4950  140.2420 C   0  0  0  0  0  2  0  0  0  0  0  0
  182.3810  175.8050  138.7010 C   0  0  0  0  0  2  0  0  0  0  0  0
  181.2110  178.0560  137.0750 C   0  0  0  0  0  2  0  0  0  0  0  0
  182.3710  178.2420  138.0570 C   0  0  0  0  0  2  0  0  0  0  0  0
  180.7150  176.6030  136.9910 C   0  0  0  0  0  2  0  0  0  0  0  0
  182.2690  177.2490  139.2100 C   0  0  2  0  0  3  0  0  0  0  0  0
  181.8190  175.5530  137.2850 C   0  0  1  0  0  0  0  0  0  0  0  0
  184.7430  177.1110  136.0410 C   0  0  1  0  0  3  0  0  0  0  0  0
  183.9960  177.1310  134.7260 C   0  0  0  0  0  2  0  0  0  0  0  0
  184.1790  176.1480  136.9000 O   0  0  0  0  0  0  0  0  0  0  0  0
  182.6670  176.5700  135.0950 C   0  0  0  0  0  2  0  0  0  0  0  0
  182.9970  175.6890  136.2820 C   0  0  2  0  0  3  0  0  0  0  0  0
  187.0580  177.8860  135.7720 C   0  0  0  0  0  2  0  0  0  0  0  0
  186.2080  176.8610  135.8310 C   0  0  0  0  0  0  0  0  0  0  0  0
  186.7140  175.4770  135.8500 C   0  0  0  0  0  0  0  0  0  0  0  0
  186.3440  174.5860  134.8490 O   0  0  0  0  0  0  0  0  0  0  0  0
  187.4760  175.0830  136.7730 O   0  0  0  0  0  1  0  0  0  0  0  0
  181.2880  174.2340  137.2960 O   0  0  0  0  0  0  0  0  0  0  0  0
  181.4440  172.6290  135.5330 C   0  0  0  0  0  2  0  0  0  0  0  0
  180.4270  171.7060  137.5950 C   0  0  0  0  0  1  0  0  0  0  0  0
  181.7240  171.8750  136.8160 C   0  0  2  0  0  3  0  0  0  0  0  0
  182.1680  173.3320  136.6620 C   0  0  2  0  0  3  0  0  0  0  0  0
  1 26  1  0  0  0  0
  1  3  1  0  0  0  0
  2  1  2  0  0  0  0
  3  4  1  0  0  0  0
  5 12  1  0  0  0  0
  6  8  1  0  0  0  0
  7  4  1  1  0  0  0
  7  6  1  0  0  0  0
  7 14  1  0  0  0  0
  8 15  1  0  0  0  0
  8 16  1  0  0  0  0
 10 13  1  0  0  0  0
 12 10  2  0  0  0  0
 12  6  1  0  0  0  0
 13 23  1  6  0  0  0
 13 16  1  0  0  0  0
 14 15  1  0  0  0  0
 15  9  2  0  0  0  0
 16 11  2  0  0  0  0
 18 17  1  0  0  0  0
 18  5  1  0  0  0  0
 19 22  1  0  0  0  0
 20 17  1  0  0  0  0
 21 18  2  0  0  0  0
 22 21  1  0  0  0  0
 22 20  1  0  0  0  0
 24 25  1  0  0  0  0
 24 23  1  0  0  0  0
 25 23  1  0  0  0  0
 27 26  1  0  0  0  0
 28 32  1  0  0  0  0
 29 30  1  0  0  0  0
 30 32  1  0  0  0  0
 31 29  1  0  0  0  0
 31 33  1  0  0  0  0
 32 27  1  1  0  0  0
 33 44  1  6  0  0  0
 33 28  1  0  0  0  0
 34 40  1  6  0  0  0
 34 36  1  0  0  0  0
 35 37  1  0  0  0  0
 35 34  1  0  0  0  0
 38 37  1  6  0  0  0
 38 36  1  0  0  0  0
 38 33  1  0  0  0  0
 39 40  2  0  0  0  0
 40 41  1  0  0  0  0
 41 43  1  0  0  0  0
 42 41  2  0  0  0  0
 45 48  1  0  0  0  0
 45 47  1  0  0  0  0
 47 46  1  1  0  0  0
 48 47  1  0  0  0  0
 48 44  1  1  0  0  0
M  END
>  <MODEL>
6

>  <REMARK>
 VINA RESULT:      -6.8      3.784      9.753
  Name = 
  12 active torsions:
  status: ('A' for Active; 'I' for Inactive)
    1  A    between atoms: N_1  and  C_23
    2  A    between atoms: C_2  and  C_24
    3  A    between atoms: C_3  and  C_35
    4  A    between atoms: C_3  and  C_46
    5  A    between atoms: C_6  and  C_14
    6  A    between atoms: C_7  and  C_24
    7  A    between atoms: C_14  and  N_47
    8  A    between atoms: C_19  and  C_28
    9  A    between atoms: C_35  and  C_38
   10  A    between atoms: C_37  and  C_48
   11  A    between atoms: C_42  and  O_45
   12  A    between atoms: O_45  and  C_48
                            x       y       z     vdW  Elec       q    Type
                         _______ _______ _______ _____ _____    ______ ____

>  <TORSDO>
F 12

$$$$
=
 OpenBabel11062412033D

 48 54  0  0  1  0  0  0  0  0999 V2000
  190.7300  176.7250  142.1050 C   0  0  0  0  0  0  0  0  0  0  0  0
  191.9140  176.6410  142.5240 O   0  0  0  0  0  0  0  0  0  0  0  0
  189.6470  176.5110  143.0140 N   0  0  0  0  0  2  0  0  0  0  0  0
  188.2500  176.6020  142.6220 C   0  0  0  0  0  2  0  0  0  0  0  0
  187.5110  178.4270  139.9390 N   0  0  0  0  0  2  0  0  0  0  0  0
  186.4620  178.1940  142.1700 N   0  0  0  0  0  0  0  0  0  0  0  0
  187.7020  177.9910  142.9170 C   0  0  1  0  0  3  0  0  0  0  0  0
  185.3790  178.3920  143.0110 N   0  0  0  0  0  0  0  0  0  0  0  0
  185.0800  178.5130  145.3450 O   0  0  0  0  0  0  0  0  0  0  0  0
  185.1570  178.6290  140.2480 N   0  0  0  0  0  0  0  0  0  0  0  0
  183.1370  179.0120  143.2500 O   0  0  0  0  0  0  0  0  0  0  0  0
  186.3360  178.4030  140.7600 C   0  0  0  0  0  0  0  0  0  0  0  0
  183.8810  178.5950  141.0000 C   0  0  2  0  0  3  0  0  0  0  0  0
  187.2960  178.1040  144.4080 C   0  0  0  0  0  2  0  0  0  0  0  0
  185.8280  178.3560  144.3440 C   0  0  0  0  0  0  0  0  0  0  0  0
  184.0880  178.6980  142.4870 C   0  0  0  0  0  0  0  0  0  0  0  0
  188.9970  178.9900  137.6150 S   0  0  0  0  0  0  0  0  0  0  0  0
  187.5530  178.4210  138.5050 C   0  0  0  0  0  0  0  0  0  0  0  0
  186.0840  177.4230  135.4300 O   0  0  0  0  0  1  0  0  0  0  0  0
  188.2310  178.4470  136.0450 C   0  0  0  0  0  2  0  0  0  0  0  0
  186.5970  177.9230  137.7440 C   0  0  0  0  0  3  0  0  0  0  0  0
  186.9030  177.9570  136.3640 N   0  0  0  0  0  0  0  0  0  0  0  0
  183.0060  177.3670  140.6760 C   0  0  0  0  0  3  0  0  0  0  0  0
  182.4140  177.4190  139.2760 C   0  0  0  0  0  2  0  0  0  0  0  0
  181.5440  177.7320  140.4800 C   0  0  0  0  0  2  0  0  0  0  0  0
  190.4720  177.0870  140.6770 C   0  0  0  0  0  2  0  0  0  0  0  0
  191.7390  176.9180  139.8530 C   0  0  0  0  0  2  0  0  0  0  0  0
  190.6790  175.2810  138.3100 C   0  0  0  0  0  2  0  0  0  0  0  0
  192.3060  176.4480  136.0580 C   0  0  0  0  0  2  0  0  0  0  0  0
  192.6620  176.6320  137.5360 C   0  0  0  0  0  2  0  0  0  0  0  0
  191.0450  175.5950  135.8390 C   0  0  0  0  0  2  0  0  0  0  0  0
  191.4050  176.6310  138.3990 C   0  0  2  0  0  3  0  0  0  0  0  0
  190.8050  174.5470  136.9570 C   0  0  1  0  0  0  0  0  0  0  0  0
  194.2570  173.7830  137.1120 C   0  0  1  0  0  3  0  0  0  0  0  0
  193.9460  172.8280  135.9800 C   0  0  0  0  0  2  0  0  0  0  0  0
  193.0740  174.1050  137.8070 O   0  0  0  0  0  0  0  0  0  0  0  0
  192.5030  173.0870  135.7190 C   0  0  0  0  0  2  0  0  0  0  0  0
  192.0030  173.5650  137.0670 C   0  0  2  0  0  3  0  0  0  0  0  0
  195.4520  171.8930  138.1260 C   0  0  0  0  0  2  0  0  0  0  0  0
  195.2930  173.2130  138.0360 C   0  0  0  0  0  0  0  0  0  0  0  0
  196.2300  174.1220  138.7180 C   0  0  0  0  0  0  0  0  0  0  0  0
  195.7730  174.9770  139.7140 O   0  0  0  0  0  1  0  0  0  0  0  0
  197.4510  174.1420  138.4030 O   0  0  0  0  0  0  0  0  0  0  0  0
  189.5760  173.8580  136.7630 O   0  0  0  0  0  0  0  0  0  0  0  0
  187.2060  174.1530  136.8510 C   0  0  0  0  0  2  0  0  0  0  0  0
  187.9440  172.8150  134.9000 C   0  0  0  0  0  1  0  0  0  0  0  0
  187.5850  174.2130  135.3860 C   0  0  2  0  0  3  0  0  0  0  0  0
  188.5360  174.7590  136.4540 C   0  0  2  0  0  3  0  0  0  0  0  0
  1  2  2  0  0  0  0
  1  3  1  0  0  0  0
  4  3  1  0  0  0  0
  5 12  1  0  0  0  0
  6  7  1  0  0  0  0
  6  8  1  0  0  0  0
  7  4  1  1  0  0  0
  7 14  1  0  0  0  0
  8 15  1  0  0  0  0
 10 12  2  0  0  0  0
 10 13  1  0  0  0  0
 12  6  1  0  0  0  0
 13 23  1  1  0  0  0
 13 16  1  0  0  0  0
 15 14  1  0  0  0  0
 15  9  2  0  0  0  0
 16  8  1  0  0  0  0
 16 11  2  0  0  0  0
 17 18  1  0  0  0  0
 18  5  1  0  0  0  0
 19 22  1  0  0  0  0
 20 22  1  0  0  0  0
 20 17  1  0  0  0  0
 21 18  2  0  0  0  0
 22 21  1  0  0  0  0
 24 25  1  0  0  0  0
 24 23  1  0  0  0  0
 25 23  1  0  0  0  0
 26  1  1  0  0  0  0
 27 26  1  0  0  0  0
 28 32  1  0  0  0  0
 29 30  1  0  0  0  0
 30 32  1  0  0  0  0
 31 29  1  0  0  0  0
 31 33  1  0  0  0  0
 32 27  1  1  0  0  0
 33 44  1  6  0  0  0
 33 38  1  0  0  0  0
 33 28  1  0  0  0  0
 34 36  1  0  0  0  0
 34 40  1  1  0  0  0
 35 34  1  0  0  0  0
 37 35  1  0  0  0  0
 38 37  1  6  0  0  0
 38 36  1  0  0  0  0
 40 39  2  0  0  0  0
 40 41  1  0  0  0  0
 41 42  1  0  0  0  0
 43 41  2  0  0  0  0
 47 46  1  1  0  0  0
 47 48  1  0  0  0  0
 47 45  1  0  0  0  0
 48 44  1  1  0  0  0
 48 45  1  0  0  0  0
M  END
>  <MODEL>
7

>  <REMARK>
 VINA RESULT:      -6.7      2.933      9.120
  Name = 
  12 active torsions:
  status: ('A' for Active; 'I' for Inactive)
    1  A    between atoms: N_1  and  C_23
    2  A    between atoms: C_2  and  C_24
    3  A    between atoms: C_3  and  C_35
    4  A    between atoms: C_3  and  C_46
    5  A    between atoms: C_6  and  C_14
    6  A    between atoms: C_7  and  C_24
    7  A    between atoms: C_14  and  N_47
    8  A    between atoms: C_19  and  C_28
    9  A    between atoms: C_35  and  C_38
   10  A    between atoms: C_37  and  C_48
   11  A    between atoms: C_42  and  O_45
   12  A    between atoms: O_45  and  C_48
                            x       y       z     vdW  Elec       q    Type
                         _______ _______ _______ _____ _____    ______ ____

>  <TORSDO>
F 12

$$$$
=
 OpenBabel11062412033D

 48 54  0  0  1  0  0  0  0  0999 V2000
  192.6050  177.1820  139.7130 C   0  0  0  0  0  0  0  0  0  0  0  0
  193.8420  177.1280  139.4870 O   0  0  0  0  0  0  0  0  0  0  0  0
  191.7110  176.4040  138.9140 N   0  0  0  0  0  2  0  0  0  0  0  0
  190.2700  176.3940  139.1140 C   0  0  0  0  0  2  0  0  0  0  0  0
  190.2530  174.7610  136.2150 N   0  0  0  0  0  2  0  0  0  0  0  0
  188.5990  176.2130  137.3510 N   0  0  0  0  0  0  0  0  0  0  0  0
  189.5680  177.1140  137.9720 C   0  0  1  0  0  3  0  0  0  0  0  0
  187.3020  176.6860  137.4700 N   0  0  0  0  0  0  0  0  0  0  0  0
  186.3070  178.6080  138.4010 O   0  0  0  0  0  0  0  0  0  0  0  0
  187.9070  174.4140  135.9840 N   0  0  0  0  0  0  0  0  0  0  0  0
  185.0560  176.5040  136.8460 O   0  0  0  0  0  0  0  0  0  0  0  0
  188.8900  175.0900  136.5140 C   0  0  0  0  0  0  0  0  0  0  0  0
  186.4690  174.6490  136.2520 C   0  0  2  0  0  3  0  0  0  0  0  0
  188.7250  178.2950  138.5180 C   0  0  0  0  0  2  0  0  0  0  0  0
  187.3310  177.9200  138.1460 C   0  0  0  0  0  0  0  0  0  0  0  0
  186.2110  176.0030  136.8550 C   0  0  0  0  0  0  0  0  0  0  0  0
  192.4350  173.3950  135.0750 S   0  0  0  0  0  0  0  0  0  0  0  0
  190.7240  173.5690  135.5700 C   0  0  0  0  0  0  0  0  0  0  0  0
  190.1280  170.2090  134.5940 O   0  0  0  0  0  1  0  0  0  0  0  0
  192.1100  171.6580  134.6010 C   0  0  0  0  0  2  0  0  0  0  0  0
  189.9820  172.4950  135.3780 C   0  0  0  0  0  3  0  0  0  0  0  0
  190.6930  171.4190  134.7980 N   0  0  0  0  0  0  0  0  0  0  0  0
  185.8160  173.5550  137.1220 C   0  0  0  0  0  3  0  0  0  0  0  0
  184.8820  172.6540  136.3300 C   0  0  0  0  0  2  0  0  0  0  0  0
  184.3110  173.7280  137.2390 C   0  0  0  0  0  2  0  0  0  0  0  0
  192.0930  178.0270  140.8370 C   0  0  0  0  0  2  0  0  0  0  0  0
  191.9490  177.1940  142.1000 C   0  0  0  0  0  2  0  0  0  0  0  0
  189.6890  178.0480  142.6860 C   0  0  0  0  0  2  0  0  0  0  0  0
  188.9330  175.2640  143.5580 C   0  0  0  0  0  2  0  0  0  0  0  0
  190.3820  175.7360  143.4130 C   0  0  0  0  0  2  0  0  0  0  0  0
  187.9030  176.3580  143.2300 C   0  0  0  0  0  2  0  0  0  0  0  0
  190.5000  176.7960  142.3230 C   0  0  2  0  0  3  0  0  0  0  0  0
  188.4130  177.7940  143.5190 C   0  0  1  0  0  0  0  0  0  0  0  0
  189.7960  176.6580  146.5720 C   0  0  1  0  0  3  0  0  0  0  0  0
  188.4600  177.0630  147.1580 C   0  0  0  0  0  2  0  0  0  0  0  0
  189.9990  177.3130  145.3410 O   0  0  0  0  0  0  0  0  0  0  0  0
  187.6950  177.5020  145.9580 C   0  0  0  0  0  2  0  0  0  0  0  0
  188.7890  177.9610  145.0160 C   0  0  2  0  0  3  0  0  0  0  0  0
  190.7800  177.8830  148.4580 C   0  0  0  0  0  2  0  0  0  0  0  0
  190.9170  176.9380  147.5290 C   0  0  0  0  0  0  0  0  0  0  0  0
  192.0990  176.0590  147.5330 C   0  0  0  0  0  0  0  0  0  0  0  0
  192.4110  175.3040  146.4080 O   0  0  0  0  0  0  0  0  0  0  0  0
  192.8340  175.9730  148.5540 O   0  0  0  0  0  1  0  0  0  0  0  0
  187.4660  178.7710  143.1030 O   0  0  0  0  0  0  0  0  0  0  0  0
  185.6470  179.3220  141.6550 C   0  0  0  0  0  2  0  0  0  0  0  0
  184.9440  178.9840  144.0070 C   0  0  0  0  0  1  0  0  0  0  0  0
  185.1050  178.3150  142.6480 C   0  0  2  0  0  3  0  0  0  0  0  0
  186.5570  178.2270  142.1710 C   0  0  2  0  0  3  0  0  0  0  0  0
  1 26  1  0  0  0  0
  2  1  2  0  0  0  0
  3  4  1  0  0  0  0
  3  1  1  0  0  0  0
  5 12  1  0  0  0  0
  6  8  1  0  0  0  0
  6  7  1  0  0  0  0
  7 14  1  0  0  0  0
  7  4  1  1  0  0  0
  8 15  1  0  0  0  0
 10 13  1  0  0  0  0
 10 12  2  0  0  0  0
 11 16  2  0  0  0  0
 12  6  1  0  0  0  0
 13 16  1  0  0  0  0
 13 23  1  1  0  0  0
 15  9  2  0  0  0  0
 15 14  1  0  0  0  0
 16  8  1  0  0  0  0
 17 18  1  0  0  0  0
 18  5  1  0  0  0  0
 19 22  1  0  0  0  0
 20 22  1  0  0  0  0
 20 17  1  0  0  0  0
 21 18  2  0  0  0  0
 22 21  1  0  0  0  0
 23 25  1  0  0  0  0
 24 23  1  0  0  0  0
 24 25  1  0  0  0  0
 26 27  1  0  0  0  0
 28 33  1  0  0  0  0
 30 29  1  0  0  0  0
 31 33  1  0  0  0  0
 31 29  1  0  0  0  0
 32 27  1  1  0  0  0
 32 28  1  0  0  0  0
 32 30  1  0  0  0  0
 33 44  1  6  0  0  0
 33 38  1  0  0  0  0
 34 35  1  0  0  0  0
 34 40  1  1  0  0  0
 36 34  1  0  0  0  0
 37 35  1  0  0  0  0
 38 36  1  0  0  0  0
 38 37  1  1  0  0  0
 40 41  1  0  0  0  0
 40 39  2  0  0  0  0
 41 43  1  0  0  0  0
 42 41  2  0  0  0  0
 45 48  1  0  0  0  0
 45 47  1  0  0  0  0
 47 46  1  1  0  0  0
 48 47  1  0  0  0  0
 48 44  1  1  0  0  0
M  END
>  <MODEL>
8

>  <REMARK>
 VINA RESULT:      -6.6      2.207      4.467
  Name = 
  12 active torsions:
  status: ('A' for Active; 'I' for Inactive)
    1  A    between atoms: N_1  and  C_23
    2  A    between atoms: C_2  and  C_24
    3  A    between atoms: C_3  and  C_35
    4  A    between atoms: C_3  and  C_46
    5  A    between atoms: C_6  and  C_14
    6  A    between atoms: C_7  and  C_24
    7  A    between atoms: C_14  and  N_47
    8  A    between atoms: C_19  and  C_28
    9  A    between atoms: C_35  and  C_38
   10  A    between atoms: C_37  and  C_48
   11  A    between atoms: C_42  and  O_45
   12  A    between atoms: O_45  and  C_48
                            x       y       z     vdW  Elec       q    Type
                         _______ _______ _______ _____ _____    ______ ____

>  <TORSDO>
F 12

$$$$
=
 OpenBabel11062412033D

 48 54  0  0  1  0  0  0  0  0999 V2000
  182.7690  178.8860  143.3710 C   0  0  0  0  0  0  0  0  0  0  0  0
  182.7690  178.7330  144.6210 O   0  0  0  0  0  0  0  0  0  0  0  0
  181.5270  179.0790  142.6890 N   0  0  0  0  0  2  0  0  0  0  0  0
  181.4340  179.2780  141.2510 C   0  0  0  0  0  2  0  0  0  0  0  0
  180.1280  180.7150  138.5490 N   0  0  0  0  0  2  0  0  0  0  0  0
  180.3620  178.3560  139.2670 N   0  0  0  0  0  0  0  0  0  0  0  0
  180.1880  178.6000  140.6980 C   0  0  1  0  0  3  0  0  0  0  0  0
  180.3350  177.0040  138.9660 N   0  0  0  0  0  0  0  0  0  0  0  0
  180.0420  175.0240  140.2090 O   0  0  0  0  0  0  0  0  0  0  0  0
  180.4510  178.9500  136.9810 N   0  0  0  0  0  0  0  0  0  0  0  0
  180.2350  175.3340  137.3320 O   0  0  0  0  0  0  0  0  0  0  0  0
  180.3390  179.3340  138.2230 C   0  0  0  0  0  0  0  0  0  0  0  0
  180.7020  177.5580  136.5400 C   0  0  2  0  0  3  0  0  0  0  0  0
  180.0170  177.1940  141.3270 C   0  0  0  0  0  2  0  0  0  0  0  0
  180.1240  176.2800  140.1540 C   0  0  0  0  0  0  0  0  0  0  0  0
  180.3970  176.5500  137.6150 C   0  0  0  0  0  0  0  0  0  0  0  0
  179.1230  182.1180  136.3240 S   0  0  0  0  0  0  0  0  0  0  0  0
  180.2750  181.8350  137.6640 C   0  0  0  0  0  0  0  0  0  0  0  0
  181.8770  184.9100  136.9020 O   0  0  0  0  0  1  0  0  0  0  0  0
  179.9490  183.7100  135.9650 C   0  0  0  0  0  2  0  0  0  0  0  0
  181.1890  182.7750  137.8140 C   0  0  0  0  0  3  0  0  0  0  0  0
  181.0810  183.8180  136.8660 N   0  0  0  0  0  0  0  0  0  0  0  0
  182.1290  177.3310  135.9980 C   0  0  0  0  0  3  0  0  0  0  0  0
  182.3190  177.8820  134.5940 C   0  0  0  0  0  2  0  0  0  0  0  0
  182.1530  176.3880  134.8060 C   0  0  0  0  0  2  0  0  0  0  0  0
  184.0660  178.9020  142.6250 C   0  0  0  0  0  2  0  0  0  0  0  0
  185.1880  179.3880  143.5300 C   0  0  0  0  0  2  0  0  0  0  0  0
  187.2420  178.7780  144.7910 C   0  0  0  0  0  2  0  0  0  0  0  0
  187.3590  176.2040  143.2290 C   0  0  0  0  0  2  0  0  0  0  0  0
  186.5640  177.4290  142.7720 C   0  0  0  0  0  2  0  0  0  0  0  0
  188.1050  176.4250  144.5570 C   0  0  0  0  0  2  0  0  0  0  0  0
  186.0660  178.2300  143.9710 C   0  0  2  0  0  3  0  0  0  0  0  0
  188.5130  177.9010  144.7990 C   0  0  1  0  0  0  0  0  0  0  0  0
  191.1250  177.5190  142.4410 C   0  0  1  0  0  3  0  0  0  0  0  0
  191.6870  178.7690  143.0800 C   0  0  0  0  0  2  0  0  0  0  0  0
  189.7490  177.4100  142.7250 O   0  0  0  0  0  0  0  0  0  0  0  0
  190.7250  179.0330  144.1860 C   0  0  0  0  0  2  0  0  0  0  0  0
  189.4430  178.4150  143.6660 C   0  0  2  0  0  3  0  0  0  0  0  0
  192.6250  177.4290  140.5000 C   0  0  0  0  0  2  0  0  0  0  0  0
  191.3780  177.5020  140.9620 C   0  0  0  0  0  0  0  0  0  0  0  0
  190.2350  177.4090  140.0350 C   0  0  0  0  0  0  0  0  0  0  0  0
  189.3810  178.4930  139.8700 O   0  0  0  0  0  1  0  0  0  0  0  0
  190.0150  176.3480  139.3910 O   0  0  0  0  0  0  0  0  0  0  0  0
  189.1050  178.0700  146.0810 O   0  0  0  0  0  0  0  0  0  0  0  0
  188.9810  177.5760  148.4160 C   0  0  0  0  0  2  0  0  0  0  0  0
  190.9940  176.6220  147.3300 C   0  0  0  0  0  1  0  0  0  0  0  0
  189.5580  176.3420  147.7540 C   0  0  2  0  0  3  0  0  0  0  0  0
  188.5200  177.1980  147.0240 C   0  0  2  0  0  3  0  0  0  0  0  0
  1  2  2  0  0  0  0
  3  1  1  0  0  0  0
  4  3  1  0  0  0  0
  6  7  1  0  0  0  0
  7  4  1  1  0  0  0
  7 14  1  0  0  0  0
  8  6  1  0  0  0  0
  8 15  1  0  0  0  0
 10 12  2  0  0  0  0
 11 16  2  0  0  0  0
 12  5  1  0  0  0  0
 12  6  1  0  0  0  0
 13 23  1  1  0  0  0
 13 10  1  0  0  0  0
 13 16  1  0  0  0  0
 15  9  2  0  0  0  0
 15 14  1  0  0  0  0
 16  8  1  0  0  0  0
 17 18  1  0  0  0  0
 18 21  2  0  0  0  0
 18  5  1  0  0  0  0
 20 17  1  0  0  0  0
 20 22  1  0  0  0  0
 22 19  1  0  0  0  0
 22 21  1  0  0  0  0
 24 25  1  0  0  0  0
 24 23  1  0  0  0  0
 25 23  1  0  0  0  0
 26  1  1  0  0  0  0
 26 27  1  0  0  0  0
 28 33  1  0  0  0  0
 29 31  1  0  0  0  0
 30 29  1  0  0  0  0
 30 32  1  0  0  0  0
 31 33  1  0  0  0  0
 32 27  1  6  0  0  0
 32 28  1  0  0  0  0
 33 44  1  1  0  0  0
 34 40  1  6  0  0  0
 34 36  1  0  0  0  0
 34 35  1  0  0  0  0
 35 37  1  0  0  0  0
 36 38  1  0  0  0  0
 38 37  1  1  0  0  0
 38 33  1  0  0  0  0
 39 40  2  0  0  0  0
 41 40  1  0  0  0  0
 42 41  1  0  0  0  0
 43 41  2  0  0  0  0
 47 46  1  6  0  0  0
 47 45  1  0  0  0  0
 48 44  1  6  0  0  0
 48 47  1  0  0  0  0
 48 45  1  0  0  0  0
M  END
>  <MODEL>
9

>  <REMARK>
 VINA RESULT:      -6.5      5.492      8.528
  Name = 
  12 active torsions:
  status: ('A' for Active; 'I' for Inactive)
    1  A    between atoms: N_1  and  C_23
    2  A    between atoms: C_2  and  C_24
    3  A    between atoms: C_3  and  C_35
    4  A    between atoms: C_3  and  C_46
    5  A    between atoms: C_6  and  C_14
    6  A    between atoms: C_7  and  C_24
    7  A    between atoms: C_14  and  N_47
    8  A    between atoms: C_19  and  C_28
    9  A    between atoms: C_35  and  C_38
   10  A    between atoms: C_37  and  C_48
   11  A    between atoms: C_42  and  O_45
   12  A    between atoms: O_45  and  C_48
                            x       y       z     vdW  Elec       q    Type
                         _______ _______ _______ _____ _____    ______ ____

>  <TORSDO>
F 12

$$$$
