=
 OpenBabel11062416323D

 29 31  0  0  1  0  0  0  0  0999 V2000
  191.3630  177.6730  142.6290 C   0  0  1  0  0  3  0  0  0  0  0  0
  189.1040  178.0350  141.9590 N   0  0  0  0  0  0  0  0  0  0  0  0
  191.1210  176.9590  141.3040 C   0  0  2  0  0  3  0  0  0  0  0  0
  192.0970  177.3320  140.3750 O   0  0  0  0  0  1  0  0  0  0  0  0
  189.7010  177.3050  140.8530 C   0  0  2  0  0  3  0  0  0  0  0  0
  190.0440  178.3150  143.0280 C   0  0  0  0  0  2  0  0  0  0  0  0
  187.6810  178.1510  142.1390 C   0  0  0  0  0  0  0  0  0  0  0  0
  185.5550  179.0760  141.4400 C   0  0  0  0  0  3  0  0  0  0  0  0
  184.9360  178.4150  142.4530 N   0  0  0  0  0  0  0  0  0  0  0  0
  186.9340  178.9570  141.2670 C   0  0  0  0  0  3  0  0  0  0  0  0
  187.0130  177.4800  143.1830 C   0  0  0  0  0  0  0  0  0  0  0  0
  187.7210  176.6810  144.1230 N   0  0  0  0  0  1  0  0  0  0  0  0
  185.6310  177.6330  143.3210 C   0  0  0  0  0  3  0  0  0  0  0  0
  189.6570  178.1530  139.5800 C   0  0  0  0  0  2  0  0  0  0  0  0
  189.1950  177.3500  138.4500 N   0  0  0  0  0  0  0  0  0  0  0  0
  190.4280  175.1120  137.4970 S   0  0  0  0  0  0  0  0  0  0  0  0
  190.0350  176.4990  136.3630 C   0  0  0  0  0  2  0  0  0  0  0  0
  190.3950  176.9490  137.7120 C   0  0  1  0  0  3  0  0  0  0  0  0
  188.7080  179.5650  137.7980 O   0  0  0  0  0  1  0  0  0  0  0  0
  188.3830  178.2200  137.5860 C   0  0  2  0  0  3  0  0  0  0  0  0
  186.8970  178.0340  137.8740 C   0  0  0  0  0  2  0  0  0  0  0  0
  186.2680  177.1290  136.8310 C   0  0  0  0  0  1  0  0  0  0  0  0
  191.7280  176.7400  143.6030 O   0  0  0  0  0  0  0  0  0  0  0  0
  191.3270  177.2950  144.8230 C   0  0  0  0  0  2  0  0  0  0  0  0
  191.7400  176.3860  145.9710 C   0  0  0  0  0  2  0  0  0  0  0  0
  191.1390  176.8560  147.2860 C   0  0  0  0  0  2  0  0  0  0  0  0
  189.6260  176.8870  147.2000 C   0  0  0  0  0  2  0  0  0  0  0  0
  187.5970  178.1110  147.9050 C   0  0  0  0  0  1  0  0  0  0  0  0
  189.0950  177.9940  148.0860 C   0  0  0  0  0  2  0  0  0  0  0  0
  1  6  1  0  0  0  0
  1 23  1  1  0  0  0
  2  7  1  0  0  0  0
  2  6  1  0  0  0  0
  3  4  1  6  0  0  0
  3  1  1  0  0  0  0
  5 14  1  6  0  0  0
  5  3  1  0  0  0  0
  5  2  1  0  0  0  0
  7 11  1  0  0  0  0
  8  9  2  0  0  0  0
  9 13  1  0  0  0  0
 10  8  1  0  0  0  0
 10  7  2  0  0  0  0
 11 13  2  0  0  0  0
 11 12  1  0  0  0  0
 15 14  1  0  0  0  0
 16 18  1  0  0  0  0
 17 16  1  0  0  0  0
 17 18  1  0  0  0  0
 18 15  1  1  0  0  0
 20 19  1  1  0  0  0
 20 21  1  0  0  0  0
 20 15  1  0  0  0  0
 22 21  1  0  0  0  0
 23 24  1  0  0  0  0
 24 25  1  0  0  0  0
 25 26  1  0  0  0  0
 27 26  1  0  0  0  0
 27 29  1  0  0  0  0
 28 29  1  0  0  0  0
M  END
>  <MODEL>
1

>  <REMARK>
 VINA RESULT:      -6.8      0.000      0.000
  Name = 
  12 active torsions:
  status: ('A' for Active; 'I' for Inactive)
    1  A    between atoms: C_1  and  C_5
    2  A    between atoms: C_1  and  C_12
    3  A    between atoms: C_2  and  O_19
    4  A    between atoms: C_4  and  N_14
    5  A    between atoms: C_5  and  C_8
    6  A    between atoms: C_8  and  C_24
    7  A    between atoms: C_12  and  O_19
    8  A    between atoms: C_16  and  N_20
    9  A    between atoms: C_16  and  C_21
   10  A    between atoms: N_20  and  C_25
   11  A    between atoms: N_20  and  C_27
   12  A    between atoms: C_23  and  C_25
                            x       y       z     vdW  Elec       q    Type
                         _______ _______ _______ _____ _____    ______ ____

>  <TORSDO>
F 12

$$$$
=
 OpenBabel11062416323D

 29 31  0  0  1  0  0  0  0  0999 V2000
  186.0690  178.4240  142.0060 C   0  0  1  0  0  3  0  0  0  0  0  0
  188.3510  177.8550  142.3950 N   0  0  0  0  0  0  0  0  0  0  0  0
  186.8910  178.8190  140.7840 C   0  0  2  0  0  3  0  0  0  0  0  0
  186.3190  178.2780  139.6280 O   0  0  0  0  0  1  0  0  0  0  0  0
  188.3230  178.3390  141.0250 C   0  0  2  0  0  3  0  0  0  0  0  0
  187.0420  177.8470  143.0210 C   0  0  0  0  0  2  0  0  0  0  0  0
  189.5670  177.7390  143.1560 C   0  0  0  0  0  0  0  0  0  0  0  0
  191.3690  178.7860  144.3890 C   0  0  0  0  0  3  0  0  0  0  0  0
  191.9190  177.5650  144.6180 N   0  0  0  0  0  0  0  0  0  0  0  0
  190.1890  178.8940  143.6540 C   0  0  0  0  0  3  0  0  0  0  0  0
  190.1620  176.4870  143.4070 C   0  0  0  0  0  0  0  0  0  0  0  0
  189.6010  175.2840  142.8940 N   0  0  0  0  0  1  0  0  0  0  0  0
  191.3480  176.4270  144.1440 C   0  0  0  0  0  3  0  0  0  0  0  0
  188.7620  177.2290  140.0670 C   0  0  0  0  0  2  0  0  0  0  0  0
  189.6320  177.7700  139.0260 N   0  0  0  0  0  0  0  0  0  0  0  0
  188.6630  179.1330  136.8720 S   0  0  0  0  0  0  0  0  0  0  0  0
  189.8660  177.7690  136.6310 C   0  0  0  0  0  2  0  0  0  0  0  0
  188.9500  177.5310  137.7530 C   0  0  1  0  0  3  0  0  0  0  0  0
  190.6080  175.6240  139.1330 O   0  0  0  0  0  1  0  0  0  0  0  0
  190.8820  176.9940  139.0390 C   0  0  2  0  0  3  0  0  0  0  0  0
  191.7530  177.3910  140.2260 C   0  0  0  0  0  2  0  0  0  0  0  0
  193.2210  177.3200  139.8480 C   0  0  0  0  0  1  0  0  0  0  0  0
  185.4640  179.5600  142.5490 O   0  0  0  0  0  0  0  0  0  0  0  0
  184.4810  179.0800  143.4210 C   0  0  0  0  0  2  0  0  0  0  0  0
  184.6770  179.6790  144.8070 C   0  0  0  0  0  2  0  0  0  0  0  0
  184.6330  178.6030  145.8800 C   0  0  0  0  0  2  0  0  0  0  0  0
  185.8710  178.6680  146.7510 C   0  0  0  0  0  2  0  0  0  0  0  0
  188.2060  177.8560  146.7390 C   0  0  0  0  0  1  0  0  0  0  0  0
  186.7690  177.4900  146.4360 C   0  0  0  0  0  2  0  0  0  0  0  0
  1 23  1  1  0  0  0
  1  6  1  0  0  0  0
  2  6  1  0  0  0  0
  2  7  1  0  0  0  0
  3  4  1  6  0  0  0
  3  5  1  0  0  0  0
  3  1  1  0  0  0  0
  5 14  1  6  0  0  0
  5  2  1  0  0  0  0
  7 11  2  0  0  0  0
  7 10  1  0  0  0  0
  8  9  1  0  0  0  0
 10  8  2  0  0  0  0
 11 13  1  0  0  0  0
 12 11  1  0  0  0  0
 13  9  2  0  0  0  0
 15 20  1  0  0  0  0
 15 14  1  0  0  0  0
 16 18  1  0  0  0  0
 17 16  1  0  0  0  0
 17 18  1  0  0  0  0
 18 15  1  1  0  0  0
 20 19  1  1  0  0  0
 20 21  1  0  0  0  0
 22 21  1  0  0  0  0
 23 24  1  0  0  0  0
 24 25  1  0  0  0  0
 25 26  1  0  0  0  0
 26 27  1  0  0  0  0
 29 28  1  0  0  0  0
 29 27  1  0  0  0  0
M  END
>  <MODEL>
2

>  <REMARK>
 VINA RESULT:      -6.6      2.264      4.737
  Name = 
  12 active torsions:
  status: ('A' for Active; 'I' for Inactive)
    1  A    between atoms: C_1  and  C_5
    2  A    between atoms: C_1  and  C_12
    3  A    between atoms: C_2  and  O_19
    4  A    between atoms: C_4  and  N_14
    5  A    between atoms: C_5  and  C_8
    6  A    between atoms: C_8  and  C_24
    7  A    between atoms: C_12  and  O_19
    8  A    between atoms: C_16  and  N_20
    9  A    between atoms: C_16  and  C_21
   10  A    between atoms: N_20  and  C_25
   11  A    between atoms: N_20  and  C_27
   12  A    between atoms: C_23  and  C_25
                            x       y       z     vdW  Elec       q    Type
                         _______ _______ _______ _____ _____    ______ ____

>  <TORSDO>
F 12

$$$$
=
 OpenBabel11062416323D

 29 31  0  0  1  0  0  0  0  0999 V2000
  189.1370  177.7140  141.5460 C   0  0  1  0  0  3  0  0  0  0  0  0
  188.8060  177.5500  139.1910 N   0  0  0  0  0  0  0  0  0  0  0  0
  190.1470  176.7250  140.9740 C   0  0  2  0  0  3  0  0  0  0  0  0
  191.4390  177.0710  141.3830 O   0  0  0  0  0  1  0  0  0  0  0  0
  189.9780  176.7320  139.4540 C   0  0  2  0  0  3  0  0  0  0  0  0
  188.2800  178.1880  140.3840 C   0  0  0  0  0  2  0  0  0  0  0  0
  188.0460  177.4560  137.9730 C   0  0  0  0  0  0  0  0  0  0  0  0
  186.5510  176.2080  136.5330 C   0  0  0  0  0  3  0  0  0  0  0  0
  186.5750  177.2240  135.6310 N   0  0  0  0  0  0  0  0  0  0  0  0
  187.2860  176.3060  137.7140 C   0  0  0  0  0  3  0  0  0  0  0  0
  188.0540  178.4920  137.0180 C   0  0  0  0  0  0  0  0  0  0  0  0
  188.8380  179.6650  137.2040 N   0  0  0  0  0  1  0  0  0  0  0  0
  187.3070  178.3480  135.8450 C   0  0  0  0  0  3  0  0  0  0  0  0
  191.1900  177.2960  138.7090 C   0  0  0  0  0  2  0  0  0  0  0  0
  191.5890  176.3950  137.6310 N   0  0  0  0  0  0  0  0  0  0  0  0
  190.1320  174.5420  136.2620 S   0  0  0  0  0  0  0  0  0  0  0  0
  191.5890  174.0200  137.2450 C   0  0  0  0  0  2  0  0  0  0  0  0
  190.8630  175.1430  137.8510 C   0  0  1  0  0  3  0  0  0  0  0  0
  193.5630  176.8930  138.8250 O   0  0  0  0  0  1  0  0  0  0  0  0
  193.0300  176.1330  137.7770 C   0  0  2  0  0  3  0  0  0  0  0  0
  193.7780  176.4890  136.4970 C   0  0  0  0  0  2  0  0  0  0  0  0
  194.8410  175.4460  136.2030 C   0  0  0  0  0  1  0  0  0  0  0  0
  188.3220  177.0630  142.4770 O   0  0  0  0  0  0  0  0  0  0  0  0
  187.1940  177.8770  142.6200 C   0  0  0  0  0  2  0  0  0  0  0  0
  186.5970  177.7000  144.0090 C   0  0  0  0  0  2  0  0  0  0  0  0
  187.6380  177.1860  144.9910 C   0  0  0  0  0  2  0  0  0  0  0  0
  187.4710  177.8540  146.3420 C   0  0  0  0  0  2  0  0  0  0  0  0
  188.4360  178.0420  148.6100 C   0  0  0  0  0  1  0  0  0  0  0  0
  188.6930  177.5760  147.1930 C   0  0  0  0  0  2  0  0  0  0  0  0
  1 23  1  1  0  0  0
  2  5  1  0  0  0  0
  2  6  1  0  0  0  0
  3  4  1  6  0  0  0
  3  1  1  0  0  0  0
  5 14  1  6  0  0  0
  5  3  1  0  0  0  0
  6  1  1  0  0  0  0
  7  2  1  0  0  0  0
  8 10  2  0  0  0  0
  9 13  2  0  0  0  0
  9  8  1  0  0  0  0
 10  7  1  0  0  0  0
 11 12  1  0  0  0  0
 11  7  2  0  0  0  0
 13 11  1  0  0  0  0
 15 20  1  0  0  0  0
 15 14  1  0  0  0  0
 16 17  1  0  0  0  0
 16 18  1  0  0  0  0
 17 18  1  0  0  0  0
 18 15  1  6  0  0  0
 20 19  1  1  0  0  0
 21 20  1  0  0  0  0
 22 21  1  0  0  0  0
 23 24  1  0  0  0  0
 24 25  1  0  0  0  0
 25 26  1  0  0  0  0
 26 27  1  0  0  0  0
 27 29  1  0  0  0  0
 29 28  1  0  0  0  0
M  END
>  <MODEL>
3

>  <REMARK>
 VINA RESULT:      -6.3      2.379      4.601
  Name = 
  12 active torsions:
  status: ('A' for Active; 'I' for Inactive)
    1  A    between atoms: C_1  and  C_5
    2  A    between atoms: C_1  and  C_12
    3  A    between atoms: C_2  and  O_19
    4  A    between atoms: C_4  and  N_14
    5  A    between atoms: C_5  and  C_8
    6  A    between atoms: C_8  and  C_24
    7  A    between atoms: C_12  and  O_19
    8  A    between atoms: C_16  and  N_20
    9  A    between atoms: C_16  and  C_21
   10  A    between atoms: N_20  and  C_25
   11  A    between atoms: N_20  and  C_27
   12  A    between atoms: C_23  and  C_25
                            x       y       z     vdW  Elec       q    Type
                         _______ _______ _______ _____ _____    ______ ____

>  <TORSDO>
F 12

$$$$
=
 OpenBabel11062416323D

 29 31  0  0  1  0  0  0  0  0999 V2000
  185.0780  178.5080  145.1010 C   0  0  1  0  0  3  0  0  0  0  0  0
  186.2240  178.0850  143.0540 N   0  0  0  0  0  0  0  0  0  0  0  0
  184.3740  179.2600  143.9770 C   0  0  2  0  0  3  0  0  0  0  0  0
  183.0080  178.9590  143.9820 O   0  0  0  0  0  1  0  0  0  0  0  0
  185.0670  178.8770  142.6690 C   0  0  2  0  0  3  0  0  0  0  0  0
  186.2700  177.8010  144.4770 C   0  0  0  0  0  2  0  0  0  0  0  0
  187.3680  177.9080  142.1990 C   0  0  0  0  0  0  0  0  0  0  0  0
  188.6460  178.5750  140.2540 C   0  0  0  0  0  3  0  0  0  0  0  0
  189.5510  177.5950  140.5140 N   0  0  0  0  0  0  0  0  0  0  0  0
  187.5410  178.7460  141.0880 C   0  0  0  0  0  3  0  0  0  0  0  0
  188.3200  176.8980  142.4420 C   0  0  0  0  0  0  0  0  0  0  0  0
  188.1770  175.9910  143.5300 N   0  0  0  0  0  1  0  0  0  0  0  0
  189.4090  176.7610  141.5770 C   0  0  0  0  0  3  0  0  0  0  0  0
  184.1750  178.0750  141.7190 C   0  0  0  0  0  2  0  0  0  0  0  0
  183.5680  178.9580  140.7250 N   0  0  0  0  0  0  0  0  0  0  0  0
  180.9490  178.4000  141.2380 S   0  0  0  0  0  0  0  0  0  0  0  0
  181.4310  179.1540  139.6370 C   0  0  0  0  0  2  0  0  0  0  0  0
  182.4380  178.2200  140.1560 C   0  0  1  0  0  3  0  0  0  0  0  0
  184.3270  180.4100  139.0280 O   0  0  0  0  0  1  0  0  0  0  0  0
  184.5610  179.1850  139.6640 C   0  0  2  0  0  3  0  0  0  0  0  0
  184.4970  178.0800  138.6160 C   0  0  0  0  0  2  0  0  0  0  0  0
  185.7690  178.0650  137.7890 C   0  0  0  0  0  1  0  0  0  0  0  0
  185.5370  179.4180  146.0570 O   0  0  0  0  0  0  0  0  0  0  0  0
  185.7170  178.6730  147.2270 C   0  0  0  0  0  2  0  0  0  0  0  0
  187.1090  178.9170  147.7910 C   0  0  0  0  0  2  0  0  0  0  0  0
  187.8740  177.6120  147.9460 C   0  0  0  0  0  2  0  0  0  0  0  0
  189.3680  177.8640  147.9270 C   0  0  0  0  0  2  0  0  0  0  0  0
  190.6100  177.2120  145.8910 C   0  0  0  0  0  1  0  0  0  0  0  0
  190.0610  176.7220  147.2140 C   0  0  0  0  0  2  0  0  0  0  0  0
  1 23  1  1  0  0  0
  2  6  1  0  0  0  0
  3  4  1  6  0  0  0
  3  1  1  0  0  0  0
  5 14  1  6  0  0  0
  5  2  1  0  0  0  0
  5  3  1  0  0  0  0
  6  1  1  0  0  0  0
  7 11  1  0  0  0  0
  7  2  1  0  0  0  0
  8  9  2  0  0  0  0
  8 10  1  0  0  0  0
  9 13  1  0  0  0  0
 10  7  2  0  0  0  0
 11 12  1  0  0  0  0
 13 11  2  0  0  0  0
 15 14  1  0  0  0  0
 17 18  1  0  0  0  0
 17 16  1  0  0  0  0
 18 15  1  1  0  0  0
 18 16  1  0  0  0  0
 20 19  1  6  0  0  0
 20 15  1  0  0  0  0
 21 20  1  0  0  0  0
 22 21  1  0  0  0  0
 23 24  1  0  0  0  0
 24 25  1  0  0  0  0
 25 26  1  0  0  0  0
 27 26  1  0  0  0  0
 28 29  1  0  0  0  0
 29 27  1  0  0  0  0
M  END
>  <MODEL>
4

>  <REMARK>
 VINA RESULT:      -6.2      3.433      5.472
  Name = 
  12 active torsions:
  status: ('A' for Active; 'I' for Inactive)
    1  A    between atoms: C_1  and  C_5
    2  A    between atoms: C_1  and  C_12
    3  A    between atoms: C_2  and  O_19
    4  A    between atoms: C_4  and  N_14
    5  A    between atoms: C_5  and  C_8
    6  A    between atoms: C_8  and  C_24
    7  A    between atoms: C_12  and  O_19
    8  A    between atoms: C_16  and  N_20
    9  A    between atoms: C_16  and  C_21
   10  A    between atoms: N_20  and  C_25
   11  A    between atoms: N_20  and  C_27
   12  A    between atoms: C_23  and  C_25
                            x       y       z     vdW  Elec       q    Type
                         _______ _______ _______ _____ _____    ______ ____

>  <TORSDO>
F 12

$$$$
=
 OpenBabel11062416323D

 29 31  0  0  1  0  0  0  0  0999 V2000
  188.9430  177.6170  141.6070 C   0  0  1  0  0  3  0  0  0  0  0  0
  188.6960  177.5280  139.2380 N   0  0  0  0  0  0  0  0  0  0  0  0
  189.9810  176.6550  141.0390 C   0  0  2  0  0  3  0  0  0  0  0  0
  191.2540  176.9970  141.5050 O   0  0  0  0  0  1  0  0  0  0  0  0
  189.8660  176.7100  139.5150 C   0  0  2  0  0  3  0  0  0  0  0  0
  188.1230  178.1220  140.4320 C   0  0  0  0  0  2  0  0  0  0  0  0
  187.9810  177.4680  137.9910 C   0  0  0  0  0  0  0  0  0  0  0  0
  186.5070  176.2790  136.4820 C   0  0  0  0  0  3  0  0  0  0  0  0
  186.5940  177.3030  135.5930 N   0  0  0  0  0  0  0  0  0  0  0  0
  187.1990  176.3430  137.6910 C   0  0  0  0  0  3  0  0  0  0  0  0
  188.0540  178.5140  137.0490 C   0  0  0  0  0  0  0  0  0  0  0  0
  188.8630  179.6620  137.2780 N   0  0  0  0  0  1  0  0  0  0  0  0
  187.3480  178.4040  135.8480 C   0  0  0  0  0  3  0  0  0  0  0  0
  191.0980  177.3080  138.8330 C   0  0  0  0  0  2  0  0  0  0  0  0
  191.5220  176.4630  137.7190 N   0  0  0  0  0  0  0  0  0  0  0  0
  190.1290  174.6890  136.1880 S   0  0  0  0  0  0  0  0  0  0  0  0
  191.5200  174.1080  137.2310 C   0  0  0  0  0  2  0  0  0  0  0  0
  190.7720  175.2120  137.8420 C   0  0  1  0  0  3  0  0  0  0  0  0
  193.4740  176.9080  138.9690 O   0  0  0  0  0  1  0  0  0  0  0  0
  192.9530  176.1700  137.8990 C   0  0  2  0  0  3  0  0  0  0  0  0
  193.7410  176.5250  136.6430 C   0  0  0  0  0  2  0  0  0  0  0  0
  194.7670  175.4480  136.3440 C   0  0  0  0  0  1  0  0  0  0  0  0
  188.1010  176.9290  142.4870 O   0  0  0  0  0  0  0  0  0  0  0  0
  188.3520  177.4770  143.7490 C   0  0  0  0  0  2  0  0  0  0  0  0
  187.2200  177.1270  144.7040 C   0  0  0  0  0  2  0  0  0  0  0  0
  186.4540  178.3720  145.1250 C   0  0  0  0  0  2  0  0  0  0  0  0
  185.2150  178.5500  144.2720 C   0  0  0  0  0  2  0  0  0  0  0  0
  182.7650  178.8780  144.3260 C   0  0  0  0  0  1  0  0  0  0  0  0
  184.0210  178.8020  145.1680 C   0  0  0  0  0  2  0  0  0  0  0  0
  1 23  1  1  0  0  0
  2  5  1  0  0  0  0
  2  6  1  0  0  0  0
  3  4  1  6  0  0  0
  3  1  1  0  0  0  0
  5 14  1  6  0  0  0
  5  3  1  0  0  0  0
  6  1  1  0  0  0  0
  7  2  1  0  0  0  0
  8 10  2  0  0  0  0
  9 13  2  0  0  0  0
  9  8  1  0  0  0  0
 10  7  1  0  0  0  0
 11 12  1  0  0  0  0
 11  7  2  0  0  0  0
 13 11  1  0  0  0  0
 15 20  1  0  0  0  0
 15 14  1  0  0  0  0
 16 17  1  0  0  0  0
 16 18  1  0  0  0  0
 17 18  1  0  0  0  0
 18 15  1  6  0  0  0
 20 19  1  1  0  0  0
 21 20  1  0  0  0  0
 22 21  1  0  0  0  0
 23 24  1  0  0  0  0
 24 25  1  0  0  0  0
 25 26  1  0  0  0  0
 27 26  1  0  0  0  0
 27 29  1  0  0  0  0
 28 29  1  0  0  0  0
M  END
>  <MODEL>
5

>  <REMARK>
 VINA RESULT:      -6.1      2.756      4.890
  Name = 
  12 active torsions:
  status: ('A' for Active; 'I' for Inactive)
    1  A    between atoms: C_1  and  C_5
    2  A    between atoms: C_1  and  C_12
    3  A    between atoms: C_2  and  O_19
    4  A    between atoms: C_4  and  N_14
    5  A    between atoms: C_5  and  C_8
    6  A    between atoms: C_8  and  C_24
    7  A    between atoms: C_12  and  O_19
    8  A    between atoms: C_16  and  N_20
    9  A    between atoms: C_16  and  C_21
   10  A    between atoms: N_20  and  C_25
   11  A    between atoms: N_20  and  C_27
   12  A    between atoms: C_23  and  C_25
                            x       y       z     vdW  Elec       q    Type
                         _______ _______ _______ _____ _____    ______ ____

>  <TORSDO>
F 12

$$$$
=
 OpenBabel11062416323D

 29 31  0  0  1  0  0  0  0  0999 V2000
  189.1240  177.7540  140.8910 C   0  0  1  0  0  3  0  0  0  0  0  0
  188.5120  177.2220  138.6500 N   0  0  0  0  0  0  0  0  0  0  0  0
  190.1430  176.7740  140.3210 C   0  0  2  0  0  3  0  0  0  0  0  0
  191.4370  177.2750  140.4940 O   0  0  0  0  0  1  0  0  0  0  0  0
  189.7810  176.5440  138.8530 C   0  0  2  0  0  3  0  0  0  0  0  0
  188.0840  177.9850  139.8070 C   0  0  0  0  0  2  0  0  0  0  0  0
  187.6150  176.8910  137.5740 C   0  0  0  0  0  0  0  0  0  0  0  0
  186.3600  175.2330  136.3330 C   0  0  0  0  0  3  0  0  0  0  0  0
  185.8970  176.2050  135.5050 N   0  0  0  0  0  0  0  0  0  0  0  0
  187.2260  175.5590  137.3770 C   0  0  0  0  0  3  0  0  0  0  0  0
  187.1210  177.8780  136.6970 C   0  0  0  0  0  0  0  0  0  0  0  0
  187.5110  179.2410  136.8200 N   0  0  0  0  0  1  0  0  0  0  0  0
  186.2600  177.5050  135.6620 C   0  0  0  0  0  3  0  0  0  0  0  0
  190.8280  177.0860  137.8760 C   0  0  0  0  0  2  0  0  0  0  0  0
  191.5840  175.9870  137.2800 N   0  0  0  0  0  0  0  0  0  0  0  0
  194.0630  174.9590  137.7570 S   0  0  0  0  0  0  0  0  0  0  0  0
  193.7090  175.8040  136.1680 C   0  0  0  0  0  2  0  0  0  0  0  0
  192.9900  176.3950  137.3020 C   0  0  1  0  0  3  0  0  0  0  0  0
  190.3450  176.9400  135.5120 O   0  0  0  0  0  1  0  0  0  0  0  0
  191.1560  175.8590  135.8780 C   0  0  2  0  0  3  0  0  0  0  0  0
  190.3640  174.5730  135.6680 C   0  0  0  0  0  2  0  0  0  0  0  0
  190.5930  173.6210  136.8270 C   0  0  0  0  0  1  0  0  0  0  0  0
  188.5020  177.1860  142.0060 O   0  0  0  0  0  0  0  0  0  0  0  0
  189.0270  177.8610  143.1120 C   0  0  0  0  0  2  0  0  0  0  0  0
  189.5040  176.8610  144.1560 C   0  0  0  0  0  2  0  0  0  0  0  0
  189.3400  177.4170  145.5620 C   0  0  0  0  0  2  0  0  0  0  0  0
  187.8910  177.7690  145.8300 C   0  0  0  0  0  2  0  0  0  0  0  0
  188.9070  177.8890  148.0810 C   0  0  0  0  0  1  0  0  0  0  0  0
  187.6180  177.6740  147.3170 C   0  0  0  0  0  2  0  0  0  0  0  0
  1 23  1  1  0  0  0
  2  5  1  0  0  0  0
  2  6  1  0  0  0  0
  3  4  1  6  0  0  0
  3  1  1  0  0  0  0
  5 14  1  6  0  0  0
  5  3  1  0  0  0  0
  6  1  1  0  0  0  0
  7  2  1  0  0  0  0
  8 10  2  0  0  0  0
  9 13  2  0  0  0  0
  9  8  1  0  0  0  0
 10  7  1  0  0  0  0
 11 12  1  0  0  0  0
 11  7  2  0  0  0  0
 13 11  1  0  0  0  0
 15 14  1  0  0  0  0
 17 18  1  0  0  0  0
 17 16  1  0  0  0  0
 18 15  1  6  0  0  0
 18 16  1  0  0  0  0
 20 19  1  1  0  0  0
 20 15  1  0  0  0  0
 21 20  1  0  0  0  0
 21 22  1  0  0  0  0
 23 24  1  0  0  0  0
 24 25  1  0  0  0  0
 25 26  1  0  0  0  0
 26 27  1  0  0  0  0
 27 29  1  0  0  0  0
 29 28  1  0  0  0  0
M  END
>  <MODEL>
6

>  <REMARK>
 VINA RESULT:      -6.1      2.512      4.292
  Name = 
  12 active torsions:
  status: ('A' for Active; 'I' for Inactive)
    1  A    between atoms: C_1  and  C_5
    2  A    between atoms: C_1  and  C_12
    3  A    between atoms: C_2  and  O_19
    4  A    between atoms: C_4  and  N_14
    5  A    between atoms: C_5  and  C_8
    6  A    between atoms: C_8  and  C_24
    7  A    between atoms: C_12  and  O_19
    8  A    between atoms: C_16  and  N_20
    9  A    between atoms: C_16  and  C_21
   10  A    between atoms: N_20  and  C_25
   11  A    between atoms: N_20  and  C_27
   12  A    between atoms: C_23  and  C_25
                            x       y       z     vdW  Elec       q    Type
                         _______ _______ _______ _____ _____    ______ ____

>  <TORSDO>
F 12

$$$$
=
 OpenBabel11062416323D

 29 31  0  0  1  0  0  0  0  0999 V2000
  188.9820  177.9250  140.8440 C   0  0  1  0  0  3  0  0  0  0  0  0
  188.4430  177.3530  138.5930 N   0  0  0  0  0  0  0  0  0  0  0  0
  190.0040  176.9160  140.3330 C   0  0  2  0  0  3  0  0  0  0  0  0
  191.3000  177.4000  140.5430 O   0  0  0  0  0  1  0  0  0  0  0  0
  189.6930  176.6590  138.8580 C   0  0  2  0  0  3  0  0  0  0  0  0
  187.9860  178.1480  139.7180 C   0  0  0  0  0  2  0  0  0  0  0  0
  187.5800  177.0130  137.4930 C   0  0  0  0  0  0  0  0  0  0  0  0
  186.3850  175.3400  136.2130 C   0  0  0  0  0  3  0  0  0  0  0  0
  185.9290  176.3080  135.3760 N   0  0  0  0  0  0  0  0  0  0  0  0
  187.2180  175.6750  137.2810 C   0  0  0  0  0  3  0  0  0  0  0  0
  187.0950  177.9950  136.6070 C   0  0  0  0  0  0  0  0  0  0  0  0
  187.4610  179.3640  136.7450 N   0  0  0  0  0  1  0  0  0  0  0  0
  186.2680  177.6130  135.5470 C   0  0  0  0  0  3  0  0  0  0  0  0
  190.7830  177.1620  137.9090 C   0  0  0  0  0  2  0  0  0  0  0  0
  191.4920  176.0350  137.3070 N   0  0  0  0  0  0  0  0  0  0  0  0
  193.9260  174.8430  137.6040 S   0  0  0  0  0  0  0  0  0  0  0  0
  193.5920  175.8970  136.1410 C   0  0  0  0  0  2  0  0  0  0  0  0
  192.9160  176.3730  137.3540 C   0  0  1  0  0  3  0  0  0  0  0  0
  190.2570  177.0300  135.5590 O   0  0  0  0  0  1  0  0  0  0  0  0
  191.0780  175.9480  135.8970 C   0  0  2  0  0  3  0  0  0  0  0  0
  190.3040  174.6600  135.6390 C   0  0  0  0  0  2  0  0  0  0  0  0
  190.3470  173.7660  136.8650 C   0  0  0  0  0  1  0  0  0  0  0  0
  188.3100  177.3910  141.9470 O   0  0  0  0  0  0  0  0  0  0  0  0
  189.0090  177.8510  143.0680 C   0  0  0  0  0  2  0  0  0  0  0  0
  188.5200  177.1320  144.3170 C   0  0  0  0  0  2  0  0  0  0  0  0
  187.0540  177.4370  144.5860 C   0  0  0  0  0  2  0  0  0  0  0  0
  186.8420  177.7960  146.0430 C   0  0  0  0  0  2  0  0  0  0  0  0
  184.8480  178.6530  144.8590 C   0  0  0  0  0  1  0  0  0  0  0  0
  185.6000  178.6510  146.1730 C   0  0  0  0  0  2  0  0  0  0  0  0
  1 23  1  1  0  0  0
  2  5  1  0  0  0  0
  2  6  1  0  0  0  0
  3  4  1  6  0  0  0
  3  1  1  0  0  0  0
  5 14  1  6  0  0  0
  5  3  1  0  0  0  0
  6  1  1  0  0  0  0
  7  2  1  0  0  0  0
  8 10  2  0  0  0  0
  9 13  2  0  0  0  0
  9  8  1  0  0  0  0
 10  7  1  0  0  0  0
 11 12  1  0  0  0  0
 11  7  2  0  0  0  0
 13 11  1  0  0  0  0
 15 14  1  0  0  0  0
 17 18  1  0  0  0  0
 17 16  1  0  0  0  0
 18 15  1  6  0  0  0
 18 16  1  0  0  0  0
 20 19  1  1  0  0  0
 20 15  1  0  0  0  0
 21 20  1  0  0  0  0
 21 22  1  0  0  0  0
 23 24  1  0  0  0  0
 24 25  1  0  0  0  0
 25 26  1  0  0  0  0
 26 27  1  0  0  0  0
 27 29  1  0  0  0  0
 28 29  1  0  0  0  0
M  END
>  <MODEL>
7

>  <REMARK>
 VINA RESULT:      -6.0      2.699      4.519
  Name = 
  12 active torsions:
  status: ('A' for Active; 'I' for Inactive)
    1  A    between atoms: C_1  and  C_5
    2  A    between atoms: C_1  and  C_12
    3  A    between atoms: C_2  and  O_19
    4  A    between atoms: C_4  and  N_14
    5  A    between atoms: C_5  and  C_8
    6  A    between atoms: C_8  and  C_24
    7  A    between atoms: C_12  and  O_19
    8  A    between atoms: C_16  and  N_20
    9  A    between atoms: C_16  and  C_21
   10  A    between atoms: N_20  and  C_25
   11  A    between atoms: N_20  and  C_27
   12  A    between atoms: C_23  and  C_25
                            x       y       z     vdW  Elec       q    Type
                         _______ _______ _______ _____ _____    ______ ____

>  <TORSDO>
F 12

$$$$
=
 OpenBabel11062416323D

 29 31  0  0  1  0  0  0  0  0999 V2000
  185.4860  178.8280  143.1900 C   0  0  1  0  0  3  0  0  0  0  0  0
  184.6880  178.5180  140.9650 N   0  0  0  0  0  0  0  0  0  0  0  0
  186.5120  178.0160  142.4060 C   0  0  2  0  0  3  0  0  0  0  0  0
  187.7760  178.6030  142.5220 O   0  0  0  0  0  1  0  0  0  0  0  0
  186.0190  177.9340  140.9610 C   0  0  2  0  0  3  0  0  0  0  0  0
  184.3260  179.0960  142.2460 C   0  0  0  0  0  2  0  0  0  0  0  0
  183.7120  178.2430  139.9430 C   0  0  0  0  0  0  0  0  0  0  0  0
  182.1690  176.7050  138.8880 C   0  0  0  0  0  3  0  0  0  0  0  0
  181.8360  177.6630  137.9830 N   0  0  0  0  0  0  0  0  0  0  0  0
  183.1120  176.9780  139.8780 C   0  0  0  0  0  3  0  0  0  0  0  0
  183.3500  179.2160  138.9910 C   0  0  0  0  0  0  0  0  0  0  0  0
  183.9540  180.5040  138.9800 N   0  0  0  0  0  1  0  0  0  0  0  0
  182.4040  178.8970  138.0120 C   0  0  0  0  0  3  0  0  0  0  0  0
  186.9160  178.6780  139.9690 C   0  0  0  0  0  2  0  0  0  0  0  0
  187.7460  177.7330  139.2260 N   0  0  0  0  0  0  0  0  0  0  0  0
  190.1900  177.0380  140.2150 S   0  0  0  0  0  0  0  0  0  0  0  0
  190.0020  177.4520  138.4380 C   0  0  0  0  0  2  0  0  0  0  0  0
  189.1180  178.2400  139.3050 C   0  0  1  0  0  3  0  0  0  0  0  0
  186.7280  179.0030  137.5170 O   0  0  0  0  0  1  0  0  0  0  0  0
  187.3140  177.7690  137.8200 C   0  0  2  0  0  3  0  0  0  0  0  0
  186.2940  176.6710  137.5390 C   0  0  0  0  0  2  0  0  0  0  0  0
  185.3160  177.1230  136.4700 C   0  0  0  0  0  1  0  0  0  0  0  0
  185.0260  178.0770  144.2750 O   0  0  0  0  0  0  0  0  0  0  0  0
  184.8460  178.9950  145.3150 C   0  0  0  0  0  2  0  0  0  0  0  0
  185.3740  178.4150  146.6190 C   0  0  0  0  0  2  0  0  0  0  0  0
  186.6950  177.6920  146.4020 C   0  0  0  0  0  2  0  0  0  0  0  0
  187.6100  177.8840  147.5940 C   0  0  0  0  0  2  0  0  0  0  0  0
  189.0990  177.5170  145.6560 C   0  0  0  0  0  1  0  0  0  0  0  0
  189.0480  177.7050  147.1570 C   0  0  0  0  0  2  0  0  0  0  0  0
  1 23  1  1  0  0  0
  2  6  1  0  0  0  0
  3  4  1  6  0  0  0
  3  1  1  0  0  0  0
  5 14  1  6  0  0  0
  5  2  1  0  0  0  0
  5  3  1  0  0  0  0
  6  1  1  0  0  0  0
  7  2  1  0  0  0  0
  8 10  2  0  0  0  0
  9 13  2  0  0  0  0
  9  8  1  0  0  0  0
 10  7  1  0  0  0  0
 11  7  2  0  0  0  0
 12 11  1  0  0  0  0
 13 11  1  0  0  0  0
 15 14  1  0  0  0  0
 17 18  1  0  0  0  0
 17 16  1  0  0  0  0
 18 15  1  6  0  0  0
 18 16  1  0  0  0  0
 20 19  1  1  0  0  0
 20 15  1  0  0  0  0
 21 20  1  0  0  0  0
 22 21  1  0  0  0  0
 23 24  1  0  0  0  0
 24 25  1  0  0  0  0
 26 25  1  0  0  0  0
 26 27  1  0  0  0  0
 28 29  1  0  0  0  0
 29 27  1  0  0  0  0
M  END
>  <MODEL>
8

>  <REMARK>
 VINA RESULT:      -5.8      2.867      4.518
  Name = 
  12 active torsions:
  status: ('A' for Active; 'I' for Inactive)
    1  A    between atoms: C_1  and  C_5
    2  A    between atoms: C_1  and  C_12
    3  A    between atoms: C_2  and  O_19
    4  A    between atoms: C_4  and  N_14
    5  A    between atoms: C_5  and  C_8
    6  A    between atoms: C_8  and  C_24
    7  A    between atoms: C_12  and  O_19
    8  A    between atoms: C_16  and  N_20
    9  A    between atoms: C_16  and  C_21
   10  A    between atoms: N_20  and  C_25
   11  A    between atoms: N_20  and  C_27
   12  A    between atoms: C_23  and  C_25
                            x       y       z     vdW  Elec       q    Type
                         _______ _______ _______ _____ _____    ______ ____

>  <TORSDO>
F 12

$$$$
=
 OpenBabel11062416323D

 29 31  0  0  1  0  0  0  0  0999 V2000
  185.3560  178.6170  140.5450 C   0  0  1  0  0  3  0  0  0  0  0  0
  186.0860  178.2240  142.7800 N   0  0  0  0  0  0  0  0  0  0  0  0
  186.8360  178.9680  140.6500 C   0  0  2  0  0  3  0  0  0  0  0  0
  187.5570  178.3060  139.6510 O   0  0  0  0  0  1  0  0  0  0  0  0
  187.2930  178.5990  142.0620 C   0  0  2  0  0  3  0  0  0  0  0  0
  184.9100  178.1820  141.9310 C   0  0  0  0  0  2  0  0  0  0  0  0
  185.9950  178.2430  144.2160 C   0  0  0  0  0  0  0  0  0  0  0  0
  186.8130  177.5030  146.3720 C   0  0  0  0  0  3  0  0  0  0  0  0
  185.8510  178.2390  146.9880 N   0  0  0  0  0  0  0  0  0  0  0  0
  186.8990  177.4910  144.9800 C   0  0  0  0  0  3  0  0  0  0  0  0
  185.0060  178.9940  144.8820 C   0  0  0  0  0  0  0  0  0  0  0  0
  184.0350  179.7450  144.1620 N   0  0  0  0  0  1  0  0  0  0  0  0
  184.9540  178.9720  146.2780 C   0  0  0  0  0  3  0  0  0  0  0  0
  188.3010  177.4480  142.0940 C   0  0  0  0  0  2  0  0  0  0  0  0
  189.6620  177.9670  142.2120 N   0  0  0  0  0  0  0  0  0  0  0  0
  190.6200  176.9580  139.8680 S   0  0  0  0  0  0  0  0  0  0  0  0
  191.7830  177.4990  141.1790 C   0  0  0  0  0  2  0  0  0  0  0  0
  190.5490  176.9140  141.7160 C   0  0  1  0  0  3  0  0  0  0  0  0
  190.8830  179.1950  143.8160 O   0  0  0  0  0  1  0  0  0  0  0  0
  189.9380  178.1770  143.6420 C   0  0  2  0  0  3  0  0  0  0  0  0
  190.4810  176.9030  144.2810 C   0  0  0  0  0  2  0  0  0  0  0  0
  190.7380  177.1250  145.7600 C   0  0  0  0  0  1  0  0  0  0  0  0
  184.6330  179.7530  140.1690 O   0  0  0  0  0  0  0  0  0  0  0  0
  184.1480  179.4780  138.8860 C   0  0  0  0  0  2  0  0  0  0  0  0
  182.6310  179.6070  138.8640 C   0  0  0  0  0  2  0  0  0  0  0  0
  181.9710  178.2660  138.5830 C   0  0  0  0  0  2  0  0  0  0  0  0
  181.6730  177.5370  139.8780 C   0  0  0  0  0  2  0  0  0  0  0  0
  182.6460  175.8090  138.4010 C   0  0  0  0  0  1  0  0  0  0  0  0
  182.2970  176.1580  139.8320 C   0  0  0  0  0  2  0  0  0  0  0  0
  1 23  1  1  0  0  0
  1  3  1  0  0  0  0
  1  6  1  0  0  0  0
  2  7  1  0  0  0  0
  3  4  1  6  0  0  0
  3  5  1  0  0  0  0
  5 14  1  6  0  0  0
  5  2  1  0  0  0  0
  6  2  1  0  0  0  0
  7 11  2  0  0  0  0
  7 10  1  0  0  0  0
  8  9  1  0  0  0  0
 10  8  2  0  0  0  0
 11 13  1  0  0  0  0
 12 11  1  0  0  0  0
 13  9  2  0  0  0  0
 14 15  1  0  0  0  0
 15 20  1  0  0  0  0
 16 17  1  0  0  0  0
 16 18  1  0  0  0  0
 17 18  1  0  0  0  0
 18 15  1  1  0  0  0
 20 19  1  6  0  0  0
 20 21  1  0  0  0  0
 21 22  1  0  0  0  0
 24 23  1  0  0  0  0
 25 24  1  0  0  0  0
 26 25  1  0  0  0  0
 26 27  1  0  0  0  0
 28 29  1  0  0  0  0
 29 27  1  0  0  0  0
M  END
>  <MODEL>
9

>  <REMARK>
 VINA RESULT:      -5.7      2.638      6.906
  Name = 
  12 active torsions:
  status: ('A' for Active; 'I' for Inactive)
    1  A    between atoms: C_1  and  C_5
    2  A    between atoms: C_1  and  C_12
    3  A    between atoms: C_2  and  O_19
    4  A    between atoms: C_4  and  N_14
    5  A    between atoms: C_5  and  C_8
    6  A    between atoms: C_8  and  C_24
    7  A    between atoms: C_12  and  O_19
    8  A    between atoms: C_16  and  N_20
    9  A    between atoms: C_16  and  C_21
   10  A    between atoms: N_20  and  C_25
   11  A    between atoms: N_20  and  C_27
   12  A    between atoms: C_23  and  C_25
                            x       y       z     vdW  Elec       q    Type
                         _______ _______ _______ _____ _____    ______ ____

>  <TORSDO>
F 12

$$$$
