=
 OpenBabel11062414013D

 49 52  0  0  1  0  0  0  0  0999 V2000
  189.9180  177.1590  145.1370 C   0  0  0  0  0  0  0  0  0  0  0  0
  189.6320  177.5780  146.3900 C   0  0  1  0  0  3  0  0  0  0  0  0
  191.2750  176.5710  142.3740 C   0  0  0  0  0  3  0  0  0  0  0  0
  190.6200  177.4070  147.5240 C   0  0  0  0  0  2  0  0  0  0  0  0
  188.8970  177.2410  142.8010 C   0  0  0  0  0  0  0  0  0  0  0  0
  191.9230  175.9010  146.0570 C   0  0  0  0  0  3  0  0  0  0  0  0
  191.7210  176.1620  143.7090 C   0  0  0  0  0  3  0  0  0  0  0  0
  190.1060  177.0610  141.9720 C   0  0  0  0  0  0  0  0  0  0  0  0
  192.3430  175.7970  148.3650 O   0  0  0  0  0  1  0  0  0  0  0  0
  188.8550  177.3070  144.1300 C   0  0  0  0  0  3  0  0  0  0  0  0
  191.1760  176.4050  144.8950 C   0  0  0  0  0  0  0  0  0  0  0  0
  187.6880  177.4050  142.1400 O   0  0  0  0  0  1  0  0  0  0  0  0
  191.6420  176.3240  147.2860 C   0  0  1  0  0  3  0  0  0  0  0  0
  190.0080  177.3970  140.5180 C   0  0  0  0  0  2  0  0  0  0  0  0
  191.3440  177.1780  139.8180 C   0  0  0  0  0  2  0  0  0  0  0  0
  189.3530  175.4940  137.0900 C   0  0  0  0  0  0  0  0  0  0  0  0
  189.7750  176.4210  137.9540 C   0  0  0  0  0  3  0  0  0  0  0  0
  192.3300  175.6910  136.4070 C   0  0  0  0  0  0  0  0  0  0  0  0
  190.2360  174.3640  136.6680 C   0  0  0  0  0  2  0  0  0  0  0  0
  191.4210  174.8540  135.9020 C   0  0  0  0  0  3  0  0  0  0  0  0
  192.2600  176.2550  137.7730 C   0  0  0  0  0  3  0  0  0  0  0  0
  191.1550  176.5410  138.4790 C   0  0  0  0  0  0  0  0  0  0  0  0
  188.0030  175.5280  136.6210 N   0  0  0  0  0  0  0  0  0  0  0  0
  185.8810  175.6340  135.9730 C   0  0  1  0  0  3  0  0  0  0  0  0
  186.9940  176.5680  136.3320 C   0  0  0  0  0  2  0  0  0  0  0  0
  186.9420  174.5860  136.2130 C   0  0  2  0  0  3  0  0  0  0  0  0
  186.6500  173.5800  137.3240 C   0  0  0  0  0  1  0  0  0  0  0  0
  183.5920  175.8830  136.6630 O   0  0  0  0  0  0  0  0  0  0  0  0
  184.7630  175.7220  136.9940 C   0  0  0  0  0  3  0  0  0  0  0  0
  193.5460  175.9830  135.5950 C   0  0  0  0  0  2  0  0  0  0  0  0
  194.5030  176.6260  136.3920 O   0  0  0  0  0  0  0  0  0  0  0  0
  196.2330  175.8460  135.3610 C   0  0  0  0  0  1  0  0  0  0  0  0
  195.4740  175.7450  136.5360 O   0  0  0  0  0  0  0  0  0  0  0  0
  188.4100  178.2200  146.6380 O   0  0  0  0  0  0  0  0  0  0  0  0
  187.2120  177.5260  146.9760 C   0  0  0  0  0  2  0  0  0  0  0  0
  185.7940  178.0440  144.9590 N   0  0  0  0  0  2  0  0  0  0  0  0
  186.0220  178.1890  146.3630 C   0  0  0  0  0  0  0  0  0  0  0  0
  185.2130  178.8390  147.0880 O   0  0  0  0  0  0  0  0  0  0  0  0
  183.1690  178.3770  144.5850 O   0  0  0  0  0  1  0  0  0  0  0  0
  184.5150  178.8940  144.1190 P   0  0  1  0  0  0  0  0  0  0  0  0
  184.6310  180.5520  144.4550 O   0  0  0  0  0  0  0  0  0  0  0  0
  184.6920  178.6090  142.3260 C   0  0  2  0  0  3  0  0  0  0  0  0
  185.4760  179.6240  141.7730 O   0  0  0  0  0  1  0  0  0  0  0  0
  183.3340  178.5930  141.6300 C   0  0  0  0  0  2  0  0  0  0  0  0
  183.3430  177.7220  140.3760 C   0  0  0  0  0  2  0  0  0  0  0  0
  183.0330  178.5430  139.1360 C   0  0  0  0  0  2  0  0  0  0  0  0
  185.4130  178.7910  138.6510 O   0  0  0  0  0  0  0  0  0  0  0  0
  184.0980  180.6160  138.9440 O   0  0  0  0  0  0  0  0  0  0  0  0
  184.1800  179.3760  138.8050 N   0  0  0  0  0  0  0  0  0  0  0  0
  1  2  1  0  0  0  0
  2 34  1  6  0  0  0
  2  4  1  0  0  0  0
  3  7  2  0  0  0  0
  5 10  1  0  0  0  0
  6 13  1  0  0  0  0
  7 11  1  0  0  0  0
  8  3  1  0  0  0  0
  8  5  2  0  0  0  0
 10  1  2  0  0  0  0
 11  1  1  0  0  0  0
 11  6  2  0  0  0  0
 12  5  1  0  0  0  0
 13  4  1  0  0  0  0
 13  9  1  6  0  0  0
 14  8  1  0  0  0  0
 15 14  1  0  0  0  0
 16 17  2  0  0  0  0
 17 22  1  0  0  0  0
 18 21  1  0  0  0  0
 19 16  1  0  0  0  0
 20 18  2  0  0  0  0
 20 19  1  0  0  0  0
 21 22  2  0  0  0  0
 22 15  1  0  0  0  0
 23 16  1  0  0  0  0
 24 26  1  0  0  0  0
 24 25  1  0  0  0  0
 24 29  1  1  0  0  0
 25 23  1  0  0  0  0
 26 23  1  0  0  0  0
 26 27  1  1  0  0  0
 28 29  2  0  0  0  0
 30 31  1  0  0  0  0
 30 18  1  0  0  0  0
 31 33  1  0  0  0  0
 32 33  1  0  0  0  0
 34 35  1  0  0  0  0
 36 37  1  0  0  0  0
 37 35  1  0  0  0  0
 37 38  2  0  0  0  0
 40 41  2  1  0  0  0
 40 39  1  0  0  0  0
 40 36  1  0  0  0  0
 42 43  1  6  0  0  0
 42 40  1  0  0  0  0
 44 42  1  0  0  0  0
 45 44  1  0  0  0  0
 46 45  1  0  0  0  0
 47 49  2  0  0  0  0
 49 48  2  0  0  0  0
 49 46  1  0  0  0  0
M  END
>  <MODEL>
1

>  <REMARK>
 VINA RESULT:      -8.4      0.000      0.000
  Name = 
  17 active torsions:
  status: ('A' for Active; 'I' for Inactive)
    1  A    between atoms: C_1  and  C_32
    2  A    between atoms: C_1  and  C_47
    3  A    between atoms: N_2  and  C_3
    4  A    between atoms: N_4  and  P_28
    5  A    between atoms: C_6  and  C_31
    6  A    between atoms: C_8  and  C_18
    7  A    between atoms: C_8  and  P_28
    8  A    between atoms: C_9  and  C_48
    9  A    between atoms: C_10  and  O_42
   10  A    between atoms: O_15  and  O_20
   11  A    between atoms: O_15  and  C_37
   12  A    between atoms: C_18  and  C_25
   13  A    between atoms: C_19  and  C_37
   14  A    between atoms: C_25  and  C_35
   15  A    between atoms: N_30  and  C_35
   16  A    between atoms: C_31  and  O_42
   17  A    between atoms: C_32  and  C_36
                            x       y       z     vdW  Elec       q    Type
                         _______ _______ _______ _____ _____    ______ ____

>  <TORSDO>
F 17

$$$$
=
 OpenBabel11062414013D

 49 52  0  0  1  0  0  0  0  0999 V2000
  185.6930  178.2850  144.0360 C   0  0  0  0  0  0  0  0  0  0  0  0
  186.8860  177.7280  144.3440 C   0  0  1  0  0  3  0  0  0  0  0  0
  182.6500  178.9980  143.8080 C   0  0  0  0  0  3  0  0  0  0  0  0
  187.2570  177.4000  145.7740 C   0  0  0  0  0  2  0  0  0  0  0  0
  184.3520  178.9390  141.9670 C   0  0  0  0  0  0  0  0  0  0  0  0
  185.3130  178.7420  146.5050 C   0  0  0  0  0  3  0  0  0  0  0  0
  183.4950  179.0040  145.0050 C   0  0  0  0  0  3  0  0  0  0  0  0
  182.9830  178.9360  142.5220 C   0  0  0  0  0  0  0  0  0  0  0  0
  186.9730  178.2810  148.1000 O   0  0  0  0  0  1  0  0  0  0  0  0
  185.4690  178.6320  142.6230 C   0  0  0  0  0  3  0  0  0  0  0  0
  184.7810  178.6970  145.1360 C   0  0  0  0  0  0  0  0  0  0  0  0
  184.4950  179.2440  140.6210 O   0  0  0  0  0  1  0  0  0  0  0  0
  186.4830  178.1850  146.8020 C   0  0  1  0  0  3  0  0  0  0  0  0
  181.8420  178.9260  141.5550 C   0  0  0  0  0  2  0  0  0  0  0  0
  181.6050  177.5240  141.0080 C   0  0  0  0  0  2  0  0  0  0  0  0
  182.1530  176.0620  137.5720 C   0  0  0  0  0  0  0  0  0  0  0  0
  181.6830  176.2290  138.8100 C   0  0  0  0  0  3  0  0  0  0  0  0
  181.0800  178.9250  137.4610 C   0  0  0  0  0  0  0  0  0  0  0  0
  182.7520  177.1970  136.8070 C   0  0  0  0  0  2  0  0  0  0  0  0
  181.7380  178.2540  136.5140 C   0  0  0  0  0  3  0  0  0  0  0  0
  181.2530  178.6870  138.9110 C   0  0  0  0  0  3  0  0  0  0  0  0
  181.5570  177.5270  139.5130 C   0  0  0  0  0  0  0  0  0  0  0  0
  182.1670  174.7550  136.9920 N   0  0  0  0  0  0  0  0  0  0  0  0
  182.1800  172.6860  136.1820 C   0  0  1  0  0  3  0  0  0  0  0  0
  181.3090  173.5530  137.0370 C   0  0  0  0  0  2  0  0  0  0  0  0
  183.0140  173.9430  136.0960 C   0  0  2  0  0  3  0  0  0  0  0  0
  184.4380  173.8400  136.6380 C   0  0  0  0  0  1  0  0  0  0  0  0
  183.2020  170.5290  136.4650 O   0  0  0  0  0  0  0  0  0  0  0  0
  182.7510  171.5400  136.9950 C   0  0  0  0  0  3  0  0  0  0  0  0
  180.2070  180.0600  137.0420 C   0  0  0  0  0  2  0  0  0  0  0  0
  180.9980  181.1800  136.7490 O   0  0  0  0  0  0  0  0  0  0  0  0
  180.8010  181.5810  134.6360 C   0  0  0  0  0  1  0  0  0  0  0  0
  180.2810  181.8910  135.9020 O   0  0  0  0  0  0  0  0  0  0  0  0
  187.7830  177.4120  143.3130 O   0  0  0  0  0  0  0  0  0  0  0  0
  188.4790  176.1720  143.2310 C   0  0  0  0  0  2  0  0  0  0  0  0
  189.4010  177.0730  141.0650 N   0  0  0  0  0  2  0  0  0  0  0  0
  189.5750  176.2430  142.2170 C   0  0  0  0  0  0  0  0  0  0  0  0
  190.6510  175.6040  142.3990 O   0  0  0  0  0  0  0  0  0  0  0  0
  191.8960  177.6020  140.2700 O   0  0  0  0  0  1  0  0  0  0  0  0
  190.5580  177.1170  139.7520 P   0  0  1  0  0  0  0  0  0  0  0  0
  190.7320  175.5580  139.1080 O   0  0  0  0  0  0  0  0  0  0  0  0
  189.9490  178.2560  138.4650 C   0  0  2  0  0  3  0  0  0  0  0  0
  188.9470  179.0660  139.0030 O   0  0  0  0  0  1  0  0  0  0  0  0
  189.3850  177.4920  137.2690 C   0  0  0  0  0  2  0  0  0  0  0  0
  188.6370  178.4100  136.3050 C   0  0  0  0  0  2  0  0  0  0  0  0
  187.3240  177.7860  135.8630 C   0  0  0  0  0  2  0  0  0  0  0  0
  186.1390  178.8630  137.7060 O   0  0  0  0  0  0  0  0  0  0  0  0
  186.1140  176.6060  137.4790 O   0  0  0  0  0  0  0  0  0  0  0  0
  186.4110  177.7190  136.9950 N   0  0  0  0  0  0  0  0  0  0  0  0
  1  2  1  0  0  0  0
  1 11  1  0  0  0  0
  2 34  1  6  0  0  0
  2  4  1  0  0  0  0
  3  7  2  0  0  0  0
  4 13  1  0  0  0  0
  5  8  2  0  0  0  0
  5 10  1  0  0  0  0
  6 13  1  0  0  0  0
  7 11  1  0  0  0  0
  8  3  1  0  0  0  0
 10  1  2  0  0  0  0
 11  6  2  0  0  0  0
 12  5  1  0  0  0  0
 13  9  1  1  0  0  0
 14  8  1  0  0  0  0
 15 14  1  0  0  0  0
 16 17  2  0  0  0  0
 17 22  1  0  0  0  0
 18 21  1  0  0  0  0
 19 16  1  0  0  0  0
 20 19  1  0  0  0  0
 20 18  2  0  0  0  0
 21 22  2  0  0  0  0
 22 15  1  0  0  0  0
 23 25  1  0  0  0  0
 23 16  1  0  0  0  0
 24 29  1  1  0  0  0
 24 25  1  0  0  0  0
 26 24  1  0  0  0  0
 26 27  1  1  0  0  0
 26 23  1  0  0  0  0
 28 29  2  0  0  0  0
 30 18  1  0  0  0  0
 31 30  1  0  0  0  0
 32 33  1  0  0  0  0
 33 31  1  0  0  0  0
 35 34  1  0  0  0  0
 36 37  1  0  0  0  0
 37 38  2  0  0  0  0
 37 35  1  0  0  0  0
 40 41  2  6  0  0  0
 40 39  1  0  0  0  0
 40 36  1  0  0  0  0
 42 43  1  1  0  0  0
 42 40  1  0  0  0  0
 44 42  1  0  0  0  0
 45 44  1  0  0  0  0
 46 45  1  0  0  0  0
 46 49  1  0  0  0  0
 49 48  2  0  0  0  0
 49 47  2  0  0  0  0
M  END
>  <MODEL>
2

>  <REMARK>
 VINA RESULT:      -8.0      3.267      7.870
  Name = 
  17 active torsions:
  status: ('A' for Active; 'I' for Inactive)
    1  A    between atoms: C_1  and  C_32
    2  A    between atoms: C_1  and  C_47
    3  A    between atoms: N_2  and  C_3
    4  A    between atoms: N_4  and  P_28
    5  A    between atoms: C_6  and  C_31
    6  A    between atoms: C_8  and  C_18
    7  A    between atoms: C_8  and  P_28
    8  A    between atoms: C_9  and  C_48
    9  A    between atoms: C_10  and  O_42
   10  A    between atoms: O_15  and  O_20
   11  A    between atoms: O_15  and  C_37
   12  A    between atoms: C_18  and  C_25
   13  A    between atoms: C_19  and  C_37
   14  A    between atoms: C_25  and  C_35
   15  A    between atoms: N_30  and  C_35
   16  A    between atoms: C_31  and  O_42
   17  A    between atoms: C_32  and  C_36
                            x       y       z     vdW  Elec       q    Type
                         _______ _______ _______ _____ _____    ______ ____

>  <TORSDO>
F 17

$$$$
=
 OpenBabel11062414013D

 49 52  0  0  1  0  0  0  0  0999 V2000
  189.9370  177.1360  145.1050 C   0  0  0  0  0  0  0  0  0  0  0  0
  189.6480  177.5540  146.3570 C   0  0  1  0  0  3  0  0  0  0  0  0
  191.3020  176.5480  142.3470 C   0  0  0  0  0  3  0  0  0  0  0  0
  190.6330  177.3830  147.4940 C   0  0  0  0  0  2  0  0  0  0  0  0
  188.9230  177.2180  142.7670 C   0  0  0  0  0  0  0  0  0  0  0  0
  191.9400  175.8780  146.0310 C   0  0  0  0  0  3  0  0  0  0  0  0
  191.7450  176.1390  143.6820 C   0  0  0  0  0  3  0  0  0  0  0  0
  190.1350  177.0380  141.9410 C   0  0  0  0  0  0  0  0  0  0  0  0
  192.3530  175.7740  148.3400 O   0  0  0  0  0  1  0  0  0  0  0  0
  188.8770  177.2840  144.0950 C   0  0  0  0  0  3  0  0  0  0  0  0
  191.1960  176.3820  144.8670 C   0  0  0  0  0  0  0  0  0  0  0  0
  187.7160  177.3820  142.1020 O   0  0  0  0  0  1  0  0  0  0  0  0
  191.6550  176.3000  147.2590 C   0  0  1  0  0  3  0  0  0  0  0  0
  190.0400  177.3740  140.4870 C   0  0  0  0  0  2  0  0  0  0  0  0
  191.4200  177.3800  139.8400 C   0  0  0  0  0  2  0  0  0  0  0  0
  193.0870  175.6200  136.9470 C   0  0  0  0  0  0  0  0  0  0  0  0
  192.7750  175.9740  138.1960 C   0  0  0  0  0  3  0  0  0  0  0  0
  190.0600  175.1720  136.9950 C   0  0  0  0  0  0  0  0  0  0  0  0
  192.1450  175.8560  135.8120 C   0  0  0  0  0  2  0  0  0  0  0  0
  190.8970  175.0500  135.9620 C   0  0  0  0  0  3  0  0  0  0  0  0
  190.2810  176.0970  138.1280 C   0  0  0  0  0  3  0  0  0  0  0  0
  191.4580  176.4910  138.6380 C   0  0  0  0  0  0  0  0  0  0  0  0
  194.3820  175.0820  136.6700 N   0  0  0  0  0  0  0  0  0  0  0  0
  196.4290  174.2930  136.3180 C   0  0  1  0  0  3  0  0  0  0  0  0
  195.3940  174.2890  137.3990 C   0  0  0  0  0  2  0  0  0  0  0  0
  195.3610  175.0500  135.5640 C   0  0  2  0  0  3  0  0  0  0  0  0
  195.7290  176.4640  135.1200 C   0  0  0  0  0  1  0  0  0  0  0  0
  198.7600  174.8800  136.2710 O   0  0  0  0  0  0  0  0  0  0  0  0
  197.6490  175.0830  136.7530 C   0  0  0  0  0  3  0  0  0  0  0  0
  188.7730  174.4200  136.9500 C   0  0  0  0  0  2  0  0  0  0  0  0
  187.7150  175.2760  137.2870 O   0  0  0  0  0  0  0  0  0  0  0  0
  186.3010  173.6440  137.2830 C   0  0  0  0  0  1  0  0  0  0  0  0
  186.6780  174.8180  136.6150 O   0  0  0  0  0  0  0  0  0  0  0  0
  188.4250  178.1960  146.6020 O   0  0  0  0  0  0  0  0  0  0  0  0
  187.2120  177.4990  146.8730 C   0  0  0  0  0  2  0  0  0  0  0  0
  185.7550  178.0050  144.8800 N   0  0  0  0  0  2  0  0  0  0  0  0
  186.0440  178.2080  146.2650 C   0  0  0  0  0  0  0  0  0  0  0  0
  185.3070  178.9460  146.9810 O   0  0  0  0  0  0  0  0  0  0  0  0
  183.1430  178.4460  144.5340 O   0  0  0  0  0  1  0  0  0  0  0  0
  184.5020  178.8940  144.0390 P   0  0  1  0  0  0  0  0  0  0  0  0
  184.6960  180.5520  144.3400 O   0  0  0  0  0  0  0  0  0  0  0  0
  184.6430  178.5660  142.2510 C   0  0  2  0  0  3  0  0  0  0  0  0
  185.3120  179.6280  141.6380 O   0  0  0  0  0  1  0  0  0  0  0  0
  183.2670  178.4050  141.6070 C   0  0  0  0  0  2  0  0  0  0  0  0
  183.3470  177.7030  140.2540 C   0  0  0  0  0  2  0  0  0  0  0  0
  183.5370  178.7050  139.1280 C   0  0  0  0  0  2  0  0  0  0  0  0
  184.4510  177.2970  137.3550 O   0  0  0  0  0  0  0  0  0  0  0  0
  185.8140  178.6140  138.6020 O   0  0  0  0  0  0  0  0  0  0  0  0
  184.6490  178.2870  138.2870 N   0  0  0  0  0  0  0  0  0  0  0  0
  1  2  1  0  0  0  0
  2 34  1  6  0  0  0
  2  4  1  0  0  0  0
  3  7  2  0  0  0  0
  5 10  1  0  0  0  0
  6 13  1  0  0  0  0
  7 11  1  0  0  0  0
  8  3  1  0  0  0  0
  8  5  2  0  0  0  0
 10  1  2  0  0  0  0
 11  1  1  0  0  0  0
 11  6  2  0  0  0  0
 12  5  1  0  0  0  0
 13  4  1  0  0  0  0
 13  9  1  6  0  0  0
 14  8  1  0  0  0  0
 15 14  1  0  0  0  0
 16 17  2  0  0  0  0
 17 22  1  0  0  0  0
 18 21  1  0  0  0  0
 19 20  1  0  0  0  0
 19 16  1  0  0  0  0
 20 18  2  0  0  0  0
 21 22  2  0  0  0  0
 22 15  1  0  0  0  0
 23 16  1  0  0  0  0
 23 25  1  0  0  0  0
 24 29  1  1  0  0  0
 24 25  1  0  0  0  0
 26 27  1  1  0  0  0
 26 24  1  0  0  0  0
 26 23  1  0  0  0  0
 28 29  2  0  0  0  0
 30 18  1  0  0  0  0
 30 31  1  0  0  0  0
 33 32  1  0  0  0  0
 33 31  1  0  0  0  0
 34 35  1  0  0  0  0
 36 37  1  0  0  0  0
 37 35  1  0  0  0  0
 37 38  2  0  0  0  0
 40 41  2  1  0  0  0
 40 39  1  0  0  0  0
 40 36  1  0  0  0  0
 42 43  1  6  0  0  0
 42 40  1  0  0  0  0
 44 42  1  0  0  0  0
 45 44  1  0  0  0  0
 46 45  1  0  0  0  0
 47 49  2  0  0  0  0
 49 48  2  0  0  0  0
 49 46  1  0  0  0  0
M  END
>  <MODEL>
3

>  <REMARK>
 VINA RESULT:      -7.9      1.490      4.762
  Name = 
  17 active torsions:
  status: ('A' for Active; 'I' for Inactive)
    1  A    between atoms: C_1  and  C_32
    2  A    between atoms: C_1  and  C_47
    3  A    between atoms: N_2  and  C_3
    4  A    between atoms: N_4  and  P_28
    5  A    between atoms: C_6  and  C_31
    6  A    between atoms: C_8  and  C_18
    7  A    between atoms: C_8  and  P_28
    8  A    between atoms: C_9  and  C_48
    9  A    between atoms: C_10  and  O_42
   10  A    between atoms: O_15  and  O_20
   11  A    between atoms: O_15  and  C_37
   12  A    between atoms: C_18  and  C_25
   13  A    between atoms: C_19  and  C_37
   14  A    between atoms: C_25  and  C_35
   15  A    between atoms: N_30  and  C_35
   16  A    between atoms: C_31  and  O_42
   17  A    between atoms: C_32  and  C_36
                            x       y       z     vdW  Elec       q    Type
                         _______ _______ _______ _____ _____    ______ ____

>  <TORSDO>
F 17

$$$$
=
 OpenBabel11062414013D

 49 52  0  0  1  0  0  0  0  0999 V2000
  188.0050  177.4560  145.2320 C   0  0  0  0  0  0  0  0  0  0  0  0
  186.8010  177.9320  145.6220 C   0  0  1  0  0  3  0  0  0  0  0  0
  191.0530  177.0560  144.6270 C   0  0  0  0  0  3  0  0  0  0  0  0
  186.5980  178.5360  146.9950 C   0  0  0  0  0  2  0  0  0  0  0  0
  189.1100  176.5010  143.1420 C   0  0  0  0  0  0  0  0  0  0  0  0
  188.8060  177.6230  147.6360 C   0  0  0  0  0  3  0  0  0  0  0  0
  190.4030  177.2300  145.9280 C   0  0  0  0  0  3  0  0  0  0  0  0
  190.5310  176.7850  143.4350 C   0  0  0  0  0  0  0  0  0  0  0  0
  187.3470  178.2480  149.3670 O   0  0  0  0  0  1  0  0  0  0  0  0
  188.0690  176.8230  143.9050 C   0  0  0  0  0  3  0  0  0  0  0  0
  189.1190  177.4120  146.2160 C   0  0  0  0  0  0  0  0  0  0  0  0
  188.8190  175.8820  141.9350 O   0  0  0  0  0  1  0  0  0  0  0  0
  187.6220  178.0980  148.0120 C   0  0  1  0  0  3  0  0  0  0  0  0
  191.5040  176.7000  142.3020 C   0  0  0  0  0  2  0  0  0  0  0  0
  191.3220  177.8700  141.3420 C   0  0  0  0  0  2  0  0  0  0  0  0
  189.3520  176.9700  138.2520 C   0  0  0  0  0  0  0  0  0  0  0  0
  189.8810  177.6890  139.2440 C   0  0  0  0  0  3  0  0  0  0  0  0
  192.3390  176.3840  137.9390 C   0  0  0  0  0  0  0  0  0  0  0  0
  189.9540  175.6700  137.8270 C   0  0  0  0  0  2  0  0  0  0  0  0
  191.3200  175.8620  137.2540 C   0  0  0  0  0  3  0  0  0  0  0  0
  192.2340  176.8600  139.3360 C   0  0  0  0  0  3  0  0  0  0  0  0
  191.1580  177.3930  139.9340 C   0  0  0  0  0  0  0  0  0  0  0  0
  188.1370  177.4020  137.6360 N   0  0  0  0  0  0  0  0  0  0  0  0
  186.2030  177.9940  136.7140 C   0  0  1  0  0  3  0  0  0  0  0  0
  186.7470  177.6600  138.0680 C   0  0  0  0  0  2  0  0  0  0  0  0
  187.6410  177.7860  136.2990 C   0  0  2  0  0  3  0  0  0  0  0  0
  187.8910  176.6720  135.2850 C   0  0  0  0  0  1  0  0  0  0  0  0
  184.2210  177.2270  135.5910 O   0  0  0  0  0  0  0  0  0  0  0  0
  185.2040  176.9430  136.2690 C   0  0  0  0  0  3  0  0  0  0  0  0
  193.6890  176.3810  137.3050 C   0  0  0  0  0  2  0  0  0  0  0  0
  193.5780  175.9980  135.9600 O   0  0  0  0  0  0  0  0  0  0  0  0
  195.4200  174.9070  136.2440 C   0  0  0  0  0  1  0  0  0  0  0  0
  194.8180  175.9450  135.5180 O   0  0  0  0  0  0  0  0  0  0  0  0
  185.7260  177.9020  144.7220 O   0  0  0  0  0  0  0  0  0  0  0  0
  185.1580  179.0700  144.1360 C   0  0  0  0  0  2  0  0  0  0  0  0
  182.8850  178.8980  143.0620 N   0  0  0  0  0  2  0  0  0  0  0  0
  183.6680  179.0500  144.2480 C   0  0  0  0  0  0  0  0  0  0  0  0
  183.1150  179.1310  145.3840 O   0  0  0  0  0  0  0  0  0  0  0  0
  180.5820  178.2050  144.2250 O   0  0  0  0  0  1  0  0  0  0  0  0
  181.1370  179.0050  143.0650 P   0  0  1  0  0  0  0  0  0  0  0  0
  180.6770  180.6290  143.2260 O   0  0  0  0  0  0  0  0  0  0  0  0
  180.5000  178.3310  141.4950 C   0  0  2  0  0  3  0  0  0  0  0  0
  179.5260  177.3690  141.7690 O   0  0  0  0  0  1  0  0  0  0  0  0
  181.6170  177.6900  140.6730 C   0  0  0  0  0  2  0  0  0  0  0  0
  181.5880  178.1460  139.2160 C   0  0  0  0  0  2  0  0  0  0  0  0
  182.9840  178.4910  138.7240 C   0  0  0  0  0  2  0  0  0  0  0  0
  182.2550  180.8210  138.6660 O   0  0  0  0  0  0  0  0  0  0  0  0
  184.4180  180.2970  139.1070 O   0  0  0  0  0  0  0  0  0  0  0  0
  183.2420  179.9060  138.9450 N   0  0  0  0  0  0  0  0  0  0  0  0
  1  2  1  0  0  0  0
  1 11  1  0  0  0  0
  2 34  1  6  0  0  0
  2  4  1  0  0  0  0
  3  7  2  0  0  0  0
  4 13  1  0  0  0  0
  5  8  2  0  0  0  0
  5 10  1  0  0  0  0
  6 13  1  0  0  0  0
  7 11  1  0  0  0  0
  8  3  1  0  0  0  0
 10  1  2  0  0  0  0
 11  6  2  0  0  0  0
 12  5  1  0  0  0  0
 13  9  1  1  0  0  0
 14  8  1  0  0  0  0
 15 14  1  0  0  0  0
 16 17  2  0  0  0  0
 17 22  1  0  0  0  0
 18 21  1  0  0  0  0
 19 16  1  0  0  0  0
 20 19  1  0  0  0  0
 20 18  2  0  0  0  0
 21 22  2  0  0  0  0
 22 15  1  0  0  0  0
 23 25  1  0  0  0  0
 23 16  1  0  0  0  0
 24 29  1  6  0  0  0
 24 25  1  0  0  0  0
 26 27  1  6  0  0  0
 26 24  1  0  0  0  0
 26 23  1  0  0  0  0
 28 29  2  0  0  0  0
 30 18  1  0  0  0  0
 31 30  1  0  0  0  0
 33 31  1  0  0  0  0
 33 32  1  0  0  0  0
 35 37  1  0  0  0  0
 35 34  1  0  0  0  0
 36 40  1  0  0  0  0
 36 37  1  0  0  0  0
 37 38  2  0  0  0  0
 40 41  2  1  0  0  0
 40 39  1  0  0  0  0
 42 43  1  1  0  0  0
 42 40  1  0  0  0  0
 44 42  1  0  0  0  0
 45 44  1  0  0  0  0
 46 49  1  0  0  0  0
 46 45  1  0  0  0  0
 47 49  2  0  0  0  0
 49 48  2  0  0  0  0
M  END
>  <MODEL>
4

>  <REMARK>
 VINA RESULT:      -7.8      1.940      2.810
  Name = 
  17 active torsions:
  status: ('A' for Active; 'I' for Inactive)
    1  A    between atoms: C_1  and  C_32
    2  A    between atoms: C_1  and  C_47
    3  A    between atoms: N_2  and  C_3
    4  A    between atoms: N_4  and  P_28
    5  A    between atoms: C_6  and  C_31
    6  A    between atoms: C_8  and  C_18
    7  A    between atoms: C_8  and  P_28
    8  A    between atoms: C_9  and  C_48
    9  A    between atoms: C_10  and  O_42
   10  A    between atoms: O_15  and  O_20
   11  A    between atoms: O_15  and  C_37
   12  A    between atoms: C_18  and  C_25
   13  A    between atoms: C_19  and  C_37
   14  A    between atoms: C_25  and  C_35
   15  A    between atoms: N_30  and  C_35
   16  A    between atoms: C_31  and  O_42
   17  A    between atoms: C_32  and  C_36
                            x       y       z     vdW  Elec       q    Type
                         _______ _______ _______ _____ _____    ______ ____

>  <TORSDO>
F 17

$$$$
=
 OpenBabel11062414013D

 49 52  0  0  1  0  0  0  0  0999 V2000
  186.6320  178.2030  142.9230 C   0  0  0  0  0  0  0  0  0  0  0  0
  187.9120  177.7770  142.9970 C   0  0  1  0  0  3  0  0  0  0  0  0
  183.5170  178.4880  143.1140 C   0  0  0  0  0  3  0  0  0  0  0  0
  188.4820  177.2110  144.2800 C   0  0  0  0  0  2  0  0  0  0  0  0
  184.9930  179.0740  141.1740 C   0  0  0  0  0  0  0  0  0  0  0  0
  186.4790  178.0630  145.4540 C   0  0  0  0  0  3  0  0  0  0  0  0
  184.4850  178.3640  144.2080 C   0  0  0  0  0  3  0  0  0  0  0  0
  183.7070  178.7500  141.8250 C   0  0  0  0  0  0  0  0  0  0  0  0
  188.3550  177.5250  146.7600 O   0  0  0  0  0  1  0  0  0  0  0  0
  186.2070  178.8050  141.6490 C   0  0  0  0  0  3  0  0  0  0  0  0
  185.8060  178.2310  144.1590 C   0  0  0  0  0  0  0  0  0  0  0  0
  184.9430  179.6760  139.9250 O   0  0  0  0  0  1  0  0  0  0  0  0
  187.7370  177.6350  145.5200 C   0  0  1  0  0  3  0  0  0  0  0  0
  182.4740  178.7770  140.9790 C   0  0  0  0  0  2  0  0  0  0  0  0
  182.3370  177.4870  140.1780 C   0  0  0  0  0  2  0  0  0  0  0  0
  181.3630  179.1200  136.9180 C   0  0  0  0  0  0  0  0  0  0  0  0
  181.8050  178.9680  138.1690 C   0  0  0  0  0  3  0  0  0  0  0  0
  183.5750  177.0350  136.5610 C   0  0  0  0  0  0  0  0  0  0  0  0
  181.3500  177.9800  135.9520 C   0  0  0  0  0  2  0  0  0  0  0  0
  182.7340  177.5120  135.6410 C   0  0  0  0  0  3  0  0  0  0  0  0
  183.2510  176.9390  138.0010 C   0  0  0  0  0  3  0  0  0  0  0  0
  182.4480  177.7480  138.7100 C   0  0  0  0  0  0  0  0  0  0  0  0
  180.8120  180.3750  136.5120 N   0  0  0  0  0  0  0  0  0  0  0  0
  180.0350  182.3420  135.8300 C   0  0  1  0  0  3  0  0  0  0  0  0
  180.5360  181.0630  135.2340 C   0  0  0  0  0  2  0  0  0  0  0  0
  180.2650  181.6010  137.1270 C   0  0  2  0  0  3  0  0  0  0  0  0
  181.2750  182.2270  138.0850 C   0  0  0  0  0  1  0  0  0  0  0  0
  180.6100  184.5020  134.9440 O   0  0  0  0  0  0  0  0  0  0  0  0
  180.9850  183.4820  135.5160 C   0  0  0  0  0  3  0  0  0  0  0  0
  184.8710  176.4590  136.0990 C   0  0  0  0  0  2  0  0  0  0  0  0
  185.2290  175.3820  136.9220 O   0  0  0  0  0  0  0  0  0  0  0  0
  187.3630  175.5400  137.2140 C   0  0  0  0  0  1  0  0  0  0  0  0
  186.3680  174.9400  136.4280 O   0  0  0  0  0  0  0  0  0  0  0  0
  188.7200  177.8230  141.8510 O   0  0  0  0  0  0  0  0  0  0  0  0
  189.5940  176.7680  141.4630 C   0  0  0  0  0  2  0  0  0  0  0  0
  190.6290  175.8870  139.3400 N   0  0  0  0  0  2  0  0  0  0  0  0
  190.1270  176.9990  140.0850 C   0  0  0  0  0  0  0  0  0  0  0  0
  190.0990  178.1590  139.5800 O   0  0  0  0  0  0  0  0  0  0  0  0
  190.5250  176.9040  136.8720 O   0  0  0  0  0  0  0  0  0  0  0  0
  191.4040  176.0690  137.7810 P   0  0  1  0  0  0  0  0  0  0  0  0
  192.8990  176.8410  137.9870 O   0  0  0  0  0  1  0  0  0  0  0  0
  191.6510  174.4190  137.0460 C   0  0  2  0  0  3  0  0  0  0  0  0
  190.5220  173.6330  137.2870 O   0  0  0  0  0  1  0  0  0  0  0  0
  192.8760  173.7260  137.6390 C   0  0  0  0  0  2  0  0  0  0  0  0
  194.0310  173.6530  136.6430 C   0  0  0  0  0  2  0  0  0  0  0  0
  195.2940  174.2650  137.2240 C   0  0  0  0  0  2  0  0  0  0  0  0
  195.6720  172.1200  138.3280 O   0  0  0  0  0  0  0  0  0  0  0  0
  195.8520  174.0620  139.4860 O   0  0  0  0  0  0  0  0  0  0  0  0
  195.7210  173.4920  138.3810 N   0  0  0  0  0  0  0  0  0  0  0  0
  1  2  1  0  0  0  0
  1 11  1  0  0  0  0
  2 34  1  6  0  0  0
  2  4  1  0  0  0  0
  3  7  2  0  0  0  0
  4 13  1  0  0  0  0
  5 10  1  0  0  0  0
  5  8  2  0  0  0  0
  6 13  1  0  0  0  0
  8  3  1  0  0  0  0
 10  1  2  0  0  0  0
 11  7  1  0  0  0  0
 11  6  2  0  0  0  0
 12  5  1  0  0  0  0
 13  9  1  1  0  0  0
 14  8  1  0  0  0  0
 15 14  1  0  0  0  0
 16 17  2  0  0  0  0
 17 22  1  0  0  0  0
 18 21  1  0  0  0  0
 19 16  1  0  0  0  0
 20 19  1  0  0  0  0
 20 18  2  0  0  0  0
 21 22  2  0  0  0  0
 22 15  1  0  0  0  0
 23 16  1  0  0  0  0
 23 26  1  0  0  0  0
 24 29  1  1  0  0  0
 24 26  1  0  0  0  0
 25 24  1  0  0  0  0
 25 23  1  0  0  0  0
 26 27  1  1  0  0  0
 28 29  2  0  0  0  0
 30 18  1  0  0  0  0
 30 31  1  0  0  0  0
 33 31  1  0  0  0  0
 33 32  1  0  0  0  0
 35 34  1  0  0  0  0
 36 37  1  0  0  0  0
 37 35  1  0  0  0  0
 38 37  2  0  0  0  0
 40 39  2  6  0  0  0
 40 41  1  0  0  0  0
 40 36  1  0  0  0  0
 42 43  1  1  0  0  0
 42 44  1  0  0  0  0
 42 40  1  0  0  0  0
 45 46  1  0  0  0  0
 45 44  1  0  0  0  0
 46 49  1  0  0  0  0
 47 49  2  0  0  0  0
 49 48  2  0  0  0  0
M  END
>  <MODEL>
5

>  <REMARK>
 VINA RESULT:      -7.8      3.433      8.689
  Name = 
  17 active torsions:
  status: ('A' for Active; 'I' for Inactive)
    1  A    between atoms: C_1  and  C_32
    2  A    between atoms: C_1  and  C_47
    3  A    between atoms: N_2  and  C_3
    4  A    between atoms: N_4  and  P_28
    5  A    between atoms: C_6  and  C_31
    6  A    between atoms: C_8  and  C_18
    7  A    between atoms: C_8  and  P_28
    8  A    between atoms: C_9  and  C_48
    9  A    between atoms: C_10  and  O_42
   10  A    between atoms: O_15  and  O_20
   11  A    between atoms: O_15  and  C_37
   12  A    between atoms: C_18  and  C_25
   13  A    between atoms: C_19  and  C_37
   14  A    between atoms: C_25  and  C_35
   15  A    between atoms: N_30  and  C_35
   16  A    between atoms: C_31  and  O_42
   17  A    between atoms: C_32  and  C_36
                            x       y       z     vdW  Elec       q    Type
                         _______ _______ _______ _____ _____    ______ ____

>  <TORSDO>
F 17

$$$$
=
 OpenBabel11062414013D

 49 52  0  0  1  0  0  0  0  0999 V2000
  187.8380  177.5910  144.3020 C   0  0  0  0  0  0  0  0  0  0  0  0
  186.7390  177.8110  145.0570 C   0  0  1  0  0  3  0  0  0  0  0  0
  190.6830  177.6880  142.9920 C   0  0  0  0  0  3  0  0  0  0  0  0
  186.8310  177.9680  146.5600 C   0  0  0  0  0  2  0  0  0  0  0  0
  188.4740  177.3980  141.8400 C   0  0  0  0  0  0  0  0  0  0  0  0
  189.1550  177.1330  146.4250 C   0  0  0  0  0  3  0  0  0  0  0  0
  190.3380  177.4120  144.3890 C   0  0  0  0  0  3  0  0  0  0  0  0
  189.9140  177.7240  141.9080 C   0  0  0  0  0  0  0  0  0  0  0  0
  188.1050  177.0810  148.5240 O   0  0  0  0  0  1  0  0  0  0  0  0
  187.6220  177.3790  142.8620 C   0  0  0  0  0  3  0  0  0  0  0  0
  189.1470  177.3750  144.9750 C   0  0  0  0  0  0  0  0  0  0  0  0
  187.9380  177.1290  140.5890 O   0  0  0  0  0  1  0  0  0  0  0  0
  188.0720  177.3590  147.1620 C   0  0  1  0  0  3  0  0  0  0  0  0
  190.6090  178.0690  140.6290 C   0  0  0  0  0  2  0  0  0  0  0  0
  191.7740  177.1210  140.3710 C   0  0  0  0  0  2  0  0  0  0  0  0
  190.0890  175.4630  137.4300 C   0  0  0  0  0  0  0  0  0  0  0  0
  190.3830  176.3640  138.3700 C   0  0  0  0  0  3  0  0  0  0  0  0
  193.0750  175.9260  136.9510 C   0  0  0  0  0  0  0  0  0  0  0  0
  191.0810  174.4320  137.0010 C   0  0  0  0  0  2  0  0  0  0  0  0
  192.2670  175.0560  136.3420 C   0  0  0  0  0  3  0  0  0  0  0  0
  192.8800  176.3980  138.3390 C   0  0  0  0  0  3  0  0  0  0  0  0
  191.7160  176.5560  138.9890 C   0  0  0  0  0  0  0  0  0  0  0  0
  188.7700  175.4240  136.8790 N   0  0  0  0  0  0  0  0  0  0  0  0
  186.6870  175.4000  136.1070 C   0  0  1  0  0  3  0  0  0  0  0  0
  187.6600  176.3800  136.6830 C   0  0  0  0  0  2  0  0  0  0  0  0
  187.8520  174.4500  136.2560 C   0  0  2  0  0  3  0  0  0  0  0  0
  187.6260  173.2510  137.1740 C   0  0  0  0  0  1  0  0  0  0  0  0
  184.4200  174.8120  136.6490 O   0  0  0  0  0  0  0  0  0  0  0  0
  185.5150  175.1980  137.0480 C   0  0  0  0  0  3  0  0  0  0  0  0
  194.3110  176.3590  136.2360 C   0  0  0  0  0  2  0  0  0  0  0  0
  195.1420  175.2510  136.0170 O   0  0  0  0  0  0  0  0  0  0  0  0
  197.2510  175.2040  136.4800 C   0  0  0  0  0  1  0  0  0  0  0  0
  195.9670  175.2360  137.0440 O   0  0  0  0  0  0  0  0  0  0  0  0
  185.4900  177.9360  144.4310 O   0  0  0  0  0  0  0  0  0  0  0  0
  184.9300  179.1850  144.0360 C   0  0  0  0  0  2  0  0  0  0  0  0
  182.7850  178.9640  142.7320 N   0  0  0  0  0  2  0  0  0  0  0  0
  183.4380  179.1110  143.9950 C   0  0  0  0  0  0  0  0  0  0  0  0
  182.7710  179.1430  145.0710 O   0  0  0  0  0  0  0  0  0  0  0  0
  180.4290  177.8400  143.3020 O   0  0  0  0  0  1  0  0  0  0  0  0
  181.0430  179.0100  142.5600 P   0  0  1  0  0  0  0  0  0  0  0  0
  180.4560  180.4620  143.2080 O   0  0  0  0  0  0  0  0  0  0  0  0
  180.6210  178.9030  140.7900 C   0  0  2  0  0  3  0  0  0  0  0  0
  179.2480  178.6810  140.6560 O   0  0  0  0  0  1  0  0  0  0  0  0
  181.3780  177.7670  140.1060 C   0  0  0  0  0  2  0  0  0  0  0  0
  182.3460  178.2830  139.0430 C   0  0  0  0  0  2  0  0  0  0  0  0
  183.7730  177.8670  139.3550 C   0  0  0  0  0  2  0  0  0  0  0  0
  184.1940  180.2680  139.2220 O   0  0  0  0  0  0  0  0  0  0  0  0
  185.7590  178.7800  138.5240 O   0  0  0  0  0  0  0  0  0  0  0  0
  184.6710  178.9840  139.1060 N   0  0  0  0  0  0  0  0  0  0  0  0
  1 11  1  0  0  0  0
  1  2  1  0  0  0  0
  2 34  1  6  0  0  0
  2  4  1  0  0  0  0
  3  7  2  0  0  0  0
  4 13  1  0  0  0  0
  5  8  2  0  0  0  0
  5 10  1  0  0  0  0
  6 13  1  0  0  0  0
  7 11  1  0  0  0  0
  8  3  1  0  0  0  0
 10  1  2  0  0  0  0
 11  6  2  0  0  0  0
 12  5  1  0  0  0  0
 13  9  1  1  0  0  0
 14  8  1  0  0  0  0
 15 14  1  0  0  0  0
 16 17  2  0  0  0  0
 17 22  1  0  0  0  0
 18 21  1  0  0  0  0
 19 16  1  0  0  0  0
 20 18  2  0  0  0  0
 20 19  1  0  0  0  0
 21 22  2  0  0  0  0
 22 15  1  0  0  0  0
 23 16  1  0  0  0  0
 24 26  1  0  0  0  0
 24 25  1  0  0  0  0
 24 29  1  1  0  0  0
 25 23  1  0  0  0  0
 26 23  1  0  0  0  0
 26 27  1  1  0  0  0
 28 29  2  0  0  0  0
 30 18  1  0  0  0  0
 31 30  1  0  0  0  0
 31 33  1  0  0  0  0
 32 33  1  0  0  0  0
 35 34  1  0  0  0  0
 36 37  1  0  0  0  0
 37 35  1  0  0  0  0
 37 38  2  0  0  0  0
 40 36  1  0  0  0  0
 40 41  2  1  0  0  0
 40 39  1  0  0  0  0
 42 43  1  1  0  0  0
 42 40  1  0  0  0  0
 44 42  1  0  0  0  0
 45 46  1  0  0  0  0
 45 44  1  0  0  0  0
 48 49  2  0  0  0  0
 49 47  2  0  0  0  0
 49 46  1  0  0  0  0
M  END
>  <MODEL>
6

>  <REMARK>
 VINA RESULT:      -7.5      1.742      2.495
  Name = 
  17 active torsions:
  status: ('A' for Active; 'I' for Inactive)
    1  A    between atoms: C_1  and  C_32
    2  A    between atoms: C_1  and  C_47
    3  A    between atoms: N_2  and  C_3
    4  A    between atoms: N_4  and  P_28
    5  A    between atoms: C_6  and  C_31
    6  A    between atoms: C_8  and  C_18
    7  A    between atoms: C_8  and  P_28
    8  A    between atoms: C_9  and  C_48
    9  A    between atoms: C_10  and  O_42
   10  A    between atoms: O_15  and  O_20
   11  A    between atoms: O_15  and  C_37
   12  A    between atoms: C_18  and  C_25
   13  A    between atoms: C_19  and  C_37
   14  A    between atoms: C_25  and  C_35
   15  A    between atoms: N_30  and  C_35
   16  A    between atoms: C_31  and  O_42
   17  A    between atoms: C_32  and  C_36
                            x       y       z     vdW  Elec       q    Type
                         _______ _______ _______ _____ _____    ______ ____

>  <TORSDO>
F 17

$$$$
=
 OpenBabel11062414013D

 49 52  0  0  1  0  0  0  0  0999 V2000
  183.9490  178.7920  142.2890 C   0  0  0  0  0  0  0  0  0  0  0  0
  183.6040  178.6220  143.5840 C   0  0  1  0  0  3  0  0  0  0  0  0
  184.2270  178.5850  139.1740 C   0  0  0  0  0  3  0  0  0  0  0  0
  182.1550  178.5000  144.0060 C   0  0  0  0  0  2  0  0  0  0  0  0
  186.0570  178.9070  140.8590 C   0  0  0  0  0  0  0  0  0  0  0  0
  181.5140  179.2680  141.7440 C   0  0  0  0  0  3  0  0  0  0  0  0
  183.0310  178.9050  139.9580 C   0  0  0  0  0  3  0  0  0  0  0  0
  185.5060  178.5430  139.5360 C   0  0  0  0  0  0  0  0  0  0  0  0
  179.8900  179.4000  143.4350 O   0  0  0  0  0  1  0  0  0  0  0  0
  185.3810  178.9740  142.0030 C   0  0  0  0  0  2  0  0  0  0  0  0
  182.8790  178.9890  141.2750 C   0  0  0  0  0  0  0  0  0  0  0  0
  187.4200  179.1590  140.9350 O   0  0  0  0  0  1  0  0  0  0  0  0
  181.1800  179.0900  143.0190 C   0  0  0  0  0  0  0  0  0  0  0  0
  186.4720  178.1480  138.4660 C   0  0  0  0  0  2  0  0  0  0  0  0
  185.7990  177.2580  137.4280 C   0  0  0  0  0  2  0  0  0  0  0  0
  189.1130  175.7810  136.3880 C   0  0  0  0  0  0  0  0  0  0  0  0
  188.1700  176.3610  137.1350 C   0  0  0  0  0  3  0  0  0  0  0  0
  186.8280  173.7530  136.2150 C   0  0  0  0  0  0  0  0  0  0  0  0
  188.7610  174.9520  135.1960 C   0  0  0  0  0  2  0  0  0  0  0  0
  188.0060  173.7250  135.5880 C   0  0  0  0  0  3  0  0  0  0  0  0
  186.1410  174.9980  136.6210 C   0  0  0  0  0  3  0  0  0  0  0  0
  186.7100  176.1580  136.9860 C   0  0  0  0  0  0  0  0  0  0  0  0
  190.4910  176.0240  136.6780 N   0  0  0  0  0  0  0  0  0  0  0  0
  192.6480  176.3040  137.1330 C   0  0  1  0  0  3  0  0  0  0  0  0
  191.7940  175.6210  136.1100 C   0  0  0  0  0  2  0  0  0  0  0  0
  191.3090  176.7580  137.6650 C   0  0  2  0  0  3  0  0  0  0  0  0
  190.9700  176.3190  139.0880 C   0  0  0  0  0  1  0  0  0  0  0  0
  194.6140  175.3620  138.1460 O   0  0  0  0  0  0  0  0  0  0  0  0
  193.4030  175.2820  137.9630 C   0  0  0  0  0  3  0  0  0  0  0  0
  186.1060  172.4630  136.4140 C   0  0  0  0  0  2  0  0  0  0  0  0
  184.7230  172.6960  136.4460 O   0  0  0  0  0  0  0  0  0  0  0  0
  183.7060  170.9000  135.8120 C   0  0  0  0  0  1  0  0  0  0  0  0
  184.2020  171.5870  136.9300 O   0  0  0  0  0  0  0  0  0  0  0  0
  184.6110  178.5150  144.5550 O   0  0  0  0  0  0  0  0  0  0  0  0
  184.3700  178.6350  145.9540 C   0  0  0  0  0  2  0  0  0  0  0  0
  186.7140  177.7740  146.2920 N   0  0  0  0  0  2  0  0  0  0  0  0
  185.6550  178.6360  146.7170 C   0  0  0  0  0  0  0  0  0  0  0  0
  185.8080  179.4150  147.7030 O   0  0  0  0  0  0  0  0  0  0  0  0
  188.5530  178.9070  147.8650 O   0  0  0  0  0  0  0  0  0  0  0  0
  188.2020  177.5930  147.1970 P   0  0  1  0  0  0  0  0  0  0  0  0
  187.9950  176.3950  148.3790 O   0  0  0  0  0  1  0  0  0  0  0  0
  189.5360  177.1120  146.0510 C   0  0  2  0  0  3  0  0  0  0  0  0
  190.6810  176.7910  146.7840 O   0  0  0  0  0  1  0  0  0  0  0  0
  189.8680  178.2440  145.0800 C   0  0  0  0  0  2  0  0  0  0  0  0
  190.9490  177.8410  144.0800 C   0  0  0  0  0  2  0  0  0  0  0  0
  190.3560  177.5940  142.7030 C   0  0  0  0  0  2  0  0  0  0  0  0
  188.3030  176.2780  142.8230 O   0  0  0  0  0  0  0  0  0  0  0  0
  190.3300  175.2600  142.8510 O   0  0  0  0  0  0  0  0  0  0  0  0
  189.6700  176.3100  142.6920 N   0  0  0  0  0  0  0  0  0  0  0  0
  1  2  1  0  0  0  0
  2  4  1  0  0  0  0
  2 34  1  6  0  0  0
  3  8  1  0  0  0  0
  3  7  2  0  0  0  0
  5 12  1  0  0  0  0
  5 10  1  0  0  0  0
  6 13  2  0  0  0  0
  7 11  1  0  0  0  0
  8  5  2  0  0  0  0
 10  1  1  0  0  0  0
 11  6  1  0  0  0  0
 11  1  2  0  0  0  0
 13  9  1  0  0  0  0
 13  4  1  0  0  0  0
 14  8  1  0  0  0  0
 15 14  1  0  0  0  0
 16 23  1  0  0  0  0
 16 17  2  0  0  0  0
 18 30  1  0  0  0  0
 18 21  1  0  0  0  0
 19 20  1  0  0  0  0
 19 16  1  0  0  0  0
 20 18  2  0  0  0  0
 21 22  2  0  0  0  0
 22 17  1  0  0  0  0
 22 15  1  0  0  0  0
 23 26  1  0  0  0  0
 24 26  1  0  0  0  0
 24 29  1  1  0  0  0
 25 23  1  0  0  0  0
 25 24  1  0  0  0  0
 26 27  1  1  0  0  0
 29 28  2  0  0  0  0
 30 31  1  0  0  0  0
 31 33  1  0  0  0  0
 32 33  1  0  0  0  0
 34 35  1  0  0  0  0
 35 37  1  0  0  0  0
 36 37  1  0  0  0  0
 36 40  1  0  0  0  0
 37 38  2  0  0  0  0
 40 39  2  1  0  0  0
 40 41  1  0  0  0  0
 42 43  1  1  0  0  0
 42 40  1  0  0  0  0
 44 42  1  0  0  0  0
 45 44  1  0  0  0  0
 46 45  1  0  0  0  0
 49 46  1  0  0  0  0
 49 47  2  0  0  0  0
 49 48  2  0  0  0  0
M  END
>  <MODEL>
7

>  <REMARK>
 VINA RESULT:      -7.3      2.196      7.251
  Name = 
  17 active torsions:
  status: ('A' for Active; 'I' for Inactive)
    1  A    between atoms: C_1  and  C_32
    2  A    between atoms: C_1  and  C_47
    3  A    between atoms: N_2  and  C_3
    4  A    between atoms: N_4  and  P_28
    5  A    between atoms: C_6  and  C_31
    6  A    between atoms: C_8  and  C_18
    7  A    between atoms: C_8  and  P_28
    8  A    between atoms: C_9  and  C_48
    9  A    between atoms: C_10  and  O_42
   10  A    between atoms: O_15  and  O_20
   11  A    between atoms: O_15  and  C_37
   12  A    between atoms: C_18  and  C_25
   13  A    between atoms: C_19  and  C_37
   14  A    between atoms: C_25  and  C_35
   15  A    between atoms: N_30  and  C_35
   16  A    between atoms: C_31  and  O_42
   17  A    between atoms: C_32  and  C_36
                            x       y       z     vdW  Elec       q    Type
                         _______ _______ _______ _____ _____    ______ ____

>  <TORSDO>
F 17

$$$$
=
 OpenBabel11062414013D

 49 52  0  0  1  0  0  0  0  0999 V2000
  183.9180  178.8210  142.3360 C   0  0  0  0  0  0  0  0  0  0  0  0
  183.6030  178.7380  143.6470 C   0  0  1  0  0  3  0  0  0  0  0  0
  184.1270  178.4000  139.2370 C   0  0  0  0  0  3  0  0  0  0  0  0
  182.1660  178.6370  144.1100 C   0  0  0  0  0  2  0  0  0  0  0  0
  185.9920  178.8490  140.8520 C   0  0  0  0  0  0  0  0  0  0  0  0
  181.4680  179.2430  141.8160 C   0  0  0  0  0  3  0  0  0  0  0  0
  182.9470  178.7670  140.0250 C   0  0  0  0  0  3  0  0  0  0  0  0
  185.4140  178.3910  139.5710 C   0  0  0  0  0  0  0  0  0  0  0  0
  179.8810  179.4820  143.5310 O   0  0  0  0  0  1  0  0  0  0  0  0
  185.3410  178.9910  142.0040 C   0  0  0  0  0  2  0  0  0  0  0  0
  182.8240  178.9410  141.3360 C   0  0  0  0  0  0  0  0  0  0  0  0
  187.3540  179.1140  140.8790 O   0  0  0  0  0  1  0  0  0  0  0  0
  181.1640  179.1510  143.1070 C   0  0  0  0  0  0  0  0  0  0  0  0
  186.3580  177.9290  138.5090 C   0  0  0  0  0  2  0  0  0  0  0  0
  185.6000  177.4900  137.2620 C   0  0  0  0  0  2  0  0  0  0  0  0
  184.2980  173.9570  137.0040 C   0  0  0  0  0  0  0  0  0  0  0  0
  184.4910  175.2510  136.7400 C   0  0  0  0  0  3  0  0  0  0  0  0
  187.3420  174.0990  136.7230 C   0  0  0  0  0  0  0  0  0  0  0  0
  185.2920  173.1660  137.7910 C   0  0  0  0  0  2  0  0  0  0  0  0
  186.5930  173.0490  137.0660 C   0  0  0  0  0  3  0  0  0  0  0  0
  186.9630  175.5030  136.9920 C   0  0  0  0  0  3  0  0  0  0  0  0
  185.7240  176.0150  137.0450 C   0  0  0  0  0  0  0  0  0  0  0  0
  183.0770  173.3290  136.6040 N   0  0  0  0  0  0  0  0  0  0  0  0
  181.1500  172.3580  136.0760 C   0  0  1  0  0  3  0  0  0  0  0  0
  181.6330  173.6160  136.7280 C   0  0  0  0  0  2  0  0  0  0  0  0
  182.6300  172.1100  135.9030 C   0  0  2  0  0  3  0  0  0  0  0  0
  183.1830  170.8580  136.5800 C   0  0  0  0  0  1  0  0  0  0  0  0
  179.3340  170.9750  136.8300 O   0  0  0  0  0  0  0  0  0  0  0  0
  180.4230  171.4840  137.0800 C   0  0  0  0  0  3  0  0  0  0  0  0
  188.6900  173.8410  136.1400 C   0  0  0  0  0  2  0  0  0  0  0  0
  189.5680  173.4200  137.1490 O   0  0  0  0  0  0  0  0  0  0  0  0
  191.0870  174.2750  135.8740 C   0  0  0  0  0  1  0  0  0  0  0  0
  190.6810  173.0980  136.5200 O   0  0  0  0  0  0  0  0  0  0  0  0
  184.6330  178.7050  144.5990 O   0  0  0  0  0  0  0  0  0  0  0  0
  184.4040  178.5860  146.0010 C   0  0  0  0  0  2  0  0  0  0  0  0
  186.7370  177.7320  146.4240 N   0  0  0  0  0  2  0  0  0  0  0  0
  185.6910  178.6490  146.7570 C   0  0  0  0  0  0  0  0  0  0  0  0
  185.8580  179.5260  147.6540 O   0  0  0  0  0  0  0  0  0  0  0  0
  188.5600  178.9850  147.9230 O   0  0  0  0  0  0  0  0  0  0  0  0
  188.2250  177.6270  147.3400 P   0  0  1  0  0  0  0  0  0  0  0  0
  188.0300  176.5050  148.5970 O   0  0  0  0  0  1  0  0  0  0  0  0
  189.5680  177.0900  146.2290 C   0  0  2  0  0  3  0  0  0  0  0  0
  190.7260  176.8690  146.9780 O   0  0  0  0  0  1  0  0  0  0  0  0
  189.8570  178.1410  145.1600 C   0  0  0  0  0  2  0  0  0  0  0  0
  189.2160  177.7870  143.8210 C   0  0  0  0  0  2  0  0  0  0  0  0
  190.2350  177.8450  142.6950 C   0  0  0  0  0  2  0  0  0  0  0  0
  190.5000  176.3940  140.7490 O   0  0  0  0  0  0  0  0  0  0  0  0
  190.1450  175.5110  142.8090 O   0  0  0  0  0  0  0  0  0  0  0  0
  190.3920  176.5200  142.1130 N   0  0  0  0  0  0  0  0  0  0  0  0
  1  2  1  0  0  0  0
  2  4  1  0  0  0  0
  2 34  1  6  0  0  0
  3  8  1  0  0  0  0
  3  7  2  0  0  0  0
  5 12  1  0  0  0  0
  5 10  1  0  0  0  0
  6 13  2  0  0  0  0
  7 11  1  0  0  0  0
  8  5  2  0  0  0  0
 10  1  1  0  0  0  0
 11  6  1  0  0  0  0
 11  1  2  0  0  0  0
 13  9  1  0  0  0  0
 13  4  1  0  0  0  0
 14  8  1  0  0  0  0
 15 14  1  0  0  0  0
 16 19  1  0  0  0  0
 17 16  2  0  0  0  0
 17 22  1  0  0  0  0
 18 21  1  0  0  0  0
 18 20  2  0  0  0  0
 20 19  1  0  0  0  0
 21 22  2  0  0  0  0
 22 15  1  0  0  0  0
 23 25  1  0  0  0  0
 23 16  1  0  0  0  0
 24 25  1  0  0  0  0
 24 29  1  1  0  0  0
 26 24  1  0  0  0  0
 26 27  1  1  0  0  0
 26 23  1  0  0  0  0
 28 29  2  0  0  0  0
 30 18  1  0  0  0  0
 30 31  1  0  0  0  0
 32 33  1  0  0  0  0
 33 31  1  0  0  0  0
 34 35  1  0  0  0  0
 35 37  1  0  0  0  0
 36 37  1  0  0  0  0
 36 40  1  0  0  0  0
 37 38  2  0  0  0  0
 40 39  2  1  0  0  0
 40 41  1  0  0  0  0
 42 43  1  1  0  0  0
 42 40  1  0  0  0  0
 44 42  1  0  0  0  0
 45 44  1  0  0  0  0
 46 45  1  0  0  0  0
 47 49  2  0  0  0  0
 49 46  1  0  0  0  0
 49 48  2  0  0  0  0
M  END
>  <MODEL>
8

>  <REMARK>
 VINA RESULT:      -7.3      2.964      6.630
  Name = 
  17 active torsions:
  status: ('A' for Active; 'I' for Inactive)
    1  A    between atoms: C_1  and  C_32
    2  A    between atoms: C_1  and  C_47
    3  A    between atoms: N_2  and  C_3
    4  A    between atoms: N_4  and  P_28
    5  A    between atoms: C_6  and  C_31
    6  A    between atoms: C_8  and  C_18
    7  A    between atoms: C_8  and  P_28
    8  A    between atoms: C_9  and  C_48
    9  A    between atoms: C_10  and  O_42
   10  A    between atoms: O_15  and  O_20
   11  A    between atoms: O_15  and  C_37
   12  A    between atoms: C_18  and  C_25
   13  A    between atoms: C_19  and  C_37
   14  A    between atoms: C_25  and  C_35
   15  A    between atoms: N_30  and  C_35
   16  A    between atoms: C_31  and  O_42
   17  A    between atoms: C_32  and  C_36
                            x       y       z     vdW  Elec       q    Type
                         _______ _______ _______ _____ _____    ______ ____

>  <TORSDO>
F 17

$$$$
=
 OpenBabel11062414013D

 49 52  0  0  1  0  0  0  0  0999 V2000
  187.9810  177.6110  143.9160 C   0  0  0  0  0  0  0  0  0  0  0  0
  186.8990  177.8990  144.6710 C   0  0  1  0  0  3  0  0  0  0  0  0
  190.8270  177.5270  142.6070 C   0  0  0  0  0  3  0  0  0  0  0  0
  187.0000  178.0400  146.1750 C   0  0  0  0  0  2  0  0  0  0  0  0
  188.6050  177.3910  141.4530 C   0  0  0  0  0  0  0  0  0  0  0  0
  189.2630  177.0530  146.0360 C   0  0  0  0  0  3  0  0  0  0  0  0
  190.4630  177.2660  144.0020 C   0  0  0  0  0  3  0  0  0  0  0  0
  190.0640  177.6200  141.5230 C   0  0  0  0  0  0  0  0  0  0  0  0
  188.2100  177.0590  148.1350 O   0  0  0  0  0  1  0  0  0  0  0  0
  187.7530  177.4230  142.4740 C   0  0  0  0  0  3  0  0  0  0  0  0
  189.2720  177.3040  144.5880 C   0  0  0  0  0  0  0  0  0  0  0  0
  188.0540  177.1660  140.1990 O   0  0  0  0  0  1  0  0  0  0  0  0
  188.1970  177.3460  146.7740 C   0  0  1  0  0  3  0  0  0  0  0  0
  190.7800  177.9250  140.2460 C   0  0  0  0  0  2  0  0  0  0  0  0
  192.0030  177.0310  140.0830 C   0  0  0  0  0  2  0  0  0  0  0  0
  193.5250  175.6740  136.9070 C   0  0  0  0  0  0  0  0  0  0  0  0
  193.2690  175.8540  138.2050 C   0  0  0  0  0  3  0  0  0  0  0  0
  190.4970  175.2500  137.0200 C   0  0  0  0  0  0  0  0  0  0  0  0
  192.5410  176.0740  135.8560 C   0  0  0  0  0  2  0  0  0  0  0  0
  191.2880  175.2660  135.9450 C   0  0  0  0  0  3  0  0  0  0  0  0
  190.7770  176.0080  138.2590 C   0  0  0  0  0  3  0  0  0  0  0  0
  191.9790  176.3160  138.7690 C   0  0  0  0  0  0  0  0  0  0  0  0
  194.8000  175.1690  136.5030 N   0  0  0  0  0  0  0  0  0  0  0  0
  196.8190  174.4160  135.9600 C   0  0  1  0  0  3  0  0  0  0  0  0
  195.8220  174.2610  137.0650 C   0  0  0  0  0  2  0  0  0  0  0  0
  195.7390  175.2920  135.3700 C   0  0  2  0  0  3  0  0  0  0  0  0
  196.1170  176.7530  135.1330 C   0  0  0  0  0  1  0  0  0  0  0  0
  199.1800  174.8640  136.0120 O   0  0  0  0  0  0  0  0  0  0  0  0
  198.0670  175.1150  136.4650 C   0  0  0  0  0  3  0  0  0  0  0  0
  189.1980  174.5240  136.9260 C   0  0  0  0  0  2  0  0  0  0  0  0
  188.3450  175.1930  136.0370 O   0  0  0  0  0  0  0  0  0  0  0  0
  187.2090  176.8960  136.7240 C   0  0  0  0  0  1  0  0  0  0  0  0
  187.2780  175.4950  136.7490 O   0  0  0  0  0  0  0  0  0  0  0  0
  185.6610  178.1110  144.0460 O   0  0  0  0  0  0  0  0  0  0  0  0
  185.0300  179.3850  143.9630 C   0  0  0  0  0  2  0  0  0  0  0  0
  182.8180  179.0230  142.8120 N   0  0  0  0  0  2  0  0  0  0  0  0
  183.5430  179.2470  144.0230 C   0  0  0  0  0  0  0  0  0  0  0  0
  182.9460  179.2950  145.1380 O   0  0  0  0  0  0  0  0  0  0  0  0
  180.5480  177.9230  143.6960 O   0  0  0  0  0  1  0  0  0  0  0  0
  181.0680  178.9900  142.7540 P   0  0  1  0  0  0  0  0  0  0  0  0
  180.4650  180.5030  143.2240 O   0  0  0  0  0  0  0  0  0  0  0  0
  180.5400  178.6120  141.0500 C   0  0  2  0  0  3  0  0  0  0  0  0
  181.2460  177.5000  140.5840 O   0  0  0  0  0  1  0  0  0  0  0  0
  180.7950  179.7920  140.1150 C   0  0  0  0  0  2  0  0  0  0  0  0
  181.5640  179.3750  138.8640 C   0  0  0  0  0  2  0  0  0  0  0  0
  182.8960  180.1010  138.7730 C   0  0  0  0  0  2  0  0  0  0  0  0
  184.8670  179.7510  140.1710 O   0  0  0  0  0  0  0  0  0  0  0  0
  184.1980  178.1610  138.6980 O   0  0  0  0  0  0  0  0  0  0  0  0
  183.9550  179.2410  139.2790 N   0  0  0  0  0  0  0  0  0  0  0  0
  1 11  1  0  0  0  0
  1  2  1  0  0  0  0
  2 34  1  6  0  0  0
  2  4  1  0  0  0  0
  3  7  2  0  0  0  0
  4 13  1  0  0  0  0
  5  8  2  0  0  0  0
  5 10  1  0  0  0  0
  6 13  1  0  0  0  0
  7 11  1  0  0  0  0
  8  3  1  0  0  0  0
 10  1  2  0  0  0  0
 11  6  2  0  0  0  0
 12  5  1  0  0  0  0
 13  9  1  1  0  0  0
 14  8  1  0  0  0  0
 15 14  1  0  0  0  0
 16 17  2  0  0  0  0
 17 22  1  0  0  0  0
 18 21  1  0  0  0  0
 19 20  1  0  0  0  0
 19 16  1  0  0  0  0
 20 18  2  0  0  0  0
 21 22  2  0  0  0  0
 22 15  1  0  0  0  0
 23 16  1  0  0  0  0
 23 25  1  0  0  0  0
 24 29  1  1  0  0  0
 24 25  1  0  0  0  0
 26 27  1  1  0  0  0
 26 24  1  0  0  0  0
 26 23  1  0  0  0  0
 28 29  2  0  0  0  0
 30 18  1  0  0  0  0
 31 33  1  0  0  0  0
 31 30  1  0  0  0  0
 32 33  1  0  0  0  0
 35 37  1  0  0  0  0
 35 34  1  0  0  0  0
 36 37  1  0  0  0  0
 37 38  2  0  0  0  0
 40 36  1  0  0  0  0
 40 41  2  1  0  0  0
 40 39  1  0  0  0  0
 42 43  1  6  0  0  0
 42 40  1  0  0  0  0
 44 42  1  0  0  0  0
 45 44  1  0  0  0  0
 46 45  1  0  0  0  0
 46 49  1  0  0  0  0
 48 49  2  0  0  0  0
 49 47  2  0  0  0  0
M  END
>  <MODEL>
9

>  <REMARK>
 VINA RESULT:      -7.3      2.285      5.329
  Name = 
  17 active torsions:
  status: ('A' for Active; 'I' for Inactive)
    1  A    between atoms: C_1  and  C_32
    2  A    between atoms: C_1  and  C_47
    3  A    between atoms: N_2  and  C_3
    4  A    between atoms: N_4  and  P_28
    5  A    between atoms: C_6  and  C_31
    6  A    between atoms: C_8  and  C_18
    7  A    between atoms: C_8  and  P_28
    8  A    between atoms: C_9  and  C_48
    9  A    between atoms: C_10  and  O_42
   10  A    between atoms: O_15  and  O_20
   11  A    between atoms: O_15  and  C_37
   12  A    between atoms: C_18  and  C_25
   13  A    between atoms: C_19  and  C_37
   14  A    between atoms: C_25  and  C_35
   15  A    between atoms: N_30  and  C_35
   16  A    between atoms: C_31  and  O_42
   17  A    between atoms: C_32  and  C_36
                            x       y       z     vdW  Elec       q    Type
                         _______ _______ _______ _____ _____    ______ ____

>  <TORSDO>
F 17

$$$$
