=
 OpenBabel11062415173D

 41 45  0  0  1  0  0  0  0  0999 V2000
  182.2130  179.0020  140.4560 O   0  0  0  0  0  0  0  0  0  0  0  0
  188.2410  177.2450  137.8510 C   0  0  2  0  0  3  0  0  0  0  0  0
  181.6400  178.3400  139.3640 C   0  0  0  0  0  0  0  0  0  0  0  0
  186.9030  175.5150  136.8830 C   0  0  1  0  0  3  0  0  0  0  0  0
  184.5380  174.4300  134.7730 C   0  0  1  0  0  3  0  0  0  0  0  0
  182.4620  178.0640  138.1270 C   0  0  1  0  0  3  0  0  0  0  0  0
  183.9790  177.9960  138.4080 C   0  0  2  0  0  0  0  0  0  0  0  0
  186.7520  175.6130  135.3660 C   0  0  0  0  0  2  0  0  0  0  0  0
  184.3960  179.1420  139.3480 C   0  0  1  0  0  3  0  0  0  0  0  0
  184.1900  180.4390  138.7190 N   0  0  0  0  0  1  0  0  0  0  0  0
  190.2650  176.2050  138.4490 C   0  0  0  0  0  2  0  0  0  0  0  0
  179.9170  174.8030  136.4450 N   0  0  0  0  0  2  0  0  0  0  0  0
  182.7540  173.8270  137.8470 C   0  0  0  0  0  2  0  0  0  0  0  0
  183.9380  175.8410  134.7610 C   0  0  0  0  0  1  0  0  0  0  0  0
  184.6510  178.1470  137.1470 O   0  0  0  0  0  0  0  0  0  0  0  0
  190.3090  177.5030  139.2710 C   0  0  1  0  0  3  0  0  0  0  0  0
  186.0150  177.9430  136.8920 C   0  0  0  0  0  0  0  0  0  0  0  0
  186.5530  178.5850  135.9520 O   0  0  0  0  0  0  0  0  0  0  0  0
  186.0750  174.3760  134.7790 C   0  0  0  0  0  2  0  0  0  0  0  0
  179.6390  172.8190  137.6060 O   0  0  0  0  0  0  0  0  0  0  0  0
  182.5130  173.3560  135.5030 C   0  0  1  0  0  3  0  0  0  0  0  0
  180.6640  175.7460  135.6270 C   0  0  0  0  0  2  0  0  0  0  0  0
  184.3200  176.6580  139.0750 C   0  0  0  0  0  1  0  0  0  0  0  0
  180.4270  173.5700  136.9730 C   0  0  0  0  0  0  0  0  0  0  0  0
  188.3150  174.9910  137.1940 C   0  0  0  0  0  2  0  0  0  0  0  0
  181.8630  173.1340  136.8520 C   0  0  2  0  0  3  0  0  0  0  0  0
  188.6600  178.3330  139.2170 S   0  0  0  0  0  0  0  0  0  0  0  0
  186.8030  176.8820  137.6110 C   0  0  2  0  0  3  0  0  0  0  0  0
  183.9430  173.5150  135.7600 N   0  0  2  0  0  0  0  0  0  0  0  0
  181.0480  176.9520  136.4210 C   0  0  0  0  0  3  0  0  0  0  0  0
  183.6220  179.0750  140.6680 C   0  0  0  0  0  2  0  0  0  0  0  0
  180.3710  178.0900  139.3760 N   0  0  0  0  0  2  0  0  0  0  0  0
  181.9980  176.8650  137.3470 C   0  0  0  0  0  3  0  0  0  0  0  0
  188.8000  175.9450  138.2570 C   0  0  2  0  0  3  0  0  0  0  0  0
  184.0680  174.0460  137.1200 C   0  0  0  0  0  2  0  0  0  0  0  0
  190.9410  176.9490  141.8050 C   0  0  0  0  0  3  0  0  0  0  0  0
  190.6560  177.2010  140.6610 C   0  0  0  0  0  0  0  0  0  0  0  0
  182.2810  172.1580  134.5940 C   0  0  0  0  0  2  0  0  0  0  0  0
  182.2790  170.8970  135.3860 C   0  0  0  0  0  0  0  0  0  0  0  0
  181.0840  170.2500  135.6630 O   0  0  0  0  0  0  0  0  0  0  0  0
  183.3670  170.4030  135.7810 O   0  0  0  0  0  1  0  0  0  0  0  0
  1 31  1  0  0  0  0
  2 34  1  0  0  0  0
  2 27  1  1  0  0  0
  3 32  2  0  0  0  0
  3  1  1  0  0  0  0
  4  8  1  6  0  0  0
  4 25  1  0  0  0  0
  4 28  1  0  0  0  0
  5 14  1  1  0  0  0
  5 19  1  0  0  0  0
  5 29  1  0  0  0  0
  6 33  1  1  0  0  0
  6  7  1  0  0  0  0
  6  3  1  0  0  0  0
  7 23  1  1  0  0  0
  7  9  1  0  0  0  0
  9 10  1  6  0  0  0
  9 31  1  0  0  0  0
 11 16  1  0  0  0  0
 12 24  1  0  0  0  0
 15  7  1  0  0  0  0
 16 37  1  1  0  0  0
 17 15  1  0  0  0  0
 18 17  2  0  0  0  0
 19  8  1  0  0  0  0
 21 38  1  6  0  0  0
 21 29  1  0  0  0  0
 21 26  1  0  0  0  0
 22 30  1  0  0  0  0
 22 12  1  0  0  0  0
 24 20  2  0  0  0  0
 26 24  1  0  0  0  0
 26 13  1  1  0  0  0
 27 16  1  0  0  0  0
 28 17  1  6  0  0  0
 28  2  1  0  0  0  0
 29 35  1  1  0  0  0
 30 33  2  0  0  0  0
 34 25  1  6  0  0  0
 34 11  1  0  0  0  0
 35 13  1  0  0  0  0
 37 36  3  0  0  0  0
 38 39  1  0  0  0  0
 39 40  2  0  0  0  0
 39 41  1  0  0  0  0
M  END
>  <MODEL>
1

>  <REMARK>
 VINA RESULT:      -4.8      0.000      0.000
  Name = 
  3 active torsions:
  status: ('A' for Active; 'I' for Inactive)
    1  A    between atoms: C_14  and  C_26
    2  A    between atoms: C_18  and  C_27
    3  A    between atoms: C_24  and  C_26
                            x       y       z     vdW  Elec       q    Type
                         _______ _______ _______ _____ _____    ______ ____

>  <TORSDO>
F 3

$$$$
