=
 OpenBabel11062413413D

 42 46  0  0  1  0  0  0  0  0999 V2000
  186.8230  179.1620  137.9310 O   0  0  0  0  0  0  0  0  0  0  0  0
  189.1550  178.4680  137.4060 C   0  0  0  0  0  2  0  0  0  0  0  0
  184.6760  176.9710  136.2980 C   0  0  0  0  0  1  0  0  0  0  0  0
  185.6820  179.5540  141.8700 C   0  0  0  0  0  2  0  0  0  0  0  0
  183.5880  177.9170  139.4030 O   0  0  0  0  0  0  0  0  0  0  0  0
  187.0180  176.9840  137.0390 C   0  0  2  0  0  3  0  0  0  0  0  0
  188.5730  177.9860  141.0410 C   0  0  0  0  0  0  0  0  0  0  0  0
  188.5800  177.9630  139.7430 N   0  0  0  0  0  0  0  0  0  0  0  0
  186.8570  178.9120  142.6060 C   0  0  0  0  0  2  0  0  0  0  0  0
  189.7630  178.2750  141.7790 N   0  0  0  0  0  2  0  0  0  0  0  0
  190.6080  177.0010  138.8110 C   0  0  0  0  0  1  0  0  0  0  0  0
  184.0420  180.3190  139.2250 O   0  0  0  0  0  0  0  0  0  0  0  0
  187.6340  178.3620  137.1110 C   0  0  1  0  0  3  0  0  0  0  0  0
  186.2720  177.5580  140.8470 O   0  0  0  0  0  0  0  0  0  0  0  0
  187.2910  177.8640  141.6840 N   0  0  0  0  0  0  0  0  0  0  0  0
  185.6050  177.2850  137.4490 C   0  0  1  0  0  3  0  0  0  0  0  0
  185.8320  178.8390  140.5530 C   0  0  1  0  0  3  0  0  0  0  0  0
  185.5430  178.7130  137.7400 N   0  0  1  0  0  0  0  0  0  0  0  0
  189.6780  178.1990  138.8310 C   0  0  1  0  0  3  0  0  0  0  0  0
  184.6630  178.9520  139.2310 S   0  0  0  0  0  0  0  0  0  0  0  0
  190.7720  179.1780  143.6200 C   0  0  0  0  0  1  0  0  0  0  0  0
  189.8020  178.1940  143.1790 N   0  0  0  0  0  0  0  0  0  0  0  0
  190.3620  176.8910  143.5170 C   0  0  0  0  0  2  0  0  0  0  0  0
  189.2680  176.9650  145.8450 C   0  0  0  0  0  3  0  0  0  0  0  0
  191.7270  176.2400  147.0540 C   0  0  0  0  0  2  0  0  0  0  0  0
  190.7770  177.1940  147.7840 C   0  0  0  0  0  2  0  0  0  0  0  0
  190.4590  176.7390  145.0000 C   0  0  0  0  0  0  0  0  0  0  0  0
  189.4040  177.1450  147.1660 C   0  0  0  0  0  3  0  0  0  0  0  0
  191.6360  176.4410  145.5650 C   0  0  0  0  0  3  0  0  0  0  0  0
  187.5860  176.1070  137.9700 O   0  0  0  0  0  0  0  0  0  0  0  0
  186.5620  174.2340  137.1600 O   0  0  0  0  0  1  0  0  0  0  0  0
  187.7820  174.9060  137.2780 C   0  0  1  0  0  3  0  0  0  0  0  0
  188.3590  175.2010  135.8890 C   0  0  2  0  0  3  0  0  0  0  0  0
  187.7330  174.3570  134.8810 N   0  0  0  0  0  1  0  0  0  0  0  0
  190.1560  177.0090  134.5980 O   0  0  0  0  0  0  0  0  0  0  0  0
  190.4290  174.1200  136.6720 C   0  0  0  0  0  3  0  0  0  0  0  0
  189.8520  175.0240  135.8590 C   0  0  0  0  0  0  0  0  0  0  0  0
  192.6980  175.1640  136.4580 C   0  0  2  0  0  3  0  0  0  0  0  0
  191.9130  173.8890  136.7490 C   0  0  0  0  0  2  0  0  0  0  0  0
  192.4010  175.6170  134.7270 S   0  0  0  0  0  0  0  0  0  0  0  0
  194.4280  174.8520  136.7000 Cl  0  0  0  0  0  0  0  0  0  0  0  0
  190.6680  175.9520  135.0460 C   0  0  0  0  0  0  0  0  0  0  0  0
  2 19  1  0  0  0  0
  4  9  1  0  0  0  0
  6 13  1  0  0  0  0
  6 16  1  0  0  0  0
  6 30  1  1  0  0  0
  7 15  1  0  0  0  0
  7 10  1  0  0  0  0
  8  7  2  0  0  0  0
 10 22  1  0  0  0  0
 12 20  2  0  0  0  0
 13  2  1  1  0  0  0
 13  1  1  0  0  0  0
 14 15  1  0  0  0  0
 15  9  1  0  0  0  0
 16  3  1  6  0  0  0
 16 18  1  0  0  0  0
 17 14  1  0  0  0  0
 17  4  1  1  0  0  0
 18  1  1  1  0  0  0
 18 20  1  0  0  0  0
 19 11  1  6  0  0  0
 19  8  1  0  0  0  0
 20  5  2  0  0  0  0
 20 17  1  0  0  0  0
 22 23  1  0  0  0  0
 22 21  1  0  0  0  0
 23 27  1  0  0  0  0
 24 28  2  0  0  0  0
 25 26  1  0  0  0  0
 27 29  2  0  0  0  0
 27 24  1  0  0  0  0
 28 26  1  0  0  0  0
 29 25  1  0  0  0  0
 32 31  1  6  0  0  0
 32 30  1  0  0  0  0
 33 34  1  6  0  0  0
 33 32  1  0  0  0  0
 35 42  2  0  0  0  0
 36 39  1  0  0  0  0
 37 33  1  0  0  0  0
 37 36  2  0  0  0  0
 38 41  1  6  0  0  0
 38 39  1  0  0  0  0
 40 42  1  0  0  0  0
 40 38  1  0  0  0  0
 42 37  1  0  0  0  0
M  END
>  <MODEL>
1

>  <REMARK>
 VINA RESULT:      -7.4      0.000      0.000
  Name = 
  7 active torsions:
  status: ('A' for Active; 'I' for Inactive)
    1  A    between atoms: C_8  and  C_24
    2  A    between atoms: C_8  and  O_38
    3  A    between atoms: C_11  and  O_38
    4  A    between atoms: C_16  and  C_34
    5  A    between atoms: N_18  and  N_25
    6  A    between atoms: C_22  and  C_24
    7  A    between atoms: N_25  and  C_34
                            x       y       z     vdW  Elec       q    Type
                         _______ _______ _______ _____ _____    ______ ____

>  <TORSDO>
F 7

$$$$
=
 OpenBabel11062413413D

 42 46  0  0  1  0  0  0  0  0999 V2000
  188.3110  174.8630  135.0040 O   0  0  0  0  0  0  0  0  0  0  0  0
  188.4330  177.3490  135.0290 C   0  0  0  0  0  2  0  0  0  0  0  0
  190.8390  173.6620  137.0640 C   0  0  0  0  0  1  0  0  0  0  0  0
  184.7520  173.0160  135.9460 C   0  0  0  0  0  2  0  0  0  0  0  0
  187.9340  171.8620  137.2470 O   0  0  0  0  0  0  0  0  0  0  0  0
  189.6000  175.7620  136.7680 C   0  0  2  0  0  3  0  0  0  0  0  0
  185.2290  176.3100  136.5920 C   0  0  0  0  0  0  0  0  0  0  0  0
  186.4620  176.5410  136.2590 N   0  0  0  0  0  0  0  0  0  0  0  0
  183.9300  174.1760  136.5050 C   0  0  0  0  0  2  0  0  0  0  0  0
  184.1940  177.2450  136.2750 N   0  0  0  0  0  2  0  0  0  0  0  0
  187.0980  178.8750  136.4880 C   0  0  0  0  0  1  0  0  0  0  0  0
  187.4600  171.7010  134.8470 O   0  0  0  0  0  0  0  0  0  0  0  0
  189.0830  175.9790  135.3650 C   0  0  1  0  0  3  0  0  0  0  0  0
  186.0330  174.2650  137.4200 O   0  0  0  0  0  0  0  0  0  0  0  0
  184.9400  175.0150  137.1480 N   0  0  0  0  0  0  0  0  0  0  0  0
  189.4670  174.2720  136.8900 C   0  0  1  0  0  3  0  0  0  0  0  0
  186.1260  173.5640  136.2280 C   0  0  1  0  0  3  0  0  0  0  0  0
  188.8850  173.7940  135.6400 N   0  0  1  0  0  0  0  0  0  0  0  0
  187.0230  177.6780  135.5610 C   0  0  1  0  0  3  0  0  0  0  0  0
  187.6190  172.6450  136.0040 S   0  0  0  0  0  0  0  0  0  0  0  0
  182.0330  177.1040  135.5450 C   0  0  0  0  0  1  0  0  0  0  0  0
  182.8760  177.0670  136.7240 N   0  0  0  0  0  0  0  0  0  0  0  0
  182.5290  178.2460  137.5100 C   0  0  0  0  0  2  0  0  0  0  0  0
  182.8540  177.3250  139.8910 C   0  0  0  0  0  3  0  0  0  0  0  0
  185.0640  179.0540  140.2880 C   0  0  0  0  0  2  0  0  0  0  0  0
  184.1420  178.7220  141.4650 C   0  0  0  0  0  2  0  0  0  0  0  0
  183.2700  178.2390  138.8060 C   0  0  0  0  0  0  0  0  0  0  0  0
  183.2880  177.5240  141.1420 C   0  0  0  0  0  3  0  0  0  0  0  0
  184.2850  179.0910  139.0000 C   0  0  0  0  0  3  0  0  0  0  0  0
  188.7850  176.3740  137.7270 O   0  0  0  0  0  0  0  0  0  0  0  0
  190.5460  177.7830  138.0820 O   0  0  0  0  0  1  0  0  0  0  0  0
  189.6630  176.8860  138.6890 C   0  0  1  0  0  3  0  0  0  0  0  0
  188.8620  177.5940  139.7890 C   0  0  2  0  0  3  0  0  0  0  0  0
  188.6350  178.9900  139.4420 N   0  0  0  0  0  1  0  0  0  0  0  0
  187.4820  177.5270  142.2890 O   0  0  0  0  0  0  0  0  0  0  0  0
  190.8530  177.1790  141.1790 C   0  0  0  0  0  3  0  0  0  0  0  0
  189.5470  177.4970  141.1250 C   0  0  0  0  0  0  0  0  0  0  0  0
  190.7370  176.5120  143.5920 C   0  0  2  0  0  3  0  0  0  0  0  0
  191.6240  177.0180  142.4600 C   0  0  0  0  0  2  0  0  0  0  0  0
  189.5140  177.8000  143.9590 S   0  0  0  0  0  0  0  0  0  0  0  0
  191.7360  176.2160  145.0290 Cl  0  0  0  0  0  0  0  0  0  0  0  0
  188.7340  177.6060  142.3550 C   0  0  0  0  0  0  0  0  0  0  0  0
  1 13  1  0  0  0  0
  2 19  1  0  0  0  0
  4  9  1  0  0  0  0
  6 16  1  0  0  0  0
  6 30  1  1  0  0  0
  7 15  1  0  0  0  0
  8  7  2  0  0  0  0
  9 15  1  0  0  0  0
 10  7  1  0  0  0  0
 10 22  1  0  0  0  0
 12 20  2  0  0  0  0
 13  2  1  1  0  0  0
 13  6  1  0  0  0  0
 15 14  1  0  0  0  0
 16  3  1  6  0  0  0
 17  4  1  1  0  0  0
 17 14  1  0  0  0  0
 18  1  1  1  0  0  0
 18 20  1  0  0  0  0
 18 16  1  0  0  0  0
 19  8  1  0  0  0  0
 19 11  1  1  0  0  0
 20 17  1  0  0  0  0
 20  5  2  0  0  0  0
 21 22  1  0  0  0  0
 22 23  1  0  0  0  0
 23 27  1  0  0  0  0
 24 28  2  0  0  0  0
 25 26  1  0  0  0  0
 27 29  2  0  0  0  0
 27 24  1  0  0  0  0
 28 26  1  0  0  0  0
 29 25  1  0  0  0  0
 30 32  1  0  0  0  0
 32 31  1  6  0  0  0
 32 33  1  0  0  0  0
 33 34  1  6  0  0  0
 33 37  1  0  0  0  0
 35 42  2  0  0  0  0
 36 39  1  0  0  0  0
 37 36  2  0  0  0  0
 37 42  1  0  0  0  0
 38 40  1  0  0  0  0
 38 41  1  1  0  0  0
 39 38  1  0  0  0  0
 42 40  1  0  0  0  0
M  END
>  <MODEL>
2

>  <REMARK>
 VINA RESULT:      -7.3      3.028      7.297
  Name = 
  7 active torsions:
  status: ('A' for Active; 'I' for Inactive)
    1  A    between atoms: C_8  and  C_24
    2  A    between atoms: C_8  and  O_38
    3  A    between atoms: C_11  and  O_38
    4  A    between atoms: C_16  and  C_34
    5  A    between atoms: N_18  and  N_25
    6  A    between atoms: C_22  and  C_24
    7  A    between atoms: N_25  and  C_34
                            x       y       z     vdW  Elec       q    Type
                         _______ _______ _______ _____ _____    ______ ____

>  <TORSDO>
F 7

$$$$
=
 OpenBabel11062413413D

 42 46  0  0  1  0  0  0  0  0999 V2000
  181.5610  179.5850  140.2770 O   0  0  0  0  0  0  0  0  0  0  0  0
  183.0020  179.0360  138.3240 C   0  0  0  0  0  2  0  0  0  0  0  0
  178.9430  177.3000  140.3340 C   0  0  0  0  0  1  0  0  0  0  0  0
  183.2620  179.8470  144.0190 C   0  0  0  0  0  2  0  0  0  0  0  0
  180.1210  178.1310  143.4390 O   0  0  0  0  0  0  0  0  0  0  0  0
  181.1980  177.4360  139.3670 C   0  0  2  0  0  3  0  0  0  0  0  0
  184.9570  178.4630  141.4280 C   0  0  0  0  0  0  0  0  0  0  0  0
  184.1140  178.4610  140.4410 N   0  0  0  0  0  0  0  0  0  0  0  0
  184.6530  179.2630  143.7770 C   0  0  0  0  0  2  0  0  0  0  0  0
  186.3290  178.8090  141.2240 N   0  0  0  0  0  2  0  0  0  0  0  0
  185.0690  177.6340  138.3650 C   0  0  0  0  0  1  0  0  0  0  0  0
  180.2670  180.5580  143.1280 O   0  0  0  0  0  0  0  0  0  0  0  0
  181.6640  178.8460  139.0880 C   0  0  1  0  0  3  0  0  0  0  0  0
  183.1060  177.9050  142.7620 O   0  0  0  0  0  0  0  0  0  0  0  0
  184.4130  178.2570  142.7450 N   0  0  0  0  0  0  0  0  0  0  0  0
  180.3880  177.6480  140.6130 C   0  0  1  0  0  3  0  0  0  0  0  0
  182.5380  179.1630  142.8900 C   0  0  1  0  0  3  0  0  0  0  0  0
  180.4830  179.0660  140.9460 N   0  0  1  0  0  0  0  0  0  0  0  0
  184.3390  178.7750  139.0460 C   0  0  1  0  0  3  0  0  0  0  0  0
  180.7870  179.2290  142.6590 S   0  0  0  0  0  0  0  0  0  0  0  0
  188.5740  178.9180  141.6380 C   0  0  0  0  0  1  0  0  0  0  0  0
  187.2770  178.7080  142.2530 N   0  0  0  0  0  0  0  0  0  0  0  0
  187.2650  177.3250  142.7130 C   0  0  0  0  0  2  0  0  0  0  0  0
  186.7800  177.3200  145.2400 C   0  0  0  0  0  3  0  0  0  0  0  0
  189.5430  177.0180  145.7980 C   0  0  0  0  0  2  0  0  0  0  0  0
  188.6660  177.8450  146.7420 C   0  0  0  0  0  2  0  0  0  0  0  0
  187.7470  177.2450  144.1240 C   0  0  0  0  0  0  0  0  0  0  0  0
  187.2080  177.5680  146.4850 C   0  0  0  0  0  3  0  0  0  0  0  0
  189.0580  177.1470  144.3770 C   0  0  0  0  0  3  0  0  0  0  0  0
  182.2650  176.5790  139.6560 O   0  0  0  0  0  0  0  0  0  0  0  0
  180.6470  175.0440  139.1700 O   0  0  0  0  0  1  0  0  0  0  0  0
  181.9850  175.3910  138.9700 C   0  0  1  0  0  3  0  0  0  0  0  0
  182.2630  175.5840  137.4740 C   0  0  2  0  0  3  0  0  0  0  0  0
  181.1150  175.1720  136.6800 N   0  0  0  0  0  1  0  0  0  0  0  0
  183.8940  176.3500  135.2570 O   0  0  0  0  0  0  0  0  0  0  0  0
  184.0230  173.9000  137.8460 C   0  0  0  0  0  3  0  0  0  0  0  0
  183.4930  174.8360  137.0370 C   0  0  0  0  0  0  0  0  0  0  0  0
  186.2370  173.9360  136.6740 C   0  0  2  0  0  3  0  0  0  0  0  0
  185.2680  173.1220  137.5240 C   0  0  0  0  0  2  0  0  0  0  0  0
  185.4560  174.2260  135.0620 S   0  0  0  0  0  0  0  0  0  0  0  0
  187.7350  173.0110  136.4480 Cl  0  0  0  0  0  0  0  0  0  0  0  0
  184.1790  175.2500  135.7950 C   0  0  0  0  0  0  0  0  0  0  0  0
  2 19  1  0  0  0  0
  6 30  1  1  0  0  0
  6 16  1  0  0  0  0
  7 15  1  0  0  0  0
  8  7  2  0  0  0  0
  9  4  1  0  0  0  0
 10  7  1  0  0  0  0
 10 22  1  0  0  0  0
 13  2  1  1  0  0  0
 13  6  1  0  0  0  0
 13  1  1  0  0  0  0
 14 17  1  0  0  0  0
 15 14  1  0  0  0  0
 15  9  1  0  0  0  0
 16  3  1  6  0  0  0
 16 18  1  0  0  0  0
 17  4  1  1  0  0  0
 18  1  1  6  0  0  0
 18 20  1  0  0  0  0
 19 11  1  6  0  0  0
 19  8  1  0  0  0  0
 20 17  1  0  0  0  0
 20 12  2  0  0  0  0
 20  5  2  0  0  0  0
 21 22  1  0  0  0  0
 22 23  1  0  0  0  0
 23 27  1  0  0  0  0
 24 28  2  0  0  0  0
 25 26  1  0  0  0  0
 27 29  2  0  0  0  0
 27 24  1  0  0  0  0
 28 26  1  0  0  0  0
 29 25  1  0  0  0  0
 32 31  1  6  0  0  0
 32 30  1  0  0  0  0
 33 34  1  6  0  0  0
 33 32  1  0  0  0  0
 35 42  2  0  0  0  0
 37 33  1  0  0  0  0
 37 36  2  0  0  0  0
 38 41  1  6  0  0  0
 38 39  1  0  0  0  0
 39 36  1  0  0  0  0
 40 42  1  0  0  0  0
 40 38  1  0  0  0  0
 42 37  1  0  0  0  0
M  END
>  <MODEL>
3

>  <REMARK>
 VINA RESULT:      -6.9      3.704      5.213
  Name = 
  7 active torsions:
  status: ('A' for Active; 'I' for Inactive)
    1  A    between atoms: C_8  and  C_24
    2  A    between atoms: C_8  and  O_38
    3  A    between atoms: C_11  and  O_38
    4  A    between atoms: C_16  and  C_34
    5  A    between atoms: N_18  and  N_25
    6  A    between atoms: C_22  and  C_24
    7  A    between atoms: N_25  and  C_34
                            x       y       z     vdW  Elec       q    Type
                         _______ _______ _______ _____ _____    ______ ____

>  <TORSDO>
F 7

$$$$
=
 OpenBabel11062413413D

 42 46  0  0  1  0  0  0  0  0999 V2000
  189.0360  176.1850  135.4380 O   0  0  0  0  0  0  0  0  0  0  0  0
  187.8680  178.3260  135.9370 C   0  0  0  0  0  2  0  0  0  0  0  0
  191.8380  176.0090  137.4860 C   0  0  0  0  0  1  0  0  0  0  0  0
  186.9310  172.6510  135.6510 C   0  0  0  0  0  2  0  0  0  0  0  0
  190.2650  173.0030  137.0330 O   0  0  0  0  0  0  0  0  0  0  0  0
  189.6960  177.2120  137.4600 C   0  0  2  0  0  3  0  0  0  0  0  0
  185.6600  175.5160  136.9450 C   0  0  0  0  0  0  0  0  0  0  0  0
  186.5980  176.3990  136.7880 N   0  0  0  0  0  0  0  0  0  0  0  0
  185.6350  173.0930  136.3300 C   0  0  0  0  0  2  0  0  0  0  0  0
  184.2900  175.8480  136.7020 N   0  0  0  0  0  2  0  0  0  0  0  0
  185.9520  178.6270  137.5110 C   0  0  0  0  0  1  0  0  0  0  0  0
  189.9220  173.1390  134.6100 O   0  0  0  0  0  0  0  0  0  0  0  0
  189.1300  177.4320  136.0770 C   0  0  1  0  0  3  0  0  0  0  0  0
  187.4030  174.0290  137.4560 O   0  0  0  0  0  0  0  0  0  0  0  0
  186.0780  174.1670  137.2170 N   0  0  0  0  0  0  0  0  0  0  0  0
  190.3460  175.8690  137.2890 C   0  0  1  0  0  3  0  0  0  0  0  0
  187.8320  173.7400  136.1690 C   0  0  1  0  0  3  0  0  0  0  0  0
  190.0810  175.4410  135.9190 N   0  0  1  0  0  0  0  0  0  0  0  0
  186.4930  177.7820  136.3740 C   0  0  1  0  0  3  0  0  0  0  0  0
  189.5840  173.7660  135.9320 S   0  0  0  0  0  0  0  0  0  0  0  0
  182.9410  174.2870  135.7180 C   0  0  0  0  0  1  0  0  0  0  0  0
  183.2520  174.9440  136.9740 N   0  0  0  0  0  0  0  0  0  0  0  0
  182.0760  175.7320  137.3230 C   0  0  0  0  0  2  0  0  0  0  0  0
  183.0400  176.5530  139.5630 C   0  0  0  0  0  3  0  0  0  0  0  0
  182.6540  179.2470  138.7740 C   0  0  0  0  0  2  0  0  0  0  0  0
  182.4810  178.8580  140.2450 C   0  0  0  0  0  2  0  0  0  0  0  0
  182.4560  176.8490  138.2380 C   0  0  0  0  0  0  0  0  0  0  0  0
  183.0890  177.5040  140.5060 C   0  0  0  0  0  3  0  0  0  0  0  0
  182.2280  178.1170  137.8740 C   0  0  0  0  0  3  0  0  0  0  0  0
  188.6910  177.1130  138.4280 O   0  0  0  0  0  0  0  0  0  0  0  0
  189.0550  179.2700  139.0820 O   0  0  0  0  0  1  0  0  0  0  0  0
  189.1080  177.9320  139.4840 C   0  0  1  0  0  3  0  0  0  0  0  0
  188.1980  177.7080  140.6980 C   0  0  2  0  0  3  0  0  0  0  0  0
  187.1810  178.7460  140.7770 N   0  0  0  0  0  1  0  0  0  0  0  0
  187.0530  177.1270  143.2500 O   0  0  0  0  0  0  0  0  0  0  0  0
  190.3290  177.6280  141.9310 C   0  0  0  0  0  3  0  0  0  0  0  0
  188.9840  177.6530  141.9780 C   0  0  0  0  0  0  0  0  0  0  0  0
  190.5380  176.7520  144.2700 C   0  0  2  0  0  3  0  0  0  0  0  0
  191.2090  177.5350  143.1470 C   0  0  0  0  0  2  0  0  0  0  0  0
  189.0960  177.7020  144.8270 S   0  0  0  0  0  0  0  0  0  0  0  0
  191.6800  176.5660  145.6150 Cl  0  0  0  0  0  0  0  0  0  0  0  0
  188.2600  177.4760  143.2560 C   0  0  0  0  0  0  0  0  0  0  0  0
  1 13  1  0  0  0  0
  2 19  1  0  0  0  0
  4  9  1  0  0  0  0
  6 30  1  1  0  0  0
  7 15  1  0  0  0  0
  8  7  2  0  0  0  0
  9 15  1  0  0  0  0
 10  7  1  0  0  0  0
 10 22  1  0  0  0  0
 12 20  2  0  0  0  0
 13  2  1  1  0  0  0
 13  6  1  0  0  0  0
 15 14  1  0  0  0  0
 16  6  1  0  0  0  0
 16  3  1  6  0  0  0
 17  4  1  1  0  0  0
 17 14  1  0  0  0  0
 18  1  1  1  0  0  0
 18 20  1  0  0  0  0
 18 16  1  0  0  0  0
 19  8  1  0  0  0  0
 19 11  1  1  0  0  0
 20 17  1  0  0  0  0
 20  5  2  0  0  0  0
 21 22  1  0  0  0  0
 22 23  1  0  0  0  0
 23 27  1  0  0  0  0
 24 28  2  0  0  0  0
 25 26  1  0  0  0  0
 26 28  1  0  0  0  0
 27 24  1  0  0  0  0
 29 27  2  0  0  0  0
 29 25  1  0  0  0  0
 30 32  1  0  0  0  0
 32 31  1  6  0  0  0
 32 33  1  0  0  0  0
 33 34  1  1  0  0  0
 33 37  1  0  0  0  0
 35 42  2  0  0  0  0
 36 37  2  0  0  0  0
 36 39  1  0  0  0  0
 37 42  1  0  0  0  0
 38 40  1  0  0  0  0
 38 41  1  1  0  0  0
 39 38  1  0  0  0  0
 42 40  1  0  0  0  0
M  END
>  <MODEL>
4

>  <REMARK>
 VINA RESULT:      -6.7      3.063      7.847
  Name = 
  7 active torsions:
  status: ('A' for Active; 'I' for Inactive)
    1  A    between atoms: C_8  and  C_24
    2  A    between atoms: C_8  and  O_38
    3  A    between atoms: C_11  and  O_38
    4  A    between atoms: C_16  and  C_34
    5  A    between atoms: N_18  and  N_25
    6  A    between atoms: C_22  and  C_24
    7  A    between atoms: N_25  and  C_34
                            x       y       z     vdW  Elec       q    Type
                         _______ _______ _______ _____ _____    ______ ____

>  <TORSDO>
F 7

$$$$
=
 OpenBabel11062413413D

 42 46  0  0  1  0  0  0  0  0999 V2000
  186.7140  179.1890  137.7990 O   0  0  0  0  0  0  0  0  0  0  0  0
  189.0680  178.5960  137.2490 C   0  0  0  0  0  2  0  0  0  0  0  0
  184.6420  176.9940  136.0750 C   0  0  0  0  0  1  0  0  0  0  0  0
  185.5610  179.3810  141.7480 C   0  0  0  0  0  2  0  0  0  0  0  0
  183.5240  177.7760  139.2140 O   0  0  0  0  0  0  0  0  0  0  0  0
  186.9830  177.0560  136.8190 C   0  0  2  0  0  3  0  0  0  0  0  0
  188.5030  177.9480  140.8600 C   0  0  0  0  0  0  0  0  0  0  0  0
  188.5110  177.9780  139.5630 N   0  0  0  0  0  0  0  0  0  0  0  0
  186.7570  178.7500  142.4600 C   0  0  0  0  0  2  0  0  0  0  0  0
  189.6830  178.2470  141.6110 N   0  0  0  0  0  2  0  0  0  0  0  0
  190.5710  177.1240  138.5960 C   0  0  0  0  0  1  0  0  0  0  0  0
  183.8950  180.1970  139.1350 O   0  0  0  0  0  0  0  0  0  0  0  0
  187.5520  178.4500  136.9480 C   0  0  1  0  0  3  0  0  0  0  0  0
  186.2180  177.4490  140.6470 O   0  0  0  0  0  0  0  0  0  0  0  0
  187.2260  177.7560  141.4960 N   0  0  0  0  0  0  0  0  0  0  0  0
  185.5610  177.2920  137.2390 C   0  0  1  0  0  3  0  0  0  0  0  0
  185.7350  178.7260  140.4040 C   0  0  1  0  0  3  0  0  0  0  0  0
  185.4500  178.7050  137.5880 N   0  0  1  0  0  0  0  0  0  0  0  0
  189.6010  178.2870  138.6630 C   0  0  1  0  0  3  0  0  0  0  0  0
  184.5630  178.8530  139.0860 S   0  0  0  0  0  0  0  0  0  0  0  0
  190.7030  179.0690  143.4830 C   0  0  0  0  0  1  0  0  0  0  0  0
  189.7250  178.1100  143.0070 N   0  0  0  0  0  0  0  0  0  0  0  0
  190.2750  176.7910  143.2920 C   0  0  0  0  0  2  0  0  0  0  0  0
  189.3860  176.9350  145.7030 C   0  0  0  0  0  3  0  0  0  0  0  0
  191.8730  176.0180  146.7050 C   0  0  0  0  0  2  0  0  0  0  0  0
  191.0630  177.0380  147.5100 C   0  0  0  0  0  2  0  0  0  0  0  0
  190.4830  176.6240  144.7620 C   0  0  0  0  0  0  0  0  0  0  0  0
  189.6440  177.0970  147.0070 C   0  0  0  0  0  3  0  0  0  0  0  0
  191.6760  176.2330  145.2280 C   0  0  0  0  0  3  0  0  0  0  0  0
  187.5810  176.1620  137.7150 O   0  0  0  0  0  0  0  0  0  0  0  0
  189.3780  174.9680  136.9680 O   0  0  0  0  0  1  0  0  0  0  0  0
  187.9840  175.0710  136.9370 C   0  0  1  0  0  3  0  0  0  0  0  0
  187.3470  173.7870  137.4840 C   0  0  2  0  0  3  0  0  0  0  0  0
  188.2250  172.6450  137.2700 N   0  0  0  0  0  1  0  0  0  0  0  0
  186.9180  173.4300  134.6820 O   0  0  0  0  0  0  0  0  0  0  0  0
  184.9610  173.2000  137.6550 C   0  0  0  0  0  3  0  0  0  0  0  0
  186.0000  173.5290  136.8660 C   0  0  0  0  0  0  0  0  0  0  0  0
  183.6330  172.2530  135.7530 C   0  0  2  0  0  3  0  0  0  0  0  0
  183.5840  172.8860  137.1390 C   0  0  0  0  0  2  0  0  0  0  0  0
  184.2760  173.4940  134.5970 S   0  0  0  0  0  0  0  0  0  0  0  0
  181.9910  171.7850  135.2670 Cl  0  0  0  0  0  0  0  0  0  0  0  0
  185.8830  173.4950  135.3930 C   0  0  0  0  0  0  0  0  0  0  0  0
  2 19  1  0  0  0  0
  4  9  1  0  0  0  0
  6 13  1  0  0  0  0
  6 16  1  0  0  0  0
  6 30  1  1  0  0  0
  7 15  1  0  0  0  0
  7 10  1  0  0  0  0
  8  7  2  0  0  0  0
 10 22  1  0  0  0  0
 13  2  1  1  0  0  0
 13  1  1  0  0  0  0
 14 15  1  0  0  0  0
 15  9  1  0  0  0  0
 16  3  1  6  0  0  0
 16 18  1  0  0  0  0
 17 14  1  0  0  0  0
 17  4  1  1  0  0  0
 18  1  1  1  0  0  0
 18 20  1  0  0  0  0
 19 11  1  6  0  0  0
 19  8  1  0  0  0  0
 20 12  2  0  0  0  0
 20  5  2  0  0  0  0
 20 17  1  0  0  0  0
 22 23  1  0  0  0  0
 22 21  1  0  0  0  0
 23 27  1  0  0  0  0
 24 28  2  0  0  0  0
 25 26  1  0  0  0  0
 27 29  2  0  0  0  0
 27 24  1  0  0  0  0
 28 26  1  0  0  0  0
 29 25  1  0  0  0  0
 32 31  1  1  0  0  0
 32 33  1  0  0  0  0
 32 30  1  0  0  0  0
 33 34  1  6  0  0  0
 35 42  2  0  0  0  0
 37 33  1  0  0  0  0
 37 36  2  0  0  0  0
 38 41  1  6  0  0  0
 38 39  1  0  0  0  0
 39 36  1  0  0  0  0
 40 42  1  0  0  0  0
 40 38  1  0  0  0  0
 42 37  1  0  0  0  0
M  END
>  <MODEL>
5

>  <REMARK>
 VINA RESULT:      -6.5      2.743      3.537
  Name = 
  7 active torsions:
  status: ('A' for Active; 'I' for Inactive)
    1  A    between atoms: C_8  and  C_24
    2  A    between atoms: C_8  and  O_38
    3  A    between atoms: C_11  and  O_38
    4  A    between atoms: C_16  and  C_34
    5  A    between atoms: N_18  and  N_25
    6  A    between atoms: C_22  and  C_24
    7  A    between atoms: N_25  and  C_34
                            x       y       z     vdW  Elec       q    Type
                         _______ _______ _______ _____ _____    ______ ____

>  <TORSDO>
F 7

$$$$
=
 OpenBabel11062413413D

 42 46  0  0  1  0  0  0  0  0999 V2000
  189.3450  177.0240  136.2510 O   0  0  0  0  0  0  0  0  0  0  0  0
  187.8870  178.9620  136.8130 C   0  0  0  0  0  2  0  0  0  0  0  0
  191.7540  176.7570  138.7410 C   0  0  0  0  0  1  0  0  0  0  0  0
  187.6230  173.3430  135.5790 C   0  0  0  0  0  2  0  0  0  0  0  0
  190.6120  173.7420  137.5930 O   0  0  0  0  0  0  0  0  0  0  0  0
  189.5330  177.7750  138.4820 C   0  0  2  0  0  3  0  0  0  0  0  0
  185.8500  175.8640  136.9940 C   0  0  0  0  0  0  0  0  0  0  0  0
  186.7020  176.8320  137.1380 N   0  0  0  0  0  0  0  0  0  0  0  0
  186.1900  173.5710  136.0580 C   0  0  0  0  0  2  0  0  0  0  0  0
  184.5150  176.1180  136.5490 N   0  0  0  0  0  2  0  0  0  0  0  0
  185.7070  178.8630  138.0280 C   0  0  0  0  0  1  0  0  0  0  0  0
  190.6800  174.2240  135.1900 O   0  0  0  0  0  0  0  0  0  0  0  0
  189.1940  178.1610  137.0610 C   0  0  1  0  0  3  0  0  0  0  0  0
  187.6280  174.4590  137.6120 O   0  0  0  0  0  0  0  0  0  0  0  0
  186.3570  174.5260  137.1520 N   0  0  0  0  0  0  0  0  0  0  0  0
  190.3420  176.5310  138.2520 C   0  0  1  0  0  3  0  0  0  0  0  0
  188.3010  174.4080  136.4000 C   0  0  1  0  0  3  0  0  0  0  0  0
  190.3650  176.3010  136.8110 N   0  0  1  0  0  0  0  0  0  0  0  0
  186.5240  178.2490  136.9070 C   0  0  1  0  0  3  0  0  0  0  0  0
  190.0540  174.6090  136.5000 S   0  0  0  0  0  0  0  0  0  0  0  0
  183.4770  174.6780  135.1100 C   0  0  0  0  0  1  0  0  0  0  0  0
  183.5480  175.1030  136.4950 N   0  0  0  0  0  0  0  0  0  0  0  0
  182.2620  175.7190  136.7980 C   0  0  0  0  0  2  0  0  0  0  0  0
  182.9830  176.3750  139.1800 C   0  0  0  0  0  3  0  0  0  0  0  0
  182.2230  179.0630  138.6990 C   0  0  0  0  0  2  0  0  0  0  0  0
  182.0440  178.4640  140.0980 C   0  0  0  0  0  2  0  0  0  0  0  0
  182.4220  176.7520  137.8650 C   0  0  0  0  0  0  0  0  0  0  0  0
  182.8410  177.1920  140.2310 C   0  0  0  0  0  3  0  0  0  0  0  0
  182.0180  178.0090  137.6430 C   0  0  0  0  0  3  0  0  0  0  0  0
  188.3920  177.4480  139.2220 O   0  0  0  0  0  0  0  0  0  0  0  0
  188.9800  179.3500  140.3400 O   0  0  0  0  0  1  0  0  0  0  0  0
  188.5920  178.0150  140.4860 C   0  0  1  0  0  3  0  0  0  0  0  0
  187.2950  177.9270  141.3000 C   0  0  2  0  0  3  0  0  0  0  0  0
  186.3960  179.0180  140.9540 N   0  0  0  0  0  1  0  0  0  0  0  0
  185.2660  177.6830  143.2950 O   0  0  0  0  0  0  0  0  0  0  0  0
  188.8300  177.7880  143.2220 C   0  0  0  0  0  3  0  0  0  0  0  0
  187.5670  177.9280  142.7790 C   0  0  0  0  0  0  0  0  0  0  0  0
  188.1010  177.1210  145.5250 C   0  0  2  0  0  3  0  0  0  0  0  0
  189.2070  177.7380  144.6770 C   0  0  0  0  0  2  0  0  0  0  0  0
  186.6690  178.2330  145.4680 S   0  0  0  0  0  0  0  0  0  0  0  0
  188.6660  176.9680  147.2010 Cl  0  0  0  0  0  0  0  0  0  0  0  0
  186.4230  177.9300  143.7170 C   0  0  0  0  0  0  0  0  0  0  0  0
  1 13  1  0  0  0  0
  2 19  1  0  0  0  0
  4  9  1  0  0  0  0
  6 30  1  1  0  0  0
  7  8  2  0  0  0  0
  7 15  1  0  0  0  0
  9 15  1  0  0  0  0
 10  7  1  0  0  0  0
 12 20  2  0  0  0  0
 13  2  1  1  0  0  0
 13  6  1  0  0  0  0
 15 14  1  0  0  0  0
 16  6  1  0  0  0  0
 16  3  1  6  0  0  0
 17  4  1  1  0  0  0
 17 20  1  0  0  0  0
 17 14  1  0  0  0  0
 18  1  1  6  0  0  0
 18 16  1  0  0  0  0
 19  8  1  0  0  0  0
 19 11  1  1  0  0  0
 20 18  1  0  0  0  0
 20  5  2  0  0  0  0
 21 22  1  0  0  0  0
 22 10  1  0  0  0  0
 22 23  1  0  0  0  0
 23 27  1  0  0  0  0
 24 28  2  0  0  0  0
 25 26  1  0  0  0  0
 26 28  1  0  0  0  0
 27 24  1  0  0  0  0
 29 27  2  0  0  0  0
 29 25  1  0  0  0  0
 30 32  1  0  0  0  0
 32 31  1  6  0  0  0
 32 33  1  0  0  0  0
 33 34  1  1  0  0  0
 33 37  1  0  0  0  0
 35 42  2  0  0  0  0
 36 39  1  0  0  0  0
 37 36  2  0  0  0  0
 37 42  1  0  0  0  0
 38 41  1  1  0  0  0
 39 38  1  0  0  0  0
 40 38  1  0  0  0  0
 42 40  1  0  0  0  0
M  END
>  <MODEL>
6

>  <REMARK>
 VINA RESULT:      -6.2      3.200      8.216
  Name = 
  7 active torsions:
  status: ('A' for Active; 'I' for Inactive)
    1  A    between atoms: C_8  and  C_24
    2  A    between atoms: C_8  and  O_38
    3  A    between atoms: C_11  and  O_38
    4  A    between atoms: C_16  and  C_34
    5  A    between atoms: N_18  and  N_25
    6  A    between atoms: C_22  and  C_24
    7  A    between atoms: N_25  and  C_34
                            x       y       z     vdW  Elec       q    Type
                         _______ _______ _______ _____ _____    ______ ____

>  <TORSDO>
F 7

$$$$
=
 OpenBabel11062413413D

 42 46  0  0  1  0  0  0  0  0999 V2000
  190.2250  177.3550  136.8960 O   0  0  0  0  0  0  0  0  0  0  0  0
  188.4060  178.9380  137.5160 C   0  0  0  0  0  2  0  0  0  0  0  0
  192.3970  177.1310  139.5990 C   0  0  0  0  0  1  0  0  0  0  0  0
  189.2390  173.5770  135.5840 C   0  0  0  0  0  2  0  0  0  0  0  0
  191.9090  174.1620  137.9670 O   0  0  0  0  0  0  0  0  0  0  0  0
  190.0680  177.8080  139.2090 C   0  0  2  0  0  3  0  0  0  0  0  0
  186.9300  175.5600  137.0800 C   0  0  0  0  0  0  0  0  0  0  0  0
  187.5830  176.6220  137.4390 N   0  0  0  0  0  0  0  0  0  0  0  0
  187.7490  173.5040  135.9170 C   0  0  0  0  0  2  0  0  0  0  0  0
  185.6190  175.6580  136.5160 N   0  0  0  0  0  2  0  0  0  0  0  0
  186.1710  178.3240  138.4470 C   0  0  0  0  0  1  0  0  0  0  0  0
  192.1190  174.9790  135.6660 O   0  0  0  0  0  0  0  0  0  0  0  0
  189.8030  178.3290  137.8160 C   0  0  1  0  0  3  0  0  0  0  0  0
  188.8570  174.3840  137.7250 O   0  0  0  0  0  0  0  0  0  0  0  0
  187.6430  174.3110  137.1310 N   0  0  0  0  0  0  0  0  0  0  0  0
  191.0980  176.7530  138.9250 C   0  0  1  0  0  3  0  0  0  0  0  0
  189.6410  174.6110  136.6030 C   0  0  1  0  0  3  0  0  0  0  0  0
  191.2960  176.7320  137.4790 N   0  0  1  0  0  0  0  0  0  0  0  0
  187.1840  178.0110  137.3630 C   0  0  1  0  0  3  0  0  0  0  0  0
  191.3150  175.0730  136.9310 S   0  0  0  0  0  0  0  0  0  0  0  0
  184.1100  174.8210  135.0170 C   0  0  0  0  0  1  0  0  0  0  0  0
  184.8520  174.5190  136.2260 N   0  0  0  0  0  0  0  0  0  0  0  0
  183.8630  174.3860  137.2890 C   0  0  0  0  0  2  0  0  0  0  0  0
  183.8000  171.8390  136.9330 C   0  0  0  0  0  3  0  0  0  0  0  0
  180.9670  171.8750  136.9730 C   0  0  0  0  0  2  0  0  0  0  0  0
  181.6980  170.8810  136.0650 C   0  0  0  0  0  2  0  0  0  0  0  0
  183.0890  173.1210  137.1200 C   0  0  0  0  0  0  0  0  0  0  0  0
  183.1450  170.7660  136.4700 C   0  0  0  0  0  3  0  0  0  0  0  0
  181.7510  173.1550  137.0950 C   0  0  0  0  0  3  0  0  0  0  0  0
  188.9360  177.2020  139.7650 O   0  0  0  0  0  0  0  0  0  0  0  0
  187.3800  177.8770  141.2950 O   0  0  0  0  0  1  0  0  0  0  0  0
  188.7460  177.8320  141.0010 C   0  0  1  0  0  3  0  0  0  0  0  0
  189.4960  177.0570  142.0920 C   0  0  2  0  0  3  0  0  0  0  0  0
  189.5800  175.6440  141.7550 N   0  0  0  0  0  1  0  0  0  0  0  0
  190.6600  178.5370  144.2410 O   0  0  0  0  0  0  0  0  0  0  0  0
  187.5570  176.8980  143.6040 C   0  0  0  0  0  3  0  0  0  0  0  0
  188.8500  177.2310  143.4400 C   0  0  0  0  0  0  0  0  0  0  0  0
  187.3260  178.2530  145.6990 C   0  0  2  0  0  3  0  0  0  0  0  0
  186.8060  177.0660  144.8950 C   0  0  0  0  0  2  0  0  0  0  0  0
  189.0250  177.8760  146.2110 S   0  0  0  0  0  0  0  0  0  0  0  0
  186.3090  178.4740  147.1370 Cl  0  0  0  0  0  0  0  0  0  0  0  0
  189.6090  177.9050  144.5160 C   0  0  0  0  0  0  0  0  0  0  0  0
  1 13  1  0  0  0  0
  4  9  1  0  0  0  0
  6 30  1  6  0  0  0
  7 15  1  0  0  0  0
  7  8  2  0  0  0  0
  9 15  1  0  0  0  0
 10  7  1  0  0  0  0
 12 20  2  0  0  0  0
 13  2  1  1  0  0  0
 13  6  1  0  0  0  0
 15 14  1  0  0  0  0
 16  6  1  0  0  0  0
 16  3  1  1  0  0  0
 17  4  1  6  0  0  0
 17 20  1  0  0  0  0
 17 14  1  0  0  0  0
 18  1  1  6  0  0  0
 18 16  1  0  0  0  0
 19  8  1  0  0  0  0
 19  2  1  0  0  0  0
 19 11  1  1  0  0  0
 20 18  1  0  0  0  0
 20  5  2  0  0  0  0
 21 22  1  0  0  0  0
 22 10  1  0  0  0  0
 22 23  1  0  0  0  0
 24 27  1  0  0  0  0
 25 29  1  0  0  0  0
 26 28  1  0  0  0  0
 26 25  1  0  0  0  0
 27 23  1  0  0  0  0
 28 24  2  0  0  0  0
 29 27  2  0  0  0  0
 30 32  1  0  0  0  0
 32 31  1  1  0  0  0
 32 33  1  0  0  0  0
 33 34  1  6  0  0  0
 33 37  1  0  0  0  0
 35 42  2  0  0  0  0
 36 39  1  0  0  0  0
 37 36  2  0  0  0  0
 37 42  1  0  0  0  0
 38 40  1  0  0  0  0
 38 41  1  1  0  0  0
 39 38  1  0  0  0  0
 42 40  1  0  0  0  0
M  END
>  <MODEL>
7

>  <REMARK>
 VINA RESULT:      -6.2      3.925      8.866
  Name = 
  7 active torsions:
  status: ('A' for Active; 'I' for Inactive)
    1  A    between atoms: C_8  and  C_24
    2  A    between atoms: C_8  and  O_38
    3  A    between atoms: C_11  and  O_38
    4  A    between atoms: C_16  and  C_34
    5  A    between atoms: N_18  and  N_25
    6  A    between atoms: C_22  and  C_24
    7  A    between atoms: N_25  and  C_34
                            x       y       z     vdW  Elec       q    Type
                         _______ _______ _______ _____ _____    ______ ____

>  <TORSDO>
F 7

$$$$
=
 OpenBabel11062413413D

 42 46  0  0  1  0  0  0  0  0999 V2000
  189.4460  176.6170  135.8280 O   0  0  0  0  0  0  0  0  0  0  0  0
  188.0910  178.6210  136.4150 C   0  0  0  0  0  2  0  0  0  0  0  0
  192.0610  176.4040  138.1070 C   0  0  0  0  0  1  0  0  0  0  0  0
  187.5820  172.9580  135.5020 C   0  0  0  0  0  2  0  0  0  0  0  0
  190.7470  173.3700  137.2220 O   0  0  0  0  0  0  0  0  0  0  0  0
  189.8510  177.4720  137.9920 C   0  0  2  0  0  3  0  0  0  0  0  0
  186.0040  175.5950  136.9350 C   0  0  0  0  0  0  0  0  0  0  0  0
  186.8890  176.5450  136.9530 N   0  0  0  0  0  0  0  0  0  0  0  0
  186.2030  173.2500  136.0930 C   0  0  0  0  0  2  0  0  0  0  0  0
  184.6410  175.8660  136.5960 N   0  0  0  0  0  2  0  0  0  0  0  0
  186.0270  178.6450  137.8200 C   0  0  0  0  0  1  0  0  0  0  0  0
  190.6120  173.7300  134.8010 O   0  0  0  0  0  0  0  0  0  0  0  0
  189.3950  177.7960  136.5890 C   0  0  1  0  0  3  0  0  0  0  0  0
  187.7950  174.1720  137.4660 O   0  0  0  0  0  0  0  0  0  0  0  0
  186.4900  174.2530  137.1170 N   0  0  0  0  0  0  0  0  0  0  0  0
  190.6050  176.1950  137.7560 C   0  0  1  0  0  3  0  0  0  0  0  0
  188.3550  174.0420  136.2040 C   0  0  1  0  0  3  0  0  0  0  0  0
  190.4930  175.8920  136.3330 N   0  0  1  0  0  0  0  0  0  0  0  0
  186.7250  177.9530  136.6650 C   0  0  1  0  0  3  0  0  0  0  0  0
  190.1150  174.1970  136.1390 S   0  0  0  0  0  0  0  0  0  0  0  0
  182.8010  175.0470  135.5160 C   0  0  0  0  0  1  0  0  0  0  0  0
  183.6490  174.8780  136.6810 N   0  0  0  0  0  0  0  0  0  0  0  0
  182.8210  175.1990  137.8370 C   0  0  0  0  0  2  0  0  0  0  0  0
  181.7950  172.8730  137.4360 C   0  0  0  0  0  3  0  0  0  0  0  0
  179.3230  173.7470  138.5110 C   0  0  0  0  0  2  0  0  0  0  0  0
  179.3330  172.7330  137.3630 C   0  0  0  0  0  2  0  0  0  0  0  0
  181.6590  174.2640  137.9160 C   0  0  0  0  0  0  0  0  0  0  0  0
  180.7050  172.1300  137.2050 C   0  0  0  0  0  3  0  0  0  0  0  0
  180.4820  174.7000  138.3840 C   0  0  0  0  0  3  0  0  0  0  0  0
  188.7720  177.2140  138.8460 O   0  0  0  0  0  0  0  0  0  0  0  0
  188.6950  179.3590  139.6250 O   0  0  0  0  0  1  0  0  0  0  0  0
  188.9780  178.0330  139.9630 C   0  0  1  0  0  3  0  0  0  0  0  0
  188.0700  177.5730  141.1100 C   0  0  2  0  0  3  0  0  0  0  0  0
  186.8720  178.3980  141.1800 N   0  0  0  0  0  1  0  0  0  0  0  0
  187.2080  176.1280  143.4190 O   0  0  0  0  0  0  0  0  0  0  0  0
  190.0340  178.1010  142.5000 C   0  0  0  0  0  3  0  0  0  0  0  0
  188.7900  177.5910  142.4300 C   0  0  0  0  0  0  0  0  0  0  0  0
  190.5340  176.9570  144.6730 C   0  0  2  0  0  3  0  0  0  0  0  0
  190.8560  178.1340  143.7580 C   0  0  0  0  0  2  0  0  0  0  0  0
  188.8240  177.1490  145.2460 S   0  0  0  0  0  0  0  0  0  0  0  0
  191.6330  176.9830  146.0670 Cl  0  0  0  0  0  0  0  0  0  0  0  0
  188.1750  176.9120  143.5910 C   0  0  0  0  0  0  0  0  0  0  0  0
  1 13  1  0  0  0  0
  2 19  1  0  0  0  0
  4  9  1  0  0  0  0
  6 30  1  1  0  0  0
  7  8  2  0  0  0  0
  7 15  1  0  0  0  0
  9 15  1  0  0  0  0
 10 22  1  0  0  0  0
 10  7  1  0  0  0  0
 12 20  2  0  0  0  0
 13  2  1  1  0  0  0
 13  6  1  0  0  0  0
 15 14  1  0  0  0  0
 16  6  1  0  0  0  0
 16  3  1  6  0  0  0
 17  4  1  1  0  0  0
 17 14  1  0  0  0  0
 18  1  1  1  0  0  0
 18 16  1  0  0  0  0
 19  8  1  0  0  0  0
 19 11  1  1  0  0  0
 20 17  1  0  0  0  0
 20 18  1  0  0  0  0
 20  5  2  0  0  0  0
 21 22  1  0  0  0  0
 22 23  1  0  0  0  0
 23 27  1  0  0  0  0
 24 27  1  0  0  0  0
 26 25  1  0  0  0  0
 27 29  2  0  0  0  0
 28 26  1  0  0  0  0
 28 24  2  0  0  0  0
 29 25  1  0  0  0  0
 30 32  1  0  0  0  0
 32 31  1  6  0  0  0
 32 33  1  0  0  0  0
 33 34  1  1  0  0  0
 33 37  1  0  0  0  0
 35 42  2  0  0  0  0
 36 39  1  0  0  0  0
 37 36  2  0  0  0  0
 37 42  1  0  0  0  0
 38 40  1  0  0  0  0
 38 41  1  1  0  0  0
 39 38  1  0  0  0  0
 42 40  1  0  0  0  0
M  END
>  <MODEL>
8

>  <REMARK>
 VINA RESULT:      -6.0      3.572      8.550
  Name = 
  7 active torsions:
  status: ('A' for Active; 'I' for Inactive)
    1  A    between atoms: C_8  and  C_24
    2  A    between atoms: C_8  and  O_38
    3  A    between atoms: C_11  and  O_38
    4  A    between atoms: C_16  and  C_34
    5  A    between atoms: N_18  and  N_25
    6  A    between atoms: C_22  and  C_24
    7  A    between atoms: N_25  and  C_34
                            x       y       z     vdW  Elec       q    Type
                         _______ _______ _______ _____ _____    ______ ____

>  <TORSDO>
F 7

$$$$
=
 OpenBabel11062413413D

 42 46  0  0  1  0  0  0  0  0999 V2000
  185.0480  176.0750  137.9020 O   0  0  0  0  0  0  0  0  0  0  0  0
  182.7280  175.4060  138.5080 C   0  0  0  0  0  2  0  0  0  0  0  0
  184.9470  177.4690  134.7200 C   0  0  0  0  0  1  0  0  0  0  0  0
  187.1540  178.5450  140.4380 C   0  0  0  0  0  2  0  0  0  0  0  0
  187.1320  179.0280  136.8450 O   0  0  0  0  0  0  0  0  0  0  0  0
  183.3670  177.0390  136.5510 C   0  0  2  0  0  3  0  0  0  0  0  0
  183.8100  178.1170  140.8030 C   0  0  0  0  0  0  0  0  0  0  0  0
  183.4590  177.3630  139.8060 N   0  0  0  0  0  0  0  0  0  0  0  0
  186.0660  179.0100  141.4050 C   0  0  0  0  0  2  0  0  0  0  0  0
  183.2680  177.9090  142.1100 N   0  0  0  0  0  2  0  0  0  0  0  0
  181.1060  176.7560  139.8430 C   0  0  0  0  0  1  0  0  0  0  0  0
  188.1820  177.0330  137.8060 O   0  0  0  0  0  0  0  0  0  0  0  0
  183.7440  175.8670  137.4270 C   0  0  1  0  0  3  0  0  0  0  0  0
  185.2490  179.1550  139.2650 O   0  0  0  0  0  0  0  0  0  0  0  0
  184.8740  179.0560  140.5610 N   0  0  0  0  0  0  0  0  0  0  0  0
  184.7240  177.5840  136.2110 C   0  0  1  0  0  3  0  0  0  0  0  0
  186.2760  178.2230  139.2580 C   0  0  1  0  0  3  0  0  0  0  0  0
  185.7020  176.7550  136.9080 N   0  0  1  0  0  0  0  0  0  0  0  0
  182.5340  176.2500  139.7840 C   0  0  1  0  0  3  0  0  0  0  0  0
  186.8930  177.7890  137.6600 S   0  0  0  0  0  0  0  0  0  0  0  0
  184.7240  178.2550  143.8370 C   0  0  0  0  0  1  0  0  0  0  0  0
  183.5470  178.7820  143.1720 N   0  0  0  0  0  0  0  0  0  0  0  0
  182.4520  178.6600  144.1270 C   0  0  0  0  0  2  0  0  0  0  0  0
  180.0570  177.9820  143.4740 C   0  0  0  0  0  3  0  0  0  0  0  0
  179.6670  180.4840  142.2000 C   0  0  0  0  0  2  0  0  0  0  0  0
  179.0070  179.2280  141.6210 C   0  0  0  0  0  2  0  0  0  0  0  0
  181.1520  178.9760  143.4650 C   0  0  0  0  0  0  0  0  0  0  0  0
  179.0230  178.1120  142.6330 C   0  0  0  0  0  3  0  0  0  0  0  0
  180.9930  180.1420  142.8270 C   0  0  0  0  0  3  0  0  0  0  0  0
  182.6480  178.0100  137.2570 O   0  0  0  0  0  0  0  0  0  0  0  0
  181.1210  177.3140  135.7090 O   0  0  0  0  0  1  0  0  0  0  0  0
  181.6300  178.4230  136.3890 C   0  0  1  0  0  3  0  0  0  0  0  0
  180.5170  179.1070  137.1930 C   0  0  2  0  0  3  0  0  0  0  0  0
  179.2580  178.3930  137.0390 N   0  0  0  0  0  1  0  0  0  0  0  0
  180.5060  181.2850  139.0420 O   0  0  0  0  0  0  0  0  0  0  0  0
  180.4510  180.8930  135.4970 C   0  0  0  0  0  3  0  0  0  0  0  0
  180.3490  180.5470  136.7940 C   0  0  0  0  0  0  0  0  0  0  0  0
  180.8410  183.3120  136.0240 C   0  0  2  0  0  3  0  0  0  0  0  0
  180.3380  182.3050  134.9950 C   0  0  0  0  0  2  0  0  0  0  0  0
  179.7260  183.2500  137.4530 S   0  0  0  0  0  0  0  0  0  0  0  0
  180.8060  184.9390  135.3150 Cl  0  0  0  0  0  0  0  0  0  0  0  0
  180.2250  181.5740  137.8510 C   0  0  0  0  0  0  0  0  0  0  0  0
  2 19  1  0  0  0  0
  4  9  1  0  0  0  0
  5 20  2  0  0  0  0
  6 30  1  1  0  0  0
  6 13  1  0  0  0  0
  7 10  1  0  0  0  0
  8  7  2  0  0  0  0
 10 22  1  0  0  0  0
 13  1  1  0  0  0  0
 13  2  1  1  0  0  0
 14 15  1  0  0  0  0
 15  7  1  0  0  0  0
 15  9  1  0  0  0  0
 16  3  1  6  0  0  0
 16  6  1  0  0  0  0
 16 18  1  0  0  0  0
 17 14  1  0  0  0  0
 17  4  1  1  0  0  0
 18 20  1  0  0  0  0
 18  1  1  1  0  0  0
 19  8  1  0  0  0  0
 19 11  1  6  0  0  0
 20 12  2  0  0  0  0
 20 17  1  0  0  0  0
 22 21  1  0  0  0  0
 22 23  1  0  0  0  0
 25 29  1  0  0  0  0
 26 25  1  0  0  0  0
 26 28  1  0  0  0  0
 27 24  1  0  0  0  0
 27 23  1  0  0  0  0
 28 24  2  0  0  0  0
 29 27  2  0  0  0  0
 32 31  1  1  0  0  0
 32 33  1  0  0  0  0
 32 30  1  0  0  0  0
 33 34  1  6  0  0  0
 36 37  2  0  0  0  0
 37 33  1  0  0  0  0
 37 42  1  0  0  0  0
 38 41  1  6  0  0  0
 38 40  1  0  0  0  0
 39 36  1  0  0  0  0
 39 38  1  0  0  0  0
 40 42  1  0  0  0  0
 42 35  2  0  0  0  0
M  END
>  <MODEL>
9

>  <REMARK>
 VINA RESULT:      -6.0      5.129      8.677
  Name = 
  7 active torsions:
  status: ('A' for Active; 'I' for Inactive)
    1  A    between atoms: C_8  and  C_24
    2  A    between atoms: C_8  and  O_38
    3  A    between atoms: C_11  and  O_38
    4  A    between atoms: C_16  and  C_34
    5  A    between atoms: N_18  and  N_25
    6  A    between atoms: C_22  and  C_24
    7  A    between atoms: N_25  and  C_34
                            x       y       z     vdW  Elec       q    Type
                         _______ _______ _______ _____ _____    ______ ____

>  <TORSDO>
F 7

$$$$
