=
 OpenBabel11062413093D

 40 41  0  0  1  0  0  0  0  0999 V2000
  188.0070  176.2520  143.5050 C   0  0  0  0  0  2  0  0  0  0  0  0
  187.9970  177.2570  144.6620 C   0  0  1  0  0  3  0  0  0  0  0  0
  186.6010  177.2850  145.2700 C   0  0  0  0  0  2  0  0  0  0  0  0
  186.1260  178.7140  145.4960 C   0  0  0  0  0  2  0  0  0  0  0  0
  184.7180  178.9230  144.9630 C   0  0  0  0  0  2  0  0  0  0  0  0
  184.7660  179.3480  143.1950 S   0  0  0  0  0  0  0  0  0  0  0  0
  183.1070  178.7490  142.8840 C   0  0  0  0  0  0  0  0  0  0  0  0
  182.8030  178.3770  141.7660 O   0  0  0  0  0  0  0  0  0  0  0  0
  182.0870  178.7630  143.9790 C   0  0  0  0  0  2  0  0  0  0  0  0
  180.7780  179.3880  143.5240 C   0  0  0  0  0  2  0  0  0  0  0  0
  179.5920  178.5770  144.0110 C   0  0  0  0  0  1  0  0  0  0  0  0
  189.0990  176.9680  145.7040 C   0  0  1  0  0  3  0  0  0  0  0  0
  190.3390  177.8910  145.6400 C   0  0  1  0  0  3  0  0  0  0  0  0
  191.9410  177.5210  143.8460 C   0  0  0  0  0  2  0  0  0  0  0  0
  191.3140  178.8770  143.6230 C   0  0  0  0  0  2  0  0  0  0  0  0
  191.6680  177.2240  145.2970 C   0  0  2  0  0  3  0  0  0  0  0  0
  190.1870  179.0190  144.6340 C   0  0  0  0  0  2  0  0  0  0  0  0
  191.8510  175.7610  145.6980 C   0  0  0  0  0  2  0  0  0  0  0  0
  192.1050  175.6310  147.0630 O   0  0  0  0  0  1  0  0  0  0  0  0
  188.5510  176.8480  147.1300 C   0  0  0  0  0  2  0  0  0  0  0  0
  189.2230  177.8640  148.0350 C   0  0  0  0  0  1  0  0  0  0  0  0
  189.0180  176.6200  142.4290 C   0  0  0  0  0  2  0  0  0  0  0  0
  188.3480  177.5010  141.3820 C   0  0  1  0  0  3  0  0  0  0  0  0
  187.9260  178.6920  141.9710 O   0  0  0  0  0  1  0  0  0  0  0  0
  189.2850  177.7990  140.2130 C   0  0  1  0  0  3  0  0  0  0  0  0
  190.5280  176.7940  138.5590 C   0  0  2  0  0  3  0  0  0  0  0  0
  189.9720  176.6130  139.8310 O   0  0  0  0  0  0  0  0  0  0  0  0
  189.4150  176.8060  137.5080 C   0  0  0  0  0  2  0  0  0  0  0  0
  188.1500  177.3960  138.1180 C   0  0  1  0  0  3  0  0  0  0  0  0
  188.5090  178.4090  139.1120 N   0  0  0  0  0  2  0  0  0  0  0  0
  191.5280  175.6850  138.2790 C   0  0  0  0  0  2  0  0  0  0  0  0
  192.9150  176.2640  138.0630 C   0  0  0  0  0  2  0  0  0  0  0  0
  195.0320  175.4010  137.4950 O   0  0  0  0  0  0  0  0  0  0  0  0
  193.8210  175.2260  137.4980 C   0  0  0  0  0  3  0  0  0  0  0  0
  187.3040  178.0160  137.0280 C   0  0  0  0  0  2  0  0  0  0  0  0
  186.3330  178.9210  137.6170 N   0  0  0  0  0  2  0  0  0  0  0  0
  185.1970  178.1100  138.0170 C   0  0  0  0  0  2  0  0  0  0  0  0
  184.1410  178.9930  138.5860 C   0  0  0  0  0  0  0  0  0  0  0  0
  182.8070  178.6100  138.5300 O   0  0  0  0  0  0  0  0  0  0  0  0
  184.4630  180.0630  139.1630 O   0  0  0  0  0  1  0  0  0  0  0  0
  2  1  1  6  0  0  0
  2  3  1  0  0  0  0
  2 12  1  0  0  0  0
  3  4  1  0  0  0  0
  5  4  1  0  0  0  0
  6  5  1  0  0  0  0
  7  6  1  0  0  0  0
  7  9  1  0  0  0  0
  8  7  2  0  0  0  0
 10  9  1  0  0  0  0
 10 11  1  0  0  0  0
 12 20  1  1  0  0  0
 13 12  1  6  0  0  0
 14 16  1  0  0  0  0
 15 14  1  0  0  0  0
 15 17  1  0  0  0  0
 16 13  1  0  0  0  0
 16 18  1  6  0  0  0
 17 13  1  0  0  0  0
 18 19  1  0  0  0  0
 20 21  1  0  0  0  0
 22  1  1  0  0  0  0
 23 24  1  1  0  0  0
 23 22  1  0  0  0  0
 25 23  1  1  0  0  0
 26 31  1  6  0  0  0
 26 27  1  0  0  0  0
 27 25  1  0  0  0  0
 28 29  1  0  0  0  0
 28 26  1  0  0  0  0
 29 35  1  6  0  0  0
 29 30  1  0  0  0  0
 30 25  1  0  0  0  0
 32 31  1  0  0  0  0
 33 34  2  0  0  0  0
 34 32  1  0  0  0  0
 35 36  1  0  0  0  0
 36 37  1  0  0  0  0
 37 38  1  0  0  0  0
 38 40  1  0  0  0  0
 39 38  2  0  0  0  0
M  END
>  <MODEL>
1

>  <REMARK>
 VINA RESULT:      -7.1      0.000      0.000
  Name = 
  22 active torsions:
  status: ('A' for Active; 'I' for Inactive)
    1  A    between atoms: C_1  and  C_11
    2  A    between atoms: C_2  and  C_14
    3  A    between atoms: C_2  and  C_19
    4  A    between atoms: C_2  and  C_25
    5  A    between atoms: C_3  and  C_26
    6  A    between atoms: C_4  and  C_15
    7  A    between atoms: C_4  and  N_38
    8  A    between atoms: C_5  and  C_26
    9  A    between atoms: C_5  and  C_36
   10  A    between atoms: C_7  and  C_9
   11  A    between atoms: C_7  and  C_14
   12  A    between atoms: C_8  and  C_28
   13  A    between atoms: C_9  and  C_11
   14  A    between atoms: S_10  and  C_29
   15  A    between atoms: S_10  and  C_35
   16  A    between atoms: C_12  and  C_21
   17  A    between atoms: C_12  and  C_35
   18  A    between atoms: C_14  and  C_21
   19  A    between atoms: C_16  and  C_32
   20  A    between atoms: C_27  and  C_29
   21  A    between atoms: C_27  and  C_33
   22  A    between atoms: C_28  and  N_38
                            x       y       z     vdW  Elec       q    Type
                         _______ _______ _______ _____ _____    ______ ____

>  <TORSDO>
F 22

$$$$
=
 OpenBabel11062413093D

 40 41  0  0  1  0  0  0  0  0999 V2000
  187.7610  176.3810  143.4800 C   0  0  0  0  0  2  0  0  0  0  0  0
  187.8380  177.3660  144.6520 C   0  0  1  0  0  3  0  0  0  0  0  0
  186.4850  177.3920  145.3520 C   0  0  0  0  0  2  0  0  0  0  0  0
  186.0490  178.8200  145.6550 C   0  0  0  0  0  2  0  0  0  0  0  0
  185.1890  179.3880  144.5380 C   0  0  0  0  0  2  0  0  0  0  0  0
  183.4410  178.9650  144.8060 S   0  0  0  0  0  0  0  0  0  0  0  0
  183.0930  178.7830  143.0580 C   0  0  0  0  0  0  0  0  0  0  0  0
  181.9650  178.9790  142.6460 O   0  0  0  0  0  0  0  0  0  0  0  0
  184.1720  178.3340  142.1220 C   0  0  0  0  0  2  0  0  0  0  0  0
  183.6480  178.1380  140.7080 C   0  0  0  0  0  2  0  0  0  0  0  0
  184.0240  179.3120  139.8240 C   0  0  0  0  0  1  0  0  0  0  0  0
  189.0040  177.0510  145.6120 C   0  0  1  0  0  3  0  0  0  0  0  0
  190.2270  177.9930  145.5100 C   0  0  1  0  0  3  0  0  0  0  0  0
  191.8650  177.5460  143.7670 C   0  0  0  0  0  2  0  0  0  0  0  0
  191.2170  178.8730  143.4520 C   0  0  0  0  0  2  0  0  0  0  0  0
  191.5740  177.3330  145.2300 C   0  0  2  0  0  3  0  0  0  0  0  0
  190.0700  179.0540  144.4350 C   0  0  0  0  0  2  0  0  0  0  0  0
  191.7780  175.9010  145.7220 C   0  0  0  0  0  2  0  0  0  0  0  0
  192.0940  175.8660  147.0800 O   0  0  0  0  0  1  0  0  0  0  0  0
  188.5460  176.8670  147.0630 C   0  0  0  0  0  2  0  0  0  0  0  0
  189.1500  177.9460  147.9430 C   0  0  0  0  0  1  0  0  0  0  0  0
  188.8370  176.6420  142.4360 C   0  0  0  0  0  2  0  0  0  0  0  0
  188.2480  177.4600  141.2940 C   0  0  1  0  0  3  0  0  0  0  0  0
  187.6330  178.6030  141.8040 O   0  0  0  0  0  1  0  0  0  0  0  0
  189.3150  177.8530  140.2730 C   0  0  1  0  0  3  0  0  0  0  0  0
  190.6810  177.0000  138.6310 C   0  0  2  0  0  3  0  0  0  0  0  0
  189.9870  176.6890  139.8060 O   0  0  0  0  0  0  0  0  0  0  0  0
  189.6860  177.2080  137.4860 C   0  0  0  0  0  2  0  0  0  0  0  0
  188.3910  177.7860  138.0410 C   0  0  1  0  0  3  0  0  0  0  0  0
  188.6860  178.6410  139.1920 N   0  0  0  0  0  2  0  0  0  0  0  0
  191.6560  175.8820  138.3060 C   0  0  0  0  0  2  0  0  0  0  0  0
  193.0480  176.4420  138.0740 C   0  0  0  0  0  2  0  0  0  0  0  0
  194.8680  175.9770  136.6530 O   0  0  0  0  0  0  0  0  0  0  0  0
  193.7010  175.7400  136.9350 C   0  0  0  0  0  3  0  0  0  0  0  0
  187.6910  178.5870  136.9660 C   0  0  0  0  0  2  0  0  0  0  0  0
  186.6930  177.7600  136.3100 N   0  0  0  0  0  2  0  0  0  0  0  0
  185.7100  177.4120  137.3210 C   0  0  0  0  0  2  0  0  0  0  0  0
  184.6890  176.5090  136.7220 C   0  0  0  0  0  0  0  0  0  0  0  0
  184.6650  176.2960  135.3490 O   0  0  0  0  0  0  0  0  0  0  0  0
  183.8790  175.8980  137.4660 O   0  0  0  0  0  1  0  0  0  0  0  0
  2  1  1  6  0  0  0
  2  3  1  0  0  0  0
  2 12  1  0  0  0  0
  3  4  1  0  0  0  0
  5  6  1  0  0  0  0
  5  4  1  0  0  0  0
  7  6  1  0  0  0  0
  8  7  2  0  0  0  0
  9  7  1  0  0  0  0
 10  9  1  0  0  0  0
 11 10  1  0  0  0  0
 12 20  1  1  0  0  0
 13 12  1  6  0  0  0
 14 16  1  0  0  0  0
 15 14  1  0  0  0  0
 15 17  1  0  0  0  0
 16 13  1  0  0  0  0
 16 18  1  6  0  0  0
 17 13  1  0  0  0  0
 18 19  1  0  0  0  0
 20 21  1  0  0  0  0
 22  1  1  0  0  0  0
 23 24  1  1  0  0  0
 23 22  1  0  0  0  0
 25 23  1  1  0  0  0
 26 31  1  6  0  0  0
 26 27  1  0  0  0  0
 27 25  1  0  0  0  0
 28 29  1  0  0  0  0
 28 26  1  0  0  0  0
 29 35  1  6  0  0  0
 29 30  1  0  0  0  0
 30 25  1  0  0  0  0
 32 31  1  0  0  0  0
 33 34  2  0  0  0  0
 34 32  1  0  0  0  0
 36 35  1  0  0  0  0
 36 37  1  0  0  0  0
 38 37  1  0  0  0  0
 38 40  1  0  0  0  0
 39 38  2  0  0  0  0
M  END
>  <MODEL>
2

>  <REMARK>
 VINA RESULT:      -7.0      1.289      1.788
  Name = 
  22 active torsions:
  status: ('A' for Active; 'I' for Inactive)
    1  A    between atoms: C_1  and  C_11
    2  A    between atoms: C_2  and  C_14
    3  A    between atoms: C_2  and  C_19
    4  A    between atoms: C_2  and  C_25
    5  A    between atoms: C_3  and  C_26
    6  A    between atoms: C_4  and  C_15
    7  A    between atoms: C_4  and  N_38
    8  A    between atoms: C_5  and  C_26
    9  A    between atoms: C_5  and  C_36
   10  A    between atoms: C_7  and  C_9
   11  A    between atoms: C_7  and  C_14
   12  A    between atoms: C_8  and  C_28
   13  A    between atoms: C_9  and  C_11
   14  A    between atoms: S_10  and  C_29
   15  A    between atoms: S_10  and  C_35
   16  A    between atoms: C_12  and  C_21
   17  A    between atoms: C_12  and  C_35
   18  A    between atoms: C_14  and  C_21
   19  A    between atoms: C_16  and  C_32
   20  A    between atoms: C_27  and  C_29
   21  A    between atoms: C_27  and  C_33
   22  A    between atoms: C_28  and  N_38
                            x       y       z     vdW  Elec       q    Type
                         _______ _______ _______ _____ _____    ______ ____

>  <TORSDO>
F 22

$$$$
=
 OpenBabel11062413093D

 40 41  0  0  1  0  0  0  0  0999 V2000
  188.0510  177.6200  140.1190 C   0  0  0  0  0  2  0  0  0  0  0  0
  189.5240  177.4270  139.7400 C   0  0  1  0  0  3  0  0  0  0  0  0
  190.2540  176.8130  140.9280 C   0  0  0  0  0  2  0  0  0  0  0  0
  191.4890  177.6250  141.2950 C   0  0  0  0  0  2  0  0  0  0  0  0
  191.6510  177.7420  142.8020 C   0  0  0  0  0  2  0  0  0  0  0  0
  190.9610  176.2760  143.6290 S   0  0  0  0  0  0  0  0  0  0  0  0
  190.2530  177.2220  144.9760 C   0  0  0  0  0  0  0  0  0  0  0  0
  189.4360  178.0910  144.7350 O   0  0  0  0  0  0  0  0  0  0  0  0
  190.7110  176.9840  146.3810 C   0  0  0  0  0  2  0  0  0  0  0  0
  191.9410  176.0910  146.4320 C   0  0  0  0  0  2  0  0  0  0  0  0
  192.3560  175.8220  147.8660 C   0  0  0  0  0  1  0  0  0  0  0  0
  189.6980  176.6090  138.4420 C   0  0  1  0  0  3  0  0  0  0  0  0
  189.4370  177.3800  137.1260 C   0  0  1  0  0  3  0  0  0  0  0  0
  187.1250  177.7180  136.4450 C   0  0  0  0  0  2  0  0  0  0  0  0
  187.7110  179.0750  136.7520 C   0  0  0  0  0  2  0  0  0  0  0  0
  188.3290  176.8380  136.2280 C   0  0  2  0  0  3  0  0  0  0  0  0
  189.0880  178.8400  137.3540 C   0  0  0  0  0  2  0  0  0  0  0  0
  188.0440  175.3380  136.2790 C   0  0  0  0  0  2  0  0  0  0  0  0
  187.1490  174.9530  135.2810 O   0  0  0  0  0  1  0  0  0  0  0  0
  191.0210  175.8390  138.3990 C   0  0  0  0  0  2  0  0  0  0  0  0
  191.9020  176.3750  137.2850 C   0  0  0  0  0  1  0  0  0  0  0  0
  187.8840  178.4650  141.3730 C   0  0  0  0  0  2  0  0  0  0  0  0
  186.4570  178.9940  141.4420 C   0  0  1  0  0  3  0  0  0  0  0  0
  185.8920  178.9870  140.1680 O   0  0  0  0  0  1  0  0  0  0  0  0
  185.5980  178.1710  142.4000 C   0  0  1  0  0  3  0  0  0  0  0  0
  184.4610  178.2810  144.3970 C   0  0  2  0  0  3  0  0  0  0  0  0
  185.5230  178.8230  143.6620 O   0  0  0  0  0  0  0  0  0  0  0  0
  183.1310  178.7320  143.7870 C   0  0  0  0  0  2  0  0  0  0  0  0
  183.2970  178.9000  142.2820 C   0  0  1  0  0  3  0  0  0  0  0  0
  184.2750  177.9340  141.7830 N   0  0  0  0  0  2  0  0  0  0  0  0
  184.5700  178.7200  145.8470 C   0  0  0  0  0  2  0  0  0  0  0  0
  185.9730  179.2190  146.1460 C   0  0  0  0  0  2  0  0  0  0  0  0
  187.1070  177.2910  146.8850 O   0  0  0  0  0  0  0  0  0  0  0  0
  186.6100  178.3670  147.1880 C   0  0  0  0  0  3  0  0  0  0  0  0
  181.9640  178.6900  141.5990 C   0  0  0  0  0  2  0  0  0  0  0  0
  180.8880  179.0760  142.4940 N   0  0  0  0  0  2  0  0  0  0  0  0
  179.6590  179.0110  141.7220 C   0  0  0  0  0  2  0  0  0  0  0  0
  179.4310  180.3220  141.0530 C   0  0  0  0  0  0  0  0  0  0  0  0
  179.1770  180.3730  139.6880 O   0  0  0  0  0  0  0  0  0  0  0  0
  179.4190  181.3790  141.7340 O   0  0  0  0  0  1  0  0  0  0  0  0
  1 22  1  0  0  0  0
  2  1  1  1  0  0  0
  2  3  1  0  0  0  0
  3  4  1  0  0  0  0
  4  5  1  0  0  0  0
  5  6  1  0  0  0  0
  6  7  1  0  0  0  0
  7  9  1  0  0  0  0
  8  7  2  0  0  0  0
  9 10  1  0  0  0  0
 10 11  1  0  0  0  0
 12 20  1  6  0  0  0
 12  2  1  0  0  0  0
 13 17  1  0  0  0  0
 13 12  1  1  0  0  0
 14 15  1  0  0  0  0
 15 17  1  0  0  0  0
 16 18  1  1  0  0  0
 16 14  1  0  0  0  0
 16 13  1  0  0  0  0
 19 18  1  0  0  0  0
 21 20  1  0  0  0  0
 22 23  1  0  0  0  0
 23 24  1  6  0  0  0
 25 23  1  6  0  0  0
 25 27  1  0  0  0  0
 26 31  1  1  0  0  0
 27 26  1  0  0  0  0
 28 26  1  0  0  0  0
 29 35  1  6  0  0  0
 29 28  1  0  0  0  0
 30 29  1  0  0  0  0
 30 25  1  0  0  0  0
 31 32  1  0  0  0  0
 32 34  1  0  0  0  0
 33 34  2  0  0  0  0
 35 36  1  0  0  0  0
 37 36  1  0  0  0  0
 38 37  1  0  0  0  0
 38 40  1  0  0  0  0
 39 38  2  0  0  0  0
M  END
>  <MODEL>
3

>  <REMARK>
 VINA RESULT:      -6.4      2.874      8.235
  Name = 
  22 active torsions:
  status: ('A' for Active; 'I' for Inactive)
    1  A    between atoms: C_1  and  C_11
    2  A    between atoms: C_2  and  C_14
    3  A    between atoms: C_2  and  C_19
    4  A    between atoms: C_2  and  C_25
    5  A    between atoms: C_3  and  C_26
    6  A    between atoms: C_4  and  C_15
    7  A    between atoms: C_4  and  N_38
    8  A    between atoms: C_5  and  C_26
    9  A    between atoms: C_5  and  C_36
   10  A    between atoms: C_7  and  C_9
   11  A    between atoms: C_7  and  C_14
   12  A    between atoms: C_8  and  C_28
   13  A    between atoms: C_9  and  C_11
   14  A    between atoms: S_10  and  C_29
   15  A    between atoms: S_10  and  C_35
   16  A    between atoms: C_12  and  C_21
   17  A    between atoms: C_12  and  C_35
   18  A    between atoms: C_14  and  C_21
   19  A    between atoms: C_16  and  C_32
   20  A    between atoms: C_27  and  C_29
   21  A    between atoms: C_27  and  C_33
   22  A    between atoms: C_28  and  N_38
                            x       y       z     vdW  Elec       q    Type
                         _______ _______ _______ _____ _____    ______ ____

>  <TORSDO>
F 22

$$$$
=
 OpenBabel11062413093D

 40 41  0  0  1  0  0  0  0  0999 V2000
  185.0600  179.1570  140.2900 C   0  0  0  0  0  2  0  0  0  0  0  0
  184.1030  178.1060  140.8640 C   0  0  1  0  0  3  0  0  0  0  0  0
  184.3440  177.9970  142.3640 C   0  0  0  0  0  2  0  0  0  0  0  0
  185.2610  179.1090  142.8570 C   0  0  0  0  0  2  0  0  0  0  0  0
  184.6790  179.8110  144.0730 C   0  0  0  0  0  2  0  0  0  0  0  0
  184.0290  178.5950  145.2580 S   0  0  0  0  0  0  0  0  0  0  0  0
  185.4460  178.7170  146.3450 C   0  0  0  0  0  0  0  0  0  0  0  0
  185.4750  179.5830  147.2000 O   0  0  0  0  0  0  0  0  0  0  0  0
  186.6140  177.7980  146.1620 C   0  0  0  0  0  2  0  0  0  0  0  0
  187.6800  178.0200  147.2220 C   0  0  0  0  0  2  0  0  0  0  0  0
  188.5770  176.8030  147.3510 C   0  0  0  0  0  1  0  0  0  0  0  0
  182.6290  178.3960  140.5120 C   0  0  1  0  0  3  0  0  0  0  0  0
  181.9470  177.3640  139.5830 C   0  0  1  0  0  3  0  0  0  0  0  0
  182.9390  176.9730  137.3960 C   0  0  0  0  0  2  0  0  0  0  0  0
  183.0720  175.6960  138.1900 C   0  0  0  0  0  2  0  0  0  0  0  0
  181.8520  177.7370  138.1060 C   0  0  2  0  0  3  0  0  0  0  0  0
  182.6230  176.0050  139.6100 C   0  0  0  0  0  2  0  0  0  0  0  0
  181.7740  179.2210  137.7520 C   0  0  0  0  0  2  0  0  0  0  0  0
  180.4680  179.7030  137.8500 O   0  0  0  0  0  1  0  0  0  0  0  0
  181.7740  178.7040  141.7470 C   0  0  0  0  0  2  0  0  0  0  0  0
  180.5540  179.5140  141.3480 C   0  0  0  0  0  1  0  0  0  0  0  0
  185.5530  178.7900  138.8970 C   0  0  0  0  0  2  0  0  0  0  0  0
  186.7090  177.8050  139.0100 C   0  0  1  0  0  3  0  0  0  0  0  0
  187.2130  177.5270  137.7410 O   0  0  0  0  0  1  0  0  0  0  0  0
  187.8220  178.3440  139.9080 C   0  0  1  0  0  3  0  0  0  0  0  0
  189.0780  177.8430  141.7680 C   0  0  2  0  0  3  0  0  0  0  0  0
  187.8570  177.6090  141.1260 O   0  0  0  0  0  0  0  0  0  0  0  0
  190.2040  177.1410  141.0040 C   0  0  0  0  0  2  0  0  0  0  0  0
  189.8670  177.1160  139.5190 C   0  0  1  0  0  3  0  0  0  0  0  0
  189.1010  178.3120  139.1670 N   0  0  0  0  0  2  0  0  0  0  0  0
  189.0020  177.3450  143.2010 C   0  0  0  0  0  2  0  0  0  0  0  0
  189.7120  178.3080  144.1370 C   0  0  0  0  0  2  0  0  0  0  0  0
  192.0480  178.0410  144.0010 O   0  0  0  0  0  0  0  0  0  0  0  0
  191.0130  177.7320  144.5750 C   0  0  0  0  0  3  0  0  0  0  0  0
  191.1440  177.0610  138.7100 C   0  0  0  0  0  2  0  0  0  0  0  0
  191.4270  175.6870  138.3350 N   0  0  0  0  0  2  0  0  0  0  0  0
  192.1030  175.7360  137.0510 C   0  0  0  0  0  2  0  0  0  0  0  0
  193.5510  176.0100  137.2690 C   0  0  0  0  0  0  0  0  0  0  0  0
  194.2570  176.7940  136.3650 O   0  0  0  0  0  0  0  0  0  0  0  0
  194.1230  175.5700  138.3000 O   0  0  0  0  0  1  0  0  0  0  0  0
  2  1  1  1  0  0  0
  2  3  1  0  0  0  0
  3  4  1  0  0  0  0
  4  5  1  0  0  0  0
  5  6  1  0  0  0  0
  6  7  1  0  0  0  0
  7  8  2  0  0  0  0
  9  7  1  0  0  0  0
  9 10  1  0  0  0  0
 10 11  1  0  0  0  0
 12  2  1  0  0  0  0
 12 20  1  1  0  0  0
 13 17  1  0  0  0  0
 13 12  1  1  0  0  0
 14 16  1  0  0  0  0
 14 15  1  0  0  0  0
 15 17  1  0  0  0  0
 16 18  1  1  0  0  0
 16 13  1  0  0  0  0
 18 19  1  0  0  0  0
 21 20  1  0  0  0  0
 22 23  1  0  0  0  0
 22  1  1  0  0  0  0
 23 24  1  6  0  0  0
 25 23  1  6  0  0  0
 25 27  1  0  0  0  0
 26 31  1  1  0  0  0
 27 26  1  0  0  0  0
 28 26  1  0  0  0  0
 29 35  1  6  0  0  0
 29 28  1  0  0  0  0
 30 29  1  0  0  0  0
 30 25  1  0  0  0  0
 31 32  1  0  0  0  0
 32 34  1  0  0  0  0
 33 34  2  0  0  0  0
 36 35  1  0  0  0  0
 37 38  1  0  0  0  0
 37 36  1  0  0  0  0
 38 40  1  0  0  0  0
 39 38  2  0  0  0  0
M  END
>  <MODEL>
4

>  <REMARK>
 VINA RESULT:      -6.3      2.256      7.678
  Name = 
  22 active torsions:
  status: ('A' for Active; 'I' for Inactive)
    1  A    between atoms: C_1  and  C_11
    2  A    between atoms: C_2  and  C_14
    3  A    between atoms: C_2  and  C_19
    4  A    between atoms: C_2  and  C_25
    5  A    between atoms: C_3  and  C_26
    6  A    between atoms: C_4  and  C_15
    7  A    between atoms: C_4  and  N_38
    8  A    between atoms: C_5  and  C_26
    9  A    between atoms: C_5  and  C_36
   10  A    between atoms: C_7  and  C_9
   11  A    between atoms: C_7  and  C_14
   12  A    between atoms: C_8  and  C_28
   13  A    between atoms: C_9  and  C_11
   14  A    between atoms: S_10  and  C_29
   15  A    between atoms: S_10  and  C_35
   16  A    between atoms: C_12  and  C_21
   17  A    between atoms: C_12  and  C_35
   18  A    between atoms: C_14  and  C_21
   19  A    between atoms: C_16  and  C_32
   20  A    between atoms: C_27  and  C_29
   21  A    between atoms: C_27  and  C_33
   22  A    between atoms: C_28  and  N_38
                            x       y       z     vdW  Elec       q    Type
                         _______ _______ _______ _____ _____    ______ ____

>  <TORSDO>
F 22

$$$$
=
 OpenBabel11062413093D

 40 41  0  0  1  0  0  0  0  0999 V2000
  188.5780  178.2130  139.9790 C   0  0  0  0  0  2  0  0  0  0  0  0
  189.9290  177.5480  139.6930 C   0  0  1  0  0  3  0  0  0  0  0  0
  190.4220  176.8800  140.9700 C   0  0  0  0  0  2  0  0  0  0  0  0
  191.6870  177.5500  141.4910 C   0  0  0  0  0  2  0  0  0  0  0  0
  191.6470  177.7180  143.0010 C   0  0  0  0  0  2  0  0  0  0  0  0
  191.0800  176.1830  143.7950 S   0  0  0  0  0  0  0  0  0  0  0  0
  191.0340  176.9060  145.4330 C   0  0  0  0  0  0  0  0  0  0  0  0
  192.0240  176.8600  146.1380 O   0  0  0  0  0  0  0  0  0  0  0  0
  189.7650  177.5080  145.9510 C   0  0  0  0  0  2  0  0  0  0  0  0
  189.4440  177.0280  147.3570 C   0  0  0  0  0  2  0  0  0  0  0  0
  188.9570  178.1750  148.2230 C   0  0  0  0  0  1  0  0  0  0  0  0
  189.8690  176.5790  138.4940 C   0  0  1  0  0  3  0  0  0  0  0  0
  189.4980  177.2180  137.1340 C   0  0  1  0  0  3  0  0  0  0  0  0
  187.1390  177.5600  136.6440 C   0  0  0  0  0  2  0  0  0  0  0  0
  187.7840  178.9220  136.7490 C   0  0  0  0  0  2  0  0  0  0  0  0
  188.2950  176.6230  136.4080 C   0  0  2  0  0  3  0  0  0  0  0  0
  189.2080  178.7040  137.2390 C   0  0  0  0  0  2  0  0  0  0  0  0
  187.9820  175.1470  136.6450 C   0  0  0  0  0  2  0  0  0  0  0  0
  187.5920  174.5110  135.4660 O   0  0  0  0  0  1  0  0  0  0  0  0
  191.1120  175.6900  138.3860 C   0  0  0  0  0  2  0  0  0  0  0  0
  192.2340  176.4430  137.6940 C   0  0  0  0  0  1  0  0  0  0  0  0
  188.4150  178.5820  141.4460 C   0  0  0  0  0  2  0  0  0  0  0  0
  187.0500  178.1210  141.9380 C   0  0  1  0  0  3  0  0  0  0  0  0
  187.0640  178.0130  143.3280 O   0  0  0  0  0  1  0  0  0  0  0  0
  185.9410  179.0760  141.5000 C   0  0  1  0  0  3  0  0  0  0  0  0
  184.0090  179.1930  140.2580 C   0  0  2  0  0  3  0  0  0  0  0  0
  185.2230  178.5130  140.4090 O   0  0  0  0  0  0  0  0  0  0  0  0
  183.0690  178.8280  141.4100 C   0  0  0  0  0  2  0  0  0  0  0  0
  183.8890  178.5530  142.6630 C   0  0  1  0  0  3  0  0  0  0  0  0
  185.0860  179.3940  142.6640 N   0  0  0  0  0  2  0  0  0  0  0  0
  183.3900  178.8360  138.9180 C   0  0  0  0  0  2  0  0  0  0  0  0
  182.6640  177.5060  139.0050 C   0  0  0  0  0  2  0  0  0  0  0  0
  182.5510  177.7170  136.6620 O   0  0  0  0  0  0  0  0  0  0  0  0
  182.3020  177.0280  137.6420 C   0  0  0  0  0  3  0  0  0  0  0  0
  183.0520  178.8400  143.8900 C   0  0  0  0  0  2  0  0  0  0  0  0
  183.8740  179.4700  144.9080 N   0  0  0  0  0  2  0  0  0  0  0  0
  183.9450  178.5390  146.0200 C   0  0  0  0  0  2  0  0  0  0  0  0
  185.3310  178.5300  146.5650 C   0  0  0  0  0  0  0  0  0  0  0  0
  186.1710  177.4520  146.3180 O   0  0  0  0  0  0  0  0  0  0  0  0
  185.7580  179.5240  147.2070 O   0  0  0  0  0  1  0  0  0  0  0  0
  1 22  1  0  0  0  0
  2  1  1  1  0  0  0
  2  3  1  0  0  0  0
  3  4  1  0  0  0  0
  4  5  1  0  0  0  0
  5  6  1  0  0  0  0
  6  7  1  0  0  0  0
  7  9  1  0  0  0  0
  7  8  2  0  0  0  0
  9 10  1  0  0  0  0
 10 11  1  0  0  0  0
 12 20  1  6  0  0  0
 12  2  1  0  0  0  0
 13 17  1  0  0  0  0
 13 12  1  1  0  0  0
 14 15  1  0  0  0  0
 15 17  1  0  0  0  0
 16 14  1  0  0  0  0
 16 18  1  1  0  0  0
 16 13  1  0  0  0  0
 19 18  1  0  0  0  0
 21 20  1  0  0  0  0
 22 23  1  0  0  0  0
 23 24  1  1  0  0  0
 25 23  1  1  0  0  0
 25 30  1  0  0  0  0
 26 31  1  6  0  0  0
 26 27  1  0  0  0  0
 26 28  1  0  0  0  0
 27 25  1  0  0  0  0
 28 29  1  0  0  0  0
 29 30  1  0  0  0  0
 29 35  1  1  0  0  0
 31 32  1  0  0  0  0
 33 34  2  0  0  0  0
 34 32  1  0  0  0  0
 35 36  1  0  0  0  0
 36 37  1  0  0  0  0
 37 38  1  0  0  0  0
 38 40  1  0  0  0  0
 39 38  2  0  0  0  0
M  END
>  <MODEL>
5

>  <REMARK>
 VINA RESULT:      -6.2      2.714      8.130
  Name = 
  22 active torsions:
  status: ('A' for Active; 'I' for Inactive)
    1  A    between atoms: C_1  and  C_11
    2  A    between atoms: C_2  and  C_14
    3  A    between atoms: C_2  and  C_19
    4  A    between atoms: C_2  and  C_25
    5  A    between atoms: C_3  and  C_26
    6  A    between atoms: C_4  and  C_15
    7  A    between atoms: C_4  and  N_38
    8  A    between atoms: C_5  and  C_26
    9  A    between atoms: C_5  and  C_36
   10  A    between atoms: C_7  and  C_9
   11  A    between atoms: C_7  and  C_14
   12  A    between atoms: C_8  and  C_28
   13  A    between atoms: C_9  and  C_11
   14  A    between atoms: S_10  and  C_29
   15  A    between atoms: S_10  and  C_35
   16  A    between atoms: C_12  and  C_21
   17  A    between atoms: C_12  and  C_35
   18  A    between atoms: C_14  and  C_21
   19  A    between atoms: C_16  and  C_32
   20  A    between atoms: C_27  and  C_29
   21  A    between atoms: C_27  and  C_33
   22  A    between atoms: C_28  and  N_38
                            x       y       z     vdW  Elec       q    Type
                         _______ _______ _______ _____ _____    ______ ____

>  <TORSDO>
F 22

$$$$
=
 OpenBabel11062413093D

 40 41  0  0  1  0  0  0  0  0999 V2000
  188.1830  176.7330  142.9540 C   0  0  0  0  0  2  0  0  0  0  0  0
  187.9240  177.6280  144.1710 C   0  0  1  0  0  3  0  0  0  0  0  0
  186.4450  177.5430  144.5290 C   0  0  0  0  0  2  0  0  0  0  0  0
  185.6650  178.7050  143.9270 C   0  0  0  0  0  2  0  0  0  0  0  0
  184.5290  178.2130  143.0460 C   0  0  0  0  0  2  0  0  0  0  0  0
  184.7230  178.8410  141.3500 S   0  0  0  0  0  0  0  0  0  0  0  0
  183.1910  178.1130  140.7760 C   0  0  0  0  0  0  0  0  0  0  0  0
  183.1900  176.9730  140.3490 O   0  0  0  0  0  0  0  0  0  0  0  0
  181.9330  178.9240  140.7660 C   0  0  0  0  0  2  0  0  0  0  0  0
  180.7230  178.0970  141.1700 C   0  0  0  0  0  2  0  0  0  0  0  0
  179.4560  178.9290  141.1200 C   0  0  0  0  0  1  0  0  0  0  0  0
  188.8490  177.2900  145.3600 C   0  0  1  0  0  3  0  0  0  0  0  0
  190.1720  178.0890  145.4260 C   0  0  1  0  0  3  0  0  0  0  0  0
  191.9330  177.5050  143.8510 C   0  0  0  0  0  2  0  0  0  0  0  0
  191.4740  178.9040  143.5210 C   0  0  0  0  0  2  0  0  0  0  0  0
  191.4600  177.2870  145.2650 C   0  0  2  0  0  3  0  0  0  0  0  0
  190.2530  179.1880  144.3820 C   0  0  0  0  0  2  0  0  0  0  0  0
  191.4500  175.8290  145.7210 C   0  0  0  0  0  2  0  0  0  0  0  0
  192.2510  175.6370  146.8460 O   0  0  0  0  0  1  0  0  0  0  0  0
  188.1130  177.2930  146.7040 C   0  0  0  0  0  2  0  0  0  0  0  0
  189.0030  177.8790  147.7850 C   0  0  0  0  0  1  0  0  0  0  0  0
  188.3160  177.5350  141.6670 C   0  0  0  0  0  2  0  0  0  0  0  0
  189.7350  177.3990  141.1290 C   0  0  1  0  0  3  0  0  0  0  0  0
  190.1340  176.0650  141.1920 O   0  0  0  0  0  1  0  0  0  0  0  0
  189.8430  177.9100  139.6930 C   0  0  1  0  0  3  0  0  0  0  0  0
  190.0900  177.2140  137.5150 C   0  0  2  0  0  3  0  0  0  0  0  0
  190.3410  176.8770  138.8500 O   0  0  0  0  0  0  0  0  0  0  0  0
  188.5920  177.0910  137.2260 C   0  0  0  0  0  2  0  0  0  0  0  0
  187.8050  177.4280  138.4860 C   0  0  1  0  0  3  0  0  0  0  0  0
  188.5290  178.4350  139.2640 N   0  0  0  0  0  2  0  0  0  0  0  0
  190.8960  176.3060  136.6020 C   0  0  0  0  0  2  0  0  0  0  0  0
  190.9950  174.9110  137.1940 C   0  0  0  0  0  2  0  0  0  0  0  0
  189.4440  173.7290  135.8730 O   0  0  0  0  0  0  0  0  0  0  0  0
  190.6190  173.8930  136.1750 C   0  0  0  0  0  3  0  0  0  0  0  0
  186.4380  177.9510  138.1060 C   0  0  0  0  0  2  0  0  0  0  0  0
  185.9630  177.2620  136.9190 N   0  0  0  0  0  2  0  0  0  0  0  0
  184.7030  176.6350  137.2760 C   0  0  0  0  0  2  0  0  0  0  0  0
  183.5960  177.3030  136.5380 C   0  0  0  0  0  0  0  0  0  0  0  0
  183.5910  177.3160  135.1490 O   0  0  0  0  0  0  0  0  0  0  0  0
  182.6380  177.8140  137.1740 O   0  0  0  0  0  1  0  0  0  0  0  0
  2  1  1  6  0  0  0
  2  3  1  0  0  0  0
  2 12  1  0  0  0  0
  4  3  1  0  0  0  0
  5  4  1  0  0  0  0
  6  5  1  0  0  0  0
  7  6  1  0  0  0  0
  8  7  2  0  0  0  0
  9  7  1  0  0  0  0
  9 10  1  0  0  0  0
 11 10  1  0  0  0  0
 12 20  1  1  0  0  0
 13 12  1  6  0  0  0
 14 16  1  0  0  0  0
 15 14  1  0  0  0  0
 15 17  1  0  0  0  0
 16 13  1  0  0  0  0
 16 18  1  6  0  0  0
 17 13  1  0  0  0  0
 18 19  1  0  0  0  0
 20 21  1  0  0  0  0
 22  1  1  0  0  0  0
 23 24  1  6  0  0  0
 23 22  1  0  0  0  0
 25 23  1  1  0  0  0
 26 31  1  6  0  0  0
 26 27  1  0  0  0  0
 27 25  1  0  0  0  0
 28 26  1  0  0  0  0
 28 29  1  0  0  0  0
 29 35  1  6  0  0  0
 29 30  1  0  0  0  0
 30 25  1  0  0  0  0
 31 32  1  0  0  0  0
 33 34  2  0  0  0  0
 34 32  1  0  0  0  0
 36 37  1  0  0  0  0
 36 35  1  0  0  0  0
 38 40  1  0  0  0  0
 38 37  1  0  0  0  0
 39 38  2  0  0  0  0
M  END
>  <MODEL>
6

>  <REMARK>
 VINA RESULT:      -6.0      1.794      2.069
  Name = 
  22 active torsions:
  status: ('A' for Active; 'I' for Inactive)
    1  A    between atoms: C_1  and  C_11
    2  A    between atoms: C_2  and  C_14
    3  A    between atoms: C_2  and  C_19
    4  A    between atoms: C_2  and  C_25
    5  A    between atoms: C_3  and  C_26
    6  A    between atoms: C_4  and  C_15
    7  A    between atoms: C_4  and  N_38
    8  A    between atoms: C_5  and  C_26
    9  A    between atoms: C_5  and  C_36
   10  A    between atoms: C_7  and  C_9
   11  A    between atoms: C_7  and  C_14
   12  A    between atoms: C_8  and  C_28
   13  A    between atoms: C_9  and  C_11
   14  A    between atoms: S_10  and  C_29
   15  A    between atoms: S_10  and  C_35
   16  A    between atoms: C_12  and  C_21
   17  A    between atoms: C_12  and  C_35
   18  A    between atoms: C_14  and  C_21
   19  A    between atoms: C_16  and  C_32
   20  A    between atoms: C_27  and  C_29
   21  A    between atoms: C_27  and  C_33
   22  A    between atoms: C_28  and  N_38
                            x       y       z     vdW  Elec       q    Type
                         _______ _______ _______ _____ _____    ______ ____

>  <TORSDO>
F 22

$$$$
=
 OpenBabel11062413093D

 40 41  0  0  1  0  0  0  0  0999 V2000
  187.9610  176.7380  142.8610 C   0  0  0  0  0  2  0  0  0  0  0  0
  187.2170  177.7290  143.7640 C   0  0  1  0  0  3  0  0  0  0  0  0
  185.7370  177.6960  143.4040 C   0  0  0  0  0  2  0  0  0  0  0  0
  185.2350  179.0780  143.0070 C   0  0  0  0  0  2  0  0  0  0  0  0
  184.3110  179.0090  141.8020 C   0  0  0  0  0  2  0  0  0  0  0  0
  185.2690  178.7310  140.2820 S   0  0  0  0  0  0  0  0  0  0  0  0
  184.0050  179.4200  139.2170 C   0  0  0  0  0  0  0  0  0  0  0  0
  184.0570  180.5950  138.9040 O   0  0  0  0  0  0  0  0  0  0  0  0
  182.8590  178.5690  138.7650 C   0  0  0  0  0  2  0  0  0  0  0  0
  183.0880  177.0990  139.0800 C   0  0  0  0  0  2  0  0  0  0  0  0
  181.8510  176.4810  139.7050 C   0  0  0  0  0  1  0  0  0  0  0  0
  187.4750  177.4710  145.2630 C   0  0  1  0  0  3  0  0  0  0  0  0
  188.7110  178.1840  145.8620 C   0  0  1  0  0  3  0  0  0  0  0  0
  190.5720  176.8040  146.6040 C   0  0  0  0  0  2  0  0  0  0  0  0
  191.0570  177.6300  145.4360 C   0  0  0  0  0  2  0  0  0  0  0  0
  189.3460  177.5330  147.0870 C   0  0  2  0  0  3  0  0  0  0  0  0
  189.8430  178.3450  144.8630 C   0  0  0  0  0  2  0  0  0  0  0  0
  188.4380  176.7210  148.0090 C   0  0  0  0  0  2  0  0  0  0  0  0
  187.9360  177.5010  149.0500 O   0  0  0  0  0  1  0  0  0  0  0  0
  186.2250  177.6770  146.1250 C   0  0  0  0  0  2  0  0  0  0  0  0
  186.1030  179.1350  146.5280 C   0  0  0  0  0  1  0  0  0  0  0  0
  188.5490  177.4100  141.6290 C   0  0  0  0  0  2  0  0  0  0  0  0
  190.0450  177.1330  141.5640 C   0  0  1  0  0  3  0  0  0  0  0  0
  190.3010  175.8340  142.0020 O   0  0  0  0  0  1  0  0  0  0  0  0
  190.5930  177.3250  140.1500 C   0  0  1  0  0  3  0  0  0  0  0  0
  191.1360  176.1890  138.2260 C   0  0  2  0  0  3  0  0  0  0  0  0
  190.9930  176.0700  139.6130 O   0  0  0  0  0  0  0  0  0  0  0  0
  189.7560  176.3260  137.5770 C   0  0  0  0  0  2  0  0  0  0  0  0
  188.8190  177.0550  138.5320 C   0  0  1  0  0  3  0  0  0  0  0  0
  189.5790  178.0190  139.3280 N   0  0  0  0  0  2  0  0  0  0  0  0
  191.8720  174.9750  137.6860 C   0  0  0  0  0  2  0  0  0  0  0  0
  191.2900  174.5520  136.3480 C   0  0  0  0  0  2  0  0  0  0  0  0
  190.9820  172.5140  135.2090 O   0  0  0  0  0  0  0  0  0  0  0  0
  191.5750  173.1130  136.0960 C   0  0  0  0  0  3  0  0  0  0  0  0
  187.7440  177.7670  137.7410 C   0  0  0  0  0  2  0  0  0  0  0  0
  187.3090  176.9280  136.6390 N   0  0  0  0  0  2  0  0  0  0  0  0
  186.0250  176.3680  137.0210 C   0  0  0  0  0  2  0  0  0  0  0  0
  185.1290  176.3360  135.8320 C   0  0  0  0  0  0  0  0  0  0  0  0
  185.2440  175.3140  134.8990 O   0  0  0  0  0  0  0  0  0  0  0  0
  184.2340  177.2100  135.6980 O   0  0  0  0  0  1  0  0  0  0  0  0
  2  1  1  6  0  0  0
  2 12  1  0  0  0  0
  3  2  1  0  0  0  0
  4  3  1  0  0  0  0
  5  4  1  0  0  0  0
  6  5  1  0  0  0  0
  7  6  1  0  0  0  0
  8  7  2  0  0  0  0
  9 10  1  0  0  0  0
  9  7  1  0  0  0  0
 10 11  1  0  0  0  0
 12 20  1  1  0  0  0
 13 12  1  6  0  0  0
 13 16  1  0  0  0  0
 14 16  1  0  0  0  0
 15 14  1  0  0  0  0
 16 18  1  6  0  0  0
 17 15  1  0  0  0  0
 17 13  1  0  0  0  0
 18 19  1  0  0  0  0
 20 21  1  0  0  0  0
 22  1  1  0  0  0  0
 23 22  1  0  0  0  0
 23 24  1  6  0  0  0
 25 23  1  1  0  0  0
 26 31  1  6  0  0  0
 26 27  1  0  0  0  0
 27 25  1  0  0  0  0
 28 26  1  0  0  0  0
 28 29  1  0  0  0  0
 29 35  1  6  0  0  0
 29 30  1  0  0  0  0
 30 25  1  0  0  0  0
 32 31  1  0  0  0  0
 33 34  2  0  0  0  0
 34 32  1  0  0  0  0
 36 37  1  0  0  0  0
 36 35  1  0  0  0  0
 38 37  1  0  0  0  0
 39 38  2  0  0  0  0
 40 38  1  0  0  0  0
M  END
>  <MODEL>
7

>  <REMARK>
 VINA RESULT:      -6.0      2.234      3.143
  Name = 
  22 active torsions:
  status: ('A' for Active; 'I' for Inactive)
    1  A    between atoms: C_1  and  C_11
    2  A    between atoms: C_2  and  C_14
    3  A    between atoms: C_2  and  C_19
    4  A    between atoms: C_2  and  C_25
    5  A    between atoms: C_3  and  C_26
    6  A    between atoms: C_4  and  C_15
    7  A    between atoms: C_4  and  N_38
    8  A    between atoms: C_5  and  C_26
    9  A    between atoms: C_5  and  C_36
   10  A    between atoms: C_7  and  C_9
   11  A    between atoms: C_7  and  C_14
   12  A    between atoms: C_8  and  C_28
   13  A    between atoms: C_9  and  C_11
   14  A    between atoms: S_10  and  C_29
   15  A    between atoms: S_10  and  C_35
   16  A    between atoms: C_12  and  C_21
   17  A    between atoms: C_12  and  C_35
   18  A    between atoms: C_14  and  C_21
   19  A    between atoms: C_16  and  C_32
   20  A    between atoms: C_27  and  C_29
   21  A    between atoms: C_27  and  C_33
   22  A    between atoms: C_28  and  N_38
                            x       y       z     vdW  Elec       q    Type
                         _______ _______ _______ _____ _____    ______ ____

>  <TORSDO>
F 22

$$$$
=
 OpenBabel11062413093D

 40 41  0  0  1  0  0  0  0  0999 V2000
  184.5650  179.2570  142.1840 C   0  0  0  0  0  2  0  0  0  0  0  0
  183.2670  178.4700  142.3960 C   0  0  1  0  0  3  0  0  0  0  0  0
  182.9310  178.4800  143.8820 C   0  0  0  0  0  2  0  0  0  0  0  0
  184.0410  179.1360  144.6940 C   0  0  0  0  0  2  0  0  0  0  0  0
  184.7180  178.1370  145.6180 C   0  0  0  0  0  2  0  0  0  0  0  0
  185.6750  179.0050  146.8990 S   0  0  0  0  0  0  0  0  0  0  0  0
  187.1120  177.9540  146.7070 C   0  0  0  0  0  0  0  0  0  0  0  0
  187.2360  177.2830  145.6990 O   0  0  0  0  0  0  0  0  0  0  0  0
  188.1220  177.8570  147.8080 C   0  0  0  0  0  2  0  0  0  0  0  0
  188.9500  176.5860  147.7050 C   0  0  0  0  0  2  0  0  0  0  0  0
  190.3830  176.9020  147.3200 C   0  0  0  0  0  1  0  0  0  0  0  0
  182.1110  178.9900  141.5160 C   0  0  1  0  0  3  0  0  0  0  0  0
  181.6880  178.0640  140.3510 C   0  0  1  0  0  3  0  0  0  0  0  0
  183.0380  178.0940  138.3270 C   0  0  0  0  0  2  0  0  0  0  0  0
  183.1770  176.7230  138.9460 C   0  0  0  0  0  2  0  0  0  0  0  0
  181.7830  178.6510  138.9460 C   0  0  2  0  0  3  0  0  0  0  0  0
  182.4870  176.7740  140.3010 C   0  0  0  0  0  2  0  0  0  0  0  0
  181.6090  180.1610  138.7950 C   0  0  0  0  0  2  0  0  0  0  0  0
  180.2770  180.5430  138.9540 O   0  0  0  0  0  1  0  0  0  0  0  0
  180.9060  179.4600  142.3380 C   0  0  0  0  0  2  0  0  0  0  0  0
  179.6910  178.6070  142.0180 C   0  0  0  0  0  1  0  0  0  0  0  0
  185.2810  178.8550  140.9020 C   0  0  0  0  0  2  0  0  0  0  0  0
  186.7650  178.6660  141.1870 C   0  0  1  0  0  3  0  0  0  0  0  0
  186.9310  178.0810  142.4410 O   0  0  0  0  0  1  0  0  0  0  0  0
  187.4390  177.8090  140.1160 C   0  0  1  0  0  3  0  0  0  0  0  0
  188.7020  177.9310  138.1980 C   0  0  2  0  0  3  0  0  0  0  0  0
  187.7750  178.6150  138.9940 O   0  0  0  0  0  0  0  0  0  0  0  0
  190.0570  177.8900  138.9090 C   0  0  0  0  0  2  0  0  0  0  0  0
  189.8370  177.8460  140.4150 C   0  0  1  0  0  3  0  0  0  0  0  0
  188.6030  177.1170  140.7110 N   0  0  0  0  0  2  0  0  0  0  0  0
  188.8160  178.6180  136.8480 C   0  0  0  0  0  2  0  0  0  0  0  0
  188.7370  177.5980  135.7260 C   0  0  0  0  0  2  0  0  0  0  0  0
  186.4640  178.2140  135.6880 O   0  0  0  0  0  0  0  0  0  0  0  0
  187.3410  177.5020  135.2170 C   0  0  0  0  0  3  0  0  0  0  0  0
  191.0130  177.1660  141.0790 C   0  0  0  0  0  2  0  0  0  0  0  0
  190.6730  176.8250  142.4490 N   0  0  0  0  0  2  0  0  0  0  0  0
  191.6730  177.4530  143.2950 C   0  0  0  0  0  2  0  0  0  0  0  0
  191.0480  178.5830  144.0370 C   0  0  0  0  0  0  0  0  0  0  0  0
  191.7560  179.7600  144.2400 O   0  0  0  0  0  0  0  0  0  0  0  0
  189.8580  178.4890  144.4350 O   0  0  0  0  0  1  0  0  0  0  0  0
  2  1  1  1  0  0  0
  2  3  1  0  0  0  0
  3  4  1  0  0  0  0
  4  5  1  0  0  0  0
  5  6  1  0  0  0  0
  7  6  1  0  0  0  0
  7  9  1  0  0  0  0
  8  7  2  0  0  0  0
 10  9  1  0  0  0  0
 11 10  1  0  0  0  0
 12 20  1  1  0  0  0
 12  2  1  0  0  0  0
 13 12  1  1  0  0  0
 14 16  1  0  0  0  0
 14 15  1  0  0  0  0
 15 17  1  0  0  0  0
 16 18  1  1  0  0  0
 16 13  1  0  0  0  0
 17 13  1  0  0  0  0
 18 19  1  0  0  0  0
 21 20  1  0  0  0  0
 22 23  1  0  0  0  0
 22  1  1  0  0  0  0
 23 24  1  1  0  0  0
 25 30  1  0  0  0  0
 25 23  1  1  0  0  0
 26 31  1  6  0  0  0
 26 28  1  0  0  0  0
 26 27  1  0  0  0  0
 27 25  1  0  0  0  0
 28 29  1  0  0  0  0
 29 30  1  0  0  0  0
 29 35  1  1  0  0  0
 32 31  1  0  0  0  0
 34 33  2  0  0  0  0
 34 32  1  0  0  0  0
 35 36  1  0  0  0  0
 36 37  1  0  0  0  0
 37 38  1  0  0  0  0
 38 39  2  0  0  0  0
 38 40  1  0  0  0  0
M  END
>  <MODEL>
8

>  <REMARK>
 VINA RESULT:      -5.8      2.699      7.561
  Name = 
  22 active torsions:
  status: ('A' for Active; 'I' for Inactive)
    1  A    between atoms: C_1  and  C_11
    2  A    between atoms: C_2  and  C_14
    3  A    between atoms: C_2  and  C_19
    4  A    between atoms: C_2  and  C_25
    5  A    between atoms: C_3  and  C_26
    6  A    between atoms: C_4  and  C_15
    7  A    between atoms: C_4  and  N_38
    8  A    between atoms: C_5  and  C_26
    9  A    between atoms: C_5  and  C_36
   10  A    between atoms: C_7  and  C_9
   11  A    between atoms: C_7  and  C_14
   12  A    between atoms: C_8  and  C_28
   13  A    between atoms: C_9  and  C_11
   14  A    between atoms: S_10  and  C_29
   15  A    between atoms: S_10  and  C_35
   16  A    between atoms: C_12  and  C_21
   17  A    between atoms: C_12  and  C_35
   18  A    between atoms: C_14  and  C_21
   19  A    between atoms: C_16  and  C_32
   20  A    between atoms: C_27  and  C_29
   21  A    between atoms: C_27  and  C_33
   22  A    between atoms: C_28  and  N_38
                            x       y       z     vdW  Elec       q    Type
                         _______ _______ _______ _____ _____    ______ ____

>  <TORSDO>
F 22

$$$$
=
 OpenBabel11062413093D

 40 41  0  0  1  0  0  0  0  0999 V2000
  182.8300  177.2250  140.4340 C   0  0  0  0  0  2  0  0  0  0  0  0
  181.5450  177.6790  139.7310 C   0  0  1  0  0  3  0  0  0  0  0  0
  181.6260  177.2760  138.2650 C   0  0  0  0  0  2  0  0  0  0  0  0
  182.5060  178.2370  137.4760 C   0  0  0  0  0  2  0  0  0  0  0  0
  183.3460  177.5020  136.4440 C   0  0  0  0  0  2  0  0  0  0  0  0
  184.2820  176.1560  137.2290 S   0  0  0  0  0  0  0  0  0  0  0  0
  185.8600  176.9830  137.0430 C   0  0  0  0  0  0  0  0  0  0  0  0
  186.0040  178.1080  137.4840 O   0  0  0  0  0  0  0  0  0  0  0  0
  186.9720  176.3170  136.2960 C   0  0  0  0  0  2  0  0  0  0  0  0
  188.3340  176.8460  136.7180 C   0  0  0  0  0  2  0  0  0  0  0  0
  189.2250  177.0710  135.5110 C   0  0  0  0  0  1  0  0  0  0  0  0
  180.2730  177.1540  140.4290 C   0  0  1  0  0  3  0  0  0  0  0  0
  179.2520  178.2330  140.8610 C   0  0  1  0  0  3  0  0  0  0  0  0
  180.0880  180.1650  142.0810 C   0  0  0  0  0  2  0  0  0  0  0  0
  179.5670  180.6580  140.7510 C   0  0  0  0  0  2  0  0  0  0  0  0
  179.4320  178.8200  142.2570 C   0  0  2  0  0  3  0  0  0  0  0  0
  179.2220  179.4280  139.9250 C   0  0  0  0  0  2  0  0  0  0  0  0
  180.0700  177.9320  143.3240 C   0  0  0  0  0  2  0  0  0  0  0  0
  181.0200  178.6280  144.0700 O   0  0  0  0  0  1  0  0  0  0  0  0
  179.6030  176.0110  139.6590 C   0  0  0  0  0  2  0  0  0  0  0  0
  179.9900  174.6740  140.2650 C   0  0  0  0  0  1  0  0  0  0  0  0
  183.4300  178.3210  141.3030 C   0  0  0  0  0  2  0  0  0  0  0  0
  184.8210  178.6710  140.7890 C   0  0  1  0  0  3  0  0  0  0  0  0
  184.7390  179.7520  139.9140 O   0  0  0  0  0  1  0  0  0  0  0  0
  185.7790  178.9970  141.9340 C   0  0  1  0  0  3  0  0  0  0  0  0
  186.6750  178.1420  143.8720 C   0  0  2  0  0  3  0  0  0  0  0  0
  185.5760  178.0840  143.0070 O   0  0  0  0  0  0  0  0  0  0  0  0
  187.8910  177.4970  143.2030 C   0  0  0  0  0  2  0  0  0  0  0  0
  187.8160  177.7190  141.6980 C   0  0  1  0  0  3  0  0  0  0  0  0
  187.1660  179.0000  141.4200 N   0  0  0  0  0  2  0  0  0  0  0  0
  186.3330  177.4380  145.1740 C   0  0  0  0  0  2  0  0  0  0  0  0
  186.8640  178.2250  146.3590 C   0  0  0  0  0  2  0  0  0  0  0  0
  188.7800  178.0970  147.7230 O   0  0  0  0  0  0  0  0  0  0  0  0
  188.0060  177.5030  146.9850 C   0  0  0  0  0  3  0  0  0  0  0  0
  189.2120  177.7080  141.1150 C   0  0  0  0  0  2  0  0  0  0  0  0
  190.0480  176.7860  141.8610 N   0  0  0  0  0  2  0  0  0  0  0  0
  191.3000  177.4750  142.1210 C   0  0  0  0  0  2  0  0  0  0  0  0
  191.6210  177.3790  143.5720 C   0  0  0  0  0  0  0  0  0  0  0  0
  191.8060  178.5320  144.3240 O   0  0  0  0  0  1  0  0  0  0  0  0
  191.6740  176.2510  144.1290 O   0  0  0  0  0  0  0  0  0  0  0  0
  1 22  1  0  0  0  0
  2  3  1  6  0  0  0
  2 12  1  0  0  0  0
  2  1  1  0  0  0  0
  4  3  1  0  0  0  0
  5  6  1  0  0  0  0
  5  4  1  0  0  0  0
  7  6  1  0  0  0  0
  7  8  2  0  0  0  0
  9 10  1  0  0  0  0
  9  7  1  0  0  0  0
 11 10  1  0  0  0  0
 12 20  1  6  0  0  0
 13 12  1  6  0  0  0
 13 16  1  0  0  0  0
 14 16  1  0  0  0  0
 15 14  1  0  0  0  0
 16 18  1  1  0  0  0
 17 15  1  0  0  0  0
 17 13  1  0  0  0  0
 18 19  1  0  0  0  0
 20 21  1  0  0  0  0
 23 24  1  6  0  0  0
 23 22  1  0  0  0  0
 25 23  1  6  0  0  0
 25 27  1  0  0  0  0
 26 31  1  1  0  0  0
 27 26  1  0  0  0  0
 28 26  1  0  0  0  0
 29 35  1  1  0  0  0
 29 28  1  0  0  0  0
 30 29  1  0  0  0  0
 30 25  1  0  0  0  0
 31 32  1  0  0  0  0
 32 34  1  0  0  0  0
 34 33  2  0  0  0  0
 35 36  1  0  0  0  0
 36 37  1  0  0  0  0
 37 38  1  0  0  0  0
 38 40  2  0  0  0  0
 38 39  1  0  0  0  0
M  END
>  <MODEL>
9

>  <REMARK>
 VINA RESULT:      -5.7      2.854      9.133
  Name = 
  22 active torsions:
  status: ('A' for Active; 'I' for Inactive)
    1  A    between atoms: C_1  and  C_11
    2  A    between atoms: C_2  and  C_14
    3  A    between atoms: C_2  and  C_19
    4  A    between atoms: C_2  and  C_25
    5  A    between atoms: C_3  and  C_26
    6  A    between atoms: C_4  and  C_15
    7  A    between atoms: C_4  and  N_38
    8  A    between atoms: C_5  and  C_26
    9  A    between atoms: C_5  and  C_36
   10  A    between atoms: C_7  and  C_9
   11  A    between atoms: C_7  and  C_14
   12  A    between atoms: C_8  and  C_28
   13  A    between atoms: C_9  and  C_11
   14  A    between atoms: S_10  and  C_29
   15  A    between atoms: S_10  and  C_35
   16  A    between atoms: C_12  and  C_21
   17  A    between atoms: C_12  and  C_35
   18  A    between atoms: C_14  and  C_21
   19  A    between atoms: C_16  and  C_32
   20  A    between atoms: C_27  and  C_29
   21  A    between atoms: C_27  and  C_33
   22  A    between atoms: C_28  and  N_38
                            x       y       z     vdW  Elec       q    Type
                         _______ _______ _______ _____ _____    ______ ____

>  <TORSDO>
F 22

$$$$
