=
 OpenBabel11062415443D

 27 31  0  0  1  0  0  0  0  0999 V2000
  183.2000  177.1910  138.7530 C   0  0  1  0  0  3  0  0  0  0  0  0
  183.7930  177.8790  139.9610 C   0  0  0  0  0  2  0  0  0  0  0  0
  189.0380  177.2930  137.9030 C   0  0  0  0  0  3  0  0  0  0  0  0
  184.9330  178.3540  137.8950 C   0  0  1  0  0  3  0  0  0  0  0  0
  184.1190  177.2260  137.6870 O   0  0  0  0  0  0  0  0  0  0  0  0
  186.3690  177.3790  135.3640 N   0  0  0  0  0  1  0  0  0  0  0  0
  186.5460  178.8520  141.3240 C   0  0  0  0  0  0  0  0  0  0  0  0
  184.4700  180.1180  139.4820 O   0  0  0  0  0  1  0  0  0  0  0  0
  184.8380  178.7750  139.3740 C   0  0  1  0  0  0  0  0  0  0  0  0
  187.7430  178.7090  141.6930 O   0  0  0  0  0  0  0  0  0  0  0  0
  188.3640  177.1820  136.7180 N   0  0  0  0  0  0  0  0  0  0  0  0
  186.1620  178.5440  139.9700 N   0  0  0  0  0  0  0  0  0  0  0  0
  188.3780  177.7480  139.0550 C   0  0  0  0  0  3  0  0  0  0  0  0
  186.3660  177.9620  137.7490 C   0  0  0  0  0  0  0  0  0  0  0  0
  187.0410  177.5070  136.6130 C   0  0  0  0  0  0  0  0  0  0  0  0
  187.0230  178.0770  138.9400 C   0  0  0  0  0  0  0  0  0  0  0  0
  182.3480  175.0960  137.8950 O   0  0  0  0  0  0  0  0  0  0  0  0
  181.2870  175.5300  138.7130 C   0  0  0  0  0  2  0  0  0  0  0  0
  182.7080  175.7730  139.0840 C   0  0  2  0  0  3  0  0  0  0  0  0
  185.5400  179.3290  142.3250 C   0  0  0  0  0  2  0  0  0  0  0  0
  185.0330  178.1860  143.2020 C   0  0  0  0  0  2  0  0  0  0  0  0
  186.8970  178.2190  147.0700 C   0  0  0  0  0  3  0  0  0  0  0  0
  187.4730  177.4990  146.0200 C   0  0  0  0  0  3  0  0  0  0  0  0
  185.7120  178.9290  146.8620 C   0  0  0  0  0  3  0  0  0  0  0  0
  186.8610  177.4860  144.7620 C   0  0  0  0  0  3  0  0  0  0  0  0
  185.1010  178.9190  145.6020 C   0  0  0  0  0  3  0  0  0  0  0  0
  185.6730  178.1950  144.5520 C   0  0  0  0  0  0  0  0  0  0  0  0
  1 19  1  0  0  0  0
  1  2  1  1  0  0  0
  3 13  1  0  0  0  0
  4  5  1  1  0  0  0
  4  9  1  0  0  0  0
  5  1  1  0  0  0  0
  6 15  1  0  0  0  0
  7 10  2  0  0  0  0
  7 20  1  0  0  0  0
  9  8  1  1  0  0  0
  9  2  1  0  0  0  0
  9 12  1  0  0  0  0
 11  3  2  0  0  0  0
 12  7  1  0  0  0  0
 14  4  1  0  0  0  0
 14 16  1  0  0  0  0
 15 11  1  0  0  0  0
 15 14  2  0  0  0  0
 16 13  2  0  0  0  0
 16 12  1  0  0  0  0
 17 18  1  0  0  0  0
 17 19  1  0  0  0  0
 19 18  1  1  0  0  0
 20 21  1  0  0  0  0
 21 27  1  0  0  0  0
 23 22  2  0  0  0  0
 24 22  1  0  0  0  0
 25 23  1  0  0  0  0
 26 24  2  0  0  0  0
 27 25  2  0  0  0  0
 27 26  1  0  0  0  0
M  END
>  <MODEL>
1

>  <REMARK>
 VINA RESULT:      -8.2      0.000      0.000
  Name = 
  4 active torsions:
  status: ('A' for Active; 'I' for Inactive)
    1  A    between atoms: C_1  and  C_26
    2  A    between atoms: C_10  and  C_16
    3  A    between atoms: C_16  and  C_21
    4  A    between atoms: C_21  and  C_27
                            x       y       z     vdW  Elec       q    Type
                         _______ _______ _______ _____ _____    ______ ____

>  <TORSDO>
F 4

$$$$
=
 OpenBabel11062415443D

 27 31  0  0  1  0  0  0  0  0999 V2000
  186.5280  177.8680  142.4280 C   0  0  1  0  0  3  0  0  0  0  0  0
  187.9620  177.3980  142.3680 C   0  0  0  0  0  2  0  0  0  0  0  0
  188.7070  178.4990  147.8740 C   0  0  0  0  0  3  0  0  0  0  0  0
  186.8380  176.8780  144.4320 C   0  0  1  0  0  3  0  0  0  0  0  0
  186.0770  177.8530  143.7620 O   0  0  0  0  0  0  0  0  0  0  0  0
  185.2320  177.7790  146.8860 N   0  0  0  0  0  1  0  0  0  0  0  0
  190.6450  176.9670  144.1010 C   0  0  0  0  0  0  0  0  0  0  0  0
  188.2470  175.2390  143.3470 O   0  0  0  0  0  1  0  0  0  0  0  0
  188.1220  176.6020  143.6250 C   0  0  1  0  0  0  0  0  0  0  0  0
  191.5300  177.3130  144.9290 O   0  0  0  0  0  0  0  0  0  0  0  0
  187.3440  178.3920  147.8930 N   0  0  0  0  0  0  0  0  0  0  0  0
  189.2490  177.0770  144.4400 N   0  0  0  0  0  0  0  0  0  0  0  0
  189.4370  178.0780  146.7520 C   0  0  0  0  0  3  0  0  0  0  0  0
  187.3600  177.4500  145.7080 C   0  0  0  0  0  0  0  0  0  0  0  0
  186.6520  177.8760  146.8340 C   0  0  0  0  0  0  0  0  0  0  0  0
  188.7210  177.5520  145.6720 C   0  0  0  0  0  0  0  0  0  0  0  0
  185.0560  179.7470  142.0330 O   0  0  0  0  0  0  0  0  0  0  0  0
  185.2450  179.2450  140.7310 C   0  0  0  0  0  2  0  0  0  0  0  0
  186.3390  179.2300  141.7390 C   0  0  2  0  0  3  0  0  0  0  0  0
  191.0780  176.4590  142.7600 C   0  0  0  0  0  2  0  0  0  0  0  0
  191.6400  177.5800  141.8880 C   0  0  0  0  0  2  0  0  0  0  0  0
  191.8440  176.4290  137.7570 C   0  0  0  0  0  3  0  0  0  0  0  0
  193.0090  176.7730  138.4480 C   0  0  0  0  0  3  0  0  0  0  0  0
  190.6100  176.4600  138.4110 C   0  0  0  0  0  3  0  0  0  0  0  0
  192.9390  177.1530  139.7920 C   0  0  0  0  0  3  0  0  0  0  0  0
  190.5400  176.8370  139.7580 C   0  0  0  0  0  3  0  0  0  0  0  0
  191.7050  177.1860  140.4490 C   0  0  0  0  0  0  0  0  0  0  0  0
  1  2  1  1  0  0  0
  1  5  1  0  0  0  0
  2  9  1  0  0  0  0
  3 11  1  0  0  0  0
  4  5  1  6  0  0  0
  4 14  1  0  0  0  0
  7 12  1  0  0  0  0
  7 10  2  0  0  0  0
  9  8  1  6  0  0  0
  9  4  1  0  0  0  0
  9 12  1  0  0  0  0
 12 16  1  0  0  0  0
 13  3  2  0  0  0  0
 14 15  1  0  0  0  0
 15  6  1  0  0  0  0
 15 11  2  0  0  0  0
 16 14  2  0  0  0  0
 16 13  1  0  0  0  0
 18 17  1  0  0  0  0
 19 18  1  6  0  0  0
 19 17  1  0  0  0  0
 19  1  1  0  0  0  0
 20  7  1  0  0  0  0
 21 20  1  0  0  0  0
 22 24  2  0  0  0  0
 22 23  1  0  0  0  0
 23 25  2  0  0  0  0
 24 26  1  0  0  0  0
 25 27  1  0  0  0  0
 26 27  2  0  0  0  0
 27 21  1  0  0  0  0
M  END
>  <MODEL>
2

>  <REMARK>
 VINA RESULT:      -7.7      3.915      7.787
  Name = 
  4 active torsions:
  status: ('A' for Active; 'I' for Inactive)
    1  A    between atoms: C_1  and  C_26
    2  A    between atoms: C_10  and  C_16
    3  A    between atoms: C_16  and  C_21
    4  A    between atoms: C_21  and  C_27
                            x       y       z     vdW  Elec       q    Type
                         _______ _______ _______ _____ _____    ______ ____

>  <TORSDO>
F 4

$$$$
=
 OpenBabel11062415443D

 27 31  0  0  1  0  0  0  0  0999 V2000
  186.6040  177.8860  137.6040 C   0  0  1  0  0  3  0  0  0  0  0  0
  187.2160  177.8940  138.9860 C   0  0  0  0  0  2  0  0  0  0  0  0
  191.6790  174.9060  137.1850 C   0  0  0  0  0  3  0  0  0  0  0  0
  188.8170  178.0340  137.1940 C   0  0  1  0  0  3  0  0  0  0  0  0
  187.5950  177.6050  136.6460 O   0  0  0  0  0  0  0  0  0  0  0  0
  190.0030  176.9180  134.5940 N   0  0  0  0  0  1  0  0  0  0  0  0
  189.7420  176.9140  140.7300 C   0  0  0  0  0  0  0  0  0  0  0  0
  189.0360  179.4300  139.1560 O   0  0  0  0  0  1  0  0  0  0  0  0
  188.6660  178.1550  138.7230 C   0  0  1  0  0  0  0  0  0  0  0  0
  190.5910  176.0690  141.1240 O   0  0  0  0  0  0  0  0  0  0  0  0
  191.2930  175.4070  135.9720 N   0  0  0  0  0  0  0  0  0  0  0  0
  189.5290  177.1270  139.3200 N   0  0  0  0  0  0  0  0  0  0  0  0
  191.1390  175.4260  138.3720 C   0  0  0  0  0  3  0  0  0  0  0  0
  189.8340  176.9520  137.0420 C   0  0  0  0  0  0  0  0  0  0  0  0
  190.3830  176.4190  135.8720 C   0  0  0  0  0  0  0  0  0  0  0  0
  190.2060  176.4620  138.2610 C   0  0  0  0  0  0  0  0  0  0  0  0
  184.6650  177.1960  136.3330 O   0  0  0  0  0  0  0  0  0  0  0  0
  184.0820  177.6470  137.5320 C   0  0  0  0  0  2  0  0  0  0  0  0
  185.3920  176.9420  137.5180 C   0  0  2  0  0  3  0  0  0  0  0  0
  188.9560  177.6710  141.7540 C   0  0  0  0  0  2  0  0  0  0  0  0
  188.5030  176.7670  142.8980 C   0  0  0  0  0  2  0  0  0  0  0  0
  185.4020  178.5930  145.2400 C   0  0  0  0  0  3  0  0  0  0  0  0
  186.5650  178.1260  145.8580 C   0  0  0  0  0  3  0  0  0  0  0  0
  185.2470  178.4650  143.8570 C   0  0  0  0  0  3  0  0  0  0  0  0
  187.5720  177.5270  145.0930 C   0  0  0  0  0  3  0  0  0  0  0  0
  186.2550  177.8680  143.0910 C   0  0  0  0  0  3  0  0  0  0  0  0
  187.4180  177.3960  143.7090 C   0  0  0  0  0  0  0  0  0  0  0  0
  1  2  1  1  0  0  0
  3 13  1  0  0  0  0
  4  5  1  6  0  0  0
  4  9  1  0  0  0  0
  5  1  1  0  0  0  0
  6 15  1  0  0  0  0
  7 10  2  0  0  0  0
  7 20  1  0  0  0  0
  9  2  1  0  0  0  0
  9  8  1  1  0  0  0
  9 12  1  0  0  0  0
 11  3  2  0  0  0  0
 12  7  1  0  0  0  0
 14  4  1  0  0  0  0
 14 16  1  0  0  0  0
 15 11  1  0  0  0  0
 15 14  2  0  0  0  0
 16 13  2  0  0  0  0
 16 12  1  0  0  0  0
 17 19  1  0  0  0  0
 17 18  1  0  0  0  0
 19 18  1  1  0  0  0
 19  1  1  0  0  0  0
 20 21  1  0  0  0  0
 21 27  1  0  0  0  0
 22 23  1  0  0  0  0
 24 22  2  0  0  0  0
 25 23  2  0  0  0  0
 26 27  2  0  0  0  0
 26 24  1  0  0  0  0
 27 25  1  0  0  0  0
M  END
>  <MODEL>
3

>  <REMARK>
 VINA RESULT:      -7.5      2.198      3.464
  Name = 
  4 active torsions:
  status: ('A' for Active; 'I' for Inactive)
    1  A    between atoms: C_1  and  C_26
    2  A    between atoms: C_10  and  C_16
    3  A    between atoms: C_16  and  C_21
    4  A    between atoms: C_21  and  C_27
                            x       y       z     vdW  Elec       q    Type
                         _______ _______ _______ _____ _____    ______ ____

>  <TORSDO>
F 4

$$$$
=
 OpenBabel11062415443D

 27 31  0  0  1  0  0  0  0  0999 V2000
  191.6520  176.9830  146.0540 C   0  0  1  0  0  3  0  0  0  0  0  0
  191.6160  177.1090  144.5490 C   0  0  0  0  0  2  0  0  0  0  0  0
  185.9520  177.1290  144.5380 C   0  0  0  0  0  3  0  0  0  0  0  0
  189.8610  178.3040  145.6830 C   0  0  1  0  0  3  0  0  0  0  0  0
  190.4180  177.3910  146.5960 O   0  0  0  0  0  0  0  0  0  0  0  0
  187.5070  178.3380  147.6500 N   0  0  0  0  0  1  0  0  0  0  0  0
  189.6690  177.3310  141.9910 C   0  0  0  0  0  0  0  0  0  0  0  0
  191.0560  179.3190  143.8420 O   0  0  0  0  0  1  0  0  0  0  0  0
  190.5320  178.1120  144.3090 C   0  0  1  0  0  0  0  0  0  0  0  0
  188.6810  176.9960  141.2840 O   0  0  0  0  0  0  0  0  0  0  0  0
  186.1330  177.5270  145.8330 N   0  0  0  0  0  0  0  0  0  0  0  0
  189.4990  177.6010  143.3960 N   0  0  0  0  0  0  0  0  0  0  0  0
  187.0300  177.1230  143.6400 C   0  0  0  0  0  3  0  0  0  0  0  0
  188.4390  177.9330  145.4160 C   0  0  0  0  0  0  0  0  0  0  0  0
  187.3530  177.9300  146.2950 C   0  0  0  0  0  0  0  0  0  0  0  0
  188.2770  177.5360  144.1200 C   0  0  0  0  0  0  0  0  0  0  0  0
  191.4350  175.2410  147.7190 O   0  0  0  0  0  0  0  0  0  0  0  0
  192.8050  175.5530  147.8000 C   0  0  0  0  0  2  0  0  0  0  0  0
  192.0750  175.5740  146.5040 C   0  0  2  0  0  3  0  0  0  0  0  0
  191.0150  177.4220  141.3420 C   0  0  0  0  0  2  0  0  0  0  0  0
  190.9040  177.7920  139.8650 C   0  0  0  0  0  2  0  0  0  0  0  0
  192.6850  174.7980  137.3530 C   0  0  0  0  0  3  0  0  0  0  0  0
  193.4830  175.7760  137.9540 C   0  0  0  0  0  3  0  0  0  0  0  0
  191.3050  174.7950  137.5690 C   0  0  0  0  0  3  0  0  0  0  0  0
  192.9000  176.7530  138.7670 C   0  0  0  0  0  3  0  0  0  0  0  0
  190.7210  175.7710  138.3860 C   0  0  0  0  0  3  0  0  0  0  0  0
  191.5180  176.7520  138.9840 C   0  0  0  0  0  0  0  0  0  0  0  0
  1  2  1  6  0  0  0
  1 19  1  0  0  0  0
  1  5  1  0  0  0  0
  3 11  1  0  0  0  0
  4 14  1  6  0  0  0
  4  5  1  0  0  0  0
  7 12  1  0  0  0  0
  9  8  1  6  0  0  0
  9  2  1  0  0  0  0
  9  4  1  0  0  0  0
 10  7  2  0  0  0  0
 11 15  2  0  0  0  0
 12 16  1  0  0  0  0
 12  9  1  0  0  0  0
 13 16  1  0  0  0  0
 13  3  2  0  0  0  0
 14 15  1  0  0  0  0
 15  6  1  0  0  0  0
 16 14  2  0  0  0  0
 17 18  1  0  0  0  0
 19 17  1  0  0  0  0
 19 18  1  1  0  0  0
 20  7  1  0  0  0  0
 21 20  1  0  0  0  0
 22 24  2  0  0  0  0
 22 23  1  0  0  0  0
 23 25  2  0  0  0  0
 24 26  1  0  0  0  0
 25 27  1  0  0  0  0
 26 27  2  0  0  0  0
 27 21  1  0  0  0  0
M  END
>  <MODEL>
4

>  <REMARK>
 VINA RESULT:      -7.4      4.718      9.241
  Name = 
  4 active torsions:
  status: ('A' for Active; 'I' for Inactive)
    1  A    between atoms: C_1  and  C_26
    2  A    between atoms: C_10  and  C_16
    3  A    between atoms: C_16  and  C_21
    4  A    between atoms: C_21  and  C_27
                            x       y       z     vdW  Elec       q    Type
                         _______ _______ _______ _____ _____    ______ ____

>  <TORSDO>
F 4

$$$$
=
 OpenBabel11062415443D

 27 31  0  0  1  0  0  0  0  0999 V2000
  185.7280  178.6500  140.7580 C   0  0  1  0  0  3  0  0  0  0  0  0
  186.5260  178.0060  141.8670 C   0  0  0  0  0  2  0  0  0  0  0  0
  190.6330  176.5350  138.2530 C   0  0  0  0  0  3  0  0  0  0  0  0
  187.8650  179.0970  140.1900 C   0  0  1  0  0  3  0  0  0  0  0  0
  186.5710  178.9330  139.6660 O   0  0  0  0  0  0  0  0  0  0  0  0
  188.6560  179.4770  137.2500 N   0  0  0  0  0  1  0  0  0  0  0  0
  189.2500  176.4220  142.5450 C   0  0  0  0  0  0  0  0  0  0  0  0
  188.3830  179.3470  142.5390 O   0  0  0  0  0  1  0  0  0  0  0  0
  187.9310  178.4370  141.5810 C   0  0  1  0  0  0  0  0  0  0  0  0
  190.1270  175.5390  142.3520 O   0  0  0  0  0  0  0  0  0  0  0  0
  190.0940  177.5500  137.5130 N   0  0  0  0  0  0  0  0  0  0  0  0
  188.8470  177.2940  141.4690 N   0  0  0  0  0  0  0  0  0  0  0  0
  190.2740  176.3710  139.6000 C   0  0  0  0  0  3  0  0  0  0  0  0
  188.8290  178.2850  139.3890 C   0  0  0  0  0  0  0  0  0  0  0  0
  189.1990  178.4310  138.0490 C   0  0  0  0  0  0  0  0  0  0  0  0
  189.3570  177.2760  140.1420 C   0  0  0  0  0  0  0  0  0  0  0  0
  184.1440  178.0600  139.0270 O   0  0  0  0  0  0  0  0  0  0  0  0
  183.3080  178.6280  140.0060 C   0  0  0  0  0  2  0  0  0  0  0  0
  184.4970  177.8120  140.3730 C   0  0  2  0  0  3  0  0  0  0  0  0
  188.6290  176.5320  143.9030 C   0  0  0  0  0  2  0  0  0  0  0  0
  189.5420  177.2680  144.8810 C   0  0  0  0  0  2  0  0  0  0  0  0
  187.5210  178.2980  148.5270 C   0  0  0  0  0  3  0  0  0  0  0  0
  188.8730  177.9460  148.5500 C   0  0  0  0  0  3  0  0  0  0  0  0
  186.8240  178.3130  147.3150 C   0  0  0  0  0  3  0  0  0  0  0  0
  189.5280  177.6060  147.3610 C   0  0  0  0  0  3  0  0  0  0  0  0
  187.4800  177.9760  146.1260 C   0  0  0  0  0  3  0  0  0  0  0  0
  188.8320  177.6200  146.1480 C   0  0  0  0  0  0  0  0  0  0  0  0
  1  2  1  1  0  0  0
  3 13  1  0  0  0  0
  4 14  1  6  0  0  0
  4  9  1  0  0  0  0
  5  4  1  0  0  0  0
  5  1  1  0  0  0  0
  6 15  1  0  0  0  0
  7 20  1  0  0  0  0
  9  2  1  0  0  0  0
  9  8  1  1  0  0  0
 10  7  2  0  0  0  0
 11 15  1  0  0  0  0
 11  3  2  0  0  0  0
 12  9  1  0  0  0  0
 12  7  1  0  0  0  0
 13 16  2  0  0  0  0
 14 16  1  0  0  0  0
 15 14  2  0  0  0  0
 16 12  1  0  0  0  0
 17 18  1  0  0  0  0
 17 19  1  0  0  0  0
 19 18  1  1  0  0  0
 19  1  1  0  0  0  0
 20 21  1  0  0  0  0
 21 27  1  0  0  0  0
 22 23  1  0  0  0  0
 24 22  2  0  0  0  0
 25 23  2  0  0  0  0
 26 27  2  0  0  0  0
 26 24  1  0  0  0  0
 27 25  1  0  0  0  0
M  END
>  <MODEL>
5

>  <REMARK>
 VINA RESULT:      -7.1      2.220      3.391
  Name = 
  4 active torsions:
  status: ('A' for Active; 'I' for Inactive)
    1  A    between atoms: C_1  and  C_26
    2  A    between atoms: C_10  and  C_16
    3  A    between atoms: C_16  and  C_21
    4  A    between atoms: C_21  and  C_27
                            x       y       z     vdW  Elec       q    Type
                         _______ _______ _______ _____ _____    ______ ____

>  <TORSDO>
F 4

$$$$
=
 OpenBabel11062415443D

 27 31  0  0  1  0  0  0  0  0999 V2000
  186.1240  178.6260  140.0690 C   0  0  1  0  0  3  0  0  0  0  0  0
  187.5880  178.3720  140.3430 C   0  0  0  0  0  2  0  0  0  0  0  0
  187.8580  174.5460  136.1750 C   0  0  0  0  0  3  0  0  0  0  0  0
  186.9860  178.2650  138.0150 C   0  0  1  0  0  3  0  0  0  0  0  0
  185.8010  178.1920  138.7690 O   0  0  0  0  0  0  0  0  0  0  0  0
  185.2450  177.1100  135.7690 N   0  0  0  0  0  1  0  0  0  0  0  0
  190.1630  176.6680  139.4210 C   0  0  0  0  0  0  0  0  0  0  0  0
  189.0020  179.4000  138.7180 O   0  0  0  0  0  1  0  0  0  0  0  0
  188.1910  178.2930  138.9760 C   0  0  1  0  0  0  0  0  0  0  0  0
  190.7650  175.6130  139.0840 O   0  0  0  0  0  0  0  0  0  0  0  0
  186.7570  175.2230  135.7300 N   0  0  0  0  0  0  0  0  0  0  0  0
  188.9310  177.0410  138.7710 N   0  0  0  0  0  0  0  0  0  0  0  0
  188.6560  175.0830  137.1980 C   0  0  0  0  0  3  0  0  0  0  0  0
  187.1800  176.9830  137.2730 C   0  0  0  0  0  0  0  0  0  0  0  0
  186.3980  176.4310  136.2550 C   0  0  0  0  0  0  0  0  0  0  0  0
  188.2820  176.3200  137.7310 C   0  0  0  0  0  0  0  0  0  0  0  0
  183.9130  178.5420  141.0470 O   0  0  0  0  0  0  0  0  0  0  0  0
  184.6900  179.0130  142.1220 C   0  0  0  0  0  2  0  0  0  0  0  0
  185.2210  178.0160  141.1540 C   0  0  2  0  0  3  0  0  0  0  0  0
  190.7450  177.5080  140.5150 C   0  0  0  0  0  2  0  0  0  0  0  0
  191.0560  176.6760  141.7580 C   0  0  0  0  0  2  0  0  0  0  0  0
  188.4790  177.6560  145.0490 C   0  0  0  0  0  3  0  0  0  0  0  0
  188.0540  176.7540  144.0700 C   0  0  0  0  0  3  0  0  0  0  0  0
  189.7440  178.2420  144.9560 C   0  0  0  0  0  3  0  0  0  0  0  0
  188.8940  176.4400  142.9960 C   0  0  0  0  0  3  0  0  0  0  0  0
  190.5860  177.9250  143.8840 C   0  0  0  0  0  3  0  0  0  0  0  0
  190.1610  177.0260  142.9010 C   0  0  0  0  0  0  0  0  0  0  0  0
  1  2  1  1  0  0  0
  1 19  1  0  0  0  0
  3 13  1  0  0  0  0
  4 14  1  6  0  0  0
  4  5  1  0  0  0  0
  4  9  1  0  0  0  0
  5  1  1  0  0  0  0
  6 15  1  0  0  0  0
  7 20  1  0  0  0  0
  9  8  1  6  0  0  0
  9  2  1  0  0  0  0
 10  7  2  0  0  0  0
 11  3  2  0  0  0  0
 11 15  1  0  0  0  0
 12  9  1  0  0  0  0
 12  7  1  0  0  0  0
 13 16  2  0  0  0  0
 14 16  1  0  0  0  0
 15 14  2  0  0  0  0
 16 12  1  0  0  0  0
 17 19  1  0  0  0  0
 17 18  1  0  0  0  0
 19 18  1  1  0  0  0
 20 21  1  0  0  0  0
 21 27  1  0  0  0  0
 23 22  2  0  0  0  0
 24 22  1  0  0  0  0
 25 23  1  0  0  0  0
 26 24  2  0  0  0  0
 27 25  2  0  0  0  0
 27 26  1  0  0  0  0
M  END
>  <MODEL>
6

>  <REMARK>
 VINA RESULT:      -7.1      2.559      3.931
  Name = 
  4 active torsions:
  status: ('A' for Active; 'I' for Inactive)
    1  A    between atoms: C_1  and  C_26
    2  A    between atoms: C_10  and  C_16
    3  A    between atoms: C_16  and  C_21
    4  A    between atoms: C_21  and  C_27
                            x       y       z     vdW  Elec       q    Type
                         _______ _______ _______ _____ _____    ______ ____

>  <TORSDO>
F 4

$$$$
=
 OpenBabel11062415443D

 27 31  0  0  1  0  0  0  0  0999 V2000
  191.3520  177.1350  143.5530 C   0  0  1  0  0  3  0  0  0  0  0  0
  189.8720  177.0830  143.8520 C   0  0  0  0  0  2  0  0  0  0  0  0
  188.5980  178.6300  138.5540 C   0  0  0  0  0  3  0  0  0  0  0  0
  190.4560  176.3760  141.6270 C   0  0  1  0  0  3  0  0  0  0  0  0
  191.5590  177.0630  142.1630 O   0  0  0  0  0  0  0  0  0  0  0  0
  191.8360  176.9160  138.9400 N   0  0  0  0  0  1  0  0  0  0  0  0
  186.9350  177.5100  142.5950 C   0  0  0  0  0  0  0  0  0  0  0  0
  188.8320  175.1440  142.9270 O   0  0  0  0  0  1  0  0  0  0  0  0
  189.2930  176.4300  142.6370 C   0  0  1  0  0  0  0  0  0  0  0  0
  186.0650  178.1320  141.9280 O   0  0  0  0  0  0  0  0  0  0  0  0
  189.8530  178.1470  138.3060 N   0  0  0  0  0  0  0  0  0  0  0  0
  188.2320  177.2420  142.0250 N   0  0  0  0  0  0  0  0  0  0  0  0
  187.9680  178.3730  139.7820 C   0  0  0  0  0  3  0  0  0  0  0  0
  189.9200  177.1360  140.4590 C   0  0  0  0  0  0  0  0  0  0  0  0
  190.5300  177.4040  139.2310 C   0  0  0  0  0  0  0  0  0  0  0  0
  188.6680  177.6130  140.7240 C   0  0  0  0  0  0  0  0  0  0  0  0
  191.1690  178.9230  145.1730 O   0  0  0  0  0  0  0  0  0  0  0  0
  191.3110  179.6350  143.9670 C   0  0  0  0  0  2  0  0  0  0  0  0
  192.0280  178.3530  144.2050 C   0  0  2  0  0  3  0  0  0  0  0  0
  186.5970  177.0750  143.9870 C   0  0  0  0  0  2  0  0  0  0  0  0
  186.3240  178.2700  144.8990 C   0  0  0  0  0  2  0  0  0  0  0  0
  188.3210  177.8770  148.6790 C   0  0  0  0  0  3  0  0  0  0  0  0
  188.8100  177.2070  147.5550 C   0  0  0  0  0  3  0  0  0  0  0  0
  187.1790  178.6760  148.5740 C   0  0  0  0  0  3  0  0  0  0  0  0
  188.1540  177.3330  146.3250 C   0  0  0  0  0  3  0  0  0  0  0  0
  186.5250  178.8050  147.3430 C   0  0  0  0  0  3  0  0  0  0  0  0
  187.0110  178.1310  146.2180 C   0  0  0  0  0  0  0  0  0  0  0  0
  1  2  1  6  0  0  0
  1 19  1  0  0  0  0
  3 13  1  0  0  0  0
  4 14  1  6  0  0  0
  4  5  1  0  0  0  0
  4  9  1  0  0  0  0
  5  1  1  0  0  0  0
  6 15  1  0  0  0  0
  7 20  1  0  0  0  0
  9  8  1  1  0  0  0
  9  2  1  0  0  0  0
 10  7  2  0  0  0  0
 11  3  2  0  0  0  0
 11 15  1  0  0  0  0
 12  7  1  0  0  0  0
 12  9  1  0  0  0  0
 13 16  2  0  0  0  0
 14 16  1  0  0  0  0
 15 14  2  0  0  0  0
 16 12  1  0  0  0  0
 18 17  1  0  0  0  0
 19 18  1  6  0  0  0
 19 17  1  0  0  0  0
 20 21  1  0  0  0  0
 21 27  1  0  0  0  0
 23 22  2  0  0  0  0
 24 22  1  0  0  0  0
 25 23  1  0  0  0  0
 26 24  2  0  0  0  0
 27 25  2  0  0  0  0
 27 26  1  0  0  0  0
M  END
>  <MODEL>
7

>  <REMARK>
 VINA RESULT:      -7.0      3.343      5.850
  Name = 
  4 active torsions:
  status: ('A' for Active; 'I' for Inactive)
    1  A    between atoms: C_1  and  C_26
    2  A    between atoms: C_10  and  C_16
    3  A    between atoms: C_16  and  C_21
    4  A    between atoms: C_21  and  C_27
                            x       y       z     vdW  Elec       q    Type
                         _______ _______ _______ _____ _____    ______ ____

>  <TORSDO>
F 4

$$$$
=
 OpenBabel11062415443D

 27 31  0  0  1  0  0  0  0  0999 V2000
  185.7030  178.0540  144.4120 C   0  0  1  0  0  3  0  0  0  0  0  0
  186.7130  177.9580  143.2920 C   0  0  0  0  0  2  0  0  0  0  0  0
  191.0130  177.8940  146.9790 C   0  0  0  0  0  3  0  0  0  0  0  0
  187.3120  176.7270  145.2720 C   0  0  1  0  0  3  0  0  0  0  0  0
  186.2880  177.6260  145.6190 O   0  0  0  0  0  0  0  0  0  0  0  0
  187.8120  176.6350  148.2980 N   0  0  0  0  0  1  0  0  0  0  0  0
  189.8600  177.7720  142.6200 C   0  0  0  0  0  0  0  0  0  0  0  0
  187.6150  175.7580  143.0770 O   0  0  0  0  0  1  0  0  0  0  0  0
  187.6990  176.9510  143.7980 C   0  0  1  0  0  0  0  0  0  0  0  0
  191.0670  178.1130  142.7370 O   0  0  0  0  0  0  0  0  0  0  0  0
  190.0340  177.4710  147.8350 N   0  0  0  0  0  0  0  0  0  0  0  0
  189.0730  177.4730  143.7910 N   0  0  0  0  0  0  0  0  0  0  0  0
  190.7820  177.9260  145.5950 C   0  0  0  0  0  3  0  0  0  0  0  0
  188.5610  177.0920  146.0050 C   0  0  0  0  0  0  0  0  0  0  0  0
  188.8110  177.0690  147.3800 C   0  0  0  0  0  0  0  0  0  0  0  0
  189.5270  177.5130  145.1370 C   0  0  0  0  0  0  0  0  0  0  0  0
  184.0310  179.4580  145.4530 O   0  0  0  0  0  0  0  0  0  0  0  0
  183.6490  179.5040  144.0990 C   0  0  0  0  0  2  0  0  0  0  0  0
  185.0790  179.4560  144.5050 C   0  0  2  0  0  3  0  0  0  0  0  0
  189.2630  177.7040  141.2490 C   0  0  0  0  0  2  0  0  0  0  0  0
  190.2460  177.1200  140.2360 C   0  0  0  0  0  2  0  0  0  0  0  0
  189.1120  178.0420  136.1980 C   0  0  0  0  0  3  0  0  0  0  0  0
  188.8190  178.9370  137.2310 C   0  0  0  0  0  3  0  0  0  0  0  0
  189.7740  176.8440  136.4800 C   0  0  0  0  0  3  0  0  0  0  0  0
  189.1850  178.6320  138.5460 C   0  0  0  0  0  3  0  0  0  0  0  0
  190.1440  176.5400  137.7960 C   0  0  0  0  0  3  0  0  0  0  0  0
  189.8470  177.4320  138.8310 C   0  0  0  0  0  0  0  0  0  0  0  0
  1  2  1  6  0  0  0
  1 19  1  0  0  0  0
  1  5  1  0  0  0  0
  2  9  1  0  0  0  0
  3 11  1  0  0  0  0
  4  5  1  1  0  0  0
  4 14  1  0  0  0  0
  7 10  2  0  0  0  0
  7 12  1  0  0  0  0
  9  8  1  6  0  0  0
  9  4  1  0  0  0  0
 12  9  1  0  0  0  0
 12 16  1  0  0  0  0
 13  3  2  0  0  0  0
 14 15  1  0  0  0  0
 15 11  2  0  0  0  0
 15  6  1  0  0  0  0
 16 13  1  0  0  0  0
 16 14  2  0  0  0  0
 18 17  1  0  0  0  0
 19 18  1  6  0  0  0
 19 17  1  0  0  0  0
 20  7  1  0  0  0  0
 21 20  1  0  0  0  0
 22 24  2  0  0  0  0
 22 23  1  0  0  0  0
 23 25  2  0  0  0  0
 24 26  1  0  0  0  0
 25 27  1  0  0  0  0
 26 27  2  0  0  0  0
 27 21  1  0  0  0  0
M  END
>  <MODEL>
8

>  <REMARK>
 VINA RESULT:      -6.8      4.398      8.018
  Name = 
  4 active torsions:
  status: ('A' for Active; 'I' for Inactive)
    1  A    between atoms: C_1  and  C_26
    2  A    between atoms: C_10  and  C_16
    3  A    between atoms: C_16  and  C_21
    4  A    between atoms: C_21  and  C_27
                            x       y       z     vdW  Elec       q    Type
                         _______ _______ _______ _____ _____    ______ ____

>  <TORSDO>
F 4

$$$$
=
 OpenBabel11062415443D

 27 31  0  0  1  0  0  0  0  0999 V2000
  188.0290  175.9050  136.9180 C   0  0  1  0  0  3  0  0  0  0  0  0
  188.2780  176.5410  138.2650 C   0  0  0  0  0  2  0  0  0  0  0  0
  193.8590  175.6880  137.7990 C   0  0  0  0  0  3  0  0  0  0  0  0
  189.9920  176.9790  136.6330 C   0  0  1  0  0  3  0  0  0  0  0  0
  189.2180  175.9020  136.1650 O   0  0  0  0  0  0  0  0  0  0  0  0
  192.0520  175.9590  134.6000 N   0  0  0  0  0  1  0  0  0  0  0  0
  190.5600  177.3380  140.3960 C   0  0  0  0  0  0  0  0  0  0  0  0
  189.1760  178.7450  138.0690 O   0  0  0  0  0  1  0  0  0  0  0  0
  189.4920  177.3840  138.0330 C   0  0  1  0  0  0  0  0  0  0  0  0
  191.5890  177.1230  141.0920 O   0  0  0  0  0  0  0  0  0  0  0  0
  193.5540  175.6310  136.4680 N   0  0  0  0  0  0  0  0  0  0  0  0
  190.5710  177.0710  138.9800 N   0  0  0  0  0  0  0  0  0  0  0  0
  192.9150  176.1630  138.7240 C   0  0  0  0  0  3  0  0  0  0  0  0
  191.3840  176.5090  136.8980 C   0  0  0  0  0  0  0  0  0  0  0  0
  192.3370  176.0310  135.9940 C   0  0  0  0  0  0  0  0  0  0  0  0
  191.6710  176.5700  138.2310 C   0  0  0  0  0  0  0  0  0  0  0  0
  186.7530  174.1550  135.8390 O   0  0  0  0  0  0  0  0  0  0  0  0
  185.9100  174.5150  136.9070 C   0  0  0  0  0  2  0  0  0  0  0  0
  187.3910  174.5120  137.0490 C   0  0  2  0  0  3  0  0  0  0  0  0
  189.3310  177.8570  141.0760 C   0  0  0  0  0  2  0  0  0  0  0  0
  188.6460  176.7730  141.9050 C   0  0  0  0  0  2  0  0  0  0  0  0
  188.3900  177.8240  146.0600 C   0  0  0  0  0  3  0  0  0  0  0  0
  187.2270  177.6930  145.2970 C   0  0  0  0  0  3  0  0  0  0  0  0
  189.6400  177.6140  145.4700 C   0  0  0  0  0  3  0  0  0  0  0  0
  187.3130  177.3550  143.9420 C   0  0  0  0  0  3  0  0  0  0  0  0
  189.7260  177.2730  144.1150 C   0  0  0  0  0  3  0  0  0  0  0  0
  188.5630  177.1460  143.3490 C   0  0  0  0  0  0  0  0  0  0  0  0
  1 19  1  0  0  0  0
  1  2  1  1  0  0  0
  3 13  1  0  0  0  0
  4  5  1  1  0  0  0
  4 14  1  0  0  0  0
  4  9  1  0  0  0  0
  5  1  1  0  0  0  0
  6 15  1  0  0  0  0
  7 20  1  0  0  0  0
  7 10  2  0  0  0  0
  9  8  1  1  0  0  0
  9  2  1  0  0  0  0
  9 12  1  0  0  0  0
 11  3  2  0  0  0  0
 12  7  1  0  0  0  0
 14 16  1  0  0  0  0
 15 11  1  0  0  0  0
 15 14  2  0  0  0  0
 16 13  2  0  0  0  0
 16 12  1  0  0  0  0
 17 18  1  0  0  0  0
 17 19  1  0  0  0  0
 19 18  1  1  0  0  0
 20 21  1  0  0  0  0
 21 27  1  0  0  0  0
 23 22  2  0  0  0  0
 24 22  1  0  0  0  0
 25 23  1  0  0  0  0
 26 24  2  0  0  0  0
 27 25  2  0  0  0  0
 27 26  1  0  0  0  0
M  END
>  <MODEL>
9

>  <REMARK>
 VINA RESULT:      -6.8      3.484      4.688
  Name = 
  4 active torsions:
  status: ('A' for Active; 'I' for Inactive)
    1  A    between atoms: C_1  and  C_26
    2  A    between atoms: C_10  and  C_16
    3  A    between atoms: C_16  and  C_21
    4  A    between atoms: C_21  and  C_27
                            x       y       z     vdW  Elec       q    Type
                         _______ _______ _______ _____ _____    ______ ____

>  <TORSDO>
F 4

$$$$
