=
 OpenBabel11062415463D

 27 31  0  0  1  0  0  0  0  0999 V2000
  188.9080  177.1550  144.8230 C   0  0  0  0  0  2  0  0  0  0  0  0
  191.1990  176.9020  144.5120 C   0  0  0  0  0  2  0  0  0  0  0  0
  188.7710  177.6510  141.0860 C   0  0  0  0  0  2  0  0  0  0  0  0
  190.4370  176.8460  143.2250 C   0  0  1  0  0  3  0  0  0  0  0  0
  189.2410  177.6070  143.4800 N   0  0  1  0  0  0  0  0  0  0  0  0
  188.2590  177.2070  142.4710 C   0  0  1  0  0  3  0  0  0  0  0  0
  190.1960  177.1150  140.7980 C   0  0  2  0  0  3  0  0  0  0  0  0
  190.1670  176.9400  145.5440 N   0  0  0  0  0  2  0  0  0  0  0  0
  191.1280  177.3940  141.9950 C   0  0  0  0  0  2  0  0  0  0  0  0
  188.9340  174.6760  136.9000 C   0  0  0  0  0  2  0  0  0  0  0  0
  189.8030  175.0690  138.0130 N   0  0  0  0  0  2  0  0  0  0  0  0
  190.7370  177.6890  139.5570 N   0  0  1  0  0  0  0  0  0  0  0  0
  190.6390  176.2190  137.6270 C   0  0  1  0  0  3  0  0  0  0  0  0
  188.4950  177.1230  136.7060 C   0  0  1  0  0  3  0  0  0  0  0  0
  187.3310  178.1820  136.1140 S   0  0  0  0  0  0  0  0  0  0  0  0
  188.0610  175.8240  136.5170 C   0  0  0  0  0  0  0  0  0  0  0  0
  186.8570  175.6940  135.9040 N   0  0  0  0  0  0  0  0  0  0  0  0
  189.8060  177.4630  137.3440 C   0  0  1  0  0  3  0  0  0  0  0  0
  191.4610  176.6420  138.8230 C   0  0  0  0  0  2  0  0  0  0  0  0
  189.6180  178.0960  138.7010 C   0  0  0  0  0  2  0  0  0  0  0  0
  185.2180  177.0620  135.0700 O   0  0  0  0  0  0  0  0  0  0  0  0
  186.3330  176.9100  135.6310 C   0  0  0  0  0  0  0  0  0  0  0  0
  186.8980  177.8480  142.7370 C   0  0  0  0  0  2  0  0  0  0  0  0
  186.5720  178.7780  141.7130 O   0  0  0  0  0  0  0  0  0  0  0  0
  184.9960  179.6350  140.0890 O   0  0  0  0  0  0  0  0  0  0  0  0
  185.2650  178.9240  141.2540 C   0  0  0  0  0  0  0  0  0  0  0  0
  184.3180  178.4060  141.8990 O   0  0  0  0  0  1  0  0  0  0  0  0
  1  8  1  0  0  0  0
  2  8  1  0  0  0  0
  3  6  1  0  0  0  0
  4  9  1  6  0  0  0
  4  5  1  0  0  0  0
  4  2  1  0  0  0  0
  5  1  1  1  0  0  0
  6 23  1  1  0  0  0
  6  5  1  0  0  0  0
  7  3  1  1  0  0  0
  7  9  1  0  0  0  0
 10 11  1  0  0  0  0
 12 20  1  6  0  0  0
 12  7  1  0  0  0  0
 13 11  1  0  0  0  0
 13 19  1  1  0  0  0
 14 15  1  6  0  0  0
 14 18  1  0  0  0  0
 16 14  1  0  0  0  0
 16 10  1  0  0  0  0
 17 16  2  0  0  0  0
 18 13  1  0  0  0  0
 18 20  1  1  0  0  0
 19 12  1  0  0  0  0
 21 22  2  0  0  0  0
 22 17  1  0  0  0  0
 22 15  1  0  0  0  0
 24 23  1  0  0  0  0
 25 26  2  0  0  0  0
 26 24  1  0  0  0  0
 26 27  1  0  0  0  0
M  END
>  <MODEL>
1

>  <REMARK>
 VINA RESULT:      -7.2      0.000      0.000
  Name = 
  4 active torsions:
  status: ('A' for Active; 'I' for Inactive)
    1  A    between atoms: C_5  and  O_9
    2  A    between atoms: C_5  and  C_11
    3  A    between atoms: N_8  and  C_18
    4  A    between atoms: O_9  and  C_25
                            x       y       z     vdW  Elec       q    Type
                         _______ _______ _______ _____ _____    ______ ____

>  <TORSDO>
F 4

$$$$
=
 OpenBabel11062415463D

 27 31  0  0  1  0  0  0  0  0999 V2000
  189.2840  176.9930  145.4950 C   0  0  0  0  0  2  0  0  0  0  0  0
  191.1140  177.4990  144.1530 C   0  0  0  0  0  2  0  0  0  0  0  0
  187.2140  177.8870  142.4710 C   0  0  0  0  0  2  0  0  0  0  0  0
  189.8460  177.3730  143.3680 C   0  0  1  0  0  3  0  0  0  0  0  0
  188.8050  177.6900  144.3110 N   0  0  1  0  0  0  0  0  0  0  0  0
  187.5610  177.1370  143.7720 C   0  0  1  0  0  3  0  0  0  0  0  0
  188.3850  177.8570  141.4570 C   0  0  2  0  0  3  0  0  0  0  0  0
  190.7470  177.0880  145.5050 N   0  0  0  0  0  2  0  0  0  0  0  0
  189.7050  178.2570  142.1470 C   0  0  0  0  0  2  0  0  0  0  0  0
  188.8130  175.5920  137.2830 C   0  0  0  0  0  2  0  0  0  0  0  0
  189.2440  176.4360  138.4020 N   0  0  0  0  0  2  0  0  0  0  0  0
  188.1060  178.7210  140.3000 N   0  0  1  0  0  0  0  0  0  0  0  0
  188.8530  177.8360  138.1660 C   0  0  1  0  0  3  0  0  0  0  0  0
  186.6590  176.8280  137.5070 C   0  0  2  0  0  3  0  0  0  0  0  0
  185.0250  176.6500  137.1510 S   0  0  0  0  0  0  0  0  0  0  0  0
  187.3310  175.6800  137.1330 C   0  0  0  0  0  0  0  0  0  0  0  0
  186.5640  174.7130  136.5660 N   0  0  0  0  0  0  0  0  0  0  0  0
  187.3390  178.0090  138.1270 C   0  0  1  0  0  3  0  0  0  0  0  0
  189.2440  178.6570  139.3730 C   0  0  0  0  0  2  0  0  0  0  0  0
  186.9520  178.1780  139.5760 C   0  0  0  0  0  2  0  0  0  0  0  0
  184.3560  174.3830  136.0450 O   0  0  0  0  0  0  0  0  0  0  0  0
  185.2710  175.1050  136.5190 C   0  0  0  0  0  0  0  0  0  0  0  0
  186.4110  177.2900  144.7660 C   0  0  0  0  0  2  0  0  0  0  0  0
  186.1510  178.6610  145.0280 O   0  0  0  0  0  0  0  0  0  0  0  0
  183.8870  179.0380  145.7970 O   0  0  0  0  0  0  0  0  0  0  0  0
  185.2600  179.0550  146.0240 C   0  0  0  0  0  0  0  0  0  0  0  0
  185.7010  179.4290  147.1410 O   0  0  0  0  0  1  0  0  0  0  0  0
  1  8  1  0  0  0  0
  2  8  1  0  0  0  0
  3  6  1  0  0  0  0
  4  9  1  6  0  0  0
  4  2  1  0  0  0  0
  4  5  1  0  0  0  0
  5  1  1  1  0  0  0
  6  5  1  0  0  0  0
  6 23  1  1  0  0  0
  7  9  1  1  0  0  0
  7  3  1  0  0  0  0
 10 11  1  0  0  0  0
 12 19  1  6  0  0  0
 12  7  1  0  0  0  0
 13 11  1  0  0  0  0
 13 19  1  1  0  0  0
 14 16  1  1  0  0  0
 14 18  1  0  0  0  0
 15 14  1  0  0  0  0
 16 10  1  0  0  0  0
 17 16  2  0  0  0  0
 18 13  1  0  0  0  0
 18 20  1  1  0  0  0
 20 12  1  0  0  0  0
 21 22  2  0  0  0  0
 22 17  1  0  0  0  0
 22 15  1  0  0  0  0
 23 24  1  0  0  0  0
 24 26  1  0  0  0  0
 25 26  2  0  0  0  0
 26 27  1  0  0  0  0
M  END
>  <MODEL>
2

>  <REMARK>
 VINA RESULT:      -7.0      2.256      2.662
  Name = 
  4 active torsions:
  status: ('A' for Active; 'I' for Inactive)
    1  A    between atoms: C_5  and  O_9
    2  A    between atoms: C_5  and  C_11
    3  A    between atoms: N_8  and  C_18
    4  A    between atoms: O_9  and  C_25
                            x       y       z     vdW  Elec       q    Type
                         _______ _______ _______ _____ _____    ______ ____

>  <TORSDO>
F 4

$$$$
=
 OpenBabel11062415463D

 27 31  0  0  1  0  0  0  0  0999 V2000
  189.3920  176.8140  143.6620 C   0  0  0  0  0  2  0  0  0  0  0  0
  190.1290  177.4650  141.5550 C   0  0  0  0  0  2  0  0  0  0  0  0
  186.0450  178.1660  142.5660 C   0  0  0  0  0  2  0  0  0  0  0  0
  188.6370  177.4760  141.6670 C   0  0  1  0  0  3  0  0  0  0  0  0
  188.3830  177.6800  143.0700 N   0  0  1  0  0  0  0  0  0  0  0  0
  187.0110  177.2350  143.3230 C   0  0  1  0  0  3  0  0  0  0  0  0
  186.3910  178.2540  141.0570 C   0  0  2  0  0  3  0  0  0  0  0  0
  190.5840  176.8760  142.8110 N   0  0  0  0  0  2  0  0  0  0  0  0
  187.8980  178.5260  140.8650 C   0  0  0  0  0  2  0  0  0  0  0  0
  182.6250  176.4400  138.7630 C   0  0  0  0  0  2  0  0  0  0  0  0
  183.9920  176.9510  138.9040 N   0  0  0  0  0  2  0  0  0  0  0  0
  185.5760  179.2770  140.3860 N   0  0  1  0  0  0  0  0  0  0  0  0
  184.0100  178.4150  138.7430 C   0  0  1  0  0  3  0  0  0  0  0  0
  182.0310  178.3330  140.2730 C   0  0  1  0  0  3  0  0  0  0  0  0
  180.8310  178.7900  141.3610 S   0  0  0  0  0  0  0  0  0  0  0  0
  181.7490  177.0670  139.7960 C   0  0  0  0  0  0  0  0  0  0  0  0
  180.6090  176.5040  140.2710 N   0  0  0  0  0  0  0  0  0  0  0  0
  183.2300  179.1210  139.8470 C   0  0  1  0  0  3  0  0  0  0  0  0
  185.4190  178.9090  138.9720 C   0  0  0  0  0  2  0  0  0  0  0  0
  184.2310  179.2630  140.9690 C   0  0  0  0  0  2  0  0  0  0  0  0
  178.9310  177.0430  141.7370 O   0  0  0  0  0  0  0  0  0  0  0  0
  180.0030  177.3350  141.1500 C   0  0  0  0  0  0  0  0  0  0  0  0
  186.6830  177.2700  144.8140 C   0  0  0  0  0  2  0  0  0  0  0  0
  186.5000  178.6080  145.2580 O   0  0  0  0  0  0  0  0  0  0  0  0
  184.1160  178.9310  145.5240 O   0  0  0  0  0  0  0  0  0  0  0  0
  185.4070  178.9710  146.0410 C   0  0  0  0  0  0  0  0  0  0  0  0
  185.5890  179.3370  147.2310 O   0  0  0  0  0  1  0  0  0  0  0  0
  2  4  1  0  0  0  0
  2  8  1  0  0  0  0
  3  6  1  0  0  0  0
  4  9  1  6  0  0  0
  4  5  1  0  0  0  0
  5  6  1  0  0  0  0
  5  1  1  1  0  0  0
  6 23  1  1  0  0  0
  7  9  1  1  0  0  0
  7  3  1  0  0  0  0
  8  1  1  0  0  0  0
 10 11  1  0  0  0  0
 10 16  1  0  0  0  0
 12 19  1  6  0  0  0
 12 20  1  0  0  0  0
 12  7  1  0  0  0  0
 13 11  1  0  0  0  0
 13 19  1  1  0  0  0
 13 18  1  0  0  0  0
 14 16  1  6  0  0  0
 14 15  1  0  0  0  0
 16 17  2  0  0  0  0
 17 22  1  0  0  0  0
 18 14  1  0  0  0  0
 18 20  1  1  0  0  0
 22 15  1  0  0  0  0
 22 21  2  0  0  0  0
 23 24  1  0  0  0  0
 24 26  1  0  0  0  0
 25 26  2  0  0  0  0
 26 27  1  0  0  0  0
M  END
>  <MODEL>
3

>  <REMARK>
 VINA RESULT:      -6.8      3.976      5.627
  Name = 
  4 active torsions:
  status: ('A' for Active; 'I' for Inactive)
    1  A    between atoms: C_5  and  O_9
    2  A    between atoms: C_5  and  C_11
    3  A    between atoms: N_8  and  C_18
    4  A    between atoms: O_9  and  C_25
                            x       y       z     vdW  Elec       q    Type
                         _______ _______ _______ _____ _____    ______ ____

>  <TORSDO>
F 4

$$$$
=
 OpenBabel11062415463D

 27 31  0  0  1  0  0  0  0  0999 V2000
  184.6380  179.0000  144.9320 C   0  0  0  0  0  2  0  0  0  0  0  0
  186.1280  177.8380  146.2860 C   0  0  0  0  0  2  0  0  0  0  0  0
  186.8060  177.8300  142.0760 C   0  0  0  0  0  2  0  0  0  0  0  0
  186.2920  177.5020  144.8370 C   0  0  1  0  0  3  0  0  0  0  0  0
  185.8140  178.6690  144.1410 N   0  0  1  0  0  0  0  0  0  0  0  0
  185.4980  178.2490  142.7740 C   0  0  1  0  0  3  0  0  0  0  0  0
  187.5730  176.7530  142.8840 C   0  0  2  0  0  3  0  0  0  0  0  0
  184.9420  178.6880  146.3310 N   0  0  0  0  0  2  0  0  0  0  0  0
  187.6910  177.1720  144.3640 C   0  0  0  0  0  2  0  0  0  0  0  0
  191.1410  178.6840  145.3890 C   0  0  0  0  0  2  0  0  0  0  0  0
  190.1370  178.6090  144.3230 N   0  0  0  0  0  2  0  0  0  0  0  0
  188.8970  176.4930  142.2980 N   0  0  1  0  0  0  0  0  0  0  0  0
  190.6830  177.8960  143.1560 C   0  0  1  0  0  3  0  0  0  0  0  0
  191.5030  176.2710  144.8730 C   0  0  1  0  0  3  0  0  0  0  0  0
  192.0870  174.8700  145.5970 S   0  0  0  0  0  0  0  0  0  0  0  0
  191.5480  177.3050  145.7900 C   0  0  0  0  0  0  0  0  0  0  0  0
  192.0500  176.9830  147.0090 N   0  0  0  0  0  0  0  0  0  0  0  0
  191.0030  176.4400  143.4730 C   0  0  1  0  0  3  0  0  0  0  0  0
  189.5960  177.7720  142.1130 C   0  0  0  0  0  2  0  0  0  0  0  0
  189.6920  175.7220  143.2590 C   0  0  0  0  0  2  0  0  0  0  0  0
  192.8620  175.1240  148.0760 O   0  0  0  0  0  0  0  0  0  0  0  0
  192.3810  175.6730  147.0520 C   0  0  0  0  0  0  0  0  0  0  0  0
  184.8430  179.3800  141.9840 C   0  0  0  0  0  2  0  0  0  0  0  0
  185.3050  179.3890  140.6410 O   0  0  0  0  0  0  0  0  0  0  0  0
  183.8290  178.1880  139.1460 O   0  0  0  0  0  1  0  0  0  0  0  0
  184.4180  179.3750  139.5670 C   0  0  0  0  0  0  0  0  0  0  0  0
  184.1450  180.4500  138.9730 O   0  0  0  0  0  0  0  0  0  0  0  0
  1  8  1  0  0  0  0
  2  8  1  0  0  0  0
  3  6  1  0  0  0  0
  4  9  1  1  0  0  0
  4  2  1  0  0  0  0
  5  4  1  0  0  0  0
  5  1  1  1  0  0  0
  6 23  1  6  0  0  0
  6  5  1  0  0  0  0
  7  3  1  6  0  0  0
  7  9  1  0  0  0  0
 10 16  1  0  0  0  0
 11 10  1  0  0  0  0
 12 19  1  1  0  0  0
 12  7  1  0  0  0  0
 12 20  1  0  0  0  0
 13 19  1  6  0  0  0
 13 18  1  0  0  0  0
 13 11  1  0  0  0  0
 14 15  1  6  0  0  0
 14 16  1  0  0  0  0
 15 22  1  0  0  0  0
 16 17  2  0  0  0  0
 17 22  1  0  0  0  0
 18 20  1  1  0  0  0
 18 14  1  0  0  0  0
 22 21  2  0  0  0  0
 24 23  1  0  0  0  0
 25 26  1  0  0  0  0
 26 24  1  0  0  0  0
 27 26  2  0  0  0  0
M  END
>  <MODEL>
4

>  <REMARK>
 VINA RESULT:      -6.6      4.078      6.979
  Name = 
  4 active torsions:
  status: ('A' for Active; 'I' for Inactive)
    1  A    between atoms: C_5  and  O_9
    2  A    between atoms: C_5  and  C_11
    3  A    between atoms: N_8  and  C_18
    4  A    between atoms: O_9  and  C_25
                            x       y       z     vdW  Elec       q    Type
                         _______ _______ _______ _____ _____    ______ ____

>  <TORSDO>
F 4

$$$$
=
 OpenBabel11062415463D

 27 31  0  0  1  0  0  0  0  0999 V2000
  185.5910  178.9100  144.5400 C   0  0  0  0  0  2  0  0  0  0  0  0
  183.3280  178.9400  145.0770 C   0  0  0  0  0  2  0  0  0  0  0  0
  184.4200  178.5660  140.9710 C   0  0  0  0  0  2  0  0  0  0  0  0
  183.5710  179.1200  143.6110 C   0  0  1  0  0  3  0  0  0  0  0  0
  184.8370  178.4760  143.3740 N   0  0  1  0  0  0  0  0  0  0  0  0
  185.3560  179.0090  142.1130 C   0  0  1  0  0  3  0  0  0  0  0  0
  182.9480  178.9650  141.2430 C   0  0  2  0  0  3  0  0  0  0  0  0
  184.6610  178.9700  145.6720 N   0  0  0  0  0  2  0  0  0  0  0  0
  182.5320  178.5500  142.6700 C   0  0  0  0  0  2  0  0  0  0  0  0
  179.0000  181.5480  140.5490 C   0  0  0  0  0  2  0  0  0  0  0  0
  179.8170  180.4730  141.1210 N   0  0  0  0  0  2  0  0  0  0  0  0
  182.0470  178.3840  140.2370 N   0  0  1  0  0  0  0  0  0  0  0  0
  179.7950  179.2920  140.2400 C   0  0  1  0  0  3  0  0  0  0  0  0
  180.1780  180.9750  138.4280 C   0  0  1  0  0  3  0  0  0  0  0  0
  180.5890  181.6680  136.9510 S   0  0  0  0  0  0  0  0  0  0  0  0
  179.5310  181.9170  139.2040 C   0  0  0  0  0  0  0  0  0  0  0  0
  179.3580  183.1320  138.6240 N   0  0  0  0  0  0  0  0  0  0  0  0
  180.4400  179.5750  138.8880 C   0  0  1  0  0  3  0  0  0  0  0  0
  180.7070  178.2380  140.8230 C   0  0  0  0  0  2  0  0  0  0  0  0
  181.9110  179.3320  139.1260 C   0  0  0  0  0  2  0  0  0  0  0  0
  179.8760  184.1580  136.6410 O   0  0  0  0  0  0  0  0  0  0  0  0
  179.8980  183.1450  137.3850 C   0  0  0  0  0  0  0  0  0  0  0  0
  186.7690  178.5000  141.8350 C   0  0  0  0  0  2  0  0  0  0  0  0
  187.1000  178.6580  140.4630 O   0  0  0  0  0  0  0  0  0  0  0  0
  188.9250  179.0280  138.9170 O   0  0  0  0  0  0  0  0  0  0  0  0
  188.3610  178.3240  139.9760 C   0  0  0  0  0  0  0  0  0  0  0  0
  188.9990  177.3750  140.5020 O   0  0  0  0  0  1  0  0  0  0  0  0
  1  8  1  0  0  0  0
  2  8  1  0  0  0  0
  3  6  1  0  0  0  0
  4  9  1  6  0  0  0
  4  2  1  0  0  0  0
  5  4  1  0  0  0  0
  5  1  1  1  0  0  0
  6 23  1  6  0  0  0
  6  5  1  0  0  0  0
  7  3  1  6  0  0  0
  7  9  1  0  0  0  0
 10 11  1  0  0  0  0
 12 20  1  6  0  0  0
 12 19  1  0  0  0  0
 12  7  1  0  0  0  0
 13 19  1  1  0  0  0
 13 11  1  0  0  0  0
 14 15  1  6  0  0  0
 14 18  1  0  0  0  0
 14 16  1  0  0  0  0
 15 22  1  0  0  0  0
 16 10  1  0  0  0  0
 17 16  2  0  0  0  0
 18 20  1  1  0  0  0
 18 13  1  0  0  0  0
 21 22  2  0  0  0  0
 22 17  1  0  0  0  0
 24 23  1  0  0  0  0
 25 26  2  0  0  0  0
 26 24  1  0  0  0  0
 26 27  1  0  0  0  0
M  END
>  <MODEL>
5

>  <REMARK>
 VINA RESULT:      -6.4      5.443      8.028
  Name = 
  4 active torsions:
  status: ('A' for Active; 'I' for Inactive)
    1  A    between atoms: C_5  and  O_9
    2  A    between atoms: C_5  and  C_11
    3  A    between atoms: N_8  and  C_18
    4  A    between atoms: O_9  and  C_25
                            x       y       z     vdW  Elec       q    Type
                         _______ _______ _______ _____ _____    ______ ____

>  <TORSDO>
F 4

$$$$
=
 OpenBabel11062415463D

 27 31  0  0  1  0  0  0  0  0999 V2000
  188.0240  176.8380  143.9960 C   0  0  0  0  0  2  0  0  0  0  0  0
  186.1300  178.0180  143.3430 C   0  0  0  0  0  2  0  0  0  0  0  0
  189.2670  177.5110  140.4990 C   0  0  0  0  0  2  0  0  0  0  0  0
  187.2640  178.1790  142.3800 C   0  0  1  0  0  3  0  0  0  0  0  0
  188.0510  176.9850  142.5480 N   0  0  1  0  0  0  0  0  0  0  0  0
  189.3850  177.2770  142.0170 C   0  0  1  0  0  3  0  0  0  0  0  0
  188.2230  178.6050  140.1620 C   0  0  2  0  0  3  0  0  0  0  0  0
  186.7040  177.2760  144.4610 N   0  0  0  0  0  2  0  0  0  0  0  0
  186.9040  178.3420  140.9190 C   0  0  0  0  0  2  0  0  0  0  0  0
  190.9480  175.6010  137.6550 C   0  0  0  0  0  2  0  0  0  0  0  0
  190.5710  176.8800  138.2640 N   0  0  0  0  0  2  0  0  0  0  0  0
  187.9950  178.6920  138.7120 N   0  0  1  0  0  0  0  0  0  0  0  0
  189.7110  177.6490  137.3470 C   0  0  1  0  0  3  0  0  0  0  0  0
  188.5320  175.4610  137.0560 C   0  0  1  0  0  3  0  0  0  0  0  0
  187.3590  174.3150  136.6790 S   0  0  0  0  0  0  0  0  0  0  0  0
  189.7180  174.8140  137.3450 C   0  0  0  0  0  0  0  0  0  0  0  0
  189.6850  173.4610  137.2460 N   0  0  0  0  0  0  0  0  0  0  0  0
  188.3810  176.9500  137.0900 C   0  0  1  0  0  3  0  0  0  0  0  0
  189.2820  178.9210  138.0400 C   0  0  0  0  0  2  0  0  0  0  0  0
  187.5050  177.3950  138.2350 C   0  0  0  0  0  2  0  0  0  0  0  0
  188.1530  171.8300  136.7450 O   0  0  0  0  0  0  0  0  0  0  0  0
  188.4480  173.0430  136.8960 C   0  0  0  0  0  0  0  0  0  0  0  0
  190.3500  176.1220  142.2780 C   0  0  0  0  0  2  0  0  0  0  0  0
  191.5670  176.5990  142.8330 O   0  0  0  0  0  0  0  0  0  0  0  0
  191.7640  178.6690  144.0700 O   0  0  0  0  0  0  0  0  0  0  0  0
  191.5940  177.2890  144.0420 C   0  0  0  0  0  0  0  0  0  0  0  0
  191.4600  176.6570  145.1220 O   0  0  0  0  0  1  0  0  0  0  0  0
  1  8  1  0  0  0  0
  2  8  1  0  0  0  0
  3  6  1  0  0  0  0
  4  9  1  6  0  0  0
  4  5  1  0  0  0  0
  4  2  1  0  0  0  0
  5  1  1  1  0  0  0
  6 23  1  6  0  0  0
  6  5  1  0  0  0  0
  7  3  1  6  0  0  0
  7  9  1  0  0  0  0
 10 11  1  0  0  0  0
 12 19  1  6  0  0  0
 12  7  1  0  0  0  0
 13 19  1  1  0  0  0
 13 11  1  0  0  0  0
 14 15  1  6  0  0  0
 14 18  1  0  0  0  0
 14 16  1  0  0  0  0
 15 22  1  0  0  0  0
 16 10  1  0  0  0  0
 17 16  2  0  0  0  0
 18 13  1  0  0  0  0
 18 20  1  1  0  0  0
 20 12  1  0  0  0  0
 21 22  2  0  0  0  0
 22 17  1  0  0  0  0
 23 24  1  0  0  0  0
 24 26  1  0  0  0  0
 26 25  2  0  0  0  0
 26 27  1  0  0  0  0
M  END
>  <MODEL>
6

>  <REMARK>
 VINA RESULT:      -6.1      3.120      4.071
  Name = 
  4 active torsions:
  status: ('A' for Active; 'I' for Inactive)
    1  A    between atoms: C_5  and  O_9
    2  A    between atoms: C_5  and  C_11
    3  A    between atoms: N_8  and  C_18
    4  A    between atoms: O_9  and  C_25
                            x       y       z     vdW  Elec       q    Type
                         _______ _______ _______ _____ _____    ______ ____

>  <TORSDO>
F 4

$$$$
=
 OpenBabel11062415463D

 27 31  0  0  1  0  0  0  0  0999 V2000
  190.7740  177.2900  142.8370 C   0  0  0  0  0  2  0  0  0  0  0  0
  191.6490  177.4300  140.6870 C   0  0  0  0  0  2  0  0  0  0  0  0
  187.4750  178.1300  141.2120 C   0  0  0  0  0  2  0  0  0  0  0  0
  190.1530  177.3850  140.6940 C   0  0  1  0  0  3  0  0  0  0  0  0
  189.7820  177.9210  141.9780 N   0  0  1  0  0  0  0  0  0  0  0  0
  188.4130  177.4760  142.2450 C   0  0  1  0  0  3  0  0  0  0  0  0
  187.9340  177.8550  139.7580 C   0  0  2  0  0  3  0  0  0  0  0  0
  192.0260  177.2040  142.0790 N   0  0  0  0  0  2  0  0  0  0  0  0
  189.4400  178.1550  139.6030 C   0  0  0  0  0  2  0  0  0  0  0  0
  185.6650  175.1160  136.5820 C   0  0  0  0  0  2  0  0  0  0  0  0
  186.7420  175.9730  137.0880 N   0  0  0  0  0  2  0  0  0  0  0  0
  187.1360  178.6280  138.7950 N   0  0  1  0  0  0  0  0  0  0  0  0
  186.4340  177.3890  136.8280 C   0  0  1  0  0  3  0  0  0  0  0  0
  184.1670  176.7730  137.6910 C   0  0  1  0  0  3  0  0  0  0  0  0
  182.6140  176.8860  138.3270 S   0  0  0  0  0  0  0  0  0  0  0  0
  184.3810  175.4810  137.2500 C   0  0  0  0  0  0  0  0  0  0  0  0
  183.3330  174.6310  137.4010 N   0  0  0  0  0  0  0  0  0  0  0  0
  185.1970  177.8550  137.5870 C   0  0  1  0  0  3  0  0  0  0  0  0
  187.5270  178.2400  137.4320 C   0  0  0  0  0  2  0  0  0  0  0  0
  185.7270  178.2520  138.9440 C   0  0  0  0  0  2  0  0  0  0  0  0
  181.2030  174.6930  138.2470 O   0  0  0  0  0  0  0  0  0  0  0  0
  182.2930  175.2640  137.9890 C   0  0  0  0  0  0  0  0  0  0  0  0
  187.9670  177.8680  143.6520 C   0  0  0  0  0  2  0  0  0  0  0  0
  186.5500  177.9000  143.7400 O   0  0  0  0  0  0  0  0  0  0  0  0
  186.4010  177.7170  146.1490 O   0  0  0  0  0  1  0  0  0  0  0  0
  185.9020  178.1890  144.9390 C   0  0  0  0  0  0  0  0  0  0  0  0
  184.8550  178.8870  144.9280 O   0  0  0  0  0  0  0  0  0  0  0  0
  2  4  1  0  0  0  0
  2  8  1  0  0  0  0
  3  6  1  0  0  0  0
  4  9  1  6  0  0  0
  4  5  1  0  0  0  0
  5  6  1  0  0  0  0
  5  1  1  1  0  0  0
  6 23  1  1  0  0  0
  7  9  1  1  0  0  0
  7  3  1  0  0  0  0
  8  1  1  0  0  0  0
 10 11  1  0  0  0  0
 10 16  1  0  0  0  0
 12 19  1  6  0  0  0
 12 20  1  0  0  0  0
 12  7  1  0  0  0  0
 13 11  1  0  0  0  0
 13 19  1  1  0  0  0
 13 18  1  0  0  0  0
 14 16  1  6  0  0  0
 14 15  1  0  0  0  0
 16 17  2  0  0  0  0
 17 22  1  0  0  0  0
 18 14  1  0  0  0  0
 18 20  1  1  0  0  0
 22 21  2  0  0  0  0
 22 15  1  0  0  0  0
 23 24  1  0  0  0  0
 24 26  1  0  0  0  0
 26 25  1  0  0  0  0
 27 26  2  0  0  0  0
M  END
>  <MODEL>
7

>  <REMARK>
 VINA RESULT:      -6.1      2.838      3.785
  Name = 
  4 active torsions:
  status: ('A' for Active; 'I' for Inactive)
    1  A    between atoms: C_5  and  O_9
    2  A    between atoms: C_5  and  C_11
    3  A    between atoms: N_8  and  C_18
    4  A    between atoms: O_9  and  C_25
                            x       y       z     vdW  Elec       q    Type
                         _______ _______ _______ _____ _____    ______ ____

>  <TORSDO>
F 4

$$$$
=
 OpenBabel11062415463D

 27 31  0  0  1  0  0  0  0  0999 V2000
  190.5020  177.3460  142.9850 C   0  0  0  0  0  2  0  0  0  0  0  0
  191.7720  177.3330  141.0370 C   0  0  0  0  0  2  0  0  0  0  0  0
  187.6220  178.2640  140.7280 C   0  0  0  0  0  2  0  0  0  0  0  0
  190.3010  177.3620  140.7610 C   0  0  1  0  0  3  0  0  0  0  0  0
  189.7280  177.9800  141.9280 N   0  0  1  0  0  0  0  0  0  0  0  0
  188.3090  177.6180  141.9470 C   0  0  1  0  0  3  0  0  0  0  0  0
  188.3290  177.8930  139.4010 C   0  0  2  0  0  3  0  0  0  0  0  0
  191.8670  177.1590  142.4840 N   0  0  0  0  0  2  0  0  0  0  0  0
  189.8520  178.1100  139.5240 C   0  0  0  0  0  2  0  0  0  0  0  0
  188.6210  175.5680  135.2480 C   0  0  0  0  0  2  0  0  0  0  0  0
  189.0370  176.5140  136.2880 N   0  0  0  0  0  2  0  0  0  0  0  0
  187.7730  178.6540  138.2730 N   0  0  1  0  0  0  0  0  0  0  0  0
  188.3930  177.8210  136.0780 C   0  0  1  0  0  3  0  0  0  0  0  0
  186.3350  176.4450  135.7190 C   0  0  1  0  0  3  0  0  0  0  0  0
  184.7220  175.9890  135.5740 S   0  0  0  0  0  0  0  0  0  0  0  0
  187.1380  175.4070  135.2840 C   0  0  0  0  0  0  0  0  0  0  0  0
  186.4800  174.3080  134.8360 N   0  0  0  0  0  0  0  0  0  0  0  0
  186.8780  177.7440  136.2270 C   0  0  1  0  0  3  0  0  0  0  0  0
  188.7860  178.7410  137.2110 C   0  0  0  0  0  2  0  0  0  0  0  0
  186.6460  177.9030  137.7100 C   0  0  0  0  0  2  0  0  0  0  0  0
  184.3110  173.6020  134.6020 O   0  0  0  0  0  0  0  0  0  0  0  0
  185.1430  174.4810  134.9440 C   0  0  0  0  0  0  0  0  0  0  0  0
  187.6300  178.1020  143.2270 C   0  0  0  0  0  2  0  0  0  0  0  0
  187.4300  177.0230  144.1290 O   0  0  0  0  0  0  0  0  0  0  0  0
  186.4940  177.4910  146.3100 O   0  0  0  0  0  1  0  0  0  0  0  0
  187.5840  177.1860  145.5030 C   0  0  0  0  0  0  0  0  0  0  0  0
  188.7240  177.0550  146.0210 O   0  0  0  0  0  0  0  0  0  0  0  0
  2  8  1  0  0  0  0
  3  6  1  0  0  0  0
  4  9  1  6  0  0  0
  4  2  1  0  0  0  0
  4  5  1  0  0  0  0
  5  6  1  0  0  0  0
  5  1  1  1  0  0  0
  6 23  1  1  0  0  0
  7  9  1  1  0  0  0
  7  3  1  0  0  0  0
  8  1  1  0  0  0  0
 10 16  1  0  0  0  0
 10 11  1  0  0  0  0
 12 19  1  6  0  0  0
 12  7  1  0  0  0  0
 13 18  1  0  0  0  0
 13 11  1  0  0  0  0
 13 19  1  1  0  0  0
 14 16  1  6  0  0  0
 14 18  1  0  0  0  0
 15 14  1  0  0  0  0
 17 22  1  0  0  0  0
 17 16  2  0  0  0  0
 18 20  1  1  0  0  0
 20 12  1  0  0  0  0
 21 22  2  0  0  0  0
 22 15  1  0  0  0  0
 23 24  1  0  0  0  0
 24 26  1  0  0  0  0
 26 27  2  0  0  0  0
 26 25  1  0  0  0  0
M  END
>  <MODEL>
8

>  <REMARK>
 VINA RESULT:      -6.0      2.353      3.257
  Name = 
  4 active torsions:
  status: ('A' for Active; 'I' for Inactive)
    1  A    between atoms: C_5  and  O_9
    2  A    between atoms: C_5  and  C_11
    3  A    between atoms: N_8  and  C_18
    4  A    between atoms: O_9  and  C_25
                            x       y       z     vdW  Elec       q    Type
                         _______ _______ _______ _____ _____    ______ ____

>  <TORSDO>
F 4

$$$$
=
 OpenBabel11062415463D

 27 31  0  0  1  0  0  0  0  0999 V2000
  185.9720  178.4940  144.1120 C   0  0  0  0  0  2  0  0  0  0  0  0
  184.5700  178.6250  145.9620 C   0  0  0  0  0  2  0  0  0  0  0  0
  182.8010  178.7310  142.0830 C   0  0  0  0  0  2  0  0  0  0  0  0
  183.8710  178.9840  144.6880 C   0  0  1  0  0  3  0  0  0  0  0  0
  184.6030  178.2820  143.6660 N   0  0  1  0  0  0  0  0  0  0  0  0
  184.2950  178.9410  142.3950 C   0  0  1  0  0  3  0  0  0  0  0  0
  181.8950  179.2020  143.2490 C   0  0  2  0  0  3  0  0  0  0  0  0
  185.9690  178.4700  145.5780 N   0  0  0  0  0  2  0  0  0  0  0  0
  182.4030  178.6290  144.5890 C   0  0  0  0  0  2  0  0  0  0  0  0
  180.1890  180.8890  139.1290 C   0  0  0  0  0  2  0  0  0  0  0  0
  180.4370  180.8770  140.5740 N   0  0  0  0  0  2  0  0  0  0  0  0
  180.4920  178.8340  143.0120 N   0  0  1  0  0  0  0  0  0  0  0  0
  179.3870  180.1090  141.2650 C   0  0  1  0  0  3  0  0  0  0  0  0
  179.7740  178.4500  139.4330 C   0  0  1  0  0  3  0  0  0  0  0  0
  179.7890  177.0170  138.5500 S   0  0  0  0  0  0  0  0  0  0  0  0
  180.1720  179.4890  138.6130 C   0  0  0  0  0  0  0  0  0  0  0  0
  180.4540  179.1460  137.3300 N   0  0  0  0  0  0  0  0  0  0  0  0
  179.4000  178.6370  140.8700 C   0  0  1  0  0  3  0  0  0  0  0  0
  179.7190  180.0540  142.7390 C   0  0  0  0  0  2  0  0  0  0  0  0
  180.4190  178.0180  141.7960 C   0  0  0  0  0  2  0  0  0  0  0  0
  180.5030  177.2450  136.0510 O   0  0  0  0  0  0  0  0  0  0  0  0
  180.2960  177.8150  137.1520 C   0  0  0  0  0  0  0  0  0  0  0  0
  185.1350  178.3670  141.2560 C   0  0  0  0  0  2  0  0  0  0  0  0
  185.3040  179.3260  140.2220 O   0  0  0  0  0  0  0  0  0  0  0  0
  183.8310  178.2890  138.6070 O   0  0  0  0  0  0  0  0  0  0  0  0
  184.3990  179.4280  139.1680 C   0  0  0  0  0  0  0  0  0  0  0  0
  184.0900  180.5620  138.7210 O   0  0  0  0  0  1  0  0  0  0  0  0
  1  8  1  0  0  0  0
  3  6  1  0  0  0  0
  4  9  1  1  0  0  0
  4  2  1  0  0  0  0
  5  1  1  1  0  0  0
  5  4  1  0  0  0  0
  6 23  1  6  0  0  0
  6  5  1  0  0  0  0
  7  3  1  6  0  0  0
  7  9  1  0  0  0  0
  8  2  1  0  0  0  0
 10 11  1  0  0  0  0
 11 13  1  0  0  0  0
 12 20  1  6  0  0  0
 12  7  1  0  0  0  0
 13 19  1  1  0  0  0
 14 15  1  6  0  0  0
 14 18  1  0  0  0  0
 16 10  1  0  0  0  0
 16 14  1  0  0  0  0
 17 16  2  0  0  0  0
 18 13  1  0  0  0  0
 18 20  1  1  0  0  0
 19 12  1  0  0  0  0
 21 22  2  0  0  0  0
 22 17  1  0  0  0  0
 22 15  1  0  0  0  0
 24 23  1  0  0  0  0
 25 26  2  0  0  0  0
 26 24  1  0  0  0  0
 27 26  1  0  0  0  0
M  END
>  <MODEL>
9

>  <REMARK>
 VINA RESULT:      -6.0      5.257      7.833
  Name = 
  4 active torsions:
  status: ('A' for Active; 'I' for Inactive)
    1  A    between atoms: C_5  and  O_9
    2  A    between atoms: C_5  and  C_11
    3  A    between atoms: N_8  and  C_18
    4  A    between atoms: O_9  and  C_25
                            x       y       z     vdW  Elec       q    Type
                         _______ _______ _______ _____ _____    ______ ____

>  <TORSDO>
F 4

$$$$
