=
 OpenBabel11062415593D

 36 39  0  0  1  0  0  0  0  0999 V2000
  189.3520  176.9100  139.3240 N   0  0  0  0  0  2  0  0  0  0  0  0
  188.5020  177.9750  139.7610 C   0  0  0  0  0  0  0  0  0  0  0  0
  188.2680  178.9480  138.9920 O   0  0  0  0  0  0  0  0  0  0  0  0
  187.9300  177.9410  141.0770 N   0  0  0  0  0  0  0  0  0  0  0  0
  189.3950  177.2730  135.2410 O   0  0  0  0  0  1  0  0  0  0  0  0
  189.9490  176.0740  135.6940 C   0  0  2  0  0  3  0  0  0  0  0  0
  193.6090  176.2380  138.5360 O   0  0  0  0  0  0  0  0  0  0  0  0
  190.9010  175.6970  137.9140 C   0  0  2  0  0  3  0  0  0  0  0  0
  189.5880  175.8340  137.1630 C   0  0  1  0  0  3  0  0  0  0  0  0
  190.0730  176.9600  138.0650 C   0  0  1  0  0  3  0  0  0  0  0  0
  193.3310  176.0500  137.3200 C   0  0  0  0  0  0  0  0  0  0  0  0
  191.9540  175.9010  136.9350 N   0  0  0  0  0  0  0  0  0  0  0  0
  191.4620  176.1270  135.5890 C   0  0  0  0  0  2  0  0  0  0  0  0
  198.0260  175.8460  134.5940 O   0  0  0  0  0  0  0  0  0  0  0  0
  196.0710  174.5580  134.8690 C   0  0  0  0  0  2  0  0  0  0  0  0
  194.4380  175.9720  136.3330 C   0  0  0  0  0  0  0  0  0  0  0  0
  194.9320  174.6540  135.8420 C   0  0  0  0  0  0  0  0  0  0  0  0
  196.0730  177.1430  134.8360 C   0  0  0  0  0  2  0  0  0  0  0  0
  194.3970  173.5860  136.2400 O   0  0  0  0  0  0  0  0  0  0  0  0
  196.8220  175.8490  134.7860 C   0  0  0  0  0  0  0  0  0  0  0  0
  194.9950  177.1040  135.8800 C   0  0  0  0  0  3  0  0  0  0  0  0
  188.3060  176.8970  142.0230 C   0  0  0  0  0  2  0  0  0  0  0  0
  188.6010  177.4940  143.3570 C   0  0  0  0  0  0  0  0  0  0  0  0
  187.8980  177.0110  144.5100 N   0  0  0  0  0  2  0  0  0  0  0  0
  189.4840  178.3860  143.4550 O   0  0  0  0  0  0  0  0  0  0  0  0
  187.0680  178.0320  146.5610 C   0  0  0  0  0  3  0  0  0  0  0  0
  189.4850  177.5310  147.8720 C   0  0  0  0  0  3  0  0  0  0  0  0
  188.4410  178.1650  148.5510 C   0  0  0  0  0  3  0  0  0  0  0  0
  189.3200  177.1480  146.5380 C   0  0  0  0  0  3  0  0  0  0  0  0
  188.1100  177.3980  145.8730 C   0  0  0  0  0  0  0  0  0  0  0  0
  187.2330  178.4140  147.8960 C   0  0  0  0  0  3  0  0  0  0  0  0
  187.0390  179.0050  141.5230 C   0  0  0  0  0  2  0  0  0  0  0  0
  185.1320  179.1390  143.1160 C   0  0  0  0  0  1  0  0  0  0  0  0
  185.6680  178.4450  141.8800 C   0  0  1  0  0  3  0  0  0  0  0  0
  184.9210  179.7510  139.9980 O   0  0  0  0  0  1  0  0  0  0  0  0
  184.6870  178.5770  140.7200 C   0  0  0  0  0  2  0  0  0  0  0  0
  1  2  1  0  0  0  0
  2  4  1  0  0  0  0
  3  2  2  0  0  0  0
  4 32  1  0  0  0  0
  4 22  1  0  0  0  0
  6  5  1  1  0  0  0
  6  9  1  0  0  0  0
  8 12  1  6  0  0  0
  8 10  1  0  0  0  0
  9  8  1  0  0  0  0
  9 10  1  0  0  0  0
 10  1  1  0  0  0  0
 11  7  2  0  0  0  0
 12 11  1  0  0  0  0
 13  6  1  0  0  0  0
 13 12  1  0  0  0  0
 14 20  2  0  0  0  0
 15 17  1  0  0  0  0
 16 11  1  0  0  0  0
 17 19  2  0  0  0  0
 17 16  1  0  0  0  0
 18 21  1  0  0  0  0
 20 18  1  0  0  0  0
 20 15  1  0  0  0  0
 21 16  2  0  0  0  0
 22 23  1  0  0  0  0
 23 25  2  0  0  0  0
 23 24  1  0  0  0  0
 24 30  1  0  0  0  0
 26 31  1  0  0  0  0
 27 28  1  0  0  0  0
 29 27  2  0  0  0  0
 30 29  1  0  0  0  0
 30 26  2  0  0  0  0
 31 28  2  0  0  0  0
 32 34  1  0  0  0  0
 34 33  1  0  0  0  0
 35 36  1  0  0  0  0
 36 34  1  0  0  0  0
M  END
>  <MODEL>
1

>  <REMARK>
 VINA RESULT:      -8.2      0.000      0.000
  Name = 
  8 active torsions:
  status: ('A' for Active; 'I' for Inactive)
    1  A    between atoms: C_4  and  C_17
    2  A    between atoms: C_4  and  N_36
    3  A    between atoms: N_5  and  C_14
    4  A    between atoms: C_15  and  C_20
    5  A    between atoms: C_23  and  N_28
    6  A    between atoms: C_29  and  C_31
    7  A    between atoms: C_29  and  C_32
    8  A    between atoms: C_31  and  N_36
                            x       y       z     vdW  Elec       q    Type
                         _______ _______ _______ _____ _____    ______ ____

>  <TORSDO>
F 8

$$$$
=
 OpenBabel11062415593D

 36 39  0  0  1  0  0  0  0  0999 V2000
  187.1720  178.2470  142.0760 N   0  0  0  0  0  2  0  0  0  0  0  0
  188.0950  178.3090  140.9850 C   0  0  0  0  0  0  0  0  0  0  0  0
  187.8360  179.0280  139.9820 O   0  0  0  0  0  0  0  0  0  0  0  0
  189.3070  177.5390  141.0270 N   0  0  0  0  0  0  0  0  0  0  0  0
  183.8550  179.7540  143.9550 O   0  0  0  0  0  1  0  0  0  0  0  0
  183.5610  178.7220  143.0620 C   0  0  2  0  0  3  0  0  0  0  0  0
  184.7020  179.2410  138.5970 O   0  0  0  0  0  0  0  0  0  0  0  0
  184.9410  178.0550  141.1570 C   0  0  2  0  0  3  0  0  0  0  0  0
  184.8370  177.9690  142.6690 C   0  0  1  0  0  3  0  0  0  0  0  0
  185.8690  178.8850  142.0260 C   0  0  1  0  0  3  0  0  0  0  0  0
  183.7010  179.3290  139.3610 C   0  0  0  0  0  0  0  0  0  0  0  0
  183.8160  178.8590  140.7150 N   0  0  0  0  0  0  0  0  0  0  0  0
  182.9470  179.2880  141.7960 C   0  0  0  0  0  2  0  0  0  0  0  0
  179.6050  181.3910  136.4490 O   0  0  0  0  0  0  0  0  0  0  0  0
  180.0260  179.5680  137.8830 C   0  0  0  0  0  2  0  0  0  0  0  0
  182.4370  179.8970  138.8290 C   0  0  0  0  0  0  0  0  0  0  0  0
  181.2990  179.0110  138.4530 C   0  0  0  0  0  0  0  0  0  0  0  0
  181.0700  181.9090  138.2210 C   0  0  0  0  0  2  0  0  0  0  0  0
  181.3860  177.7640  138.6080 O   0  0  0  0  0  0  0  0  0  0  0  0
  180.2130  180.9790  137.4220 C   0  0  0  0  0  0  0  0  0  0  0  0
  182.3230  181.2260  138.6870 C   0  0  0  0  0  3  0  0  0  0  0  0
  189.5500  176.5960  142.1130 C   0  0  0  0  0  2  0  0  0  0  0  0
  189.5000  177.3010  143.4270 C   0  0  0  0  0  0  0  0  0  0  0  0
  188.6560  176.7850  144.4650 N   0  0  0  0  0  2  0  0  0  0  0  0
  190.2250  178.3130  143.6140 O   0  0  0  0  0  0  0  0  0  0  0  0
  187.3200  177.7900  146.2380 C   0  0  0  0  0  3  0  0  0  0  0  0
  189.4790  177.7030  148.0100 C   0  0  0  0  0  3  0  0  0  0  0  0
  188.2510  178.2210  148.4310 C   0  0  0  0  0  3  0  0  0  0  0  0
  189.6270  177.2280  146.7030 C   0  0  0  0  0  3  0  0  0  0  0  0
  188.5480  177.2710  145.8080 C   0  0  0  0  0  0  0  0  0  0  0  0
  187.1720  178.2630  147.5450 C   0  0  0  0  0  3  0  0  0  0  0  0
  190.2690  177.6160  139.9350 C   0  0  0  0  0  2  0  0  0  0  0  0
  189.1930  176.6580  137.9060 C   0  0  0  0  0  1  0  0  0  0  0  0
  190.1640  176.3890  139.0390 C   0  0  1  0  0  3  0  0  0  0  0  0
  191.5000  174.6490  138.0440 O   0  0  0  0  0  1  0  0  0  0  0  0
  191.5250  175.9720  138.4930 C   0  0  0  0  0  2  0  0  0  0  0  0
  2  4  1  0  0  0  0
  2  1  1  0  0  0  0
  3  2  2  0  0  0  0
  4 22  1  0  0  0  0
  6  5  1  1  0  0  0
  7 11  2  0  0  0  0
  8 12  1  6  0  0  0
  8 10  1  0  0  0  0
  8  9  1  0  0  0  0
  9  6  1  0  0  0  0
 10  1  1  0  0  0  0
 10  9  1  0  0  0  0
 11 12  1  0  0  0  0
 12 13  1  0  0  0  0
 13  6  1  0  0  0  0
 14 20  2  0  0  0  0
 15 17  1  0  0  0  0
 16 11  1  0  0  0  0
 17 19  2  0  0  0  0
 17 16  1  0  0  0  0
 18 21  1  0  0  0  0
 20 15  1  0  0  0  0
 20 18  1  0  0  0  0
 21 16  2  0  0  0  0
 22 23  1  0  0  0  0
 23 25  2  0  0  0  0
 23 24  1  0  0  0  0
 24 30  1  0  0  0  0
 26 31  1  0  0  0  0
 27 28  1  0  0  0  0
 29 27  2  0  0  0  0
 30 26  2  0  0  0  0
 30 29  1  0  0  0  0
 31 28  2  0  0  0  0
 32  4  1  0  0  0  0
 33 34  1  0  0  0  0
 34 32  1  0  0  0  0
 35 36  1  0  0  0  0
 36 34  1  0  0  0  0
M  END
>  <MODEL>
2

>  <REMARK>
 VINA RESULT:      -8.1      3.023      9.142
  Name = 
  8 active torsions:
  status: ('A' for Active; 'I' for Inactive)
    1  A    between atoms: C_4  and  C_17
    2  A    between atoms: C_4  and  N_36
    3  A    between atoms: N_5  and  C_14
    4  A    between atoms: C_15  and  C_20
    5  A    between atoms: C_23  and  N_28
    6  A    between atoms: C_29  and  C_31
    7  A    between atoms: C_29  and  C_32
    8  A    between atoms: C_31  and  N_36
                            x       y       z     vdW  Elec       q    Type
                         _______ _______ _______ _____ _____    ______ ____

>  <TORSDO>
F 8

$$$$
=
 OpenBabel11062415593D

 36 39  0  0  1  0  0  0  0  0999 V2000
  191.2250  176.9330  140.4510 N   0  0  0  0  0  2  0  0  0  0  0  0
  190.5540  177.2290  139.2230 C   0  0  0  0  0  0  0  0  0  0  0  0
  189.6950  178.1520  139.1830 O   0  0  0  0  0  0  0  0  0  0  0  0
  190.8480  176.4650  138.0430 N   0  0  0  0  0  0  0  0  0  0  0  0
  192.2470  179.0610  143.8030 O   0  0  0  0  0  1  0  0  0  0  0  0
  191.6860  177.8160  144.0900 C   0  0  2  0  0  3  0  0  0  0  0  0
  187.3980  176.8960  142.5830 O   0  0  0  0  0  0  0  0  0  0  0  0
  190.2070  176.5470  142.6130 C   0  0  2  0  0  3  0  0  0  0  0  0
  191.6590  176.9340  142.8370 C   0  0  1  0  0  3  0  0  0  0  0  0
  190.8650  177.5700  141.7050 C   0  0  1  0  0  3  0  0  0  0  0  0
  188.0040  177.2500  143.6320 C   0  0  0  0  0  0  0  0  0  0  0  0
  189.4420  177.2160  143.6500 N   0  0  0  0  0  0  0  0  0  0  0  0
  190.2570  177.9870  144.5700 C   0  0  0  0  0  2  0  0  0  0  0  0
  185.6600  179.7350  147.8560 O   0  0  0  0  0  0  0  0  0  0  0  0
  185.0360  178.6910  145.8360 C   0  0  0  0  0  2  0  0  0  0  0  0
  187.2110  177.6720  144.8140 C   0  0  0  0  0  0  0  0  0  0  0  0
  185.8390  178.2300  144.6530 C   0  0  0  0  0  0  0  0  0  0  0  0
  187.0040  177.8790  147.3040 C   0  0  0  0  0  2  0  0  0  0  0  0
  185.3210  178.3270  143.5090 O   0  0  0  0  0  0  0  0  0  0  0  0
  185.9030  178.8580  147.0450 C   0  0  0  0  0  0  0  0  0  0  0  0
  187.7410  177.5460  146.0390 C   0  0  0  0  0  3  0  0  0  0  0  0
  191.7310  175.3060  138.1110 C   0  0  0  0  0  2  0  0  0  0  0  0
  193.1090  175.6850  137.6860 C   0  0  0  0  0  0  0  0  0  0  0  0
  193.9280  174.7130  137.0230 N   0  0  0  0  0  2  0  0  0  0  0  0
  193.5180  176.8590  137.8840 O   0  0  0  0  0  0  0  0  0  0  0  0
  196.3490  174.4990  137.2010 C   0  0  0  0  0  3  0  0  0  0  0  0
  196.7090  175.6900  134.6990 C   0  0  0  0  0  3  0  0  0  0  0  0
  197.8190  175.2690  135.4370 C   0  0  0  0  0  3  0  0  0  0  0  0
  195.4210  175.5150  135.2120 C   0  0  0  0  0  3  0  0  0  0  0  0
  195.2330  174.9200  136.4680 C   0  0  0  0  0  0  0  0  0  0  0  0
  197.6380  174.6720  136.6870 C   0  0  0  0  0  3  0  0  0  0  0  0
  190.1920  176.7770  136.7790 C   0  0  0  0  0  2  0  0  0  0  0  0
  187.7240  176.4630  136.7570 C   0  0  0  0  0  1  0  0  0  0  0  0
  189.0610  175.7940  136.5050 C   0  0  1  0  0  3  0  0  0  0  0  0
  190.3670  174.6490  134.8360 O   0  0  0  0  0  1  0  0  0  0  0  0
  189.1270  175.2420  135.0850 C   0  0  0  0  0  2  0  0  0  0  0  0
  1 10  1  0  0  0  0
  2  1  1  0  0  0  0
  3  2  2  0  0  0  0
  4 22  1  0  0  0  0
  4  2  1  0  0  0  0
  6  5  1  6  0  0  0
  6 13  1  0  0  0  0
  7 11  2  0  0  0  0
  8  9  1  0  0  0  0
  8 12  1  1  0  0  0
  9  6  1  0  0  0  0
 10  8  1  0  0  0  0
 10  9  1  0  0  0  0
 11 12  1  0  0  0  0
 11 16  1  0  0  0  0
 12 13  1  0  0  0  0
 15 20  1  0  0  0  0
 16 21  2  0  0  0  0
 17 16  1  0  0  0  0
 17 15  1  0  0  0  0
 19 17  2  0  0  0  0
 20 18  1  0  0  0  0
 20 14  2  0  0  0  0
 21 18  1  0  0  0  0
 23 25  2  0  0  0  0
 23 22  1  0  0  0  0
 24 23  1  0  0  0  0
 27 29  2  0  0  0  0
 27 28  1  0  0  0  0
 28 31  2  0  0  0  0
 29 30  1  0  0  0  0
 30 24  1  0  0  0  0
 30 26  2  0  0  0  0
 31 26  1  0  0  0  0
 32  4  1  0  0  0  0
 34 33  1  0  0  0  0
 34 32  1  0  0  0  0
 35 36  1  0  0  0  0
 36 34  1  0  0  0  0
M  END
>  <MODEL>
3

>  <REMARK>
 VINA RESULT:      -7.5      2.216     10.578
  Name = 
  8 active torsions:
  status: ('A' for Active; 'I' for Inactive)
    1  A    between atoms: C_4  and  C_17
    2  A    between atoms: C_4  and  N_36
    3  A    between atoms: N_5  and  C_14
    4  A    between atoms: C_15  and  C_20
    5  A    between atoms: C_23  and  N_28
    6  A    between atoms: C_29  and  C_31
    7  A    between atoms: C_29  and  C_32
    8  A    between atoms: C_31  and  N_36
                            x       y       z     vdW  Elec       q    Type
                         _______ _______ _______ _____ _____    ______ ____

>  <TORSDO>
F 8

$$$$
=
 OpenBabel11062415593D

 36 39  0  0  1  0  0  0  0  0999 V2000
  187.8910  178.8680  140.6690 N   0  0  0  0  0  2  0  0  0  0  0  0
  187.8400  177.9580  141.7720 C   0  0  0  0  0  0  0  0  0  0  0  0
  188.6390  176.9830  141.8200 O   0  0  0  0  0  0  0  0  0  0  0  0
  186.8710  178.1500  142.8140 N   0  0  0  0  0  0  0  0  0  0  0  0
  189.0330  179.7620  136.8340 O   0  0  0  0  0  1  0  0  0  0  0  0
  188.6300  178.4340  136.9940 C   0  0  2  0  0  3  0  0  0  0  0  0
  190.9090  175.7590  140.0190 O   0  0  0  0  0  0  0  0  0  0  0  0
  188.6460  177.1880  139.0980 C   0  0  2  0  0  3  0  0  0  0  0  0
  187.8890  178.2520  138.3230 C   0  0  1  0  0  3  0  0  0  0  0  0
  188.7470  178.6430  139.5180 C   0  0  1  0  0  3  0  0  0  0  0  0
  190.8480  175.9900  138.7800 C   0  0  0  0  0  0  0  0  0  0  0  0
  189.7880  176.8220  138.2790 N   0  0  0  0  0  0  0  0  0  0  0  0
  189.8420  177.5210  137.0080 C   0  0  0  0  0  2  0  0  0  0  0  0
  194.0430  174.3270  134.7130 O   0  0  0  0  0  0  0  0  0  0  0  0
  194.2370  175.3980  136.8050 C   0  0  0  0  0  2  0  0  0  0  0  0
  191.8610  175.3780  137.8830 C   0  0  0  0  0  0  0  0  0  0  0  0
  193.2130  175.9860  137.7320 C   0  0  0  0  0  0  0  0  0  0  0  0
  192.5180  173.5290  136.3230 C   0  0  0  0  0  2  0  0  0  0  0  0
  193.5250  177.0170  138.3860 O   0  0  0  0  0  0  0  0  0  0  0  0
  193.6100  174.4330  135.8480 C   0  0  0  0  0  0  0  0  0  0  0  0
  191.5500  174.2640  137.2050 C   0  0  0  0  0  3  0  0  0  0  0  0
  185.8520  179.1870  142.6990 C   0  0  0  0  0  2  0  0  0  0  0  0
  184.8080  178.7740  141.7180 C   0  0  0  0  0  0  0  0  0  0  0  0
  184.7850  179.3870  140.4220 N   0  0  0  0  0  2  0  0  0  0  0  0
  183.9870  177.8710  142.0300 O   0  0  0  0  0  0  0  0  0  0  0  0
  184.2750  177.9960  138.4880 C   0  0  0  0  0  3  0  0  0  0  0  0
  181.9040  179.3970  138.0150 C   0  0  0  0  0  3  0  0  0  0  0  0
  182.2660  178.3380  137.1800 C   0  0  0  0  0  3  0  0  0  0  0  0
  182.7270  179.7560  139.0870 C   0  0  0  0  0  3  0  0  0  0  0  0
  183.9200  179.0580  139.3280 C   0  0  0  0  0  0  0  0  0  0  0  0
  183.4510  177.6370  137.4170 C   0  0  0  0  0  3  0  0  0  0  0  0
  186.8290  177.2470  143.9580 C   0  0  0  0  0  2  0  0  0  0  0  0
  186.5410  177.7240  146.3840 C   0  0  0  0  0  1  0  0  0  0  0  0
  187.4500  177.9040  145.1840 C   0  0  1  0  0  3  0  0  0  0  0  0
  189.8330  178.2210  145.0150 O   0  0  0  0  0  1  0  0  0  0  0  0
  188.8410  177.3500  145.4750 C   0  0  0  0  0  2  0  0  0  0  0  0
  1  2  1  0  0  0  0
  2  3  2  0  0  0  0
  2  4  1  0  0  0  0
  4 32  1  0  0  0  0
  6  5  1  1  0  0  0
  6 13  1  0  0  0  0
  6  9  1  0  0  0  0
  8 12  1  6  0  0  0
  8 10  1  0  0  0  0
  9  8  1  0  0  0  0
  9 10  1  0  0  0  0
 10  1  1  0  0  0  0
 11  7  2  0  0  0  0
 12 11  1  0  0  0  0
 13 12  1  0  0  0  0
 14 20  2  0  0  0  0
 15 17  1  0  0  0  0
 16 11  1  0  0  0  0
 17 16  1  0  0  0  0
 17 19  2  0  0  0  0
 18 21  1  0  0  0  0
 20 18  1  0  0  0  0
 20 15  1  0  0  0  0
 21 16  2  0  0  0  0
 22  4  1  0  0  0  0
 23 25  2  0  0  0  0
 23 22  1  0  0  0  0
 24 23  1  0  0  0  0
 26 30  1  0  0  0  0
 27 29  1  0  0  0  0
 28 31  1  0  0  0  0
 28 27  2  0  0  0  0
 29 30  2  0  0  0  0
 30 24  1  0  0  0  0
 31 26  2  0  0  0  0
 32 34  1  0  0  0  0
 34 36  1  0  0  0  0
 34 33  1  0  0  0  0
 35 36  1  0  0  0  0
M  END
>  <MODEL>
4

>  <REMARK>
 VINA RESULT:      -7.4      2.061      5.642
  Name = 
  8 active torsions:
  status: ('A' for Active; 'I' for Inactive)
    1  A    between atoms: C_4  and  C_17
    2  A    between atoms: C_4  and  N_36
    3  A    between atoms: N_5  and  C_14
    4  A    between atoms: C_15  and  C_20
    5  A    between atoms: C_23  and  N_28
    6  A    between atoms: C_29  and  C_31
    7  A    between atoms: C_29  and  C_32
    8  A    between atoms: C_31  and  N_36
                            x       y       z     vdW  Elec       q    Type
                         _______ _______ _______ _____ _____    ______ ____

>  <TORSDO>
F 8

$$$$
=
 OpenBabel11062415593D

 36 39  0  0  1  0  0  0  0  0999 V2000
  182.6910  178.8110  142.3440 N   0  0  0  0  0  2  0  0  0  0  0  0
  182.5930  178.3610  140.9890 C   0  0  0  0  0  0  0  0  0  0  0  0
  183.4070  177.5020  140.5520 O   0  0  0  0  0  0  0  0  0  0  0  0
  181.5770  178.8970  140.1280 N   0  0  0  0  0  0  0  0  0  0  0  0
  184.1720  178.0130  146.0820 O   0  0  0  0  0  1  0  0  0  0  0  0
  184.8560  179.0380  145.4260 C   0  0  2  0  0  3  0  0  0  0  0  0
  186.9050  178.1150  141.3700 O   0  0  0  0  0  0  0  0  0  0  0  0
  184.9550  179.3570  143.0040 C   0  0  2  0  0  3  0  0  0  0  0  0
  184.0560  179.5310  144.2150 C   0  0  1  0  0  3  0  0  0  0  0  0
  183.7830  178.4160  143.2150 C   0  0  1  0  0  3  0  0  0  0  0  0
  187.1860  178.2440  142.5940 C   0  0  0  0  0  0  0  0  0  0  0  0
  186.1800  178.7480  143.4890 N   0  0  0  0  0  0  0  0  0  0  0  0
  186.1950  178.5330  144.9240 C   0  0  0  0  0  2  0  0  0  0  0  0
  191.7890  177.2180  145.2920 O   0  0  0  0  0  0  0  0  0  0  0  0
  190.2690  176.1010  143.8770 C   0  0  0  0  0  2  0  0  0  0  0  0
  188.5500  177.8870  143.0610 C   0  0  0  0  0  0  0  0  0  0  0  0
  188.9040  176.4740  143.3740 C   0  0  0  0  0  0  0  0  0  0  0  0
  190.8930  178.5940  143.6010 C   0  0  0  0  0  2  0  0  0  0  0  0
  188.0560  175.5550  143.2200 O   0  0  0  0  0  0  0  0  0  0  0  0
  191.0180  177.3070  144.3510 C   0  0  0  0  0  0  0  0  0  0  0  0
  189.4700  178.8520  143.2000 C   0  0  0  0  0  3  0  0  0  0  0  0
  180.7230  179.9900  140.5780 C   0  0  0  0  0  2  0  0  0  0  0  0
  180.3170  180.8360  139.4180 C   0  0  0  0  0  0  0  0  0  0  0  0
  181.3120  181.6070  138.7330 N   0  0  0  0  0  2  0  0  0  0  0  0
  179.1160  180.8310  139.0390 O   0  0  0  0  0  0  0  0  0  0  0  0
  181.3400  183.7820  137.6340 C   0  0  0  0  0  3  0  0  0  0  0  0
  180.5940  182.6380  135.1960 C   0  0  0  0  0  3  0  0  0  0  0  0
  180.8070  184.0160  135.2840 C   0  0  0  0  0  3  0  0  0  0  0  0
  180.7540  181.8320  136.3270 C   0  0  0  0  0  3  0  0  0  0  0  0
  181.1270  182.4000  137.5540 C   0  0  0  0  0  0  0  0  0  0  0  0
  181.1810  184.5870  136.5030 C   0  0  0  0  0  3  0  0  0  0  0  0
  181.4480  178.4240  138.7550 C   0  0  0  0  0  2  0  0  0  0  0  0
  179.4020  177.6940  137.5400 C   0  0  0  0  0  1  0  0  0  0  0  0
  180.3720  177.3510  138.6550 C   0  0  1  0  0  3  0  0  0  0  0  0
  181.1240  175.2900  139.6500 O   0  0  0  0  0  1  0  0  0  0  0  0
  180.9750  175.9680  138.4370 C   0  0  0  0  0  2  0  0  0  0  0  0
  1 10  1  0  0  0  0
  2  1  1  0  0  0  0
  3  2  2  0  0  0  0
  4 22  1  0  0  0  0
  4  2  1  0  0  0  0
  6  5  1  6  0  0  0
  7 11  2  0  0  0  0
  8 10  1  0  0  0  0
  8 12  1  1  0  0  0
  8  9  1  0  0  0  0
  9  6  1  0  0  0  0
 10  9  1  0  0  0  0
 11 16  1  0  0  0  0
 11 12  1  0  0  0  0
 12 13  1  0  0  0  0
 13  6  1  0  0  0  0
 15 20  1  0  0  0  0
 16 21  2  0  0  0  0
 16 17  1  0  0  0  0
 17 15  1  0  0  0  0
 18 20  1  0  0  0  0
 19 17  2  0  0  0  0
 20 14  2  0  0  0  0
 21 18  1  0  0  0  0
 23 22  1  0  0  0  0
 24 23  1  0  0  0  0
 25 23  2  0  0  0  0
 27 28  2  0  0  0  0
 27 29  1  0  0  0  0
 28 31  1  0  0  0  0
 29 30  2  0  0  0  0
 30 26  1  0  0  0  0
 30 24  1  0  0  0  0
 31 26  2  0  0  0  0
 32  4  1  0  0  0  0
 33 34  1  0  0  0  0
 34 32  1  0  0  0  0
 36 34  1  0  0  0  0
 36 35  1  0  0  0  0
M  END
>  <MODEL>
5

>  <REMARK>
 VINA RESULT:      -7.0      6.335     10.139
  Name = 
  8 active torsions:
  status: ('A' for Active; 'I' for Inactive)
    1  A    between atoms: C_4  and  C_17
    2  A    between atoms: C_4  and  N_36
    3  A    between atoms: N_5  and  C_14
    4  A    between atoms: C_15  and  C_20
    5  A    between atoms: C_23  and  N_28
    6  A    between atoms: C_29  and  C_31
    7  A    between atoms: C_29  and  C_32
    8  A    between atoms: C_31  and  N_36
                            x       y       z     vdW  Elec       q    Type
                         _______ _______ _______ _____ _____    ______ ____

>  <TORSDO>
F 8

$$$$
=
 OpenBabel11062415593D

 36 39  0  0  1  0  0  0  0  0999 V2000
  183.9490  178.0610  141.6190 N   0  0  0  0  0  2  0  0  0  0  0  0
  182.6080  178.5030  141.3900 C   0  0  0  0  0  0  0  0  0  0  0  0
  181.9410  179.0030  142.3370 O   0  0  0  0  0  0  0  0  0  0  0  0
  182.0190  178.3620  140.0880 N   0  0  0  0  0  0  0  0  0  0  0  0
  183.8100  178.9690  145.6140 O   0  0  0  0  0  1  0  0  0  0  0  0
  184.9020  179.5400  144.9560 C   0  0  2  0  0  3  0  0  0  0  0  0
  187.9450  176.7490  142.8460 O   0  0  0  0  0  0  0  0  0  0  0  0
  185.9060  178.7120  142.8870 C   0  0  2  0  0  3  0  0  0  0  0  0
  184.7120  179.4720  143.4370 C   0  0  1  0  0  3  0  0  0  0  0  0
  184.5450  178.0430  142.9430 C   0  0  1  0  0  3  0  0  0  0  0  0
  187.8070  177.4040  143.9160 C   0  0  0  0  0  0  0  0  0  0  0  0
  186.7050  178.3200  144.0330 N   0  0  0  0  0  0  0  0  0  0  0  0
  186.1700  178.7830  145.3010 C   0  0  0  0  0  2  0  0  0  0  0  0
  191.3280  175.6600  147.6670 O   0  0  0  0  0  0  0  0  0  0  0  0
  191.2750  177.1300  145.8250 C   0  0  0  0  0  2  0  0  0  0  0  0
  188.7980  177.2190  145.0060 C   0  0  0  0  0  0  0  0  0  0  0  0
  190.2590  177.3450  144.7400 C   0  0  0  0  0  0  0  0  0  0  0  0
  189.2770  176.7950  147.4300 C   0  0  0  0  0  2  0  0  0  0  0  0
  190.6730  177.6380  143.5870 O   0  0  0  0  0  0  0  0  0  0  0  0
  190.6660  176.4410  147.0060 C   0  0  0  0  0  0  0  0  0  0  0  0
  188.3670  176.9370  146.2440 C   0  0  0  0  0  3  0  0  0  0  0  0
  182.7270  177.6570  139.0260 C   0  0  0  0  0  2  0  0  0  0  0  0
  184.0320  178.3220  138.7480 C   0  0  0  0  0  0  0  0  0  0  0  0
  185.1860  177.5140  138.4810 N   0  0  0  0  0  2  0  0  0  0  0  0
  184.0920  179.5800  138.7190 O   0  0  0  0  0  0  0  0  0  0  0  0
  187.4390  178.1900  139.1160 C   0  0  0  0  0  3  0  0  0  0  0  0
  188.1360  178.6300  136.4450 C   0  0  0  0  0  3  0  0  0  0  0  0
  189.0760  178.8470  137.4570 C   0  0  0  0  0  3  0  0  0  0  0  0
  186.8480  178.1930  136.7700 C   0  0  0  0  0  3  0  0  0  0  0  0
  186.4920  177.9720  138.1080 C   0  0  0  0  0  0  0  0  0  0  0  0
  188.7270  178.6260  138.7910 C   0  0  0  0  0  3  0  0  0  0  0  0
  180.6630  178.8350  139.8350 C   0  0  0  0  0  2  0  0  0  0  0  0
  179.5860  179.5190  137.6990 C   0  0  0  0  0  1  0  0  0  0  0  0
  180.6550  179.8670  138.7160 C   0  0  1  0  0  3  0  0  0  0  0  0
  180.0500  181.2500  140.5930 O   0  0  0  0  0  1  0  0  0  0  0  0
  180.4460  181.2790  139.2530 C   0  0  0  0  0  2  0  0  0  0  0  0
  1 10  1  0  0  0  0
  2  1  1  0  0  0  0
  2  3  2  0  0  0  0
  4  2  1  0  0  0  0
  6 13  1  0  0  0  0
  6  5  1  1  0  0  0
  7 11  2  0  0  0  0
  8 10  1  0  0  0  0
  8  9  1  0  0  0  0
  8 12  1  1  0  0  0
  9  6  1  0  0  0  0
 10  9  1  0  0  0  0
 11 12  1  0  0  0  0
 11 16  1  0  0  0  0
 12 13  1  0  0  0  0
 15 20  1  0  0  0  0
 16 21  2  0  0  0  0
 17 16  1  0  0  0  0
 17 15  1  0  0  0  0
 19 17  2  0  0  0  0
 20 18  1  0  0  0  0
 20 14  2  0  0  0  0
 21 18  1  0  0  0  0
 22  4  1  0  0  0  0
 23 22  1  0  0  0  0
 24 23  1  0  0  0  0
 25 23  2  0  0  0  0
 27 29  2  0  0  0  0
 27 28  1  0  0  0  0
 28 31  2  0  0  0  0
 29 30  1  0  0  0  0
 30 24  1  0  0  0  0
 30 26  2  0  0  0  0
 31 26  1  0  0  0  0
 32  4  1  0  0  0  0
 33 34  1  0  0  0  0
 34 36  1  0  0  0  0
 34 32  1  0  0  0  0
 36 35  1  0  0  0  0
M  END
>  <MODEL>
6

>  <REMARK>
 VINA RESULT:      -7.0      4.896      9.289
  Name = 
  8 active torsions:
  status: ('A' for Active; 'I' for Inactive)
    1  A    between atoms: C_4  and  C_17
    2  A    between atoms: C_4  and  N_36
    3  A    between atoms: N_5  and  C_14
    4  A    between atoms: C_15  and  C_20
    5  A    between atoms: C_23  and  N_28
    6  A    between atoms: C_29  and  C_31
    7  A    between atoms: C_29  and  C_32
    8  A    between atoms: C_31  and  N_36
                            x       y       z     vdW  Elec       q    Type
                         _______ _______ _______ _____ _____    ______ ____

>  <TORSDO>
F 8

$$$$
=
 OpenBabel11062415593D

 36 39  0  0  1  0  0  0  0  0999 V2000
  186.5780  178.6010  142.8940 N   0  0  0  0  0  2  0  0  0  0  0  0
  186.8510  177.8810  144.1000 C   0  0  0  0  0  0  0  0  0  0  0  0
  185.9020  177.5490  144.8630 O   0  0  0  0  0  0  0  0  0  0  0  0
  188.2040  177.5520  144.4470 N   0  0  0  0  0  0  0  0  0  0  0  0
  182.7180  179.4640  143.9720 O   0  0  0  0  0  1  0  0  0  0  0  0
  182.8060  178.5310  142.9380 C   0  0  2  0  0  3  0  0  0  0  0  0
  184.9310  179.7530  139.0020 O   0  0  0  0  0  0  0  0  0  0  0  0
  184.6950  178.2790  141.4060 C   0  0  2  0  0  3  0  0  0  0  0  0
  184.2330  177.9850  142.8230 C   0  0  1  0  0  3  0  0  0  0  0  0
  185.2500  179.0870  142.5650 C   0  0  1  0  0  3  0  0  0  0  0  0
  183.7700  179.6270  139.4810 C   0  0  0  0  0  0  0  0  0  0  0  0
  183.6120  179.0010  140.7650 N   0  0  0  0  0  0  0  0  0  0  0  0
  182.4500  179.1850  141.6160 C   0  0  0  0  0  2  0  0  0  0  0  0
  180.2810  181.6390  135.8340 O   0  0  0  0  0  0  0  0  0  0  0  0
  180.6300  179.6520  137.0550 C   0  0  0  0  0  2  0  0  0  0  0  0
  182.6090  180.1140  138.6920 C   0  0  0  0  0  0  0  0  0  0  0  0
  181.7870  179.1710  137.8820 C   0  0  0  0  0  0  0  0  0  0  0  0
  181.1140  182.0060  138.0080 C   0  0  0  0  0  2  0  0  0  0  0  0
  182.0510  177.9400  137.8770 O   0  0  0  0  0  0  0  0  0  0  0  0
  180.6760  181.1370  136.8720 C   0  0  0  0  0  0  0  0  0  0  0  0
  182.3010  181.4190  138.7140 C   0  0  0  0  0  3  0  0  0  0  0  0
  189.3180  178.0520  143.6500 C   0  0  0  0  0  2  0  0  0  0  0  0
  189.4820  177.2250  142.4200 C   0  0  0  0  0  0  0  0  0  0  0  0
  189.5320  177.8740  141.1420 N   0  0  0  0  0  2  0  0  0  0  0  0
  189.6100  175.9770  142.5260 O   0  0  0  0  0  0  0  0  0  0  0  0
  188.7040  177.1270  138.9760 C   0  0  0  0  0  3  0  0  0  0  0  0
  191.2410  176.2110  138.2430 C   0  0  0  0  0  3  0  0  0  0  0  0
  190.1690  176.0830  137.3550 C   0  0  0  0  0  3  0  0  0  0  0  0
  191.0430  176.7970  139.4970 C   0  0  0  0  0  3  0  0  0  0  0  0
  189.7720  177.2580  139.8710 C   0  0  0  0  0  0  0  0  0  0  0  0
  188.9020  176.5420  137.7220 C   0  0  0  0  0  3  0  0  0  0  0  0
  188.4930  176.7930  145.6590 C   0  0  0  0  0  2  0  0  0  0  0  0
  188.6080  178.0350  147.8120 C   0  0  0  0  0  1  0  0  0  0  0  0
  189.3920  177.5940  146.5920 C   0  0  1  0  0  3  0  0  0  0  0  0
  191.7220  177.1230  146.2020 O   0  0  0  0  0  1  0  0  0  0  0  0
  190.6260  176.7980  147.0050 C   0  0  0  0  0  2  0  0  0  0  0  0
  1  2  1  0  0  0  0
  2  4  1  0  0  0  0
  2  3  2  0  0  0  0
  4 32  1  0  0  0  0
  6  5  1  1  0  0  0
  7 11  2  0  0  0  0
  8 12  1  6  0  0  0
  8 10  1  0  0  0  0
  8  9  1  0  0  0  0
  9  6  1  0  0  0  0
 10  9  1  0  0  0  0
 10  1  1  0  0  0  0
 11 12  1  0  0  0  0
 12 13  1  0  0  0  0
 13  6  1  0  0  0  0
 14 20  2  0  0  0  0
 15 17  1  0  0  0  0
 16 21  2  0  0  0  0
 16 11  1  0  0  0  0
 17 16  1  0  0  0  0
 18 21  1  0  0  0  0
 19 17  2  0  0  0  0
 20 15  1  0  0  0  0
 20 18  1  0  0  0  0
 22  4  1  0  0  0  0
 23 25  2  0  0  0  0
 23 22  1  0  0  0  0
 24 23  1  0  0  0  0
 26 30  1  0  0  0  0
 27 29  1  0  0  0  0
 28 31  1  0  0  0  0
 28 27  2  0  0  0  0
 29 30  2  0  0  0  0
 30 24  1  0  0  0  0
 31 26  2  0  0  0  0
 32 34  1  0  0  0  0
 34 36  1  0  0  0  0
 34 33  1  0  0  0  0
 35 36  1  0  0  0  0
M  END
>  <MODEL>
7

>  <REMARK>
 VINA RESULT:      -6.8      3.854     10.000
  Name = 
  8 active torsions:
  status: ('A' for Active; 'I' for Inactive)
    1  A    between atoms: C_4  and  C_17
    2  A    between atoms: C_4  and  N_36
    3  A    between atoms: N_5  and  C_14
    4  A    between atoms: C_15  and  C_20
    5  A    between atoms: C_23  and  N_28
    6  A    between atoms: C_29  and  C_31
    7  A    between atoms: C_29  and  C_32
    8  A    between atoms: C_31  and  N_36
                            x       y       z     vdW  Elec       q    Type
                         _______ _______ _______ _____ _____    ______ ____

>  <TORSDO>
F 8

$$$$
=
 OpenBabel11062415593D

 36 39  0  0  1  0  0  0  0  0999 V2000
  186.2570  178.2130  138.4230 N   0  0  0  0  0  2  0  0  0  0  0  0
  186.4840  178.6280  139.7730 C   0  0  0  0  0  0  0  0  0  0  0  0
  187.6630  178.8030  140.1870 O   0  0  0  0  0  0  0  0  0  0  0  0
  185.3720  178.8300  140.6580 N   0  0  0  0  0  0  0  0  0  0  0  0
  187.7790  177.7720  134.6420 O   0  0  0  0  0  1  0  0  0  0  0  0
  187.7780  176.5850  135.3780 C   0  0  2  0  0  3  0  0  0  0  0  0
  190.1460  176.4270  139.3620 O   0  0  0  0  0  0  0  0  0  0  0  0
  187.7740  176.4250  137.8180 C   0  0  2  0  0  3  0  0  0  0  0  0
  186.8890  176.7200  136.6190 C   0  0  1  0  0  3  0  0  0  0  0  0
  187.3430  177.8520  137.5300 C   0  0  1  0  0  3  0  0  0  0  0  0
  190.2540  176.0810  138.1530 C   0  0  0  0  0  0  0  0  0  0  0  0
  189.1060  176.1880  137.2930 N   0  0  0  0  0  0  0  0  0  0  0  0
  189.1850  176.2620  135.8460 C   0  0  0  0  0  2  0  0  0  0  0  0
  195.2280  174.0150  137.4420 O   0  0  0  0  0  0  0  0  0  0  0  0
  193.0120  173.5960  136.7530 C   0  0  0  0  0  2  0  0  0  0  0  0
  191.5570  175.5600  137.6670 C   0  0  0  0  0  0  0  0  0  0  0  0
  191.6950  174.1460  137.2180 C   0  0  0  0  0  0  0  0  0  0  0  0
  193.9640  175.9740  137.1000 C   0  0  0  0  0  2  0  0  0  0  0  0
  190.6960  173.3780  137.2190 O   0  0  0  0  0  0  0  0  0  0  0  0
  194.1430  174.4900  137.1540 C   0  0  0  0  0  0  0  0  0  0  0  0
  192.6200  176.3780  137.6330 C   0  0  0  0  0  3  0  0  0  0  0  0
  184.0170  178.4940  140.2350 C   0  0  0  0  0  2  0  0  0  0  0  0
  183.4840  179.5520  139.3300 C   0  0  0  0  0  0  0  0  0  0  0  0
  182.1680  179.4030  138.7790 N   0  0  0  0  0  2  0  0  0  0  0  0
  184.1810  180.5740  139.0930 O   0  0  0  0  0  0  0  0  0  0  0  0
  181.1220  179.9940  136.6590 C   0  0  0  0  0  3  0  0  0  0  0  0
  180.3870  182.5050  137.6400 C   0  0  0  0  0  3  0  0  0  0  0  0
  180.0550  182.1420  136.3320 C   0  0  0  0  0  3  0  0  0  0  0  0
  181.0870  181.6120  138.4570 C   0  0  0  0  0  3  0  0  0  0  0  0
  181.4610  180.3500  137.9690 C   0  0  0  0  0  0  0  0  0  0  0  0
  180.4220  180.8860  135.8420 C   0  0  0  0  0  3  0  0  0  0  0  0
  185.5890  179.2810  142.0270 C   0  0  0  0  0  2  0  0  0  0  0  0
  186.5950  177.6090  143.5710 C   0  0  0  0  0  1  0  0  0  0  0  0
  185.2960  178.1600  143.0150 C   0  0  1  0  0  3  0  0  0  0  0  0
  185.1150  179.2770  145.1420 O   0  0  0  0  0  1  0  0  0  0  0  0
  184.3840  178.6280  144.1440 C   0  0  0  0  0  2  0  0  0  0  0  0
  1  2  1  0  0  0  0
  2  3  2  0  0  0  0
  2  4  1  0  0  0  0
  4 32  1  0  0  0  0
  6  5  1  1  0  0  0
  6 13  1  0  0  0  0
  6  9  1  0  0  0  0
  8 12  1  6  0  0  0
  9 10  1  0  0  0  0
  9  8  1  0  0  0  0
 10  8  1  0  0  0  0
 10  1  1  0  0  0  0
 11  7  2  0  0  0  0
 12 11  1  0  0  0  0
 13 12  1  0  0  0  0
 15 20  1  0  0  0  0
 15 17  1  0  0  0  0
 16 11  1  0  0  0  0
 17 19  2  0  0  0  0
 17 16  1  0  0  0  0
 18 20  1  0  0  0  0
 18 21  1  0  0  0  0
 20 14  2  0  0  0  0
 21 16  2  0  0  0  0
 22  4  1  0  0  0  0
 23 22  1  0  0  0  0
 24 23  1  0  0  0  0
 25 23  2  0  0  0  0
 26 30  1  0  0  0  0
 27 29  1  0  0  0  0
 28 27  2  0  0  0  0
 30 29  2  0  0  0  0
 30 24  1  0  0  0  0
 31 28  1  0  0  0  0
 31 26  2  0  0  0  0
 32 34  1  0  0  0  0
 34 33  1  0  0  0  0
 34 36  1  0  0  0  0
 36 35  1  0  0  0  0
M  END
>  <MODEL>
8

>  <REMARK>
 VINA RESULT:      -6.8      3.324      6.446
  Name = 
  8 active torsions:
  status: ('A' for Active; 'I' for Inactive)
    1  A    between atoms: C_4  and  C_17
    2  A    between atoms: C_4  and  N_36
    3  A    between atoms: N_5  and  C_14
    4  A    between atoms: C_15  and  C_20
    5  A    between atoms: C_23  and  N_28
    6  A    between atoms: C_29  and  C_31
    7  A    between atoms: C_29  and  C_32
    8  A    between atoms: C_31  and  N_36
                            x       y       z     vdW  Elec       q    Type
                         _______ _______ _______ _____ _____    ______ ____

>  <TORSDO>
F 8

$$$$
=
 OpenBabel11062415593D

 36 39  0  0  1  0  0  0  0  0999 V2000
  188.8530  177.0560  137.9560 N   0  0  0  0  0  2  0  0  0  0  0  0
  189.7800  175.9770  137.8010 C   0  0  0  0  0  0  0  0  0  0  0  0
  189.3800  174.8630  137.3640 O   0  0  0  0  0  0  0  0  0  0  0  0
  191.1590  176.1600  138.1560 N   0  0  0  0  0  0  0  0  0  0  0  0
  185.7020  175.4470  135.8860 O   0  0  0  0  0  1  0  0  0  0  0  0
  185.6960  176.8430  135.9010 C   0  0  2  0  0  3  0  0  0  0  0  0
  185.5100  179.0330  139.9840 O   0  0  0  0  0  0  0  0  0  0  0  0
  186.7820  178.2510  137.5790 C   0  0  2  0  0  3  0  0  0  0  0  0
  187.0540  177.3830  136.3630 C   0  0  1  0  0  3  0  0  0  0  0  0
  187.4250  176.8880  137.7530 C   0  0  1  0  0  3  0  0  0  0  0  0
  184.7600  178.6960  139.0260 C   0  0  0  0  0  0  0  0  0  0  0  0
  185.3540  178.1680  137.8290 N   0  0  0  0  0  0  0  0  0  0  0  0
  184.6410  177.3490  136.8660 C   0  0  0  0  0  2  0  0  0  0  0  0
  179.3610  178.9860  138.4980 O   0  0  0  0  0  0  0  0  0  0  0  0
  180.9590  177.9650  139.8980 C   0  0  0  0  0  2  0  0  0  0  0  0
  183.2920  178.8750  139.1650 C   0  0  0  0  0  0  0  0  0  0  0  0
  182.4480  177.8120  139.7800 C   0  0  0  0  0  0  0  0  0  0  0  0
  181.2640  180.3220  138.8810 C   0  0  0  0  0  2  0  0  0  0  0  0
  182.9740  176.7540  140.2160 O   0  0  0  0  0  0  0  0  0  0  0  0
  180.4570  179.0700  139.0240 C   0  0  0  0  0  0  0  0  0  0  0  0
  182.7250  180.0100  138.7310 C   0  0  0  0  0  3  0  0  0  0  0  0
  191.6030  177.3940  138.7940 C   0  0  0  0  0  2  0  0  0  0  0  0
  191.4140  177.3070  140.2700 C   0  0  0  0  0  0  0  0  0  0  0  0
  190.1470  177.6710  140.8350 N   0  0  0  0  0  2  0  0  0  0  0  0
  192.3540  176.8820  140.9920 O   0  0  0  0  0  0  0  0  0  0  0  0
  190.4560  178.3100  143.1660 C   0  0  0  0  0  3  0  0  0  0  0  0
  188.3220  176.6920  143.9660 C   0  0  0  0  0  3  0  0  0  0  0  0
  189.0290  177.4340  144.9150 C   0  0  0  0  0  3  0  0  0  0  0  0
  188.6830  176.7590  142.6170 C   0  0  0  0  0  3  0  0  0  0  0  0
  189.7540  177.5670  142.2090 C   0  0  0  0  0  0  0  0  0  0  0  0
  190.0950  178.2440  144.5150 C   0  0  0  0  0  3  0  0  0  0  0  0
  192.1180  175.0770  137.9750 C   0  0  0  0  0  2  0  0  0  0  0  0
  194.5630  174.6210  138.0580 C   0  0  0  0  0  1  0  0  0  0  0  0
  193.5030  175.6330  137.6690 C   0  0  1  0  0  3  0  0  0  0  0  0
  194.7850  176.7980  135.9960 O   0  0  0  0  0  1  0  0  0  0  0  0
  193.6430  176.0200  136.2010 C   0  0  0  0  0  2  0  0  0  0  0  0
  2  1  1  0  0  0  0
  2  4  1  0  0  0  0
  3  2  2  0  0  0  0
  4 22  1  0  0  0  0
  6  5  1  1  0  0  0
  6  9  1  0  0  0  0
  6 13  1  0  0  0  0
  8 10  1  0  0  0  0
  8 12  1  1  0  0  0
  9  8  1  0  0  0  0
  9 10  1  0  0  0  0
 10  1  1  0  0  0  0
 11 16  1  0  0  0  0
 11  7  2  0  0  0  0
 12 11  1  0  0  0  0
 13 12  1  0  0  0  0
 14 20  2  0  0  0  0
 16 17  1  0  0  0  0
 17 15  1  0  0  0  0
 17 19  2  0  0  0  0
 18 20  1  0  0  0  0
 20 15  1  0  0  0  0
 21 18  1  0  0  0  0
 21 16  2  0  0  0  0
 22 23  1  0  0  0  0
 23 24  1  0  0  0  0
 23 25  2  0  0  0  0
 24 30  1  0  0  0  0
 26 31  1  0  0  0  0
 27 28  1  0  0  0  0
 29 27  2  0  0  0  0
 30 29  1  0  0  0  0
 30 26  2  0  0  0  0
 31 28  2  0  0  0  0
 32  4  1  0  0  0  0
 34 32  1  0  0  0  0
 34 33  1  0  0  0  0
 35 36  1  0  0  0  0
 36 34  1  0  0  0  0
M  END
>  <MODEL>
9

>  <REMARK>
 VINA RESULT:      -6.8      2.804      8.976
  Name = 
  8 active torsions:
  status: ('A' for Active; 'I' for Inactive)
    1  A    between atoms: C_4  and  C_17
    2  A    between atoms: C_4  and  N_36
    3  A    between atoms: N_5  and  C_14
    4  A    between atoms: C_15  and  C_20
    5  A    between atoms: C_23  and  N_28
    6  A    between atoms: C_29  and  C_31
    7  A    between atoms: C_29  and  C_32
    8  A    between atoms: C_31  and  N_36
                            x       y       z     vdW  Elec       q    Type
                         _______ _______ _______ _____ _____    ______ ____

>  <TORSDO>
F 8

$$$$
