=
 OpenBabel11062413343D

 28 31  0  0  1  0  0  0  0  0999 V2000
  189.5760  176.6430  144.9100 C   0  0  0  0  0  2  0  0  0  0  0  0
  186.0310  178.7490  146.9440 C   0  0  0  0  0  2  0  0  0  0  0  0
  189.0870  176.6730  142.3070 C   0  0  2  0  0  3  0  0  0  0  0  0
  188.1960  178.2400  146.0680 N   0  0  0  0  0  0  0  0  0  0  0  0
  190.4540  174.9190  143.4220 C   0  0  0  0  0  1  0  0  0  0  0  0
  186.9330  178.3890  145.8020 C   0  0  0  0  0  0  0  0  0  0  0  0
  186.9780  177.2580  143.5260 C   0  0  0  0  0  2  0  0  0  0  0  0
  184.9660  178.4670  141.7380 C   0  0  0  0  0  2  0  0  0  0  0  0
  189.1380  177.9780  145.1000 O   0  0  0  0  0  0  0  0  0  0  0  0
  184.1710  178.9020  145.5210 C   0  0  0  0  0  2  0  0  0  0  0  0
  191.2320  177.3920  141.7210 C   0  0  0  0  0  0  0  0  0  0  0  0
  192.1800  177.7980  141.0000 O   0  0  0  0  0  0  0  0  0  0  0  0
  186.3870  178.3850  144.3750 C   0  0  1  0  0  3  0  0  0  0  0  0
  184.2590  178.9170  143.0120 C   0  0  2  0  0  3  0  0  0  0  0  0
  189.9670  177.0240  141.2030 N   0  0  0  0  0  0  0  0  0  0  0  0
  189.8190  176.4320  139.8830 C   0  0  0  0  0  1  0  0  0  0  0  0
  188.0520  177.8040  142.5760 C   0  0  2  0  0  3  0  0  0  0  0  0
  191.3310  177.2110  143.1840 C   0  0  0  0  0  2  0  0  0  0  0  0
  184.6780  178.2560  146.7210 N   0  0  0  0  0  2  0  0  0  0  0  0
  186.2180  179.2990  141.5360 C   0  0  0  0  0  2  0  0  0  0  0  0
  188.4540  179.3290  140.6080 C   0  0  0  0  0  1  0  0  0  0  0  0
  187.4410  178.4210  141.2840 C   0  0  1  0  0  3  0  0  0  0  0  0
  190.0760  176.3900  143.4860 C   0  0  2  0  0  0  0  0  0  0  0  0
  184.8430  178.2860  144.2950 C   0  0  2  0  0  3  0  0  0  0  0  0
  182.2950  178.3670  141.7550 O   0  0  0  0  0  0  0  0  0  0  0  0
  182.7960  178.6220  142.8850 C   0  0  0  0  0  0  0  0  0  0  0  0
  180.5820  178.6300  143.9560 C   0  0  0  0  0  1  0  0  0  0  0  0
  181.9990  178.6390  144.0300 O   0  0  0  0  0  0  0  0  0  0  0  0
  1  9  1  0  0  0  0
  3 15  1  6  0  0  0
  3 17  1  0  0  0  0
  3 23  1  0  0  0  0
  6  4  2  0  0  0  0
  6  2  1  0  0  0  0
  8 14  1  0  0  0  0
  9  4  1  0  0  0  0
 10 19  1  0  0  0  0
 11 18  1  0  0  0  0
 12 11  2  0  0  0  0
 13  7  1  6  0  0  0
 13  6  1  0  0  0  0
 14 26  1  6  0  0  0
 14 24  1  0  0  0  0
 15 11  1  0  0  0  0
 16 15  1  0  0  0  0
 17  7  1  1  0  0  0
 18 23  1  0  0  0  0
 19  2  1  0  0  0  0
 20  8  1  0  0  0  0
 22 21  1  1  0  0  0
 22 20  1  0  0  0  0
 22 17  1  0  0  0  0
 23  5  1  6  0  0  0
 23  1  1  0  0  0  0
 24 13  1  0  0  0  0
 24 10  1  1  0  0  0
 25 26  2  0  0  0  0
 26 28  1  0  0  0  0
 27 28  1  0  0  0  0
M  END
>  <MODEL>
1

>  <REMARK>
 VINA RESULT:      -8.0      0.000      0.000
  Name = 
  2 active torsions:
  status: ('A' for Active; 'I' for Inactive)
    1  A    between atoms: O_9  and  C_18
    2  A    between atoms: C_17  and  C_18
                            x       y       z     vdW  Elec       q    Type
                         _______ _______ _______ _____ _____    ______ ____

>  <TORSDO>
F 2

$$$$
=
 OpenBabel11062413343D

 28 31  0  0  1  0  0  0  0  0999 V2000
  191.3240  177.8710  142.4160 C   0  0  0  0  0  2  0  0  0  0  0  0
  188.8760  177.2280  138.5770 C   0  0  0  0  0  2  0  0  0  0  0  0
  189.5910  178.4150  144.3430 C   0  0  2  0  0  3  0  0  0  0  0  0
  190.2260  176.8770  140.5190 N   0  0  0  0  0  0  0  0  0  0  0  0
  191.9370  179.2400  144.3410 C   0  0  0  0  0  1  0  0  0  0  0  0
  189.0950  177.3220  140.0580 C   0  0  0  0  0  0  0  0  0  0  0  0
  188.4270  178.6270  142.1340 C   0  0  0  0  0  2  0  0  0  0  0  0
  185.4920  178.6590  142.4270 C   0  0  0  0  0  2  0  0  0  0  0  0
  190.5240  176.8410  141.8620 O   0  0  0  0  0  0  0  0  0  0  0  0
  186.7000  178.0860  138.7750 C   0  0  0  0  0  2  0  0  0  0  0  0
  190.5450  176.9350  145.8790 C   0  0  0  0  0  0  0  0  0  0  0  0
  190.6880  176.2670  146.9350 O   0  0  0  0  0  0  0  0  0  0  0  0
  187.9500  177.7570  140.9700 C   0  0  1  0  0  3  0  0  0  0  0  0
  185.4440  178.3830  140.9280 C   0  0  2  0  0  3  0  0  0  0  0  0
  189.5050  177.8780  145.6920 N   0  0  0  0  0  0  0  0  0  0  0  0
  188.9630  178.6530  146.7970 C   0  0  0  0  0  1  0  0  0  0  0  0
  188.4820  177.8110  143.4320 C   0  0  2  0  0  3  0  0  0  0  0  0
  191.4620  176.8510  144.7230 C   0  0  0  0  0  2  0  0  0  0  0  0
  187.9800  178.2790  138.1120 N   0  0  0  0  0  2  0  0  0  0  0  0
  185.9440  177.4070  143.1550 C   0  0  0  0  0  2  0  0  0  0  0  0
  187.0850  176.5510  145.1110 C   0  0  0  0  0  1  0  0  0  0  0  0
  187.0890  177.7010  144.1200 C   0  0  1  0  0  3  0  0  0  0  0  0
  191.0550  178.0800  143.9070 C   0  0  2  0  0  0  0  0  0  0  0  0
  186.8180  178.5180  140.2360 C   0  0  2  0  0  3  0  0  0  0  0  0
  184.7700  180.0620  139.3580 O   0  0  0  0  0  0  0  0  0  0  0  0
  184.4330  179.2910  140.3000 C   0  0  0  0  0  0  0  0  0  0  0  0
  182.2420  178.1930  140.5040 C   0  0  0  0  0  1  0  0  0  0  0  0
  183.1200  179.2740  140.7710 O   0  0  0  0  0  0  0  0  0  0  0  0
  1 23  1  0  0  0  0
  2  6  1  0  0  0  0
  3 15  1  1  0  0  0
  4  9  1  0  0  0  0
  6  4  2  0  0  0  0
  6 13  1  0  0  0  0
  8 20  1  0  0  0  0
  9  1  1  0  0  0  0
 11 12  2  0  0  0  0
 13  7  1  1  0  0  0
 14 26  1  6  0  0  0
 14  8  1  0  0  0  0
 15 11  1  0  0  0  0
 15 16  1  0  0  0  0
 17  7  1  6  0  0  0
 17 22  1  0  0  0  0
 17  3  1  0  0  0  0
 18 11  1  0  0  0  0
 19  2  1  0  0  0  0
 19 10  1  0  0  0  0
 20 22  1  0  0  0  0
 22 21  1  1  0  0  0
 23  5  1  1  0  0  0
 23  3  1  0  0  0  0
 23 18  1  0  0  0  0
 24 10  1  6  0  0  0
 24 14  1  0  0  0  0
 24 13  1  0  0  0  0
 25 26  2  0  0  0  0
 26 28  1  0  0  0  0
 27 28  1  0  0  0  0
M  END
>  <MODEL>
2

>  <REMARK>
 VINA RESULT:      -7.6      2.161      4.748
  Name = 
  2 active torsions:
  status: ('A' for Active; 'I' for Inactive)
    1  A    between atoms: O_9  and  C_18
    2  A    between atoms: C_17  and  C_18
                            x       y       z     vdW  Elec       q    Type
                         _______ _______ _______ _____ _____    ______ ____

>  <TORSDO>
F 2

$$$$
=
 OpenBabel11062413343D

 28 31  0  0  1  0  0  0  0  0999 V2000
  183.8000  178.0380  139.5480 C   0  0  0  0  0  2  0  0  0  0  0  0
  188.2790  178.4990  140.4800 C   0  0  0  0  0  2  0  0  0  0  0  0
  182.5400  177.9800  141.8760 C   0  0  2  0  0  3  0  0  0  0  0  0
  186.0280  178.9170  139.7910 N   0  0  0  0  0  0  0  0  0  0  0  0
  181.6820  176.8600  139.8290 C   0  0  0  0  0  1  0  0  0  0  0  0
  186.8090  178.5690  140.7700 C   0  0  0  0  0  0  0  0  0  0  0  0
  184.9890  177.6410  142.2820 C   0  0  0  0  0  2  0  0  0  0  0  0
  185.7070  178.0340  145.1160 C   0  0  0  0  0  2  0  0  0  0  0  0
  184.6700  179.0850  139.9420 O   0  0  0  0  0  0  0  0  0  0  0  0
  188.7660  177.9680  142.7130 C   0  0  0  0  0  2  0  0  0  0  0  0
  180.8900  179.5060  141.2370 C   0  0  0  0  0  0  0  0  0  0  0  0
  179.9030  180.2810  141.3340 O   0  0  0  0  0  0  0  0  0  0  0  0
  186.3090  178.4090  142.2050 C   0  0  1  0  0  3  0  0  0  0  0  0
  187.1500  178.1180  144.6290 C   0  0  2  0  0  3  0  0  0  0  0  0
  181.3450  178.6930  142.3020 N   0  0  0  0  0  0  0  0  0  0  0  0
  180.4340  178.1440  143.2950 C   0  0  0  0  0  1  0  0  0  0  0  0
  183.8170  178.6020  142.5140 C   0  0  2  0  0  3  0  0  0  0  0  0
  181.6690  179.3200  139.9950 C   0  0  0  0  0  2  0  0  0  0  0  0
  188.9380  177.5240  141.3390 N   0  0  0  0  0  2  0  0  0  0  0  0
  184.9680  179.2980  144.7210 C   0  0  0  0  0  2  0  0  0  0  0  0
  182.8130  180.2410  144.1480 C   0  0  0  0  0  1  0  0  0  0  0  0
  183.6530  178.9820  144.0150 C   0  0  1  0  0  3  0  0  0  0  0  0
  182.4770  178.0600  140.3160 C   0  0  2  0  0  0  0  0  0  0  0  0
  187.3230  177.7150  143.1480 C   0  0  2  0  0  3  0  0  0  0  0  0
  188.9820  176.6290  145.0360 O   0  0  0  0  0  0  0  0  0  0  0  0
  188.0130  177.2780  145.5190 C   0  0  0  0  0  0  0  0  0  0  0  0
  188.4730  177.9580  147.8380 C   0  0  0  0  0  1  0  0  0  0  0  0
  187.7260  177.2200  146.8830 O   0  0  0  0  0  0  0  0  0  0  0  0
  1  9  1  0  0  0  0
  1 23  1  0  0  0  0
  2  6  1  0  0  0  0
  2 19  1  0  0  0  0
  3 15  1  1  0  0  0
  3 17  1  0  0  0  0
  4  9  1  0  0  0  0
  4  6  2  0  0  0  0
  6 13  1  0  0  0  0
 11 12  2  0  0  0  0
 11 15  1  0  0  0  0
 13  7  1  6  0  0  0
 13 24  1  0  0  0  0
 14  8  1  0  0  0  0
 14 26  1  1  0  0  0
 15 16  1  0  0  0  0
 17  7  1  1  0  0  0
 17 22  1  0  0  0  0
 18 23  1  0  0  0  0
 18 11  1  0  0  0  0
 19 10  1  0  0  0  0
 20  8  1  0  0  0  0
 22 21  1  6  0  0  0
 22 20  1  0  0  0  0
 23  5  1  6  0  0  0
 23  3  1  0  0  0  0
 24 10  1  6  0  0  0
 24 14  1  0  0  0  0
 25 26  2  0  0  0  0
 26 28  1  0  0  0  0
 28 27  1  0  0  0  0
M  END
>  <MODEL>
3

>  <REMARK>
 VINA RESULT:      -7.2      2.460      7.140
  Name = 
  2 active torsions:
  status: ('A' for Active; 'I' for Inactive)
    1  A    between atoms: O_9  and  C_18
    2  A    between atoms: C_17  and  C_18
                            x       y       z     vdW  Elec       q    Type
                         _______ _______ _______ _____ _____    ______ ____

>  <TORSDO>
F 2

$$$$
=
 OpenBabel11062413343D

 28 31  0  0  1  0  0  0  0  0999 V2000
  186.8060  177.5030  147.1210 C   0  0  0  0  0  2  0  0  0  0  0  0
  184.5550  179.3620  143.5700 C   0  0  0  0  0  2  0  0  0  0  0  0
  189.2420  176.9210  146.2590 C   0  0  2  0  0  3  0  0  0  0  0  0
  185.7100  179.0500  145.6390 N   0  0  0  0  0  0  0  0  0  0  0  0
  188.1090  175.6820  148.0930 C   0  0  0  0  0  1  0  0  0  0  0  0
  185.7630  178.9310  144.3460 C   0  0  0  0  0  0  0  0  0  0  0  0
  187.7790  177.3850  144.2780 C   0  0  0  0  0  2  0  0  0  0  0  0
  189.3510  177.8540  141.8260 C   0  0  0  0  0  2  0  0  0  0  0  0
  186.7740  178.7570  146.4620 O   0  0  0  0  0  0  0  0  0  0  0  0
  185.6200  178.9120  141.5270 C   0  0  0  0  0  2  0  0  0  0  0  0
  190.3240  177.8510  148.1090 C   0  0  0  0  0  0  0  0  0  0  0  0
  191.2660  178.2530  148.8420 O   0  0  0  0  0  0  0  0  0  0  0  0
  187.0440  178.5460  143.6080 C   0  0  1  0  0  3  0  0  0  0  0  0
  188.0680  178.4300  141.2400 C   0  0  2  0  0  3  0  0  0  0  0  0
  190.5320  177.1810  146.8790 N   0  0  0  0  0  0  0  0  0  0  0  0
  191.6810  176.3160  146.6590 C   0  0  0  0  0  1  0  0  0  0  0  0
  188.9880  177.8960  145.0720 C   0  0  2  0  0  3  0  0  0  0  0  0
  188.8950  177.9910  148.4560 C   0  0  0  0  0  2  0  0  0  0  0  0
  184.4390  178.6170  142.3230 N   0  0  0  0  0  2  0  0  0  0  0  0
  189.9190  178.8230  142.8460 C   0  0  0  0  0  2  0  0  0  0  0  0
  191.2300  179.0340  144.8700 C   0  0  0  0  0  1  0  0  0  0  0  0
  190.2340  178.1280  144.1670 C   0  0  1  0  0  3  0  0  0  0  0  0
  188.2320  177.0520  147.4460 C   0  0  2  0  0  0  0  0  0  0  0  0
  186.8230  178.1790  142.1200 C   0  0  2  0  0  3  0  0  0  0  0  0
  188.5540  176.8890  139.4710 O   0  0  0  0  0  0  0  0  0  0  0  0
  187.8720  177.8780  139.8620 C   0  0  0  0  0  0  0  0  0  0  0  0
  186.5620  177.8880  137.7800 C   0  0  0  0  0  1  0  0  0  0  0  0
  186.9340  178.4730  139.0190 O   0  0  0  0  0  0  0  0  0  0  0  0
  1 23  1  0  0  0  0
  2  6  1  0  0  0  0
  3 15  1  1  0  0  0
  3 23  1  0  0  0  0
  4  9  1  0  0  0  0
  6  4  2  0  0  0  0
  8 20  1  0  0  0  0
  9  1  1  0  0  0  0
 10 19  1  0  0  0  0
 11 18  1  0  0  0  0
 11 12  2  0  0  0  0
 13  7  1  1  0  0  0
 13  6  1  0  0  0  0
 14 26  1  6  0  0  0
 14  8  1  0  0  0  0
 14 24  1  0  0  0  0
 15 11  1  0  0  0  0
 16 15  1  0  0  0  0
 17  7  1  6  0  0  0
 17  3  1  0  0  0  0
 19  2  1  0  0  0  0
 20 22  1  0  0  0  0
 22 21  1  1  0  0  0
 22 17  1  0  0  0  0
 23  5  1  1  0  0  0
 23 18  1  0  0  0  0
 24 10  1  6  0  0  0
 24 13  1  0  0  0  0
 25 26  2  0  0  0  0
 27 28  1  0  0  0  0
 28 26  1  0  0  0  0
M  END
>  <MODEL>
4

>  <REMARK>
 VINA RESULT:      -6.9      2.639      4.953
  Name = 
  2 active torsions:
  status: ('A' for Active; 'I' for Inactive)
    1  A    between atoms: O_9  and  C_18
    2  A    between atoms: C_17  and  C_18
                            x       y       z     vdW  Elec       q    Type
                         _______ _______ _______ _____ _____    ______ ____

>  <TORSDO>
F 2

$$$$
=
 OpenBabel11062413343D

 28 31  0  0  1  0  0  0  0  0999 V2000
  183.4340  177.4910  138.7180 C   0  0  0  0  0  2  0  0  0  0  0  0
  187.1690  178.8270  141.0430 C   0  0  0  0  0  2  0  0  0  0  0  0
  181.4160  177.5290  140.4320 C   0  0  2  0  0  3  0  0  0  0  0  0
  185.3020  178.7600  139.5520 N   0  0  0  0  0  0  0  0  0  0  0  0
  181.5070  176.0170  138.4600 C   0  0  0  0  0  1  0  0  0  0  0  0
  185.6990  178.6830  140.7870 C   0  0  0  0  0  0  0  0  0  0  0  0
  183.5630  177.6680  141.7180 C   0  0  0  0  0  2  0  0  0  0  0  0
  183.1320  178.5510  144.5000 C   0  0  0  0  0  2  0  0  0  0  0  0
  183.9760  178.7140  139.1880 O   0  0  0  0  0  0  0  0  0  0  0  0
  186.8500  178.6880  143.3640 C   0  0  0  0  0  2  0  0  0  0  0  0
  179.9630  178.6540  138.9890 C   0  0  0  0  0  0  0  0  0  0  0  0
  178.9310  179.2550  138.5920 O   0  0  0  0  0  0  0  0  0  0  0  0
  184.7240  178.6330  141.9620 C   0  0  1  0  0  3  0  0  0  0  0  0
  184.6340  178.8140  144.5370 C   0  0  2  0  0  3  0  0  0  0  0  0
  180.0780  178.0780  140.2770 N   0  0  0  0  0  0  0  0  0  0  0  0
  178.9310  177.5200  140.9750 C   0  0  0  0  0  1  0  0  0  0  0  0
  182.2890  178.4390  141.3460 C   0  0  2  0  0  3  0  0  0  0  0  0
  181.1620  178.4390  138.1520 C   0  0  0  0  0  2  0  0  0  0  0  0
  187.5670  178.1010  142.2430 N   0  0  0  0  0  2  0  0  0  0  0  0
  182.4570  179.6070  143.6460 C   0  0  0  0  0  2  0  0  0  0  0  0
  180.5780  180.0850  142.1960 C   0  0  0  0  0  1  0  0  0  0  0  0
  181.5400  178.9810  142.5990 C   0  0  1  0  0  3  0  0  0  0  0  0
  181.9270  177.3890  138.9610 C   0  0  2  0  0  0  0  0  0  0  0  0
  185.3860  178.2530  143.3100 C   0  0  2  0  0  3  0  0  0  0  0  0
  184.6750  178.5680  146.9190 O   0  0  0  0  0  0  0  0  0  0  0  0
  185.1920  178.2590  145.8100 C   0  0  0  0  0  0  0  0  0  0  0  0
  187.3350  177.4560  146.7140 C   0  0  0  0  0  1  0  0  0  0  0  0
  186.2920  177.4030  145.7520 O   0  0  0  0  0  0  0  0  0  0  0  0
  1 23  1  0  0  0  0
  1  9  1  0  0  0  0
  2 19  1  0  0  0  0
  3 15  1  6  0  0  0
  3 17  1  0  0  0  0
  4  6  2  0  0  0  0
  6  2  1  0  0  0  0
  6 13  1  0  0  0  0
  8 14  1  0  0  0  0
  9  4  1  0  0  0  0
 11 15  1  0  0  0  0
 12 11  2  0  0  0  0
 13  7  1  6  0  0  0
 13 24  1  0  0  0  0
 14 26  1  1  0  0  0
 15 16  1  0  0  0  0
 17  7  1  1  0  0  0
 17 22  1  0  0  0  0
 18 23  1  0  0  0  0
 18 11  1  0  0  0  0
 19 10  1  0  0  0  0
 20  8  1  0  0  0  0
 22 21  1  6  0  0  0
 22 20  1  0  0  0  0
 23  5  1  6  0  0  0
 23  3  1  0  0  0  0
 24 10  1  6  0  0  0
 24 14  1  0  0  0  0
 26 25  2  0  0  0  0
 28 26  1  0  0  0  0
 28 27  1  0  0  0  0
M  END
>  <MODEL>
5

>  <REMARK>
 VINA RESULT:      -6.9      3.310      7.414
  Name = 
  2 active torsions:
  status: ('A' for Active; 'I' for Inactive)
    1  A    between atoms: O_9  and  C_18
    2  A    between atoms: C_17  and  C_18
                            x       y       z     vdW  Elec       q    Type
                         _______ _______ _______ _____ _____    ______ ____

>  <TORSDO>
F 2

$$$$
=
 OpenBabel11062413343D

 28 31  0  0  1  0  0  0  0  0999 V2000
  187.5500  177.8760  141.1500 C   0  0  0  0  0  2  0  0  0  0  0  0
  187.3760  178.0220  136.5580 C   0  0  0  0  0  2  0  0  0  0  0  0
  189.8630  176.7570  141.7900 C   0  0  2  0  0  3  0  0  0  0  0  0
  187.5540  178.6280  138.8640 N   0  0  0  0  0  0  0  0  0  0  0  0
  187.8380  176.6270  143.2270 C   0  0  0  0  0  1  0  0  0  0  0  0
  188.0420  177.9090  137.8970 C   0  0  0  0  0  0  0  0  0  0  0  0
  189.4220  176.3520  139.3570 C   0  0  0  0  0  2  0  0  0  0  0  0
  191.8470  175.4780  137.9220 C   0  0  0  0  0  2  0  0  0  0  0  0
  188.1140  178.6690  140.1200 O   0  0  0  0  0  0  0  0  0  0  0  0
  188.9430  176.5760  135.5780 C   0  0  0  0  0  2  0  0  0  0  0  0
  190.4060  178.3550  143.4050 C   0  0  0  0  0  0  0  0  0  0  0  0
  191.0850  178.9750  144.2650 O   0  0  0  0  0  0  0  0  0  0  0  0
  189.3410  177.1170  138.0350 C   0  0  1  0  0  3  0  0  0  0  0  0
  191.0850  175.8150  136.6450 C   0  0  2  0  0  3  0  0  0  0  0  0
  190.8530  177.1700  142.7730 N   0  0  0  0  0  0  0  0  0  0  0  0
  191.7100  176.2110  143.4520 C   0  0  0  0  0  1  0  0  0  0  0  0
  190.3470  177.0750  140.3440 C   0  0  2  0  0  3  0  0  0  0  0  0
  189.0500  178.7600  142.9810 C   0  0  0  0  0  2  0  0  0  0  0  0
  187.5210  176.7900  135.7940 N   0  0  0  0  0  2  0  0  0  0  0  0
  192.2480  176.7630  138.6220 C   0  0  0  0  0  2  0  0  0  0  0  0
  192.7290  177.7920  140.7600 C   0  0  0  0  0  1  0  0  0  0  0  0
  191.8490  176.7480  140.0950 C   0  0  1  0  0  3  0  0  0  0  0  0
  188.5680  177.5150  142.2330 C   0  0  2  0  0  0  0  0  0  0  0  0
  189.5880  176.1120  136.8830 C   0  0  2  0  0  3  0  0  0  0  0  0
  191.9020  174.8860  134.5940 O   0  0  0  0  0  0  0  0  0  0  0  0
  191.2620  174.6970  135.6650 C   0  0  0  0  0  0  0  0  0  0  0  0
  189.7600  172.8360  135.0890 C   0  0  0  0  0  1  0  0  0  0  0  0
  190.7060  173.4490  135.9510 O   0  0  0  0  0  0  0  0  0  0  0  0
  1 23  1  0  0  0  0
  2  6  1  0  0  0  0
  3 23  1  0  0  0  0
  3 15  1  1  0  0  0
  4  9  1  0  0  0  0
  6 13  1  0  0  0  0
  6  4  2  0  0  0  0
  8 20  1  0  0  0  0
  9  1  1  0  0  0  0
 10 19  1  0  0  0  0
 11 12  2  0  0  0  0
 13  7  1  1  0  0  0
 14 26  1  6  0  0  0
 14 24  1  0  0  0  0
 14  8  1  0  0  0  0
 15 11  1  0  0  0  0
 15 16  1  0  0  0  0
 17  7  1  6  0  0  0
 17  3  1  0  0  0  0
 18 11  1  0  0  0  0
 19  2  1  0  0  0  0
 20 22  1  0  0  0  0
 22 17  1  0  0  0  0
 22 21  1  1  0  0  0
 23 18  1  0  0  0  0
 23  5  1  1  0  0  0
 24 10  1  6  0  0  0
 24 13  1  0  0  0  0
 25 26  2  0  0  0  0
 26 28  1  0  0  0  0
 27 28  1  0  0  0  0
M  END
>  <MODEL>
6

>  <REMARK>
 VINA RESULT:      -6.8      3.743      7.747
  Name = 
  2 active torsions:
  status: ('A' for Active; 'I' for Inactive)
    1  A    between atoms: O_9  and  C_18
    2  A    between atoms: C_17  and  C_18
                            x       y       z     vdW  Elec       q    Type
                         _______ _______ _______ _____ _____    ______ ____

>  <TORSDO>
F 2

$$$$
=
 OpenBabel11062413343D

 28 31  0  0  1  0  0  0  0  0999 V2000
  186.8230  178.6080  139.5340 C   0  0  0  0  0  2  0  0  0  0  0  0
  183.4560  178.5820  142.6660 C   0  0  0  0  0  2  0  0  0  0  0  0
  189.0710  178.0760  140.8280 C   0  0  2  0  0  3  0  0  0  0  0  0
  184.9010  178.0030  140.8510 N   0  0  0  0  0  0  0  0  0  0  0  0
  188.9810  179.4250  138.7410 C   0  0  0  0  0  1  0  0  0  0  0  0
  184.8180  178.2670  142.1210 C   0  0  0  0  0  0  0  0  0  0  0  0
  187.3000  178.6570  142.5030 C   0  0  0  0  0  2  0  0  0  0  0  0
  188.0570  177.8550  145.2390 C   0  0  0  0  0  2  0  0  0  0  0  0
  186.0770  177.6310  140.2410 O   0  0  0  0  0  0  0  0  0  0  0  0
  184.2940  178.7590  144.8510 C   0  0  0  0  0  2  0  0  0  0  0  0
  189.8070  176.4860  139.2820 C   0  0  0  0  0  0  0  0  0  0  0  0
  190.5210  175.5830  138.7730 O   0  0  0  0  0  0  0  0  0  0  0  0
  185.9980  178.0970  143.0760 C   0  0  1  0  0  3  0  0  0  0  0  0
  186.5870  178.0520  145.5900 C   0  0  2  0  0  3  0  0  0  0  0  0
  190.1380  177.1450  140.4900 N   0  0  0  0  0  0  0  0  0  0  0  0
  191.5170  177.3790  140.8870 C   0  0  0  0  0  1  0  0  0  0  0  0
  188.1980  177.5220  141.9930 C   0  0  2  0  0  3  0  0  0  0  0  0
  188.5640  176.9960  138.6670 C   0  0  0  0  0  2  0  0  0  0  0  0
  183.5440  179.4630  143.8230 N   0  0  0  0  0  2  0  0  0  0  0  0
  188.2110  176.5960  144.4060 C   0  0  0  0  0  2  0  0  0  0  0  0
  189.5260  175.4960  142.6960 C   0  0  0  0  0  1  0  0  0  0  0  0
  189.0190  176.8580  143.1380 C   0  0  1  0  0  3  0  0  0  0  0  0
  188.3140  178.2720  139.4740 C   0  0  2  0  0  0  0  0  0  0  0  0
  185.7740  178.7360  144.4690 C   0  0  2  0  0  3  0  0  0  0  0  0
  185.4360  179.4520  147.1570 O   0  0  0  0  0  0  0  0  0  0  0  0
  186.4920  178.8230  146.8700 C   0  0  0  0  0  0  0  0  0  0  0  0
  187.7900  177.8220  148.7050 C   0  0  0  0  0  1  0  0  0  0  0  0
  187.5870  178.8380  147.7350 O   0  0  0  0  0  0  0  0  0  0  0  0
  1  9  1  0  0  0  0
  2 19  1  0  0  0  0
  3 15  1  6  0  0  0
  3 17  1  0  0  0  0
  4  6  2  0  0  0  0
  6  2  1  0  0  0  0
  6 13  1  0  0  0  0
  8 14  1  0  0  0  0
  9  4  1  0  0  0  0
 11 15  1  0  0  0  0
 12 11  2  0  0  0  0
 13  7  1  6  0  0  0
 13 24  1  0  0  0  0
 14 26  1  1  0  0  0
 15 16  1  0  0  0  0
 17  7  1  1  0  0  0
 17 22  1  0  0  0  0
 18 11  1  0  0  0  0
 18 23  1  0  0  0  0
 19 10  1  0  0  0  0
 20  8  1  0  0  0  0
 22 21  1  6  0  0  0
 22 20  1  0  0  0  0
 23  5  1  6  0  0  0
 23  1  1  0  0  0  0
 23  3  1  0  0  0  0
 24 10  1  1  0  0  0
 24 14  1  0  0  0  0
 26 25  2  0  0  0  0
 26 28  1  0  0  0  0
 28 27  1  0  0  0  0
M  END
>  <MODEL>
7

>  <REMARK>
 VINA RESULT:      -6.6      2.210      4.520
  Name = 
  2 active torsions:
  status: ('A' for Active; 'I' for Inactive)
    1  A    between atoms: O_9  and  C_18
    2  A    between atoms: C_17  and  C_18
                            x       y       z     vdW  Elec       q    Type
                         _______ _______ _______ _____ _____    ______ ____

>  <TORSDO>
F 2

$$$$
=
 OpenBabel11062413343D

 28 31  0  0  1  0  0  0  0  0999 V2000
  185.9030  177.7950  144.0860 C   0  0  0  0  0  2  0  0  0  0  0  0
  186.4570  178.7730  139.6270 C   0  0  0  0  0  2  0  0  0  0  0  0
  188.2690  177.0320  144.9980 C   0  0  2  0  0  3  0  0  0  0  0  0
  186.1160  178.9530  141.9870 N   0  0  0  0  0  0  0  0  0  0  0  0
  186.1150  176.2530  145.9650 C   0  0  0  0  0  1  0  0  0  0  0  0
  186.9030  178.5360  141.0400 C   0  0  0  0  0  0  0  0  0  0  0  0
  188.3340  177.0200  142.4930 C   0  0  0  0  0  2  0  0  0  0  0  0
  191.0930  176.9080  141.4570 C   0  0  0  0  0  2  0  0  0  0  0  0
  186.4390  178.8610  143.3220 O   0  0  0  0  0  0  0  0  0  0  0  0
  188.4440  177.8610  138.7730 C   0  0  0  0  0  2  0  0  0  0  0  0
  188.1740  178.3690  146.9120 C   0  0  0  0  0  0  0  0  0  0  0  0
  188.5480  178.9320  147.9740 O   0  0  0  0  0  0  0  0  0  0  0  0
  188.3040  177.9930  141.3140 C   0  0  1  0  0  3  0  0  0  0  0  0
  190.4960  177.3300  140.1190 C   0  0  2  0  0  3  0  0  0  0  0  0
  188.9690  177.4320  146.2100 N   0  0  0  0  0  0  0  0  0  0  0  0
  189.8930  176.5410  146.8940 C   0  0  0  0  0  1  0  0  0  0  0  0
  188.9010  177.7040  143.7440 C   0  0  2  0  0  3  0  0  0  0  0  0
  186.8500  178.5840  146.2920 C   0  0  0  0  0  2  0  0  0  0  0  0
  186.9940  177.7580  138.7300 N   0  0  0  0  0  2  0  0  0  0  0  0
  191.0810  178.0890  142.4090 C   0  0  0  0  0  2  0  0  0  0  0  0
  190.9650  178.7670  144.7300 C   0  0  0  0  0  1  0  0  0  0  0  0
  190.4580  177.7210  143.7520 C   0  0  1  0  0  3  0  0  0  0  0  0
  186.7850  177.4350  145.2830 C   0  0  2  0  0  0  0  0  0  0  0  0
  188.9520  177.2890  140.0960 C   0  0  2  0  0  3  0  0  0  0  0  0
  190.5540  175.3530  138.7680 O   0  0  0  0  0  0  0  0  0  0  0  0
  191.0740  176.4720  139.0370 C   0  0  0  0  0  0  0  0  0  0  0  0
  193.1100  176.0260  137.7330 C   0  0  0  0  0  1  0  0  0  0  0  0
  192.1930  176.9240  138.3380 O   0  0  0  0  0  0  0  0  0  0  0  0
  1 23  1  0  0  0  0
  2  6  1  0  0  0  0
  3 23  1  0  0  0  0
  3 15  1  1  0  0  0
  4  9  1  0  0  0  0
  6 13  1  0  0  0  0
  6  4  2  0  0  0  0
  8 20  1  0  0  0  0
  9  1  1  0  0  0  0
 11 12  2  0  0  0  0
 13  7  1  1  0  0  0
 14 26  1  6  0  0  0
 14  8  1  0  0  0  0
 15 16  1  0  0  0  0
 15 11  1  0  0  0  0
 17  7  1  6  0  0  0
 17 22  1  0  0  0  0
 17  3  1  0  0  0  0
 18 11  1  0  0  0  0
 19 10  1  0  0  0  0
 19  2  1  0  0  0  0
 20 22  1  0  0  0  0
 22 21  1  1  0  0  0
 23  5  1  1  0  0  0
 23 18  1  0  0  0  0
 24 10  1  6  0  0  0
 24 14  1  0  0  0  0
 24 13  1  0  0  0  0
 25 26  2  0  0  0  0
 27 28  1  0  0  0  0
 28 26  1  0  0  0  0
M  END
>  <MODEL>
8

>  <REMARK>
 VINA RESULT:      -6.6      2.504      6.658
  Name = 
  2 active torsions:
  status: ('A' for Active; 'I' for Inactive)
    1  A    between atoms: O_9  and  C_18
    2  A    between atoms: C_17  and  C_18
                            x       y       z     vdW  Elec       q    Type
                         _______ _______ _______ _____ _____    ______ ____

>  <TORSDO>
F 2

$$$$
=
 OpenBabel11062413343D

 28 31  0  0  1  0  0  0  0  0999 V2000
  190.6580  178.0530  142.9320 C   0  0  0  0  0  2  0  0  0  0  0  0
  186.8660  177.8780  140.3370 C   0  0  0  0  0  2  0  0  0  0  0  0
  189.8520  178.2540  145.4460 C   0  0  2  0  0  3  0  0  0  0  0  0
  188.8700  177.3010  141.5070 N   0  0  0  0  0  0  0  0  0  0  0  0
  192.0220  179.1540  144.6300 C   0  0  0  0  0  1  0  0  0  0  0  0
  187.6610  177.7670  141.6040 C   0  0  0  0  0  0  0  0  0  0  0  0
  187.9090  178.7370  143.9400 C   0  0  0  0  0  2  0  0  0  0  0  0
  185.3360  178.6220  145.3800 C   0  0  0  0  0  2  0  0  0  0  0  0
  189.6780  177.0850  142.5990 O   0  0  0  0  0  0  0  0  0  0  0  0
  184.9720  178.6210  141.5070 C   0  0  0  0  0  2  0  0  0  0  0  0
  191.3040  176.6040  146.2420 C   0  0  0  0  0  0  0  0  0  0  0  0
  191.8400  175.7970  147.0450 O   0  0  0  0  0  0  0  0  0  0  0  0
  186.9860  178.0260  142.9500 C   0  0  1  0  0  3  0  0  0  0  0  0
  184.6880  178.5620  144.0010 C   0  0  2  0  0  3  0  0  0  0  0  0
  190.3000  177.5260  146.6240 N   0  0  0  0  0  0  0  0  0  0  0  0
  190.2620  178.1160  147.9530 C   0  0  0  0  0  1  0  0  0  0  0  0
  188.4570  177.7470  144.9750 C   0  0  2  0  0  3  0  0  0  0  0  0
  191.6810  176.7190  144.8180 C   0  0  0  0  0  2  0  0  0  0  0  0
  185.8850  178.9520  140.4250 N   0  0  0  0  0  2  0  0  0  0  0  0
  186.0110  177.2960  145.6770 C   0  0  0  0  0  2  0  0  0  0  0  0
  187.8170  176.2100  146.8700 C   0  0  0  0  0  1  0  0  0  0  0  0
  187.4530  177.4900  146.1370 C   0  0  1  0  0  3  0  0  0  0  0  0
  191.0120  178.0370  144.4200 C   0  0  2  0  0  0  0  0  0  0  0  0
  185.6740  178.8430  142.8460 C   0  0  2  0  0  3  0  0  0  0  0  0
  183.7350  180.7590  143.9790 O   0  0  0  0  0  0  0  0  0  0  0  0
  183.5320  179.5130  143.9660 C   0  0  0  0  0  0  0  0  0  0  0  0
  181.4670  179.0030  142.7320 C   0  0  0  0  0  1  0  0  0  0  0  0
  182.2350  179.0030  143.9250 O   0  0  0  0  0  0  0  0  0  0  0  0
  1 23  1  0  0  0  0
  2 19  1  0  0  0  0
  2  6  1  0  0  0  0
  3 15  1  1  0  0  0
  4  6  2  0  0  0  0
  4  9  1  0  0  0  0
  6 13  1  0  0  0  0
  8 20  1  0  0  0  0
  9  1  1  0  0  0  0
 11 15  1  0  0  0  0
 11 12  2  0  0  0  0
 13  7  1  1  0  0  0
 14 26  1  1  0  0  0
 14  8  1  0  0  0  0
 15 16  1  0  0  0  0
 17  7  1  6  0  0  0
 17  3  1  0  0  0  0
 17 22  1  0  0  0  0
 18 11  1  0  0  0  0
 19 10  1  0  0  0  0
 20 22  1  0  0  0  0
 22 21  1  6  0  0  0
 23  5  1  1  0  0  0
 23 18  1  0  0  0  0
 23  3  1  0  0  0  0
 24 10  1  6  0  0  0
 24 13  1  0  0  0  0
 24 14  1  0  0  0  0
 26 25  2  0  0  0  0
 27 28  1  0  0  0  0
 28 26  1  0  0  0  0
M  END
>  <MODEL>
9

>  <REMARK>
 VINA RESULT:      -6.6      2.039      4.238
  Name = 
  2 active torsions:
  status: ('A' for Active; 'I' for Inactive)
    1  A    between atoms: O_9  and  C_18
    2  A    between atoms: C_17  and  C_18
                            x       y       z     vdW  Elec       q    Type
                         _______ _______ _______ _____ _____    ______ ____

>  <TORSDO>
F 2

$$$$
