=
 OpenBabel11062414243D

 45 48  0  0  1  0  0  0  0  0999 V2000
  183.1470  179.4010  139.5590 O   0  0  0  0  0  0  0  0  0  0  0  0
  182.2800  179.9950  143.1230 O   0  0  0  0  0  1  0  0  0  0  0  0
  183.9900  179.0260  141.7840 C   0  0  2  0  0  3  0  0  0  0  0  0
  183.9930  178.5610  140.3230 C   0  0  2  0  0  3  0  0  0  0  0  0
  181.5430  178.5390  141.3310 C   0  0  2  0  0  3  0  0  0  0  0  0
  186.2530  177.7690  140.5840 O   0  0  0  0  0  0  0  0  0  0  0  0
  185.0670  178.3330  142.6080 C   0  0  0  0  0  2  0  0  0  0  0  0
  185.4330  178.6130  139.8040 C   0  0  1  0  0  3  0  0  0  0  0  0
  182.6090  178.8400  142.4090 C   0  0  2  0  0  3  0  0  0  0  0  0
  186.3980  178.3820  141.8430 C   0  0  1  0  0  3  0  0  0  0  0  0
  181.7980  179.3960  140.0520 C   0  0  2  0  0  3  0  0  0  0  0  0
  179.7120  180.2060  138.6900 C   0  0  1  0  0  3  0  0  0  0  0  0
  181.2660  179.8230  135.4210 N   0  0  0  0  0  1  0  0  0  0  0  0
  181.4410  178.9660  137.6290 N   0  0  0  0  0  0  0  0  0  0  0  0
  180.8710  179.7540  136.7870 C   0  0  0  0  0  0  0  0  0  0  0  0
  179.8520  180.5180  137.3140 O   0  0  0  0  0  0  0  0  0  0  0  0
  180.7860  179.1100  138.9270 C   0  0  1  0  0  3  0  0  0  0  0  0
  179.1260  182.6700  138.9050 C   0  0  0  0  0  1  0  0  0  0  0  0
  179.8060  181.4740  139.5510 C   0  0  0  0  0  2  0  0  0  0  0  0
  179.8950  177.6250  142.9790 C   0  0  0  0  0  2  0  0  0  0  0  0
  179.9000  176.4350  140.9160 O   0  0  0  0  0  1  0  0  0  0  0  0
  179.2280  177.4330  141.6330 C   0  0  2  0  0  3  0  0  0  0  0  0
  180.1160  178.6580  141.8910 C   0  0  2  0  0  3  0  0  0  0  0  0
  187.5230  177.7270  142.6490 C   0  0  1  0  0  3  0  0  0  0  0  0
  188.8390  177.6470  141.8830 C   0  0  0  0  0  1  0  0  0  0  0  0
  187.6840  178.3140  144.0560 C   0  0  0  0  0  2  0  0  0  0  0  0
  188.3580  177.3710  145.0540 C   0  0  2  0  0  3  0  0  0  0  0  0
  186.3430  177.5840  146.3150 O   0  0  0  0  0  0  0  0  0  0  0  0
  187.5820  177.3450  146.3380 C   0  0  0  0  0  0  0  0  0  0  0  0
  188.4110  178.0760  148.5330 C   0  0  0  0  0  1  0  0  0  0  0  0
  188.2440  177.0780  147.5370 O   0  0  0  0  0  0  0  0  0  0  0  0
  189.6850  177.8220  145.2950 O   0  0  0  0  0  0  0  0  0  0  0  0
  190.7950  176.9700  145.2390 C   0  0  0  0  0  0  0  0  0  0  0  0
  191.5060  176.6100  146.4930 C   0  0  0  0  0  1  0  0  0  0  0  0
  191.2100  176.5200  144.1370 O   0  0  0  0  0  0  0  0  0  0  0  0
  185.5280  178.2630  138.3100 C   0  0  1  0  0  3  0  0  0  0  0  0
  186.9800  177.8950  137.9670 C   0  0  2  0  0  3  0  0  0  0  0  0
  187.5890  178.7820  136.9120 C   0  0  0  0  0  0  0  0  0  0  0  0
  188.5880  179.6930  137.2320 O   0  0  0  0  0  1  0  0  0  0  0  0
  187.2070  178.6790  135.7140 O   0  0  0  0  0  0  0  0  0  0  0  0
  187.0840  176.5470  137.5910 O   0  0  0  0  0  0  0  0  0  0  0  0
  188.4230  176.2100  137.8250 C   0  0  0  0  0  1  0  0  0  0  0  0
  184.5400  177.1650  137.8790 C   0  0  0  0  0  2  0  0  0  0  0  0
  183.4000  176.2000  135.9610 N   0  0  0  0  0  1  0  0  0  0  0  0
  184.1340  177.3610  136.4320 C   0  0  0  0  0  2  0  0  0  0  0  0
  3  9  1  0  0  0  0
  3  7  1  1  0  0  0
  4  1  1  6  0  0  0
  4  3  1  0  0  0  0
  5 23  1  1  0  0  0
  5  9  1  0  0  0  0
  6 10  1  0  0  0  0
  8 36  1  6  0  0  0
  8  4  1  0  0  0  0
  8  6  1  0  0  0  0
  9  2  1  6  0  0  0
 10  7  1  0  0  0  0
 10 24  1  1  0  0  0
 11  1  1  6  0  0  0
 11  5  1  0  0  0  0
 12 17  1  0  0  0  0
 12 19  1  1  0  0  0
 13 15  1  0  0  0  0
 15 16  1  0  0  0  0
 15 14  2  0  0  0  0
 16 12  1  0  0  0  0
 17 14  1  6  0  0  0
 17 11  1  0  0  0  0
 18 19  1  0  0  0  0
 22 21  1  6  0  0  0
 22 23  1  0  0  0  0
 22 20  1  0  0  0  0
 23 20  1  1  0  0  0
 24 25  1  6  0  0  0
 24 26  1  0  0  0  0
 27 26  1  6  0  0  0
 27 32  1  0  0  0  0
 27 29  1  0  0  0  0
 28 29  2  0  0  0  0
 29 31  1  0  0  0  0
 31 30  1  0  0  0  0
 33 32  1  0  0  0  0
 33 34  1  0  0  0  0
 35 33  2  0  0  0  0
 36 43  1  1  0  0  0
 37 38  1  6  0  0  0
 37 36  1  0  0  0  0
 38 39  1  0  0  0  0
 40 38  2  0  0  0  0
 41 42  1  0  0  0  0
 41 37  1  0  0  0  0
 44 45  1  0  0  0  0
 45 43  1  0  0  0  0
M  END
>  <MODEL>
1

>  <REMARK>
 VINA RESULT:      -5.8      0.000      0.000
  Name = 
  16 active torsions:
  status: ('A' for Active; 'I' for Inactive)
    1  A    between atoms: C_3  and  C_23
    2  A    between atoms: C_6  and  C_28
    3  A    between atoms: C_6  and  O_33
    4  A    between atoms: C_6  and  C_36
    5  A    between atoms: O_9  and  C_23
    6  A    between atoms: C_12  and  C_30
    7  A    between atoms: C_15  and  C_28
    8  A    between atoms: C_15  and  C_41
    9  A    between atoms: C_17  and  C_35
   10  A    between atoms: C_21  and  C_26
   11  A    between atoms: C_22  and  O_33
   12  A    between atoms: C_23  and  C_42
   13  A    between atoms: C_26  and  C_42
   14  A    between atoms: C_32  and  C_42
   15  A    between atoms: C_36  and  O_37
   16  A    between atoms: C_44  and  C_45
                            x       y       z     vdW  Elec       q    Type
                         _______ _______ _______ _____ _____    ______ ____

>  <TORSDO>
F 16

$$$$
=
 OpenBabel11062414243D

 45 48  0  0  1  0  0  0  0  0999 V2000
  183.1270  178.8840  138.6670 O   0  0  0  0  0  0  0  0  0  0  0  0
  180.9820  179.5830  141.6200 O   0  0  0  0  0  1  0  0  0  0  0  0
  183.1970  178.9130  141.0740 C   0  0  2  0  0  3  0  0  0  0  0  0
  183.7930  178.3300  139.7870 C   0  0  2  0  0  3  0  0  0  0  0  0
  181.1940  177.8430  139.9460 C   0  0  2  0  0  3  0  0  0  0  0  0
  185.9260  178.1000  140.8830 O   0  0  0  0  0  0  0  0  0  0  0  0
  184.0290  178.5590  142.3010 C   0  0  0  0  0  2  0  0  0  0  0  0
  185.2880  178.6620  139.7560 C   0  0  1  0  0  3  0  0  0  0  0  0
  181.7450  178.4740  141.2450 C   0  0  2  0  0  3  0  0  0  0  0  0
  185.5090  178.8410  142.0050 C   0  0  1  0  0  3  0  0  0  0  0  0
  181.7150  178.6160  138.6960 C   0  0  2  0  0  3  0  0  0  0  0  0
  180.7850  179.0240  136.2820 C   0  0  1  0  0  3  0  0  0  0  0  0
  183.3230  177.0340  134.5940 N   0  0  0  0  0  1  0  0  0  0  0  0
  182.2710  177.2190  136.7150 N   0  0  0  0  0  0  0  0  0  0  0  0
  182.4020  177.6280  135.5020 C   0  0  0  0  0  0  0  0  0  0  0  0
  181.5780  178.6780  135.1570 O   0  0  0  0  0  0  0  0  0  0  0  0
  181.2280  178.0080  137.3680 C   0  0  1  0  0  3  0  0  0  0  0  0
  179.8520  181.3690  135.9780 C   0  0  0  0  0  1  0  0  0  0  0  0
  180.9350  180.5150  136.6170 C   0  0  0  0  0  2  0  0  0  0  0  0
  179.2680  176.8040  141.1620 C   0  0  0  0  0  2  0  0  0  0  0  0
  180.2210  175.3580  139.5280 O   0  0  0  0  0  1  0  0  0  0  0  0
  179.1680  176.2520  139.7550 C   0  0  2  0  0  3  0  0  0  0  0  0
  179.6660  177.6840  139.9930 C   0  0  2  0  0  3  0  0  0  0  0  0
  186.3840  178.5340  143.2230 C   0  0  1  0  0  3  0  0  0  0  0  0
  185.5750  178.2220  144.4780 C   0  0  0  0  0  1  0  0  0  0  0  0
  187.4760  177.4960  142.9420 C   0  0  0  0  0  2  0  0  0  0  0  0
  188.6810  177.5840  143.8800 C   0  0  2  0  0  3  0  0  0  0  0  0
  190.0130  175.8780  142.8740 O   0  0  0  0  0  0  0  0  0  0  0  0
  189.9140  177.1000  143.1770 C   0  0  0  0  0  0  0  0  0  0  0  0
  191.5610  178.7740  143.9040 C   0  0  0  0  0  1  0  0  0  0  0  0
  190.9410  177.9990  142.8870 O   0  0  0  0  0  0  0  0  0  0  0  0
  188.4320  176.7890  145.0330 O   0  0  0  0  0  0  0  0  0  0  0  0
  188.7620  177.2080  146.3260 C   0  0  0  0  0  0  0  0  0  0  0  0
  190.1370  176.9800  146.8420 C   0  0  0  0  0  1  0  0  0  0  0  0
  187.9030  177.7580  147.0670 O   0  0  0  0  0  0  0  0  0  0  0  0
  185.9590  178.2090  138.4480 C   0  0  1  0  0  3  0  0  0  0  0  0
  187.4830  178.3430  138.5880 C   0  0  2  0  0  3  0  0  0  0  0  0
  188.1450  178.9440  137.3740 C   0  0  0  0  0  0  0  0  0  0  0  0
  189.3850  178.4930  136.9380 O   0  0  0  0  0  1  0  0  0  0  0  0
  187.5550  179.8520  136.7270 O   0  0  0  0  0  0  0  0  0  0  0  0
  188.0720  177.1100  138.9040 O   0  0  0  0  0  0  0  0  0  0  0  0
  189.1340  177.4260  139.7600 C   0  0  0  0  0  1  0  0  0  0  0  0
  185.5440  176.7930  138.0110 C   0  0  0  0  0  2  0  0  0  0  0  0
  186.5820  175.3200  136.3790 N   0  0  0  0  0  1  0  0  0  0  0  0
  185.8740  176.5760  136.5470 C   0  0  0  0  0  2  0  0  0  0  0  0
  3  9  1  0  0  0  0
  3  7  1  1  0  0  0
  4  1  1  6  0  0  0
  4  3  1  0  0  0  0
  5 23  1  1  0  0  0
  5  9  1  0  0  0  0
  6 10  1  0  0  0  0
  8 36  1  6  0  0  0
  8  4  1  0  0  0  0
  8  6  1  0  0  0  0
  9  2  1  6  0  0  0
 10  7  1  0  0  0  0
 10 24  1  1  0  0  0
 11  1  1  6  0  0  0
 11  5  1  0  0  0  0
 12 19  1  1  0  0  0
 12 17  1  0  0  0  0
 13 15  1  0  0  0  0
 15 14  2  0  0  0  0
 16 15  1  0  0  0  0
 16 12  1  0  0  0  0
 17 14  1  6  0  0  0
 17 11  1  0  0  0  0
 18 19  1  0  0  0  0
 22 21  1  1  0  0  0
 22 23  1  0  0  0  0
 22 20  1  0  0  0  0
 23 20  1  1  0  0  0
 24 25  1  1  0  0  0
 26 24  1  0  0  0  0
 27 26  1  6  0  0  0
 27 32  1  0  0  0  0
 28 29  2  0  0  0  0
 29 27  1  0  0  0  0
 31 29  1  0  0  0  0
 31 30  1  0  0  0  0
 32 33  1  0  0  0  0
 33 34  1  0  0  0  0
 33 35  2  0  0  0  0
 36 43  1  1  0  0  0
 36 37  1  0  0  0  0
 37 38  1  6  0  0  0
 37 41  1  0  0  0  0
 39 38  1  0  0  0  0
 40 38  2  0  0  0  0
 41 42  1  0  0  0  0
 44 45  1  0  0  0  0
 45 43  1  0  0  0  0
M  END
>  <MODEL>
2

>  <REMARK>
 VINA RESULT:      -5.7      1.689      2.562
  Name = 
  16 active torsions:
  status: ('A' for Active; 'I' for Inactive)
    1  A    between atoms: C_3  and  C_23
    2  A    between atoms: C_6  and  C_28
    3  A    between atoms: C_6  and  O_33
    4  A    between atoms: C_6  and  C_36
    5  A    between atoms: O_9  and  C_23
    6  A    between atoms: C_12  and  C_30
    7  A    between atoms: C_15  and  C_28
    8  A    between atoms: C_15  and  C_41
    9  A    between atoms: C_17  and  C_35
   10  A    between atoms: C_21  and  C_26
   11  A    between atoms: C_22  and  O_33
   12  A    between atoms: C_23  and  C_42
   13  A    between atoms: C_26  and  C_42
   14  A    between atoms: C_32  and  C_42
   15  A    between atoms: C_36  and  O_37
   16  A    between atoms: C_44  and  C_45
                            x       y       z     vdW  Elec       q    Type
                         _______ _______ _______ _____ _____    ______ ____

>  <TORSDO>
F 16

$$$$
=
 OpenBabel11062414243D

 45 48  0  0  1  0  0  0  0  0999 V2000
  184.5110  177.1710  138.5920 O   0  0  0  0  0  0  0  0  0  0  0  0
  188.0280  177.0480  139.7850 O   0  0  0  0  0  1  0  0  0  0  0  0
  185.8960  177.8810  140.4290 C   0  0  2  0  0  3  0  0  0  0  0  0
  184.6200  178.1390  139.6200 C   0  0  2  0  0  3  0  0  0  0  0  0
  186.7690  178.2130  138.0730 C   0  0  2  0  0  3  0  0  0  0  0  0
  183.5580  179.0380  141.5860 O   0  0  0  0  0  0  0  0  0  0  0  0
  185.9470  178.7200  141.7000 C   0  0  0  0  0  2  0  0  0  0  0  0
  183.4220  178.0660  140.5720 C   0  0  1  0  0  3  0  0  0  0  0  0
  187.1380  178.1030  139.5690 C   0  0  2  0  0  3  0  0  0  0  0  0
  184.6000  178.6120  142.4300 C   0  0  1  0  0  3  0  0  0  0  0  0
  185.6440  177.1970  137.7080 C   0  0  2  0  0  3  0  0  0  0  0  0
  185.6470  176.1080  135.3260 C   0  0  1  0  0  3  0  0  0  0  0  0
  182.0340  176.2050  134.8960 N   0  0  0  0  0  1  0  0  0  0  0  0
  183.7540  177.3210  136.0960 N   0  0  0  0  0  0  0  0  0  0  0  0
  183.3940  176.4070  135.2650 C   0  0  0  0  0  0  0  0  0  0  0  0
  184.4290  175.6470  134.7640 O   0  0  0  0  0  0  0  0  0  0  0  0
  185.2080  177.2880  136.2330 C   0  0  1  0  0  3  0  0  0  0  0  0
  185.9990  173.5930  135.4600 C   0  0  0  0  0  1  0  0  0  0  0  0
  186.4090  174.9560  135.9970 C   0  0  0  0  0  2  0  0  0  0  0  0
  189.0030  179.2090  137.5400 C   0  0  0  0  0  2  0  0  0  0  0  0
  187.2120  180.2940  136.4080 O   0  0  0  0  0  1  0  0  0  0  0  0
  188.2180  179.3330  136.2510 C   0  0  2  0  0  3  0  0  0  0  0  0
  188.0110  178.1230  137.1710 C   0  0  2  0  0  3  0  0  0  0  0  0
  184.6140  179.4120  143.7360 C   0  0  1  0  0  3  0  0  0  0  0  0
  183.3320  179.2560  144.5460 C   0  0  0  0  0  1  0  0  0  0  0  0
  185.8810  179.1910  144.5710 C   0  0  0  0  0  2  0  0  0  0  0  0
  185.7560  178.0830  145.6170 C   0  0  2  0  0  3  0  0  0  0  0  0
  185.7120  179.7670  147.3080 O   0  0  0  0  0  0  0  0  0  0  0  0
  186.1110  178.6170  146.9730 C   0  0  0  0  0  0  0  0  0  0  0  0
  188.1350  178.3160  148.3350 C   0  0  0  0  0  1  0  0  0  0  0  0
  186.8920  177.8450  147.8340 O   0  0  0  0  0  0  0  0  0  0  0  0
  186.6290  177.0150  145.2680 O   0  0  0  0  0  0  0  0  0  0  0  0
  187.8130  177.2110  144.5480 C   0  0  0  0  0  0  0  0  0  0  0  0
  188.0530  176.4290  143.3070 C   0  0  0  0  0  1  0  0  0  0  0  0
  188.6860  178.0270  144.9480 O   0  0  0  0  0  0  0  0  0  0  0  0
  182.0810  178.2080  139.8340 C   0  0  1  0  0  3  0  0  0  0  0  0
  181.3110  176.8810  139.9210 C   0  0  2  0  0  3  0  0  0  0  0  0
  181.1160  176.2140  138.5830 C   0  0  0  0  0  0  0  0  0  0  0  0
  180.2300  176.7340  137.6470 O   0  0  0  0  0  0  0  0  0  0  0  0
  181.7830  175.1830  138.2970 O   0  0  0  0  0  1  0  0  0  0  0  0
  180.0770  177.0540  140.5640 O   0  0  0  0  0  0  0  0  0  0  0  0
  179.6070  175.7560  140.7980 C   0  0  0  0  0  1  0  0  0  0  0  0
  181.2370  179.3960  140.3290 C   0  0  0  0  0  2  0  0  0  0  0  0
  181.7330  179.9620  138.0180 N   0  0  0  0  0  1  0  0  0  0  0  0
  181.0400  180.4040  139.2150 C   0  0  0  0  0  2  0  0  0  0  0  0
  3  7  1  1  0  0  0
  4  1  1  6  0  0  0
  4  3  1  0  0  0  0
  4  8  1  0  0  0  0
  5 23  1  6  0  0  0
  5  9  1  0  0  0  0
  6 10  1  0  0  0  0
  7 10  1  0  0  0  0
  8 36  1  6  0  0  0
  8  6  1  0  0  0  0
  9  2  1  6  0  0  0
  9  3  1  0  0  0  0
 10 24  1  1  0  0  0
 11  5  1  0  0  0  0
 11  1  1  1  0  0  0
 12 19  1  1  0  0  0
 12 17  1  0  0  0  0
 13 15  1  0  0  0  0
 15 14  2  0  0  0  0
 16 15  1  0  0  0  0
 16 12  1  0  0  0  0
 17 14  1  1  0  0  0
 17 11  1  0  0  0  0
 18 19  1  0  0  0  0
 22 21  1  1  0  0  0
 22 23  1  0  0  0  0
 22 20  1  0  0  0  0
 23 20  1  1  0  0  0
 24 25  1  1  0  0  0
 24 26  1  0  0  0  0
 27 26  1  6  0  0  0
 27 29  1  0  0  0  0
 29 28  2  0  0  0  0
 29 31  1  0  0  0  0
 31 30  1  0  0  0  0
 32 27  1  0  0  0  0
 33 35  2  0  0  0  0
 33 32  1  0  0  0  0
 34 33  1  0  0  0  0
 36 37  1  0  0  0  0
 36 43  1  1  0  0  0
 37 38  1  6  0  0  0
 37 41  1  0  0  0  0
 39 38  2  0  0  0  0
 40 38  1  0  0  0  0
 41 42  1  0  0  0  0
 44 45  1  0  0  0  0
 45 43  1  0  0  0  0
M  END
>  <MODEL>
3

>  <REMARK>
 VINA RESULT:      -5.3      1.933      5.934
  Name = 
  16 active torsions:
  status: ('A' for Active; 'I' for Inactive)
    1  A    between atoms: C_3  and  C_23
    2  A    between atoms: C_6  and  C_28
    3  A    between atoms: C_6  and  O_33
    4  A    between atoms: C_6  and  C_36
    5  A    between atoms: O_9  and  C_23
    6  A    between atoms: C_12  and  C_30
    7  A    between atoms: C_15  and  C_28
    8  A    between atoms: C_15  and  C_41
    9  A    between atoms: C_17  and  C_35
   10  A    between atoms: C_21  and  C_26
   11  A    between atoms: C_22  and  O_33
   12  A    between atoms: C_23  and  C_42
   13  A    between atoms: C_26  and  C_42
   14  A    between atoms: C_32  and  C_42
   15  A    between atoms: C_36  and  O_37
   16  A    between atoms: C_44  and  C_45
                            x       y       z     vdW  Elec       q    Type
                         _______ _______ _______ _____ _____    ______ ____

>  <TORSDO>
F 16

$$$$
=
 OpenBabel11062414243D

 45 48  0  0  1  0  0  0  0  0999 V2000
  189.1070  177.7580  139.9510 O   0  0  0  0  0  0  0  0  0  0  0  0
  186.6640  178.6680  137.3020 O   0  0  0  0  0  1  0  0  0  0  0  0
  186.7800  178.3030  139.6490 C   0  0  2  0  0  3  0  0  0  0  0  0
  187.8190  177.5790  140.5140 C   0  0  2  0  0  3  0  0  0  0  0  0
  187.8520  176.6810  138.0210 C   0  0  2  0  0  3  0  0  0  0  0  0
  186.4620  177.9680  142.4650 O   0  0  0  0  0  0  0  0  0  0  0  0
  185.4170  178.3690  140.3270 C   0  0  0  0  0  2  0  0  0  0  0  0
  187.7540  178.1580  141.9300 C   0  0  1  0  0  3  0  0  0  0  0  0
  186.6800  177.6590  138.2680 C   0  0  2  0  0  3  0  0  0  0  0  0
  185.5980  178.8410  141.7780 C   0  0  1  0  0  3  0  0  0  0  0  0
  189.1790  177.2550  138.6060 C   0  0  2  0  0  3  0  0  0  0  0  0
  191.0670  176.3510  137.0330 C   0  0  1  0  0  3  0  0  0  0  0  0
  193.7940  177.0040  139.3540 N   0  0  0  0  0  1  0  0  0  0  0  0
  191.4540  176.5960  139.3650 N   0  0  0  0  0  0  0  0  0  0  0  0
  192.5510  176.7400  138.7100 C   0  0  0  0  0  0  0  0  0  0  0  0
  192.4260  176.6160  137.3440 O   0  0  0  0  0  0  0  0  0  0  0  0
  190.3760  176.3050  138.4220 C   0  0  1  0  0  3  0  0  0  0  0  0
  190.5350  176.8370  134.5950 C   0  0  0  0  0  1  0  0  0  0  0  0
  190.5300  177.3700  136.0190 C   0  0  0  0  0  2  0  0  0  0  0  0
  186.6040  175.7530  136.0590 C   0  0  0  0  0  2  0  0  0  0  0  0
  187.4970  174.0600  137.4750 O   0  0  0  0  0  1  0  0  0  0  0  0
  187.7310  174.7680  136.2900 C   0  0  2  0  0  3  0  0  0  0  0  0
  187.9460  176.2660  136.5440 C   0  0  2  0  0  3  0  0  0  0  0  0
  184.2490  178.9580  142.4930 C   0  0  1  0  0  3  0  0  0  0  0  0
  184.3240  179.7680  143.7820 C   0  0  0  0  0  1  0  0  0  0  0  0
  183.1090  179.4050  141.5700 C   0  0  0  0  0  2  0  0  0  0  0  0
  181.9620  178.3980  141.4590 C   0  0  2  0  0  3  0  0  0  0  0  0
  182.4390  176.5560  140.0180 O   0  0  0  0  0  0  0  0  0  0  0  0
  181.9940  177.7330  140.1150 C   0  0  0  0  0  0  0  0  0  0  0  0
  180.2860  178.1690  138.4020 C   0  0  0  0  0  1  0  0  0  0  0  0
  181.5510  178.4310  138.9910 O   0  0  0  0  0  0  0  0  0  0  0  0
  180.7270  179.0800  141.6380 O   0  0  0  0  0  0  0  0  0  0  0  0
  180.3050  179.5670  142.8800 C   0  0  0  0  0  0  0  0  0  0  0  0
  180.2400  178.6460  144.0450 C   0  0  0  0  0  1  0  0  0  0  0  0
  179.9610  180.7720  143.0200 O   0  0  0  0  0  0  0  0  0  0  0  0
  188.8350  177.5670  142.8510 C   0  0  1  0  0  3  0  0  0  0  0  0
  188.5780  178.0300  144.2940 C   0  0  2  0  0  3  0  0  0  0  0  0
  189.8400  178.3610  145.0500 C   0  0  0  0  0  0  0  0  0  0  0  0
  190.1270  177.7510  146.2650 O   0  0  0  0  0  1  0  0  0  0  0  0
  190.6610  179.1840  144.5620 O   0  0  0  0  0  0  0  0  0  0  0  0
  187.8210  177.0840  145.0000 O   0  0  0  0  0  0  0  0  0  0  0  0
  186.8850  177.8360  145.7210 C   0  0  0  0  0  1  0  0  0  0  0  0
  188.9500  176.0370  142.7500 C   0  0  0  0  0  2  0  0  0  0  0  0
  191.1100  175.5480  143.7520 N   0  0  0  0  0  1  0  0  0  0  0  0
  190.3880  175.6320  142.4950 C   0  0  0  0  0  2  0  0  0  0  0  0
  3  7  1  1  0  0  0
  3  4  1  0  0  0  0
  4  1  1  6  0  0  0
  4  8  1  0  0  0  0
  5 23  1  6  0  0  0
  5  9  1  0  0  0  0
  5 11  1  0  0  0  0
  7 10  1  0  0  0  0
  8  6  1  0  0  0  0
  8 36  1  1  0  0  0
  9  2  1  6  0  0  0
  9  3  1  0  0  0  0
 10  6  1  0  0  0  0
 10 24  1  1  0  0  0
 11  1  1  1  0  0  0
 12 19  1  6  0  0  0
 12 16  1  0  0  0  0
 12 17  1  0  0  0  0
 15 13  1  0  0  0  0
 15 14  2  0  0  0  0
 16 15  1  0  0  0  0
 17 11  1  0  0  0  0
 17 14  1  1  0  0  0
 18 19  1  0  0  0  0
 20 22  1  0  0  0  0
 22 23  1  0  0  0  0
 22 21  1  1  0  0  0
 23 20  1  6  0  0  0
 24 25  1  1  0  0  0
 26 24  1  0  0  0  0
 27 26  1  6  0  0  0
 27 32  1  0  0  0  0
 28 29  2  0  0  0  0
 29 27  1  0  0  0  0
 30 31  1  0  0  0  0
 31 29  1  0  0  0  0
 32 33  1  0  0  0  0
 33 35  2  0  0  0  0
 33 34  1  0  0  0  0
 36 43  1  1  0  0  0
 36 37  1  0  0  0  0
 37 41  1  1  0  0  0
 37 38  1  0  0  0  0
 38 39  1  0  0  0  0
 40 38  2  0  0  0  0
 41 42  1  0  0  0  0
 45 43  1  0  0  0  0
 45 44  1  0  0  0  0
M  END
>  <MODEL>
4

>  <REMARK>
 VINA RESULT:      -5.0      3.338      8.923
  Name = 
  16 active torsions:
  status: ('A' for Active; 'I' for Inactive)
    1  A    between atoms: C_3  and  C_23
    2  A    between atoms: C_6  and  C_28
    3  A    between atoms: C_6  and  O_33
    4  A    between atoms: C_6  and  C_36
    5  A    between atoms: O_9  and  C_23
    6  A    between atoms: C_12  and  C_30
    7  A    between atoms: C_15  and  C_28
    8  A    between atoms: C_15  and  C_41
    9  A    between atoms: C_17  and  C_35
   10  A    between atoms: C_21  and  C_26
   11  A    between atoms: C_22  and  O_33
   12  A    between atoms: C_23  and  C_42
   13  A    between atoms: C_26  and  C_42
   14  A    between atoms: C_32  and  C_42
   15  A    between atoms: C_36  and  O_37
   16  A    between atoms: C_44  and  C_45
                            x       y       z     vdW  Elec       q    Type
                         _______ _______ _______ _____ _____    ______ ____

>  <TORSDO>
F 16

$$$$
=
 OpenBabel11062414243D

 45 48  0  0  1  0  0  0  0  0999 V2000
  190.4710  176.4340  138.7800 O   0  0  0  0  0  0  0  0  0  0  0  0
  187.9520  177.6590  136.3370 O   0  0  0  0  0  1  0  0  0  0  0  0
  188.2950  177.4630  138.6820 C   0  0  2  0  0  3  0  0  0  0  0  0
  189.2600  176.5940  139.4980 C   0  0  2  0  0  3  0  0  0  0  0  0
  188.7720  175.5190  137.1260 C   0  0  2  0  0  3  0  0  0  0  0  0
  188.2850  177.4300  141.5350 O   0  0  0  0  0  0  0  0  0  0  0  0
  187.0790  177.8870  139.4960 C   0  0  0  0  0  2  0  0  0  0  0  0
  189.5060  177.2820  140.8440 C   0  0  1  0  0  3  0  0  0  0  0  0
  187.8800  176.7510  137.3970 C   0  0  2  0  0  3  0  0  0  0  0  0
  187.5450  178.4180  140.8600 C   0  0  1  0  0  3  0  0  0  0  0  0
  190.2570  175.8240  137.4960 C   0  0  2  0  0  3  0  0  0  0  0  0
  191.9020  174.5510  135.9050 C   0  0  1  0  0  3  0  0  0  0  0  0
  194.6500  174.4130  138.2890 N   0  0  0  0  0  1  0  0  0  0  0  0
  192.2820  174.5930  138.2520 N   0  0  0  0  0  0  0  0  0  0  0  0
  193.3960  174.4910  137.6180 C   0  0  0  0  0  0  0  0  0  0  0  0
  193.2760  174.4600  136.2450 O   0  0  0  0  0  0  0  0  0  0  0  0
  191.1890  174.6170  137.2820 C   0  0  1  0  0  3  0  0  0  0  0  0
  192.9300  176.4720  134.5950 C   0  0  0  0  0  1  0  0  0  0  0  0
  191.6560  175.7140  134.9340 C   0  0  0  0  0  2  0  0  0  0  0  0
  187.1380  174.5620  135.4880 C   0  0  0  0  0  2  0  0  0  0  0  0
  188.1140  172.9090  136.8970 O   0  0  0  0  0  1  0  0  0  0  0  0
  188.2020  173.4930  135.6280 C   0  0  2  0  0  3  0  0  0  0  0  0
  188.5810  174.9780  135.6990 C   0  0  2  0  0  3  0  0  0  0  0  0
  186.3580  178.8910  141.7030 C   0  0  1  0  0  3  0  0  0  0  0  0
  185.1770  179.3630  140.8620 C   0  0  0  0  0  1  0  0  0  0  0  0
  185.9550  177.8960  142.7970 C   0  0  0  0  0  2  0  0  0  0  0  0
  185.8070  178.5180  144.1870 C   0  0  2  0  0  3  0  0  0  0  0  0
  187.2730  176.7490  144.8330 O   0  0  0  0  0  0  0  0  0  0  0  0
  186.7450  177.8520  145.1490 C   0  0  0  0  0  0  0  0  0  0  0  0
  185.9570  178.9530  147.2000 C   0  0  0  0  0  1  0  0  0  0  0  0
  187.0030  178.4480  146.3830 O   0  0  0  0  0  0  0  0  0  0  0  0
  184.4630  178.3600  144.6250 O   0  0  0  0  0  0  0  0  0  0  0  0
  183.4260  179.1990  144.2030 C   0  0  0  0  0  0  0  0  0  0  0  0
  182.0730  178.6300  143.9650 C   0  0  0  0  0  1  0  0  0  0  0  0
  183.6270  180.4270  144.0040 O   0  0  0  0  0  0  0  0  0  0  0  0
  190.5470  176.5380  141.6970 C   0  0  1  0  0  3  0  0  0  0  0  0
  191.6870  177.5020  142.0600 C   0  0  2  0  0  3  0  0  0  0  0  0
  191.3430  178.4340  143.1950 C   0  0  0  0  0  0  0  0  0  0  0  0
  190.1720  179.1810  143.1770 O   0  0  0  0  0  0  0  0  0  0  0  0
  192.1160  178.5200  144.1880 O   0  0  0  0  0  1  0  0  0  0  0  0
  192.1070  178.2330  140.9390 O   0  0  0  0  0  0  0  0  0  0  0  0
  193.1780  177.5020  140.4130 C   0  0  0  0  0  1  0  0  0  0  0  0
  189.9440  175.8650  142.9420 C   0  0  0  0  0  2  0  0  0  0  0  0
  191.7390  175.2850  144.4750 N   0  0  0  0  0  1  0  0  0  0  0  0
  190.8610  174.7660  143.4430 C   0  0  0  0  0  2  0  0  0  0  0  0
  3  7  1  1  0  0  0
  3  4  1  0  0  0  0
  4  1  1  6  0  0  0
  4  8  1  0  0  0  0
  5 23  1  6  0  0  0
  5  9  1  0  0  0  0
  5 11  1  0  0  0  0
  7 10  1  0  0  0  0
  8  6  1  0  0  0  0
  8 36  1  1  0  0  0
  9  2  1  6  0  0  0
  9  3  1  0  0  0  0
 10  6  1  0  0  0  0
 10 24  1  1  0  0  0
 11  1  1  1  0  0  0
 12 19  1  6  0  0  0
 12 16  1  0  0  0  0
 12 17  1  0  0  0  0
 15 14  2  0  0  0  0
 15 13  1  0  0  0  0
 16 15  1  0  0  0  0
 17 11  1  0  0  0  0
 17 14  1  1  0  0  0
 18 19  1  0  0  0  0
 20 22  1  0  0  0  0
 22 23  1  0  0  0  0
 22 21  1  1  0  0  0
 23 20  1  1  0  0  0
 24 25  1  6  0  0  0
 24 26  1  0  0  0  0
 27 26  1  6  0  0  0
 27 32  1  0  0  0  0
 27 29  1  0  0  0  0
 28 29  2  0  0  0  0
 29 31  1  0  0  0  0
 31 30  1  0  0  0  0
 33 32  1  0  0  0  0
 34 33  1  0  0  0  0
 35 33  2  0  0  0  0
 36 37  1  0  0  0  0
 36 43  1  1  0  0  0
 37 41  1  6  0  0  0
 37 38  1  0  0  0  0
 38 40  1  0  0  0  0
 39 38  2  0  0  0  0
 42 41  1  0  0  0  0
 43 45  1  0  0  0  0
 45 44  1  0  0  0  0
M  END
>  <MODEL>
5

>  <REMARK>
 VINA RESULT:      -5.0      4.341      8.715
  Name = 
  16 active torsions:
  status: ('A' for Active; 'I' for Inactive)
    1  A    between atoms: C_3  and  C_23
    2  A    between atoms: C_6  and  C_28
    3  A    between atoms: C_6  and  O_33
    4  A    between atoms: C_6  and  C_36
    5  A    between atoms: O_9  and  C_23
    6  A    between atoms: C_12  and  C_30
    7  A    between atoms: C_15  and  C_28
    8  A    between atoms: C_15  and  C_41
    9  A    between atoms: C_17  and  C_35
   10  A    between atoms: C_21  and  C_26
   11  A    between atoms: C_22  and  O_33
   12  A    between atoms: C_23  and  C_42
   13  A    between atoms: C_26  and  C_42
   14  A    between atoms: C_32  and  C_42
   15  A    between atoms: C_36  and  O_37
   16  A    between atoms: C_44  and  C_45
                            x       y       z     vdW  Elec       q    Type
                         _______ _______ _______ _____ _____    ______ ____

>  <TORSDO>
F 16

$$$$
=
 OpenBabel11062414243D

 45 48  0  0  1  0  0  0  0  0999 V2000
  185.9210  177.4890  136.5450 O   0  0  0  0  0  0  0  0  0  0  0  0
  184.7550  179.9130  139.1090 O   0  0  0  0  0  1  0  0  0  0  0  0
  186.4370  178.2670  138.7660 C   0  0  2  0  0  3  0  0  0  0  0  0
  186.5350  177.1100  137.7650 C   0  0  2  0  0  3  0  0  0  0  0  0
  184.0120  177.7950  138.1940 C   0  0  2  0  0  3  0  0  0  0  0  0
  188.6010  176.4080  138.7840 O   0  0  0  0  0  0  0  0  0  0  0  0
  187.2930  178.0280  140.0030 C   0  0  0  0  0  2  0  0  0  0  0  0
  188.0150  176.7790  137.5550 C   0  0  1  0  0  3  0  0  0  0  0  0
  184.9810  178.5350  139.1440 C   0  0  2  0  0  3  0  0  0  0  0  0
  188.6940  177.5740  139.5660 C   0  0  1  0  0  3  0  0  0  0  0  0
  184.5390  177.8400  136.7270 C   0  0  2  0  0  3  0  0  0  0  0  0
  183.3170  175.6090  136.1040 C   0  0  1  0  0  3  0  0  0  0  0  0
  180.0200  177.1090  135.7470 N   0  0  0  0  0  1  0  0  0  0  0  0
  182.3150  177.7100  135.6220 N   0  0  0  0  0  0  0  0  0  0  0  0
  181.4110  176.8160  135.8230 C   0  0  0  0  0  0  0  0  0  0  0  0
  181.9000  175.5600  136.1120 O   0  0  0  0  0  0  0  0  0  0  0  0
  183.6300  177.0850  135.7390 C   0  0  1  0  0  3  0  0  0  0  0  0
  183.7830  173.5670  137.5450 C   0  0  0  0  0  1  0  0  0  0  0  0
  183.8890  175.0790  137.4260 C   0  0  0  0  0  2  0  0  0  0  0  0
  182.3200  178.7270  139.7870 C   0  0  0  0  0  2  0  0  0  0  0  0
  182.4070  176.3480  139.8140 O   0  0  0  0  0  1  0  0  0  0  0  0
  181.7010  177.4370  139.2900 C   0  0  2  0  0  3  0  0  0  0  0  0
  182.5660  178.2920  138.3550 C   0  0  2  0  0  3  0  0  0  0  0  0
  189.6050  177.3550  140.7770 C   0  0  1  0  0  3  0  0  0  0  0  0
  191.0870  177.4960  140.4440 C   0  0  0  0  0  1  0  0  0  0  0  0
  189.1880  178.1680  142.0080 C   0  0  0  0  0  2  0  0  0  0  0  0
  189.2140  177.3790  143.3180 C   0  0  2  0  0  3  0  0  0  0  0  0
  186.8380  177.5880  143.4100 O   0  0  0  0  0  0  0  0  0  0  0  0
  187.9230  177.5710  144.0560 C   0  0  0  0  0  0  0  0  0  0  0  0
  186.7440  177.7520  146.2060 C   0  0  0  0  0  1  0  0  0  0  0  0
  187.9410  177.7470  145.4400 O   0  0  0  0  0  0  0  0  0  0  0  0
  190.3030  177.8340  144.1120 O   0  0  0  0  0  0  0  0  0  0  0  0
  191.2190  176.9620  144.7110 C   0  0  0  0  0  0  0  0  0  0  0  0
  191.6900  175.7670  143.9620 C   0  0  0  0  0  1  0  0  0  0  0  0
  191.6340  177.1640  145.8840 O   0  0  0  0  0  0  0  0  0  0  0  0
  188.2250  175.6960  136.4840 C   0  0  1  0  0  3  0  0  0  0  0  0
  189.6830  175.2140  136.5290 C   0  0  2  0  0  3  0  0  0  0  0  0
  190.6780  176.2810  136.1480 C   0  0  0  0  0  0  0  0  0  0  0  0
  191.6160  176.7430  137.0630 O   0  0  0  0  0  1  0  0  0  0  0  0
  190.6780  176.7450  134.9750 O   0  0  0  0  0  0  0  0  0  0  0  0
  189.8630  174.0740  135.7330 O   0  0  0  0  0  0  0  0  0  0  0  0
  190.9200  173.3790  136.3320 C   0  0  0  0  0  1  0  0  0  0  0  0
  187.2300  174.5280  136.5970 C   0  0  0  0  0  2  0  0  0  0  0  0
  186.6450  172.8080  134.9820 N   0  0  0  0  0  1  0  0  0  0  0  0
  186.6050  174.2350  135.2480 C   0  0  0  0  0  2  0  0  0  0  0  0
  3  9  1  0  0  0  0
  3  7  1  1  0  0  0
  4  1  1  6  0  0  0
  4  3  1  0  0  0  0
  5 23  1  6  0  0  0
  5  9  1  0  0  0  0
  6 10  1  0  0  0  0
  8 36  1  6  0  0  0
  8  4  1  0  0  0  0
  8  6  1  0  0  0  0
  9  2  1  6  0  0  0
 10  7  1  0  0  0  0
 10 24  1  1  0  0  0
 11  1  1  1  0  0  0
 11  5  1  0  0  0  0
 12 16  1  0  0  0  0
 12 19  1  1  0  0  0
 13 15  1  0  0  0  0
 14 15  2  0  0  0  0
 15 16  1  0  0  0  0
 17 14  1  1  0  0  0
 17 12  1  0  0  0  0
 17 11  1  0  0  0  0
 19 18  1  0  0  0  0
 22 20  1  0  0  0  0
 22 21  1  1  0  0  0
 23 22  1  0  0  0  0
 23 20  1  1  0  0  0
 24 25  1  6  0  0  0
 24 26  1  0  0  0  0
 27 26  1  6  0  0  0
 27 29  1  0  0  0  0
 27 32  1  0  0  0  0
 28 29  2  0  0  0  0
 29 31  1  0  0  0  0
 31 30  1  0  0  0  0
 32 33  1  0  0  0  0
 33 35  2  0  0  0  0
 34 33  1  0  0  0  0
 36 37  1  0  0  0  0
 36 43  1  1  0  0  0
 37 41  1  6  0  0  0
 38 37  1  0  0  0  0
 38 39  1  0  0  0  0
 40 38  2  0  0  0  0
 41 42  1  0  0  0  0
 44 45  1  0  0  0  0
 45 43  1  0  0  0  0
M  END
>  <MODEL>
6

>  <REMARK>
 VINA RESULT:      -4.4      2.482      4.104
  Name = 
  16 active torsions:
  status: ('A' for Active; 'I' for Inactive)
    1  A    between atoms: C_3  and  C_23
    2  A    between atoms: C_6  and  C_28
    3  A    between atoms: C_6  and  O_33
    4  A    between atoms: C_6  and  C_36
    5  A    between atoms: O_9  and  C_23
    6  A    between atoms: C_12  and  C_30
    7  A    between atoms: C_15  and  C_28
    8  A    between atoms: C_15  and  C_41
    9  A    between atoms: C_17  and  C_35
   10  A    between atoms: C_21  and  C_26
   11  A    between atoms: C_22  and  O_33
   12  A    between atoms: C_23  and  C_42
   13  A    between atoms: C_26  and  C_42
   14  A    between atoms: C_32  and  C_42
   15  A    between atoms: C_36  and  O_37
   16  A    between atoms: C_44  and  C_45
                            x       y       z     vdW  Elec       q    Type
                         _______ _______ _______ _____ _____    ______ ____

>  <TORSDO>
F 16

$$$$
=
 OpenBabel11062414243D

 45 48  0  0  1  0  0  0  0  0999 V2000
  184.6850  178.7930  140.9840 O   0  0  0  0  0  0  0  0  0  0  0  0
  188.2100  179.4800  141.9420 O   0  0  0  0  0  1  0  0  0  0  0  0
  186.9270  178.6610  140.1140 C   0  0  2  0  0  3  0  0  0  0  0  0
  185.4970  178.1140  140.0420 C   0  0  2  0  0  3  0  0  0  0  0  0
  186.5080  177.8380  142.4750 C   0  0  2  0  0  3  0  0  0  0  0  0
  185.8010  177.6360  137.7010 O   0  0  0  0  0  0  0  0  0  0  0  0
  187.7900  178.1620  138.9620 C   0  0  0  0  0  2  0  0  0  0  0  0
  184.9740  178.3200  138.6170 C   0  0  1  0  0  3  0  0  0  0  0  0
  187.5640  178.3370  141.4630 C   0  0  2  0  0  3  0  0  0  0  0  0
  187.0210  178.3360  137.6440 C   0  0  1  0  0  3  0  0  0  0  0  0
  185.1800  178.6430  142.3250 C   0  0  2  0  0  3  0  0  0  0  0  0
  184.0560  178.8390  144.6820 C   0  0  1  0  0  3  0  0  0  0  0  0
  180.6940  179.4210  143.4140 N   0  0  0  0  0  1  0  0  0  0  0  0
  182.7400  178.4150  142.7480 N   0  0  0  0  0  0  0  0  0  0  0  0
  182.0530  179.0540  143.6280 C   0  0  0  0  0  0  0  0  0  0  0  0
  182.7350  179.3460  144.7890 O   0  0  0  0  0  0  0  0  0  0  0  0
  184.0760  178.1640  143.2850 C   0  0  1  0  0  3  0  0  0  0  0  0
  185.8510  179.7440  146.2380 C   0  0  0  0  0  1  0  0  0  0  0  0
  185.0890  179.9460  144.9380 C   0  0  0  0  0  2  0  0  0  0  0  0
  188.5780  177.8240  143.8830 C   0  0  0  0  0  2  0  0  0  0  0  0
  187.9220  175.6470  143.1780 O   0  0  0  0  0  1  0  0  0  0  0  0
  187.8620  176.5420  144.2520 C   0  0  2  0  0  3  0  0  0  0  0  0
  187.0620  177.8060  143.9090 C   0  0  2  0  0  3  0  0  0  0  0  0
  187.8620  177.8800  136.4490 C   0  0  1  0  0  3  0  0  0  0  0  0
  189.2290  178.5540  136.3880 C   0  0  0  0  0  1  0  0  0  0  0  0
  187.9400  176.3560  136.3060 C   0  0  0  0  0  2  0  0  0  0  0  0
  189.3590  175.7910  136.3760 C   0  0  2  0  0  3  0  0  0  0  0  0
  188.4540  174.0370  135.0350 O   0  0  0  0  0  0  0  0  0  0  0  0
  189.4940  174.6260  135.4410 C   0  0  0  0  0  0  0  0  0  0  0  0
  191.3870  173.0720  135.6510 C   0  0  0  0  0  1  0  0  0  0  0  0
  190.7640  174.1990  135.0510 O   0  0  0  0  0  0  0  0  0  0  0  0
  189.6300  175.3800  137.7110 O   0  0  0  0  0  0  0  0  0  0  0  0
  190.7000  175.8870  138.4560 C   0  0  0  0  0  0  0  0  0  0  0  0
  191.9780  176.2170  137.7720 C   0  0  0  0  0  1  0  0  0  0  0  0
  190.6010  176.0510  139.7020 O   0  0  0  0  0  0  0  0  0  0  0  0
  183.5030  177.8970  138.4690 C   0  0  1  0  0  3  0  0  0  0  0  0
  182.6990  179.0610  137.8690 C   0  0  2  0  0  3  0  0  0  0  0  0
  182.3870  180.1490  138.8640 C   0  0  0  0  0  0  0  0  0  0  0  0
  182.9320  181.4210  138.7280 O   0  0  0  0  0  0  0  0  0  0  0  0
  181.6010  179.9130  139.8210 O   0  0  0  0  0  1  0  0  0  0  0  0
  181.5200  178.6010  137.2640 O   0  0  0  0  0  0  0  0  0  0  0  0
  181.1730  179.5990  136.3450 C   0  0  0  0  0  1  0  0  0  0  0  0
  183.3220  176.5980  137.6650 C   0  0  0  0  0  2  0  0  0  0  0  0
  182.4040  176.0580  139.8500 N   0  0  0  0  0  1  0  0  0  0  0  0
  182.6910  175.5260  138.5300 C   0  0  0  0  0  2  0  0  0  0  0  0
  3  7  1  6  0  0  0
  3  9  1  0  0  0  0
  4  3  1  0  0  0  0
  4  1  1  1  0  0  0
  5 23  1  1  0  0  0
  6  8  1  0  0  0  0
  8 36  1  1  0  0  0
  8  4  1  0  0  0  0
  9  2  1  1  0  0  0
  9  5  1  0  0  0  0
 10 24  1  6  0  0  0
 10  6  1  0  0  0  0
 10  7  1  0  0  0  0
 11  1  1  6  0  0  0
 11  5  1  0  0  0  0
 11 17  1  0  0  0  0
 12 16  1  0  0  0  0
 12 19  1  6  0  0  0
 13 15  1  0  0  0  0
 14 15  2  0  0  0  0
 15 16  1  0  0  0  0
 17 14  1  6  0  0  0
 17 12  1  0  0  0  0
 19 18  1  0  0  0  0
 20 22  1  0  0  0  0
 22 21  1  6  0  0  0
 23 20  1  6  0  0  0
 23 22  1  0  0  0  0
 24 25  1  1  0  0  0
 26 24  1  0  0  0  0
 27 26  1  1  0  0  0
 27 32  1  0  0  0  0
 28 29  2  0  0  0  0
 29 27  1  0  0  0  0
 31 29  1  0  0  0  0
 31 30  1  0  0  0  0
 32 33  1  0  0  0  0
 33 35  2  0  0  0  0
 34 33  1  0  0  0  0
 36 43  1  6  0  0  0
 37 41  1  1  0  0  0
 37 36  1  0  0  0  0
 37 38  1  0  0  0  0
 38 40  1  0  0  0  0
 39 38  2  0  0  0  0
 42 41  1  0  0  0  0
 43 45  1  0  0  0  0
 45 44  1  0  0  0  0
M  END
>  <MODEL>
7

>  <REMARK>
 VINA RESULT:      -4.4      2.674      7.077
  Name = 
  16 active torsions:
  status: ('A' for Active; 'I' for Inactive)
    1  A    between atoms: C_3  and  C_23
    2  A    between atoms: C_6  and  C_28
    3  A    between atoms: C_6  and  O_33
    4  A    between atoms: C_6  and  C_36
    5  A    between atoms: O_9  and  C_23
    6  A    between atoms: C_12  and  C_30
    7  A    between atoms: C_15  and  C_28
    8  A    between atoms: C_15  and  C_41
    9  A    between atoms: C_17  and  C_35
   10  A    between atoms: C_21  and  C_26
   11  A    between atoms: C_22  and  O_33
   12  A    between atoms: C_23  and  C_42
   13  A    between atoms: C_26  and  C_42
   14  A    between atoms: C_32  and  C_42
   15  A    between atoms: C_36  and  O_37
   16  A    between atoms: C_44  and  C_45
                            x       y       z     vdW  Elec       q    Type
                         _______ _______ _______ _____ _____    ______ ____

>  <TORSDO>
F 16

$$$$
=
 OpenBabel11062414243D

 45 48  0  0  1  0  0  0  0  0999 V2000
  182.9470  176.9240  138.4880 O   0  0  0  0  0  0  0  0  0  0  0  0
  184.5460  180.1310  139.4720 O   0  0  0  0  0  1  0  0  0  0  0  0
  185.0270  178.1220  138.2940 C   0  0  2  0  0  3  0  0  0  0  0  0
  184.3410  176.7510  138.3020 C   0  0  2  0  0  3  0  0  0  0  0  0
  183.8830  178.0670  140.5550 C   0  0  2  0  0  3  0  0  0  0  0  0
  186.0290  175.9010  136.8090 O   0  0  0  0  0  0  0  0  0  0  0  0
  186.4810  178.0320  137.8460 C   0  0  0  0  0  2  0  0  0  0  0  0
  184.6350  176.0570  136.9690 C   0  0  1  0  0  3  0  0  0  0  0  0
  184.9100  178.7950  139.6590 C   0  0  2  0  0  3  0  0  0  0  0  0
  186.5630  177.1810  136.5700 C   0  0  1  0  0  3  0  0  0  0  0  0
  182.6510  177.6070  139.7170 C   0  0  2  0  0  3  0  0  0  0  0  0
  180.3230  177.6300  140.9170 C   0  0  1  0  0  3  0  0  0  0  0  0
  179.0470  174.6560  139.2500 N   0  0  0  0  0  1  0  0  0  0  0  0
  181.1140  175.6560  139.8540 N   0  0  0  0  0  0  0  0  0  0  0  0
  179.8290  175.6910  139.8360 C   0  0  0  0  0  0  0  0  0  0  0  0
  179.2760  176.8040  140.4310 O   0  0  0  0  0  0  0  0  0  0  0  0
  181.6090  176.8400  140.5530 C   0  0  1  0  0  3  0  0  0  0  0  0
  179.2520  179.1380  139.1730 C   0  0  0  0  0  1  0  0  0  0  0  0
  180.1970  179.0550  140.3620 C   0  0  0  0  0  2  0  0  0  0  0  0
  184.7340  179.6670  142.2830 C   0  0  0  0  0  2  0  0  0  0  0  0
  185.1110  177.3890  142.8640 O   0  0  0  0  0  1  0  0  0  0  0  0
  184.2520  178.4730  143.0790 C   0  0  2  0  0  3  0  0  0  0  0  0
  183.5210  178.8960  141.7980 C   0  0  2  0  0  3  0  0  0  0  0  0
  188.0040  177.0900  136.0590 C   0  0  1  0  0  3  0  0  0  0  0  0
  188.1460  177.4910  134.5950 C   0  0  0  0  0  1  0  0  0  0  0  0
  189.0180  177.7880  136.9720 C   0  0  0  0  0  2  0  0  0  0  0  0
  189.8620  176.8320  137.8170 C   0  0  2  0  0  3  0  0  0  0  0  0
  189.4500  178.4550  139.5170 O   0  0  0  0  0  0  0  0  0  0  0  0
  189.9260  177.3210  139.2330 C   0  0  0  0  0  0  0  0  0  0  0  0
  190.3020  176.7490  141.5940 C   0  0  0  0  0  1  0  0  0  0  0  0
  190.5280  176.5260  140.2100 O   0  0  0  0  0  0  0  0  0  0  0  0
  191.1720  176.7580  137.2660 O   0  0  0  0  0  0  0  0  0  0  0  0
  191.7610  175.5500  136.8750 C   0  0  0  0  0  0  0  0  0  0  0  0
  191.0980  174.2660  137.2220 C   0  0  0  0  0  1  0  0  0  0  0  0
  192.8560  175.5360  136.2510 O   0  0  0  0  0  0  0  0  0  0  0  0
  183.9010  174.7130  136.8360 C   0  0  1  0  0  3  0  0  0  0  0  0
  182.4670  174.9650  136.3430 C   0  0  2  0  0  3  0  0  0  0  0  0
  181.6500  173.7060  136.2100 C   0  0  0  0  0  0  0  0  0  0  0  0
  181.4130  173.1340  134.9660 O   0  0  0  0  0  0  0  0  0  0  0  0
  181.1930  173.1470  137.2440 O   0  0  0  0  0  1  0  0  0  0  0  0
  182.4670  175.6760  135.1340 O   0  0  0  0  0  0  0  0  0  0  0  0
  181.3840  176.5570  135.2340 C   0  0  0  0  0  1  0  0  0  0  0  0
  184.6440  173.6990  135.9490 C   0  0  0  0  0  2  0  0  0  0  0  0
  185.4830  171.4200  135.8360 N   0  0  0  0  0  1  0  0  0  0  0  0
  184.8980  172.4160  136.7150 C   0  0  0  0  0  2  0  0  0  0  0  0
  3  7  1  1  0  0  0
  3  4  1  0  0  0  0
  3  9  1  0  0  0  0
  4  1  1  6  0  0  0
  5 23  1  1  0  0  0
  6  8  1  0  0  0  0
  8 36  1  1  0  0  0
  8  4  1  0  0  0  0
  9  2  1  6  0  0  0
  9  5  1  0  0  0  0
 10 24  1  1  0  0  0
 10  6  1  0  0  0  0
 10  7  1  0  0  0  0
 11  1  1  6  0  0  0
 11 17  1  0  0  0  0
 11  5  1  0  0  0  0
 12 19  1  6  0  0  0
 13 15  1  0  0  0  0
 15 14  2  0  0  0  0
 15 16  1  0  0  0  0
 16 12  1  0  0  0  0
 17 14  1  6  0  0  0
 17 12  1  0  0  0  0
 18 19  1  0  0  0  0
 20 22  1  0  0  0  0
 22 21  1  6  0  0  0
 23 20  1  6  0  0  0
 23 22  1  0  0  0  0
 24 25  1  6  0  0  0
 24 26  1  0  0  0  0
 27 26  1  6  0  0  0
 27 29  1  0  0  0  0
 29 28  2  0  0  0  0
 29 31  1  0  0  0  0
 31 30  1  0  0  0  0
 32 27  1  0  0  0  0
 33 34  1  0  0  0  0
 33 32  1  0  0  0  0
 35 33  2  0  0  0  0
 36 43  1  6  0  0  0
 37 41  1  6  0  0  0
 37 36  1  0  0  0  0
 38 37  1  0  0  0  0
 38 40  1  0  0  0  0
 39 38  2  0  0  0  0
 41 42  1  0  0  0  0
 43 45  1  0  0  0  0
 44 45  1  0  0  0  0
M  END
>  <MODEL>
8

>  <REMARK>
 VINA RESULT:      -4.4      3.134      5.908
  Name = 
  16 active torsions:
  status: ('A' for Active; 'I' for Inactive)
    1  A    between atoms: C_3  and  C_23
    2  A    between atoms: C_6  and  C_28
    3  A    between atoms: C_6  and  O_33
    4  A    between atoms: C_6  and  C_36
    5  A    between atoms: O_9  and  C_23
    6  A    between atoms: C_12  and  C_30
    7  A    between atoms: C_15  and  C_28
    8  A    between atoms: C_15  and  C_41
    9  A    between atoms: C_17  and  C_35
   10  A    between atoms: C_21  and  C_26
   11  A    between atoms: C_22  and  O_33
   12  A    between atoms: C_23  and  C_42
   13  A    between atoms: C_26  and  C_42
   14  A    between atoms: C_32  and  C_42
   15  A    between atoms: C_36  and  O_37
   16  A    between atoms: C_44  and  C_45
                            x       y       z     vdW  Elec       q    Type
                         _______ _______ _______ _____ _____    ______ ____

>  <TORSDO>
F 16

$$$$
=
 OpenBabel11062414243D

 45 48  0  0  1  0  0  0  0  0999 V2000
  183.1690  177.2910  136.8360 O   0  0  0  0  0  0  0  0  0  0  0  0
  183.0440  180.4350  138.8130 O   0  0  0  0  0  1  0  0  0  0  0  0
  184.4770  178.5850  138.3890 C   0  0  2  0  0  3  0  0  0  0  0  0
  184.1950  177.1950  137.8070 C   0  0  2  0  0  3  0  0  0  0  0  0
  182.0160  178.2410  138.8920 C   0  0  2  0  0  3  0  0  0  0  0  0
  186.4940  176.5780  138.1760 O   0  0  0  0  0  0  0  0  0  0  0  0
  185.7350  178.6020  139.2490 C   0  0  0  0  0  2  0  0  0  0  0  0
  185.4900  176.6610  137.1870 C   0  0  1  0  0  3  0  0  0  0  0  0
  183.2690  179.1020  139.1680 C   0  0  2  0  0  3  0  0  0  0  0  0
  186.8710  177.8970  138.4920 C   0  0  1  0  0  3  0  0  0  0  0  0
  181.9550  177.8260  137.3890 C   0  0  2  0  0  3  0  0  0  0  0  0
  179.8140  177.4440  135.9300 C   0  0  1  0  0  3  0  0  0  0  0  0
  180.7450  174.1050  134.8180 N   0  0  0  0  0  1  0  0  0  0  0  0
  181.1510  175.6020  136.6160 N   0  0  0  0  0  0  0  0  0  0  0  0
  180.5720  175.3440  135.4970 C   0  0  0  0  0  0  0  0  0  0  0  0
  179.7720  176.3590  135.0170 O   0  0  0  0  0  0  0  0  0  0  0  0
  180.7430  176.9330  137.0630 C   0  0  1  0  0  3  0  0  0  0  0  0
  179.2510  179.8800  135.4680 C   0  0  0  0  0  1  0  0  0  0  0  0
  180.2270  178.7400  135.2190 C   0  0  0  0  0  2  0  0  0  0  0  0
  180.8270  179.1370  140.9050 C   0  0  0  0  0  2  0  0  0  0  0  0
  180.4860  176.8020  140.5910 O   0  0  0  0  0  1  0  0  0  0  0  0
  179.9080  178.0580  140.3730 C   0  0  2  0  0  3  0  0  0  0  0  0
  180.7340  178.9170  139.4070 C   0  0  2  0  0  3  0  0  0  0  0  0
  188.1700  177.9190  139.3020 C   0  0  1  0  0  3  0  0  0  0  0  0
  189.3090  178.6370  138.5860 C   0  0  0  0  0  1  0  0  0  0  0  0
  187.9780  178.3930  140.7480 C   0  0  0  0  0  2  0  0  0  0  0  0
  188.6440  177.4980  141.7940 C   0  0  2  0  0  3  0  0  0  0  0  0
  188.0200  176.4350  143.8380 O   0  0  0  0  0  0  0  0  0  0  0  0
  187.7050  177.2650  142.9400 C   0  0  0  0  0  0  0  0  0  0  0  0
  185.8980  178.3330  144.2200 C   0  0  0  0  0  1  0  0  0  0  0  0
  186.4910  177.9520  142.9870 O   0  0  0  0  0  0  0  0  0  0  0  0
  189.8320  178.1290  142.2560 O   0  0  0  0  0  0  0  0  0  0  0  0
  191.0800  177.4960  142.2380 C   0  0  0  0  0  0  0  0  0  0  0  0
  191.4790  176.6280  143.3770 C   0  0  0  0  0  1  0  0  0  0  0  0
  191.8790  177.6670  141.2780 O   0  0  0  0  0  0  0  0  0  0  0  0
  185.2840  175.3110  136.4820 C   0  0  1  0  0  3  0  0  0  0  0  0
  186.6300  174.8220  135.9230 C   0  0  2  0  0  3  0  0  0  0  0  0
  187.2900  175.8130  134.9990 C   0  0  0  0  0  0  0  0  0  0  0  0
  186.6280  176.9680  134.5980 O   0  0  0  0  0  0  0  0  0  0  0  0
  188.4690  175.6080  134.6030 O   0  0  0  0  0  1  0  0  0  0  0  0
  186.4900  173.5800  135.2850 O   0  0  0  0  0  0  0  0  0  0  0  0
  187.7960  173.0920  135.1570 C   0  0  0  0  0  1  0  0  0  0  0  0
  184.6150  174.2530  137.3760 C   0  0  0  0  0  2  0  0  0  0  0  0
  184.0400  171.9280  136.9590 N   0  0  0  0  0  1  0  0  0  0  0  0
  183.7950  173.2950  136.5350 C   0  0  0  0  0  2  0  0  0  0  0  0
  3  9  1  0  0  0  0
  3  7  1  1  0  0  0
  4  1  1  6  0  0  0
  4  3  1  0  0  0  0
  5  9  1  0  0  0  0
  5 23  1  6  0  0  0
  6 10  1  0  0  0  0
  8 36  1  1  0  0  0
  8  4  1  0  0  0  0
  8  6  1  0  0  0  0
  9  2  1  6  0  0  0
 10  7  1  0  0  0  0
 10 24  1  1  0  0  0
 11  1  1  1  0  0  0
 11  5  1  0  0  0  0
 12 19  1  6  0  0  0
 12 17  1  0  0  0  0
 13 15  1  0  0  0  0
 15 14  2  0  0  0  0
 16 15  1  0  0  0  0
 16 12  1  0  0  0  0
 17 14  1  6  0  0  0
 17 11  1  0  0  0  0
 19 18  1  0  0  0  0
 22 21  1  1  0  0  0
 22 20  1  0  0  0  0
 23 22  1  0  0  0  0
 23 20  1  1  0  0  0
 24 25  1  6  0  0  0
 24 26  1  0  0  0  0
 27 26  1  6  0  0  0
 27 32  1  0  0  0  0
 27 29  1  0  0  0  0
 29 31  1  0  0  0  0
 29 28  2  0  0  0  0
 31 30  1  0  0  0  0
 33 32  1  0  0  0  0
 33 34  1  0  0  0  0
 35 33  2  0  0  0  0
 36 43  1  1  0  0  0
 37 38  1  6  0  0  0
 37 36  1  0  0  0  0
 39 38  2  0  0  0  0
 40 38  1  0  0  0  0
 41 37  1  0  0  0  0
 42 41  1  0  0  0  0
 45 44  1  0  0  0  0
 45 43  1  0  0  0  0
M  END
>  <MODEL>
9

>  <REMARK>
 VINA RESULT:      -4.3      2.521      3.641
  Name = 
  16 active torsions:
  status: ('A' for Active; 'I' for Inactive)
    1  A    between atoms: C_3  and  C_23
    2  A    between atoms: C_6  and  C_28
    3  A    between atoms: C_6  and  O_33
    4  A    between atoms: C_6  and  C_36
    5  A    between atoms: O_9  and  C_23
    6  A    between atoms: C_12  and  C_30
    7  A    between atoms: C_15  and  C_28
    8  A    between atoms: C_15  and  C_41
    9  A    between atoms: C_17  and  C_35
   10  A    between atoms: C_21  and  C_26
   11  A    between atoms: C_22  and  O_33
   12  A    between atoms: C_23  and  C_42
   13  A    between atoms: C_26  and  C_42
   14  A    between atoms: C_32  and  C_42
   15  A    between atoms: C_36  and  O_37
   16  A    between atoms: C_44  and  C_45
                            x       y       z     vdW  Elec       q    Type
                         _______ _______ _______ _____ _____    ______ ____

>  <TORSDO>
F 16

$$$$
