=
 OpenBabel11062415363D

 35 41  0  0  1  0  0  0  0  0999 V2000
  189.5910  177.4890  142.2540 N   0  0  0  0  0  0  0  0  0  0  0  0
  191.6290  177.8660  141.0980 C   0  0  0  0  0  2  0  0  0  0  0  0
  190.1310  176.7510  145.0520 N   0  0  0  0  0  2  0  0  0  0  0  0
  182.7540  178.9510  142.8890 C   0  0  0  0  0  0  0  0  0  0  0  0
  183.7530  178.4910  143.9440 C   0  0  0  0  0  2  0  0  0  0  0  0
  190.8270  178.2570  142.3260 C   0  0  2  0  0  3  0  0  0  0  0  0
  187.2480  177.8870  142.9200 C   0  0  0  0  0  0  0  0  0  0  0  0
  185.1070  178.2970  143.3410 C   0  0  0  0  0  0  0  0  0  0  0  0
  186.7930  178.2600  141.7160 C   0  0  0  0  0  3  0  0  0  0  0  0
  186.2460  177.9150  143.8850 C   0  0  0  0  0  0  0  0  0  0  0  0
  190.6470  177.1710  140.1640 C   0  0  2  0  0  3  0  0  0  0  0  0
  185.3790  178.5350  141.9550 C   0  0  0  0  0  0  0  0  0  0  0  0
  186.4940  177.5820  145.2120 C   0  0  0  0  0  3  0  0  0  0  0  0
  191.3120  176.6250  144.2100 C   0  0  0  0  0  2  0  0  0  0  0  0
  188.5630  177.5220  143.2560 C   0  0  0  0  0  0  0  0  0  0  0  0
  191.6440  177.9720  143.5880 C   0  0  0  0  0  2  0  0  0  0  0  0
  188.8330  177.1710  144.6080 C   0  0  0  0  0  0  0  0  0  0  0  0
  189.4400  176.7700  141.0040 C   0  0  0  0  0  2  0  0  0  0  0  0
  184.4320  178.9410  141.1230 C   0  0  0  0  0  3  0  0  0  0  0  0
  187.7980  177.2090  145.5620 C   0  0  0  0  0  3  0  0  0  0  0  0
  183.1000  179.1410  141.6370 N   0  0  0  0  0  0  0  0  0  0  0  0
  189.6450  176.6120  137.5600 O   0  0  0  0  0  1  0  0  0  0  0  0
  191.3300  176.0710  139.3210 C   0  0  1  0  0  3  0  0  0  0  0  0
  190.8070  174.3970  137.4040 C   0  0  0  0  0  2  0  0  0  0  0  0
  192.1720  175.3960  135.4520 C   0  0  0  0  0  2  0  0  0  0  0  0
  190.7400  175.8310  137.9350 C   0  0  1  0  0  0  0  0  0  0  0  0
  193.4690  175.4630  136.2740 C   0  0  2  0  0  3  0  0  0  0  0  0
  193.2690  175.7390  137.7740 C   0  0  0  0  0  2  0  0  0  0  0  0
  191.1850  174.3200  135.9190 C   0  0  0  0  0  2  0  0  0  0  0  0
  192.0460  176.6100  138.0770 C   0  0  2  0  0  3  0  0  0  0  0  0
  195.7530  176.1810  136.0260 O   0  0  0  0  0  1  0  0  0  0  0  0
  194.4350  176.4700  135.6630 C   0  0  0  0  0  2  0  0  0  0  0  0
  180.5540  180.1230  142.5750 N   0  0  0  0  0  1  0  0  0  0  0  0
  181.3600  179.1900  143.2900 C   0  0  0  0  0  0  0  0  0  0  0  0
  180.8650  178.5730  144.2700 O   0  0  0  0  0  0  0  0  0  0  0  0
  1  6  1  0  0  0  0
  1 15  1  0  0  0  0
  4 34  1  0  0  0  0
  4  5  1  0  0  0  0
  6  2  1  6  0  0  0
  6 16  1  0  0  0  0
  7 15  1  0  0  0  0
  7 10  1  0  0  0  0
  8 10  2  0  0  0  0
  8  5  1  0  0  0  0
  9 12  1  0  0  0  0
  9  7  2  0  0  0  0
 10 13  1  0  0  0  0
 11 18  1  1  0  0  0
 11  2  1  0  0  0  0
 12  8  1  0  0  0  0
 13 20  2  0  0  0  0
 14  3  1  0  0  0  0
 15 17  2  0  0  0  0
 16 14  1  0  0  0  0
 17  3  1  0  0  0  0
 17 20  1  0  0  0  0
 18  1  1  0  0  0  0
 19 21  1  0  0  0  0
 19 12  2  0  0  0  0
 21  4  2  0  0  0  0
 23 11  1  1  0  0  0
 24 26  1  0  0  0  0
 25 29  1  0  0  0  0
 25 27  1  0  0  0  0
 26 22  1  6  0  0  0
 26 30  1  0  0  0  0
 26 23  1  0  0  0  0
 27 32  1  6  0  0  0
 27 28  1  0  0  0  0
 29 24  1  0  0  0  0
 30 28  1  6  0  0  0
 30 23  1  0  0  0  0
 32 31  1  0  0  0  0
 33 34  1  0  0  0  0
 34 35  2  0  0  0  0
M  END
>  <MODEL>
1

>  <REMARK>
 VINA RESULT:      -9.8      0.000      0.000
  Name = 
  3 active torsions:
  status: ('A' for Active; 'I' for Inactive)
    1  A    between atoms: C_6  and  C_18
    2  A    between atoms: C_7  and  C_15
    3  A    between atoms: C_20  and  C_24
                            x       y       z     vdW  Elec       q    Type
                         _______ _______ _______ _____ _____    ______ ____

>  <TORSDO>
F 3

$$$$
=
 OpenBabel11062415363D

 35 41  0  0  1  0  0  0  0  0999 V2000
  189.5970  177.0570  138.8390 N   0  0  0  0  0  0  0  0  0  0  0  0
  188.6130  178.5340  140.4150 C   0  0  0  0  0  2  0  0  0  0  0  0
  187.7530  176.5960  136.5900 N   0  0  0  0  0  2  0  0  0  0  0  0
  195.4510  174.5490  135.8850 C   0  0  0  0  0  0  0  0  0  0  0  0
  194.0410  174.6540  135.3150 C   0  0  0  0  0  3  0  0  0  0  0  0
  188.9700  178.3690  138.9490 C   0  0  2  0  0  3  0  0  0  0  0  0
  191.3830  176.0900  137.4360 C   0  0  0  0  0  0  0  0  0  0  0  0
  193.1090  175.2530  136.3180 C   0  0  0  0  0  0  0  0  0  0  0  0
  192.3790  176.2140  138.3250 C   0  0  0  0  0  3  0  0  0  0  0  0
  191.8200  175.5240  136.2430 C   0  0  0  0  0  0  0  0  0  0  0  0
  189.4020  177.4640  141.1580 C   0  0  2  0  0  3  0  0  0  0  0  0
  193.5350  175.6670  137.6210 C   0  0  2  0  0  3  0  0  0  0  0  0
  190.9610  175.3160  135.1710 C   0  0  0  0  0  3  0  0  0  0  0  0
  187.0810  177.1720  137.7460 C   0  0  0  0  0  2  0  0  0  0  0  0
  190.0430  176.4800  137.6020 C   0  0  0  0  0  0  0  0  0  0  0  0
  187.7110  178.5110  138.0920 C   0  0  0  0  0  2  0  0  0  0  0  0
  189.1480  176.2680  136.5170 C   0  0  0  0  0  0  0  0  0  0  0  0
  189.8390  176.4330  140.1240 C   0  0  0  0  0  2  0  0  0  0  0  0
  194.7930  175.5340  138.0130 C   0  0  0  0  0  3  0  0  0  0  0  0
  189.6200  175.6920  135.3210 C   0  0  0  0  0  3  0  0  0  0  0  0
  195.7440  174.9560  137.0980 N   0  0  0  0  0  0  0  0  0  0  0  0
  190.0450  178.5630  143.7030 O   0  0  0  0  0  1  0  0  0  0  0  0
  188.6480  176.9510  142.4060 C   0  0  1  0  0  3  0  0  0  0  0  0
  188.9560  176.6960  144.9730 C   0  0  0  0  0  2  0  0  0  0  0  0
  187.2920  178.4550  145.8750 C   0  0  0  0  0  2  0  0  0  0  0  0
  189.0440  177.5890  143.7330 C   0  0  1  0  0  0  0  0  0  0  0  0
  186.1230  177.9090  145.0400 C   0  0  2  0  0  3  0  0  0  0  0  0
  186.5230  177.3230  143.6740 C   0  0  0  0  0  2  0  0  0  0  0  0
  188.3750  177.4170  146.1960 C   0  0  0  0  0  2  0  0  0  0  0  0
  187.7430  178.0080  143.0510 C   0  0  2  0  0  3  0  0  0  0  0  0
  184.1530  178.9450  145.9540 O   0  0  0  0  0  1  0  0  0  0  0  0
  185.0440  178.9710  144.8780 C   0  0  0  0  0  2  0  0  0  0  0  0
  197.6500  174.7560  134.6890 N   0  0  0  0  0  1  0  0  0  0  0  0
  196.5130  173.9750  135.0450 C   0  0  0  0  0  0  0  0  0  0  0  0
  196.4260  172.7880  134.6340 O   0  0  0  0  0  0  0  0  0  0  0  0
  1  6  1  0  0  0  0
  1 18  1  0  0  0  0
  2 11  1  0  0  0  0
  3 14  1  0  0  0  0
  4 21  1  0  0  0  0
  5  4  2  0  0  0  0
  5  8  1  0  0  0  0
  6 16  1  6  0  0  0
  6  2  1  0  0  0  0
  7 15  1  0  0  0  0
  7  9  2  0  0  0  0
  8 12  1  0  0  0  0
 10  8  2  0  0  0  0
 10  7  1  0  0  0  0
 11 18  1  6  0  0  0
 12 19  1  6  0  0  0
 12  9  1  0  0  0  0
 13 20  2  0  0  0  0
 13 10  1  0  0  0  0
 14 16  1  0  0  0  0
 15  1  1  0  0  0  0
 17  3  1  0  0  0  0
 17 15  2  0  0  0  0
 20 17  1  0  0  0  0
 21 19  2  0  0  0  0
 23 11  1  6  0  0  0
 23 30  1  0  0  0  0
 23 26  1  0  0  0  0
 24 29  1  0  0  0  0
 25 29  1  0  0  0  0
 26 22  1  6  0  0  0
 26 24  1  0  0  0  0
 27 32  1  6  0  0  0
 27 25  1  0  0  0  0
 28 27  1  0  0  0  0
 30 28  1  1  0  0  0
 30 26  1  0  0  0  0
 32 31  1  0  0  0  0
 33 34  1  0  0  0  0
 34  4  1  0  0  0  0
 35 34  2  0  0  0  0
M  END
>  <MODEL>
2

>  <REMARK>
 VINA RESULT:      -7.9      3.385     10.573
  Name = 
  3 active torsions:
  status: ('A' for Active; 'I' for Inactive)
    1  A    between atoms: C_6  and  C_18
    2  A    between atoms: C_7  and  C_15
    3  A    between atoms: C_20  and  C_24
                            x       y       z     vdW  Elec       q    Type
                         _______ _______ _______ _____ _____    ______ ____

>  <TORSDO>
F 3

$$$$
=
 OpenBabel11062415363D

 35 41  0  0  1  0  0  0  0  0999 V2000
  182.9970  178.6290  141.5610 N   0  0  0  0  0  0  0  0  0  0  0  0
  181.5300  178.1860  139.7490 C   0  0  0  0  0  2  0  0  0  0  0  0
  181.4550  179.3520  143.9630 N   0  0  0  0  0  2  0  0  0  0  0  0
  189.1760  177.3880  144.6550 C   0  0  0  0  0  0  0  0  0  0  0  0
  187.8480  177.8170  145.2690 C   0  0  0  0  0  2  0  0  0  0  0  0
  181.8420  177.8220  141.1890 C   0  0  2  0  0  3  0  0  0  0  0  0
  184.9480  178.3070  143.0380 C   0  0  0  0  0  0  0  0  0  0  0  0
  186.8010  177.9670  144.2130 C   0  0  0  0  0  0  0  0  0  0  0  0
  185.8210  177.9480  142.0860 C   0  0  0  0  0  3  0  0  0  0  0  0
  185.5310  178.3130  144.3010 C   0  0  0  0  0  0  0  0  0  0  0  0
  182.7640  178.9100  139.2260 C   0  0  2  0  0  3  0  0  0  0  0  0
  187.0590  177.7180  142.8260 C   0  0  0  0  0  0  0  0  0  0  0  0
  184.8080  178.6380  145.4420 C   0  0  0  0  0  3  0  0  0  0  0  0
  180.6580  179.4390  142.7470 C   0  0  0  0  0  2  0  0  0  0  0  0
  183.5910  178.6300  142.8690 C   0  0  0  0  0  0  0  0  0  0  0  0
  180.6150  178.0820  142.0650 C   0  0  0  0  0  2  0  0  0  0  0  0
  182.8380  178.9730  144.0250 C   0  0  0  0  0  0  0  0  0  0  0  0
  183.5710  179.3510  140.4420 C   0  0  0  0  0  2  0  0  0  0  0  0
  188.2550  177.3430  142.4010 C   0  0  0  0  0  3  0  0  0  0  0  0
  183.4560  178.9700  145.2910 C   0  0  0  0  0  3  0  0  0  0  0  0
  189.3140  177.1860  143.3650 N   0  0  0  0  0  0  0  0  0  0  0  0
  180.4060  178.5770  137.6690 O   0  0  0  0  0  1  0  0  0  0  0  0
  182.4020  179.9870  138.1790 C   0  0  1  0  0  3  0  0  0  0  0  0
  181.1040  180.2570  135.9440 C   0  0  0  0  0  2  0  0  0  0  0  0
  179.0740  181.6710  136.6880 C   0  0  0  0  0  2  0  0  0  0  0  0
  181.1220  179.7410  137.3850 C   0  0  1  0  0  0  0  0  0  0  0  0
  179.9500  182.7360  137.3660 C   0  0  2  0  0  3  0  0  0  0  0  0
  181.2480  182.2000  137.9940 C   0  0  0  0  0  2  0  0  0  0  0  0
  179.7720  180.9100  135.5540 C   0  0  0  0  0  2  0  0  0  0  0  0
  181.1250  180.7660  138.5190 C   0  0  2  0  0  3  0  0  0  0  0  0
  179.2470  184.8950  138.1630 O   0  0  0  0  0  1  0  0  0  0  0  0
  179.1380  183.5200  138.3890 C   0  0  0  0  0  2  0  0  0  0  0  0
  190.1470  176.8270  146.9020 N   0  0  0  0  0  1  0  0  0  0  0  0
  190.3350  177.1940  145.5380 C   0  0  0  0  0  0  0  0  0  0  0  0
  191.5040  177.3520  145.0970 O   0  0  0  0  0  0  0  0  0  0  0  0
  1 15  1  0  0  0  0
  3 17  1  0  0  0  0
  4  5  1  0  0  0  0
  4 34  1  0  0  0  0
  6  2  1  6  0  0  0
  6  1  1  0  0  0  0
  6 16  1  0  0  0  0
  7 10  1  0  0  0  0
  8 10  2  0  0  0  0
  8  5  1  0  0  0  0
  9 12  1  0  0  0  0
  9  7  2  0  0  0  0
 10 13  1  0  0  0  0
 11  2  1  1  0  0  0
 11 18  1  0  0  0  0
 12  8  1  0  0  0  0
 14  3  1  0  0  0  0
 15  7  1  0  0  0  0
 15 17  2  0  0  0  0
 16 14  1  0  0  0  0
 17 20  1  0  0  0  0
 18  1  1  0  0  0  0
 19 12  2  0  0  0  0
 19 21  1  0  0  0  0
 20 13  2  0  0  0  0
 21  4  2  0  0  0  0
 23 30  1  0  0  0  0
 23 11  1  1  0  0  0
 24 26  1  0  0  0  0
 25 27  1  0  0  0  0
 26 22  1  1  0  0  0
 26 23  1  0  0  0  0
 26 30  1  0  0  0  0
 27 28  1  0  0  0  0
 27 32  1  1  0  0  0
 29 24  1  0  0  0  0
 29 25  1  0  0  0  0
 30 28  1  6  0  0  0
 31 32  1  0  0  0  0
 34 33  1  0  0  0  0
 35 34  2  0  0  0  0
M  END
>  <MODEL>
3

>  <REMARK>
 VINA RESULT:      -7.8      4.535      9.633
  Name = 
  3 active torsions:
  status: ('A' for Active; 'I' for Inactive)
    1  A    between atoms: C_6  and  C_18
    2  A    between atoms: C_7  and  C_15
    3  A    between atoms: C_20  and  C_24
                            x       y       z     vdW  Elec       q    Type
                         _______ _______ _______ _____ _____    ______ ____

>  <TORSDO>
F 3

$$$$
=
 OpenBabel11062415363D

 35 41  0  0  1  0  0  0  0  0999 V2000
  187.4620  178.0010  142.4170 N   0  0  0  0  0  0  0  0  0  0  0  0
  185.7810  179.3830  141.4690 C   0  0  0  0  0  2  0  0  0  0  0  0
  189.0670  176.7490  140.2910 N   0  0  0  0  0  2  0  0  0  0  0  0
  191.7510  176.7130  147.8230 C   0  0  0  0  0  0  0  0  0  0  0  0
  191.9090  176.3590  146.3490 C   0  0  0  0  0  3  0  0  0  0  0  0
  187.2730  179.1040  141.4820 C   0  0  2  0  0  3  0  0  0  0  0  0
  189.2360  177.3420  144.0010 C   0  0  0  0  0  0  0  0  0  0  0  0
  190.7310  176.8330  145.5620 C   0  0  0  0  0  0  0  0  0  0  0  0
  188.6730  177.8520  145.1050 C   0  0  0  0  0  3  0  0  0  0  0  0
  190.4610  176.7420  144.2740 C   0  0  0  0  0  0  0  0  0  0  0  0
  185.2150  178.6780  142.6940 C   0  0  2  0  0  3  0  0  0  0  0  0
  189.6310  177.5310  146.1590 C   0  0  2  0  0  3  0  0  0  0  0  0
  191.2330  176.1610  143.2750 C   0  0  0  0  0  3  0  0  0  0  0  0
  187.8120  177.2900  139.7890 C   0  0  0  0  0  2  0  0  0  0  0  0
  188.7300  177.3860  142.6910 C   0  0  0  0  0  0  0  0  0  0  0  0
  187.7520  178.7840  140.0650 C   0  0  0  0  0  2  0  0  0  0  0  0
  189.5040  176.7900  141.6570 C   0  0  0  0  0  0  0  0  0  0  0  0
  186.2550  177.6580  143.1430 C   0  0  0  0  0  2  0  0  0  0  0  0
  189.5990  177.7910  147.4560 C   0  0  0  0  0  3  0  0  0  0  0  0
  190.7410  176.1900  141.9640 C   0  0  0  0  0  3  0  0  0  0  0  0
  190.7000  177.3560  148.2770 N   0  0  0  0  0  0  0  0  0  0  0  0
  183.0580  180.0350  143.9600 O   0  0  0  0  0  1  0  0  0  0  0  0
  183.7730  178.1740  142.4570 C   0  0  1  0  0  3  0  0  0  0  0  0
  181.4410  178.1520  143.6030 C   0  0  0  0  0  2  0  0  0  0  0  0
  180.1020  179.7610  142.0890 C   0  0  0  0  0  2  0  0  0  0  0  0
  182.6700  178.9540  143.1660 C   0  0  1  0  0  0  0  0  0  0  0  0
  180.4910  179.0180  140.8020 C   0  0  2  0  0  3  0  0  0  0  0  0
  181.8920  178.3830  140.8200 C   0  0  0  0  0  2  0  0  0  0  0  0
  180.1190  178.8880  143.3500 C   0  0  0  0  0  2  0  0  0  0  0  0
  182.9020  179.1600  141.6700 C   0  0  2  0  0  3  0  0  0  0  0  0
  180.0040  181.2290  139.9860 O   0  0  0  0  0  1  0  0  0  0  0  0
  180.3250  179.9280  139.5910 C   0  0  0  0  0  2  0  0  0  0  0  0
  193.4350  177.2970  149.5940 N   0  0  0  0  0  1  0  0  0  0  0  0
  192.8120  176.3210  148.7640 C   0  0  0  0  0  0  0  0  0  0  0  0
  193.1790  175.1180  148.8430 O   0  0  0  0  0  0  0  0  0  0  0  0
  1 15  1  0  0  0  0
  1 18  1  0  0  0  0
  2  6  1  0  0  0  0
  3 17  1  0  0  0  0
  4 21  1  0  0  0  0
  4 34  1  0  0  0  0
  5  4  2  0  0  0  0
  6 16  1  6  0  0  0
  6  1  1  0  0  0  0
  7 10  1  0  0  0  0
  7  9  2  0  0  0  0
  8 12  1  0  0  0  0
  8  5  1  0  0  0  0
 10  8  2  0  0  0  0
 11  2  1  6  0  0  0
 11 18  1  0  0  0  0
 12  9  1  6  0  0  0
 12 19  1  0  0  0  0
 13 10  1  0  0  0  0
 14 16  1  0  0  0  0
 14  3  1  0  0  0  0
 15  7  1  0  0  0  0
 17 20  1  0  0  0  0
 17 15  2  0  0  0  0
 19 21  2  0  0  0  0
 20 13  2  0  0  0  0
 23 11  1  1  0  0  0
 23 26  1  0  0  0  0
 25 29  1  0  0  0  0
 26 24  1  0  0  0  0
 26 22  1  1  0  0  0
 27 32  1  6  0  0  0
 27 28  1  0  0  0  0
 27 25  1  0  0  0  0
 29 24  1  0  0  0  0
 30 28  1  6  0  0  0
 30 23  1  0  0  0  0
 30 26  1  0  0  0  0
 32 31  1  0  0  0  0
 34 35  2  0  0  0  0
 34 33  1  0  0  0  0
M  END
>  <MODEL>
4

>  <REMARK>
 VINA RESULT:      -7.5      4.319      9.396
  Name = 
  3 active torsions:
  status: ('A' for Active; 'I' for Inactive)
    1  A    between atoms: C_6  and  C_18
    2  A    between atoms: C_7  and  C_15
    3  A    between atoms: C_20  and  C_24
                            x       y       z     vdW  Elec       q    Type
                         _______ _______ _______ _____ _____    ______ ____

>  <TORSDO>
F 3

$$$$
=
 OpenBabel11062415363D

 35 41  0  0  1  0  0  0  0  0999 V2000
  188.0230  177.7590  138.7370 N   0  0  0  0  0  0  0  0  0  0  0  0
  186.8760  178.6290  136.8500 C   0  0  0  0  0  2  0  0  0  0  0  0
  190.8000  177.0930  138.0210 N   0  0  0  0  0  2  0  0  0  0  0  0
  188.7020  177.5750  145.7220 C   0  0  0  0  0  0  0  0  0  0  0  0
  189.7440  177.3320  144.6360 C   0  0  0  0  0  3  0  0  0  0  0  0
  188.1150  178.7910  137.7120 C   0  0  2  0  0  3  0  0  0  0  0  0
  188.7020  177.5840  141.1030 C   0  0  0  0  0  0  0  0  0  0  0  0
  189.1350  177.4740  143.2790 C   0  0  0  0  0  0  0  0  0  0  0  0
  187.5080  177.8730  141.6410 C   0  0  0  0  0  3  0  0  0  0  0  0
  189.6670  177.3530  142.0780 C   0  0  0  0  0  0  0  0  0  0  0  0
  185.9240  177.7500  137.6500 C   0  0  2  0  0  3  0  0  0  0  0  0
  187.7550  177.8050  143.0790 C   0  0  2  0  0  3  0  0  0  0  0  0
  190.9840  177.0520  141.7500 C   0  0  0  0  0  3  0  0  0  0  0  0
  189.9540  177.2670  136.8480 C   0  0  0  0  0  2  0  0  0  0  0  0
  189.0260  177.5250  139.7370 C   0  0  0  0  0  0  0  0  0  0  0  0
  189.3680  178.6700  136.8430 C   0  0  0  0  0  2  0  0  0  0  0  0
  190.3680  177.2120  139.3840 C   0  0  0  0  0  0  0  0  0  0  0  0
  186.7540  177.0580  138.7260 C   0  0  0  0  0  2  0  0  0  0  0  0
  186.9360  178.0010  144.1000 C   0  0  0  0  0  3  0  0  0  0  0  0
  191.3240  176.9830  140.3930 C   0  0  0  0  0  3  0  0  0  0  0  0
  187.4550  177.8730  145.4380 N   0  0  0  0  0  0  0  0  0  0  0  0
  183.6080  176.5110  138.7430 O   0  0  0  0  0  1  0  0  0  0  0  0
  185.0510  176.8620  136.7370 C   0  0  1  0  0  3  0  0  0  0  0  0
  183.3990  174.8610  136.8680 C   0  0  0  0  0  2  0  0  0  0  0  0
  181.1540  175.9990  136.2880 C   0  0  0  0  0  2  0  0  0  0  0  0
  183.8250  176.2340  137.3920 C   0  0  1  0  0  0  0  0  0  0  0  0
  181.7070  176.6410  135.0060 C   0  0  2  0  0  3  0  0  0  0  0  0
  183.1930  177.0330  135.0690 C   0  0  0  0  0  2  0  0  0  0  0  0
  181.8800  174.7170  136.7150 C   0  0  0  0  0  2  0  0  0  0  0  0
  183.6570  177.4420  136.4710 C   0  0  2  0  0  3  0  0  0  0  0  0
  180.2980  178.4590  135.7140 O   0  0  0  0  0  1  0  0  0  0  0  0
  180.8500  177.8310  134.5940 C   0  0  0  0  0  2  0  0  0  0  0  0
  188.2670  177.9750  148.1630 N   0  0  0  0  0  1  0  0  0  0  0  0
  189.1110  177.4730  147.1310 C   0  0  0  0  0  0  0  0  0  0  0  0
  190.2110  176.9420  147.4370 O   0  0  0  0  0  0  0  0  0  0  0  0
  1 15  1  0  0  0  0
  2  6  1  0  0  0  0
  3 17  1  0  0  0  0
  4 34  1  0  0  0  0
  5  4  2  0  0  0  0
  6 16  1  6  0  0  0
  6  1  1  0  0  0  0
  7  9  2  0  0  0  0
  7 10  1  0  0  0  0
  8  5  1  0  0  0  0
 10  8  2  0  0  0  0
 11  2  1  6  0  0  0
 11 18  1  0  0  0  0
 12  9  1  1  0  0  0
 12  8  1  0  0  0  0
 12 19  1  0  0  0  0
 13 10  1  0  0  0  0
 14  3  1  0  0  0  0
 15  7  1  0  0  0  0
 16 14  1  0  0  0  0
 17 15  2  0  0  0  0
 17 20  1  0  0  0  0
 18  1  1  0  0  0  0
 19 21  2  0  0  0  0
 20 13  2  0  0  0  0
 21  4  1  0  0  0  0
 23 26  1  0  0  0  0
 23 11  1  1  0  0  0
 24 26  1  0  0  0  0
 25 29  1  0  0  0  0
 26 22  1  1  0  0  0
 27 32  1  1  0  0  0
 27 28  1  0  0  0  0
 27 25  1  0  0  0  0
 29 24  1  0  0  0  0
 30 28  1  6  0  0  0
 30 23  1  0  0  0  0
 30 26  1  0  0  0  0
 32 31  1  0  0  0  0
 34 35  2  0  0  0  0
 34 33  1  0  0  0  0
M  END
>  <MODEL>
5

>  <REMARK>
 VINA RESULT:      -7.4      4.484      7.571
  Name = 
  3 active torsions:
  status: ('A' for Active; 'I' for Inactive)
    1  A    between atoms: C_6  and  C_18
    2  A    between atoms: C_7  and  C_15
    3  A    between atoms: C_20  and  C_24
                            x       y       z     vdW  Elec       q    Type
                         _______ _______ _______ _____ _____    ______ ____

>  <TORSDO>
F 3

$$$$
=
 OpenBabel11062415363D

 35 41  0  0  1  0  0  0  0  0999 V2000
  184.1590  178.6330  140.6050 N   0  0  0  0  0  0  0  0  0  0  0  0
  182.3100  179.5820  139.4600 C   0  0  0  0  0  2  0  0  0  0  0  0
  186.4170  178.2570  138.7540 N   0  0  0  0  0  2  0  0  0  0  0  0
  187.6540  177.8560  146.6440 C   0  0  0  0  0  0  0  0  0  0  0  0
  188.1650  177.7970  145.2080 C   0  0  0  0  0  3  0  0  0  0  0  0
  183.7870  179.7600  139.7590 C   0  0  2  0  0  3  0  0  0  0  0  0
  185.7560  178.2930  142.4560 C   0  0  0  0  0  0  0  0  0  0  0  0
  187.0480  178.0160  144.2410 C   0  0  0  0  0  0  0  0  0  0  0  0
  184.8800  178.4360  143.4610 C   0  0  0  0  0  3  0  0  0  0  0  0
  187.0440  178.0490  142.9220 C   0  0  0  0  0  0  0  0  0  0  0  0
  181.8010  178.5610  140.4680 C   0  0  2  0  0  3  0  0  0  0  0  0
  185.6980  178.2550  144.6570 C   0  0  2  0  0  3  0  0  0  0  0  0
  188.1180  177.8850  142.0560 C   0  0  0  0  0  3  0  0  0  0  0  0
  185.1580  178.4720  138.0530 C   0  0  0  0  0  2  0  0  0  0  0  0
  185.4920  178.3880  141.0790 C   0  0  0  0  0  0  0  0  0  0  0  0
  184.5760  179.8190  138.4500 C   0  0  0  0  0  2  0  0  0  0  0  0
  186.5790  178.2140  140.1790 C   0  0  0  0  0  0  0  0  0  0  0  0
  183.0210  177.8390  141.0270 C   0  0  0  0  0  2  0  0  0  0  0  0
  185.3640  178.2910  145.9370 C   0  0  0  0  0  3  0  0  0  0  0  0
  187.8730  177.9680  140.6800 C   0  0  0  0  0  3  0  0  0  0  0  0
  186.3920  178.0800  146.9250 N   0  0  0  0  0  0  0  0  0  0  0  0
  182.4600  176.3480  138.8070 O   0  0  0  0  0  1  0  0  0  0  0  0
  180.6590  177.6950  139.8890 C   0  0  1  0  0  3  0  0  0  0  0  0
  180.1440  176.1430  137.8700 C   0  0  0  0  0  2  0  0  0  0  0  0
  180.0270  173.8280  139.0090 C   0  0  0  0  0  2  0  0  0  0  0  0
  181.0910  176.5250  139.0110 C   0  0  1  0  0  0  0  0  0  0  0  0
  179.0250  174.3010  140.0730 C   0  0  2  0  0  3  0  0  0  0  0  0
  179.1850  175.7690  140.5040 C   0  0  0  0  0  2  0  0  0  0  0  0
  179.9830  174.6270  137.7010 C   0  0  0  0  0  2  0  0  0  0  0  0
  180.6330  176.2670  140.4460 C   0  0  2  0  0  3  0  0  0  0  0  0
  178.9320  174.1010  142.4690 O   0  0  0  0  0  1  0  0  0  0  0  0
  179.0550  173.3750  141.2810 C   0  0  0  0  0  2  0  0  0  0  0  0
  189.7260  176.7860  147.5790 N   0  0  0  0  0  1  0  0  0  0  0  0
  188.6090  177.6560  147.7440 C   0  0  0  0  0  0  0  0  0  0  0  0
  188.4480  178.2510  148.8420 O   0  0  0  0  0  0  0  0  0  0  0  0
  1 18  1  0  0  0  0
  1 15  1  0  0  0  0
  2  6  1  0  0  0  0
  3 17  1  0  0  0  0
  4 21  1  0  0  0  0
  4 34  1  0  0  0  0
  5  4  2  0  0  0  0
  6 16  1  6  0  0  0
  6  1  1  0  0  0  0
  7 10  1  0  0  0  0
  7  9  2  0  0  0  0
  8 12  1  0  0  0  0
  8  5  1  0  0  0  0
 10  8  2  0  0  0  0
 11  2  1  6  0  0  0
 11 18  1  0  0  0  0
 12  9  1  1  0  0  0
 12 19  1  0  0  0  0
 13 10  1  0  0  0  0
 14 16  1  0  0  0  0
 14  3  1  0  0  0  0
 15  7  1  0  0  0  0
 17 20  1  0  0  0  0
 17 15  2  0  0  0  0
 19 21  2  0  0  0  0
 20 13  2  0  0  0  0
 23 30  1  0  0  0  0
 23 11  1  1  0  0  0
 24 26  1  0  0  0  0
 25 27  1  0  0  0  0
 26 22  1  6  0  0  0
 26 23  1  0  0  0  0
 26 30  1  0  0  0  0
 27 28  1  0  0  0  0
 27 32  1  1  0  0  0
 29 24  1  0  0  0  0
 29 25  1  0  0  0  0
 30 28  1  6  0  0  0
 32 31  1  0  0  0  0
 33 34  1  0  0  0  0
 34 35  2  0  0  0  0
M  END
>  <MODEL>
6

>  <REMARK>
 VINA RESULT:      -7.4      4.677      9.051
  Name = 
  3 active torsions:
  status: ('A' for Active; 'I' for Inactive)
    1  A    between atoms: C_6  and  C_18
    2  A    between atoms: C_7  and  C_15
    3  A    between atoms: C_20  and  C_24
                            x       y       z     vdW  Elec       q    Type
                         _______ _______ _______ _____ _____    ______ ____

>  <TORSDO>
F 3

$$$$
=
 OpenBabel11062415363D

 35 41  0  0  1  0  0  0  0  0999 V2000
  187.9990  177.6230  142.7280 N   0  0  0  0  0  0  0  0  0  0  0  0
  185.8390  177.1190  143.5730 C   0  0  0  0  0  2  0  0  0  0  0  0
  189.7730  178.4770  144.9160 N   0  0  0  0  0  2  0  0  0  0  0  0
  192.9030  176.4330  137.8470 C   0  0  0  0  0  0  0  0  0  0  0  0
  193.0580  176.9090  139.2870 C   0  0  0  0  0  2  0  0  0  0  0  0
  187.3180  176.8160  143.7330 C   0  0  2  0  0  3  0  0  0  0  0  0
  190.0200  177.3400  141.3390 C   0  0  0  0  0  0  0  0  0  0  0  0
  191.7240  177.0260  139.9510 C   0  0  0  0  0  0  0  0  0  0  0  0
  189.4010  176.9240  140.2250 C   0  0  0  0  0  3  0  0  0  0  0  0
  191.4000  177.3940  141.1760 C   0  0  0  0  0  0  0  0  0  0  0  0
  185.6980  177.8010  142.2190 C   0  0  2  0  0  3  0  0  0  0  0  0
  190.4960  176.7110  139.2840 C   0  0  0  0  0  0  0  0  0  0  0  0
  192.2470  177.7820  142.2070 C   0  0  0  0  0  3  0  0  0  0  0  0
  188.3680  178.5200  145.2950 C   0  0  0  0  0  2  0  0  0  0  0  0
  189.4250  177.6750  142.5680 C   0  0  0  0  0  0  0  0  0  0  0  0
  187.7590  177.1340  145.1630 C   0  0  0  0  0  2  0  0  0  0  0  0
  190.2760  178.0810  143.6320 C   0  0  0  0  0  0  0  0  0  0  0  0
  187.0860  178.2840  141.8160 C   0  0  0  0  0  2  0  0  0  0  0  0
  190.4780  176.2990  138.0260 C   0  0  0  0  0  3  0  0  0  0  0  0
  191.6710  178.1270  143.4360 C   0  0  0  0  0  3  0  0  0  0  0  0
  191.7290  176.1700  137.3220 N   0  0  0  0  0  0  0  0  0  0  0  0
  183.4830  177.3770  140.4840 O   0  0  0  0  0  1  0  0  0  0  0  0
  184.5490  178.8330  142.2080 C   0  0  1  0  0  3  0  0  0  0  0  0
  182.6870  179.7490  140.6440 C   0  0  0  0  0  2  0  0  0  0  0  0
  180.5560  178.8210  141.7720 C   0  0  0  0  0  2  0  0  0  0  0  0
  183.3950  178.5370  141.2560 C   0  0  1  0  0  0  0  0  0  0  0  0
  180.9370  179.3740  143.1540 C   0  0  2  0  0  3  0  0  0  0  0  0
  182.4480  179.4080  143.4420 C   0  0  0  0  0  2  0  0  0  0  0  0
  181.1620  179.5950  140.5940 C   0  0  0  0  0  2  0  0  0  0  0  0
  183.2260  178.2820  142.7530 C   0  0  2  0  0  3  0  0  0  0  0  0
  179.6580  177.4290  143.7630 O   0  0  0  0  0  1  0  0  0  0  0  0
  180.1940  178.6230  144.2510 C   0  0  0  0  0  2  0  0  0  0  0  0
  194.9810  175.1560  137.2430 N   0  0  0  0  0  1  0  0  0  0  0  0
  194.1100  176.2630  137.0240 C   0  0  0  0  0  0  0  0  0  0  0  0
  194.3840  177.0940  136.1180 O   0  0  0  0  0  0  0  0  0  0  0  0
  1  6  1  0  0  0  0
  3 14  1  0  0  0  0
  4  5  1  0  0  0  0
  5  8  1  0  0  0  0
  6  2  1  1  0  0  0
  6 16  1  0  0  0  0
  7 15  1  0  0  0  0
  8 10  2  0  0  0  0
  9  7  2  0  0  0  0
 10  7  1  0  0  0  0
 10 13  1  0  0  0  0
 11 18  1  1  0  0  0
 11  2  1  0  0  0  0
 12  8  1  0  0  0  0
 12  9  1  0  0  0  0
 13 20  2  0  0  0  0
 15  1  1  0  0  0  0
 15 17  2  0  0  0  0
 16 14  1  0  0  0  0
 17  3  1  0  0  0  0
 18  1  1  0  0  0  0
 19 12  2  0  0  0  0
 20 17  1  0  0  0  0
 21  4  2  0  0  0  0
 21 19  1  0  0  0  0
 23 11  1  6  0  0  0
 23 30  1  0  0  0  0
 24 26  1  0  0  0  0
 25 27  1  0  0  0  0
 26 22  1  6  0  0  0
 26 23  1  0  0  0  0
 26 30  1  0  0  0  0
 27 28  1  0  0  0  0
 27 32  1  1  0  0  0
 29 24  1  0  0  0  0
 29 25  1  0  0  0  0
 30 28  1  1  0  0  0
 31 32  1  0  0  0  0
 34 33  1  0  0  0  0
 34  4  1  0  0  0  0
 35 34  2  0  0  0  0
M  END
>  <MODEL>
7

>  <REMARK>
 VINA RESULT:      -7.1      2.219      9.534
  Name = 
  3 active torsions:
  status: ('A' for Active; 'I' for Inactive)
    1  A    between atoms: C_6  and  C_18
    2  A    between atoms: C_7  and  C_15
    3  A    between atoms: C_20  and  C_24
                            x       y       z     vdW  Elec       q    Type
                         _______ _______ _______ _____ _____    ______ ____

>  <TORSDO>
F 3

$$$$
=
 OpenBabel11062415363D

 35 41  0  0  1  0  0  0  0  0999 V2000
  187.8640  177.8030  138.5980 N   0  0  0  0  0  0  0  0  0  0  0  0
  186.9570  178.6390  136.5700 C   0  0  0  0  0  2  0  0  0  0  0  0
  190.6870  177.0590  138.2180 N   0  0  0  0  0  2  0  0  0  0  0  0
  187.7540  177.8210  145.6180 C   0  0  0  0  0  0  0  0  0  0  0  0
  188.9040  177.5230  144.6630 C   0  0  0  0  0  3  0  0  0  0  0  0
  188.0960  178.8020  137.5620 C   0  0  2  0  0  3  0  0  0  0  0  0
  188.2700  177.6880  141.0300 C   0  0  0  0  0  0  0  0  0  0  0  0
  188.4540  177.6360  143.2420 C   0  0  0  0  0  0  0  0  0  0  0  0
  187.0310  178.0170  141.4220 C   0  0  0  0  0  3  0  0  0  0  0  0
  189.1150  177.4660  142.1130 C   0  0  0  0  0  0  0  0  0  0  0  0
  185.9010  177.8050  137.2830 C   0  0  2  0  0  3  0  0  0  0  0  0
  187.1140  177.9890  142.8790 C   0  0  2  0  0  3  0  0  0  0  0  0
  190.4520  177.1290  141.9440 C   0  0  0  0  0  3  0  0  0  0  0  0
  189.9820  177.2140  136.9530 C   0  0  0  0  0  2  0  0  0  0  0  0
  188.7440  177.5800  139.7110 C   0  0  0  0  0  0  0  0  0  0  0  0
  189.4350  178.6280  136.8430 C   0  0  0  0  0  2  0  0  0  0  0  0
  190.1080  177.2280  139.5200 C   0  0  0  0  0  0  0  0  0  0  0  0
  186.5880  177.1290  138.4640 C   0  0  0  0  0  2  0  0  0  0  0  0
  186.1910  178.2340  143.7960 C   0  0  0  0  0  3  0  0  0  0  0  0
  190.9400  177.0100  140.6360 C   0  0  0  0  0  3  0  0  0  0  0  0
  186.5540  178.1360  145.1870 N   0  0  0  0  0  0  0  0  0  0  0  0
  186.8580  175.1790  136.7530 O   0  0  0  0  0  1  0  0  0  0  0  0
  185.1140  176.9070  136.3020 C   0  0  1  0  0  3  0  0  0  0  0  0
  185.4750  174.9110  134.6790 C   0  0  0  0  0  2  0  0  0  0  0  0
  184.2340  173.0080  135.9090 C   0  0  0  0  0  2  0  0  0  0  0  0
  185.6860  175.5120  136.0710 C   0  0  1  0  0  0  0  0  0  0  0  0
  182.9460  173.8300  136.0690 C   0  0  2  0  0  3  0  0  0  0  0  0
  183.1620  175.3420  136.2480 C   0  0  0  0  0  2  0  0  0  0  0  0
  185.1020  173.4230  134.7150 C   0  0  0  0  0  2  0  0  0  0  0  0
  184.4660  175.6900  136.9730 C   0  0  2  0  0  3  0  0  0  0  0  0
  182.1330  171.8710  137.2070 O   0  0  0  0  0  1  0  0  0  0  0  0
  182.0930  173.2670  137.1990 C   0  0  0  0  0  2  0  0  0  0  0  0
  189.1700  177.1150  147.5680 N   0  0  0  0  0  1  0  0  0  0  0  0
  187.9990  177.7540  147.0660 C   0  0  0  0  0  0  0  0  0  0  0  0
  187.1770  178.2600  147.8750 O   0  0  0  0  0  0  0  0  0  0  0  0
  1 15  1  0  0  0  0
  3 17  1  0  0  0  0
  4 34  1  0  0  0  0
  5  4  2  0  0  0  0
  6  2  1  6  0  0  0
  6  1  1  0  0  0  0
  7  9  2  0  0  0  0
  7 10  1  0  0  0  0
  8  5  1  0  0  0  0
 10  8  2  0  0  0  0
 11  2  1  6  0  0  0
 11 18  1  0  0  0  0
 12  9  1  6  0  0  0
 12  8  1  0  0  0  0
 12 19  1  0  0  0  0
 13 10  1  0  0  0  0
 14  3  1  0  0  0  0
 15  7  1  0  0  0  0
 16 14  1  0  0  0  0
 16  6  1  0  0  0  0
 17 15  2  0  0  0  0
 17 20  1  0  0  0  0
 18  1  1  0  0  0  0
 19 21  2  0  0  0  0
 20 13  2  0  0  0  0
 21  4  1  0  0  0  0
 23 30  1  0  0  0  0
 23 11  1  1  0  0  0
 24 29  1  0  0  0  0
 24 26  1  0  0  0  0
 25 27  1  0  0  0  0
 26 23  1  0  0  0  0
 26 22  1  1  0  0  0
 26 30  1  0  0  0  0
 27 28  1  0  0  0  0
 27 32  1  1  0  0  0
 29 25  1  0  0  0  0
 30 28  1  6  0  0  0
 32 31  1  0  0  0  0
 34 33  1  0  0  0  0
 34 35  2  0  0  0  0
M  END
>  <MODEL>
8

>  <REMARK>
 VINA RESULT:      -7.0      4.299      6.806
  Name = 
  3 active torsions:
  status: ('A' for Active; 'I' for Inactive)
    1  A    between atoms: C_6  and  C_18
    2  A    between atoms: C_7  and  C_15
    3  A    between atoms: C_20  and  C_24
                            x       y       z     vdW  Elec       q    Type
                         _______ _______ _______ _____ _____    ______ ____

>  <TORSDO>
F 3

$$$$
