=
 OpenBabel11062413323D

 28 32  0  0  1  0  0  0  0  0999 V2000
  185.6860  178.9460  146.9060 C   0  0  0  0  0  3  0  0  0  0  0  0
  189.9380  176.6110  145.6880 C   0  0  1  0  0  3  0  0  0  0  0  0
  190.3410  177.3480  143.4020 C   0  0  2  0  0  0  0  0  0  0  0  0
  184.9440  178.3980  145.7220 C   0  0  0  0  0  2  0  0  0  0  0  0
  185.8570  177.9770  144.6580 N   0  0  0  0  0  0  0  0  0  0  0  0
  191.5080  177.8400  144.2360 C   0  0  0  0  0  3  0  0  0  0  0  0
  187.9240  176.6230  143.9920 C   0  0  0  0  0  2  0  0  0  0  0  0
  186.9610  178.6280  147.1290 C   0  0  0  0  0  3  0  0  0  0  0  0
  189.0580  177.4100  146.5370 N   0  0  0  0  0  2  0  0  0  0  0  0
  189.4170  176.6240  144.2710 C   0  0  2  0  0  0  0  0  0  0  0  0
  187.7160  177.7870  146.1870 C   0  0  0  0  0  0  0  0  0  0  0  0
  191.3180  177.2580  145.6360 C   0  0  0  0  0  3  0  0  0  0  0  0
  190.2080  175.9440  143.3210 O   0  0  0  0  0  0  0  0  0  0  0  0
  187.1790  177.4830  144.9830 C   0  0  0  0  0  0  0  0  0  0  0  0
  184.1730  179.0270  140.8620 C   0  0  0  0  0  0  0  0  0  0  0  0
  186.1590  179.0130  142.4370 C   0  0  0  0  0  2  0  0  0  0  0  0
  185.3460  178.0440  143.2890 C   0  0  2  0  0  3  0  0  0  0  0  0
  183.3670  178.7180  141.8880 C   0  0  0  0  0  3  0  0  0  0  0  0
  183.8690  178.4360  143.2770 C   0  0  0  0  0  2  0  0  0  0  0  0
  185.6760  178.9530  140.9890 C   0  0  0  0  0  2  0  0  0  0  0  0
  183.5900  179.3200  139.5410 C   0  0  0  0  0  0  0  0  0  0  0  0
  182.7290  178.5520  139.0330 O   0  0  0  0  0  1  0  0  0  0  0  0
  183.9830  180.4550  138.8420 O   0  0  0  0  0  0  0  0  0  0  0  0
  189.7750  178.1270  142.2230 C   0  0  0  0  0  2  0  0  0  0  0  0
  190.1380  177.4460  140.9160 C   0  0  0  0  0  2  0  0  0  0  0  0
  188.9480  177.4580  139.9670 C   0  0  0  0  0  2  0  0  0  0  0  0
  189.3420  177.9880  138.5970 C   0  0  0  0  0  2  0  0  0  0  0  0
  188.9810  179.3300  138.4790 O   0  0  0  0  0  1  0  0  0  0  0  0
  1  8  2  0  0  0  0
  2 12  1  6  0  0  0
  2  9  1  0  0  0  0
  3 24  1  6  0  0  0
  3  6  1  0  0  0  0
  3 10  1  0  0  0  0
  4  1  1  0  0  0  0
  5 14  1  0  0  0  0
  5  4  1  0  0  0  0
  6 12  2  0  0  0  0
  7 14  1  0  0  0  0
 10  7  1  6  0  0  0
 10  2  1  0  0  0  0
 11  9  1  0  0  0  0
 11  8  1  0  0  0  0
 13  3  1  0  0  0  0
 13 10  1  0  0  0  0
 14 11  2  0  0  0  0
 15 20  1  0  0  0  0
 15 18  2  0  0  0  0
 17 16  1  6  0  0  0
 17  5  1  0  0  0  0
 18 19  1  0  0  0  0
 19 17  1  0  0  0  0
 20 16  1  0  0  0  0
 21 15  1  0  0  0  0
 22 21  1  0  0  0  0
 23 21  2  0  0  0  0
 25 24  1  0  0  0  0
 26 25  1  0  0  0  0
 27 26  1  0  0  0  0
 28 27  1  0  0  0  0
M  END
>  <MODEL>
1

>  <REMARK>
 VINA RESULT:      -8.6      0.000      0.000
  Name = 
  6 active torsions:
  status: ('A' for Active; 'I' for Inactive)
    1  A    between atoms: C_2  and  C_7
    2  A    between atoms: C_4  and  C_13
    3  A    between atoms: C_5  and  C_12
    4  A    between atoms: N_11  and  C_20
    5  A    between atoms: C_12  and  C_24
    6  A    between atoms: C_13  and  C_24
                            x       y       z     vdW  Elec       q    Type
                         _______ _______ _______ _____ _____    ______ ____

>  <TORSDO>
F 6

$$$$
=
 OpenBabel11062413323D

 28 32  0  0  1  0  0  0  0  0999 V2000
  187.9590  178.3470  147.8840 C   0  0  0  0  0  3  0  0  0  0  0  0
  190.8020  176.5700  144.1720 C   0  0  1  0  0  3  0  0  0  0  0  0
  189.7840  177.5350  142.1820 C   0  0  2  0  0  0  0  0  0  0  0  0
  186.6880  177.8280  147.2760 C   0  0  0  0  0  2  0  0  0  0  0  0
  186.8320  177.5940  145.8380 N   0  0  0  0  0  0  0  0  0  0  0  0
  191.2000  178.0710  142.2560 C   0  0  0  0  0  3  0  0  0  0  0  0
  188.1790  176.5190  143.9450 C   0  0  0  0  0  2  0  0  0  0  0  0
  189.1380  178.1430  147.2970 C   0  0  0  0  0  3  0  0  0  0  0  0
  190.5480  177.2000  145.4650 N   0  0  0  0  0  2  0  0  0  0  0  0
  189.5580  176.6490  143.3210 C   0  0  2  0  0  0  0  0  0  0  0  0
  189.2380  177.4660  145.9940 C   0  0  0  0  0  0  0  0  0  0  0  0
  191.8750  177.3570  143.4250 C   0  0  0  0  0  3  0  0  0  0  0  0
  189.6770  176.1360  142.0120 O   0  0  0  0  0  0  0  0  0  0  0  0
  188.1150  177.2120  145.2850 C   0  0  0  0  0  0  0  0  0  0  0  0
  183.4470  178.8570  143.5360 C   0  0  0  0  0  0  0  0  0  0  0  0
  185.9260  178.3440  143.6670 C   0  0  0  0  0  2  0  0  0  0  0  0
  185.6220  177.7230  145.0260 C   0  0  2  0  0  3  0  0  0  0  0  0
  183.3890  178.8730  144.8760 C   0  0  0  0  0  3  0  0  0  0  0  0
  184.5600  178.5430  145.7580 C   0  0  0  0  0  2  0  0  0  0  0  0
  184.6640  178.3390  142.8070 C   0  0  0  0  0  2  0  0  0  0  0  0
  182.2570  179.2260  142.7510 C   0  0  0  0  0  0  0  0  0  0  0  0
  181.3100  179.8670  143.2810 O   0  0  0  0  0  1  0  0  0  0  0  0
  182.1720  178.8760  141.4090 O   0  0  0  0  0  0  0  0  0  0  0  0
  188.6130  178.3490  141.6480 C   0  0  0  0  0  2  0  0  0  0  0  0
  188.2650  177.9110  140.2370 C   0  0  0  0  0  2  0  0  0  0  0  0
  189.2730  178.4740  139.2460 C   0  0  0  0  0  2  0  0  0  0  0  0
  188.8300  178.2300  137.8110 C   0  0  0  0  0  2  0  0  0  0  0  0
  188.2660  179.3900  137.2800 O   0  0  0  0  0  1  0  0  0  0  0  0
  2 12  1  6  0  0  0
  2  9  1  0  0  0  0
  3 24  1  6  0  0  0
  3  6  1  0  0  0  0
  3 10  1  0  0  0  0
  4  1  1  0  0  0  0
  5  4  1  0  0  0  0
  6 12  2  0  0  0  0
  7 14  1  0  0  0  0
  8  1  2  0  0  0  0
  9 11  1  0  0  0  0
 10  7  1  1  0  0  0
 10  2  1  0  0  0  0
 11  8  1  0  0  0  0
 13  3  1  0  0  0  0
 13 10  1  0  0  0  0
 14  5  1  0  0  0  0
 14 11  2  0  0  0  0
 15 18  2  0  0  0  0
 17 16  1  6  0  0  0
 17 19  1  0  0  0  0
 17  5  1  0  0  0  0
 18 19  1  0  0  0  0
 20 15  1  0  0  0  0
 20 16  1  0  0  0  0
 21 22  1  0  0  0  0
 21 15  1  0  0  0  0
 23 21  2  0  0  0  0
 25 24  1  0  0  0  0
 26 25  1  0  0  0  0
 27 26  1  0  0  0  0
 28 27  1  0  0  0  0
M  END
>  <MODEL>
2

>  <REMARK>
 VINA RESULT:      -8.0      1.596      2.186
  Name = 
  6 active torsions:
  status: ('A' for Active; 'I' for Inactive)
    1  A    between atoms: C_2  and  C_7
    2  A    between atoms: C_4  and  C_13
    3  A    between atoms: C_5  and  C_12
    4  A    between atoms: N_11  and  C_20
    5  A    between atoms: C_12  and  C_24
    6  A    between atoms: C_13  and  C_24
                            x       y       z     vdW  Elec       q    Type
                         _______ _______ _______ _____ _____    ______ ____

>  <TORSDO>
F 6

$$$$
=
 OpenBabel11062413323D

 28 32  0  0  1  0  0  0  0  0999 V2000
  188.2440  177.2090  138.4270 C   0  0  0  0  0  3  0  0  0  0  0  0
  191.2360  177.7320  142.4010 C   0  0  1  0  0  3  0  0  0  0  0  0
  189.7440  177.3080  144.2790 C   0  0  2  0  0  0  0  0  0  0  0  0
  187.2510  178.2150  138.9330 C   0  0  0  0  0  2  0  0  0  0  0  0
  187.3540  178.3960  140.3820 N   0  0  0  0  0  0  0  0  0  0  0  0
  190.8160  176.2360  144.3170 C   0  0  0  0  0  3  0  0  0  0  0  0
  188.8560  178.8590  142.4020 C   0  0  0  0  0  2  0  0  0  0  0  0
  189.3480  176.9220  139.1170 C   0  0  0  0  0  3  0  0  0  0  0  0
  190.8570  177.2370  141.0800 N   0  0  0  0  0  2  0  0  0  0  0  0
  190.0000  178.1870  143.1410 C   0  0  2  0  0  0  0  0  0  0  0  0
  189.6040  177.5220  140.4350 C   0  0  0  0  0  0  0  0  0  0  0  0
  191.8220  176.5890  143.2230 C   0  0  0  0  0  3  0  0  0  0  0  0
  190.2060  178.6300  144.4640 O   0  0  0  0  0  0  0  0  0  0  0  0
  188.6290  178.2290  141.0500 C   0  0  0  0  0  0  0  0  0  0  0  0
  183.5040  178.7150  142.2330 C   0  0  0  0  0  0  0  0  0  0  0  0
  185.9210  177.9580  142.3440 C   0  0  0  0  0  2  0  0  0  0  0  0
  186.1330  178.7900  141.0840 C   0  0  2  0  0  3  0  0  0  0  0  0
  183.6240  178.8740  140.9070 C   0  0  0  0  0  3  0  0  0  0  0  0
  184.9170  178.6800  140.1650 C   0  0  0  0  0  2  0  0  0  0  0  0
  184.7120  178.4890  143.1120 C   0  0  0  0  0  2  0  0  0  0  0  0
  182.1900  178.8940  142.8730 C   0  0  0  0  0  0  0  0  0  0  0  0
  182.0520  178.7360  144.1160 O   0  0  0  0  0  1  0  0  0  0  0  0
  181.0850  179.2480  142.1080 O   0  0  0  0  0  0  0  0  0  0  0  0
  188.3020  177.0560  144.6950 C   0  0  0  0  0  2  0  0  0  0  0  0
  187.9820  177.8070  145.9750 C   0  0  0  0  0  2  0  0  0  0  0  0
  186.5290  177.5840  146.3690 C   0  0  0  0  0  2  0  0  0  0  0  0
  185.8430  178.8980  146.7100 C   0  0  0  0  0  2  0  0  0  0  0  0
  184.4580  178.7500  146.6270 O   0  0  0  0  0  1  0  0  0  0  0  0
  1  4  1  0  0  0  0
  1  8  2  0  0  0  0
  2 10  1  0  0  0  0
  2 12  1  1  0  0  0
  3  6  1  0  0  0  0
  3 13  1  0  0  0  0
  3 24  1  1  0  0  0
  4  5  1  0  0  0  0
  5 14  1  0  0  0  0
  5 17  1  0  0  0  0
  8 11  1  0  0  0  0
  9  2  1  0  0  0  0
 10  7  1  6  0  0  0
 10  3  1  0  0  0  0
 10 13  1  0  0  0  0
 11 14  2  0  0  0  0
 11  9  1  0  0  0  0
 12  6  2  0  0  0  0
 14  7  1  0  0  0  0
 15 21  1  0  0  0  0
 15 20  1  0  0  0  0
 16 20  1  0  0  0  0
 17 19  1  6  0  0  0
 17 16  1  0  0  0  0
 18 15  2  0  0  0  0
 19 18  1  0  0  0  0
 21 22  1  0  0  0  0
 23 21  2  0  0  0  0
 24 25  1  0  0  0  0
 25 26  1  0  0  0  0
 26 27  1  0  0  0  0
 28 27  1  0  0  0  0
M  END
>  <MODEL>
3

>  <REMARK>
 VINA RESULT:      -7.9      2.544      4.999
  Name = 
  6 active torsions:
  status: ('A' for Active; 'I' for Inactive)
    1  A    between atoms: C_2  and  C_7
    2  A    between atoms: C_4  and  C_13
    3  A    between atoms: C_5  and  C_12
    4  A    between atoms: N_11  and  C_20
    5  A    between atoms: C_12  and  C_24
    6  A    between atoms: C_13  and  C_24
                            x       y       z     vdW  Elec       q    Type
                         _______ _______ _______ _____ _____    ______ ____

>  <TORSDO>
F 6

$$$$
=
 OpenBabel11062413323D

 28 32  0  0  1  0  0  0  0  0999 V2000
  184.0740  179.4390  144.1660 C   0  0  0  0  0  3  0  0  0  0  0  0
  187.3140  177.4310  147.4030 C   0  0  1  0  0  3  0  0  0  0  0  0
  189.4740  177.8370  146.3520 C   0  0  2  0  0  0  0  0  0  0  0  0
  184.5920  178.6310  143.0120 C   0  0  0  0  0  2  0  0  0  0  0  0
  185.9540  178.1510  143.2550 N   0  0  0  0  0  0  0  0  0  0  0  0
  189.4790  178.5820  147.6730 C   0  0  0  0  0  3  0  0  0  0  0  0
  187.5750  176.9480  144.8280 C   0  0  0  0  0  2  0  0  0  0  0  0
  184.5880  179.3050  145.3880 C   0  0  0  0  0  3  0  0  0  0  0  0
  186.1750  178.2510  147.0020 N   0  0  0  0  0  2  0  0  0  0  0  0
  188.1880  177.1600  146.2020 C   0  0  2  0  0  0  0  0  0  0  0  0
  185.7310  178.4150  145.6440 C   0  0  0  0  0  0  0  0  0  0  0  0
  188.1810  178.2120  148.3870 C   0  0  0  0  0  3  0  0  0  0  0  0
  189.3680  176.4310  146.4540 O   0  0  0  0  0  0  0  0  0  0  0  0
  186.3980  177.8660  144.6040 C   0  0  0  0  0  0  0  0  0  0  0  0
  188.3580  178.4340  139.7200 C   0  0  0  0  0  0  0  0  0  0  0  0
  188.1580  178.6110  142.2410 C   0  0  0  0  0  2  0  0  0  0  0  0
  186.7970  177.9420  142.0780 C   0  0  2  0  0  3  0  0  0  0  0  0
  187.0200  178.4450  139.6220 C   0  0  0  0  0  3  0  0  0  0  0  0
  186.1040  178.4510  140.8140 C   0  0  0  0  0  2  0  0  0  0  0  0
  189.0490  178.2580  141.0510 C   0  0  0  0  0  2  0  0  0  0  0  0
  189.1790  178.4620  138.4970 C   0  0  0  0  0  0  0  0  0  0  0  0
  190.0260  177.5570  138.2710 O   0  0  0  0  0  1  0  0  0  0  0  0
  189.0190  179.4890  137.5750 O   0  0  0  0  0  0  0  0  0  0  0  0
  190.1770  178.3510  145.1040 C   0  0  0  0  0  2  0  0  0  0  0  0
  191.4520  177.5650  144.8540 C   0  0  0  0  0  2  0  0  0  0  0  0
  191.4730  177.0350  143.4280 C   0  0  0  0  0  2  0  0  0  0  0  0
  191.3080  175.5230  143.4000 C   0  0  0  0  0  2  0  0  0  0  0  0
  192.1490  174.9310  144.3430 O   0  0  0  0  0  1  0  0  0  0  0  0
  1  8  2  0  0  0  0
  2 12  1  1  0  0  0
  3 24  1  6  0  0  0
  3 13  1  0  0  0  0
  3  6  1  0  0  0  0
  4  5  1  0  0  0  0
  4  1  1  0  0  0  0
  5 14  1  0  0  0  0
  6 12  2  0  0  0  0
  8 11  1  0  0  0  0
  9  2  1  0  0  0  0
 10  7  1  6  0  0  0
 10  3  1  0  0  0  0
 10 13  1  0  0  0  0
 10  2  1  0  0  0  0
 11  9  1  0  0  0  0
 14  7  1  0  0  0  0
 14 11  2  0  0  0  0
 15 20  1  0  0  0  0
 17 19  1  6  0  0  0
 17 16  1  0  0  0  0
 17  5  1  0  0  0  0
 18 15  2  0  0  0  0
 18 19  1  0  0  0  0
 20 16  1  0  0  0  0
 21 15  1  0  0  0  0
 22 21  1  0  0  0  0
 23 21  2  0  0  0  0
 25 24  1  0  0  0  0
 26 25  1  0  0  0  0
 27 26  1  0  0  0  0
 27 28  1  0  0  0  0
M  END
>  <MODEL>
4

>  <REMARK>
 VINA RESULT:      -7.6      2.136      3.970
  Name = 
  6 active torsions:
  status: ('A' for Active; 'I' for Inactive)
    1  A    between atoms: C_2  and  C_7
    2  A    between atoms: C_4  and  C_13
    3  A    between atoms: C_5  and  C_12
    4  A    between atoms: N_11  and  C_20
    5  A    between atoms: C_12  and  C_24
    6  A    between atoms: C_13  and  C_24
                            x       y       z     vdW  Elec       q    Type
                         _______ _______ _______ _____ _____    ______ ____

>  <TORSDO>
F 6

$$$$
=
 OpenBabel11062413323D

 28 32  0  0  1  0  0  0  0  0999 V2000
  183.3140  178.1870  141.9220 C   0  0  0  0  0  3  0  0  0  0  0  0
  187.0300  178.6280  138.6050 C   0  0  1  0  0  3  0  0  0  0  0  0
  188.8540  177.3950  139.6470 C   0  0  2  0  0  0  0  0  0  0  0  0
  184.1380  178.7350  143.0500 C   0  0  0  0  0  2  0  0  0  0  0  0
  185.5720  178.6110  142.7830 N   0  0  0  0  0  0  0  0  0  0  0  0
  188.5300  176.6870  138.3460 C   0  0  0  0  0  3  0  0  0  0  0  0
  187.5140  179.0130  141.1640 C   0  0  0  0  0  2  0  0  0  0  0  0
  183.8140  178.0740  140.6920 C   0  0  0  0  0  3  0  0  0  0  0  0
  185.6630  178.3540  139.0380 N   0  0  0  0  0  2  0  0  0  0  0  0
  187.9600  178.5420  139.7910 C   0  0  2  0  0  0  0  0  0  0  0  0
  185.2160  178.4130  140.4030 C   0  0  0  0  0  0  0  0  0  0  0  0
  187.4830  177.5420  137.6340 C   0  0  0  0  0  3  0  0  0  0  0  0
  189.3310  178.7190  139.5100 O   0  0  0  0  0  0  0  0  0  0  0  0
  186.0690  178.6620  141.4230 C   0  0  0  0  0  0  0  0  0  0  0  0
  187.6040  177.5330  146.3970 C   0  0  0  0  0  0  0  0  0  0  0  0
  187.2200  177.1640  143.9190 C   0  0  0  0  0  2  0  0  0  0  0  0
  186.4490  178.4800  143.9460 C   0  0  2  0  0  3  0  0  0  0  0  0
  186.4810  178.2640  146.4530 C   0  0  0  0  0  3  0  0  0  0  0  0
  185.6530  178.6020  145.2450 C   0  0  0  0  0  2  0  0  0  0  0  0
  188.2150  177.1280  145.0770 C   0  0  0  0  0  2  0  0  0  0  0  0
  188.3350  177.2240  147.6380 C   0  0  0  0  0  0  0  0  0  0  0  0
  189.3360  176.4580  147.6200 O   0  0  0  0  0  0  0  0  0  0  0  0
  187.9300  177.7840  148.8430 O   0  0  0  0  0  1  0  0  0  0  0  0
  189.3100  176.6630  140.9010 C   0  0  0  0  0  2  0  0  0  0  0  0
  190.7840  176.9170  141.1560 C   0  0  0  0  0  2  0  0  0  0  0  0
  190.9890  177.4800  142.5540 C   0  0  0  0  0  2  0  0  0  0  0  0
  191.5270  176.4190  143.5020 C   0  0  0  0  0  2  0  0  0  0  0  0
  191.6810  176.9530  144.7810 O   0  0  0  0  0  1  0  0  0  0  0  0
  1  4  1  0  0  0  0
  2 12  1  6  0  0  0
  2  9  1  0  0  0  0
  2 10  1  0  0  0  0
  3 10  1  0  0  0  0
  3 24  1  1  0  0  0
  5  4  1  0  0  0  0
  6  3  1  0  0  0  0
  7 14  1  0  0  0  0
  8  1  2  0  0  0  0
  9 11  1  0  0  0  0
 10  7  1  1  0  0  0
 11  8  1  0  0  0  0
 11 14  2  0  0  0  0
 12  6  2  0  0  0  0
 13  3  1  0  0  0  0
 13 10  1  0  0  0  0
 14  5  1  0  0  0  0
 15 18  2  0  0  0  0
 15 21  1  0  0  0  0
 16 17  1  0  0  0  0
 16 20  1  0  0  0  0
 17  5  1  6  0  0  0
 17 19  1  0  0  0  0
 19 18  1  0  0  0  0
 20 15  1  0  0  0  0
 21 23  1  0  0  0  0
 22 21  2  0  0  0  0
 24 25  1  0  0  0  0
 25 26  1  0  0  0  0
 26 27  1  0  0  0  0
 27 28  1  0  0  0  0
M  END
>  <MODEL>
5

>  <REMARK>
 VINA RESULT:      -7.4      2.291      6.089
  Name = 
  6 active torsions:
  status: ('A' for Active; 'I' for Inactive)
    1  A    between atoms: C_2  and  C_7
    2  A    between atoms: C_4  and  C_13
    3  A    between atoms: C_5  and  C_12
    4  A    between atoms: N_11  and  C_20
    5  A    between atoms: C_12  and  C_24
    6  A    between atoms: C_13  and  C_24
                            x       y       z     vdW  Elec       q    Type
                         _______ _______ _______ _____ _____    ______ ____

>  <TORSDO>
F 6

$$$$
=
 OpenBabel11062413323D

 28 32  0  0  1  0  0  0  0  0999 V2000
  185.4980  179.3680  141.4810 C   0  0  0  0  0  3  0  0  0  0  0  0
  186.0430  177.6550  146.1480 C   0  0  1  0  0  3  0  0  0  0  0  0
  188.4530  177.7410  146.4930 C   0  0  2  0  0  0  0  0  0  0  0  0
  186.4480  178.3580  140.9050 C   0  0  0  0  0  2  0  0  0  0  0  0
  187.3540  177.8260  141.9250 N   0  0  0  0  0  0  0  0  0  0  0  0
  187.8280  178.6770  147.5090 C   0  0  0  0  0  3  0  0  0  0  0  0
  187.6240  176.7660  144.2390 C   0  0  0  0  0  2  0  0  0  0  0  0
  185.2150  179.3870  142.7830 C   0  0  0  0  0  3  0  0  0  0  0  0
  185.4560  178.4820  145.0970 N   0  0  0  0  0  2  0  0  0  0  0  0
  187.3880  177.1420  145.6910 C   0  0  2  0  0  0  0  0  0  0  0  0
  185.8770  178.4680  143.7220 C   0  0  0  0  0  0  0  0  0  0  0  0
  186.3150  178.5130  147.3790 C   0  0  0  0  0  3  0  0  0  0  0  0
  188.1060  176.3780  146.6350 O   0  0  0  0  0  0  0  0  0  0  0  0
  186.9220  177.7200  143.3030 C   0  0  0  0  0  0  0  0  0  0  0  0
  191.2710  177.3570  140.2530 C   0  0  0  0  0  0  0  0  0  0  0  0
  189.7910  178.1540  142.1510 C   0  0  0  0  0  2  0  0  0  0  0  0
  188.6700  177.3800  141.4660 C   0  0  2  0  0  3  0  0  0  0  0  0
  190.1900  177.2570  139.4650 C   0  0  0  0  0  3  0  0  0  0  0  0
  188.7890  177.5060  139.9470 C   0  0  0  0  0  2  0  0  0  0  0  0
  191.1420  177.5700  141.7420 C   0  0  0  0  0  2  0  0  0  0  0  0
  192.6110  177.1270  139.6860 C   0  0  0  0  0  0  0  0  0  0  0  0
  192.7470  176.7460  138.4920 O   0  0  0  0  0  0  0  0  0  0  0  0
  193.7420  177.3340  140.4660 O   0  0  0  0  0  1  0  0  0  0  0  0
  189.7990  178.0060  145.8350 C   0  0  0  0  0  2  0  0  0  0  0  0
  190.9270  177.4860  146.7080 C   0  0  0  0  0  2  0  0  0  0  0  0
  191.6800  176.3760  145.9910 C   0  0  0  0  0  2  0  0  0  0  0  0
  192.4060  175.4750  146.9780 C   0  0  0  0  0  2  0  0  0  0  0  0
  192.8060  176.2100  148.0940 O   0  0  0  0  0  1  0  0  0  0  0  0
  1  8  2  0  0  0  0
  2 12  1  1  0  0  0
  3 24  1  6  0  0  0
  3 13  1  0  0  0  0
  3  6  1  0  0  0  0
  4  1  1  0  0  0  0
  4  5  1  0  0  0  0
  5 14  1  0  0  0  0
  8 11  1  0  0  0  0
  9  2  1  0  0  0  0
 10  7  1  6  0  0  0
 10  2  1  0  0  0  0
 10  3  1  0  0  0  0
 10 13  1  0  0  0  0
 11  9  1  0  0  0  0
 12  6  2  0  0  0  0
 14 11  2  0  0  0  0
 14  7  1  0  0  0  0
 15 20  1  0  0  0  0
 17 19  1  6  0  0  0
 17  5  1  0  0  0  0
 17 16  1  0  0  0  0
 18 19  1  0  0  0  0
 18 15  2  0  0  0  0
 20 16  1  0  0  0  0
 21 15  1  0  0  0  0
 21 23  1  0  0  0  0
 22 21  2  0  0  0  0
 24 25  1  0  0  0  0
 26 25  1  0  0  0  0
 26 27  1  0  0  0  0
 27 28  1  0  0  0  0
M  END
>  <MODEL>
6

>  <REMARK>
 VINA RESULT:      -7.1      3.147      6.039
  Name = 
  6 active torsions:
  status: ('A' for Active; 'I' for Inactive)
    1  A    between atoms: C_2  and  C_7
    2  A    between atoms: C_4  and  C_13
    3  A    between atoms: C_5  and  C_12
    4  A    between atoms: N_11  and  C_20
    5  A    between atoms: C_12  and  C_24
    6  A    between atoms: C_13  and  C_24
                            x       y       z     vdW  Elec       q    Type
                         _______ _______ _______ _____ _____    ______ ____

>  <TORSDO>
F 6

$$$$
=
 OpenBabel11062413323D

 28 32  0  0  1  0  0  0  0  0999 V2000
  183.9370  179.3900  144.3800 C   0  0  0  0  0  3  0  0  0  0  0  0
  188.1100  177.2080  146.0660 C   0  0  1  0  0  3  0  0  0  0  0  0
  189.7200  177.6420  144.2900 C   0  0  2  0  0  0  0  0  0  0  0  0
  183.9580  178.6300  143.0860 C   0  0  0  0  0  2  0  0  0  0  0  0
  185.2980  178.1280  142.7750 N   0  0  0  0  0  0  0  0  0  0  0  0
  190.2440  178.3260  145.5380 C   0  0  0  0  0  3  0  0  0  0  0  0
  187.3630  176.8400  143.5680 C   0  0  0  0  0  2  0  0  0  0  0  0
  184.8720  179.1960  145.3100 C   0  0  0  0  0  3  0  0  0  0  0  0
  186.9240  178.0560  146.1590 N   0  0  0  0  0  2  0  0  0  0  0  0
  188.4560  176.9840  144.6130 C   0  0  2  0  0  0  0  0  0  0  0  0
  186.0040  178.2850  145.0790 C   0  0  0  0  0  0  0  0  0  0  0  0
  189.3040  177.9350  146.6760 C   0  0  0  0  0  3  0  0  0  0  0  0
  189.6250  176.2330  144.3700 O   0  0  0  0  0  0  0  0  0  0  0  0
  186.2130  177.7780  143.8430 C   0  0  0  0  0  0  0  0  0  0  0  0
  186.2270  178.5510  138.6150 C   0  0  0  0  0  0  0  0  0  0  0  0
  186.9920  178.5610  141.0320 C   0  0  0  0  0  2  0  0  0  0  0  0
  185.6270  177.9640  141.3590 C   0  0  2  0  0  3  0  0  0  0  0  0
  184.9530  178.6270  139.0270 C   0  0  0  0  0  3  0  0  0  0  0  0
  184.5490  178.5890  140.4740 C   0  0  0  0  0  2  0  0  0  0  0  0
  187.3500  178.2530  139.5790 C   0  0  0  0  0  2  0  0  0  0  0  0
  186.5330  178.6280  137.1760 C   0  0  0  0  0  0  0  0  0  0  0  0
  185.9530  177.8700  136.3530 O   0  0  0  0  0  0  0  0  0  0  0  0
  187.4660  179.5470  136.7110 O   0  0  0  0  0  1  0  0  0  0  0  0
  189.9110  178.2050  142.8890 C   0  0  0  0  0  2  0  0  0  0  0  0
  191.0500  177.4920  142.1840 C   0  0  0  0  0  2  0  0  0  0  0  0
  190.5530  176.8430  140.9010 C   0  0  0  0  0  2  0  0  0  0  0  0
  191.5550  177.0170  139.7700 C   0  0  0  0  0  2  0  0  0  0  0  0
  192.7630  177.5030  140.2710 O   0  0  0  0  0  1  0  0  0  0  0  0
  1  8  2  0  0  0  0
  2  9  1  0  0  0  0
  2 12  1  1  0  0  0
  3 24  1  6  0  0  0
  3 13  1  0  0  0  0
  3 10  1  0  0  0  0
  3  6  1  0  0  0  0
  4  1  1  0  0  0  0
  5  4  1  0  0  0  0
  5 14  1  0  0  0  0
  6 12  2  0  0  0  0
  7 14  1  0  0  0  0
 10  7  1  6  0  0  0
 10  2  1  0  0  0  0
 11  8  1  0  0  0  0
 11  9  1  0  0  0  0
 13 10  1  0  0  0  0
 14 11  2  0  0  0  0
 15 18  2  0  0  0  0
 15 20  1  0  0  0  0
 16 17  1  0  0  0  0
 17 19  1  6  0  0  0
 17  5  1  0  0  0  0
 18 19  1  0  0  0  0
 20 16  1  0  0  0  0
 21 15  1  0  0  0  0
 22 21  2  0  0  0  0
 23 21  1  0  0  0  0
 25 24  1  0  0  0  0
 26 25  1  0  0  0  0
 27 28  1  0  0  0  0
 27 26  1  0  0  0  0
M  END
>  <MODEL>
7

>  <REMARK>
 VINA RESULT:      -6.9      1.837      2.566
  Name = 
  6 active torsions:
  status: ('A' for Active; 'I' for Inactive)
    1  A    between atoms: C_2  and  C_7
    2  A    between atoms: C_4  and  C_13
    3  A    between atoms: C_5  and  C_12
    4  A    between atoms: N_11  and  C_20
    5  A    between atoms: C_12  and  C_24
    6  A    between atoms: C_13  and  C_24
                            x       y       z     vdW  Elec       q    Type
                         _______ _______ _______ _____ _____    ______ ____

>  <TORSDO>
F 6

$$$$
=
 OpenBabel11062413323D

 28 32  0  0  1  0  0  0  0  0999 V2000
  189.4440  177.9910  140.5560 C   0  0  0  0  0  3  0  0  0  0  0  0
  184.8630  178.3910  142.5240 C   0  0  1  0  0  3  0  0  0  0  0  0
  185.3060  178.9630  144.8500 C   0  0  2  0  0  0  0  0  0  0  0  0
  189.8910  176.9880  141.5790 C   0  0  0  0  0  2  0  0  0  0  0  0
  189.0710  177.0490  142.7910 N   0  0  0  0  0  0  0  0  0  0  0  0
  184.5380  180.1240  144.2480 C   0  0  0  0  0  3  0  0  0  0  0  0
  186.7270  177.0570  143.8190 C   0  0  0  0  0  2  0  0  0  0  0  0
  188.2070  178.4870  140.5700 C   0  0  0  0  0  3  0  0  0  0  0  0
  185.9080  178.6320  141.5320 N   0  0  0  0  0  2  0  0  0  0  0  0
  185.4940  177.9430  143.8210 C   0  0  2  0  0  0  0  0  0  0  0  0
  187.2510  178.1300  141.6310 C   0  0  0  0  0  0  0  0  0  0  0  0
  184.1450  179.7000  142.8340 C   0  0  0  0  0  3  0  0  0  0  0  0
  184.6050  177.7370  144.8960 O   0  0  0  0  0  0  0  0  0  0  0  0
  187.6790  177.4410  142.7130 C   0  0  0  0  0  0  0  0  0  0  0  0
  191.5970  176.4940  146.2070 C   0  0  0  0  0  0  0  0  0  0  0  0
  189.7920  177.8230  145.0220 C   0  0  0  0  0  2  0  0  0  0  0  0
  189.7190  176.6560  144.0430 C   0  0  2  0  0  3  0  0  0  0  0  0
  191.8880  175.8780  145.0520 C   0  0  0  0  0  3  0  0  0  0  0  0
  191.1160  176.0950  143.7810 C   0  0  0  0  0  2  0  0  0  0  0  0
  190.3530  177.3370  146.3570 C   0  0  0  0  0  2  0  0  0  0  0  0
  192.4290  176.2450  147.3960 C   0  0  0  0  0  0  0  0  0  0  0  0
  193.1860  175.2380  147.4530 O   0  0  0  0  0  0  0  0  0  0  0  0
  192.3920  177.1270  148.4690 O   0  0  0  0  0  1  0  0  0  0  0  0
  186.3850  179.1390  145.9080 C   0  0  0  0  0  2  0  0  0  0  0  0
  186.0110  178.3900  147.1750 C   0  0  0  0  0  2  0  0  0  0  0  0
  187.1350  177.4490  147.5820 C   0  0  0  0  0  2  0  0  0  0  0  0
  187.7730  177.8870  148.8920 C   0  0  0  0  0  2  0  0  0  0  0  0
  188.9270  178.6290  148.6390 O   0  0  0  0  0  1  0  0  0  0  0  0
  1  8  2  0  0  0  0
  1  4  1  0  0  0  0
  2 12  1  1  0  0  0
  2 10  1  0  0  0  0
  3 13  1  0  0  0  0
  3 24  1  1  0  0  0
  4  5  1  0  0  0  0
  6  3  1  0  0  0  0
  8 11  1  0  0  0  0
  9 11  1  0  0  0  0
  9  2  1  0  0  0  0
 10  7  1  6  0  0  0
 10  3  1  0  0  0  0
 10 13  1  0  0  0  0
 11 14  2  0  0  0  0
 12  6  2  0  0  0  0
 14  5  1  0  0  0  0
 14  7  1  0  0  0  0
 15 20  1  0  0  0  0
 15 21  1  0  0  0  0
 16 20  1  0  0  0  0
 17  5  1  6  0  0  0
 17 16  1  0  0  0  0
 18 15  2  0  0  0  0
 19 17  1  0  0  0  0
 19 18  1  0  0  0  0
 21 22  2  0  0  0  0
 21 23  1  0  0  0  0
 24 25  1  0  0  0  0
 25 26  1  0  0  0  0
 26 27  1  0  0  0  0
 28 27  1  0  0  0  0
M  END
>  <MODEL>
8

>  <REMARK>
 VINA RESULT:      -6.9      2.951      7.728
  Name = 
  6 active torsions:
  status: ('A' for Active; 'I' for Inactive)
    1  A    between atoms: C_2  and  C_7
    2  A    between atoms: C_4  and  C_13
    3  A    between atoms: C_5  and  C_12
    4  A    between atoms: N_11  and  C_20
    5  A    between atoms: C_12  and  C_24
    6  A    between atoms: C_13  and  C_24
                            x       y       z     vdW  Elec       q    Type
                         _______ _______ _______ _____ _____    ______ ____

>  <TORSDO>
F 6

$$$$
=
 OpenBabel11062413323D

 28 32  0  0  1  0  0  0  0  0999 V2000
  183.9210  178.8250  145.3920 C   0  0  0  0  0  3  0  0  0  0  0  0
  181.1900  179.2540  141.2240 C   0  0  1  0  0  3  0  0  0  0  0  0
  182.0150  177.4350  139.8300 C   0  0  2  0  0  0  0  0  0  0  0  0
  185.2240  178.8840  144.6490 C   0  0  0  0  0  2  0  0  0  0  0  0
  185.0600  178.5210  143.2410 N   0  0  0  0  0  0  0  0  0  0  0  0
  180.5470  177.1590  140.0920 C   0  0  0  0  0  3  0  0  0  0  0  0
  183.7900  178.8790  141.0470 C   0  0  0  0  0  2  0  0  0  0  0  0
  182.7560  178.9140  144.7520 C   0  0  0  0  0  3  0  0  0  0  0  0
  181.4100  179.1860  142.6660 N   0  0  0  0  0  2  0  0  0  0  0  0
  182.3860  178.6760  140.5060 C   0  0  2  0  0  0  0  0  0  0  0  0
  182.6950  179.0000  143.2840 C   0  0  0  0  0  0  0  0  0  0  0  0
  180.0050  178.3700  140.8490 C   0  0  0  0  0  3  0  0  0  0  0  0
  182.2850  178.6150  139.1000 O   0  0  0  0  0  0  0  0  0  0  0  0
  183.8150  178.7980  142.5540 C   0  0  0  0  0  0  0  0  0  0  0  0
  188.9110  177.3970  141.7370 C   0  0  0  0  0  0  0  0  0  0  0  0
  187.1820  177.3070  143.5890 C   0  0  0  0  0  2  0  0  0  0  0  0
  186.2180  177.9190  142.5780 C   0  0  2  0  0  3  0  0  0  0  0  0
  188.2480  178.4220  141.1800 C   0  0  0  0  0  3  0  0  0  0  0  0
  186.9410  178.9450  141.7070 C   0  0  0  0  0  2  0  0  0  0  0  0
  188.3040  176.5790  142.8510 C   0  0  0  0  0  2  0  0  0  0  0  0
  190.2030  176.9720  141.1720 C   0  0  0  0  0  0  0  0  0  0  0  0
  190.2480  176.2780  140.1210 O   0  0  0  0  0  0  0  0  0  0  0  0
  191.3900  177.3400  141.7930 O   0  0  0  0  0  1  0  0  0  0  0  0
  183.0590  176.3350  139.7030 C   0  0  0  0  0  2  0  0  0  0  0  0
  182.9250  175.6310  138.3640 C   0  0  0  0  0  2  0  0  0  0  0  0
  184.2360  175.7070  137.5950 C   0  0  0  0  0  2  0  0  0  0  0  0
  184.4110  177.0680  136.9380 C   0  0  0  0  0  2  0  0  0  0  0  0
  185.4160  177.7870  137.5850 O   0  0  0  0  0  1  0  0  0  0  0  0
  2 12  1  1  0  0  0
  2  9  1  0  0  0  0
  3 24  1  6  0  0  0
  3  6  1  0  0  0  0
  3 10  1  0  0  0  0
  4  1  1  0  0  0  0
  5  4  1  0  0  0  0
  6 12  2  0  0  0  0
  7 14  1  0  0  0  0
  8  1  2  0  0  0  0
  9 11  1  0  0  0  0
 10  7  1  1  0  0  0
 10  2  1  0  0  0  0
 11  8  1  0  0  0  0
 13  3  1  0  0  0  0
 13 10  1  0  0  0  0
 14  5  1  0  0  0  0
 14 11  2  0  0  0  0
 15 20  1  0  0  0  0
 17 19  1  1  0  0  0
 17  5  1  0  0  0  0
 17 16  1  0  0  0  0
 18 19  1  0  0  0  0
 18 15  2  0  0  0  0
 20 16  1  0  0  0  0
 21 15  1  0  0  0  0
 21 23  1  0  0  0  0
 22 21  2  0  0  0  0
 25 24  1  0  0  0  0
 26 25  1  0  0  0  0
 27 28  1  0  0  0  0
 27 26  1  0  0  0  0
M  END
>  <MODEL>
9

>  <REMARK>
 VINA RESULT:      -6.6      2.449      6.788
  Name = 
  6 active torsions:
  status: ('A' for Active; 'I' for Inactive)
    1  A    between atoms: C_2  and  C_7
    2  A    between atoms: C_4  and  C_13
    3  A    between atoms: C_5  and  C_12
    4  A    between atoms: N_11  and  C_20
    5  A    between atoms: C_12  and  C_24
    6  A    between atoms: C_13  and  C_24
                            x       y       z     vdW  Elec       q    Type
                         _______ _______ _______ _____ _____    ______ ____

>  <TORSDO>
F 6

$$$$
