=
 OpenBabel11062417283D

 45 50  0  0  1  0  0  0  0  0999 V2000
  191.7440  174.9480  137.9550 N   0  0  0  0  0  1  0  0  0  0  0  0
  189.4410  175.8040  137.8600 C   0  0  0  0  0  0  0  0  0  0  0  0
  188.1430  175.7100  137.3370 C   0  0  0  0  0  0  0  0  0  0  0  0
  190.4120  174.8740  137.4530 C   0  0  0  0  0  0  0  0  0  0  0  0
  190.0850  173.8950  136.5630 N   0  0  0  0  0  0  0  0  0  0  0  0
  187.8410  174.6900  136.4220 C   0  0  0  0  0  3  0  0  0  0  0  0
  188.8340  173.7860  136.0440 C   0  0  0  0  0  3  0  0  0  0  0  0
  187.1720  176.6350  137.7370 O   0  0  0  0  0  0  0  0  0  0  0  0
  186.4490  177.4500  136.8160 C   0  0  1  0  0  3  0  0  0  0  0  0
  184.9700  177.0930  136.7790 C   0  0  0  0  0  0  0  0  0  0  0  0
  184.0820  175.5330  135.7360 C   0  0  0  0  0  2  0  0  0  0  0  0
  184.4410  176.9910  135.3900 C   0  0  0  0  0  2  0  0  0  0  0  0
  184.6390  175.6820  137.1600 C   0  0  0  0  0  2  0  0  0  0  0  0
  185.4100  178.3160  137.5520 C   0  0  1  0  0  3  0  0  0  0  0  0
  185.3770  178.0420  138.9240 O   0  0  0  0  0  0  0  0  0  0  0  0
  184.5660  179.0420  139.4680 C   0  0  0  0  0  2  0  0  0  0  0  0
  182.0880  178.3880  140.0610 C   0  0  2  0  0  3  0  0  0  0  0  0
  182.9530  177.1360  139.9800 C   0  0  0  0  0  2  0  0  0  0  0  0
  181.8660  178.9130  138.7220 N   0  0  0  0  0  1  0  0  0  0  0  0
  183.5650  178.4400  140.4470 C   0  0  1  0  0  0  0  0  0  0  0  0
  185.3880  178.2280  143.7670 C   0  0  0  0  0  3  0  0  0  0  0  0
  183.8480  178.5000  141.9160 C   0  0  0  0  0  0  0  0  0  0  0  0
  184.3870  178.6050  144.6670 C   0  0  0  0  0  0  0  0  0  0  0  0
  183.1060  178.9080  144.1880 C   0  0  0  0  0  3  0  0  0  0  0  0
  185.1190  178.1700  142.3970 C   0  0  0  0  0  3  0  0  0  0  0  0
  182.8370  178.8530  142.8190 C   0  0  0  0  0  3  0  0  0  0  0  0
  184.7040  178.6720  146.0980 C   0  0  0  0  0  3  0  0  0  0  0  0
  185.4170  179.6300  146.5890 N   0  0  0  0  0  2  0  0  0  0  0  0
  189.7910  176.9230  138.7870 C   0  0  0  0  0  2  0  0  0  0  0  0
  189.9000  176.4140  140.1510 N   0  0  0  0  0  2  0  0  0  0  0  0
  189.4400  177.4130  141.1190 C   0  0  1  0  0  3  0  0  0  0  0  0
  188.3070  178.2470  140.5310 C   0  0  0  0  0  1  0  0  0  0  0  0
  189.0700  176.7990  142.4810 C   0  0  1  0  0  3  0  0  0  0  0  0
  189.7870  175.6290  142.6810 F   0  0  0  0  0  0  0  0  0  0  0  0
  189.3730  177.7580  143.6250 C   0  0  2  0  0  3  0  0  0  0  0  0
  190.0340  178.8710  143.1440 F   0  0  0  0  0  0  0  0  0  0  0  0
  190.1980  177.1040  144.6350 N   0  0  0  0  0  2  0  0  0  0  0  0
  189.5250  177.1900  145.8660 N   0  0  0  0  0  0  0  0  0  0  0  0
  192.3070  175.8280  147.6270 C   0  0  0  0  0  3  0  0  0  0  0  0
  192.7060  174.8760  146.7520 F   0  0  0  0  0  0  0  0  0  0  0  0
  190.2100  177.2900  147.1050 C   0  0  0  0  0  0  0  0  0  0  0  0
  187.7500  177.3920  147.3030 C   0  0  0  0  0  2  0  0  0  0  0  0
  191.2610  176.5590  147.3640 C   0  0  0  0  0  0  0  0  0  0  0  0
  188.1670  177.5290  145.9060 N   0  0  0  0  0  2  0  0  0  0  0  0
  189.1430  177.8110  148.4130 S   0  0  0  0  0  0  0  0  0  0  0  0
  2 29  1  0  0  0  0
  3  8  1  0  0  0  0
  3  2  2  0  0  0  0
  4  2  1  0  0  0  0
  4  1  1  0  0  0  0
  5  4  2  0  0  0  0
  6  3  1  0  0  0  0
  7  6  2  0  0  0  0
  7  5  1  0  0  0  0
  9 14  1  0  0  0  0
  9  8  1  1  0  0  0
 10  9  1  0  0  0  0
 10 13  1  0  0  0  0
 10 14  1  0  0  0  0
 11 13  1  0  0  0  0
 12 11  1  0  0  0  0
 12 10  1  0  0  0  0
 14 15  1  1  0  0  0
 15 16  1  0  0  0  0
 17 19  1  6  0  0  0
 17 20  1  0  0  0  0
 18 17  1  0  0  0  0
 18 20  1  0  0  0  0
 20 16  1  6  0  0  0
 20 22  1  0  0  0  0
 21 23  1  0  0  0  0
 22 25  1  0  0  0  0
 22 26  2  0  0  0  0
 23 27  1  0  0  0  0
 24 23  2  0  0  0  0
 25 21  2  0  0  0  0
 26 24  1  0  0  0  0
 27 28  2  0  0  0  0
 29 30  1  0  0  0  0
 30 31  1  0  0  0  0
 31 32  1  6  0  0  0
 31 33  1  0  0  0  0
 33 34  1  1  0  0  0
 33 35  1  0  0  0  0
 35 36  1  6  0  0  0
 35 37  1  0  0  0  0
 37 38  1  0  0  0  0
 38 44  1  0  0  0  0
 38 41  1  0  0  0  0
 40 39  1  0  0  0  0
 41 43  2  0  0  0  0
 41 45  1  0  0  0  0
 42 45  1  0  0  0  0
 43 39  2  0  0  0  0
 44 42  1  0  0  0  0
M  END
>  <MODEL>
1

>  <REMARK>
 VINA RESULT:      -8.7      0.000      0.000
  Name = 
  14 active torsions:
  status: ('A' for Active; 'I' for Inactive)
    1  A    between atoms: N_1  and  N_3
    2  A    between atoms: C_2  and  C_31
    3  A    between atoms: N_3  and  C_5
    4  A    between atoms: O_4  and  C_7
    5  A    between atoms: O_4  and  C_33
    6  A    between atoms: C_5  and  C_13
    7  A    between atoms: C_12  and  N_19
    8  A    between atoms: C_12  and  C_23
    9  A    between atoms: C_13  and  C_21
   10  A    between atoms: C_18  and  C_28
   11  A    between atoms: N_19  and  C_21
   12  A    between atoms: O_24  and  C_40
   13  A    between atoms: O_24  and  C_41
   14  A    between atoms: C_28  and  C_40
                            x       y       z     vdW  Elec       q    Type
                         _______ _______ _______ _____ _____    ______ ____

>  <TORSDO>
F 14

$$$$
=
 OpenBabel11062417283D

 45 50  0  0  1  0  0  0  0  0999 V2000
  185.3090  179.6970  145.0540 N   0  0  0  0  0  1  0  0  0  0  0  0
  184.7060  178.9640  142.7850 C   0  0  0  0  0  0  0  0  0  0  0  0
  183.7240  178.5300  141.8820 C   0  0  0  0  0  0  0  0  0  0  0  0
  184.3350  179.2650  144.1070 C   0  0  0  0  0  0  0  0  0  0  0  0
  183.0350  179.1370  144.4950 N   0  0  0  0  0  0  0  0  0  0  0  0
  182.3950  178.4080  142.3150 C   0  0  0  0  0  3  0  0  0  0  0  0
  182.0690  178.7180  143.6360 C   0  0  0  0  0  3  0  0  0  0  0  0
  184.0870  178.2270  140.5650 O   0  0  0  0  0  0  0  0  0  0  0  0
  183.1500  177.7910  139.5820 C   0  0  1  0  0  3  0  0  0  0  0  0
  183.0500  178.7660  138.4180 C   0  0  0  0  0  0  0  0  0  0  0  0
  181.9510  180.5260  138.3480 C   0  0  0  0  0  2  0  0  0  0  0  0
  181.6400  179.0510  138.0300 C   0  0  0  0  0  2  0  0  0  0  0  0
  183.3970  180.1890  138.7400 C   0  0  0  0  0  2  0  0  0  0  0  0
  183.8570  177.4990  138.2450 C   0  0  1  0  0  3  0  0  0  0  0  0
  185.2230  177.8010  138.2980 O   0  0  0  0  0  0  0  0  0  0  0  0
  185.8430  176.7680  137.5920 C   0  0  0  0  0  2  0  0  0  0  0  0
  186.8320  177.6840  135.3320 C   0  0  2  0  0  3  0  0  0  0  0  0
  186.9010  178.7620  136.4060 C   0  0  0  0  0  2  0  0  0  0  0  0
  185.4500  177.5020  134.9140 N   0  0  0  0  0  1  0  0  0  0  0  0
  187.0300  177.3050  136.7980 C   0  0  1  0  0  0  0  0  0  0  0  0
  190.6430  177.4550  137.9430 C   0  0  0  0  0  3  0  0  0  0  0  0
  188.4160  176.8850  137.1770 C   0  0  0  0  0  0  0  0  0  0  0  0
  191.0180  176.1090  137.8830 C   0  0  0  0  0  0  0  0  0  0  0  0
  190.0920  175.1540  137.4450 C   0  0  0  0  0  3  0  0  0  0  0  0
  189.3490  177.8430  137.5860 C   0  0  0  0  0  3  0  0  0  0  0  0
  188.7980  175.5400  137.0910 C   0  0  0  0  0  3  0  0  0  0  0  0
  192.3790  175.7310  138.2790 C   0  0  0  0  0  3  0  0  0  0  0  0
  193.4050  176.4310  137.9290 N   0  0  0  0  0  2  0  0  0  0  0  0
  186.1350  179.0390  142.3530 C   0  0  0  0  0  2  0  0  0  0  0  0
  186.8170  177.7940  142.6940 N   0  0  0  0  0  2  0  0  0  0  0  0
  187.8220  177.4560  141.6830 C   0  0  1  0  0  3  0  0  0  0  0  0
  187.8440  178.5060  140.5770 C   0  0  0  0  0  1  0  0  0  0  0  0
  189.2160  177.2120  142.2860 C   0  0  1  0  0  3  0  0  0  0  0  0
  190.1840  177.8090  141.4930 F   0  0  0  0  0  0  0  0  0  0  0  0
  189.3220  177.7820  143.6950 C   0  0  2  0  0  3  0  0  0  0  0  0
  190.2570  178.7980  143.7240 F   0  0  0  0  0  0  0  0  0  0  0  0
  189.7100  176.7410  144.6400 N   0  0  0  0  0  2  0  0  0  0  0  0
  189.1490  177.0580  145.8890 N   0  0  0  0  0  0  0  0  0  0  0  0
  192.0910  176.0270  147.6150 C   0  0  0  0  0  3  0  0  0  0  0  0
  192.4200  174.9270  146.8990 F   0  0  0  0  0  0  0  0  0  0  0  0
  189.9410  177.3810  147.0220 C   0  0  0  0  0  0  0  0  0  0  0  0
  187.5070  177.5340  147.4170 C   0  0  0  0  0  2  0  0  0  0  0  0
  191.0180  176.7030  147.3160 C   0  0  0  0  0  0  0  0  0  0  0  0
  187.7970  177.4070  145.9870 N   0  0  0  0  0  2  0  0  0  0  0  0
  188.9890  178.1410  148.3010 S   0  0  0  0  0  0  0  0  0  0  0  0
  2  4  1  0  0  0  0
  3  6  1  0  0  0  0
  3  2  2  0  0  0  0
  4  5  2  0  0  0  0
  4  1  1  0  0  0  0
  6  7  2  0  0  0  0
  7  5  1  0  0  0  0
  8  3  1  0  0  0  0
  9  8  1  1  0  0  0
 10 13  1  0  0  0  0
 10  9  1  0  0  0  0
 11 13  1  0  0  0  0
 12 11  1  0  0  0  0
 12 10  1  0  0  0  0
 14 15  1  1  0  0  0
 14 10  1  0  0  0  0
 14  9  1  0  0  0  0
 16 15  1  0  0  0  0
 17 19  1  1  0  0  0
 17 18  1  0  0  0  0
 17 20  1  0  0  0  0
 18 20  1  0  0  0  0
 20 22  1  0  0  0  0
 20 16  1  1  0  0  0
 22 25  1  0  0  0  0
 23 21  1  0  0  0  0
 23 27  1  0  0  0  0
 24 23  2  0  0  0  0
 25 21  2  0  0  0  0
 26 22  2  0  0  0  0
 26 24  1  0  0  0  0
 28 27  2  0  0  0  0
 29 30  1  0  0  0  0
 29  2  1  0  0  0  0
 31 32  1  6  0  0  0
 31 33  1  0  0  0  0
 31 30  1  0  0  0  0
 33 34  1  6  0  0  0
 33 35  1  0  0  0  0
 35 36  1  6  0  0  0
 35 37  1  0  0  0  0
 37 38  1  0  0  0  0
 38 44  1  0  0  0  0
 38 41  1  0  0  0  0
 40 39  1  0  0  0  0
 41 43  2  0  0  0  0
 41 45  1  0  0  0  0
 42 45  1  0  0  0  0
 43 39  2  0  0  0  0
 44 42  1  0  0  0  0
M  END
>  <MODEL>
2

>  <REMARK>
 VINA RESULT:      -8.1      1.748      6.166
  Name = 
  14 active torsions:
  status: ('A' for Active; 'I' for Inactive)
    1  A    between atoms: N_1  and  N_3
    2  A    between atoms: C_2  and  C_31
    3  A    between atoms: N_3  and  C_5
    4  A    between atoms: O_4  and  C_7
    5  A    between atoms: O_4  and  C_33
    6  A    between atoms: C_5  and  C_13
    7  A    between atoms: C_12  and  N_19
    8  A    between atoms: C_12  and  C_23
    9  A    between atoms: C_13  and  C_21
   10  A    between atoms: C_18  and  C_28
   11  A    between atoms: N_19  and  C_21
   12  A    between atoms: O_24  and  C_40
   13  A    between atoms: O_24  and  C_41
   14  A    between atoms: C_28  and  C_40
                            x       y       z     vdW  Elec       q    Type
                         _______ _______ _______ _____ _____    ______ ____

>  <TORSDO>
F 14

$$$$
=
 OpenBabel11062417283D

 45 50  0  0  1  0  0  0  0  0999 V2000
  191.1050  177.4580  140.3130 N   0  0  0  0  0  1  0  0  0  0  0  0
  189.1490  177.0830  138.8720 C   0  0  0  0  0  0  0  0  0  0  0  0
  188.5400  176.3640  137.8320 C   0  0  0  0  0  0  0  0  0  0  0  0
  190.4520  176.7410  139.2680 C   0  0  0  0  0  0  0  0  0  0  0  0
  191.1070  175.7210  138.6460 N   0  0  0  0  0  0  0  0  0  0  0  0
  189.2430  175.3200  137.2130 C   0  0  0  0  0  3  0  0  0  0  0  0
  190.5360  175.0120  137.6380 C   0  0  0  0  0  3  0  0  0  0  0  0
  187.2420  176.7000  137.4310 O   0  0  0  0  0  0  0  0  0  0  0  0
  186.7640  176.5010  136.1020 C   0  0  1  0  0  3  0  0  0  0  0  0
  185.7340  175.3830  136.0300 C   0  0  0  0  0  0  0  0  0  0  0  0
  186.1030  173.3420  135.9530 C   0  0  0  0  0  2  0  0  0  0  0  0
  185.9800  174.4520  134.8930 C   0  0  0  0  0  2  0  0  0  0  0  0
  185.8450  174.3360  137.0960 C   0  0  0  0  0  2  0  0  0  0  0  0
  185.2590  176.8190  136.0100 C   0  0  1  0  0  3  0  0  0  0  0  0
  184.7160  177.1510  137.2570 O   0  0  0  0  0  0  0  0  0  0  0  0
  183.3780  177.4510  136.9940 C   0  0  0  0  0  2  0  0  0  0  0  0
  181.8020  175.5330  137.8670 C   0  0  2  0  0  3  0  0  0  0  0  0
  183.0340  175.6430  138.7570 C   0  0  0  0  0  2  0  0  0  0  0  0
  182.1770  174.9500  136.5880 N   0  0  0  0  0  1  0  0  0  0  0  0
  182.4810  176.8840  138.0890 C   0  0  1  0  0  0  0  0  0  0  0  0
  180.3100  179.7250  139.3560 C   0  0  0  0  0  3  0  0  0  0  0  0
  181.7710  177.8220  139.0150 C   0  0  0  0  0  0  0  0  0  0  0  0
  180.4390  179.5880  140.7410 C   0  0  0  0  0  0  0  0  0  0  0  0
  181.2580  178.5770  141.2610 C   0  0  0  0  0  3  0  0  0  0  0  0
  180.9760  178.8490  138.4950 C   0  0  0  0  0  3  0  0  0  0  0  0
  181.9230  177.7000  140.4020 C   0  0  0  0  0  3  0  0  0  0  0  0
  179.7140  180.5130  141.6190 C   0  0  0  0  0  3  0  0  0  0  0  0
  180.0110  180.6320  142.8690 N   0  0  0  0  0  2  0  0  0  0  0  0
  188.4330  178.2370  139.4970 C   0  0  0  0  0  2  0  0  0  0  0  0
  188.1170  177.9230  140.8880 N   0  0  0  0  0  2  0  0  0  0  0  0
  186.9600  178.6960  141.3470 C   0  0  1  0  0  3  0  0  0  0  0  0
  185.8290  178.6250  140.3270 C   0  0  0  0  0  1  0  0  0  0  0  0
  186.5010  178.3000  142.7610 C   0  0  1  0  0  3  0  0  0  0  0  0
  185.3100  177.5940  142.6890 F   0  0  0  0  0  0  0  0  0  0  0  0
  187.5400  177.4340  143.4620 C   0  0  2  0  0  3  0  0  0  0  0  0
  187.0910  176.1300  143.5400 F   0  0  0  0  0  0  0  0  0  0  0  0
  187.8010  177.9370  144.8060 N   0  0  0  0  0  2  0  0  0  0  0  0
  189.1760  177.8020  145.0600 N   0  0  0  0  0  0  0  0  0  0  0  0
  188.6680  177.9140  148.5850 C   0  0  0  0  0  3  0  0  0  0  0  0
  187.7090  178.8660  148.6610 F   0  0  0  0  0  0  0  0  0  0  0  0
  189.6800  177.2600  146.2720 C   0  0  0  0  0  0  0  0  0  0  0  0
  191.4270  177.8360  144.6230 C   0  0  0  0  0  2  0  0  0  0  0  0
  189.1700  177.5870  147.4280 C   0  0  0  0  0  0  0  0  0  0  0  0
  190.0980  177.8700  144.0080 N   0  0  0  0  0  2  0  0  0  0  0  0
  191.3850  176.8170  146.1410 S   0  0  0  0  0  0  0  0  0  0  0  0
  2  4  1  0  0  0  0
  2 29  1  0  0  0  0
  3  2  2  0  0  0  0
  4  1  1  0  0  0  0
  5  4  2  0  0  0  0
  6  7  2  0  0  0  0
  6  3  1  0  0  0  0
  7  5  1  0  0  0  0
  8  3  1  0  0  0  0
  9  8  1  1  0  0  0
 10  9  1  0  0  0  0
 10 13  1  0  0  0  0
 11 13  1  0  0  0  0
 12 11  1  0  0  0  0
 12 10  1  0  0  0  0
 14 10  1  0  0  0  0
 14  9  1  0  0  0  0
 14 15  1  1  0  0  0
 16 15  1  0  0  0  0
 17 19  1  6  0  0  0
 17 20  1  0  0  0  0
 17 18  1  0  0  0  0
 20 16  1  6  0  0  0
 20 18  1  0  0  0  0
 20 22  1  0  0  0  0
 21 23  1  0  0  0  0
 22 26  2  0  0  0  0
 23 24  2  0  0  0  0
 23 27  1  0  0  0  0
 25 22  1  0  0  0  0
 25 21  2  0  0  0  0
 26 24  1  0  0  0  0
 27 28  2  0  0  0  0
 29 30  1  0  0  0  0
 30 31  1  0  0  0  0
 31 32  1  6  0  0  0
 31 33  1  0  0  0  0
 33 34  1  6  0  0  0
 33 35  1  0  0  0  0
 35 36  1  1  0  0  0
 35 37  1  0  0  0  0
 37 38  1  0  0  0  0
 38 41  1  0  0  0  0
 39 40  1  0  0  0  0
 41 43  2  0  0  0  0
 42 45  1  0  0  0  0
 43 39  2  0  0  0  0
 44 42  1  0  0  0  0
 44 38  1  0  0  0  0
 45 41  1  0  0  0  0
M  END
>  <MODEL>
3

>  <REMARK>
 VINA RESULT:      -7.9      2.325      3.543
  Name = 
  14 active torsions:
  status: ('A' for Active; 'I' for Inactive)
    1  A    between atoms: N_1  and  N_3
    2  A    between atoms: C_2  and  C_31
    3  A    between atoms: N_3  and  C_5
    4  A    between atoms: O_4  and  C_7
    5  A    between atoms: O_4  and  C_33
    6  A    between atoms: C_5  and  C_13
    7  A    between atoms: C_12  and  N_19
    8  A    between atoms: C_12  and  C_23
    9  A    between atoms: C_13  and  C_21
   10  A    between atoms: C_18  and  C_28
   11  A    between atoms: N_19  and  C_21
   12  A    between atoms: O_24  and  C_40
   13  A    between atoms: O_24  and  C_41
   14  A    between atoms: C_28  and  C_40
                            x       y       z     vdW  Elec       q    Type
                         _______ _______ _______ _____ _____    ______ ____

>  <TORSDO>
F 14

$$$$
=
 OpenBabel11062417283D

 45 50  0  0  1  0  0  0  0  0999 V2000
  185.3950  179.6590  145.0680 N   0  0  0  0  0  1  0  0  0  0  0  0
  184.6470  178.9850  142.8250 C   0  0  0  0  0  0  0  0  0  0  0  0
  183.6070  178.5860  141.9730 C   0  0  0  0  0  0  0  0  0  0  0  0
  184.3600  179.2630  144.1720 C   0  0  0  0  0  0  0  0  0  0  0  0
  183.0840  179.1450  144.6340 N   0  0  0  0  0  0  0  0  0  0  0  0
  182.3040  178.4740  142.4820 C   0  0  0  0  0  3  0  0  0  0  0  0
  182.0620  178.7590  143.8260 C   0  0  0  0  0  3  0  0  0  0  0  0
  183.8860  178.3070  140.6310 O   0  0  0  0  0  0  0  0  0  0  0  0
  182.8950  177.8570  139.7080 C   0  0  1  0  0  3  0  0  0  0  0  0
  182.7750  178.7810  138.5060 C   0  0  0  0  0  0  0  0  0  0  0  0
  181.7270  180.5700  138.4000 C   0  0  0  0  0  2  0  0  0  0  0  0
  181.3580  179.0930  138.1640 C   0  0  0  0  0  2  0  0  0  0  0  0
  183.1780  180.2050  138.7470 C   0  0  0  0  0  2  0  0  0  0  0  0
  183.5360  177.4830  138.3590 C   0  0  1  0  0  3  0  0  0  0  0  0
  184.9110  177.7430  138.3400 O   0  0  0  0  0  0  0  0  0  0  0  0
  185.2820  177.6100  137.0000 C   0  0  0  0  0  2  0  0  0  0  0  0
  187.4510  176.4610  136.0540 C   0  0  2  0  0  3  0  0  0  0  0  0
  187.4300  176.3630  137.5740 C   0  0  0  0  0  2  0  0  0  0  0  0
  187.7340  177.8320  135.6590 N   0  0  0  0  0  1  0  0  0  0  0  0
  186.1250  176.3550  136.8060 C   0  0  1  0  0  0  0  0  0  0  0  0
  183.6630  173.6100  135.9140 C   0  0  0  0  0  3  0  0  0  0  0  0
  185.4510  175.0190  136.7440 C   0  0  0  0  0  0  0  0  0  0  0  0
  184.1760  172.5230  136.6270 C   0  0  0  0  0  0  0  0  0  0  0  0
  185.3190  172.6940  137.4190 C   0  0  0  0  0  3  0  0  0  0  0  0
  184.2940  174.8550  135.9760 C   0  0  0  0  0  3  0  0  0  0  0  0
  185.9520  173.9370  137.4790 C   0  0  0  0  0  3  0  0  0  0  0  0
  183.5010  171.2240  136.5280 C   0  0  0  0  0  3  0  0  0  0  0  0
  182.6900  170.9550  135.5610 N   0  0  0  0  0  2  0  0  0  0  0  0
  186.0490  179.0490  142.3100 C   0  0  0  0  0  2  0  0  0  0  0  0
  186.7680  177.8370  142.6900 N   0  0  0  0  0  2  0  0  0  0  0  0
  187.7470  177.4680  141.6650 C   0  0  1  0  0  3  0  0  0  0  0  0
  187.7710  178.5060  140.5480 C   0  0  0  0  0  1  0  0  0  0  0  0
  189.1460  177.2000  142.2450 C   0  0  1  0  0  3  0  0  0  0  0  0
  190.1130  177.7550  141.4210 F   0  0  0  0  0  0  0  0  0  0  0  0
  189.2950  177.7950  143.6400 C   0  0  2  0  0  3  0  0  0  0  0  0
  190.1840  178.8520  143.6090 F   0  0  0  0  0  0  0  0  0  0  0  0
  189.7740  176.7870  144.5780 N   0  0  0  0  0  2  0  0  0  0  0  0
  189.2100  177.0620  145.8350 N   0  0  0  0  0  0  0  0  0  0  0  0
  192.1470  175.9740  147.5340 C   0  0  0  0  0  3  0  0  0  0  0  0
  192.4780  174.8990  146.7810 F   0  0  0  0  0  0  0  0  0  0  0  0
  189.9990  177.3470  146.9810 C   0  0  0  0  0  0  0  0  0  0  0  0
  187.5640  177.4870  147.3750 C   0  0  0  0  0  2  0  0  0  0  0  0
  191.0760  176.6600  147.2540 C   0  0  0  0  0  0  0  0  0  0  0  0
  187.8580  177.4080  145.9420 N   0  0  0  0  0  2  0  0  0  0  0  0
  189.0440  178.0640  148.2820 S   0  0  0  0  0  0  0  0  0  0  0  0
  2  4  1  0  0  0  0
  3  6  1  0  0  0  0
  3  2  2  0  0  0  0
  4  5  2  0  0  0  0
  4  1  1  0  0  0  0
  6  7  2  0  0  0  0
  7  5  1  0  0  0  0
  8  3  1  0  0  0  0
  9  8  1  1  0  0  0
 10 13  1  0  0  0  0
 10  9  1  0  0  0  0
 11 13  1  0  0  0  0
 12 11  1  0  0  0  0
 12 10  1  0  0  0  0
 14 15  1  1  0  0  0
 14 10  1  0  0  0  0
 14  9  1  0  0  0  0
 16 15  1  0  0  0  0
 17 19  1  1  0  0  0
 17 20  1  0  0  0  0
 17 18  1  0  0  0  0
 20 16  1  1  0  0  0
 20 18  1  0  0  0  0
 21 25  2  0  0  0  0
 21 23  1  0  0  0  0
 22 20  1  0  0  0  0
 22 26  2  0  0  0  0
 23 24  2  0  0  0  0
 24 26  1  0  0  0  0
 25 22  1  0  0  0  0
 27 23  1  0  0  0  0
 28 27  2  0  0  0  0
 29 30  1  0  0  0  0
 29  2  1  0  0  0  0
 31 32  1  6  0  0  0
 31 33  1  0  0  0  0
 31 30  1  0  0  0  0
 33 34  1  6  0  0  0
 33 35  1  0  0  0  0
 35 36  1  6  0  0  0
 35 37  1  0  0  0  0
 37 38  1  0  0  0  0
 38 44  1  0  0  0  0
 38 41  1  0  0  0  0
 40 39  1  0  0  0  0
 41 43  2  0  0  0  0
 41 45  1  0  0  0  0
 42 45  1  0  0  0  0
 43 39  2  0  0  0  0
 44 42  1  0  0  0  0
M  END
>  <MODEL>
4

>  <REMARK>
 VINA RESULT:      -7.8      2.146      6.360
  Name = 
  14 active torsions:
  status: ('A' for Active; 'I' for Inactive)
    1  A    between atoms: N_1  and  N_3
    2  A    between atoms: C_2  and  C_31
    3  A    between atoms: N_3  and  C_5
    4  A    between atoms: O_4  and  C_7
    5  A    between atoms: O_4  and  C_33
    6  A    between atoms: C_5  and  C_13
    7  A    between atoms: C_12  and  N_19
    8  A    between atoms: C_12  and  C_23
    9  A    between atoms: C_13  and  C_21
   10  A    between atoms: C_18  and  C_28
   11  A    between atoms: N_19  and  C_21
   12  A    between atoms: O_24  and  C_40
   13  A    between atoms: O_24  and  C_41
   14  A    between atoms: C_28  and  C_40
                            x       y       z     vdW  Elec       q    Type
                         _______ _______ _______ _____ _____    ______ ____

>  <TORSDO>
F 14

$$$$
=
 OpenBabel11062417283D

 45 50  0  0  1  0  0  0  0  0999 V2000
  183.3770  179.3460  144.2740 N   0  0  0  0  0  1  0  0  0  0  0  0
  185.5000  178.4330  143.4350 C   0  0  0  0  0  0  0  0  0  0  0  0
  186.7340  177.8190  143.6980 C   0  0  0  0  0  0  0  0  0  0  0  0
  184.6330  178.7130  144.5040 C   0  0  0  0  0  0  0  0  0  0  0  0
  184.9930  178.3850  145.7770 N   0  0  0  0  0  0  0  0  0  0  0  0
  187.0740  177.4960  145.0210 C   0  0  0  0  0  3  0  0  0  0  0  0
  186.1830  177.7900  146.0540 C   0  0  0  0  0  3  0  0  0  0  0  0
  187.6030  177.5400  142.6380 O   0  0  0  0  0  0  0  0  0  0  0  0
  188.8530  178.2060  142.4630 C   0  0  1  0  0  3  0  0  0  0  0  0
  189.9780  177.2300  142.1500 C   0  0  0  0  0  0  0  0  0  0  0  0
  191.0480  176.0760  143.5040 C   0  0  0  0  0  2  0  0  0  0  0  0
  191.2080  177.5030  142.9460 C   0  0  0  0  0  2  0  0  0  0  0  0
  189.7830  175.8360  142.6660 C   0  0  0  0  0  2  0  0  0  0  0  0
  189.3670  178.0300  141.0220 C   0  0  1  0  0  3  0  0  0  0  0  0
  188.5280  177.2060  140.2620 O   0  0  0  0  0  0  0  0  0  0  0  0
  187.9460  178.0600  139.3220 C   0  0  0  0  0  2  0  0  0  0  0  0
  188.7200  178.4360  136.8360 C   0  0  2  0  0  3  0  0  0  0  0  0
  189.6010  177.3870  137.5040 C   0  0  0  0  0  2  0  0  0  0  0  0
  189.0390  179.7510  137.3710 N   0  0  0  0  0  1  0  0  0  0  0  0
  188.1490  177.5150  137.9120 C   0  0  1  0  0  0  0  0  0  0  0  0
  186.9540  174.0820  136.8270 C   0  0  0  0  0  3  0  0  0  0  0  0
  187.2660  176.4110  137.4190 C   0  0  0  0  0  0  0  0  0  0  0  0
  185.6220  174.3370  136.4880 C   0  0  0  0  0  0  0  0  0  0  0  0
  185.1200  175.6410  136.5940 C   0  0  0  0  0  3  0  0  0  0  0  0
  187.7750  175.1160  137.2850 C   0  0  0  0  0  3  0  0  0  0  0  0
  185.9390  176.6730  137.0550 C   0  0  0  0  0  3  0  0  0  0  0  0
  184.7800  173.2280  136.0260 C   0  0  0  0  0  3  0  0  0  0  0  0
  184.7210  172.1100  136.6680 N   0  0  0  0  0  2  0  0  0  0  0  0
  185.1530  178.8380  142.0390 C   0  0  0  0  0  2  0  0  0  0  0  0
  184.1370  177.9360  141.5040 N   0  0  0  0  0  2  0  0  0  0  0  0
  183.4920  178.5180  140.3240 C   0  0  1  0  0  3  0  0  0  0  0  0
  184.5180  179.2260  139.4460 C   0  0  0  0  0  1  0  0  0  0  0  0
  182.6540  177.4950  139.5370 C   0  0  1  0  0  3  0  0  0  0  0  0
  183.4240  176.3820  139.2410 F   0  0  0  0  0  0  0  0  0  0  0  0
  181.4330  177.0460  140.3310 C   0  0  2  0  0  3  0  0  0  0  0  0
  181.2150  175.6960  140.1360 F   0  0  0  0  0  0  0  0  0  0  0  0
  180.2510  177.7920  139.9150 N   0  0  0  0  0  2  0  0  0  0  0  0
  180.0120  178.7940  140.8700 N   0  0  0  0  0  0  0  0  0  0  0  0
  181.0340  181.3620  138.6210 C   0  0  0  0  0  3  0  0  0  0  0  0
  182.0870  180.7570  138.0250 F   0  0  0  0  0  0  0  0  0  0  0  0
  179.7200  180.1370  140.5130 C   0  0  0  0  0  0  0  0  0  0  0  0
  179.6610  179.7070  142.9450 C   0  0  0  0  0  2  0  0  0  0  0  0
  180.3770  180.7470  139.5640 C   0  0  0  0  0  0  0  0  0  0  0  0
  179.7100  178.4500  142.1930 N   0  0  0  0  0  2  0  0  0  0  0  0
  179.0520  181.0530  141.8670 S   0  0  0  0  0  0  0  0  0  0  0  0
  1  4  1  0  0  0  0
  2  3  2  0  0  0  0
  2  4  1  0  0  0  0
  3  6  1  0  0  0  0
  4  5  2  0  0  0  0
  5  7  1  0  0  0  0
  6  7  2  0  0  0  0
  8  3  1  0  0  0  0
  9  8  1  6  0  0  0
 10  9  1  0  0  0  0
 10 13  1  0  0  0  0
 10 12  1  0  0  0  0
 12 11  1  0  0  0  0
 13 11  1  0  0  0  0
 14 15  1  6  0  0  0
 14 10  1  0  0  0  0
 14  9  1  0  0  0  0
 16 15  1  0  0  0  0
 17 19  1  1  0  0  0
 17 18  1  0  0  0  0
 17 20  1  0  0  0  0
 18 20  1  0  0  0  0
 20 16  1  1  0  0  0
 21 25  1  0  0  0  0
 22 20  1  0  0  0  0
 23 24  1  0  0  0  0
 23 21  2  0  0  0  0
 24 26  2  0  0  0  0
 25 22  2  0  0  0  0
 26 22  1  0  0  0  0
 27 23  1  0  0  0  0
 27 28  2  0  0  0  0
 29  2  1  0  0  0  0
 30 29  1  0  0  0  0
 31 32  1  6  0  0  0
 31 30  1  0  0  0  0
 33 34  1  1  0  0  0
 33 31  1  0  0  0  0
 33 35  1  0  0  0  0
 35 36  1  6  0  0  0
 37 35  1  0  0  0  0
 37 38  1  0  0  0  0
 38 44  1  0  0  0  0
 39 43  2  0  0  0  0
 40 39  1  0  0  0  0
 41 38  1  0  0  0  0
 41 45  1  0  0  0  0
 43 41  2  0  0  0  0
 44 42  1  0  0  0  0
 45 42  1  0  0  0  0
M  END
>  <MODEL>
5

>  <REMARK>
 VINA RESULT:      -7.8      3.924      9.096
  Name = 
  14 active torsions:
  status: ('A' for Active; 'I' for Inactive)
    1  A    between atoms: N_1  and  N_3
    2  A    between atoms: C_2  and  C_31
    3  A    between atoms: N_3  and  C_5
    4  A    between atoms: O_4  and  C_7
    5  A    between atoms: O_4  and  C_33
    6  A    between atoms: C_5  and  C_13
    7  A    between atoms: C_12  and  N_19
    8  A    between atoms: C_12  and  C_23
    9  A    between atoms: C_13  and  C_21
   10  A    between atoms: C_18  and  C_28
   11  A    between atoms: N_19  and  C_21
   12  A    between atoms: O_24  and  C_40
   13  A    between atoms: O_24  and  C_41
   14  A    between atoms: C_28  and  C_40
                            x       y       z     vdW  Elec       q    Type
                         _______ _______ _______ _____ _____    ______ ____

>  <TORSDO>
F 14

$$$$
=
 OpenBabel11062417283D

 45 50  0  0  1  0  0  0  0  0999 V2000
  189.9470  177.0630  136.7970 N   0  0  0  0  0  1  0  0  0  0  0  0
  189.6640  177.1240  139.2390 C   0  0  0  0  0  0  0  0  0  0  0  0
  190.2420  177.1500  140.5170 C   0  0  0  0  0  0  0  0  0  0  0  0
  190.5000  177.1010  138.1100 C   0  0  0  0  0  0  0  0  0  0  0  0
  191.8540  177.1080  138.2660 N   0  0  0  0  0  0  0  0  0  0  0  0
  191.6390  177.1540  140.6410 C   0  0  0  0  0  3  0  0  0  0  0  0
  192.4340  177.1320  139.4950 C   0  0  0  0  0  3  0  0  0  0  0  0
  189.4140  177.1710  141.6450 O   0  0  0  0  0  0  0  0  0  0  0  0
  189.7510  176.5170  142.8680 C   0  0  1  0  0  3  0  0  0  0  0  0
  189.9670  177.5070  144.0030 C   0  0  0  0  0  0  0  0  0  0  0  0
  191.6810  178.6130  144.3930 C   0  0  0  0  0  2  0  0  0  0  0  0
  191.1920  177.2090  144.7970 C   0  0  0  0  0  2  0  0  0  0  0  0
  190.4020  178.8800  143.5840 C   0  0  0  0  0  2  0  0  0  0  0  0
  188.6610  176.7500  143.9300 C   0  0  1  0  0  3  0  0  0  0  0  0
  187.6500  177.5990  143.4660 O   0  0  0  0  0  0  0  0  0  0  0  0
  186.4620  177.0200  143.9180 C   0  0  0  0  0  2  0  0  0  0  0  0
  185.5110  178.3500  145.9800 C   0  0  2  0  0  3  0  0  0  0  0  0
  186.2420  179.2990  145.0380 C   0  0  0  0  0  2  0  0  0  0  0  0
  186.4790  177.5180  146.6780 N   0  0  0  0  0  1  0  0  0  0  0  0
  185.5280  178.0890  144.4750 C   0  0  1  0  0  0  0  0  0  0  0  0
  183.0320  178.6410  141.6720 C   0  0  0  0  0  3  0  0  0  0  0  0
  184.2560  178.4020  143.7490 C   0  0  0  0  0  0  0  0  0  0  0  0
  181.8790  178.9930  142.3800 C   0  0  0  0  0  0  0  0  0  0  0  0
  181.9260  179.0710  143.7780 C   0  0  0  0  0  3  0  0  0  0  0  0
  184.2170  178.3510  142.3520 C   0  0  0  0  0  3  0  0  0  0  0  0
  183.1090  178.7800  144.4590 C   0  0  0  0  0  3  0  0  0  0  0  0
  180.6450  179.2740  141.6380 C   0  0  0  0  0  3  0  0  0  0  0  0
  180.0210  180.3960  141.7660 N   0  0  0  0  0  2  0  0  0  0  0  0
  188.1780  177.0570  139.0950 C   0  0  0  0  0  2  0  0  0  0  0  0
  187.6430  178.3990  138.8840 N   0  0  0  0  0  2  0  0  0  0  0  0
  186.4960  178.3670  137.9740 C   0  0  1  0  0  3  0  0  0  0  0  0
  186.6760  177.2760  136.9230 C   0  0  0  0  0  1  0  0  0  0  0  0
  185.1510  178.2540  138.7120 C   0  0  1  0  0  3  0  0  0  0  0  0
  184.5600  179.5030  138.8100 F   0  0  0  0  0  0  0  0  0  0  0  0
  184.1940  177.3170  137.9860 C   0  0  2  0  0  3  0  0  0  0  0  0
  183.3170  178.0500  137.2090 F   0  0  0  0  0  0  0  0  0  0  0  0
  183.4400  176.5150  138.9420 N   0  0  0  0  0  2  0  0  0  0  0  0
  182.9970  175.3560  138.2820 N   0  0  0  0  0  0  0  0  0  0  0  0
  179.7460  175.6250  139.7140 C   0  0  0  0  0  3  0  0  0  0  0  0
  180.0660  176.0210  140.9690 F   0  0  0  0  0  0  0  0  0  0  0  0
  181.6300  175.1220  137.9810 C   0  0  0  0  0  0  0  0  0  0  0  0
  183.1580  173.3700  137.1470 C   0  0  0  0  0  2  0  0  0  0  0  0
  180.6880  175.3770  138.8490 C   0  0  0  0  0  0  0  0  0  0  0  0
  183.9070  174.5490  137.5880 N   0  0  0  0  0  2  0  0  0  0  0  0
  181.4230  173.8310  136.7940 S   0  0  0  0  0  0  0  0  0  0  0  0
  1  4  1  0  0  0  0
  2  3  1  0  0  0  0
  3  6  2  0  0  0  0
  3  8  1  0  0  0  0
  4  5  1  0  0  0  0
  4  2  2  0  0  0  0
  5  7  2  0  0  0  0
  7  6  1  0  0  0  0
  9  8  1  6  0  0  0
  9 14  1  0  0  0  0
  9 10  1  0  0  0  0
 10 12  1  0  0  0  0
 11 12  1  0  0  0  0
 13 10  1  0  0  0  0
 13 11  1  0  0  0  0
 14 15  1  6  0  0  0
 14 10  1  0  0  0  0
 15 16  1  0  0  0  0
 17 19  1  1  0  0  0
 18 17  1  0  0  0  0
 20 16  1  6  0  0  0
 20 18  1  0  0  0  0
 20 17  1  0  0  0  0
 21 25  2  0  0  0  0
 21 23  1  0  0  0  0
 22 26  2  0  0  0  0
 22 20  1  0  0  0  0
 23 24  2  0  0  0  0
 24 26  1  0  0  0  0
 25 22  1  0  0  0  0
 27 28  2  0  0  0  0
 27 23  1  0  0  0  0
 29  2  1  0  0  0  0
 30 29  1  0  0  0  0
 31 32  1  6  0  0  0
 31 33  1  0  0  0  0
 31 30  1  0  0  0  0
 33 34  1  6  0  0  0
 35 36  1  1  0  0  0
 35 33  1  0  0  0  0
 35 37  1  0  0  0  0
 38 37  1  0  0  0  0
 39 40  1  0  0  0  0
 41 38  1  0  0  0  0
 41 43  2  0  0  0  0
 42 44  1  0  0  0  0
 43 39  2  0  0  0  0
 44 38  1  0  0  0  0
 45 42  1  0  0  0  0
 45 41  1  0  0  0  0
M  END
>  <MODEL>
6

>  <REMARK>
 VINA RESULT:      -7.7      3.934      7.780
  Name = 
  14 active torsions:
  status: ('A' for Active; 'I' for Inactive)
    1  A    between atoms: N_1  and  N_3
    2  A    between atoms: C_2  and  C_31
    3  A    between atoms: N_3  and  C_5
    4  A    between atoms: O_4  and  C_7
    5  A    between atoms: O_4  and  C_33
    6  A    between atoms: C_5  and  C_13
    7  A    between atoms: C_12  and  N_19
    8  A    between atoms: C_12  and  C_23
    9  A    between atoms: C_13  and  C_21
   10  A    between atoms: C_18  and  C_28
   11  A    between atoms: N_19  and  C_21
   12  A    between atoms: O_24  and  C_40
   13  A    between atoms: O_24  and  C_41
   14  A    between atoms: C_28  and  C_40
                            x       y       z     vdW  Elec       q    Type
                         _______ _______ _______ _____ _____    ______ ____

>  <TORSDO>
F 14

$$$$
=
 OpenBabel11062417283D

 45 50  0  0  1  0  0  0  0  0999 V2000
  183.1510  179.5710  143.9780 N   0  0  0  0  0  1  0  0  0  0  0  0
  185.3210  178.5540  143.4290 C   0  0  0  0  0  0  0  0  0  0  0  0
  186.4940  177.9160  143.8590 C   0  0  0  0  0  0  0  0  0  0  0  0
  184.3490  178.9110  144.3780 C   0  0  0  0  0  0  0  0  0  0  0  0
  184.5520  178.6330  145.6970 N   0  0  0  0  0  0  0  0  0  0  0  0
  186.6710  177.6460  145.2240 C   0  0  0  0  0  3  0  0  0  0  0  0
  185.6800  178.0160  146.1340 C   0  0  0  0  0  3  0  0  0  0  0  0
  187.4670  177.5600  142.9180 O   0  0  0  0  0  0  0  0  0  0  0  0
  188.6640  178.3110  142.7170 C   0  0  1  0  0  3  0  0  0  0  0  0
  189.8320  177.4230  142.3120 C   0  0  0  0  0  0  0  0  0  0  0  0
  191.0330  176.2850  143.5660 C   0  0  0  0  0  2  0  0  0  0  0  0
  191.0780  177.7410  143.0640 C   0  0  0  0  0  2  0  0  0  0  0  0
  189.7480  175.9990  142.7750 C   0  0  0  0  0  2  0  0  0  0  0  0
  189.1200  178.2270  141.2480 C   0  0  1  0  0  3  0  0  0  0  0  0
  188.2990  177.3820  140.4910 O   0  0  0  0  0  0  0  0  0  0  0  0
  187.7780  178.2000  139.4850 C   0  0  0  0  0  2  0  0  0  0  0  0
  188.7100  178.4330  137.0360 C   0  0  2  0  0  3  0  0  0  0  0  0
  189.5030  177.3790  137.7980 C   0  0  0  0  0  2  0  0  0  0  0  0
  189.0560  179.7560  137.5340 N   0  0  0  0  0  1  0  0  0  0  0  0
  188.0370  177.5850  138.1140 C   0  0  1  0  0  0  0  0  0  0  0  0
  184.9100  175.6890  137.1060 C   0  0  0  0  0  3  0  0  0  0  0  0
  187.1370  176.4980  137.6150 C   0  0  0  0  0  0  0  0  0  0  0  0
  185.4400  174.4650  136.6870 C   0  0  0  0  0  0  0  0  0  0  0  0
  186.8240  174.2530  136.7560 C   0  0  0  0  0  3  0  0  0  0  0  0
  185.7540  176.7000  137.5730 C   0  0  0  0  0  3  0  0  0  0  0  0
  187.6670  175.2630  137.2200 C   0  0  0  0  0  3  0  0  0  0  0  0
  184.5300  173.4290  136.1860 C   0  0  0  0  0  3  0  0  0  0  0  0
  183.2550  173.6180  136.1310 N   0  0  0  0  0  2  0  0  0  0  0  0
  185.1490  178.9030  141.9860 C   0  0  0  0  0  2  0  0  0  0  0  0
  184.2920  177.9130  141.3400 N   0  0  0  0  0  2  0  0  0  0  0  0
  183.3460  178.5580  140.4260 C   0  0  1  0  0  3  0  0  0  0  0  0
  184.0890  179.3760  139.3750 C   0  0  0  0  0  1  0  0  0  0  0  0
  182.3500  177.5660  139.8010 C   0  0  1  0  0  3  0  0  0  0  0  0
  182.6770  176.2710  140.1720 F   0  0  0  0  0  0  0  0  0  0  0  0
  180.9220  177.8550  140.2470 C   0  0  2  0  0  3  0  0  0  0  0  0
  180.3980  176.7530  140.8940 F   0  0  0  0  0  0  0  0  0  0  0  0
  180.0850  178.1840  139.0980 N   0  0  0  0  0  2  0  0  0  0  0  0
  180.4770  179.4470  138.6230 N   0  0  0  0  0  0  0  0  0  0  0  0
  181.6960  178.0650  135.5740 C   0  0  0  0  0  3  0  0  0  0  0  0
  182.2700  176.9290  136.0350 F   0  0  0  0  0  0  0  0  0  0  0  0
  180.5900  179.7410  137.2390 C   0  0  0  0  0  0  0  0  0  0  0  0
  181.0340  181.6690  138.7190 C   0  0  0  0  0  2  0  0  0  0  0  0
  181.1420  178.8990  136.4070 C   0  0  0  0  0  0  0  0  0  0  0  0
  180.4360  180.5620  139.4690 N   0  0  0  0  0  2  0  0  0  0  0  0
  180.6720  181.4790  136.9360 S   0  0  0  0  0  0  0  0  0  0  0  0
  1  4  1  0  0  0  0
  2  3  2  0  0  0  0
  2  4  1  0  0  0  0
  3  6  1  0  0  0  0
  4  5  2  0  0  0  0
  5  7  1  0  0  0  0
  6  7  2  0  0  0  0
  8  3  1  0  0  0  0
  9  8  1  6  0  0  0
 10  9  1  0  0  0  0
 10 13  1  0  0  0  0
 10 12  1  0  0  0  0
 12 11  1  0  0  0  0
 13 11  1  0  0  0  0
 14 15  1  6  0  0  0
 14 10  1  0  0  0  0
 14  9  1  0  0  0  0
 16 15  1  0  0  0  0
 17 19  1  1  0  0  0
 17 18  1  0  0  0  0
 17 20  1  0  0  0  0
 18 20  1  0  0  0  0
 20 16  1  1  0  0  0
 21 25  1  0  0  0  0
 22 20  1  0  0  0  0
 23 24  1  0  0  0  0
 23 21  2  0  0  0  0
 24 26  2  0  0  0  0
 25 22  2  0  0  0  0
 26 22  1  0  0  0  0
 27 23  1  0  0  0  0
 28 27  2  0  0  0  0
 29  2  1  0  0  0  0
 30 29  1  0  0  0  0
 31 32  1  6  0  0  0
 31 30  1  0  0  0  0
 33 34  1  1  0  0  0
 33 35  1  0  0  0  0
 33 31  1  0  0  0  0
 35 36  1  6  0  0  0
 37 35  1  0  0  0  0
 38 37  1  0  0  0  0
 38 44  1  0  0  0  0
 39 40  1  0  0  0  0
 39 43  2  0  0  0  0
 41 38  1  0  0  0  0
 42 44  1  0  0  0  0
 43 41  2  0  0  0  0
 45 41  1  0  0  0  0
 45 42  1  0  0  0  0
M  END
>  <MODEL>
7

>  <REMARK>
 VINA RESULT:      -7.6      4.157      9.453
  Name = 
  14 active torsions:
  status: ('A' for Active; 'I' for Inactive)
    1  A    between atoms: N_1  and  N_3
    2  A    between atoms: C_2  and  C_31
    3  A    between atoms: N_3  and  C_5
    4  A    between atoms: O_4  and  C_7
    5  A    between atoms: O_4  and  C_33
    6  A    between atoms: C_5  and  C_13
    7  A    between atoms: C_12  and  N_19
    8  A    between atoms: C_12  and  C_23
    9  A    between atoms: C_13  and  C_21
   10  A    between atoms: C_18  and  C_28
   11  A    between atoms: N_19  and  C_21
   12  A    between atoms: O_24  and  C_40
   13  A    between atoms: O_24  and  C_41
   14  A    between atoms: C_28  and  C_40
                            x       y       z     vdW  Elec       q    Type
                         _______ _______ _______ _____ _____    ______ ____

>  <TORSDO>
F 14

$$$$
=
 OpenBabel11062417283D

 45 50  0  0  1  0  0  0  0  0999 V2000
  183.8330  179.4840  144.5930 N   0  0  0  0  0  1  0  0  0  0  0  0
  185.8930  178.5000  143.6790 C   0  0  0  0  0  0  0  0  0  0  0  0
  187.0890  177.7980  143.8920 C   0  0  0  0  0  0  0  0  0  0  0  0
  185.0500  178.7630  144.7710 C   0  0  0  0  0  0  0  0  0  0  0  0
  185.3970  178.3350  146.0170 N   0  0  0  0  0  0  0  0  0  0  0  0
  187.4170  177.3730  145.1880 C   0  0  0  0  0  3  0  0  0  0  0  0
  186.5510  177.6550  146.2460 C   0  0  0  0  0  3  0  0  0  0  0  0
  187.9340  177.5350  142.8080 O   0  0  0  0  0  0  0  0  0  0  0  0
  189.1970  178.1750  142.6340 C   0  0  1  0  0  3  0  0  0  0  0  0
  190.3030  177.1770  142.3260 C   0  0  0  0  0  0  0  0  0  0  0  0
  191.3470  176.0040  143.6840 C   0  0  0  0  0  2  0  0  0  0  0  0
  191.5370  177.4260  143.1240 C   0  0  0  0  0  2  0  0  0  0  0  0
  190.0790  175.7880  142.8430 C   0  0  0  0  0  2  0  0  0  0  0  0
  189.7110  177.9860  141.1950 C   0  0  1  0  0  3  0  0  0  0  0  0
  188.8570  177.1780  140.4350 O   0  0  0  0  0  0  0  0  0  0  0  0
  188.2670  178.0490  139.5150 C   0  0  0  0  0  2  0  0  0  0  0  0
  187.9590  178.0990  136.9030 C   0  0  2  0  0  3  0  0  0  0  0  0
  189.0460  179.0810  137.3190 C   0  0  0  0  0  2  0  0  0  0  0  0
  186.6570  178.6200  137.2920 N   0  0  0  0  0  1  0  0  0  0  0  0
  188.8360  177.8140  138.1210 C   0  0  1  0  0  0  0  0  0  0  0  0
  192.2310  176.1270  137.9740 C   0  0  0  0  0  3  0  0  0  0  0  0
  189.8960  176.7750  137.9260 C   0  0  0  0  0  0  0  0  0  0  0  0
  191.8910  174.8360  137.5590 C   0  0  0  0  0  0  0  0  0  0  0  0
  190.5490  174.5240  137.3040 C   0  0  0  0  0  3  0  0  0  0  0  0
  191.2390  177.0950  138.1530 C   0  0  0  0  0  3  0  0  0  0  0  0
  189.5570  175.4900  137.4840 C   0  0  0  0  0  3  0  0  0  0  0  0
  192.9530  173.8370  137.3960 C   0  0  0  0  0  3  0  0  0  0  0  0
  193.8080  173.9100  136.4320 N   0  0  0  0  0  2  0  0  0  0  0  0
  185.5620  179.0110  142.3140 C   0  0  0  0  0  2  0  0  0  0  0  0
  184.5220  178.1800  141.7160 N   0  0  0  0  0  2  0  0  0  0  0  0
  183.5450  179.0020  140.9990 C   0  0  1  0  0  3  0  0  0  0  0  0
  183.9220  179.1210  139.5260 C   0  0  0  0  0  1  0  0  0  0  0  0
  182.0980  178.5170  141.1960 C   0  0  1  0  0  3  0  0  0  0  0  0
  181.7650  178.5600  142.5410 F   0  0  0  0  0  0  0  0  0  0  0  0
  181.1100  179.3810  140.4220 C   0  0  2  0  0  3  0  0  0  0  0  0
  180.3800  180.1620  141.2970 F   0  0  0  0  0  0  0  0  0  0  0  0
  180.2010  178.5470  139.6440 N   0  0  0  0  0  2  0  0  0  0  0  0
  180.5370  178.6870  138.2870 N   0  0  0  0  0  0  0  0  0  0  0  0
  182.4240  175.6650  138.3100 C   0  0  0  0  0  3  0  0  0  0  0  0
  183.0230  175.7620  139.5210 F   0  0  0  0  0  0  0  0  0  0  0  0
  180.8670  177.5790  137.4630 C   0  0  0  0  0  0  0  0  0  0  0  0
  180.8320  179.7430  136.2730 C   0  0  0  0  0  2  0  0  0  0  0  0
  181.6450  176.6200  137.8900 C   0  0  0  0  0  0  0  0  0  0  0  0
  180.2290  179.8680  137.6020 N   0  0  0  0  0  2  0  0  0  0  0  0
  180.8200  177.9910  135.7470 S   0  0  0  0  0  0  0  0  0  0  0  0
  1  4  1  0  0  0  0
  2  3  2  0  0  0  0
  2  4  1  0  0  0  0
  3  6  1  0  0  0  0
  4  5  2  0  0  0  0
  5  7  1  0  0  0  0
  6  7  2  0  0  0  0
  8  3  1  0  0  0  0
  9  8  1  6  0  0  0
 10  9  1  0  0  0  0
 10 13  1  0  0  0  0
 10 12  1  0  0  0  0
 12 11  1  0  0  0  0
 13 11  1  0  0  0  0
 14 15  1  6  0  0  0
 14 10  1  0  0  0  0
 14  9  1  0  0  0  0
 16 15  1  0  0  0  0
 17 19  1  1  0  0  0
 17 18  1  0  0  0  0
 17 20  1  0  0  0  0
 18 20  1  0  0  0  0
 20 16  1  1  0  0  0
 21 25  1  0  0  0  0
 22 20  1  0  0  0  0
 22 25  2  0  0  0  0
 23 21  2  0  0  0  0
 24 26  2  0  0  0  0
 24 23  1  0  0  0  0
 26 22  1  0  0  0  0
 27 23  1  0  0  0  0
 28 27  2  0  0  0  0
 29  2  1  0  0  0  0
 30 29  1  0  0  0  0
 31 32  1  6  0  0  0
 31 33  1  0  0  0  0
 31 30  1  0  0  0  0
 33 34  1  1  0  0  0
 35 33  1  0  0  0  0
 35 36  1  1  0  0  0
 37 35  1  0  0  0  0
 38 37  1  0  0  0  0
 39 40  1  0  0  0  0
 41 43  2  0  0  0  0
 41 38  1  0  0  0  0
 42 44  1  0  0  0  0
 43 39  2  0  0  0  0
 44 38  1  0  0  0  0
 45 42  1  0  0  0  0
 45 41  1  0  0  0  0
M  END
>  <MODEL>
8

>  <REMARK>
 VINA RESULT:      -7.6      4.106      9.581
  Name = 
  14 active torsions:
  status: ('A' for Active; 'I' for Inactive)
    1  A    between atoms: N_1  and  N_3
    2  A    between atoms: C_2  and  C_31
    3  A    between atoms: N_3  and  C_5
    4  A    between atoms: O_4  and  C_7
    5  A    between atoms: O_4  and  C_33
    6  A    between atoms: C_5  and  C_13
    7  A    between atoms: C_12  and  N_19
    8  A    between atoms: C_12  and  C_23
    9  A    between atoms: C_13  and  C_21
   10  A    between atoms: C_18  and  C_28
   11  A    between atoms: N_19  and  C_21
   12  A    between atoms: O_24  and  C_40
   13  A    between atoms: O_24  and  C_41
   14  A    between atoms: C_28  and  C_40
                            x       y       z     vdW  Elec       q    Type
                         _______ _______ _______ _____ _____    ______ ____

>  <TORSDO>
F 14

$$$$
=
 OpenBabel11062417283D

 45 50  0  0  1  0  0  0  0  0999 V2000
  183.8420  179.2970  144.9010 N   0  0  0  0  0  1  0  0  0  0  0  0
  185.8520  178.3970  143.8070 C   0  0  0  0  0  0  0  0  0  0  0  0
  187.0810  177.7300  143.9110 C   0  0  0  0  0  0  0  0  0  0  0  0
  185.0900  178.6120  144.9680 C   0  0  0  0  0  0  0  0  0  0  0  0
  185.5470  178.1710  146.1730 N   0  0  0  0  0  0  0  0  0  0  0  0
  187.5230  177.2900  145.1680 C   0  0  0  0  0  3  0  0  0  0  0  0
  186.7350  177.5230  146.2960 C   0  0  0  0  0  3  0  0  0  0  0  0
  187.8460  177.5140  142.7590 O   0  0  0  0  0  0  0  0  0  0  0  0
  189.0660  178.2050  142.4970 C   0  0  1  0  0  3  0  0  0  0  0  0
  190.2040  177.2470  142.1740 C   0  0  0  0  0  0  0  0  0  0  0  0
  191.3680  176.1830  143.5240 C   0  0  0  0  0  2  0  0  0  0  0  0
  191.4610  177.5880  142.8990 C   0  0  0  0  0  2  0  0  0  0  0  0
  190.0730  175.8730  142.7580 C   0  0  0  0  0  2  0  0  0  0  0  0
  189.5190  177.9790  141.0420 C   0  0  1  0  0  3  0  0  0  0  0  0
  188.6710  177.1000  140.3590 O   0  0  0  0  0  0  0  0  0  0  0  0
  188.1090  177.8690  139.3370 C   0  0  0  0  0  2  0  0  0  0  0  0
  188.9570  178.3150  136.8860 C   0  0  2  0  0  3  0  0  0  0  0  0
  189.9990  177.5200  137.6630 C   0  0  0  0  0  2  0  0  0  0  0  0
  188.9330  179.6880  137.3680 N   0  0  0  0  0  1  0  0  0  0  0  0
  188.5300  177.3310  137.9740 C   0  0  1  0  0  0  0  0  0  0  0  0
  186.0320  174.6930  136.8820 C   0  0  0  0  0  3  0  0  0  0  0  0
  187.9550  176.0370  137.4870 C   0  0  0  0  0  0  0  0  0  0  0  0
  186.8690  173.6140  136.5810 C   0  0  0  0  0  0  0  0  0  0  0  0
  188.2530  173.7440  136.7580 C   0  0  0  0  0  3  0  0  0  0  0  0
  186.5720  175.8980  137.3380 C   0  0  0  0  0  3  0  0  0  0  0  0
  188.7930  174.9480  137.2110 C   0  0  0  0  0  3  0  0  0  0  0  0
  186.2730  172.3670  136.0880 C   0  0  0  0  0  3  0  0  0  0  0  0
  187.0030  171.3870  135.6720 N   0  0  0  0  0  2  0  0  0  0  0  0
  185.4000  178.9250  142.4840 C   0  0  0  0  0  2  0  0  0  0  0  0
  184.3470  178.0680  141.9470 N   0  0  0  0  0  2  0  0  0  0  0  0
  183.4450  178.8300  141.0810 C   0  0  1  0  0  3  0  0  0  0  0  0
  183.9480  178.8200  139.6410 C   0  0  0  0  0  1  0  0  0  0  0  0
  181.9800  178.3720  141.1930 C   0  0  1  0  0  3  0  0  0  0  0  0
  181.5470  178.4940  142.5040 F   0  0  0  0  0  0  0  0  0  0  0  0
  181.0670  179.2000  140.2980 C   0  0  2  0  0  3  0  0  0  0  0  0
  180.2660  180.0180  141.0720 F   0  0  0  0  0  0  0  0  0  0  0  0
  180.2260  178.3320  139.4820 N   0  0  0  0  0  2  0  0  0  0  0  0
  180.6030  178.5020  138.1390 N   0  0  0  0  0  0  0  0  0  0  0  0
  182.5460  175.5160  138.1690 C   0  0  0  0  0  3  0  0  0  0  0  0
  183.1030  175.6030  139.4000 F   0  0  0  0  0  0  0  0  0  0  0  0
  180.9800  177.4160  137.3070 C   0  0  0  0  0  0  0  0  0  0  0  0
  180.9400  179.6000  136.1540 C   0  0  0  0  0  2  0  0  0  0  0  0
  181.7620  176.4650  137.7410 C   0  0  0  0  0  0  0  0  0  0  0  0
  180.2930  179.6900  137.4650 N   0  0  0  0  0  2  0  0  0  0  0  0
  180.9780  177.8580  135.5970 S   0  0  0  0  0  0  0  0  0  0  0  0
  1  4  1  0  0  0  0
  2  3  2  0  0  0  0
  2  4  1  0  0  0  0
  3  6  1  0  0  0  0
  4  5  2  0  0  0  0
  5  7  1  0  0  0  0
  6  7  2  0  0  0  0
  8  3  1  0  0  0  0
  9  8  1  6  0  0  0
 10  9  1  0  0  0  0
 10 13  1  0  0  0  0
 10 12  1  0  0  0  0
 12 11  1  0  0  0  0
 13 11  1  0  0  0  0
 14 15  1  6  0  0  0
 14 10  1  0  0  0  0
 14  9  1  0  0  0  0
 16 15  1  0  0  0  0
 17 19  1  1  0  0  0
 17 18  1  0  0  0  0
 17 20  1  0  0  0  0
 18 20  1  0  0  0  0
 20 16  1  1  0  0  0
 21 25  1  0  0  0  0
 22 20  1  0  0  0  0
 23 24  1  0  0  0  0
 23 21  2  0  0  0  0
 24 26  2  0  0  0  0
 25 22  2  0  0  0  0
 26 22  1  0  0  0  0
 27 23  1  0  0  0  0
 28 27  2  0  0  0  0
 29  2  1  0  0  0  0
 30 29  1  0  0  0  0
 31 32  1  6  0  0  0
 31 33  1  0  0  0  0
 31 30  1  0  0  0  0
 33 34  1  1  0  0  0
 35 36  1  1  0  0  0
 35 33  1  0  0  0  0
 37 35  1  0  0  0  0
 38 37  1  0  0  0  0
 39 40  1  0  0  0  0
 41 43  2  0  0  0  0
 41 38  1  0  0  0  0
 42 44  1  0  0  0  0
 43 39  2  0  0  0  0
 44 38  1  0  0  0  0
 45 42  1  0  0  0  0
 45 41  1  0  0  0  0
M  END
>  <MODEL>
9

>  <REMARK>
 VINA RESULT:      -7.5      4.106      9.471
  Name = 
  14 active torsions:
  status: ('A' for Active; 'I' for Inactive)
    1  A    between atoms: N_1  and  N_3
    2  A    between atoms: C_2  and  C_31
    3  A    between atoms: N_3  and  C_5
    4  A    between atoms: O_4  and  C_7
    5  A    between atoms: O_4  and  C_33
    6  A    between atoms: C_5  and  C_13
    7  A    between atoms: C_12  and  N_19
    8  A    between atoms: C_12  and  C_23
    9  A    between atoms: C_13  and  C_21
   10  A    between atoms: C_18  and  C_28
   11  A    between atoms: N_19  and  C_21
   12  A    between atoms: O_24  and  C_40
   13  A    between atoms: O_24  and  C_41
   14  A    between atoms: C_28  and  C_40
                            x       y       z     vdW  Elec       q    Type
                         _______ _______ _______ _____ _____    ______ ____

>  <TORSDO>
F 14

$$$$
