=
 OpenBabel11062415253D

 48 53  0  0  1  0  0  0  0  0999 V2000
  190.8530  173.2760  134.6280 O   0  0  0  0  0  0  0  0  0  0  0  0
  190.5860  174.1300  135.5170 C   0  0  0  0  0  0  0  0  0  0  0  0
  189.5540  177.1280  136.3290 C   0  0  1  0  0  3  0  0  0  0  0  0
  187.5500  176.7960  137.8450 C   0  0  2  0  0  3  0  0  0  0  0  0
  191.3540  175.4160  135.5160 C   0  0  1  0  0  3  0  0  0  0  0  0
  188.7890  179.6490  137.7380 O   0  0  0  0  0  1  0  0  0  0  0  0
  188.2710  177.6270  138.9370 C   0  0  2  0  0  3  0  0  0  0  0  0
  189.5180  173.8610  136.5000 C   0  0  0  0  0  0  0  0  0  0  0  0
  189.1590  174.8960  137.5210 C   0  0  0  0  0  2  0  0  0  0  0  0
  188.5190  176.1150  136.8610 C   0  0  2  0  0  3  0  0  0  0  0  0
  189.3640  178.5580  138.3900 C   0  0  1  0  0  3  0  0  0  0  0  0
  190.3200  177.8340  137.4490 C   0  0  0  0  0  2  0  0  0  0  0  0
  188.8950  172.7180  136.4560 N   0  0  0  0  0  0  0  0  0  0  0  0
  190.4680  176.6310  135.2000 C   0  0  0  0  0  2  0  0  0  0  0  0
  193.2600  174.8600  136.8880 N   0  0  0  0  0  2  0  0  0  0  0  0
  192.2170  175.5870  136.7250 C   0  0  0  0  0  3  0  0  0  0  0  0
  186.4800  177.6010  137.0910 C   0  0  2  0  0  3  0  0  0  0  0  0
  185.4560  178.2390  138.0250 C   0  0  0  0  0  1  0  0  0  0  0  0
  185.7910  176.7590  136.0060 C   0  0  0  0  0  2  0  0  0  0  0  0
  180.9830  174.2790  137.7690 N   0  0  0  0  0  0  0  0  0  0  0  0
  182.1390  175.7990  136.4690 C   0  0  0  0  0  0  0  0  0  0  0  0
  184.5420  176.0790  136.4810 C   0  0  0  0  0  0  0  0  0  0  0  0
  184.6330  175.0490  137.4440 C   0  0  0  0  0  3  0  0  0  0  0  0
  180.7160  175.9890  136.0890 C   0  0  0  0  0  3  0  0  0  0  0  0
  182.2400  174.8180  137.4130 C   0  0  0  0  0  0  0  0  0  0  0  0
  179.9640  174.9800  136.9860 C   0  0  0  0  0  3  0  0  0  0  0  0
  183.4770  174.4130  137.9210 C   0  0  0  0  0  3  0  0  0  0  0  0
  183.2740  176.4620  135.9820 C   0  0  2  0  0  3  0  0  0  0  0  0
  183.1260  177.5490  134.9640 C   0  0  0  0  0  1  0  0  0  0  0  0
  188.8350  176.7160  140.0300 C   0  0  0  0  0  2  0  0  0  0  0  0
  188.9310  177.4020  141.3910 C   0  0  1  0  0  0  0  0  0  0  0  0
  186.9340  178.2980  142.3350 C   0  0  0  0  0  0  0  0  0  0  0  0
  188.7860  175.5550  142.9710 O   0  0  0  0  0  0  0  0  0  0  0  0
  190.3610  177.7850  141.7340 C   0  0  0  0  0  1  0  0  0  0  0  0
  188.0430  178.6430  141.3790 C   0  0  0  0  0  2  0  0  0  0  0  0
  187.0830  177.1670  142.9340 N   0  0  0  0  0  0  0  0  0  0  0  0
  188.2930  176.6030  142.4730 C   0  0  0  0  0  0  0  0  0  0  0  0
  185.8120  179.0960  142.5780 O   0  0  0  0  0  0  0  0  0  0  0  0
  183.6060  178.5180  142.9800 O   0  0  0  0  0  0  0  0  0  0  0  0
  184.7580  178.7500  143.4330 C   0  0  0  0  0  0  0  0  0  0  0  0
  185.9440  178.7500  146.7530 C   0  0  0  0  0  3  0  0  0  0  0  0
  184.6120  178.7240  146.9760 N   0  0  0  0  0  0  0  0  0  0  0  0
  186.2220  178.7550  145.4330 N   0  0  0  0  0  0  0  0  0  0  0  0
  184.0140  178.7050  145.7990 N   0  0  0  0  0  2  0  0  0  0  0  0
  184.9940  178.7200  144.8780 C   0  0  0  0  0  0  0  0  0  0  0  0
  187.8110  172.3510  137.3560 C   0  0  0  0  0  2  0  0  0  0  0  0
  186.4070  171.5810  135.8350 C   0  0  0  0  0  1  0  0  0  0  0  0
  186.5900  172.6230  136.7420 O   0  0  0  0  0  0  0  0  0  0  0  0
  1  2  2  0  0  0  0
  2  8  1  0  0  0  0
  3 14  1  6  0  0  0
  3 10  1  0  0  0  0
  3 12  1  0  0  0  0
  4 17  1  6  0  0  0
  4  7  1  0  0  0  0
  5  2  1  0  0  0  0
  5 16  1  1  0  0  0
  7 30  1  1  0  0  0
  8  9  1  0  0  0  0
 10  9  1  1  0  0  0
 10  4  1  0  0  0  0
 11  6  1  6  0  0  0
 11  7  1  0  0  0  0
 12 11  1  0  0  0  0
 13  8  2  0  0  0  0
 13 46  1  0  0  0  0
 14  5  1  0  0  0  0
 16 15  2  0  0  0  0
 17 18  1  1  0  0  0
 19 22  1  0  0  0  0
 19 17  1  0  0  0  0
 21 25  1  0  0  0  0
 22 23  2  0  0  0  0
 23 27  1  0  0  0  0
 24 21  2  0  0  0  0
 24 26  1  0  0  0  0
 25 20  1  0  0  0  0
 25 27  2  0  0  0  0
 26 20  2  0  0  0  0
 28 29  1  1  0  0  0
 28 21  1  0  0  0  0
 28 22  1  0  0  0  0
 30 31  1  0  0  0  0
 31 34  1  1  0  0  0
 31 37  1  0  0  0  0
 32 38  1  0  0  0  0
 32 36  2  0  0  0  0
 35 31  1  0  0  0  0
 35 32  1  0  0  0  0
 37 36  1  0  0  0  0
 37 33  2  0  0  0  0
 38 40  1  0  0  0  0
 39 40  2  0  0  0  0
 40 45  1  0  0  0  0
 41 42  2  0  0  0  0
 43 41  1  0  0  0  0
 44 42  1  0  0  0  0
 45 43  2  0  0  0  0
 45 44  1  0  0  0  0
 47 48  1  0  0  0  0
 48 46  1  0  0  0  0
M  END
>  <MODEL>
1

>  <REMARK>
 VINA RESULT:      -6.7      0.000      0.000
  Name = 
  11 active torsions:
  status: ('A' for Active; 'I' for Inactive)
    1  A    between atoms: C_8  and  C_28
    2  A    between atoms: C_9  and  C_47
    3  A    between atoms: C_11  and  C_29
    4  A    between atoms: C_12  and  C_29
    5  A    between atoms: C_14  and  O_24
    6  A    between atoms: C_18  and  C_48
    7  A    between atoms: O_24  and  C_25
    8  A    between atoms: C_25  and  C_44
    9  A    between atoms: C_28  and  C_48
   10  A    between atoms: N_31  and  C_37
   11  A    between atoms: C_37  and  O_43
                            x       y       z     vdW  Elec       q    Type
                         _______ _______ _______ _____ _____    ______ ____

>  <TORSDO>
F 11

$$$$
=
 OpenBabel11062415253D

 48 53  0  0  1  0  0  0  0  0999 V2000
  188.1780  177.6910  139.0620 O   0  0  0  0  0  0  0  0  0  0  0  0
  187.0930  177.8120  138.4320 C   0  0  0  0  0  0  0  0  0  0  0  0
  184.6380  176.4470  136.7530 C   0  0  1  0  0  3  0  0  0  0  0  0
  182.5130  177.0570  137.9920 C   0  0  2  0  0  3  0  0  0  0  0  0
  187.0610  177.3980  136.9930 C   0  0  1  0  0  3  0  0  0  0  0  0
  182.1960  175.8890  135.1260 O   0  0  0  0  0  1  0  0  0  0  0  0
  181.9710  177.7030  136.6920 C   0  0  2  0  0  3  0  0  0  0  0  0
  185.8930  178.3200  139.1240 C   0  0  0  0  0  0  0  0  0  0  0  0
  184.5870  178.4130  138.3930 C   0  0  0  0  0  2  0  0  0  0  0  0
  184.0520  177.0230  138.0580 C   0  0  2  0  0  3  0  0  0  0  0  0
  182.6400  177.1800  135.4110 C   0  0  1  0  0  3  0  0  0  0  0  0
  184.1620  177.1970  135.5080 C   0  0  0  0  0  2  0  0  0  0  0  0
  185.9890  178.6770  140.3730 N   0  0  0  0  0  0  0  0  0  0  0  0
  186.1510  176.1830  136.7510 C   0  0  0  0  0  2  0  0  0  0  0  0
  187.4750  179.6330  136.1830 N   0  0  0  0  0  2  0  0  0  0  0  0
  186.8210  178.5380  136.0560 C   0  0  0  0  0  3  0  0  0  0  0  0
  181.9230  175.6640  138.2580 C   0  0  2  0  0  3  0  0  0  0  0  0
  181.0850  175.6120  139.5330 C   0  0  0  0  0  1  0  0  0  0  0  0
  183.0080  174.5760  138.2650 C   0  0  0  0  0  2  0  0  0  0  0  0
  182.0520  170.2660  134.6750 N   0  0  0  0  0  0  0  0  0  0  0  0
  183.4260  171.5070  136.0550 C   0  0  0  0  0  0  0  0  0  0  0  0
  182.7230  173.4420  137.3260 C   0  0  0  0  0  0  0  0  0  0  0  0
  181.4180  173.2750  136.8110 C   0  0  0  0  0  3  0  0  0  0  0  0
  184.3010  170.4280  135.5300 C   0  0  0  0  0  3  0  0  0  0  0  0
  182.1660  171.3690  135.5510 C   0  0  2  0  0  3  0  0  0  0  0  0
  183.3660  169.6280  134.5950 C   0  0  0  0  0  3  0  0  0  0  0  0
  181.1310  172.2360  135.9130 C   0  0  0  0  0  3  0  0  0  0  0  0
  183.7470  172.5430  136.9440 C   0  0  0  0  0  0  0  0  0  0  0  0
  185.1450  172.6790  137.4600 C   0  0  0  0  0  1  0  0  0  0  0  0
  182.0600  179.2290  136.7630 C   0  0  0  0  0  2  0  0  0  0  0  0
  180.6930  179.9090  136.7940 C   0  0  1  0  0  0  0  0  0  0  0  0
  179.6050  180.1390  138.9030 C   0  0  0  0  0  0  0  0  0  0  0  0
  181.2390  182.2800  136.8760 O   0  0  0  0  0  0  0  0  0  0  0  0
  180.0480  179.9470  135.4180 C   0  0  0  0  0  1  0  0  0  0  0  0
  179.7950  179.1600  137.7750 C   0  0  0  0  0  2  0  0  0  0  0  0
  180.1360  181.2940  138.6970 N   0  0  0  0  0  0  0  0  0  0  0  0
  180.7460  181.2570  137.4220 C   0  0  0  0  0  0  0  0  0  0  0  0
  178.9310  179.8610  140.0950 O   0  0  0  0  0  0  0  0  0  0  0  0
  179.3380  181.5910  141.5790 O   0  0  0  0  0  0  0  0  0  0  0  0
  179.3020  180.3530  141.3530 C   0  0  0  0  0  0  0  0  0  0  0  0
  180.7220  178.5290  144.0150 C   0  0  0  0  0  3  0  0  0  0  0  0
  179.7030  177.7090  143.6810 N   0  0  0  0  0  0  0  0  0  0  0  0
  180.7540  179.6200  143.2230 N   0  0  0  0  0  0  0  0  0  0  0  0
  179.0680  178.2590  142.6630 N   0  0  0  0  0  2  0  0  0  0  0  0
  179.7130  179.4080  142.3940 C   0  0  0  0  0  0  0  0  0  0  0  0
  184.8690  179.1690  141.1630 C   0  0  0  0  0  2  0  0  0  0  0  0
  185.2840  178.2610  143.1330 C   0  0  0  0  0  1  0  0  0  0  0  0
  184.4390  178.1650  142.0290 O   0  0  0  0  0  0  0  0  0  0  0  0
  2  1  2  0  0  0  0
  2  8  1  0  0  0  0
  3 12  1  6  0  0  0
  3 10  1  0  0  0  0
  4 10  1  0  0  0  0
  4 17  1  6  0  0  0
  5 16  1  6  0  0  0
  5  2  1  0  0  0  0
  7 30  1  1  0  0  0
  7  4  1  0  0  0  0
  8 13  2  0  0  0  0
  9  8  1  0  0  0  0
 10  9  1  6  0  0  0
 11  6  1  1  0  0  0
 11 12  1  0  0  0  0
 11  7  1  0  0  0  0
 13 46  1  0  0  0  0
 14  3  1  0  0  0  0
 14  5  1  0  0  0  0
 16 15  2  0  0  0  0
 17 19  1  0  0  0  0
 17 18  1  1  0  0  0
 20 25  1  0  0  0  0
 21 28  1  0  0  0  0
 22 19  1  0  0  0  0
 23 22  1  0  0  0  0
 24 21  2  0  0  0  0
 25 27  1  1  0  0  0
 25 21  1  0  0  0  0
 26 20  2  0  0  0  0
 26 24  1  0  0  0  0
 27 23  2  0  0  0  0
 28 22  2  0  0  0  0
 28 29  1  0  0  0  0
 30 31  1  0  0  0  0
 31 34  1  6  0  0  0
 31 37  1  0  0  0  0
 31 35  1  0  0  0  0
 32 38  1  0  0  0  0
 33 37  2  0  0  0  0
 35 32  1  0  0  0  0
 36 32  2  0  0  0  0
 37 36  1  0  0  0  0
 38 40  1  0  0  0  0
 40 39  2  0  0  0  0
 40 45  1  0  0  0  0
 42 41  2  0  0  0  0
 43 41  1  0  0  0  0
 44 42  1  0  0  0  0
 45 44  1  0  0  0  0
 45 43  2  0  0  0  0
 46 48  1  0  0  0  0
 48 47  1  0  0  0  0
M  END
>  <MODEL>
2

>  <REMARK>
 VINA RESULT:      -6.1      3.713      6.865
  Name = 
  11 active torsions:
  status: ('A' for Active; 'I' for Inactive)
    1  A    between atoms: C_8  and  C_28
    2  A    between atoms: C_9  and  C_47
    3  A    between atoms: C_11  and  C_29
    4  A    between atoms: C_12  and  C_29
    5  A    between atoms: C_14  and  O_24
    6  A    between atoms: C_18  and  C_48
    7  A    between atoms: O_24  and  C_25
    8  A    between atoms: C_25  and  C_44
    9  A    between atoms: C_28  and  C_48
   10  A    between atoms: N_31  and  C_37
   11  A    between atoms: C_37  and  O_43
                            x       y       z     vdW  Elec       q    Type
                         _______ _______ _______ _____ _____    ______ ____

>  <TORSDO>
F 11

$$$$
=
 OpenBabel11062415253D

 48 53  0  0  1  0  0  0  0  0999 V2000
  191.6500  176.3880  137.4060 O   0  0  0  0  0  0  0  0  0  0  0  0
  190.4280  176.6300  137.2130 C   0  0  0  0  0  0  0  0  0  0  0  0
  187.5760  175.8220  135.8260 C   0  0  1  0  0  3  0  0  0  0  0  0
  185.9180  175.5630  137.7250 C   0  0  2  0  0  3  0  0  0  0  0  0
  189.9680  176.8760  135.8090 C   0  0  1  0  0  3  0  0  0  0  0  0
  184.7580  175.7140  134.8410 O   0  0  0  0  0  1  0  0  0  0  0  0
  185.0190  176.6310  137.0510 C   0  0  2  0  0  3  0  0  0  0  0  0
  189.4900  176.6330  138.3530 C   0  0  0  0  0  0  0  0  0  0  0  0
  188.0270  176.8650  138.1210 C   0  0  0  0  0  2  0  0  0  0  0  0
  187.4070  175.7000  137.3540 C   0  0  2  0  0  3  0  0  0  0  0  0
  185.2760  176.8010  135.5460 C   0  0  1  0  0  3  0  0  0  0  0  0
  186.7580  176.9680  135.2290 C   0  0  0  0  0  2  0  0  0  0  0  0
  189.9540  176.4260  139.5520 N   0  0  0  0  0  0  0  0  0  0  0  0
  189.0190  175.7790  135.3010 C   0  0  0  0  0  2  0  0  0  0  0  0
  189.3560  179.0830  136.5700 N   0  0  0  0  0  2  0  0  0  0  0  0
  189.4700  178.2670  135.5870 C   0  0  0  0  0  3  0  0  0  0  0  0
  185.4230  174.1290  137.4830 C   0  0  2  0  0  3  0  0  0  0  0  0
  186.5660  173.1260  137.3430 C   0  0  0  0  0  1  0  0  0  0  0  0
  184.4670  174.0490  136.2830 C   0  0  0  0  0  2  0  0  0  0  0  0
  179.1190  172.6450  137.6240 N   0  0  0  0  0  0  0  0  0  0  0  0
  181.1360  172.2340  136.5770 C   0  0  0  0  0  0  0  0  0  0  0  0
  183.0590  173.6990  136.6630 C   0  0  0  0  0  0  0  0  0  0  0  0
  182.3220  174.5780  137.4880 C   0  0  0  0  0  3  0  0  0  0  0  0
  180.3000  171.0510  136.2530 C   0  0  0  0  0  3  0  0  0  0  0  0
  180.4300  173.1010  137.3590 C   0  0  0  0  0  0  0  0  0  0  0  0
  178.9530  171.3600  136.9440 C   0  0  0  0  0  3  0  0  0  0  0  0
  180.9950  174.2850  137.8390 C   0  0  0  0  0  3  0  0  0  0  0  0
  182.4580  172.5050  136.1980 C   0  0  2  0  0  3  0  0  0  0  0  0
  183.1970  171.5440  135.3200 C   0  0  0  0  0  1  0  0  0  0  0  0
  185.1370  177.9750  137.7740 C   0  0  0  0  0  2  0  0  0  0  0  0
  183.8670  178.3630  138.5290 C   0  0  1  0  0  0  0  0  0  0  0  0
  183.9140  178.2780  140.9110 C   0  0  0  0  0  0  0  0  0  0  0  0
  184.0050  180.7900  138.6650 O   0  0  0  0  0  0  0  0  0  0  0  0
  182.6410  178.3280  137.6330 C   0  0  0  0  0  1  0  0  0  0  0  0
  183.6860  177.4070  139.7050 C   0  0  0  0  0  2  0  0  0  0  0  0
  184.0900  179.5240  140.6390 N   0  0  0  0  0  0  0  0  0  0  0  0
  184.0050  179.6650  139.2360 C   0  0  0  0  0  0  0  0  0  0  0  0
  183.9530  177.8180  142.2310 O   0  0  0  0  0  0  0  0  0  0  0  0
  182.4660  179.2120  143.3320 O   0  0  0  0  0  0  0  0  0  0  0  0
  183.5460  178.5630  143.3450 C   0  0  0  0  0  0  0  0  0  0  0  0
  186.1320  178.6050  145.7410 C   0  0  0  0  0  3  0  0  0  0  0  0
  185.0910  178.9920  146.5080 N   0  0  0  0  0  0  0  0  0  0  0  0
  185.7470  178.3750  144.4680 N   0  0  0  0  0  0  0  0  0  0  0  0
  184.0180  179.0110  145.7390 N   0  0  0  0  0  2  0  0  0  0  0  0
  184.4250  178.6350  144.5140 C   0  0  0  0  0  0  0  0  0  0  0  0
  189.1220  176.3830  140.7460 C   0  0  0  0  0  2  0  0  0  0  0  0
  189.6000  177.9430  142.2340 C   0  0  0  0  0  1  0  0  0  0  0  0
  189.9100  176.6340  141.8670 O   0  0  0  0  0  0  0  0  0  0  0  0
  2  1  2  0  0  0  0
  2  8  1  0  0  0  0
  3 12  1  1  0  0  0
  3 10  1  0  0  0  0
  4 17  1  6  0  0  0
  5 16  1  1  0  0  0
  5  2  1  0  0  0  0
  7  4  1  0  0  0  0
  7 30  1  1  0  0  0
  8 13  2  0  0  0  0
  9  8  1  0  0  0  0
 10  4  1  0  0  0  0
 10  9  1  1  0  0  0
 11  6  1  6  0  0  0
 11  7  1  0  0  0  0
 12 11  1  0  0  0  0
 13 46  1  0  0  0  0
 14  5  1  0  0  0  0
 14  3  1  0  0  0  0
 16 15  2  0  0  0  0
 17 18  1  6  0  0  0
 19 22  1  0  0  0  0
 19 17  1  0  0  0  0
 21 25  1  0  0  0  0
 22 23  2  0  0  0  0
 23 27  1  0  0  0  0
 24 21  2  0  0  0  0
 24 26  1  0  0  0  0
 25 20  1  0  0  0  0
 25 27  2  0  0  0  0
 26 20  2  0  0  0  0
 28 29  1  6  0  0  0
 28 21  1  0  0  0  0
 28 22  1  0  0  0  0
 30 31  1  0  0  0  0
 31 34  1  6  0  0  0
 31 37  1  0  0  0  0
 31 35  1  0  0  0  0
 32 38  1  0  0  0  0
 33 37  2  0  0  0  0
 35 32  1  0  0  0  0
 36 32  2  0  0  0  0
 37 36  1  0  0  0  0
 38 40  1  0  0  0  0
 39 40  2  0  0  0  0
 40 45  1  0  0  0  0
 41 42  2  0  0  0  0
 43 45  2  0  0  0  0
 43 41  1  0  0  0  0
 44 42  1  0  0  0  0
 45 44  1  0  0  0  0
 46 48  1  0  0  0  0
 48 47  1  0  0  0  0
M  END
>  <MODEL>
3

>  <REMARK>
 VINA RESULT:      -4.9      2.356      4.342
  Name = 
  11 active torsions:
  status: ('A' for Active; 'I' for Inactive)
    1  A    between atoms: C_8  and  C_28
    2  A    between atoms: C_9  and  C_47
    3  A    between atoms: C_11  and  C_29
    4  A    between atoms: C_12  and  C_29
    5  A    between atoms: C_14  and  O_24
    6  A    between atoms: C_18  and  C_48
    7  A    between atoms: O_24  and  C_25
    8  A    between atoms: C_25  and  C_44
    9  A    between atoms: C_28  and  C_48
   10  A    between atoms: N_31  and  C_37
   11  A    between atoms: C_37  and  O_43
                            x       y       z     vdW  Elec       q    Type
                         _______ _______ _______ _____ _____    ______ ____

>  <TORSDO>
F 11

$$$$
=
 OpenBabel11062415253D

 48 53  0  0  1  0  0  0  0  0999 V2000
  190.3360  172.9120  135.0510 O   0  0  0  0  0  0  0  0  0  0  0  0
  190.0840  173.8770  135.8220 C   0  0  0  0  0  0  0  0  0  0  0  0
  189.1780  176.9950  136.2350 C   0  0  1  0  0  3  0  0  0  0  0  0
  187.1100  176.9390  137.7000 C   0  0  2  0  0  3  0  0  0  0  0  0
  190.9150  175.1170  135.7000 C   0  0  1  0  0  3  0  0  0  0  0  0
  188.4940  179.6980  137.3080 O   0  0  0  0  0  1  0  0  0  0  0  0
  187.8360  177.8590  138.7150 C   0  0  2  0  0  3  0  0  0  0  0  0
  188.9710  173.7760  136.7870 C   0  0  0  0  0  0  0  0  0  0  0  0
  188.6310  174.9420  137.6650 C   0  0  0  0  0  2  0  0  0  0  0  0
  188.0760  176.1010  136.8420 C   0  0  2  0  0  3  0  0  0  0  0  0
  188.9920  178.6680  138.1050 C   0  0  1  0  0  3  0  0  0  0  0  0
  189.9410  177.7930  137.2930 C   0  0  0  0  0  2  0  0  0  0  0  0
  188.2940  172.6660  136.8540 N   0  0  0  0  0  0  0  0  0  0  0  0
  190.1020  176.3250  135.2090 C   0  0  0  0  0  2  0  0  0  0  0  0
  192.8730  174.8050  137.0750 N   0  0  0  0  0  2  0  0  0  0  0  0
  191.7450  175.3910  136.9120 C   0  0  0  0  0  3  0  0  0  0  0  0
  186.1080  177.6970  136.8170 C   0  0  2  0  0  3  0  0  0  0  0  0
  185.1300  178.5440  137.6260 C   0  0  0  0  0  1  0  0  0  0  0  0
  185.3620  176.7520  135.8600 C   0  0  0  0  0  2  0  0  0  0  0  0
  179.7110  177.4070  135.9280 N   0  0  0  0  0  0  0  0  0  0  0  0
  181.6740  176.5200  136.7620 C   0  0  0  0  0  0  0  0  0  0  0  0
  183.8760  176.9530  135.8610 C   0  0  0  0  0  0  0  0  0  0  0  0
  183.2880  177.7970  134.8920 C   0  0  0  0  0  3  0  0  0  0  0  0
  180.6140  175.9870  137.6550 C   0  0  0  0  0  3  0  0  0  0  0  0
  181.1160  177.3230  135.8090 C   0  0  0  0  0  0  0  0  0  0  0  0
  179.3130  176.5750  137.0650 C   0  0  0  0  0  2  0  0  0  0  0  0
  181.8970  177.9840  134.8570 C   0  0  0  0  0  3  0  0  0  0  0  0
  183.0570  176.3030  136.8140 C   0  0  0  0  0  0  0  0  0  0  0  0
  183.6340  175.3990  137.8580 C   0  0  0  0  0  1  0  0  0  0  0  0
  188.3160  177.0610  139.9290 C   0  0  0  0  0  2  0  0  0  0  0  0
  187.9030  177.6850  141.2590 C   0  0  1  0  0  0  0  0  0  0  0  0
  189.2190  177.1890  143.1840 C   0  0  0  0  0  0  0  0  0  0  0  0
  188.9260  179.8930  141.1930 O   0  0  0  0  0  0  0  0  0  0  0  0
  186.4660  178.1810  141.2310 C   0  0  0  0  0  1  0  0  0  0  0  0
  188.0790  176.6470  142.3640 C   0  0  0  0  0  2  0  0  0  0  0  0
  189.6360  178.3490  142.8100 N   0  0  0  0  0  0  0  0  0  0  0  0
  188.8490  178.7440  141.7050 C   0  0  0  0  0  0  0  0  0  0  0  0
  189.8140  176.5250  144.2600 O   0  0  0  0  0  0  0  0  0  0  0  0
  191.5710  177.3960  145.4920 O   0  0  0  0  0  0  0  0  0  0  0  0
  190.3390  177.1570  145.3950 C   0  0  0  0  0  0  0  0  0  0  0  0
  187.7190  177.9320  147.6240 C   0  0  0  0  0  3  0  0  0  0  0  0
  188.7450  177.8130  148.4930 N   0  0  0  0  0  0  0  0  0  0  0  0
  188.1250  177.7230  146.3540 N   0  0  0  0  0  0  0  0  0  0  0  0
  189.8280  177.5320  147.7930 N   0  0  0  0  0  2  0  0  0  0  0  0
  189.4420  177.4840  146.5060 C   0  0  0  0  0  0  0  0  0  0  0  0
  187.1630  172.4600  137.7480 C   0  0  0  0  0  2  0  0  0  0  0  0
  185.7190  171.9090  136.1710 C   0  0  0  0  0  1  0  0  0  0  0  0
  185.9950  172.8900  137.1220 O   0  0  0  0  0  0  0  0  0  0  0  0
  1  2  2  0  0  0  0
  2  8  1  0  0  0  0
  3 14  1  1  0  0  0
  3 10  1  0  0  0  0
  3 12  1  0  0  0  0
  4 17  1  6  0  0  0
  4  7  1  0  0  0  0
  5  2  1  0  0  0  0
  5 16  1  1  0  0  0
  7 30  1  1  0  0  0
  8 13  2  0  0  0  0
  8  9  1  0  0  0  0
 10  9  1  1  0  0  0
 10  4  1  0  0  0  0
 11  6  1  6  0  0  0
 11  7  1  0  0  0  0
 12 11  1  0  0  0  0
 13 46  1  0  0  0  0
 14  5  1  0  0  0  0
 16 15  2  0  0  0  0
 17 18  1  1  0  0  0
 19 22  1  0  0  0  0
 19 17  1  0  0  0  0
 20 26  1  0  0  0  0
 21 28  1  0  0  0  0
 21 24  2  0  0  0  0
 22 28  2  0  0  0  0
 23 22  1  0  0  0  0
 25 20  2  0  0  0  0
 25 21  1  0  0  0  0
 26 24  1  0  0  0  0
 27 23  2  0  0  0  0
 27 25  1  0  0  0  0
 28 29  1  0  0  0  0
 30 31  1  0  0  0  0
 31 34  1  6  0  0  0
 31 37  1  0  0  0  0
 31 35  1  0  0  0  0
 32 38  1  0  0  0  0
 33 37  2  0  0  0  0
 35 32  1  0  0  0  0
 36 32  2  0  0  0  0
 37 36  1  0  0  0  0
 38 40  1  0  0  0  0
 40 39  2  0  0  0  0
 40 45  1  0  0  0  0
 41 42  2  0  0  0  0
 43 45  2  0  0  0  0
 43 41  1  0  0  0  0
 44 42  1  0  0  0  0
 45 44  1  0  0  0  0
 47 48  1  0  0  0  0
 48 46  1  0  0  0  0
M  END
>  <MODEL>
4

>  <REMARK>
 VINA RESULT:      -4.8      1.846      2.839
  Name = 
  11 active torsions:
  status: ('A' for Active; 'I' for Inactive)
    1  A    between atoms: C_8  and  C_28
    2  A    between atoms: C_9  and  C_47
    3  A    between atoms: C_11  and  C_29
    4  A    between atoms: C_12  and  C_29
    5  A    between atoms: C_14  and  O_24
    6  A    between atoms: C_18  and  C_48
    7  A    between atoms: O_24  and  C_25
    8  A    between atoms: C_25  and  C_44
    9  A    between atoms: C_28  and  C_48
   10  A    between atoms: N_31  and  C_37
   11  A    between atoms: C_37  and  O_43
                            x       y       z     vdW  Elec       q    Type
                         _______ _______ _______ _____ _____    ______ ____

>  <TORSDO>
F 11

$$$$
=
 OpenBabel11062415253D

 48 53  0  0  1  0  0  0  0  0999 V2000
  189.1300  174.6090  134.5940 O   0  0  0  0  0  0  0  0  0  0  0  0
  189.2010  175.2160  135.6960 C   0  0  0  0  0  0  0  0  0  0  0  0
  188.8800  177.9800  137.4200 C   0  0  1  0  0  3  0  0  0  0  0  0
  187.2080  177.4730  139.2570 C   0  0  2  0  0  3  0  0  0  0  0  0
  190.1580  176.3630  135.8120 C   0  0  1  0  0  3  0  0  0  0  0  0
  188.8590  180.0970  139.5280 O   0  0  0  0  0  1  0  0  0  0  0  0
  188.2700  177.8960  140.3040 C   0  0  2  0  0  3  0  0  0  0  0  0
  188.3310  174.8110  136.8170 C   0  0  0  0  0  0  0  0  0  0  0  0
  188.3720  175.5660  138.1110 C   0  0  0  0  0  2  0  0  0  0  0  0
  187.8230  176.9800  137.9330 C   0  0  2  0  0  3  0  0  0  0  0  0
  189.3660  178.8150  139.7430 C   0  0  1  0  0  3  0  0  0  0  0  0
  189.9700  178.2710  138.4530 C   0  0  0  0  0  2  0  0  0  0  0  0
  187.5300  173.7960  136.6580 N   0  0  0  0  0  0  0  0  0  0  0  0
  189.4420  177.7080  136.0180 C   0  0  0  0  0  2  0  0  0  0  0  0
  192.4790  176.4030  136.4710 N   0  0  0  0  0  2  0  0  0  0  0  0
  191.2700  176.1090  136.7780 C   0  0  0  0  0  3  0  0  0  0  0  0
  186.1560  178.5620  138.9990 C   0  0  2  0  0  3  0  0  0  0  0  0
  185.3190  178.8780  140.2360 C   0  0  0  0  0  1  0  0  0  0  0  0
  185.2600  178.2190  137.7980 C   0  0  0  0  0  2  0  0  0  0  0  0
  180.2950  175.8950  139.3210 N   0  0  0  0  0  0  0  0  0  0  0  0
  181.6390  177.7130  138.8470 C   0  0  0  0  0  0  0  0  0  0  0  0
  183.9620  177.5770  138.1860 C   0  0  0  0  0  0  0  0  0  0  0  0
  183.8770  176.1700  138.2630 C   0  0  0  0  0  3  0  0  0  0  0  0
  180.3150  178.3010  139.1730 C   0  0  0  0  0  3  0  0  0  0  0  0
  181.5760  176.3520  138.9360 C   0  0  0  0  0  0  0  0  0  0  0  0
  179.4440  177.0700  139.5060 C   0  0  0  0  0  2  0  0  0  0  0  0
  182.6790  175.5450  138.6450 C   0  0  0  0  0  3  0  0  0  0  0  0
  182.8240  178.3660  138.4810 C   0  0  0  0  0  0  0  0  0  0  0  0
  182.8650  179.8600  138.4160 C   0  0  0  0  0  1  0  0  0  0  0  0
  188.8870  176.6690  140.9790 C   0  0  0  0  0  2  0  0  0  0  0  0
  189.9120  177.0280  142.0530 C   0  0  1  0  0  0  0  0  0  0  0  0
  189.1030  177.6310  144.2130 C   0  0  0  0  0  0  0  0  0  0  0  0
  190.5670  174.8650  142.9600 O   0  0  0  0  0  0  0  0  0  0  0  0
  191.2680  177.3610  141.4540 C   0  0  0  0  0  1  0  0  0  0  0  0
  189.3860  178.2150  142.8560 C   0  0  0  0  0  2  0  0  0  0  0  0
  189.4520  176.3980  144.3420 N   0  0  0  0  0  0  0  0  0  0  0  0
  190.0100  175.9860  143.1110 C   0  0  0  0  0  0  0  0  0  0  0  0
  188.5050  178.3220  145.2700 O   0  0  0  0  0  0  0  0  0  0  0  0
  187.4580  177.1920  147.0000 O   0  0  0  0  0  0  0  0  0  0  0  0
  187.3620  177.8920  145.9570 C   0  0  0  0  0  0  0  0  0  0  0  0
  184.1070  179.0030  145.1850 C   0  0  0  0  0  3  0  0  0  0  0  0
  184.4170  178.3600  144.0390 N   0  0  0  0  0  0  0  0  0  0  0  0
  185.1170  178.9340  146.0760 N   0  0  0  0  0  0  0  0  0  0  0  0
  185.6320  177.8630  144.1800 N   0  0  0  0  0  2  0  0  0  0  0  0
  186.0410  178.2120  145.4120 C   0  0  0  0  0  0  0  0  0  0  0  0
  186.6110  173.3220  137.6830 C   0  0  0  0  0  2  0  0  0  0  0  0
  186.5170  171.8610  136.0290 C   0  0  0  0  0  1  0  0  0  0  0  0
  185.8270  172.2950  137.1600 O   0  0  0  0  0  0  0  0  0  0  0  0
  1  2  2  0  0  0  0
  2  5  1  0  0  0  0
  2  8  1  0  0  0  0
  3 14  1  6  0  0  0
  3 10  1  0  0  0  0
  3 12  1  0  0  0  0
  4 17  1  6  0  0  0
  4  7  1  0  0  0  0
  5 14  1  0  0  0  0
  5 16  1  1  0  0  0
  7 30  1  6  0  0  0
  8  9  1  0  0  0  0
 10  9  1  1  0  0  0
 10  4  1  0  0  0  0
 11  6  1  6  0  0  0
 11  7  1  0  0  0  0
 12 11  1  0  0  0  0
 13  8  2  0  0  0  0
 13 46  1  0  0  0  0
 15 16  2  0  0  0  0
 17 18  1  1  0  0  0
 19 22  1  0  0  0  0
 19 17  1  0  0  0  0
 20 26  1  0  0  0  0
 21 25  1  0  0  0  0
 21 24  2  0  0  0  0
 22 23  1  0  0  0  0
 22 28  2  0  0  0  0
 23 27  2  0  0  0  0
 24 26  1  0  0  0  0
 25 20  2  0  0  0  0
 27 25  1  0  0  0  0
 28 21  1  0  0  0  0
 29 28  1  0  0  0  0
 30 31  1  0  0  0  0
 31 34  1  6  0  0  0
 31 35  1  0  0  0  0
 31 37  1  0  0  0  0
 32 36  2  0  0  0  0
 32 38  1  0  0  0  0
 33 37  2  0  0  0  0
 35 32  1  0  0  0  0
 37 36  1  0  0  0  0
 38 40  1  0  0  0  0
 40 39  2  0  0  0  0
 41 43  1  0  0  0  0
 42 44  1  0  0  0  0
 42 41  2  0  0  0  0
 44 45  1  0  0  0  0
 45 40  1  0  0  0  0
 45 43  2  0  0  0  0
 47 48  1  0  0  0  0
 48 46  1  0  0  0  0
M  END
>  <MODEL>
5

>  <REMARK>
 VINA RESULT:      -4.6      1.945      2.332
  Name = 
  11 active torsions:
  status: ('A' for Active; 'I' for Inactive)
    1  A    between atoms: C_8  and  C_28
    2  A    between atoms: C_9  and  C_47
    3  A    between atoms: C_11  and  C_29
    4  A    between atoms: C_12  and  C_29
    5  A    between atoms: C_14  and  O_24
    6  A    between atoms: C_18  and  C_48
    7  A    between atoms: O_24  and  C_25
    8  A    between atoms: C_25  and  C_44
    9  A    between atoms: C_28  and  C_48
   10  A    between atoms: N_31  and  C_37
   11  A    between atoms: C_37  and  O_43
                            x       y       z     vdW  Elec       q    Type
                         _______ _______ _______ _____ _____    ______ ____

>  <TORSDO>
F 11

$$$$
=
 OpenBabel11062415253D

 48 53  0  0  1  0  0  0  0  0999 V2000
  185.4370  180.0160  142.2000 O   0  0  0  0  0  0  0  0  0  0  0  0
  185.2940  179.2130  141.2390 C   0  0  0  0  0  0  0  0  0  0  0  0
  184.6700  178.6880  138.0690 C   0  0  1  0  0  3  0  0  0  0  0  0
  186.6740  177.4330  137.1550 C   0  0  2  0  0  3  0  0  0  0  0  0
  183.9700  179.1740  140.5390 C   0  0  1  0  0  3  0  0  0  0  0  0
  184.1220  177.5140  135.3770 O   0  0  0  0  0  1  0  0  0  0  0  0
  185.7230  176.2970  136.7000 C   0  0  2  0  0  3  0  0  0  0  0  0
  186.4250  178.3660  140.8120 C   0  0  0  0  0  0  0  0  0  0  0  0
  186.2760  177.4510  139.6340 C   0  0  0  0  0  2  0  0  0  0  0  0
  186.1240  178.2480  138.3410 C   0  0  2  0  0  3  0  0  0  0  0  0
  184.2620  176.7400  136.5290 C   0  0  1  0  0  3  0  0  0  0  0  0
  183.7480  177.5120  137.7400 C   0  0  0  0  0  2  0  0  0  0  0  0
  187.5480  178.4360  141.4690 N   0  0  0  0  0  0  0  0  0  0  0  0
  184.0580  179.6620  139.0850 C   0  0  0  0  0  2  0  0  0  0  0  0
  182.0110  177.8500  141.0200 N   0  0  0  0  0  2  0  0  0  0  0  0
  183.2530  177.8730  140.7060 C   0  0  0  0  0  3  0  0  0  0  0  0
  187.0950  178.3580  136.0030 C   0  0  2  0  0  3  0  0  0  0  0  0
  186.6270  177.8530  134.6410 C   0  0  0  0  0  1  0  0  0  0  0  0
  188.6090  178.6210  136.0060 C   0  0  0  0  0  2  0  0  0  0  0  0
  191.8030  173.9180  135.7780 N   0  0  0  0  0  0  0  0  0  0  0  0
  190.9370  175.7460  136.8930 C   0  0  0  0  0  0  0  0  0  0  0  0
  189.4330  177.3710  135.9190 C   0  0  0  0  0  0  0  0  0  0  0  0
  189.4710  176.6460  134.7080 C   0  0  0  0  0  3  0  0  0  0  0  0
  191.7700  175.0500  137.9060 C   0  0  0  0  0  3  0  0  0  0  0  0
  190.9800  175.0650  135.7110 C   0  0  0  0  0  0  0  0  0  0  0  0
  192.3540  173.8480  137.1310 C   0  0  0  0  0  2  0  0  0  0  0  0
  190.2530  175.4850  134.5940 C   0  0  0  0  0  3  0  0  0  0  0  0
  190.1770  176.9150  137.0340 C   0  0  0  0  0  0  0  0  0  0  0  0
  190.1700  177.6500  138.3370 C   0  0  0  0  0  1  0  0  0  0  0  0
  185.8160  175.0970  137.6460 C   0  0  0  0  0  2  0  0  0  0  0  0
  186.3160  173.8290  136.9570 C   0  0  1  0  0  0  0  0  0  0  0  0
  184.7320  172.1100  136.4920 C   0  0  0  0  0  0  0  0  0  0  0  0
  186.2920  174.4180  134.5940 O   0  0  0  0  0  0  0  0  0  0  0  0
  187.8250  173.6830  137.0630 C   0  0  0  0  0  1  0  0  0  0  0  0
  185.6260  172.6230  137.5880 C   0  0  0  0  0  2  0  0  0  0  0  0
  184.8600  172.7280  135.3700 N   0  0  0  0  0  0  0  0  0  0  0  0
  185.8440  173.7270  135.5490 C   0  0  0  0  0  0  0  0  0  0  0  0
  183.8150  171.0640  136.6340 O   0  0  0  0  0  0  0  0  0  0  0  0
  182.2710  170.2690  135.1020 O   0  0  0  0  0  0  0  0  0  0  0  0
  182.5380  171.0410  136.0600 C   0  0  0  0  0  0  0  0  0  0  0  0
  180.5950  173.6540  137.4120 C   0  0  0  0  0  3  0  0  0  0  0  0
  179.6220  172.8850  136.8790 N   0  0  0  0  0  0  0  0  0  0  0  0
  181.8140  173.1120  137.2130 N   0  0  0  0  0  0  0  0  0  0  0  0
  180.2020  171.8320  136.3340 N   0  0  0  0  0  2  0  0  0  0  0  0
  181.5220  171.9790  136.5450 C   0  0  0  0  0  0  0  0  0  0  0  0
  188.7370  177.6690  141.1250 C   0  0  0  0  0  2  0  0  0  0  0  0
  188.9630  176.3630  142.8920 C   0  0  0  0  0  1  0  0  0  0  0  0
  189.5120  177.4830  142.2680 O   0  0  0  0  0  0  0  0  0  0  0  0
  2  1  2  0  0  0  0
  3 12  1  1  0  0  0
  3 10  1  0  0  0  0
  3 14  1  0  0  0  0
  4 17  1  6  0  0  0
  4 10  1  0  0  0  0
  5 16  1  6  0  0  0
  5  2  1  0  0  0  0
  7  4  1  0  0  0  0
  7 30  1  1  0  0  0
  8  2  1  0  0  0  0
  8 13  2  0  0  0  0
  9  8  1  0  0  0  0
 10  9  1  1  0  0  0
 11  6  1  6  0  0  0
 11  7  1  0  0  0  0
 11 12  1  0  0  0  0
 14  5  1  0  0  0  0
 16 15  2  0  0  0  0
 17 18  1  6  0  0  0
 17 19  1  0  0  0  0
 20 26  1  0  0  0  0
 21 28  1  0  0  0  0
 21 24  2  0  0  0  0
 22 19  1  0  0  0  0
 22 28  2  0  0  0  0
 23 22  1  0  0  0  0
 25 20  2  0  0  0  0
 25 21  1  0  0  0  0
 26 24  1  0  0  0  0
 27 23  2  0  0  0  0
 27 25  1  0  0  0  0
 28 29  1  0  0  0  0
 31 34  1  1  0  0  0
 31 35  1  0  0  0  0
 31 30  1  0  0  0  0
 32 38  1  0  0  0  0
 32 35  1  0  0  0  0
 33 37  2  0  0  0  0
 36 37  1  0  0  0  0
 36 32  2  0  0  0  0
 37 31  1  0  0  0  0
 39 40  2  0  0  0  0
 40 45  1  0  0  0  0
 40 38  1  0  0  0  0
 42 41  2  0  0  0  0
 43 41  1  0  0  0  0
 44 45  1  0  0  0  0
 44 42  1  0  0  0  0
 45 43  2  0  0  0  0
 46 13  1  0  0  0  0
 46 48  1  0  0  0  0
 48 47  1  0  0  0  0
M  END
>  <MODEL>
6

>  <REMARK>
 VINA RESULT:      -4.5      2.473      8.458
  Name = 
  11 active torsions:
  status: ('A' for Active; 'I' for Inactive)
    1  A    between atoms: C_8  and  C_28
    2  A    between atoms: C_9  and  C_47
    3  A    between atoms: C_11  and  C_29
    4  A    between atoms: C_12  and  C_29
    5  A    between atoms: C_14  and  O_24
    6  A    between atoms: C_18  and  C_48
    7  A    between atoms: O_24  and  C_25
    8  A    between atoms: C_25  and  C_44
    9  A    between atoms: C_28  and  C_48
   10  A    between atoms: N_31  and  C_37
   11  A    between atoms: C_37  and  O_43
                            x       y       z     vdW  Elec       q    Type
                         _______ _______ _______ _____ _____    ______ ____

>  <TORSDO>
F 11

$$$$
