=
 OpenBabel11062417393D

 65 71  0  0  1  0  0  0  0  0999 V2000
  181.4010  178.0490  139.0540 C   0  0  2  0  0  3  0  0  0  0  0  0
  179.1470  177.6570  140.9270 O   0  0  0  0  0  0  0  0  0  0  0  0
  182.6880  178.5590  143.5130 C   0  0  2  0  0  3  0  0  0  0  0  0
  180.2980  178.2690  142.8580 N   0  0  0  0  0  2  0  0  0  0  0  0
  181.4460  178.3570  140.5540 C   0  0  2  0  0  3  0  0  0  0  0  0
  183.3000  178.8350  142.1420 C   0  0  0  0  0  2  0  0  0  0  0  0
  182.7660  177.8510  141.1220 C   0  0  0  0  0  2  0  0  0  0  0  0
  180.2470  178.0440  141.4380 C   0  0  0  0  0  0  0  0  0  0  0  0
  181.2590  179.1120  143.5590 C   0  0  0  0  0  2  0  0  0  0  0  0
  184.6680  180.1130  144.0460 C   0  0  0  0  0  1  0  0  0  0  0  0
  183.5150  179.3010  144.6060 C   0  0  2  0  0  3  0  0  0  0  0  0
  184.0030  178.3930  145.7520 C   0  0  0  0  0  2  0  0  0  0  0  0
  184.9150  179.0980  146.5890 O   0  0  0  0  0  0  0  0  0  0  0  0
  185.6410  178.0680  147.2310 C   0  0  0  0  0  2  0  0  0  0  0  0
  187.1470  178.3680  147.2500 C   0  0  1  0  0  3  0  0  0  0  0  0
  187.8170  178.2960  148.6200 C   0  0  0  0  0  1  0  0  0  0  0  0
  189.4830  177.6580  143.1000 C   0  0  0  0  0  0  0  0  0  0  0  0
  189.1680  178.1000  144.3600 C   0  0  0  0  0  0  0  0  0  0  0  0
  188.4570  177.3580  142.1940 C   0  0  0  0  0  3  0  0  0  0  0  0
  186.8330  177.5730  143.9840 C   0  0  0  0  0  3  0  0  0  0  0  0
  190.1460  177.6260  145.3520 C   0  0  1  0  0  3  0  0  0  0  0  0
  187.8720  177.6210  146.2130 N   0  0  0  0  0  0  0  0  0  0  0  0
  190.6030  176.6510  143.2450 C   0  0  2  0  0  3  0  0  0  0  0  0
  189.2260  177.2550  146.4590 C   0  0  0  0  0  0  0  0  0  0  0  0
  187.8580  178.0120  144.8400 C   0  0  0  0  0  0  0  0  0  0  0  0
  190.6820  176.4110  144.7150 N   0  0  0  0  0  0  0  0  0  0  0  0
  187.1190  177.3190  142.6390 C   0  0  0  0  0  3  0  0  0  0  0  0
  189.6170  176.6970  147.5310 O   0  0  0  0  0  0  0  0  0  0  0  0
  191.9810  175.9970  145.2530 C   0  0  0  0  0  1  0  0  0  0  0  0
  191.8850  177.2380  142.5900 C   0  0  0  0  0  2  0  0  0  0  0  0
  191.6840  177.3850  141.2060 O   0  0  0  0  0  1  0  0  0  0  0  0
  182.8060  177.9500  138.4670 C   0  0  0  0  0  2  0  0  0  0  0  0
  182.0650  176.0160  136.9220 C   0  0  1  0  0  3  0  0  0  0  0  0
  180.9630  174.9670  134.9260 C   0  0  0  0  0  1  0  0  0  0  0  0
  182.7990  177.3740  137.0410 C   0  0  2  0  0  3  0  0  0  0  0  0
  184.2050  177.2540  136.4960 C   0  0  0  0  0  2  0  0  0  0  0  0
  182.3040  175.2850  135.5710 C   0  0  1  0  0  3  0  0  0  0  0  0
  183.2290  176.0680  134.6000 C   0  0  0  0  0  2  0  0  0  0  0  0
  184.4180  176.6350  135.3480 C   0  0  0  0  0  0  0  0  0  0  0  0
  183.6560  174.3540  138.1280 C   0  0  0  0  0  1  0  0  0  0  0  0
  182.3420  175.0750  138.0590 C   0  0  0  0  0  0  0  0  0  0  0  0
  181.5300  174.9050  138.9440 O   0  0  0  0  0  0  0  0  0  0  0  0
  185.7190  176.5680  134.7470 N   0  0  0  0  0  0  0  0  0  0  0  0
  188.0800  178.3940  137.1120 N   0  0  0  0  0  0  0  0  0  0  0  0
  187.8440  175.8610  135.9450 C   0  0  1  0  0  3  0  0  0  0  0  0
  187.0930  175.1160  136.8390 F   0  0  0  0  0  0  0  0  0  0  0  0
  187.0170  177.0170  135.3170 C   0  0  2  0  0  3  0  0  0  0  0  0
  189.2380  177.6860  136.4720 C   0  0  0  0  0  2  0  0  0  0  0  0
  186.8150  178.0560  136.4050 C   0  0  0  0  0  2  0  0  0  0  0  0
  189.0800  176.2720  136.5370 O   0  0  0  0  0  0  0  0  0  0  0  0
  187.9740  178.0490  138.5330 C   0  0  0  0  0  0  0  0  0  0  0  0
  188.3630  176.7170  138.7480 F   0  0  0  0  0  0  0  0  0  0  0  0
  188.8400  178.8450  139.2600 F   0  0  0  0  0  0  0  0  0  0  0  0
  186.7160  178.2550  139.0320 F   0  0  0  0  0  0  0  0  0  0  0  0
  180.5550  178.9360  138.2450 N   0  0  0  0  0  2  0  0  0  0  0  0
  181.1660  180.5970  138.3330 P   0  0  2  0  0  0  0  0  0  0  0  0
  182.7960  180.5450  138.7940 O   0  0  0  0  0  0  0  0  0  0  0  0
  180.3730  181.3710  139.3830 O   0  0  0  0  0  1  0  0  0  0  0  0
  180.0510  180.7290  136.0330 O   0  0  0  0  0  1  0  0  0  0  0  0
  181.0050  181.3960  136.7550 N   0  0  0  0  0  0  0  0  0  0  0  0
  180.4060  184.9250  135.8670 C   0  0  0  0  0  2  0  0  0  0  0  0
  180.5150  182.7630  136.9600 C   0  0  2  0  0  3  0  0  0  0  0  0
  181.2580  184.9700  137.1230 C   0  0  0  0  0  2  0  0  0  0  0  0
  180.0030  183.4510  135.6940 C   0  0  0  0  0  2  0  0  0  0  0  0
  181.5910  183.6020  137.5050 N   0  0  0  0  0  2  0  0  0  0  0  0
  1 32  1  6  0  0  0
  2  8  2  0  0  0  0
  3  9  1  0  0  0  0
  3 11  1  1  0  0  0
  4  9  1  0  0  0  0
  5  1  1  6  0  0  0
  5  7  1  0  0  0  0
  5  8  1  0  0  0  0
  6  3  1  0  0  0  0
  7  6  1  0  0  0  0
  8  4  1  0  0  0  0
 11 10  1  6  0  0  0
 11 12  1  0  0  0  0
 12 13  1  0  0  0  0
 13 14  1  0  0  0  0
 14 15  1  0  0  0  0
 15 16  1  1  0  0  0
 17 23  1  0  0  0  0
 17 18  1  0  0  0  0
 18 25  2  0  0  0  0
 19 27  1  0  0  0  0
 19 17  2  0  0  0  0
 20 25  1  0  0  0  0
 21 18  1  6  0  0  0
 21 24  1  0  0  0  0
 22 24  1  0  0  0  0
 22 15  1  0  0  0  0
 23 30  1  1  0  0  0
 23 26  1  0  0  0  0
 24 28  2  0  0  0  0
 25 22  1  0  0  0  0
 26 29  1  0  0  0  0
 26 21  1  0  0  0  0
 27 20  2  0  0  0  0
 31 30  1  0  0  0  0
 33 35  1  0  0  0  0
 33 41  1  1  0  0  0
 35 32  1  1  0  0  0
 36 35  1  0  0  0  0
 37 34  1  6  0  0  0
 37 33  1  0  0  0  0
 38 39  1  0  0  0  0
 38 37  1  0  0  0  0
 39 36  1  0  0  0  0
 41 40  1  0  0  0  0
 41 42  2  0  0  0  0
 43 39  2  0  0  0  0
 44 51  1  0  0  0  0
 45 50  1  0  0  0  0
 45 46  1  1  0  0  0
 47 43  1  1  0  0  0
 47 45  1  0  0  0  0
 47 49  1  0  0  0  0
 48 50  1  0  0  0  0
 48 44  1  0  0  0  0
 49 44  1  0  0  0  0
 51 52  1  0  0  0  0
 51 54  1  0  0  0  0
 51 53  1  0  0  0  0
 55 56  1  0  0  0  0
 55  1  1  0  0  0  0
 56 57  2  1  0  0  0
 56 58  1  0  0  0  0
 59 60  1  0  0  0  0
 60 56  1  0  0  0  0
 61 63  1  0  0  0  0
 62 60  1  6  0  0  0
 62 65  1  0  0  0  0
 63 65  1  0  0  0  0
 64 61  1  0  0  0  0
 64 62  1  0  0  0  0
M  END
>  <MODEL>
1

>  <REMARK>
 VINA RESULT:      -8.8      0.000      0.000
  Name = 
  18 active torsions:
  status: ('A' for Active; 'I' for Inactive)
    1  A    between atoms: C_3  and  N_50
    2  A    between atoms: P_6  and  N_40
    3  A    between atoms: P_6  and  N_50
    4  A    between atoms: C_7  and  N_24
    5  A    between atoms: C_7  and  C_29
    6  A    between atoms: N_9  and  C_31
    7  A    between atoms: C_11  and  C_65
    8  A    between atoms: N_14  and  C_17
    9  A    between atoms: N_14  and  C_62
   10  A    between atoms: C_21  and  C_61
   11  A    between atoms: C_27  and  C_35
   12  A    between atoms: C_29  and  O_41
   13  A    between atoms: C_33  and  C_43
   14  A    between atoms: C_34  and  C_54
   15  A    between atoms: C_35  and  C_54
   16  A    between atoms: N_40  and  C_54
   17  A    between atoms: O_41  and  C_46
   18  A    between atoms: C_46  and  C_65
                            x       y       z     vdW  Elec       q    Type
                         _______ _______ _______ _____ _____    ______ ____

>  <TORSDO>
F 18

$$$$
=
 OpenBabel11062417393D

 65 71  0  0  1  0  0  0  0  0999 V2000
  189.3170  174.5120  136.6020 C   0  0  2  0  0  3  0  0  0  0  0  0
  188.0100  171.9380  137.2400 O   0  0  0  0  0  0  0  0  0  0  0  0
  184.6610  174.8530  136.6650 C   0  0  2  0  0  3  0  0  0  0  0  0
  185.8220  172.6550  136.8770 N   0  0  0  0  0  2  0  0  0  0  0  0
  187.8130  174.2430  136.4900 C   0  0  2  0  0  3  0  0  0  0  0  0
  185.8320  175.7220  136.2120 C   0  0  0  0  0  2  0  0  0  0  0  0
  187.0550  175.4350  137.0590 C   0  0  0  0  0  2  0  0  0  0  0  0
  187.2400  172.9000  136.9180 C   0  0  0  0  0  0  0  0  0  0  0  0
  184.8400  173.4290  136.1270 C   0  0  0  0  0  2  0  0  0  0  0  0
  183.5420  176.6490  135.2000 C   0  0  0  0  0  1  0  0  0  0  0  0
  183.3380  175.4190  136.0650 C   0  0  2  0  0  3  0  0  0  0  0  0
  182.2320  175.6740  137.1100 C   0  0  0  0  0  2  0  0  0  0  0  0
  182.6830  176.6030  138.0910 O   0  0  0  0  0  0  0  0  0  0  0  0
  181.5060  177.2970  138.4550 C   0  0  0  0  0  2  0  0  0  0  0  0
  181.7400  178.8140  138.5050 C   0  0  1  0  0  3  0  0  0  0  0  0
  180.6960  179.6670  137.7880 C   0  0  0  0  0  1  0  0  0  0  0  0
  181.9560  178.6410  143.3110 C   0  0  0  0  0  0  0  0  0  0  0  0
  182.1830  178.3730  141.9850 C   0  0  0  0  0  0  0  0  0  0  0  0
  180.7120  179.1440  143.7140 C   0  0  0  0  0  3  0  0  0  0  0  0
  180.1070  179.4670  141.3860 C   0  0  0  0  0  3  0  0  0  0  0  0
  183.5850  178.6320  141.6210 C   0  0  1  0  0  3  0  0  0  0  0  0
  182.0320  179.2830  139.8670 N   0  0  0  0  0  0  0  0  0  0  0  0
  183.1930  179.3270  143.8490 C   0  0  2  0  0  3  0  0  0  0  0  0
  183.3870  179.2960  140.3060 C   0  0  0  0  0  0  0  0  0  0  0  0
  181.2980  178.8280  141.0040 C   0  0  0  0  0  0  0  0  0  0  0  0
  183.9960  179.6250  142.6280 N   0  0  0  0  0  0  0  0  0  0  0  0
  179.7760  179.5570  142.7410 C   0  0  0  0  0  3  0  0  0  0  0  0
  184.3380  179.7950  139.6290 O   0  0  0  0  0  0  0  0  0  0  0  0
  185.4510  179.7160  142.7950 C   0  0  0  0  0  1  0  0  0  0  0  0
  183.8700  178.3870  144.8870 C   0  0  0  0  0  2  0  0  0  0  0  0
  183.7940  178.9630  146.1670 O   0  0  0  0  0  1  0  0  0  0  0  0
  189.5970  175.9890  136.8600 C   0  0  0  0  0  2  0  0  0  0  0  0
  188.3370  177.6370  138.4020 C   0  0  1  0  0  3  0  0  0  0  0  0
  186.7690  178.3180  140.2400 C   0  0  0  0  0  1  0  0  0  0  0  0
  189.2620  176.4000  138.3040 C   0  0  2  0  0  3  0  0  0  0  0  0
  190.5210  176.6280  139.1120 C   0  0  0  0  0  3  0  0  0  0  0  0
  188.2320  178.2370  139.8310 C   0  0  1  0  0  3  0  0  0  0  0  0
  189.0740  177.4690  140.8860 C   0  0  0  0  0  2  0  0  0  0  0  0
  190.4420  177.1370  140.3290 C   0  0  0  0  0  0  0  0  0  0  0  0
  188.3600  178.5430  135.9670 C   0  0  0  0  0  1  0  0  0  0  0  0
  188.6740  178.7240  137.4230 C   0  0  0  0  0  0  0  0  0  0  0  0
  189.1760  179.7660  137.7920 O   0  0  0  0  0  0  0  0  0  0  0  0
  191.5970  177.2940  141.1660 N   0  0  0  0  0  2  0  0  0  0  0  0
  190.4250  178.0940  144.7000 N   0  0  0  0  0  0  0  0  0  0  0  0
  191.6030  175.9580  143.3260 C   0  0  1  0  0  3  0  0  0  0  0  0
  190.5450  175.1960  142.8600 F   0  0  0  0  0  0  0  0  0  0  0  0
  191.6520  177.3570  142.6510 C   0  0  2  0  0  3  0  0  0  0  0  0
  191.5990  177.3300  145.2420 C   0  0  0  0  0  2  0  0  0  0  0  0
  190.4940  178.1600  143.2150 C   0  0  0  0  0  2  0  0  0  0  0  0
  191.6150  175.9910  144.7570 O   0  0  0  0  0  0  0  0  0  0  0  0
  189.1620  177.4810  145.1220 C   0  0  0  0  0  0  0  0  0  0  0  0
  188.2520  178.4640  145.5440 F   0  0  0  0  0  0  0  0  0  0  0  0
  188.5860  176.8370  144.0420 F   0  0  0  0  0  0  0  0  0  0  0  0
  189.3320  176.5470  146.1080 F   0  0  0  0  0  0  0  0  0  0  0  0
  190.1410  174.0070  135.4960 N   0  0  0  0  0  2  0  0  0  0  0  0
  191.7420  173.5480  136.0970 P   0  0  2  0  0  0  0  0  0  0  0  0
  191.9880  171.9040  135.7690 O   0  0  0  0  0  0  0  0  0  0  0  0
  191.7970  173.7710  137.6060 O   0  0  0  0  0  1  0  0  0  0  0  0
  192.6440  175.8400  135.4010 O   0  0  0  0  0  1  0  0  0  0  0  0
  192.9990  174.5210  135.3050 N   0  0  0  0  0  0  0  0  0  0  0  0
  196.5670  175.1090  136.0340 C   0  0  0  0  0  2  0  0  0  0  0  0
  194.2600  174.3590  136.0360 C   0  0  2  0  0  3  0  0  0  0  0  0
  196.4570  173.6200  135.7570 C   0  0  0  0  0  2  0  0  0  0  0  0
  195.1190  175.6220  136.1110 C   0  0  0  0  0  2  0  0  0  0  0  0
  195.0770  173.3170  135.3970 N   0  0  0  0  0  2  0  0  0  0  0  0
  1 32  1  6  0  0  0
  3 11  1  6  0  0  0
  4  8  1  0  0  0  0
  5  1  1  1  0  0  0
  5  8  1  0  0  0  0
  5  7  1  0  0  0  0
  6  3  1  0  0  0  0
  6  7  1  0  0  0  0
  8  2  2  0  0  0  0
  9  3  1  0  0  0  0
  9  4  1  0  0  0  0
 11 10  1  1  0  0  0
 11 12  1  0  0  0  0
 12 13  1  0  0  0  0
 13 14  1  0  0  0  0
 14 15  1  0  0  0  0
 15 16  1  1  0  0  0
 15 22  1  0  0  0  0
 17 19  1  0  0  0  0
 17 23  1  0  0  0  0
 18 17  2  0  0  0  0
 20 27  1  0  0  0  0
 21 24  1  6  0  0  0
 21 18  1  0  0  0  0
 21 26  1  0  0  0  0
 22 24  1  0  0  0  0
 22 25  1  0  0  0  0
 23 30  1  1  0  0  0
 25 20  2  0  0  0  0
 25 18  1  0  0  0  0
 26 29  1  0  0  0  0
 26 23  1  0  0  0  0
 27 19  2  0  0  0  0
 28 24  2  0  0  0  0
 30 31  1  0  0  0  0
 33 41  1  6  0  0  0
 33 37  1  0  0  0  0
 35 32  1  6  0  0  0
 35 33  1  0  0  0  0
 35 36  1  0  0  0  0
 36 39  2  0  0  0  0
 37 34  1  1  0  0  0
 37 38  1  0  0  0  0
 39 38  1  0  0  0  0
 39 43  1  0  0  0  0
 40 41  1  0  0  0  0
 41 42  2  0  0  0  0
 44 51  1  0  0  0  0
 44 48  1  0  0  0  0
 45 46  1  1  0  0  0
 45 50  1  0  0  0  0
 47 43  1  6  0  0  0
 47 49  1  0  0  0  0
 47 45  1  0  0  0  0
 49 44  1  0  0  0  0
 50 48  1  0  0  0  0
 51 52  1  0  0  0  0
 51 54  1  0  0  0  0
 53 51  1  0  0  0  0
 55 56  1  0  0  0  0
 55  1  1  0  0  0  0
 56 57  2  6  0  0  0
 56 58  1  0  0  0  0
 60 59  1  0  0  0  0
 60 56  1  0  0  0  0
 61 64  1  0  0  0  0
 62 60  1  6  0  0  0
 62 64  1  0  0  0  0
 63 61  1  0  0  0  0
 65 63  1  0  0  0  0
 65 62  1  0  0  0  0
M  END
>  <MODEL>
2

>  <REMARK>
 VINA RESULT:      -8.0      3.785      9.934
  Name = 
  18 active torsions:
  status: ('A' for Active; 'I' for Inactive)
    1  A    between atoms: C_3  and  N_50
    2  A    between atoms: P_6  and  N_40
    3  A    between atoms: P_6  and  N_50
    4  A    between atoms: C_7  and  N_24
    5  A    between atoms: C_7  and  C_29
    6  A    between atoms: N_9  and  C_31
    7  A    between atoms: C_11  and  C_65
    8  A    between atoms: N_14  and  C_17
    9  A    between atoms: N_14  and  C_62
   10  A    between atoms: C_21  and  C_61
   11  A    between atoms: C_27  and  C_35
   12  A    between atoms: C_29  and  O_41
   13  A    between atoms: C_33  and  C_43
   14  A    between atoms: C_34  and  C_54
   15  A    between atoms: C_35  and  C_54
   16  A    between atoms: N_40  and  C_54
   17  A    between atoms: O_41  and  C_46
   18  A    between atoms: C_46  and  C_65
                            x       y       z     vdW  Elec       q    Type
                         _______ _______ _______ _____ _____    ______ ____

>  <TORSDO>
F 18

$$$$
=
 OpenBabel11062417393D

 65 71  0  0  1  0  0  0  0  0999 V2000
  189.2280  174.7610  136.6080 C   0  0  2  0  0  3  0  0  0  0  0  0
  188.3630  171.9610  136.2200 O   0  0  0  0  0  0  0  0  0  0  0  0
  184.5800  174.3230  136.6100 C   0  0  2  0  0  3  0  0  0  0  0  0
  186.0820  172.4100  136.0570 N   0  0  0  0  0  2  0  0  0  0  0  0
  187.7850  174.3190  136.3470 C   0  0  2  0  0  3  0  0  0  0  0  0
  185.5880  175.4690  136.5480 C   0  0  0  0  0  2  0  0  0  0  0  0
  186.8590  175.0890  137.2800 C   0  0  0  0  0  2  0  0  0  0  0  0
  187.4430  172.8410  136.2380 C   0  0  0  0  0  0  0  0  0  0  0  0
  184.9730  173.2390  135.6000 C   0  0  0  0  0  2  0  0  0  0  0  0
  183.2080  176.2060  135.5160 C   0  0  0  0  0  1  0  0  0  0  0  0
  183.1720  174.8540  136.2050 C   0  0  2  0  0  3  0  0  0  0  0  0
  182.1490  174.8670  137.3590 C   0  0  0  0  0  2  0  0  0  0  0  0
  182.8140  175.0100  138.6100 O   0  0  0  0  0  0  0  0  0  0  0  0
  182.2000  176.1460  139.1850 C   0  0  0  0  0  2  0  0  0  0  0  0
  180.6680  176.0540  139.1150 C   0  0  1  0  0  3  0  0  0  0  0  0
  180.0110  175.1750  140.1760 C   0  0  0  0  0  1  0  0  0  0  0  0
  180.2200  180.8210  139.6150 C   0  0  0  0  0  0  0  0  0  0  0  0
  180.6710  179.5880  139.2170 C   0  0  0  0  0  0  0  0  0  0  0  0
  179.6040  180.9620  140.8660 C   0  0  0  0  0  3  0  0  0  0  0  0
  179.5580  178.5480  141.1000 C   0  0  0  0  0  3  0  0  0  0  0  0
  180.5350  179.4150  137.7620 C   0  0  1  0  0  3  0  0  0  0  0  0
  180.0400  177.3770  138.9920 N   0  0  0  0  0  0  0  0  0  0  0  0
  179.5340  181.4540  138.4240 C   0  0  2  0  0  3  0  0  0  0  0  0
  180.0400  178.0140  137.7180 C   0  0  0  0  0  0  0  0  0  0  0  0
  180.3030  178.4340  139.9140 C   0  0  0  0  0  0  0  0  0  0  0  0
  179.4410  180.3450  137.4320 N   0  0  0  0  0  0  0  0  0  0  0  0
  179.2740  179.8150  141.6170 C   0  0  0  0  0  3  0  0  0  0  0  0
  179.6850  177.4360  136.6450 O   0  0  0  0  0  0  0  0  0  0  0  0
  179.4050  180.7210  136.0150 C   0  0  0  0  0  1  0  0  0  0  0  0
  180.3640  182.6910  137.9750 C   0  0  0  0  0  2  0  0  0  0  0  0
  179.5520  183.5580  137.2230 O   0  0  0  0  0  1  0  0  0  0  0  0
  189.3100  176.2630  136.8660 C   0  0  0  0  0  2  0  0  0  0  0  0
  187.9950  177.7960  138.4780 C   0  0  1  0  0  3  0  0  0  0  0  0
  186.4380  178.3390  140.3690 C   0  0  0  0  0  1  0  0  0  0  0  0
  188.9890  176.6190  138.3270 C   0  0  2  0  0  3  0  0  0  0  0  0
  190.2520  176.9030  139.1090 C   0  0  0  0  0  3  0  0  0  0  0  0
  187.8920  178.3560  139.9240 C   0  0  1  0  0  3  0  0  0  0  0  0
  188.8050  177.6150  140.9390 C   0  0  0  0  0  2  0  0  0  0  0  0
  190.1750  177.3780  140.3400 C   0  0  0  0  0  0  0  0  0  0  0  0
  187.4750  178.9920  136.2300 C   0  0  0  0  0  1  0  0  0  0  0  0
  188.2420  178.9240  137.5180 C   0  0  0  0  0  0  0  0  0  0  0  0
  189.0380  179.8040  137.7760 O   0  0  0  0  0  0  0  0  0  0  0  0
  191.3390  177.5840  141.1520 N   0  0  0  0  0  2  0  0  0  0  0  0
  190.2310  178.1340  144.7540 N   0  0  0  0  0  0  0  0  0  0  0  0
  191.4920  176.1450  143.2400 C   0  0  1  0  0  3  0  0  0  0  0  0
  190.4670  175.3440  142.7640 F   0  0  0  0  0  0  0  0  0  0  0  0
  191.4370  177.5760  142.6360 C   0  0  2  0  0  3  0  0  0  0  0  0
  191.4640  177.4180  145.2230 C   0  0  0  0  0  2  0  0  0  0  0  0
  190.2500  178.2780  143.2730 C   0  0  0  0  0  2  0  0  0  0  0  0
  191.5450  176.1080  144.6690 O   0  0  0  0  0  0  0  0  0  0  0  0
  189.0200  177.4240  145.1780 C   0  0  0  0  0  0  0  0  0  0  0  0
  188.0040  178.3360  145.5100 F   0  0  0  0  0  0  0  0  0  0  0  0
  188.5480  176.6620  144.1260 F   0  0  0  0  0  0  0  0  0  0  0  0
  189.2470  176.5750  146.2270 F   0  0  0  0  0  0  0  0  0  0  0  0
  190.2150  174.3480  135.6010 N   0  0  0  0  0  2  0  0  0  0  0  0
  191.7960  174.1160  136.3650 P   0  0  2  0  0  0  0  0  0  0  0  0
  192.4240  172.6260  135.8560 O   0  0  0  0  0  0  0  0  0  0  0  0
  191.6240  174.0940  137.8820 O   0  0  0  0  0  1  0  0  0  0  0  0
  193.0290  176.2710  136.9810 O   0  0  0  0  0  1  0  0  0  0  0  0
  192.8990  175.4300  135.9080 N   0  0  0  0  0  0  0  0  0  0  0  0
  196.5290  174.9870  136.3860 C   0  0  0  0  0  2  0  0  0  0  0  0
  194.2260  174.8680  135.6370 C   0  0  2  0  0  3  0  0  0  0  0  0
  196.3730  175.4860  134.9600 C   0  0  0  0  0  2  0  0  0  0  0  0
  195.1030  174.6820  136.8750 C   0  0  0  0  0  2  0  0  0  0  0  0
  194.9590  175.7450  134.7130 N   0  0  0  0  0  2  0  0  0  0  0  0
  1 32  1  6  0  0  0
  2  8  2  0  0  0  0
  3 11  1  6  0  0  0
  4  8  1  0  0  0  0
  5  1  1  1  0  0  0
  5  7  1  0  0  0  0
  6  3  1  0  0  0  0
  6  7  1  0  0  0  0
  8  5  1  0  0  0  0
  9  4  1  0  0  0  0
  9  3  1  0  0  0  0
 11 10  1  1  0  0  0
 11 12  1  0  0  0  0
 12 13  1  0  0  0  0
 13 14  1  0  0  0  0
 15 14  1  0  0  0  0
 15 16  1  1  0  0  0
 17 19  1  0  0  0  0
 18 17  2  0  0  0  0
 18 25  1  0  0  0  0
 19 27  2  0  0  0  0
 20 27  1  0  0  0  0
 21 24  1  1  0  0  0
 21 18  1  0  0  0  0
 22 15  1  0  0  0  0
 22 25  1  0  0  0  0
 23 30  1  6  0  0  0
 23 17  1  0  0  0  0
 24 22  1  0  0  0  0
 25 20  2  0  0  0  0
 26 21  1  0  0  0  0
 26 23  1  0  0  0  0
 28 24  2  0  0  0  0
 29 26  1  0  0  0  0
 31 30  1  0  0  0  0
 33 41  1  6  0  0  0
 33 37  1  0  0  0  0
 35 32  1  6  0  0  0
 35 33  1  0  0  0  0
 35 36  1  0  0  0  0
 36 39  2  0  0  0  0
 37 34  1  1  0  0  0
 37 38  1  0  0  0  0
 39 38  1  0  0  0  0
 39 43  1  0  0  0  0
 40 41  1  0  0  0  0
 41 42  2  0  0  0  0
 44 51  1  0  0  0  0
 44 48  1  0  0  0  0
 45 46  1  1  0  0  0
 45 50  1  0  0  0  0
 47 43  1  6  0  0  0
 47 45  1  0  0  0  0
 47 49  1  0  0  0  0
 49 44  1  0  0  0  0
 50 48  1  0  0  0  0
 51 52  1  0  0  0  0
 51 54  1  0  0  0  0
 53 51  1  0  0  0  0
 55 56  1  0  0  0  0
 55  1  1  0  0  0  0
 56 57  2  6  0  0  0
 56 58  1  0  0  0  0
 60 56  1  0  0  0  0
 60 59  1  0  0  0  0
 61 64  1  0  0  0  0
 62 60  1  1  0  0  0
 62 64  1  0  0  0  0
 63 61  1  0  0  0  0
 65 63  1  0  0  0  0
 65 62  1  0  0  0  0
M  END
>  <MODEL>
3

>  <REMARK>
 VINA RESULT:      -8.0      3.765     10.706
  Name = 
  18 active torsions:
  status: ('A' for Active; 'I' for Inactive)
    1  A    between atoms: C_3  and  N_50
    2  A    between atoms: P_6  and  N_40
    3  A    between atoms: P_6  and  N_50
    4  A    between atoms: C_7  and  N_24
    5  A    between atoms: C_7  and  C_29
    6  A    between atoms: N_9  and  C_31
    7  A    between atoms: C_11  and  C_65
    8  A    between atoms: N_14  and  C_17
    9  A    between atoms: N_14  and  C_62
   10  A    between atoms: C_21  and  C_61
   11  A    between atoms: C_27  and  C_35
   12  A    between atoms: C_29  and  O_41
   13  A    between atoms: C_33  and  C_43
   14  A    between atoms: C_34  and  C_54
   15  A    between atoms: C_35  and  C_54
   16  A    between atoms: N_40  and  C_54
   17  A    between atoms: O_41  and  C_46
   18  A    between atoms: C_46  and  C_65
                            x       y       z     vdW  Elec       q    Type
                         _______ _______ _______ _____ _____    ______ ____

>  <TORSDO>
F 18

$$$$
=
 OpenBabel11062417393D

 65 71  0  0  1  0  0  0  0  0999 V2000
  190.1540  174.8030  138.0010 C   0  0  2  0  0  3  0  0  0  0  0  0
  190.3150  172.7580  135.8730 O   0  0  0  0  0  0  0  0  0  0  0  0
  186.1110  174.2870  135.7250 C   0  0  2  0  0  3  0  0  0  0  0  0
  188.1940  173.1340  134.9830 N   0  0  0  0  0  2  0  0  0  0  0  0
  189.0740  174.5530  136.9440 C   0  0  2  0  0  3  0  0  0  0  0  0
  186.7040  175.2790  136.7230 C   0  0  0  0  0  2  0  0  0  0  0  0
  187.7080  174.5820  137.6190 C   0  0  0  0  0  2  0  0  0  0  0  0
  189.2300  173.4200  135.9410 C   0  0  0  0  0  0  0  0  0  0  0  0
  187.1140  174.0320  134.5940 C   0  0  0  0  0  2  0  0  0  0  0  0
  184.8220  176.4220  135.0900 C   0  0  0  0  0  1  0  0  0  0  0  0
  184.8300  174.9040  135.0860 C   0  0  2  0  0  3  0  0  0  0  0  0
  183.5100  174.3590  135.6680 C   0  0  0  0  0  2  0  0  0  0  0  0
  183.7580  173.6490  136.8780 O   0  0  0  0  0  0  0  0  0  0  0  0
  182.8150  174.1910  137.7800 C   0  0  0  0  0  2  0  0  0  0  0  0
  181.4740  174.4770  137.0870 C   0  0  1  0  0  3  0  0  0  0  0  0
  180.4440  173.3520  137.1520 C   0  0  0  0  0  1  0  0  0  0  0  0
  181.1850  178.6480  139.4740 C   0  0  0  0  0  0  0  0  0  0  0  0
  181.6230  177.6500  138.6420 C   0  0  0  0  0  0  0  0  0  0  0  0
  180.4380  178.3220  140.6150 C   0  0  0  0  0  3  0  0  0  0  0  0
  180.2580  176.0350  139.8240 C   0  0  0  0  0  3  0  0  0  0  0  0
  181.6450  178.0960  137.2400 C   0  0  1  0  0  3  0  0  0  0  0  0
  180.9230  175.7860  137.4700 N   0  0  0  0  0  0  0  0  0  0  0  0
  180.6680  179.7690  138.5980 C   0  0  2  0  0  3  0  0  0  0  0  0
  181.0960  176.8830  136.5790 C   0  0  0  0  0  0  0  0  0  0  0  0
  181.1270  176.3490  138.7660 C   0  0  0  0  0  0  0  0  0  0  0  0
  180.6380  179.1710  137.2330 N   0  0  0  0  0  0  0  0  0  0  0  0
  179.9740  177.0020  140.7940 C   0  0  0  0  0  3  0  0  0  0  0  0
  180.8390  176.8240  135.3370 O   0  0  0  0  0  0  0  0  0  0  0  0
  180.7800  180.0920  136.1000 C   0  0  0  0  0  1  0  0  0  0  0  0
  181.5970  181.0030  138.7730 C   0  0  0  0  0  2  0  0  0  0  0  0
  182.9410  180.5970  138.7020 O   0  0  0  0  0  1  0  0  0  0  0  0
  190.3010  176.2920  138.3020 C   0  0  0  0  0  2  0  0  0  0  0  0
  188.1780  177.7350  138.6070 C   0  0  1  0  0  3  0  0  0  0  0  0
  185.8080  178.2160  139.2760 C   0  0  0  0  0  1  0  0  0  0  0  0
  189.2180  176.7980  139.2700 C   0  0  2  0  0  3  0  0  0  0  0  0
  189.8350  177.4760  140.4720 C   0  0  0  0  0  3  0  0  0  0  0  0
  187.2660  178.4830  139.6190 C   0  0  1  0  0  3  0  0  0  0  0  0
  187.5720  178.1350  141.1010 C   0  0  0  0  0  2  0  0  0  0  0  0
  189.0680  178.1130  141.3390 C   0  0  0  0  0  0  0  0  0  0  0  0
  188.9430  178.3490  136.2020 C   0  0  0  0  0  1  0  0  0  0  0  0
  188.7770  178.7200  137.6460 C   0  0  0  0  0  0  0  0  0  0  0  0
  189.1090  179.8290  138.0110 O   0  0  0  0  0  0  0  0  0  0  0  0
  189.5950  178.7000  142.5370 N   0  0  0  0  0  2  0  0  0  0  0  0
  190.6670  177.7570  146.0680 N   0  0  0  0  0  0  0  0  0  0  0  0
  190.2880  176.4970  143.5970 C   0  0  1  0  0  3  0  0  0  0  0  0
  188.9670  176.0820  143.5990 F   0  0  0  0  0  0  0  0  0  0  0  0
  190.4070  178.0470  143.5990 C   0  0  2  0  0  3  0  0  0  0  0  0
  191.6620  176.7930  145.4880 C   0  0  0  0  0  2  0  0  0  0  0  0
  189.9950  178.5190  144.9820 C   0  0  0  0  0  2  0  0  0  0  0  0
  191.0280  175.8460  144.6340 O   0  0  0  0  0  0  0  0  0  0  0  0
  189.6720  177.0550  146.8850 C   0  0  0  0  0  0  0  0  0  0  0  0
  188.5140  176.7910  146.1350 F   0  0  0  0  0  0  0  0  0  0  0  0
  190.1860  175.8330  147.2770 F   0  0  0  0  0  0  0  0  0  0  0  0
  189.3450  177.7430  148.0230 F   0  0  0  0  0  0  0  0  0  0  0  0
  191.4620  174.1900  137.7360 N   0  0  0  0  0  2  0  0  0  0  0  0
  192.5460  175.3790  136.9960 P   0  0  2  0  0  0  0  0  0  0  0  0
  192.6450  176.7250  138.0200 O   0  0  0  0  0  1  0  0  0  0  0  0
  191.9730  175.8150  135.6500 O   0  0  0  0  0  0  0  0  0  0  0  0
  195.0610  175.4230  137.4680 O   0  0  0  0  0  1  0  0  0  0  0  0
  194.1590  174.6760  136.7570 N   0  0  0  0  0  0  0  0  0  0  0  0
  195.6840  171.4740  137.7710 C   0  0  0  0  0  2  0  0  0  0  0  0
  194.1790  173.3220  137.3200 C   0  0  2  0  0  3  0  0  0  0  0  0
  194.6270  171.1050  136.7440 C   0  0  0  0  0  2  0  0  0  0  0  0
  195.4620  172.9660  138.0730 C   0  0  0  0  0  2  0  0  0  0  0  0
  194.0170  172.3330  136.2460 N   0  0  0  0  0  2  0  0  0  0  0  0
  1 32  1  6  0  0  0
  2  8  2  0  0  0  0
  3 11  1  6  0  0  0
  3  6  1  0  0  0  0
  4  8  1  0  0  0  0
  5  7  1  0  0  0  0
  5  1  1  1  0  0  0
  6  7  1  0  0  0  0
  8  5  1  0  0  0  0
  9  4  1  0  0  0  0
  9  3  1  0  0  0  0
 11 10  1  1  0  0  0
 11 12  1  0  0  0  0
 12 13  1  0  0  0  0
 13 14  1  0  0  0  0
 15 16  1  1  0  0  0
 15 22  1  0  0  0  0
 15 14  1  0  0  0  0
 17 19  1  0  0  0  0
 18 25  1  0  0  0  0
 18 17  2  0  0  0  0
 19 27  2  0  0  0  0
 20 27  1  0  0  0  0
 21 24  1  6  0  0  0
 21 18  1  0  0  0  0
 22 25  1  0  0  0  0
 23 30  1  6  0  0  0
 23 17  1  0  0  0  0
 24 22  1  0  0  0  0
 25 20  2  0  0  0  0
 26 21  1  0  0  0  0
 26 23  1  0  0  0  0
 28 24  2  0  0  0  0
 29 26  1  0  0  0  0
 31 30  1  0  0  0  0
 33 41  1  1  0  0  0
 33 35  1  0  0  0  0
 33 37  1  0  0  0  0
 35 32  1  6  0  0  0
 35 36  1  0  0  0  0
 36 39  2  0  0  0  0
 37 34  1  6  0  0  0
 37 38  1  0  0  0  0
 38 39  1  0  0  0  0
 39 43  1  0  0  0  0
 40 41  1  0  0  0  0
 41 42  2  0  0  0  0
 44 51  1  0  0  0  0
 45 47  1  0  0  0  0
 45 46  1  1  0  0  0
 45 50  1  0  0  0  0
 47 43  1  6  0  0  0
 47 49  1  0  0  0  0
 48 44  1  0  0  0  0
 49 44  1  0  0  0  0
 50 48  1  0  0  0  0
 51 53  1  0  0  0  0
 51 54  1  0  0  0  0
 52 51  1  0  0  0  0
 55  1  1  0  0  0  0
 56 58  2  6  0  0  0
 56 55  1  0  0  0  0
 56 57  1  0  0  0  0
 60 56  1  0  0  0  0
 60 59  1  0  0  0  0
 61 64  1  0  0  0  0
 62 60  1  6  0  0  0
 62 64  1  0  0  0  0
 63 61  1  0  0  0  0
 65 63  1  0  0  0  0
 65 62  1  0  0  0  0
M  END
>  <MODEL>
4

>  <REMARK>
 VINA RESULT:      -6.7      4.045     11.099
  Name = 
  18 active torsions:
  status: ('A' for Active; 'I' for Inactive)
    1  A    between atoms: C_3  and  N_50
    2  A    between atoms: P_6  and  N_40
    3  A    between atoms: P_6  and  N_50
    4  A    between atoms: C_7  and  N_24
    5  A    between atoms: C_7  and  C_29
    6  A    between atoms: N_9  and  C_31
    7  A    between atoms: C_11  and  C_65
    8  A    between atoms: N_14  and  C_17
    9  A    between atoms: N_14  and  C_62
   10  A    between atoms: C_21  and  C_61
   11  A    between atoms: C_27  and  C_35
   12  A    between atoms: C_29  and  O_41
   13  A    between atoms: C_33  and  C_43
   14  A    between atoms: C_34  and  C_54
   15  A    between atoms: C_35  and  C_54
   16  A    between atoms: N_40  and  C_54
   17  A    between atoms: O_41  and  C_46
   18  A    between atoms: C_46  and  C_65
                            x       y       z     vdW  Elec       q    Type
                         _______ _______ _______ _____ _____    ______ ____

>  <TORSDO>
F 18

$$$$
=
 OpenBabel11062417393D

 65 71  0  0  1  0  0  0  0  0999 V2000
  187.1770  178.4180  145.0410 C   0  0  2  0  0  3  0  0  0  0  0  0
  184.6140  178.8360  146.4530 O   0  0  0  0  0  0  0  0  0  0  0  0
  183.6010  178.9990  142.0960 C   0  0  2  0  0  3  0  0  0  0  0  0
  183.2580  178.7970  144.5580 N   0  0  0  0  0  2  0  0  0  0  0  0
  185.8000  178.4240  144.3710 C   0  0  2  0  0  3  0  0  0  0  0  0
  185.0580  178.5490  142.0000 C   0  0  0  0  0  2  0  0  0  0  0  0
  185.8850  179.2220  143.0760 C   0  0  0  0  0  2  0  0  0  0  0  0
  184.5510  178.7250  145.1870 C   0  0  0  0  0  0  0  0  0  0  0  0
  182.9110  178.2600  143.2480 C   0  0  0  0  0  2  0  0  0  0  0  0
  183.5620  179.0990  139.5250 C   0  0  0  0  0  1  0  0  0  0  0  0
  182.8570  178.6180  140.7800 C   0  0  2  0  0  3  0  0  0  0  0  0
  181.3720  179.0320  140.7550 C   0  0  0  0  0  2  0  0  0  0  0  0
  180.5390  177.9040  141.0010 O   0  0  0  0  0  0  0  0  0  0  0  0
  181.0120  176.9360  140.0840 C   0  0  0  0  0  2  0  0  0  0  0  0
  179.9320  176.5540  139.0620 C   0  0  1  0  0  3  0  0  0  0  0  0
  178.9440  177.6600  138.7000 C   0  0  0  0  0  1  0  0  0  0  0  0
  183.3040  175.2780  135.8710 C   0  0  0  0  0  0  0  0  0  0  0  0
  182.5990  175.4110  137.0400 C   0  0  0  0  0  0  0  0  0  0  0  0
  183.2380  176.2890  134.9030 C   0  0  0  0  0  3  0  0  0  0  0  0
  181.4420  177.3440  136.1480 C   0  0  0  0  0  3  0  0  0  0  0  0
  182.1240  174.1070  137.5280 C   0  0  1  0  0  3  0  0  0  0  0  0
  180.5000  175.8800  137.8850 N   0  0  0  0  0  0  0  0  0  0  0  0
  183.1290  173.8500  135.4010 C   0  0  2  0  0  3  0  0  0  0  0  0
  180.7510  174.4800  137.9580 C   0  0  0  0  0  0  0  0  0  0  0  0
  181.6230  176.4030  137.1750 C   0  0  0  0  0  0  0  0  0  0  0  0
  182.0640  173.3080  136.2910 N   0  0  0  0  0  0  0  0  0  0  0  0
  182.3020  177.3350  135.0450 C   0  0  0  0  0  3  0  0  0  0  0  0
  179.9010  173.6370  138.3790 O   0  0  0  0  0  0  0  0  0  0  0  0
  182.0710  171.8620  136.5330 C   0  0  0  0  0  1  0  0  0  0  0  0
  184.5060  173.1300  135.4830 C   0  0  0  0  0  2  0  0  0  0  0  0
  185.5080  173.9660  134.9600 O   0  0  0  0  0  1  0  0  0  0  0  0
  188.2540  178.9480  144.0990 C   0  0  0  0  0  2  0  0  0  0  0  0
  190.2420  177.3170  143.8310 C   0  0  1  0  0  3  0  0  0  0  0  0
  191.3580  175.0890  143.5350 C   0  0  0  0  0  1  0  0  0  0  0  0
  188.8950  177.8280  143.2620 C   0  0  2  0  0  3  0  0  0  0  0  0
  189.0690  178.2550  141.8220 C   0  0  0  0  0  3  0  0  0  0  0  0
  191.0380  176.4100  142.8520 C   0  0  1  0  0  3  0  0  0  0  0  0
  190.3190  176.1870  141.4940 C   0  0  0  0  0  2  0  0  0  0  0  0
  189.7430  177.4900  140.9820 C   0  0  0  0  0  0  0  0  0  0  0  0
  190.9370  179.8200  143.8720 C   0  0  0  0  0  1  0  0  0  0  0  0
  191.1350  178.4090  144.3440 C   0  0  0  0  0  0  0  0  0  0  0  0
  192.0040  178.1780  145.1590 O   0  0  0  0  0  0  0  0  0  0  0  0
  189.8640  177.8090  139.5880 N   0  0  0  0  0  2  0  0  0  0  0  0
  186.9910  176.7240  137.3360 N   0  0  0  0  0  0  0  0  0  0  0  0
  189.5660  177.7880  137.0650 C   0  0  1  0  0  3  0  0  0  0  0  0
  189.3960  179.1620  137.0730 F   0  0  0  0  0  0  0  0  0  0  0  0
  189.1960  177.1510  138.4340 C   0  0  2  0  0  3  0  0  0  0  0  0
  187.9890  176.1890  136.3520 C   0  0  0  0  0  2  0  0  0  0  0  0
  187.6840  177.2180  138.5570 C   0  0  0  0  0  2  0  0  0  0  0  0
  188.9050  177.1990  135.9410 O   0  0  0  0  0  0  0  0  0  0  0  0
  186.1900  177.7980  136.7400 C   0  0  0  0  0  0  0  0  0  0  0  0
  184.8690  177.7510  137.2140 F   0  0  0  0  0  0  0  0  0  0  0  0
  186.7120  179.0200  137.1210 F   0  0  0  0  0  0  0  0  0  0  0  0
  186.1970  177.7620  135.3710 F   0  0  0  0  0  0  0  0  0  0  0  0
  187.5890  177.1430  145.6440 N   0  0  0  0  0  2  0  0  0  0  0  0
  188.0170  177.3910  147.3450 P   0  0  2  0  0  0  0  0  0  0  0  0
  187.7810  175.9320  148.1750 O   0  0  0  0  0  1  0  0  0  0  0  0
  187.1070  178.4600  147.9430 O   0  0  0  0  0  0  0  0  0  0  0  0
  189.7910  178.8520  148.4680 O   0  0  0  0  0  1  0  0  0  0  0  0
  189.7110  177.9030  147.4850 N   0  0  0  0  0  0  0  0  0  0  0  0
  192.8270  176.0370  148.1260 C   0  0  0  0  0  2  0  0  0  0  0  0
  190.5220  176.7610  147.9190 C   0  0  2  0  0  3  0  0  0  0  0  0
  192.0600  175.1970  147.1200 C   0  0  0  0  0  2  0  0  0  0  0  0
  191.8510  177.1380  148.5750 C   0  0  0  0  0  2  0  0  0  0  0  0
  190.8340  175.9040  146.7670 N   0  0  0  0  0  2  0  0  0  0  0  0
  1 32  1  6  0  0  0
  1 55  1  0  0  0  0
  3 11  1  6  0  0  0
  3  9  1  0  0  0  0
  4  8  1  0  0  0  0
  5  1  1  1  0  0  0
  5  8  1  0  0  0  0
  6  3  1  0  0  0  0
  6  7  1  0  0  0  0
  7  5  1  0  0  0  0
  8  2  2  0  0  0  0
  9  4  1  0  0  0  0
 11 10  1  6  0  0  0
 12 11  1  0  0  0  0
 12 13  1  0  0  0  0
 14 13  1  0  0  0  0
 15 16  1  6  0  0  0
 15 14  1  0  0  0  0
 17 18  1  0  0  0  0
 18 25  2  0  0  0  0
 19 27  1  0  0  0  0
 19 17  2  0  0  0  0
 20 25  1  0  0  0  0
 21 18  1  6  0  0  0
 21 24  1  0  0  0  0
 22 24  1  0  0  0  0
 22 15  1  0  0  0  0
 23 30  1  1  0  0  0
 23 17  1  0  0  0  0
 23 26  1  0  0  0  0
 24 28  2  0  0  0  0
 25 22  1  0  0  0  0
 26 29  1  0  0  0  0
 26 21  1  0  0  0  0
 27 20  2  0  0  0  0
 31 30  1  0  0  0  0
 33 41  1  6  0  0  0
 35 33  1  0  0  0  0
 35 32  1  1  0  0  0
 36 35  1  0  0  0  0
 37 34  1  1  0  0  0
 37 33  1  0  0  0  0
 38 37  1  0  0  0  0
 39 38  1  0  0  0  0
 39 36  2  0  0  0  0
 40 41  1  0  0  0  0
 41 42  2  0  0  0  0
 43 39  1  0  0  0  0
 44 49  1  0  0  0  0
 45 46  1  1  0  0  0
 45 47  1  0  0  0  0
 47 49  1  0  0  0  0
 47 43  1  1  0  0  0
 48 44  1  0  0  0  0
 50 48  1  0  0  0  0
 50 45  1  0  0  0  0
 51 53  1  0  0  0  0
 51 52  1  0  0  0  0
 51 44  1  0  0  0  0
 54 51  1  0  0  0  0
 55 56  1  0  0  0  0
 56 60  1  0  0  0  0
 56 58  2  1  0  0  0
 56 57  1  0  0  0  0
 60 59  1  0  0  0  0
 61 64  1  0  0  0  0
 62 60  1  6  0  0  0
 62 64  1  0  0  0  0
 63 61  1  0  0  0  0
 65 63  1  0  0  0  0
 65 62  1  0  0  0  0
M  END
>  <MODEL>
5

>  <REMARK>
 VINA RESULT:      -6.6      3.164      9.916
  Name = 
  18 active torsions:
  status: ('A' for Active; 'I' for Inactive)
    1  A    between atoms: C_3  and  N_50
    2  A    between atoms: P_6  and  N_40
    3  A    between atoms: P_6  and  N_50
    4  A    between atoms: C_7  and  N_24
    5  A    between atoms: C_7  and  C_29
    6  A    between atoms: N_9  and  C_31
    7  A    between atoms: C_11  and  C_65
    8  A    between atoms: N_14  and  C_17
    9  A    between atoms: N_14  and  C_62
   10  A    between atoms: C_21  and  C_61
   11  A    between atoms: C_27  and  C_35
   12  A    between atoms: C_29  and  O_41
   13  A    between atoms: C_33  and  C_43
   14  A    between atoms: C_34  and  C_54
   15  A    between atoms: C_35  and  C_54
   16  A    between atoms: N_40  and  C_54
   17  A    between atoms: O_41  and  C_46
   18  A    between atoms: C_46  and  C_65
                            x       y       z     vdW  Elec       q    Type
                         _______ _______ _______ _____ _____    ______ ____

>  <TORSDO>
F 18

$$$$
=
 OpenBabel11062417393D

 65 71  0  0  1  0  0  0  0  0999 V2000
  189.1730  177.9580  139.5750 C   0  0  2  0  0  3  0  0  0  0  0  0
  186.9740  179.3120  141.0140 O   0  0  0  0  0  0  0  0  0  0  0  0
  185.0900  177.5780  137.3420 C   0  0  2  0  0  3  0  0  0  0  0  0
  185.2550  178.5810  139.6200 N   0  0  0  0  0  2  0  0  0  0  0  0
  187.6880  177.8350  139.2200 C   0  0  2  0  0  3  0  0  0  0  0  0
  186.4770  176.9490  137.2350 C   0  0  0  0  0  2  0  0  0  0  0  0
  187.5340  177.9270  137.7070 C   0  0  0  0  0  2  0  0  0  0  0  0
  186.6470  178.6390  139.9850 C   0  0  0  0  0  0  0  0  0  0  0  0
  184.6250  177.5520  138.8030 C   0  0  0  0  0  2  0  0  0  0  0  0
  184.6740  175.4660  135.9330 C   0  0  0  0  0  1  0  0  0  0  0  0
  184.0760  176.7350  136.5110 C   0  0  2  0  0  3  0  0  0  0  0  0
  183.3450  177.5330  135.4120 C   0  0  0  0  0  2  0  0  0  0  0  0
  182.2740  176.7660  134.8720 O   0  0  0  0  0  0  0  0  0  0  0  0
  181.2810  177.7330  134.5940 C   0  0  0  0  0  2  0  0  0  0  0  0
  179.9040  177.2900  135.1120 C   0  0  1  0  0  3  0  0  0  0  0  0
  179.4520  175.8980  134.6780 C   0  0  0  0  0  1  0  0  0  0  0  0
  180.9890  176.9700  139.7920 C   0  0  0  0  0  0  0  0  0  0  0  0
  181.0510  177.2810  138.4580 C   0  0  0  0  0  0  0  0  0  0  0  0
  180.3300  175.8030  140.2020 C   0  0  0  0  0  3  0  0  0  0  0  0
  179.4750  175.5130  137.9500 C   0  0  0  0  0  3  0  0  0  0  0  0
  181.0130  178.7360  138.2460 C   0  0  1  0  0  3  0  0  0  0  0  0
  179.7580  177.5190  136.5570 N   0  0  0  0  0  0  0  0  0  0  0  0
  180.6720  178.2490  140.5370 C   0  0  2  0  0  3  0  0  0  0  0  0
  180.0950  178.8010  137.0790 C   0  0  0  0  0  0  0  0  0  0  0  0
  180.2580  176.6010  137.5290 C   0  0  0  0  0  0  0  0  0  0  0  0
  180.3220  179.2150  139.4570 N   0  0  0  0  0  0  0  0  0  0  0  0
  179.5690  175.0650  139.2710 C   0  0  0  0  0  3  0  0  0  0  0  0
  179.6800  179.8920  136.5800 O   0  0  0  0  0  0  0  0  0  0  0  0
  180.5540  180.6360  139.7340 C   0  0  0  0  0  1  0  0  0  0  0  0
  181.9010  178.6310  141.4100 C   0  0  0  0  0  2  0  0  0  0  0  0
  181.4630  179.1560  142.6380 O   0  0  0  0  0  1  0  0  0  0  0  0
  189.9010  176.6310  139.3790 C   0  0  0  0  0  2  0  0  0  0  0  0
  190.5290  176.0110  136.9500 C   0  0  1  0  0  3  0  0  0  0  0  0
  191.2860  176.4370  134.5960 C   0  0  0  0  0  1  0  0  0  0  0  0
  190.9570  176.7080  138.2650 C   0  0  2  0  0  3  0  0  0  0  0  0
  192.2860  176.1600  138.7340 C   0  0  0  0  0  3  0  0  0  0  0  0
  191.6850  175.8210  135.9290 C   0  0  1  0  0  3  0  0  0  0  0  0
  193.0460  176.3800  136.4270 C   0  0  0  0  0  2  0  0  0  0  0  0
  193.2750  175.9960  137.8740 C   0  0  0  0  0  0  0  0  0  0  0  0
  188.3930  174.5460  136.7410 C   0  0  0  0  0  1  0  0  0  0  0  0
  189.8250  174.7010  137.1610 C   0  0  0  0  0  0  0  0  0  0  0  0
  190.4030  173.7500  137.6450 O   0  0  0  0  0  0  0  0  0  0  0  0
  194.5790  175.5600  138.2840 N   0  0  0  0  0  2  0  0  0  0  0  0
  194.8420  171.9280  137.1660 N   0  0  0  0  0  0  0  0  0  0  0  0
  196.4260  174.2370  137.1460 C   0  0  1  0  0  3  0  0  0  0  0  0
  196.1380  174.8660  135.9460 F   0  0  0  0  0  0  0  0  0  0  0  0
  195.1980  174.2200  138.1000 C   0  0  2  0  0  3  0  0  0  0  0  0
  196.2850  171.9250  137.5810 C   0  0  0  0  0  2  0  0  0  0  0  0
  194.2060  173.2250  137.5240 C   0  0  0  0  0  2  0  0  0  0  0  0
  197.0160  172.9530  136.9200 O   0  0  0  0  0  0  0  0  0  0  0  0
  194.7090  171.6780  135.7280 C   0  0  0  0  0  0  0  0  0  0  0  0
  194.4690  172.8780  135.0380 F   0  0  0  0  0  0  0  0  0  0  0  0
  195.8990  171.1670  135.2430 F   0  0  0  0  0  0  0  0  0  0  0  0
  193.7280  170.7690  135.4400 F   0  0  0  0  0  0  0  0  0  0  0  0
  189.4690  178.5280  140.8960 N   0  0  0  0  0  2  0  0  0  0  0  0
  189.6720  177.2290  142.0830 P   0  0  2  0  0  0  0  0  0  0  0  0
  190.5600  175.9790  141.3620 O   0  0  0  0  0  0  0  0  0  0  0  0
  188.3000  176.6980  142.4890 O   0  0  0  0  0  1  0  0  0  0  0  0
  190.2160  179.1580  143.6730 O   0  0  0  0  0  1  0  0  0  0  0  0
  190.5260  177.8340  143.5170 N   0  0  0  0  0  0  0  0  0  0  0  0
  189.2030  177.5360  146.9470 C   0  0  0  0  0  2  0  0  0  0  0  0
  190.0280  177.1300  144.7030 C   0  0  2  0  0  3  0  0  0  0  0  0
  190.5130  176.7680  146.9580 C   0  0  0  0  0  2  0  0  0  0  0  0
  188.9340  177.8730  145.4700 C   0  0  0  0  0  2  0  0  0  0  0  0
  191.1320  176.8920  145.6430 N   0  0  0  0  0  2  0  0  0  0  0  0
  1 32  1  1  0  0  0
  1 55  1  0  0  0  0
  3 11  1  6  0  0  0
  3  9  1  0  0  0  0
  4  8  1  0  0  0  0
  5  1  1  6  0  0  0
  5  8  1  0  0  0  0
  6  3  1  0  0  0  0
  6  7  1  0  0  0  0
  7  5  1  0  0  0  0
  8  2  2  0  0  0  0
  9  4  1  0  0  0  0
 11 10  1  6  0  0  0
 12 11  1  0  0  0  0
 13 12  1  0  0  0  0
 14 13  1  0  0  0  0
 14 15  1  0  0  0  0
 15 16  1  1  0  0  0
 15 22  1  0  0  0  0
 17 19  1  0  0  0  0
 17 23  1  0  0  0  0
 18 17  2  0  0  0  0
 20 27  1  0  0  0  0
 21 24  1  6  0  0  0
 21 18  1  0  0  0  0
 21 26  1  0  0  0  0
 22 24  1  0  0  0  0
 22 25  1  0  0  0  0
 23 30  1  6  0  0  0
 25 20  2  0  0  0  0
 25 18  1  0  0  0  0
 26 29  1  0  0  0  0
 26 23  1  0  0  0  0
 27 19  2  0  0  0  0
 28 24  2  0  0  0  0
 30 31  1  0  0  0  0
 33 41  1  1  0  0  0
 33 35  1  0  0  0  0
 35 36  1  0  0  0  0
 35 32  1  1  0  0  0
 37 34  1  6  0  0  0
 37 38  1  0  0  0  0
 37 33  1  0  0  0  0
 38 39  1  0  0  0  0
 39 43  1  0  0  0  0
 39 36  2  0  0  0  0
 40 41  1  0  0  0  0
 41 42  2  0  0  0  0
 44 49  1  0  0  0  0
 44 48  1  0  0  0  0
 45 46  1  6  0  0  0
 45 47  1  0  0  0  0
 47 43  1  6  0  0  0
 49 47  1  0  0  0  0
 50 45  1  0  0  0  0
 50 48  1  0  0  0  0
 51 44  1  0  0  0  0
 52 51  1  0  0  0  0
 53 51  1  0  0  0  0
 54 51  1  0  0  0  0
 55 56  1  0  0  0  0
 56 57  2  6  0  0  0
 56 58  1  0  0  0  0
 56 60  1  0  0  0  0
 60 59  1  0  0  0  0
 61 63  1  0  0  0  0
 62 60  1  6  0  0  0
 62 64  1  0  0  0  0
 62 65  1  0  0  0  0
 64 61  1  0  0  0  0
 65 63  1  0  0  0  0
M  END
>  <MODEL>
6

>  <REMARK>
 VINA RESULT:      -6.6      4.304     10.374
  Name = 
  18 active torsions:
  status: ('A' for Active; 'I' for Inactive)
    1  A    between atoms: C_3  and  N_50
    2  A    between atoms: P_6  and  N_40
    3  A    between atoms: P_6  and  N_50
    4  A    between atoms: C_7  and  N_24
    5  A    between atoms: C_7  and  C_29
    6  A    between atoms: N_9  and  C_31
    7  A    between atoms: C_11  and  C_65
    8  A    between atoms: N_14  and  C_17
    9  A    between atoms: N_14  and  C_62
   10  A    between atoms: C_21  and  C_61
   11  A    between atoms: C_27  and  C_35
   12  A    between atoms: C_29  and  O_41
   13  A    between atoms: C_33  and  C_43
   14  A    between atoms: C_34  and  C_54
   15  A    between atoms: C_35  and  C_54
   16  A    between atoms: N_40  and  C_54
   17  A    between atoms: O_41  and  C_46
   18  A    between atoms: C_46  and  C_65
                            x       y       z     vdW  Elec       q    Type
                         _______ _______ _______ _____ _____    ______ ____

>  <TORSDO>
F 18

$$$$
=
 OpenBabel11062417393D

 65 71  0  0  1  0  0  0  0  0999 V2000
  180.9940  178.1240  139.0160 C   0  0  2  0  0  3  0  0  0  0  0  0
  179.8530  178.6480  141.6920 O   0  0  0  0  0  0  0  0  0  0  0  0
  184.2640  178.2530  142.3460 C   0  0  2  0  0  3  0  0  0  0  0  0
  181.8870  178.8480  142.8130 N   0  0  0  0  0  2  0  0  0  0  0  0
  181.8140  178.4370  140.2720 C   0  0  2  0  0  3  0  0  0  0  0  0
  184.2340  178.2430  140.8200 C   0  0  0  0  0  2  0  0  0  0  0  0
  183.0110  177.4960  140.3250 C   0  0  0  0  0  2  0  0  0  0  0  0
  181.1230  178.6160  141.6150 C   0  0  0  0  0  0  0  0  0  0  0  0
  183.2720  179.2960  142.8730 C   0  0  0  0  0  2  0  0  0  0  0  0
  185.6730  179.7880  143.8560 C   0  0  0  0  0  1  0  0  0  0  0  0
  185.6860  178.6690  142.8310 C   0  0  2  0  0  3  0  0  0  0  0  0
  186.6690  178.9970  141.6890 C   0  0  0  0  0  2  0  0  0  0  0  0
  187.6060  177.9380  141.5220 O   0  0  0  0  0  0  0  0  0  0  0  0
  188.7090  178.3450  142.3080 C   0  0  0  0  0  2  0  0  0  0  0  0
  189.7840  177.2490  142.3790 C   0  0  1  0  0  3  0  0  0  0  0  0
  191.1210  177.5940  141.7280 C   0  0  0  0  0  1  0  0  0  0  0  0
  191.9940  176.1390  146.5100 C   0  0  0  0  0  0  0  0  0  0  0  0
  191.4340  176.8540  145.4820 C   0  0  0  0  0  0  0  0  0  0  0  0
  192.5510  174.8790  146.2550 C   0  0  0  0  0  3  0  0  0  0  0  0
  191.6050  174.9290  144.0210 C   0  0  0  0  0  3  0  0  0  0  0  0
  190.2880  177.6500  145.9470 C   0  0  1  0  0  3  0  0  0  0  0  0
  189.9270  176.7040  143.7370 N   0  0  0  0  0  0  0  0  0  0  0  0
  191.0680  176.2650  147.7000 C   0  0  2  0  0  3  0  0  0  0  0  0
  189.3450  177.4200  144.8220 C   0  0  0  0  0  0  0  0  0  0  0  0
  191.1800  176.2490  144.2480 C   0  0  0  0  0  0  0  0  0  0  0  0
  189.8440  176.9010  147.1360 N   0  0  0  0  0  0  0  0  0  0  0  0
  192.3580  174.2700  144.9970 C   0  0  0  0  0  3  0  0  0  0  0  0
  188.1500  177.8490  144.8170 O   0  0  0  0  0  0  0  0  0  0  0  0
  189.0260  177.7010  148.0540 C   0  0  0  0  0  1  0  0  0  0  0  0
  191.7970  177.0750  148.8110 C   0  0  0  0  0  2  0  0  0  0  0  0
  193.1830  176.8580  148.7210 O   0  0  0  0  0  1  0  0  0  0  0  0
  180.9550  176.6240  138.7400 C   0  0  0  0  0  2  0  0  0  0  0  0
  180.1010  175.0390  136.8850 C   0  0  1  0  0  3  0  0  0  0  0  0
  178.9340  174.4250  134.7500 C   0  0  0  0  0  1  0  0  0  0  0  0
  180.9100  176.3130  137.2340 C   0  0  2  0  0  3  0  0  0  0  0  0
  182.3040  176.2170  136.6550 C   0  0  0  0  0  3  0  0  0  0  0  0
  180.2920  174.5500  135.4230 C   0  0  1  0  0  3  0  0  0  0  0  0
  181.2550  175.4430  134.5940 C   0  0  0  0  0  2  0  0  0  0  0  0
  182.4770  175.8030  135.4120 C   0  0  0  0  0  0  0  0  0  0  0  0
  179.2310  173.4580  138.7540 C   0  0  0  0  0  1  0  0  0  0  0  0
  180.3310  173.8970  137.8320 C   0  0  0  0  0  0  0  0  0  0  0  0
  181.3880  173.3000  137.8490 O   0  0  0  0  0  0  0  0  0  0  0  0
  183.7690  175.7740  134.7910 N   0  0  0  0  0  2  0  0  0  0  0  0
  187.0520  177.0950  136.1990 N   0  0  0  0  0  0  0  0  0  0  0  0
  185.0360  175.3010  136.9420 C   0  0  1  0  0  3  0  0  0  0  0  0
  184.1170  176.0580  137.6500 F   0  0  0  0  0  0  0  0  0  0  0  0
  185.1030  175.7220  135.4470 C   0  0  2  0  0  3  0  0  0  0  0  0
  187.3450  175.7280  136.7480 C   0  0  0  0  0  2  0  0  0  0  0  0
  185.7970  177.0720  135.4000 C   0  0  0  0  0  2  0  0  0  0  0  0
  186.3010  175.2820  137.6090 O   0  0  0  0  0  0  0  0  0  0  0  0
  186.9470  178.0820  137.2780 C   0  0  0  0  0  0  0  0  0  0  0  0
  187.4900  177.5720  138.4690 F   0  0  0  0  0  0  0  0  0  0  0  0
  187.6870  179.2010  136.9440 F   0  0  0  0  0  0  0  0  0  0  0  0
  185.6590  178.4940  137.4910 F   0  0  0  0  0  0  0  0  0  0  0  0
  181.3650  178.8710  137.8070 N   0  0  0  0  0  2  0  0  0  0  0  0
  180.2920  180.2660  137.6060 P   0  0  2  0  0  0  0  0  0  0  0  0
  180.0950  181.0130  139.1150 O   0  0  0  0  0  1  0  0  0  0  0  0
  178.9330  179.7870  137.1040 O   0  0  0  0  0  0  0  0  0  0  0  0
  180.7540  180.9390  135.1820 O   0  0  0  0  0  1  0  0  0  0  0  0
  180.9870  181.4140  136.4440 N   0  0  0  0  0  0  0  0  0  0  0  0
  180.0280  184.8310  135.4390 C   0  0  0  0  0  2  0  0  0  0  0  0
  180.2830  182.6960  136.5600 C   0  0  2  0  0  3  0  0  0  0  0  0
  180.6740  184.9850  136.8050 C   0  0  0  0  0  2  0  0  0  0  0  0
  179.8680  183.3160  135.2260 C   0  0  0  0  0  2  0  0  0  0  0  0
  181.1390  183.6740  137.2460 N   0  0  0  0  0  2  0  0  0  0  0  0
  1 32  1  6  0  0  0
  3 11  1  6  0  0  0
  3  9  1  0  0  0  0
  4  9  1  0  0  0  0
  5  1  1  6  0  0  0
  5  7  1  0  0  0  0
  5  8  1  0  0  0  0
  6  3  1  0  0  0  0
  7  6  1  0  0  0  0
  8  2  2  0  0  0  0
  8  4  1  0  0  0  0
 11 10  1  1  0  0  0
 12 11  1  0  0  0  0
 13 12  1  0  0  0  0
 13 14  1  0  0  0  0
 14 15  1  0  0  0  0
 15 16  1  1  0  0  0
 15 22  1  0  0  0  0
 17 23  1  0  0  0  0
 18 21  1  0  0  0  0
 18 17  2  0  0  0  0
 19 17  1  0  0  0  0
 20 25  2  0  0  0  0
 20 27  1  0  0  0  0
 21 24  1  6  0  0  0
 21 26  1  0  0  0  0
 22 25  1  0  0  0  0
 22 24  1  0  0  0  0
 23 30  1  1  0  0  0
 25 18  1  0  0  0  0
 26 23  1  0  0  0  0
 26 29  1  0  0  0  0
 27 19  2  0  0  0  0
 28 24  2  0  0  0  0
 31 30  1  0  0  0  0
 33 35  1  0  0  0  0
 33 41  1  1  0  0  0
 35 32  1  1  0  0  0
 36 35  1  0  0  0  0
 37 34  1  6  0  0  0
 37 33  1  0  0  0  0
 38 39  1  0  0  0  0
 38 37  1  0  0  0  0
 39 36  2  0  0  0  0
 41 42  2  0  0  0  0
 41 40  1  0  0  0  0
 43 39  1  0  0  0  0
 44 48  1  0  0  0  0
 44 51  1  0  0  0  0
 45 50  1  0  0  0  0
 45 46  1  1  0  0  0
 47 43  1  1  0  0  0
 47 45  1  0  0  0  0
 48 50  1  0  0  0  0
 49 47  1  0  0  0  0
 49 44  1  0  0  0  0
 51 54  1  0  0  0  0
 51 52  1  0  0  0  0
 53 51  1  0  0  0  0
 55  1  1  0  0  0  0
 56 58  2  6  0  0  0
 56 55  1  0  0  0  0
 56 57  1  0  0  0  0
 59 60  1  0  0  0  0
 60 56  1  0  0  0  0
 61 63  1  0  0  0  0
 62 60  1  6  0  0  0
 62 65  1  0  0  0  0
 63 65  1  0  0  0  0
 64 61  1  0  0  0  0
 64 62  1  0  0  0  0
M  END
>  <MODEL>
7

>  <REMARK>
 VINA RESULT:      -6.3      1.756      3.264
  Name = 
  18 active torsions:
  status: ('A' for Active; 'I' for Inactive)
    1  A    between atoms: C_3  and  N_50
    2  A    between atoms: P_6  and  N_40
    3  A    between atoms: P_6  and  N_50
    4  A    between atoms: C_7  and  N_24
    5  A    between atoms: C_7  and  C_29
    6  A    between atoms: N_9  and  C_31
    7  A    between atoms: C_11  and  C_65
    8  A    between atoms: N_14  and  C_17
    9  A    between atoms: N_14  and  C_62
   10  A    between atoms: C_21  and  C_61
   11  A    between atoms: C_27  and  C_35
   12  A    between atoms: C_29  and  O_41
   13  A    between atoms: C_33  and  C_43
   14  A    between atoms: C_34  and  C_54
   15  A    between atoms: C_35  and  C_54
   16  A    between atoms: N_40  and  C_54
   17  A    between atoms: O_41  and  C_46
   18  A    between atoms: C_46  and  C_65
                            x       y       z     vdW  Elec       q    Type
                         _______ _______ _______ _____ _____    ______ ____

>  <TORSDO>
F 18

$$$$
=
 OpenBabel11062417393D

 65 71  0  0  1  0  0  0  0  0999 V2000
  185.3160  177.7110  137.5200 C   0  0  2  0  0  3  0  0  0  0  0  0
  187.7330  178.7310  138.8820 O   0  0  0  0  0  0  0  0  0  0  0  0
  184.4550  179.0210  141.9170 C   0  0  2  0  0  3  0  0  0  0  0  0
  186.7710  178.9580  140.9930 N   0  0  0  0  0  2  0  0  0  0  0  0
  185.4130  178.0150  139.0180 C   0  0  2  0  0  3  0  0  0  0  0  0
  183.7180  178.2510  140.8240 C   0  0  0  0  0  2  0  0  0  0  0  0
  184.1490  178.7430  139.4560 C   0  0  0  0  0  2  0  0  0  0  0  0
  186.6880  178.6090  139.5990 C   0  0  0  0  0  0  0  0  0  0  0  0
  185.8850  178.4850  142.0500 C   0  0  0  0  0  2  0  0  0  0  0  0
  182.2450  179.0610  143.2360 C   0  0  0  0  0  1  0  0  0  0  0  0
  183.7380  178.7900  143.2820 C   0  0  2  0  0  3  0  0  0  0  0  0
  184.3830  179.5360  144.4670 C   0  0  0  0  0  2  0  0  0  0  0  0
  183.6870  179.2450  145.6750 O   0  0  0  0  0  0  0  0  0  0  0  0
  184.5130  178.2910  146.3120 C   0  0  0  0  0  2  0  0  0  0  0  0
  185.8870  178.8820  146.6640 C   0  0  1  0  0  3  0  0  0  0  0  0
  185.9940  179.5260  148.0440 C   0  0  0  0  0  1  0  0  0  0  0  0
  189.6860  177.0660  144.3310 C   0  0  0  0  0  0  0  0  0  0  0  0
  188.8890  177.8970  145.0760 C   0  0  0  0  0  0  0  0  0  0  0  0
  189.1090  176.2410  143.3570 C   0  0  0  0  0  3  0  0  0  0  0  0
  186.9060  176.8220  144.1910 C   0  0  0  0  0  3  0  0  0  0  0  0
  189.4090  178.0520  146.4430 C   0  0  1  0  0  3  0  0  0  0  0  0
  186.9810  177.9430  146.3790 N   0  0  0  0  0  0  0  0  0  0  0  0
  190.6850  176.4360  145.2770 C   0  0  2  0  0  3  0  0  0  0  0  0
  188.1380  177.9750  147.2090 C   0  0  0  0  0  0  0  0  0  0  0  0
  187.4990  177.7520  145.0620 C   0  0  0  0  0  0  0  0  0  0  0  0
  190.1850  176.8130  146.6300 N   0  0  0  0  0  0  0  0  0  0  0  0
  187.7050  176.1210  143.2840 C   0  0  0  0  0  3  0  0  0  0  0  0
  188.0900  177.9710  148.4780 O   0  0  0  0  0  0  0  0  0  0  0  0
  191.1780  176.9060  147.7050 C   0  0  0  0  0  1  0  0  0  0  0  0
  192.1060  176.9550  144.9160 C   0  0  0  0  0  2  0  0  0  0  0  0
  192.0660  177.6160  143.6750 O   0  0  0  0  0  1  0  0  0  0  0  0
  184.0070  178.2320  136.9330 C   0  0  0  0  0  2  0  0  0  0  0  0
  182.0270  176.7380  137.6630 C   0  0  1  0  0  3  0  0  0  0  0  0
  180.6200  175.4150  139.2640 C   0  0  0  0  0  1  0  0  0  0  0  0
  182.8240  178.0450  137.8980 C   0  0  2  0  0  3  0  0  0  0  0  0
  181.8920  179.2360  137.8560 C   0  0  0  0  0  3  0  0  0  0  0  0
  180.6710  176.6790  138.4190 C   0  0  1  0  0  3  0  0  0  0  0  0
  180.3850  177.9440  139.2740 C   0  0  0  0  0  2  0  0  0  0  0  0
  180.7380  179.1960  138.4970 C   0  0  0  0  0  0  0  0  0  0  0  0
  182.7490  175.4870  135.5030 C   0  0  0  0  0  1  0  0  0  0  0  0
  181.8080  176.4160  136.2130 C   0  0  0  0  0  0  0  0  0  0  0  0
  180.8630  176.8750  135.6040 O   0  0  0  0  0  0  0  0  0  0  0  0
  179.8580  180.3270  138.5570 N   0  0  0  0  0  2  0  0  0  0  0  0
  178.9360  183.7940  137.2790 N   0  0  0  0  0  0  0  0  0  0  0  0
  181.1010  182.0260  137.1340 C   0  0  1  0  0  3  0  0  0  0  0  0
  181.9050  182.3450  138.2160 F   0  0  0  0  0  0  0  0  0  0  0  0
  179.7320  181.4440  137.5820 C   0  0  2  0  0  3  0  0  0  0  0  0
  179.6490  183.4900  135.9930 C   0  0  0  0  0  2  0  0  0  0  0  0
  178.9310  182.5970  138.1620 C   0  0  0  0  0  2  0  0  0  0  0  0
  181.0070  183.1290  136.2270 O   0  0  0  0  0  0  0  0  0  0  0  0
  179.5590  184.9290  137.9680 C   0  0  0  0  0  0  0  0  0  0  0  0
  180.9590  184.8240  137.9280 F   0  0  0  0  0  0  0  0  0  0  0  0
  179.2240  186.0990  137.3110 F   0  0  0  0  0  0  0  0  0  0  0  0
  179.1360  185.0540  139.2640 F   0  0  0  0  0  0  0  0  0  0  0  0
  185.5430  176.3120  137.1350 N   0  0  0  0  0  2  0  0  0  0  0  0
  187.1360  176.1470  136.3760 P   0  0  2  0  0  0  0  0  0  0  0  0
  188.2680  175.7780  137.5810 O   0  0  0  0  0  1  0  0  0  0  0  0
  187.5200  177.4690  135.7170 O   0  0  0  0  0  0  0  0  0  0  0  0
  188.3980  174.5250  134.8520 O   0  0  0  0  0  1  0  0  0  0  0  0
  187.1050  174.8590  135.1540 N   0  0  0  0  0  0  0  0  0  0  0  0
  186.6610  171.2500  135.7710 C   0  0  0  0  0  2  0  0  0  0  0  0
  186.4740  173.6670  135.7320 C   0  0  2  0  0  3  0  0  0  0  0  0
  185.3650  171.7050  135.1230 C   0  0  0  0  0  2  0  0  0  0  0  0
  187.4460  172.5370  136.0750 C   0  0  0  0  0  2  0  0  0  0  0  0
  185.4870  173.1200  134.7910 N   0  0  0  0  0  2  0  0  0  0  0  0
  1 32  1  1  0  0  0
  2  8  2  0  0  0  0
  3  9  1  0  0  0  0
  3 11  1  1  0  0  0
  4  9  1  0  0  0  0
  5  1  1  6  0  0  0
  5  7  1  0  0  0  0
  5  8  1  0  0  0  0
  6  3  1  0  0  0  0
  7  6  1  0  0  0  0
  8  4  1  0  0  0  0
 11 10  1  6  0  0  0
 11 12  1  0  0  0  0
 12 13  1  0  0  0  0
 13 14  1  0  0  0  0
 14 15  1  0  0  0  0
 15 16  1  1  0  0  0
 17 18  1  0  0  0  0
 17 23  1  0  0  0  0
 19 17  2  0  0  0  0
 20 25  1  0  0  0  0
 21 18  1  6  0  0  0
 21 26  1  0  0  0  0
 21 24  1  0  0  0  0
 22 15  1  0  0  0  0
 22 24  1  0  0  0  0
 23 30  1  6  0  0  0
 23 26  1  0  0  0  0
 24 28  2  0  0  0  0
 25 18  2  0  0  0  0
 25 22  1  0  0  0  0
 26 29  1  0  0  0  0
 27 19  1  0  0  0  0
 27 20  2  0  0  0  0
 31 30  1  0  0  0  0
 33 41  1  6  0  0  0
 33 35  1  0  0  0  0
 33 37  1  0  0  0  0
 35 32  1  6  0  0  0
 36 35  1  0  0  0  0
 36 39  2  0  0  0  0
 37 34  1  1  0  0  0
 37 38  1  0  0  0  0
 39 43  1  0  0  0  0
 39 38  1  0  0  0  0
 40 41  1  0  0  0  0
 42 41  2  0  0  0  0
 44 51  1  0  0  0  0
 44 49  1  0  0  0  0
 45 47  1  0  0  0  0
 45 46  1  1  0  0  0
 47 49  1  0  0  0  0
 47 43  1  1  0  0  0
 48 50  1  0  0  0  0
 48 44  1  0  0  0  0
 50 45  1  0  0  0  0
 51 54  1  0  0  0  0
 52 51  1  0  0  0  0
 53 51  1  0  0  0  0
 55  1  1  0  0  0  0
 56 58  2  6  0  0  0
 56 55  1  0  0  0  0
 56 57  1  0  0  0  0
 59 60  1  0  0  0  0
 60 56  1  0  0  0  0
 61 64  1  0  0  0  0
 62 60  1  6  0  0  0
 62 64  1  0  0  0  0
 63 61  1  0  0  0  0
 65 63  1  0  0  0  0
 65 62  1  0  0  0  0
M  END
>  <MODEL>
8

>  <REMARK>
 VINA RESULT:      -6.3      3.167      6.749
  Name = 
  18 active torsions:
  status: ('A' for Active; 'I' for Inactive)
    1  A    between atoms: C_3  and  N_50
    2  A    between atoms: P_6  and  N_40
    3  A    between atoms: P_6  and  N_50
    4  A    between atoms: C_7  and  N_24
    5  A    between atoms: C_7  and  C_29
    6  A    between atoms: N_9  and  C_31
    7  A    between atoms: C_11  and  C_65
    8  A    between atoms: N_14  and  C_17
    9  A    between atoms: N_14  and  C_62
   10  A    between atoms: C_21  and  C_61
   11  A    between atoms: C_27  and  C_35
   12  A    between atoms: C_29  and  O_41
   13  A    between atoms: C_33  and  C_43
   14  A    between atoms: C_34  and  C_54
   15  A    between atoms: C_35  and  C_54
   16  A    between atoms: N_40  and  C_54
   17  A    between atoms: O_41  and  C_46
   18  A    between atoms: C_46  and  C_65
                            x       y       z     vdW  Elec       q    Type
                         _______ _______ _______ _____ _____    ______ ____

>  <TORSDO>
F 18

$$$$
=
 OpenBabel11062417393D

 65 71  0  0  1  0  0  0  0  0999 V2000
  186.1090  178.8150  142.5610 C   0  0  2  0  0  3  0  0  0  0  0  0
  183.1860  178.3760  142.5300 O   0  0  0  0  0  0  0  0  0  0  0  0
  184.5030  177.8570  138.2830 C   0  0  2  0  0  3  0  0  0  0  0  0
  183.0400  177.7170  140.2990 N   0  0  0  0  0  2  0  0  0  0  0  0
  185.3170  178.2760  141.3650 C   0  0  2  0  0  3  0  0  0  0  0  0
  185.8680  177.9580  138.9600 C   0  0  0  0  0  2  0  0  0  0  0  0
  185.8150  178.9580  140.0970 C   0  0  0  0  0  2  0  0  0  0  0  0
  183.8020  178.1620  141.4370 C   0  0  0  0  0  0  0  0  0  0  0  0
  183.5650  177.0010  139.1430 C   0  0  0  0  0  2  0  0  0  0  0  0
  185.8430  177.6430  136.0970 C   0  0  0  0  0  1  0  0  0  0  0  0
  184.6620  177.1420  136.9070 C   0  0  2  0  0  3  0  0  0  0  0  0
  183.3820  177.1400  136.0470 C   0  0  0  0  0  2  0  0  0  0  0  0
  182.5270  176.0680  136.4320 O   0  0  0  0  0  0  0  0  0  0  0  0
  181.4750  176.1280  135.4900 C   0  0  0  0  0  2  0  0  0  0  0  0
  180.2830  176.9340  136.0290 C   0  0  1  0  0  3  0  0  0  0  0  0
  178.9350  176.2180  136.0000 C   0  0  0  0  0  1  0  0  0  0  0  0
  179.9240  180.1360  139.6060 C   0  0  0  0  0  0  0  0  0  0  0  0
  179.6240  179.1370  138.7160 C   0  0  0  0  0  0  0  0  0  0  0  0
  180.8390  181.1350  139.2450 C   0  0  0  0  0  3  0  0  0  0  0  0
  181.4190  179.8650  137.2600 C   0  0  0  0  0  3  0  0  0  0  0  0
  179.3600  177.8660  139.4090 C   0  0  1  0  0  3  0  0  0  0  0  0
  180.5790  177.5550  137.3280 N   0  0  0  0  0  0  0  0  0  0  0  0
  180.0960  179.4910  140.9640 C   0  0  2  0  0  3  0  0  0  0  0  0
  180.0830  176.9300  138.5080 C   0  0  0  0  0  0  0  0  0  0  0  0
  180.3970  178.9510  137.5660 C   0  0  0  0  0  0  0  0  0  0  0  0
  180.1080  178.0300  140.6680 N   0  0  0  0  0  0  0  0  0  0  0  0
  181.5900  181.0000  138.0580 C   0  0  0  0  0  3  0  0  0  0  0  0
  180.2150  175.6920  138.7540 O   0  0  0  0  0  0  0  0  0  0  0  0
  179.6550  177.1310  141.7340 C   0  0  0  0  0  1  0  0  0  0  0  0
  178.9470  179.9800  141.8930 C   0  0  0  0  0  2  0  0  0  0  0  0
  179.2530  181.2590  142.3890 O   0  0  0  0  0  1  0  0  0  0  0  0
  187.5350  179.1840  142.1610 C   0  0  0  0  0  2  0  0  0  0  0  0
  189.2880  177.4250  142.8760 C   0  0  1  0  0  3  0  0  0  0  0  0
  190.2110  175.1190  143.2340 C   0  0  0  0  0  1  0  0  0  0  0  0
  188.3600  177.9510  141.7540 C   0  0  2  0  0  3  0  0  0  0  0  0
  189.1630  178.2230  140.5010 C   0  0  0  0  0  3  0  0  0  0  0  0
  190.3330  176.3810  142.3940 C   0  0  1  0  0  3  0  0  0  0  0  0
  190.2350  176.0640  140.8770 C   0  0  0  0  0  2  0  0  0  0  0  0
  190.0540  177.3410  140.0830 C   0  0  0  0  0  0  0  0  0  0  0  0
  191.3260  179.0030  143.2030 C   0  0  0  0  0  1  0  0  0  0  0  0
  189.9800  178.5100  143.6490 C   0  0  0  0  0  0  0  0  0  0  0  0
  189.4580  179.0200  144.6190 O   0  0  0  0  0  0  0  0  0  0  0  0
  190.7790  177.5120  138.8570 N   0  0  0  0  0  2  0  0  0  0  0  0
  189.5640  174.8060  136.4680 N   0  0  0  0  0  0  0  0  0  0  0  0
  189.6080  177.6010  136.6050 C   0  0  1  0  0  3  0  0  0  0  0  0
  188.4250  177.9540  137.2330 F   0  0  0  0  0  0  0  0  0  0  0  0
  190.5600  176.8240  137.5560 C   0  0  2  0  0  3  0  0  0  0  0  0
  189.9800  175.6680  135.3110 C   0  0  0  0  0  2  0  0  0  0  0  0
  189.9560  175.4450  137.7530 C   0  0  0  0  0  2  0  0  0  0  0  0
  189.3470  176.9430  135.3620 O   0  0  0  0  0  0  0  0  0  0  0  0
  188.1190  174.5580  136.4460 C   0  0  0  0  0  0  0  0  0  0  0  0
  187.8480  173.1980  136.6650 F   0  0  0  0  0  0  0  0  0  0  0  0
  187.5220  175.2600  137.4760 F   0  0  0  0  0  0  0  0  0  0  0  0
  187.5330  174.9690  135.2790 F   0  0  0  0  0  0  0  0  0  0  0  0
  186.1030  177.9720  143.7630 N   0  0  0  0  0  2  0  0  0  0  0  0
  185.2480  178.7990  145.0760 P   0  0  2  0  0  0  0  0  0  0  0  0
  184.0970  177.7350  145.7200 O   0  0  0  0  0  1  0  0  0  0  0  0
  184.5360  180.0280  144.5180 O   0  0  0  0  0  0  0  0  0  0  0  0
  185.7050  180.0110  147.2820 O   0  0  0  0  0  1  0  0  0  0  0  0
  186.3930  179.2950  146.3400 N   0  0  0  0  0  0  0  0  0  0  0  0
  188.8440  177.3110  148.2530 C   0  0  0  0  0  2  0  0  0  0  0  0
  186.9200  178.0990  147.0050 C   0  0  2  0  0  3  0  0  0  0  0  0
  188.7010  176.5920  146.9220 C   0  0  0  0  0  2  0  0  0  0  0  0
  187.7380  178.3800  148.2650 C   0  0  0  0  0  2  0  0  0  0  0  0
  187.7880  177.3560  146.0800 N   0  0  0  0  0  2  0  0  0  0  0  0
  1 32  1  6  0  0  0
  1 55  1  0  0  0  0
  3 11  1  6  0  0  0
  3  6  1  0  0  0  0
  3  9  1  0  0  0  0
  4  8  1  0  0  0  0
  5  8  1  0  0  0  0
  5  1  1  1  0  0  0
  6  7  1  0  0  0  0
  7  5  1  0  0  0  0
  8  2  2  0  0  0  0
  9  4  1  0  0  0  0
 11 10  1  6  0  0  0
 12 13  1  0  0  0  0
 12 11  1  0  0  0  0
 14 15  1  0  0  0  0
 14 13  1  0  0  0  0
 15 16  1  1  0  0  0
 15 22  1  0  0  0  0
 17 23  1  0  0  0  0
 18 21  1  0  0  0  0
 18 17  2  0  0  0  0
 19 17  1  0  0  0  0
 20 25  2  0  0  0  0
 20 27  1  0  0  0  0
 21 24  1  6  0  0  0
 21 26  1  0  0  0  0
 22 25  1  0  0  0  0
 22 24  1  0  0  0  0
 23 30  1  1  0  0  0
 24 28  2  0  0  0  0
 25 18  1  0  0  0  0
 26 23  1  0  0  0  0
 26 29  1  0  0  0  0
 27 19  2  0  0  0  0
 30 31  1  0  0  0  0
 33 41  1  6  0  0  0
 35 32  1  1  0  0  0
 35 33  1  0  0  0  0
 36 35  1  0  0  0  0
 37 33  1  0  0  0  0
 37 34  1  1  0  0  0
 38 37  1  0  0  0  0
 39 36  2  0  0  0  0
 39 38  1  0  0  0  0
 40 41  1  0  0  0  0
 41 42  2  0  0  0  0
 43 39  1  0  0  0  0
 44 49  1  0  0  0  0
 45 46  1  1  0  0  0
 45 47  1  0  0  0  0
 47 49  1  0  0  0  0
 47 43  1  1  0  0  0
 48 50  1  0  0  0  0
 48 44  1  0  0  0  0
 50 45  1  0  0  0  0
 51 44  1  0  0  0  0
 51 52  1  0  0  0  0
 51 53  1  0  0  0  0
 54 51  1  0  0  0  0
 55 56  1  0  0  0  0
 56 58  2  6  0  0  0
 56 57  1  0  0  0  0
 56 60  1  0  0  0  0
 60 59  1  0  0  0  0
 61 64  1  0  0  0  0
 62 60  1  6  0  0  0
 62 64  1  0  0  0  0
 63 61  1  0  0  0  0
 65 63  1  0  0  0  0
 65 62  1  0  0  0  0
M  END
>  <MODEL>
9

>  <REMARK>
 VINA RESULT:      -6.3      2.698      9.423
  Name = 
  18 active torsions:
  status: ('A' for Active; 'I' for Inactive)
    1  A    between atoms: C_3  and  N_50
    2  A    between atoms: P_6  and  N_40
    3  A    between atoms: P_6  and  N_50
    4  A    between atoms: C_7  and  N_24
    5  A    between atoms: C_7  and  C_29
    6  A    between atoms: N_9  and  C_31
    7  A    between atoms: C_11  and  C_65
    8  A    between atoms: N_14  and  C_17
    9  A    between atoms: N_14  and  C_62
   10  A    between atoms: C_21  and  C_61
   11  A    between atoms: C_27  and  C_35
   12  A    between atoms: C_29  and  O_41
   13  A    between atoms: C_33  and  C_43
   14  A    between atoms: C_34  and  C_54
   15  A    between atoms: C_35  and  C_54
   16  A    between atoms: N_40  and  C_54
   17  A    between atoms: O_41  and  C_46
   18  A    between atoms: C_46  and  C_65
                            x       y       z     vdW  Elec       q    Type
                         _______ _______ _______ _____ _____    ______ ____

>  <TORSDO>
F 18

$$$$
