=
 OpenBabel11062414423D

 68 72  0  0  1  0  0  0  0  0999 V2000
  190.0520  175.9220  136.1160 C   0  0  0  0  0  2  0  0  0  0  0  0
  188.0580  175.8360  134.6510 C   0  0  0  0  0  1  0  0  0  0  0  0
  189.1060  175.0020  135.3570 C   0  0  2  0  0  3  0  0  0  0  0  0
  188.4680  174.1330  136.2830 O   0  0  0  0  0  0  0  0  0  0  0  0
  187.7820  172.4740  134.8540 O   0  0  0  0  0  0  0  0  0  0  0  0
  186.4260  172.7180  138.0460 C   0  0  0  0  0  1  0  0  0  0  0  0
  186.3310  172.9470  136.6140 N   0  0  0  0  0  0  0  0  0  0  0  0
  185.0510  172.9120  135.9640 C   0  0  0  0  0  0  0  0  0  0  0  0
  187.5400  173.1680  135.8760 C   0  0  0  0  0  0  0  0  0  0  0  0
  184.0460  172.4540  136.5800 O   0  0  0  0  0  0  0  0  0  0  0  0
  184.8840  173.5130  134.5940 C   0  0  0  0  0  2  0  0  0  0  0  0
  184.5440  174.9960  134.6310 C   0  0  0  0  0  2  0  0  0  0  0  0
  183.3030  175.1790  135.2560 O   0  0  0  0  0  0  0  0  0  0  0  0
  182.9050  178.5150  138.9250 C   0  0  0  0  0  0  0  0  0  0  0  0
  180.1770  179.5820  138.7640 C   0  0  0  0  0  3  0  0  0  0  0  0
  185.6210  178.9690  138.0370 O   0  0  0  0  0  0  0  0  0  0  0  0
  179.7560  178.6260  136.2310 S   0  0  0  0  0  0  0  0  0  0  0  0
  181.9850  176.5660  139.9580 O   0  0  0  0  0  1  0  0  0  0  0  0
  185.0860  177.8280  137.9780 C   0  0  0  0  0  0  0  0  0  0  0  0
  181.9450  176.9130  136.3080 C   0  0  1  0  0  0  0  0  0  0  0  0
  183.0190  176.5340  137.3410 C   0  0  2  0  0  3  0  0  0  0  0  0
  183.1800  179.7460  139.0040 O   0  0  0  0  0  0  0  0  0  0  0  0
  180.4100  178.1720  139.2250 C   0  0  0  0  0  2  0  0  0  0  0  0
  183.6490  177.6950  137.9940 N   0  0  0  0  0  0  0  0  0  0  0  0
  181.5570  178.3810  136.0740 C   0  0  0  0  0  2  0  0  0  0  0  0
  183.3200  176.4620  135.8270 C   0  0  1  0  0  0  0  0  0  0  0  0
  181.8110  177.9470  139.8220 C   0  0  2  0  0  0  0  0  0  0  0  0
  184.1410  177.5350  135.1020 C   0  0  0  0  0  1  0  0  0  0  0  0
  185.9690  176.6330  137.8580 C   0  0  0  0  0  1  0  0  0  0  0  0
  180.9490  175.9430  136.1550 O   0  0  0  0  0  1  0  0  0  0  0  0
  179.7820  181.2560  137.1250 N   0  0  0  0  0  1  0  0  0  0  0  0
  179.9300  179.8900  137.4910 C   0  0  0  0  0  0  0  0  0  0  0  0
  180.7360  178.7200  141.9970 N   0  0  0  0  0  1  0  0  0  0  0  0
  181.9070  178.5610  141.2010 C   0  0  0  0  0  0  0  0  0  0  0  0
  183.0250  178.8790  141.6890 O   0  0  0  0  0  0  0  0  0  0  0  0
  190.1750  175.5890  137.6040 C   0  0  2  0  0  3  0  0  0  0  0  0
  189.6120  176.6480  138.5550 C   0  0  2  0  0  3  0  0  0  0  0  0
  188.8050  177.5530  137.8710 O   0  0  0  0  0  1  0  0  0  0  0  0
  190.6920  177.3950  139.3270 C   0  0  0  0  0  2  0  0  0  0  0  0
  189.2850  178.0790  141.3190 C   0  0  2  0  0  3  0  0  0  0  0  0
  191.7500  177.6450  141.5710 C   0  0  0  0  0  2  0  0  0  0  0  0
  190.4820  177.2440  140.8260 C   0  0  2  0  0  3  0  0  0  0  0  0
  192.3070  178.5800  143.8250 C   0  0  0  0  0  2  0  0  0  0  0  0
  190.2020  178.3280  143.4530 C   0  0  2  0  0  3  0  0  0  0  0  0
  191.0470  179.3260  144.2230 C   0  0  0  0  0  2  0  0  0  0  0  0
  191.4750  177.5660  143.0690 C   0  0  1  0  0  3  0  0  0  0  0  0
  189.5910  178.9930  142.3610 O   0  0  0  0  0  0  0  0  0  0  0  0
  188.3770  176.0190  142.2340 O   0  0  0  0  0  1  0  0  0  0  0  0
  188.0470  177.2120  141.5860 C   0  0  1  0  0  3  0  0  0  0  0  0
  186.9910  177.9630  142.3320 C   0  0  0  0  0  0  0  0  0  0  0  0
  186.5820  177.4920  143.6160 N   0  0  0  0  0  2  0  0  0  0  0  0
  186.4560  178.9850  141.8250 O   0  0  0  0  0  0  0  0  0  0  0  0
  185.7180  178.2600  144.5040 C   0  0  1  0  0  3  0  0  0  0  0  0
  184.3950  178.1540  144.1110 F   0  0  0  0  0  0  0  0  0  0  0  0
  185.8930  177.8120  145.9610 C   0  0  2  0  0  3  0  0  0  0  0  0
  184.8330  178.5040  146.8060 C   0  0  0  0  0  1  0  0  0  0  0  0
  188.1770  176.7960  146.4360 C   0  0  0  0  0  2  0  0  0  0  0  0
  190.5650  176.6740  146.4110 O   0  0  0  0  0  0  0  0  0  0  0  0
  187.2510  178.6470  147.9460 C   0  0  0  0  0  2  0  0  0  0  0  0
  187.3090  178.0580  146.5170 C   0  0  2  0  0  3  0  0  0  0  0  0
  188.4190  178.2690  148.8730 C   0  0  0  0  0  2  0  0  0  0  0  0
  189.6290  177.9440  148.1260 N   0  0  0  0  0  2  0  0  0  0  0  0
  189.5290  177.1190  146.9700 C   0  0  0  0  0  0  0  0  0  0  0  0
  191.4780  175.2210  137.9580 O   0  0  0  0  0  0  0  0  0  0  0  0
  191.5070  173.9080  137.8330 O   0  0  0  0  0  0  0  0  0  0  0  0
  192.4100  173.6640  136.7910 C   0  0  0  0  0  2  0  0  0  0  0  0
  194.7630  174.0750  136.0950 C   0  0  0  0  0  1  0  0  0  0  0  0
  193.8290  173.8920  137.2760 C   0  0  0  0  0  2  0  0  0  0  0  0
  3  2  1  1  0  0  0
  3  1  1  0  0  0  0
  3  4  1  0  0  0  0
  5  9  2  0  0  0  0
  7  6  1  0  0  0  0
  8 10  2  0  0  0  0
  8  7  1  0  0  0  0
  9  4  1  0  0  0  0
  9  7  1  0  0  0  0
 11 12  1  0  0  0  0
 11  8  1  0  0  0  0
 12 13  1  0  0  0  0
 13 26  1  0  0  0  0
 14 22  2  0  0  0  0
 14 27  1  0  0  0  0
 15 23  1  0  0  0  0
 17 32  1  0  0  0  0
 19 24  1  0  0  0  0
 19 16  2  0  0  0  0
 20 30  1  6  0  0  0
 20 21  1  0  0  0  0
 21 24  1  1  0  0  0
 23 27  1  0  0  0  0
 24 14  1  0  0  0  0
 25 17  1  0  0  0  0
 25 20  1  0  0  0  0
 26 28  1  6  0  0  0
 26 20  1  0  0  0  0
 26 21  1  0  0  0  0
 27 18  1  1  0  0  0
 27 34  1  0  0  0  0
 29 19  1  0  0  0  0
 31 32  1  0  0  0  0
 32 15  2  0  0  0  0
 34 35  2  0  0  0  0
 34 33  1  0  0  0  0
 36  1  1  6  0  0  0
 36 64  1  0  0  0  0
 36 37  1  0  0  0  0
 37 38  1  6  0  0  0
 37 39  1  0  0  0  0
 40 49  1  1  0  0  0
 40 47  1  0  0  0  0
 42 39  1  6  0  0  0
 42 40  1  0  0  0  0
 42 41  1  0  0  0  0
 43 45  1  0  0  0  0
 44 45  1  1  0  0  0
 46 41  1  6  0  0  0
 46 44  1  0  0  0  0
 46 43  1  0  0  0  0
 47 44  1  0  0  0  0
 49 48  1  1  0  0  0
 49 50  1  0  0  0  0
 50 51  1  0  0  0  0
 51 53  1  0  0  0  0
 52 50  2  0  0  0  0
 53 54  1  6  0  0  0
 53 55  1  0  0  0  0
 55 56  1  1  0  0  0
 57 60  1  0  0  0  0
 57 63  1  0  0  0  0
 58 63  2  0  0  0  0
 59 61  1  0  0  0  0
 60 55  1  1  0  0  0
 60 59  1  0  0  0  0
 62 61  1  0  0  0  0
 63 62  1  0  0  0  0
 65 64  1  0  0  0  0
 66 68  1  0  0  0  0
 66 65  1  0  0  0  0
 67 68  1  0  0  0  0
M  END
>  <MODEL>
1

>  <REMARK>
 VINA RESULT:      -6.5      0.000      0.000
  Name = 
  21 active torsions:
  status: ('A' for Active; 'I' for Inactive)
    1  A    between atoms: C_3  and  C_31
    2  A    between atoms: C_8  and  N_12
    3  A    between atoms: C_8  and  C_18
    4  A    between atoms: C_9  and  C_31
    5  A    between atoms: C_13  and  C_52
    6  A    between atoms: C_13  and  C_54
    7  A    between atoms: C_16  and  C_52
    8  A    between atoms: C_18  and  C_22
    9  A    between atoms: C_21  and  C_47
   10  A    between atoms: O_23  and  C_45
   11  A    between atoms: O_23  and  C_62
   12  A    between atoms: C_30  and  O_32
   13  A    between atoms: C_30  and  C_57
   14  A    between atoms: O_32  and  C_46
   15  A    between atoms: O_36  and  C_47
   16  A    between atoms: O_36  and  O_65
   17  A    between atoms: C_38  and  C_57
   18  A    between atoms: C_39  and  C_48
   19  A    between atoms: C_43  and  C_54
   20  A    between atoms: C_43  and  C_62
   21  A    between atoms: C_54  and  O_65
                            x       y       z     vdW  Elec       q    Type
                         _______ _______ _______ _____ _____    ______ ____

>  <TORSDO>
F 21

$$$$
=
 OpenBabel11062414423D

 68 72  0  0  1  0  0  0  0  0999 V2000
  189.2950  177.3330  143.0280 C   0  0  0  0  0  2  0  0  0  0  0  0
  190.4970  178.9620  144.4520 C   0  0  0  0  0  1  0  0  0  0  0  0
  189.1320  178.5080  143.9820 C   0  0  2  0  0  3  0  0  0  0  0  0
  188.3660  178.0870  145.1040 O   0  0  0  0  0  0  0  0  0  0  0  0
  186.6620  176.8310  144.2210 O   0  0  0  0  0  0  0  0  0  0  0  0
  186.2090  178.5620  147.2020 C   0  0  0  0  0  1  0  0  0  0  0  0
  186.0190  178.4530  145.7650 N   0  0  0  0  0  0  0  0  0  0  0  0
  184.8410  178.9980  145.1530 C   0  0  0  0  0  0  0  0  0  0  0  0
  187.0110  177.7590  144.9950 C   0  0  0  0  0  0  0  0  0  0  0  0
  183.8670  179.3590  145.8760 O   0  0  0  0  0  0  0  0  0  0  0  0
  184.8040  179.2360  143.6670 C   0  0  0  0  0  2  0  0  0  0  0  0
  183.5980  178.5990  142.9920 C   0  0  0  0  0  2  0  0  0  0  0  0
  183.2440  179.3430  141.8580 O   0  0  0  0  0  0  0  0  0  0  0  0
  181.9140  177.8860  137.2910 C   0  0  0  0  0  0  0  0  0  0  0  0
  179.1750  176.8610  137.5280 C   0  0  0  0  0  3  0  0  0  0  0  0
  184.6940  177.0870  137.3540 O   0  0  0  0  0  0  0  0  0  0  0  0
  179.2950  176.6500  140.2570 S   0  0  0  0  0  0  0  0  0  0  0  0
  180.9980  180.0920  137.3680 O   0  0  0  0  0  1  0  0  0  0  0  0
  184.2800  178.0970  137.9880 C   0  0  0  0  0  0  0  0  0  0  0  0
  181.5760  178.2260  140.4710 C   0  0  1  0  0  0  0  0  0  0  0  0
  182.4780  179.0040  139.4990 C   0  0  2  0  0  3  0  0  0  0  0  0
  182.0620  176.8040  136.6540 O   0  0  0  0  0  0  0  0  0  0  0  0
  179.4450  178.3320  137.6600 C   0  0  0  0  0  2  0  0  0  0  0  0
  182.8800  178.2290  138.3120 N   0  0  0  0  0  0  0  0  0  0  0  0
  181.1090  176.7980  140.1440 C   0  0  0  0  0  2  0  0  0  0  0  0
  183.0490  178.4240  140.8140 C   0  0  1  0  0  0  0  0  0  0  0  0
  180.7310  178.7850  136.9470 C   0  0  2  0  0  0  0  0  0  0  0  0
  183.8880  177.1420  140.8490 C   0  0  0  0  0  1  0  0  0  0  0  0
  185.2700  179.1240  138.4170 C   0  0  0  0  0  1  0  0  0  0  0  0
  180.7110  179.0410  141.2070 O   0  0  0  0  0  1  0  0  0  0  0  0
  178.9330  174.6500  138.3630 N   0  0  0  0  0  1  0  0  0  0  0  0
  179.1320  176.0420  138.5780 C   0  0  0  0  0  0  0  0  0  0  0  0
  181.5680  179.2850  134.5950 N   0  0  0  0  0  1  0  0  0  0  0  0
  180.5280  178.8160  135.4490 C   0  0  0  0  0  0  0  0  0  0  0  0
  179.4690  178.3690  134.9330 O   0  0  0  0  0  0  0  0  0  0  0  0
  190.3340  177.5690  141.9310 C   0  0  2  0  0  3  0  0  0  0  0  0
  189.7590  177.7910  140.5290 C   0  0  2  0  0  3  0  0  0  0  0  0
  188.4680  177.2790  140.4330 O   0  0  0  0  0  1  0  0  0  0  0  0
  190.6320  177.2100  139.4240 C   0  0  0  0  0  2  0  0  0  0  0  0
  190.6340  176.0090  137.1940 C   0  0  2  0  0  3  0  0  0  0  0  0
  188.7940  177.6170  137.7900 C   0  0  0  0  0  2  0  0  0  0  0  0
  189.7740  176.5850  138.3350 C   0  0  2  0  0  3  0  0  0  0  0  0
  187.6140  178.0270  135.6210 C   0  0  0  0  0  2  0  0  0  0  0  0
  188.9440  176.3340  135.6140 C   0  0  2  0  0  3  0  0  0  0  0  0
  188.5200  177.3750  134.5940 C   0  0  0  0  0  2  0  0  0  0  0  0
  188.0130  176.9850  136.6440 C   0  0  1  0  0  3  0  0  0  0  0  0
  190.3190  176.5130  135.9050 O   0  0  0  0  0  0  0  0  0  0  0  0
  189.7450  173.8570  136.5000 O   0  0  0  0  0  1  0  0  0  0  0  0
  190.7360  174.4790  137.2630 C   0  0  1  0  0  3  0  0  0  0  0  0
  192.0990  173.9940  136.8870 C   0  0  0  0  0  0  0  0  0  0  0  0
  193.2190  174.8600  137.0690 N   0  0  0  0  0  2  0  0  0  0  0  0
  192.2530  172.8430  136.3970 O   0  0  0  0  0  0  0  0  0  0  0  0
  194.5990  174.4130  136.9290 C   0  0  1  0  0  3  0  0  0  0  0  0
  195.4530  175.4950  136.7980 F   0  0  0  0  0  0  0  0  0  0  0  0
  195.0130  173.5310  138.1140 C   0  0  2  0  0  3  0  0  0  0  0  0
  195.7370  174.4020  139.1310 C   0  0  0  0  0  1  0  0  0  0  0  0
  196.5540  172.5240  136.3590 C   0  0  0  0  0  2  0  0  0  0  0  0
  198.5130  171.4220  135.5410 O   0  0  0  0  0  0  0  0  0  0  0  0
  195.0190  171.0120  137.7450 C   0  0  0  0  0  2  0  0  0  0  0  0
  195.8610  172.3100  137.7090 C   0  0  2  0  0  3  0  0  0  0  0  0
  195.4210  169.9270  136.7320 C   0  0  0  0  0  2  0  0  0  0  0  0
  196.8240  170.0320  136.3430 N   0  0  0  0  0  2  0  0  0  0  0  0
  197.3670  171.3140  136.0500 C   0  0  0  0  0  0  0  0  0  0  0  0
  191.3310  176.5860  141.9270 O   0  0  0  0  0  0  0  0  0  0  0  0
  191.8790  176.6540  143.1250 O   0  0  0  0  0  0  0  0  0  0  0  0
  191.5340  175.4500  143.7490 C   0  0  0  0  0  2  0  0  0  0  0  0
  192.6420  174.2290  145.6130 C   0  0  0  0  0  1  0  0  0  0  0  0
  191.9180  175.5010  145.2160 C   0  0  0  0  0  2  0  0  0  0  0  0
  1  3  1  0  0  0  0
  3  2  1  1  0  0  0
  3  4  1  0  0  0  0
  5  9  2  0  0  0  0
  7  6  1  0  0  0  0
  8  7  1  0  0  0  0
  8 10  2  0  0  0  0
  9  4  1  0  0  0  0
  9  7  1  0  0  0  0
 11  8  1  0  0  0  0
 12 11  1  0  0  0  0
 13 12  1  0  0  0  0
 14 24  1  0  0  0  0
 15 23  1  0  0  0  0
 15 32  2  0  0  0  0
 16 19  2  0  0  0  0
 19 24  1  0  0  0  0
 19 29  1  0  0  0  0
 20 26  1  0  0  0  0
 20 30  1  1  0  0  0
 21 24  1  6  0  0  0
 21 20  1  0  0  0  0
 21 26  1  0  0  0  0
 22 14  2  0  0  0  0
 25 17  1  0  0  0  0
 25 20  1  0  0  0  0
 26 28  1  6  0  0  0
 26 13  1  0  0  0  0
 27 14  1  0  0  0  0
 27 18  1  1  0  0  0
 27 23  1  0  0  0  0
 31 32  1  0  0  0  0
 32 17  1  0  0  0  0
 33 34  1  0  0  0  0
 34 27  1  0  0  0  0
 35 34  2  0  0  0  0
 36  1  1  1  0  0  0
 37 38  1  1  0  0  0
 37 36  1  0  0  0  0
 39 37  1  0  0  0  0
 40 49  1  6  0  0  0
 40 42  1  0  0  0  0
 41 42  1  0  0  0  0
 42 39  1  1  0  0  0
 44 45  1  6  0  0  0
 44 47  1  0  0  0  0
 44 46  1  0  0  0  0
 45 43  1  0  0  0  0
 46 43  1  6  0  0  0
 46 41  1  0  0  0  0
 47 40  1  0  0  0  0
 49 48  1  6  0  0  0
 50 51  1  0  0  0  0
 50 49  1  0  0  0  0
 52 50  2  0  0  0  0
 53 54  1  1  0  0  0
 53 51  1  0  0  0  0
 53 55  1  0  0  0  0
 55 56  1  1  0  0  0
 57 60  1  0  0  0  0
 58 63  2  0  0  0  0
 60 59  1  0  0  0  0
 60 55  1  6  0  0  0
 61 59  1  0  0  0  0
 62 61  1  0  0  0  0
 63 62  1  0  0  0  0
 63 57  1  0  0  0  0
 64 36  1  0  0  0  0
 64 65  1  0  0  0  0
 65 66  1  0  0  0  0
 66 68  1  0  0  0  0
 68 67  1  0  0  0  0
M  END
>  <MODEL>
2

>  <REMARK>
 VINA RESULT:      -4.5      3.345      8.615
  Name = 
  21 active torsions:
  status: ('A' for Active; 'I' for Inactive)
    1  A    between atoms: C_3  and  C_31
    2  A    between atoms: C_8  and  N_12
    3  A    between atoms: C_8  and  C_18
    4  A    between atoms: C_9  and  C_31
    5  A    between atoms: C_13  and  C_52
    6  A    between atoms: C_13  and  C_54
    7  A    between atoms: C_16  and  C_52
    8  A    between atoms: C_18  and  C_22
    9  A    between atoms: C_21  and  C_47
   10  A    between atoms: O_23  and  C_45
   11  A    between atoms: O_23  and  C_62
   12  A    between atoms: C_30  and  O_32
   13  A    between atoms: C_30  and  C_57
   14  A    between atoms: O_32  and  C_46
   15  A    between atoms: O_36  and  C_47
   16  A    between atoms: O_36  and  O_65
   17  A    between atoms: C_38  and  C_57
   18  A    between atoms: C_39  and  C_48
   19  A    between atoms: C_43  and  C_54
   20  A    between atoms: C_43  and  C_62
   21  A    between atoms: C_54  and  O_65
                            x       y       z     vdW  Elec       q    Type
                         _______ _______ _______ _____ _____    ______ ____

>  <TORSDO>
F 21

$$$$
