=
 OpenBabel11062416123D

 67 72  0  0  1  0  0  0  0  0999 V2000
  190.8680  177.7450  141.6880 C   0  0  1  0  0  3  0  0  0  0  0  0
  184.0800  176.4790  138.0840 C   0  0  0  0  0  2  0  0  0  0  0  0
  181.2620  178.0000  138.8080 F   0  0  0  0  0  0  0  0  0  0  0  0
  187.3540  178.6390  142.8920 C   0  0  0  0  0  3  0  0  0  0  0  0
  190.5280  176.8650  140.5230 C   0  0  0  0  0  0  0  0  0  0  0  0
  185.9620  179.4130  137.9140 F   0  0  0  0  0  0  0  0  0  0  0  0
  185.6930  178.2070  137.2820 C   0  0  0  0  0  0  0  0  0  0  0  0
  185.9000  178.7830  142.7120 C   0  0  0  0  0  0  0  0  0  0  0  0
  189.3070  178.0700  135.8800 C   0  0  0  0  0  2  0  0  0  0  0  0
  183.0740  178.7910  142.4670 C   0  0  0  0  0  0  0  0  0  0  0  0
  189.4180  176.6020  135.7900 N   0  0  0  0  0  0  0  0  0  0  0  0
  188.0300  178.4880  136.5430 C   0  0  0  0  0  3  0  0  0  0  0  0
  185.0650  178.9310  143.8690 C   0  0  0  0  0  0  0  0  0  0  0  0
  184.7140  178.4420  136.3140 F   0  0  0  0  0  0  0  0  0  0  0  0
  181.0690  178.6750  141.0830 C   0  0  0  0  0  0  0  0  0  0  0  0
  183.8810  178.5770  141.3300 C   0  0  0  0  0  0  0  0  0  0  0  0
  183.9880  177.5880  139.0800 N   0  0  0  0  0  0  0  0  0  0  0  0
  181.6790  178.8390  142.3250 C   0  0  0  0  0  3  0  0  0  0  0  0
  187.0070  176.3640  135.9090 C   0  0  0  0  0  0  0  0  0  0  0  0
  191.2930  177.0010  139.2740 C   0  0  0  0  0  0  0  0  0  0  0  0
  189.6840  178.1530  142.5510 C   0  0  0  0  0  0  0  0  0  0  0  0
  183.2560  178.2550  140.1030 C   0  0  0  0  0  0  0  0  0  0  0  0
  185.2260  177.1860  138.3550 C   0  0  1  0  0  0  0  0  0  0  0  0
  191.6280  176.4220  136.8640 C   0  0  1  0  0  3  0  0  0  0  0  0
  182.7940  178.9800  144.9650 C   0  0  0  0  0  1  0  0  0  0  0  0
  192.2010  177.8820  139.1900 O   0  0  0  0  0  0  0  0  0  0  0  0
  188.3050  178.2810  142.0210 C   0  0  0  0  0  3  0  0  0  0  0  0
  188.2090  175.8470  135.5600 C   0  0  0  0  0  3  0  0  0  0  0  0
  189.6340  175.9730  140.6360 O   0  0  0  0  0  0  0  0  0  0  0  0
  186.2150  176.4540  139.2530 C   0  0  0  0  0  1  0  0  0  0  0  0
  186.9360  177.7150  136.5520 C   0  0  0  0  0  0  0  0  0  0  0  0
  190.7520  176.0000  135.6830 C   0  0  1  0  0  3  0  0  0  0  0  0
  189.8950  178.4040  143.7780 O   0  0  0  0  0  0  0  0  0  0  0  0
  185.2890  178.5640  141.4690 C   0  0  0  0  0  3  0  0  0  0  0  0
  181.8640  178.3800  139.9660 C   0  0  0  0  0  0  0  0  0  0  0  0
  191.0520  176.1320  138.1700 N   0  0  0  0  0  2  0  0  0  0  0  0
  183.6680  178.9720  143.7240 C   0  0  0  0  0  0  0  0  0  0  0  0
  190.7210  174.4890  135.5250 C   0  0  0  0  0  1  0  0  0  0  0  0
  193.0990  176.0780  136.7690 C   0  0  0  0  0  0  0  0  0  0  0  0
  193.9710  175.2980  134.7040 O   0  0  0  0  0  1  0  0  0  0  0  0
  193.5620  174.9890  135.9650 N   0  0  0  0  0  0  0  0  0  0  0  0
  193.9020  176.6830  137.5190 O   0  0  0  0  0  0  0  0  0  0  0  0
  193.8760  172.6120  135.3580 C   0  0  0  0  0  1  0  0  0  0  0  0
  192.6050  173.1550  137.3610 C   0  0  0  0  0  1  0  0  0  0  0  0
  193.7740  173.6170  136.4990 C   0  0  0  0  0  0  0  0  0  0  0  0
  194.9850  173.6190  138.5800 O   0  0  0  0  0  0  0  0  0  0  0  0
  195.0410  173.5160  137.3300 C   0  0  0  0  0  0  0  0  0  0  0  0
  196.2810  173.3420  136.7000 O   0  0  0  0  0  0  0  0  0  0  0  0
  197.0950  174.4270  136.2900 C   0  0  0  0  0  1  0  0  0  0  0  0
  185.7640  174.6200  134.5980 C   0  0  0  0  0  2  0  0  0  0  0  0
  184.8110  175.8250  134.5940 C   0  0  2  0  0  3  0  0  0  0  0  0
  185.7190  175.5770  135.7900 C   0  0  2  0  0  3  0  0  0  0  0  0
  183.4000  175.3860  134.9510 C   0  0  0  0  0  0  0  0  0  0  0  0
  183.0900  174.1610  134.8970 O   0  0  0  0  0  0  0  0  0  0  0  0
  182.4210  176.3690  135.3720 N   0  0  0  0  0  2  0  0  0  0  0  0
  181.1920  176.0280  136.0820 C   0  0  0  0  0  2  0  0  0  0  0  0
  180.0170  176.8720  135.5620 C   0  0  0  0  0  2  0  0  0  0  0  0
  180.4730  178.0230  134.6730 C   0  0  0  0  0  1  0  0  0  0  0  0
  179.0110  179.8930  140.4600 C   0  0  0  0  0  1  0  0  0  0  0  0
  179.6750  178.7400  140.9470 O   0  0  0  0  0  0  0  0  0  0  0  0
  191.9840  177.1040  142.5190 C   0  0  0  0  0  2  0  0  0  0  0  0
  191.3980  176.1260  143.4870 C   0  0  0  0  0  0  0  0  0  0  0  0
  190.7310  175.1490  143.0670 O   0  0  0  0  0  0  0  0  0  0  0  0
  191.5640  176.3210  144.8840 N   0  0  0  0  0  1  0  0  0  0  0  0
  185.5560  178.9930  145.1990 O   0  0  0  0  0  0  0  0  0  0  0  0
  185.6940  178.7270  147.3420 C   0  0  0  0  0  1  0  0  0  0  0  0
  185.1560  178.1610  146.1750 O   0  0  0  0  0  0  0  0  0  0  0  0
  1 61  1  1  0  0  0
  1 21  1  0  0  0  0
  2 23  1  0  0  0  0
  2 17  1  0  0  0  0
  3 35  1  0  0  0  0
  5 29  2  0  0  0  0
  5  1  1  0  0  0  0
  7  6  1  0  0  0  0
  7 23  1  0  0  0  0
  8  4  1  0  0  0  0
  8 13  1  0  0  0  0
  9 12  1  0  0  0  0
 10 37  1  0  0  0  0
 11  9  1  0  0  0  0
 12 31  2  0  0  0  0
 13 65  1  0  0  0  0
 14  7  1  0  0  0  0
 15 18  2  0  0  0  0
 16 34  1  0  0  0  0
 16 10  2  0  0  0  0
 17 22  1  0  0  0  0
 18 10  1  0  0  0  0
 19 31  1  0  0  0  0
 20  5  1  0  0  0  0
 21 33  2  0  0  0  0
 22 16  1  0  0  0  0
 23 17  1  0  0  0  0
 23 30  1  1  0  0  0
 24 39  1  6  0  0  0
 24 36  1  0  0  0  0
 26 20  2  0  0  0  0
 27 21  1  0  0  0  0
 27  4  2  0  0  0  0
 28 11  1  0  0  0  0
 28 19  2  0  0  0  0
 31  7  1  0  0  0  0
 32 38  1  1  0  0  0
 32 11  1  0  0  0  0
 32 24  1  0  0  0  0
 34  8  2  0  0  0  0
 35 22  2  0  0  0  0
 35 15  1  0  0  0  0
 36 20  1  0  0  0  0
 37 13  2  0  0  0  0
 37 25  1  0  0  0  0
 39 42  2  0  0  0  0
 40 41  1  0  0  0  0
 41 45  1  0  0  0  0
 41 39  1  0  0  0  0
 43 45  1  0  0  0  0
 45 47  1  0  0  0  0
 45 44  1  0  0  0  0
 47 46  2  0  0  0  0
 48 47  1  0  0  0  0
 49 48  1  0  0  0  0
 50 52  1  0  0  0  0
 51 50  1  0  0  0  0
 51 53  1  1  0  0  0
 51 52  1  0  0  0  0
 52 19  1  6  0  0  0
 53 55  1  0  0  0  0
 54 53  2  0  0  0  0
 55 56  1  0  0  0  0
 57 56  1  0  0  0  0
 58 57  1  0  0  0  0
 59 60  1  0  0  0  0
 60 15  1  0  0  0  0
 61 62  1  0  0  0  0
 62 64  1  0  0  0  0
 63 62  2  0  0  0  0
 65 67  1  0  0  0  0
 67 66  1  0  0  0  0
M  END
>  <MODEL>
1

>  <REMARK>
 VINA RESULT:      -4.3      0.000      0.000
  Name = 
  13 active torsions:
  status: ('A' for Active; 'I' for Inactive)
    1  A    between atoms: C_1  and  C_32
    2  A    between atoms: C_4  and  C_46
    3  A    between atoms: C_6  and  C_53
    4  A    between atoms: O_15  and  C_57
    5  A    between atoms: C_16  and  C_37
    6  A    between atoms: C_19  and  C_32
    7  A    between atoms: C_20  and  O_34
    8  A    between atoms: C_22  and  O_26
    9  A    between atoms: C_28  and  C_58
   10  A    between atoms: O_34  and  O_47
   11  A    between atoms: C_46  and  N_66
   12  A    between atoms: N_54  and  C_64
   13  A    between atoms: C_57  and  C_64
                            x       y       z     vdW  Elec       q    Type
                         _______ _______ _______ _____ _____    ______ ____

>  <TORSDO>
F 13

$$$$
=
 OpenBabel11062416123D

 67 72  0  0  1  0  0  0  0  0999 V2000
  190.4930  178.1240  141.8890 C   0  0  1  0  0  3  0  0  0  0  0  0
  184.3670  175.6390  137.7690 C   0  0  0  0  0  2  0  0  0  0  0  0
  181.4110  177.0660  137.7620 F   0  0  0  0  0  0  0  0  0  0  0  0
  186.8040  178.9890  142.3890 C   0  0  0  0  0  3  0  0  0  0  0  0
  190.3650  176.9990  140.9080 C   0  0  0  0  0  0  0  0  0  0  0  0
  186.1250  178.6040  137.2210 F   0  0  0  0  0  0  0  0  0  0  0  0
  186.0040  177.2760  136.8350 C   0  0  0  0  0  0  0  0  0  0  0  0
  185.3880  178.9850  141.9890 C   0  0  0  0  0  0  0  0  0  0  0  0
  189.7870  177.1170  135.9930 C   0  0  0  0  0  2  0  0  0  0  0  0
  182.6300  178.7340  141.3720 C   0  0  0  0  0  0  0  0  0  0  0  0
  189.9730  175.6750  136.2400 N   0  0  0  0  0  0  0  0  0  0  0  0
  188.4100  177.5680  136.3730 C   0  0  0  0  0  3  0  0  0  0  0  0
  184.3870  179.3080  142.9640 C   0  0  0  0  0  0  0  0  0  0  0  0
  185.1690  177.2310  135.7170 F   0  0  0  0  0  0  0  0  0  0  0  0
  180.8570  178.1840  139.7900 C   0  0  0  0  0  0  0  0  0  0  0  0
  183.6040  178.3470  140.4270 C   0  0  0  0  0  0  0  0  0  0  0  0
  184.0820  176.9220  138.4800 N   0  0  0  0  0  0  0  0  0  0  0  0
  181.2710  178.6470  141.0380 C   0  0  0  0  0  3  0  0  0  0  0  0
  187.5840  175.2900  136.0830 C   0  0  0  0  0  0  0  0  0  0  0  0
  191.2990  176.9270  139.7730 C   0  0  0  0  0  0  0  0  0  0  0  0
  189.1780  178.6150  142.4770 C   0  0  0  0  0  0  0  0  0  0  0  0
  183.1800  177.7310  139.2270 C   0  0  0  0  0  0  0  0  0  0  0  0
  185.4300  176.4700  138.0320 C   0  0  1  0  0  0  0  0  0  0  0  0
  192.0080  175.8850  137.6130 C   0  0  1  0  0  3  0  0  0  0  0  0
  181.9800  179.4170  143.7090 C   0  0  0  0  0  1  0  0  0  0  0  0
  192.1700  177.8360  139.6230 O   0  0  0  0  0  0  0  0  0  0  0  0
  187.8880  178.5280  141.7520 C   0  0  0  0  0  3  0  0  0  0  0  0
  188.8450  174.8010  136.0180 C   0  0  0  0  0  3  0  0  0  0  0  0
  189.5040  176.0870  141.0910 O   0  0  0  0  0  0  0  0  0  0  0  0
  186.3070  176.0160  139.1910 C   0  0  0  0  0  1  0  0  0  0  0  0
  187.3610  176.7360  136.4030 C   0  0  0  0  0  0  0  0  0  0  0  0
  191.3340  175.1640  136.4450 C   0  0  1  0  0  3  0  0  0  0  0  0
  189.1960  179.1310  143.6370 O   0  0  0  0  0  0  0  0  0  0  0  0
  184.9760  178.4670  140.7530 C   0  0  0  0  0  3  0  0  0  0  0  0
  181.8190  177.7230  138.8810 C   0  0  0  0  0  0  0  0  0  0  0  0
  191.2600  175.8320  138.8620 N   0  0  0  0  0  2  0  0  0  0  0  0
  183.0260  179.2150  142.6280 C   0  0  0  0  0  0  0  0  0  0  0  0
  191.3910  173.6540  136.6160 C   0  0  0  0  0  1  0  0  0  0  0  0
  193.4900  175.6380  137.7920 C   0  0  0  0  0  0  0  0  0  0  0  0
  195.0200  176.6470  136.2830 O   0  0  0  0  0  1  0  0  0  0  0  0
  194.3690  175.5150  136.6710 N   0  0  0  0  0  0  0  0  0  0  0  0
  193.9200  175.4070  138.9480 O   0  0  0  0  0  0  0  0  0  0  0  0
  194.2640  174.1660  134.6000 C   0  0  0  0  0  1  0  0  0  0  0  0
  194.0210  173.0450  136.7470 C   0  0  0  0  0  1  0  0  0  0  0  0
  194.7210  174.2080  136.0530 C   0  0  0  0  0  0  0  0  0  0  0  0
  196.7800  173.3940  135.1070 O   0  0  0  0  0  0  0  0  0  0  0  0
  196.2160  173.9450  136.0850 C   0  0  0  0  0  0  0  0  0  0  0  0
  196.9640  174.2840  137.2200 O   0  0  0  0  0  0  0  0  0  0  0  0
  198.3810  174.3390  137.2210 C   0  0  0  0  0  1  0  0  0  0  0  0
  186.6820  173.1210  135.1940 C   0  0  0  0  0  2  0  0  0  0  0  0
  185.7430  174.1780  134.5940 C   0  0  2  0  0  3  0  0  0  0  0  0
  186.3630  174.4030  135.9660 C   0  0  2  0  0  3  0  0  0  0  0  0
  184.2910  173.7610  134.7750 C   0  0  0  0  0  0  0  0  0  0  0  0
  183.3880  174.6430  134.8400 O   0  0  0  0  0  0  0  0  0  0  0  0
  183.9460  172.3550  134.8510 N   0  0  0  0  0  2  0  0  0  0  0  0
  182.5940  171.8470  134.6470 C   0  0  0  0  0  2  0  0  0  0  0  0
  181.8140  171.8430  135.9720 C   0  0  0  0  0  2  0  0  0  0  0  0
  182.2600  170.7280  136.9090 C   0  0  0  0  0  1  0  0  0  0  0  0
  179.0200  178.3710  138.1480 C   0  0  0  0  0  1  0  0  0  0  0  0
  179.4970  178.1160  139.4570 O   0  0  0  0  0  0  0  0  0  0  0  0
  191.5010  177.7550  142.9820 C   0  0  0  0  0  2  0  0  0  0  0  0
  191.0530  176.5160  143.6880 C   0  0  0  0  0  0  0  0  0  0  0  0
  190.0660  176.5560  144.4630 O   0  0  0  0  0  0  0  0  0  0  0  0
  191.7630  175.2980  143.5090 N   0  0  0  0  0  1  0  0  0  0  0  0
  184.6740  179.6830  144.3030 O   0  0  0  0  0  0  0  0  0  0  0  0
  184.7550  178.7680  146.2620 C   0  0  0  0  0  1  0  0  0  0  0  0
  185.5090  178.9950  145.0990 O   0  0  0  0  0  0  0  0  0  0  0  0
  1 21  1  0  0  0  0
  1 61  1  1  0  0  0
  2 23  1  0  0  0  0
  2 17  1  0  0  0  0
  3 35  1  0  0  0  0
  5 29  2  0  0  0  0
  5  1  1  0  0  0  0
  7  6  1  0  0  0  0
  7 23  1  0  0  0  0
  8  4  1  0  0  0  0
  8 13  1  0  0  0  0
  9 11  1  0  0  0  0
  9 12  1  0  0  0  0
 10 37  1  0  0  0  0
 11 32  1  0  0  0  0
 12 31  2  0  0  0  0
 13 65  1  0  0  0  0
 14  7  1  0  0  0  0
 15 18  2  0  0  0  0
 16 34  1  0  0  0  0
 16 10  2  0  0  0  0
 17 22  1  0  0  0  0
 18 10  1  0  0  0  0
 19 31  1  0  0  0  0
 20  5  1  0  0  0  0
 21 33  2  0  0  0  0
 22 16  1  0  0  0  0
 23 17  1  0  0  0  0
 23 30  1  1  0  0  0
 24 39  1  1  0  0  0
 24 36  1  0  0  0  0
 26 20  2  0  0  0  0
 27  4  2  0  0  0  0
 27 21  1  0  0  0  0
 28 19  2  0  0  0  0
 28 11  1  0  0  0  0
 31  7  1  0  0  0  0
 32 38  1  1  0  0  0
 32 24  1  0  0  0  0
 34  8  2  0  0  0  0
 35 22  2  0  0  0  0
 35 15  1  0  0  0  0
 36 20  1  0  0  0  0
 37 13  2  0  0  0  0
 37 25  1  0  0  0  0
 39 42  2  0  0  0  0
 40 41  1  0  0  0  0
 41 39  1  0  0  0  0
 43 45  1  0  0  0  0
 45 47  1  0  0  0  0
 45 41  1  0  0  0  0
 45 44  1  0  0  0  0
 46 47  2  0  0  0  0
 47 48  1  0  0  0  0
 48 49  1  0  0  0  0
 50 52  1  0  0  0  0
 51 53  1  1  0  0  0
 51 50  1  0  0  0  0
 51 52  1  0  0  0  0
 52 19  1  6  0  0  0
 53 54  2  0  0  0  0
 53 55  1  0  0  0  0
 56 55  1  0  0  0  0
 56 57  1  0  0  0  0
 57 58  1  0  0  0  0
 59 60  1  0  0  0  0
 60 15  1  0  0  0  0
 61 62  1  0  0  0  0
 62 63  2  0  0  0  0
 64 62  1  0  0  0  0
 65 67  1  0  0  0  0
 67 66  1  0  0  0  0
M  END
>  <MODEL>
2

>  <REMARK>
 VINA RESULT:      -3.5      1.562      1.936
  Name = 
  13 active torsions:
  status: ('A' for Active; 'I' for Inactive)
    1  A    between atoms: C_1  and  C_32
    2  A    between atoms: C_4  and  C_46
    3  A    between atoms: C_6  and  C_53
    4  A    between atoms: O_15  and  C_57
    5  A    between atoms: C_16  and  C_37
    6  A    between atoms: C_19  and  C_32
    7  A    between atoms: C_20  and  O_34
    8  A    between atoms: C_22  and  O_26
    9  A    between atoms: C_28  and  C_58
   10  A    between atoms: O_34  and  O_47
   11  A    between atoms: C_46  and  N_66
   12  A    between atoms: N_54  and  C_64
   13  A    between atoms: C_57  and  C_64
                            x       y       z     vdW  Elec       q    Type
                         _______ _______ _______ _____ _____    ______ ____

>  <TORSDO>
F 13

$$$$
=
 OpenBabel11062416123D

 67 72  0  0  1  0  0  0  0  0999 V2000
  184.7750  175.6660  136.1160 C   0  0  1  0  0  3  0  0  0  0  0  0
  189.8860  176.8490  141.8730 C   0  0  0  0  0  2  0  0  0  0  0  0
  193.1020  177.3590  141.4480 F   0  0  0  0  0  0  0  0  0  0  0  0
  188.5820  175.3580  135.9920 C   0  0  0  0  0  3  0  0  0  0  0  0
  184.5710  175.7840  137.5960 C   0  0  0  0  0  0  0  0  0  0  0  0
  188.8980  179.2150  139.5050 F   0  0  0  0  0  0  0  0  0  0  0  0
  188.6670  178.7380  140.7880 C   0  0  0  0  0  0  0  0  0  0  0  0
  189.9320  175.5210  136.5550 C   0  0  0  0  0  0  0  0  0  0  0  0
  184.9280  179.7420  140.5470 C   0  0  0  0  0  2  0  0  0  0  0  0
  192.5080  175.5640  137.7430 C   0  0  0  0  0  0  0  0  0  0  0  0
  184.4000  178.7220  141.4730 N   0  0  0  0  0  0  0  0  0  0  0  0
  186.3900  179.5470  140.2880 C   0  0  0  0  0  3  0  0  0  0  0  0
  191.0270  174.8140  135.9560 C   0  0  0  0  0  0  0  0  0  0  0  0
  189.4110  179.5180  141.6750 F   0  0  0  0  0  0  0  0  0  0  0  0
  194.0110  176.3190  139.5090 C   0  0  0  0  0  0  0  0  0  0  0  0
  191.4250  176.2070  138.3800 C   0  0  0  0  0  0  0  0  0  0  0  0
  190.5150  176.9950  140.5250 N   0  0  0  0  0  0  0  0  0  0  0  0
  193.7850  175.6320  138.3180 C   0  0  0  0  0  3  0  0  0  0  0  0
  186.6080  178.3590  142.4080 C   0  0  0  0  0  0  0  0  0  0  0  0
  183.5970  176.7590  138.1110 C   0  0  0  0  0  0  0  0  0  0  0  0
  186.1960  175.3330  135.6880 C   0  0  0  0  0  0  0  0  0  0  0  0
  191.6250  176.7660  139.6630 C   0  0  0  0  0  0  0  0  0  0  0  0
  189.0780  177.2400  140.8330 C   0  0  1  0  0  0  0  0  0  0  0  0
  182.5490  177.9660  140.0330 C   0  0  1  0  0  3  0  0  0  0  0  0
  193.4170  174.0110  135.9790 C   0  0  0  0  0  1  0  0  0  0  0  0
  182.9740  177.5070  137.2990 O   0  0  0  0  0  0  0  0  0  0  0  0
  187.3880  175.7220  136.4790 C   0  0  0  0  0  3  0  0  0  0  0  0
  185.2630  178.2650  142.5370 C   0  0  0  0  0  3  0  0  0  0  0  0
  185.1860  175.0080  138.3880 O   0  0  0  0  0  0  0  0  0  0  0  0
  188.1710  176.1400  140.2970 C   0  0  0  0  0  1  0  0  0  0  0  0
  187.1990  178.9210  141.1520 C   0  0  0  0  0  0  0  0  0  0  0  0
  182.9670  178.4090  141.4360 C   0  0  1  0  0  3  0  0  0  0  0  0
  186.3630  174.7030  134.5980 O   0  0  0  0  0  0  0  0  0  0  0  0
  190.1430  176.1670  137.7810 C   0  0  0  0  0  3  0  0  0  0  0  0
  192.9230  176.8880  140.1850 C   0  0  0  0  0  0  0  0  0  0  0  0
  183.3190  176.8480  139.5050 N   0  0  0  0  0  2  0  0  0  0  0  0
  192.3050  174.8790  136.5370 C   0  0  0  0  0  0  0  0  0  0  0  0
  182.5430  177.3980  142.4890 C   0  0  0  0  0  1  0  0  0  0  0  0
  181.0620  177.8420  139.7800 C   0  0  0  0  0  0  0  0  0  0  0  0
  180.2990  177.3770  137.5810 O   0  0  0  0  0  1  0  0  0  0  0  0
  180.4700  178.3050  138.5640 N   0  0  0  0  0  0  0  0  0  0  0  0
  180.3290  177.4460  140.7180 O   0  0  0  0  0  0  0  0  0  0  0  0
  179.0690  180.0400  139.6360 C   0  0  0  0  0  1  0  0  0  0  0  0
  178.9310  179.7420  137.2240 C   0  0  0  0  0  1  0  0  0  0  0  0
  179.8900  179.6660  138.4070 C   0  0  0  0  0  0  0  0  0  0  0  0
  182.1170  180.3950  137.8560 O   0  0  0  0  0  0  0  0  0  0  0  0
  180.9600  180.7250  138.2150 C   0  0  0  0  0  0  0  0  0  0  0  0
  180.6680  182.0720  138.4710 O   0  0  0  0  0  0  0  0  0  0  0  0
  180.6530  183.0630  137.4570 C   0  0  0  0  0  1  0  0  0  0  0  0
  186.8940  176.7090  144.2800 C   0  0  0  0  0  2  0  0  0  0  0  0
  187.2840  178.0520  144.9170 C   0  0  2  0  0  3  0  0  0  0  0  0
  187.5630  177.7990  143.4420 C   0  0  2  0  0  3  0  0  0  0  0  0
  188.5850  177.9130  145.6910 C   0  0  0  0  0  0  0  0  0  0  0  0
  188.5610  177.5450  146.9010 O   0  0  0  0  0  0  0  0  0  0  0  0
  189.8500  178.1830  145.0350 N   0  0  0  0  0  2  0  0  0  0  0  0
  191.1370  177.7280  145.5520 C   0  0  0  0  0  2  0  0  0  0  0  0
  191.2660  176.2030  145.4090 C   0  0  0  0  0  2  0  0  0  0  0  0
  191.9310  175.5570  146.6190 C   0  0  0  0  0  1  0  0  0  0  0  0
  196.3400  175.5140  139.6980 C   0  0  0  0  0  1  0  0  0  0  0  0
  195.2950  176.3960  140.0690 O   0  0  0  0  0  0  0  0  0  0  0  0
  183.7590  174.6830  135.5250 C   0  0  0  0  0  2  0  0  0  0  0  0
  182.4600  175.3810  135.2810 C   0  0  0  0  0  0  0  0  0  0  0  0
  182.4470  176.5100  134.7300 O   0  0  0  0  0  0  0  0  0  0  0  0
  181.2410  174.7850  135.7030 N   0  0  0  0  0  1  0  0  0  0  0  0
  190.9050  173.9880  134.8080 O   0  0  0  0  0  0  0  0  0  0  0  0
  189.3300  172.6110  135.3620 C   0  0  0  0  0  1  0  0  0  0  0  0
  190.6440  172.6720  134.8700 O   0  0  0  0  0  0  0  0  0  0  0  0
  1 61  1  1  0  0  0
  1  5  1  0  0  0  0
  4 27  2  0  0  0  0
  4  8  1  0  0  0  0
  5 20  1  0  0  0  0
  5 29  2  0  0  0  0
  6  7  1  0  0  0  0
  7 23  1  0  0  0  0
  7 31  1  0  0  0  0
  7 14  1  0  0  0  0
  8 34  1  0  0  0  0
  9 11  1  0  0  0  0
 10 18  1  0  0  0  0
 10 16  1  0  0  0  0
 11 28  1  0  0  0  0
 12  9  1  0  0  0  0
 12 31  2  0  0  0  0
 13 37  1  0  0  0  0
 13  8  2  0  0  0  0
 15 60  1  0  0  0  0
 15 35  1  0  0  0  0
 16 22  1  0  0  0  0
 17 23  1  0  0  0  0
 17  2  1  0  0  0  0
 18 15  2  0  0  0  0
 19 28  2  0  0  0  0
 20 36  1  0  0  0  0
 21  1  1  0  0  0  0
 21 27  1  0  0  0  0
 22 35  2  0  0  0  0
 22 17  1  0  0  0  0
 23 30  1  6  0  0  0
 23  2  1  0  0  0  0
 24 39  1  1  0  0  0
 24 32  1  0  0  0  0
 25 37  1  0  0  0  0
 26 20  2  0  0  0  0
 31 19  1  0  0  0  0
 32 11  1  0  0  0  0
 32 38  1  1  0  0  0
 33 21  2  0  0  0  0
 34 16  2  0  0  0  0
 35  3  1  0  0  0  0
 36 24  1  0  0  0  0
 37 10  2  0  0  0  0
 39 42  2  0  0  0  0
 40 41  1  0  0  0  0
 41 39  1  0  0  0  0
 44 45  1  0  0  0  0
 45 41  1  0  0  0  0
 45 43  1  0  0  0  0
 46 47  2  0  0  0  0
 47 45  1  0  0  0  0
 47 48  1  0  0  0  0
 49 48  1  0  0  0  0
 50 51  1  0  0  0  0
 51 53  1  1  0  0  0
 52 19  1  6  0  0  0
 52 50  1  0  0  0  0
 52 51  1  0  0  0  0
 53 54  2  0  0  0  0
 55 56  1  0  0  0  0
 55 53  1  0  0  0  0
 57 56  1  0  0  0  0
 57 58  1  0  0  0  0
 59 60  1  0  0  0  0
 62 61  1  0  0  0  0
 62 64  1  0  0  0  0
 63 62  2  0  0  0  0
 65 67  1  0  0  0  0
 65 13  1  0  0  0  0
 67 66  1  0  0  0  0
M  END
>  <MODEL>
3

>  <REMARK>
 VINA RESULT:      -1.9      2.690     11.389
  Name = 
  13 active torsions:
  status: ('A' for Active; 'I' for Inactive)
    1  A    between atoms: C_1  and  C_32
    2  A    between atoms: C_4  and  C_46
    3  A    between atoms: C_6  and  C_53
    4  A    between atoms: O_15  and  C_57
    5  A    between atoms: C_16  and  C_37
    6  A    between atoms: C_19  and  C_32
    7  A    between atoms: C_20  and  O_34
    8  A    between atoms: C_22  and  O_26
    9  A    between atoms: C_28  and  C_58
   10  A    between atoms: O_34  and  O_47
   11  A    between atoms: C_46  and  N_66
   12  A    between atoms: N_54  and  C_64
   13  A    between atoms: C_57  and  C_64
                            x       y       z     vdW  Elec       q    Type
                         _______ _______ _______ _____ _____    ______ ____

>  <TORSDO>
F 13

$$$$
