=
 OpenBabel11062414223D

 45 48  0  0  1  0  0  0  0  0999 V2000
  187.7760  177.6630  143.5490 C   0  0  0  0  0  3  0  0  0  0  0  0
  184.1610  178.5000  142.8360 C   0  0  0  0  0  0  0  0  0  0  0  0
  186.6720  178.1030  145.6620 C   0  0  0  0  0  0  0  0  0  0  0  0
  184.2640  178.7640  145.6270 C   0  0  0  0  0  3  0  0  0  0  0  0
  183.0750  179.0140  144.9430 C   0  0  0  0  0  3  0  0  0  0  0  0
  183.9370  178.1890  140.2540 C   0  0  0  0  0  3  0  0  0  0  0  0
  187.8960  177.7580  144.8840 C   0  0  0  0  0  0  0  0  0  0  0  0
  183.0240  178.8790  143.5550 C   0  0  0  0  0  2  0  0  0  0  0  0
  185.4160  178.3830  144.9300 C   0  0  2  0  0  3  0  0  0  0  0  0
  185.3770  178.2540  143.5210 C   0  0  0  0  0  0  0  0  0  0  0  0
  186.4950  177.9050  142.8570 C   0  0  0  0  0  3  0  0  0  0  0  0
  184.0480  178.3570  141.5400 C   0  0  0  0  0  0  0  0  0  0  0  0
  186.6800  178.1360  146.9220 O   0  0  0  0  0  0  0  0  0  0  0  0
  190.3530  176.8460  147.4280 O   0  0  0  0  0  0  0  0  0  0  0  0
  189.1850  177.5170  145.5000 N   0  0  0  0  0  0  0  0  0  0  0  0
  189.2500  176.9780  146.8320 C   0  0  0  0  0  3  0  0  0  0  0  0
  190.7190  177.8400  144.6640 S   0  0  0  0  0  0  0  0  0  0  0  0
  190.6360  176.2830  143.7370 C   0  0  0  0  0  2  0  0  0  0  0  0
  191.1230  176.5130  142.3150 C   0  0  2  0  0  3  0  0  0  0  0  0
  191.6320  177.9340  142.1840 C   0  0  0  0  0  1  0  0  0  0  0  0
  190.0350  176.3020  141.3690 N   0  0  0  0  0  2  0  0  0  0  0  0
  190.5670  176.4070  140.0740 N   0  0  0  0  0  2  0  0  0  0  0  0
  189.4750  176.7420  139.1710 C   0  0  1  0  0  3  0  0  0  0  0  0
  188.0840  178.6060  139.7850 O   0  0  0  0  0  1  0  0  0  0  0  0
  189.2560  178.2480  139.1170 C   0  0  0  0  0  2  0  0  0  0  0  0
  189.7180  176.0300  137.4940 S   0  0  0  0  0  0  0  0  0  0  0  0
  187.9530  175.7650  137.1200 C   0  0  0  0  0  2  0  0  0  0  0  0
  187.8350  174.9890  135.9000 N   0  0  0  0  0  1  0  0  0  0  0  0
  182.5830  178.1260  139.6350 C   0  0  0  0  0  2  0  0  0  0  0  0
  181.0560  180.0030  140.1340 C   0  0  0  0  0  2  0  0  0  0  0  0
  179.7220  179.9310  139.4040 C   0  0  0  0  0  2  0  0  0  0  0  0
  182.1340  179.5090  139.1810 C   0  0  2  0  0  3  0  0  0  0  0  0
  180.8610  180.7110  137.1420 C   0  0  1  0  0  0  0  0  0  0  0  0
  180.0060  179.7030  137.9250 C   0  0  1  0  0  0  0  0  0  0  0  0
  181.8590  178.4390  136.9070 O   0  0  0  0  0  1  0  0  0  0  0  0
  181.5070  179.4770  137.7810 C   0  0  2  0  0  0  0  0  0  0  0  0
  180.7050  180.6890  135.3220 S   0  0  0  0  0  1  0  0  0  0  0  0
  179.1380  178.6930  137.1770 C   0  0  0  0  0  2  0  0  0  0  0  0
  178.9310  177.5600  137.9700 O   0  0  0  0  0  1  0  0  0  0  0  0
  181.1280  182.0640  137.7960 C   0  0  0  0  0  2  0  0  0  0  0  0
  180.1160  182.9660  137.4540 O   0  0  0  0  0  0  0  0  0  0  0  0
  181.0820  184.3480  135.2590 O   0  0  0  0  0  0  0  0  0  0  0  0
  180.9190  184.3660  136.9400 P   0  0  0  0  0  0  0  0  0  0  0  0
  182.4500  184.4640  137.6560 O   0  0  0  0  0  1  0  0  0  0  0  0
  180.1030  185.5740  137.3420 O   0  0  0  0  0  1  0  0  0  0  0  0
  1  7  2  0  0  0  0
  2 10  1  0  0  0  0
  2  8  1  0  0  0  0
  3 13  2  0  0  0  0
  5  4  2  0  0  0  0
  6 12  2  0  0  0  0
  7 15  1  0  0  0  0
  7  3  1  0  0  0  0
  8  5  1  0  0  0  0
  9  4  1  1  0  0  0
  9  3  1  0  0  0  0
 10  9  1  0  0  0  0
 11 10  2  0  0  0  0
 11  1  1  0  0  0  0
 12  2  2  0  0  0  0
 15 16  1  0  0  0  0
 16 14  2  0  0  0  0
 17 15  1  0  0  0  0
 18 17  1  0  0  0  0
 19 20  1  1  0  0  0
 19 18  1  0  0  0  0
 21 19  1  0  0  0  0
 22 21  1  0  0  0  0
 23 25  1  6  0  0  0
 23 22  1  0  0  0  0
 25 24  1  0  0  0  0
 26 23  1  0  0  0  0
 27 26  1  0  0  0  0
 28 27  1  0  0  0  0
 29  6  1  0  0  0  0
 31 30  1  0  0  0  0
 32 29  1  1  0  0  0
 32 30  1  0  0  0  0
 33 37  1  6  0  0  0
 33 36  1  0  0  0  0
 33 40  1  0  0  0  0
 33 34  1  0  0  0  0
 34 38  1  6  0  0  0
 34 31  1  0  0  0  0
 36 35  1  6  0  0  0
 36 34  1  0  0  0  0
 36 32  1  0  0  0  0
 38 39  1  0  0  0  0
 41 40  1  0  0  0  0
 42 43  2  0  0  0  0
 43 45  1  0  0  0  0
 43 41  1  0  0  0  0
 43 44  1  0  0  0  0
M  END
>  <MODEL>
1

>  <REMARK>
 VINA RESULT:      -8.2      0.000      0.000
  Name = 
  16 active torsions:
  status: ('A' for Active; 'I' for Inactive)
    1  A    between atoms: S_5  and  C_9
    2  A    between atoms: S_5  and  C_35
    3  A    between atoms: C_6  and  C_14
    4  A    between atoms: C_6  and  S_28
    5  A    between atoms: C_8  and  C_27
    6  A    between atoms: P_11  and  O_16
    7  A    between atoms: C_14  and  N_40
    8  A    between atoms: O_16  and  C_20
    9  A    between atoms: N_19  and  C_26
   10  A    between atoms: N_19  and  S_28
   11  A    between atoms: C_20  and  C_25
   12  A    between atoms: C_21  and  C_37
   13  A    between atoms: C_22  and  C_37
   14  A    between atoms: C_23  and  C_35
   15  A    between atoms: N_24  and  C_35
   16  A    between atoms: N_24  and  N_40
                            x       y       z     vdW  Elec       q    Type
                         _______ _______ _______ _____ _____    ______ ____

>  <TORSDO>
F 16

$$$$
=
 OpenBabel11062414223D

 45 48  0  0  1  0  0  0  0  0999 V2000
  188.3230  177.4030  144.0490 C   0  0  0  0  0  3  0  0  0  0  0  0
  184.6960  178.3680  143.6170 C   0  0  0  0  0  0  0  0  0  0  0  0
  187.3880  177.8270  146.2450 C   0  0  0  0  0  0  0  0  0  0  0  0
  185.0060  178.5620  146.3980 C   0  0  0  0  0  3  0  0  0  0  0  0
  183.7800  178.8650  145.8070 C   0  0  0  0  0  3  0  0  0  0  0  0
  184.2780  178.1250  141.0520 C   0  0  0  0  0  3  0  0  0  0  0  0
  188.5420  177.4630  145.3740 C   0  0  0  0  0  0  0  0  0  0  0  0
  183.6260  178.7640  144.4240 C   0  0  0  0  0  2  0  0  0  0  0  0
  186.0930  178.1630  145.6110 C   0  0  2  0  0  3  0  0  0  0  0  0
  185.9490  178.0680  144.2060 C   0  0  0  0  0  0  0  0  0  0  0  0
  187.0050  177.7010  143.4570 C   0  0  0  0  0  3  0  0  0  0  0  0
  184.4860  178.2590  142.3300 C   0  0  0  0  0  0  0  0  0  0  0  0
  187.4870  177.8300  147.5020 O   0  0  0  0  0  0  0  0  0  0  0  0
  191.1340  176.2670  147.6520 O   0  0  0  0  0  0  0  0  0  0  0  0
  189.8620  177.1680  145.8910 N   0  0  0  0  0  0  0  0  0  0  0  0
  190.0010  176.4550  147.1320 C   0  0  0  0  0  3  0  0  0  0  0  0
  191.3490  177.6330  145.0350 S   0  0  0  0  0  0  0  0  0  0  0  0
  191.2680  176.1890  143.9390 C   0  0  0  0  0  2  0  0  0  0  0  0
  191.5910  176.6150  142.5160 C   0  0  2  0  0  3  0  0  0  0  0  0
  191.8270  178.1110  142.4810 C   0  0  0  0  0  1  0  0  0  0  0  0
  190.4860  176.2800  141.6260 N   0  0  0  0  0  2  0  0  0  0  0  0
  190.0110  177.4770  141.0650 N   0  0  0  0  0  2  0  0  0  0  0  0
  189.4160  177.1570  139.7750 C   0  0  1  0  0  3  0  0  0  0  0  0
  187.4200  178.4100  139.2940 O   0  0  0  0  0  1  0  0  0  0  0  0
  188.8070  178.3960  139.1340 C   0  0  0  0  0  2  0  0  0  0  0  0
  190.6070  176.3250  138.6490 S   0  0  0  0  0  0  0  0  0  0  0  0
  190.0670  177.1580  137.1190 C   0  0  0  0  0  2  0  0  0  0  0  0
  190.1580  176.2270  136.0110 N   0  0  0  0  0  1  0  0  0  0  0  0
  182.8820  178.1180  140.5310 C   0  0  0  0  0  2  0  0  0  0  0  0
  183.1530  177.8150  138.0940 C   0  0  0  0  0  2  0  0  0  0  0  0
  181.8890  178.0870  137.2890 C   0  0  0  0  0  2  0  0  0  0  0  0
  182.7400  177.1240  139.3850 C   0  0  2  0  0  3  0  0  0  0  0  0
  180.8510  175.7670  138.0380 C   0  0  1  0  0  0  0  0  0  0  0  0
  180.7500  177.2950  137.9180 C   0  0  1  0  0  0  0  0  0  0  0  0
  180.4130  176.7370  140.2930 O   0  0  0  0  0  1  0  0  0  0  0  0
  181.2870  176.6670  139.1990 C   0  0  2  0  0  0  0  0  0  0  0  0
  179.2880  174.8510  138.2700 S   0  0  0  0  0  1  0  0  0  0  0  0
  179.3960  177.9860  138.0680 C   0  0  0  0  0  2  0  0  0  0  0  0
  179.5810  179.3390  138.3690 O   0  0  0  0  0  1  0  0  0  0  0  0
  181.9480  175.0690  137.2380 C   0  0  0  0  0  2  0  0  0  0  0  0
  181.8540  173.6850  137.4100 O   0  0  0  0  0  0  0  0  0  0  0  0
  182.5770  171.7600  135.5560 O   0  0  0  0  0  0  0  0  0  0  0  0
  183.1350  173.0350  136.5130 P   0  0  0  0  0  0  0  0  0  0  0  0
  184.3540  172.4740  137.5460 O   0  0  0  0  0  1  0  0  0  0  0  0
  183.7020  174.1120  135.6150 O   0  0  0  0  0  1  0  0  0  0  0  0
  1  7  2  0  0  0  0
  2 10  1  0  0  0  0
  2  8  1  0  0  0  0
  3 13  2  0  0  0  0
  5  4  2  0  0  0  0
  6 12  2  0  0  0  0
  7 15  1  0  0  0  0
  7  3  1  0  0  0  0
  8  5  1  0  0  0  0
  9  3  1  0  0  0  0
  9  4  1  1  0  0  0
 10  9  1  0  0  0  0
 11  1  1  0  0  0  0
 11 10  2  0  0  0  0
 12  2  2  0  0  0  0
 15 16  1  0  0  0  0
 16 14  2  0  0  0  0
 17 15  1  0  0  0  0
 18 17  1  0  0  0  0
 19 20  1  1  0  0  0
 19 18  1  0  0  0  0
 21 19  1  0  0  0  0
 22 21  1  0  0  0  0
 23 25  1  6  0  0  0
 23 22  1  0  0  0  0
 25 24  1  0  0  0  0
 26 23  1  0  0  0  0
 27 26  1  0  0  0  0
 28 27  1  0  0  0  0
 29  6  1  0  0  0  0
 30 32  1  0  0  0  0
 31 34  1  0  0  0  0
 31 30  1  0  0  0  0
 32 29  1  1  0  0  0
 33 37  1  1  0  0  0
 33 36  1  0  0  0  0
 34 33  1  0  0  0  0
 34 38  1  1  0  0  0
 34 36  1  0  0  0  0
 36 32  1  0  0  0  0
 36 35  1  1  0  0  0
 38 39  1  0  0  0  0
 40 41  1  0  0  0  0
 40 33  1  0  0  0  0
 42 43  2  0  0  0  0
 43 41  1  0  0  0  0
 43 44  1  0  0  0  0
 45 43  1  0  0  0  0
M  END
>  <MODEL>
2

>  <REMARK>
 VINA RESULT:      -7.9      2.981      4.484
  Name = 
  16 active torsions:
  status: ('A' for Active; 'I' for Inactive)
    1  A    between atoms: S_5  and  C_9
    2  A    between atoms: S_5  and  C_35
    3  A    between atoms: C_6  and  C_14
    4  A    between atoms: C_6  and  S_28
    5  A    between atoms: C_8  and  C_27
    6  A    between atoms: P_11  and  O_16
    7  A    between atoms: C_14  and  N_40
    8  A    between atoms: O_16  and  C_20
    9  A    between atoms: N_19  and  C_26
   10  A    between atoms: N_19  and  S_28
   11  A    between atoms: C_20  and  C_25
   12  A    between atoms: C_21  and  C_37
   13  A    between atoms: C_22  and  C_37
   14  A    between atoms: C_23  and  C_35
   15  A    between atoms: N_24  and  C_35
   16  A    between atoms: N_24  and  N_40
                            x       y       z     vdW  Elec       q    Type
                         _______ _______ _______ _____ _____    ______ ____

>  <TORSDO>
F 16

$$$$
=
 OpenBabel11062414223D

 45 48  0  0  1  0  0  0  0  0999 V2000
  188.2830  177.3030  143.0740 C   0  0  0  0  0  3  0  0  0  0  0  0
  185.1460  178.4870  144.8150 C   0  0  0  0  0  0  0  0  0  0  0  0
  188.7220  177.3700  145.4570 C   0  0  0  0  0  0  0  0  0  0  0  0
  186.9060  178.1700  146.9750 C   0  0  0  0  0  3  0  0  0  0  0  0
  185.6070  178.6260  147.1920 C   0  0  0  0  0  3  0  0  0  0  0  0
  183.4030  178.7240  142.8860 C   0  0  0  0  0  3  0  0  0  0  0  0
  189.1770  177.1160  144.0600 C   0  0  0  0  0  0  0  0  0  0  0  0
  184.7310  178.7800  146.1170 C   0  0  0  0  0  2  0  0  0  0  0  0
  187.3460  177.8690  145.6810 C   0  0  2  0  0  3  0  0  0  0  0  0
  186.4680  178.0320  144.5820 C   0  0  0  0  0  0  0  0  0  0  0  0
  186.9050  177.7590  143.3400 C   0  0  0  0  0  3  0  0  0  0  0  0
  184.2730  178.6190  143.8490 C   0  0  0  0  0  0  0  0  0  0  0  0
  189.4720  177.1440  146.4450 O   0  0  0  0  0  0  0  0  0  0  0  0
  192.3240  175.2770  144.2860 O   0  0  0  0  0  0  0  0  0  0  0  0
  190.5170  176.6760  143.7320 N   0  0  0  0  0  0  0  0  0  0  0  0
  191.1270  175.6160  144.4880 C   0  0  0  0  0  3  0  0  0  0  0  0
  191.4530  177.3810  142.3950 S   0  0  0  0  0  0  0  0  0  0  0  0
  190.3230  176.7150  141.1430 C   0  0  0  0  0  2  0  0  0  0  0  0
  191.0350  176.6500  139.8010 C   0  0  2  0  0  3  0  0  0  0  0  0
  192.2900  177.4970  139.8580 C   0  0  0  0  0  1  0  0  0  0  0  0
  190.1650  177.1480  138.7430 N   0  0  0  0  0  2  0  0  0  0  0  0
  188.8430  177.0810  139.2090 N   0  0  0  0  0  2  0  0  0  0  0  0
  188.1510  178.2820  138.7600 C   0  0  1  0  0  3  0  0  0  0  0  0
  188.0790  179.6860  136.8090 O   0  0  0  0  0  1  0  0  0  0  0  0
  188.9340  178.9810  137.6580 C   0  0  0  0  0  2  0  0  0  0  0  0
  186.4210  177.9360  138.2490 S   0  0  0  0  0  0  0  0  0  0  0  0
  185.6170  178.6920  139.7010 C   0  0  0  0  0  2  0  0  0  0  0  0
  184.6670  179.6930  139.2540 N   0  0  0  0  0  1  0  0  0  0  0  0
  181.9570  178.8710  143.2150 C   0  0  0  0  0  2  0  0  0  0  0  0
  179.7400  179.6450  142.4460 C   0  0  0  0  0  2  0  0  0  0  0  0
  178.9310  178.5840  141.7130 C   0  0  0  0  0  2  0  0  0  0  0  0
  181.1980  179.4780  142.0410 C   0  0  2  0  0  3  0  0  0  0  0  0
  180.4190  178.8790  139.5400 C   0  0  1  0  0  0  0  0  0  0  0  0
  179.8170  177.9800  140.6310 C   0  0  1  0  0  0  0  0  0  0  0  0
  182.2550  177.6320  140.6770 O   0  0  0  0  0  1  0  0  0  0  0  0
  181.2140  178.5620  140.8110 C   0  0  2  0  0  0  0  0  0  0  0  0
  180.9840  178.0560  138.0100 S   0  0  0  0  0  1  0  0  0  0  0  0
  179.7790  176.4650  140.4400 C   0  0  0  0  0  2  0  0  0  0  0  0
  179.1530  175.8600  141.5340 O   0  0  0  0  0  1  0  0  0  0  0  0
  179.8530  180.2880  139.3980 C   0  0  0  0  0  2  0  0  0  0  0  0
  179.5890  180.5610  138.0520 O   0  0  0  0  0  0  0  0  0  0  0  0
  181.8490  182.1360  138.3190 O   0  0  0  0  0  1  0  0  0  0  0  0
  180.2540  182.0920  137.7660 P   0  0  0  0  0  0  0  0  0  0  0  0
  179.3490  183.2850  138.5570 O   0  0  0  0  0  1  0  0  0  0  0  0
  180.2410  182.3630  136.2790 O   0  0  0  0  0  0  0  0  0  0  0  0
  1 11  1  0  0  0  0
  1  7  2  0  0  0  0
  2  8  1  0  0  0  0
  3  9  1  0  0  0  0
  3 13  2  0  0  0  0
  4  5  2  0  0  0  0
  6 29  1  0  0  0  0
  6 12  2  0  0  0  0
  7  3  1  0  0  0  0
  8  5  1  0  0  0  0
  9  4  1  1  0  0  0
 10  2  1  0  0  0  0
 10  9  1  0  0  0  0
 11 10  2  0  0  0  0
 12  2  2  0  0  0  0
 14 16  2  0  0  0  0
 15  7  1  0  0  0  0
 15 16  1  0  0  0  0
 17 15  1  0  0  0  0
 18 17  1  0  0  0  0
 19 20  1  1  0  0  0
 19 18  1  0  0  0  0
 21 22  1  0  0  0  0
 21 19  1  0  0  0  0
 23 25  1  6  0  0  0
 23 22  1  0  0  0  0
 24 25  1  0  0  0  0
 26 23  1  0  0  0  0
 26 27  1  0  0  0  0
 28 27  1  0  0  0  0
 31 30  1  0  0  0  0
 32 30  1  0  0  0  0
 32 29  1  1  0  0  0
 33 37  1  6  0  0  0
 33 34  1  0  0  0  0
 33 36  1  0  0  0  0
 34 38  1  6  0  0  0
 34 36  1  0  0  0  0
 34 31  1  0  0  0  0
 36 35  1  6  0  0  0
 36 32  1  0  0  0  0
 38 39  1  0  0  0  0
 40 33  1  0  0  0  0
 41 40  1  0  0  0  0
 43 41  1  0  0  0  0
 43 42  1  0  0  0  0
 43 44  1  0  0  0  0
 45 43  2  0  0  0  0
M  END
>  <MODEL>
3

>  <REMARK>
 VINA RESULT:      -7.7      2.335      3.074
  Name = 
  16 active torsions:
  status: ('A' for Active; 'I' for Inactive)
    1  A    between atoms: S_5  and  C_9
    2  A    between atoms: S_5  and  C_35
    3  A    between atoms: C_6  and  C_14
    4  A    between atoms: C_6  and  S_28
    5  A    between atoms: C_8  and  C_27
    6  A    between atoms: P_11  and  O_16
    7  A    between atoms: C_14  and  N_40
    8  A    between atoms: O_16  and  C_20
    9  A    between atoms: N_19  and  C_26
   10  A    between atoms: N_19  and  S_28
   11  A    between atoms: C_20  and  C_25
   12  A    between atoms: C_21  and  C_37
   13  A    between atoms: C_22  and  C_37
   14  A    between atoms: C_23  and  C_35
   15  A    between atoms: N_24  and  C_35
   16  A    between atoms: N_24  and  N_40
                            x       y       z     vdW  Elec       q    Type
                         _______ _______ _______ _____ _____    ______ ____

>  <TORSDO>
F 16

$$$$
=
 OpenBabel11062414223D

 45 48  0  0  1  0  0  0  0  0999 V2000
  187.9240  177.4540  142.8420 C   0  0  0  0  0  3  0  0  0  0  0  0
  184.3190  178.5120  143.2380 C   0  0  0  0  0  0  0  0  0  0  0  0
  187.4810  177.7540  145.2060 C   0  0  0  0  0  0  0  0  0  0  0  0
  185.2070  178.5230  145.8980 C   0  0  0  0  0  3  0  0  0  0  0  0
  183.8960  178.8850  145.5970 C   0  0  0  0  0  3  0  0  0  0  0  0
  183.3680  178.4420  140.8080 C   0  0  0  0  0  3  0  0  0  0  0  0
  188.4160  177.4250  144.0920 C   0  0  0  0  0  0  0  0  0  0  0  0
  183.4540  178.8770  144.2740 C   0  0  0  0  0  2  0  0  0  0  0  0
  186.0930  178.1540  144.8790 C   0  0  2  0  0  3  0  0  0  0  0  0
  185.6570  178.1520  143.5330 C   0  0  0  0  0  0  0  0  0  0  0  0
  186.5210  177.8140  142.5580 C   0  0  0  0  0  3  0  0  0  0  0  0
  183.8420  178.4900  142.0190 C   0  0  0  0  0  0  0  0  0  0  0  0
  187.8400  177.6750  146.4120 O   0  0  0  0  0  0  0  0  0  0  0  0
  191.7230  177.3290  145.6380 O   0  0  0  0  0  0  0  0  0  0  0  0
  189.8050  177.0730  144.3020 N   0  0  0  0  0  0  0  0  0  0  0  0
  190.4910  177.5410  145.4760 C   0  0  0  0  0  3  0  0  0  0  0  0
  190.7130  176.0480  143.1680 S   0  0  0  0  0  0  0  0  0  0  0  0
  191.2820  177.4760  142.2050 C   0  0  0  0  0  2  0  0  0  0  0  0
  191.4030  177.0840  140.7410 C   0  0  2  0  0  3  0  0  0  0  0  0
  192.7530  177.5270  140.2140 C   0  0  0  0  0  1  0  0  0  0  0  0
  190.3480  177.7170  139.9600 N   0  0  0  0  0  2  0  0  0  0  0  0
  189.7210  176.7180  139.1990 N   0  0  0  0  0  2  0  0  0  0  0  0
  190.0540  176.9500  137.8000 C   0  0  1  0  0  3  0  0  0  0  0  0
  191.0440  174.7910  138.1800 O   0  0  0  0  0  1  0  0  0  0  0  0
  190.7440  175.7350  137.1960 C   0  0  0  0  0  2  0  0  0  0  0  0
  188.5900  177.4600  136.8130 S   0  0  0  0  0  0  0  0  0  0  0  0
  188.1410  175.7930  136.2260 C   0  0  0  0  0  2  0  0  0  0  0  0
  187.1850  175.2040  137.1440 N   0  0  0  0  0  1  0  0  0  0  0  0
  181.8950  178.4950  140.5930 C   0  0  0  0  0  2  0  0  0  0  0  0
  182.1490  176.1410  139.8880 C   0  0  0  0  0  2  0  0  0  0  0  0
  183.2420  175.9170  138.8510 C   0  0  0  0  0  2  0  0  0  0  0  0
  181.4640  177.4590  139.5610 C   0  0  2  0  0  3  0  0  0  0  0  0
  181.7040  176.9180  136.9400 C   0  0  1  0  0  0  0  0  0  0  0  0
  183.0280  176.9120  137.7180 C   0  0  1  0  0  0  0  0  0  0  0  0
  182.1260  179.2000  137.8520 O   0  0  0  0  0  1  0  0  0  0  0  0
  181.9010  177.8470  138.1420 C   0  0  2  0  0  0  0  0  0  0  0  0
  181.7160  177.7140  135.2960 S   0  0  0  0  0  1  0  0  0  0  0  0
  184.2560  177.6170  137.1450 C   0  0  0  0  0  2  0  0  0  0  0  0
  185.2090  177.8100  138.1500 O   0  0  0  0  0  1  0  0  0  0  0  0
  180.7760  175.7200  137.1200 C   0  0  0  0  0  2  0  0  0  0  0  0
  181.0860  174.7330  136.1800 O   0  0  0  0  0  0  0  0  0  0  0  0
  182.2160  172.3740  137.0860 O   0  0  0  0  0  1  0  0  0  0  0  0
  180.7840  173.2600  136.9610 P   0  0  0  0  0  0  0  0  0  0  0  0
  179.6360  172.3610  136.1020 O   0  0  0  0  0  0  0  0  0  0  0  0
  180.2570  173.5420  138.3510 O   0  0  0  0  0  1  0  0  0  0  0  0
  1  7  2  0  0  0  0
  2 10  1  0  0  0  0
  2  8  1  0  0  0  0
  3 13  2  0  0  0  0
  5  4  2  0  0  0  0
  6 12  2  0  0  0  0
  7 15  1  0  0  0  0
  7  3  1  0  0  0  0
  8  5  1  0  0  0  0
  9  3  1  0  0  0  0
  9  4  1  1  0  0  0
 10  9  1  0  0  0  0
 11  1  1  0  0  0  0
 11 10  2  0  0  0  0
 12  2  2  0  0  0  0
 15 16  1  0  0  0  0
 16 14  2  0  0  0  0
 17 15  1  0  0  0  0
 18 17  1  0  0  0  0
 19 20  1  6  0  0  0
 19 18  1  0  0  0  0
 21 19  1  0  0  0  0
 22 21  1  0  0  0  0
 23 25  1  6  0  0  0
 23 22  1  0  0  0  0
 25 24  1  0  0  0  0
 26 23  1  0  0  0  0
 27 26  1  0  0  0  0
 27 28  1  0  0  0  0
 29  6  1  0  0  0  0
 31 30  1  0  0  0  0
 32 30  1  0  0  0  0
 32 29  1  1  0  0  0
 33 37  1  6  0  0  0
 33 40  1  0  0  0  0
 33 34  1  0  0  0  0
 33 36  1  0  0  0  0
 34 38  1  6  0  0  0
 34 36  1  0  0  0  0
 34 31  1  0  0  0  0
 36 35  1  6  0  0  0
 36 32  1  0  0  0  0
 38 39  1  0  0  0  0
 41 43  1  0  0  0  0
 41 40  1  0  0  0  0
 43 42  1  0  0  0  0
 43 45  1  0  0  0  0
 44 43  2  0  0  0  0
M  END
>  <MODEL>
4

>  <REMARK>
 VINA RESULT:      -7.6      2.968      4.571
  Name = 
  16 active torsions:
  status: ('A' for Active; 'I' for Inactive)
    1  A    between atoms: S_5  and  C_9
    2  A    between atoms: S_5  and  C_35
    3  A    between atoms: C_6  and  C_14
    4  A    between atoms: C_6  and  S_28
    5  A    between atoms: C_8  and  C_27
    6  A    between atoms: P_11  and  O_16
    7  A    between atoms: C_14  and  N_40
    8  A    between atoms: O_16  and  C_20
    9  A    between atoms: N_19  and  C_26
   10  A    between atoms: N_19  and  S_28
   11  A    between atoms: C_20  and  C_25
   12  A    between atoms: C_21  and  C_37
   13  A    between atoms: C_22  and  C_37
   14  A    between atoms: C_23  and  C_35
   15  A    between atoms: N_24  and  C_35
   16  A    between atoms: N_24  and  N_40
                            x       y       z     vdW  Elec       q    Type
                         _______ _______ _______ _____ _____    ______ ____

>  <TORSDO>
F 16

$$$$
=
 OpenBabel11062414223D

 45 48  0  0  1  0  0  0  0  0999 V2000
  188.1770  177.3850  143.9380 C   0  0  0  0  0  3  0  0  0  0  0  0
  184.5500  178.3530  143.5160 C   0  0  0  0  0  0  0  0  0  0  0  0
  187.2610  177.8570  146.1320 C   0  0  0  0  0  0  0  0  0  0  0  0
  184.8830  178.6040  146.2890 C   0  0  0  0  0  3  0  0  0  0  0  0
  183.6540  178.8980  145.7020 C   0  0  0  0  0  3  0  0  0  0  0  0
  184.1100  178.0600  140.9590 C   0  0  0  0  0  3  0  0  0  0  0  0
  188.4070  177.4710  145.2590 C   0  0  0  0  0  0  0  0  0  0  0  0
  183.4880  178.7700  144.3230 C   0  0  0  0  0  2  0  0  0  0  0  0
  185.9620  178.1840  145.5030 C   0  0  2  0  0  3  0  0  0  0  0  0
  185.8070  178.0610  144.1010 C   0  0  0  0  0  0  0  0  0  0  0  0
  186.8550  177.6760  143.3510 C   0  0  0  0  0  3  0  0  0  0  0  0
  184.3290  178.2190  142.2320 C   0  0  0  0  0  0  0  0  0  0  0  0
  187.3710  177.8850  147.3880 O   0  0  0  0  0  0  0  0  0  0  0  0
  191.0130  176.3050  147.5370 O   0  0  0  0  0  0  0  0  0  0  0  0
  189.7300  177.1830  145.7710 N   0  0  0  0  0  0  0  0  0  0  0  0
  189.8770  176.4870  147.0220 C   0  0  0  0  0  3  0  0  0  0  0  0
  191.2120  177.6330  144.8990 S   0  0  0  0  0  0  0  0  0  0  0  0
  191.0090  176.2920  143.6950 C   0  0  0  0  0  2  0  0  0  0  0  0
  191.4140  176.7850  142.3140 C   0  0  2  0  0  3  0  0  0  0  0  0
  192.0380  178.1600  142.4370 C   0  0  0  0  0  1  0  0  0  0  0  0
  190.2480  176.8600  141.4440 N   0  0  0  0  0  2  0  0  0  0  0  0
  190.5040  176.0640  140.3160 N   0  0  0  0  0  2  0  0  0  0  0  0
  190.4880  176.9310  139.1470 C   0  0  1  0  0  3  0  0  0  0  0  0
  192.8410  176.8100  138.6620 O   0  0  0  0  0  1  0  0  0  0  0  0
  191.5700  176.5300  138.1550 C   0  0  0  0  0  2  0  0  0  0  0  0
  188.8310  176.9970  138.3540 S   0  0  0  0  0  0  0  0  0  0  0  0
  189.2490  178.2460  137.0930 C   0  0  0  0  0  2  0  0  0  0  0  0
  188.9070  179.5630  137.5930 N   0  0  0  0  0  1  0  0  0  0  0  0
  182.7100  178.0470  140.4500 C   0  0  0  0  0  2  0  0  0  0  0  0
  183.7400  176.9700  138.4790 C   0  0  0  0  0  2  0  0  0  0  0  0
  183.3020  177.5630  137.1470 C   0  0  0  0  0  2  0  0  0  0  0  0
  182.5290  176.9570  139.4000 C   0  0  2  0  0  3  0  0  0  0  0  0
  180.9620  176.3310  137.3090 C   0  0  1  0  0  0  0  0  0  0  0  0
  181.7800  177.6190  137.1330 C   0  0  1  0  0  0  0  0  0  0  0  0
  180.2520  177.9910  139.0290 O   0  0  0  0  0  1  0  0  0  0  0  0
  181.2980  177.2090  138.5190 C   0  0  2  0  0  0  0  0  0  0  0  0
  179.2260  176.3710  136.7420 S   0  0  0  0  0  1  0  0  0  0  0  0
  181.1160  178.8780  136.5760 C   0  0  0  0  0  2  0  0  0  0  0  0
  181.3370  178.9650  135.1990 O   0  0  0  0  0  1  0  0  0  0  0  0
  181.7020  175.0040  137.1750 C   0  0  0  0  0  2  0  0  0  0  0  0
  181.0900  174.0350  137.9760 O   0  0  0  0  0  0  0  0  0  0  0  0
  180.9560  173.1570  135.3540 O   0  0  0  0  0  0  0  0  0  0  0  0
  180.8960  172.6830  136.9740 P   0  0  0  0  0  0  0  0  0  0  0  0
  179.4140  171.9250  137.2860 O   0  0  0  0  0  1  0  0  0  0  0  0
  182.0200  171.7070  137.2430 O   0  0  0  0  0  1  0  0  0  0  0  0
  1  7  2  0  0  0  0
  2 10  1  0  0  0  0
  2  8  1  0  0  0  0
  3 13  2  0  0  0  0
  5  4  2  0  0  0  0
  6 12  2  0  0  0  0
  7 15  1  0  0  0  0
  7  3  1  0  0  0  0
  8  5  1  0  0  0  0
  9  3  1  0  0  0  0
  9  4  1  1  0  0  0
 10  9  1  0  0  0  0
 11  1  1  0  0  0  0
 11 10  2  0  0  0  0
 12  2  2  0  0  0  0
 15 16  1  0  0  0  0
 16 14  2  0  0  0  0
 17 15  1  0  0  0  0
 18 17  1  0  0  0  0
 19 20  1  1  0  0  0
 19 18  1  0  0  0  0
 21 19  1  0  0  0  0
 22 21  1  0  0  0  0
 23 25  1  6  0  0  0
 23 22  1  0  0  0  0
 25 24  1  0  0  0  0
 26 23  1  0  0  0  0
 27 28  1  0  0  0  0
 27 26  1  0  0  0  0
 29  6  1  0  0  0  0
 30 32  1  0  0  0  0
 31 30  1  0  0  0  0
 32 29  1  1  0  0  0
 33 37  1  6  0  0  0
 33 36  1  0  0  0  0
 34 38  1  6  0  0  0
 34 31  1  0  0  0  0
 34 33  1  0  0  0  0
 34 36  1  0  0  0  0
 36 35  1  1  0  0  0
 36 32  1  0  0  0  0
 39 38  1  0  0  0  0
 40 33  1  0  0  0  0
 40 41  1  0  0  0  0
 42 43  2  0  0  0  0
 43 45  1  0  0  0  0
 43 44  1  0  0  0  0
 43 41  1  0  0  0  0
M  END
>  <MODEL>
5

>  <REMARK>
 VINA RESULT:      -7.6      3.089      4.650
  Name = 
  16 active torsions:
  status: ('A' for Active; 'I' for Inactive)
    1  A    between atoms: S_5  and  C_9
    2  A    between atoms: S_5  and  C_35
    3  A    between atoms: C_6  and  C_14
    4  A    between atoms: C_6  and  S_28
    5  A    between atoms: C_8  and  C_27
    6  A    between atoms: P_11  and  O_16
    7  A    between atoms: C_14  and  N_40
    8  A    between atoms: O_16  and  C_20
    9  A    between atoms: N_19  and  C_26
   10  A    between atoms: N_19  and  S_28
   11  A    between atoms: C_20  and  C_25
   12  A    between atoms: C_21  and  C_37
   13  A    between atoms: C_22  and  C_37
   14  A    between atoms: C_23  and  C_35
   15  A    between atoms: N_24  and  C_35
   16  A    between atoms: N_24  and  N_40
                            x       y       z     vdW  Elec       q    Type
                         _______ _______ _______ _____ _____    ______ ____

>  <TORSDO>
F 16

$$$$
=
 OpenBabel11062414223D

 45 48  0  0  1  0  0  0  0  0999 V2000
  186.6730  177.8690  143.9190 C   0  0  0  0  0  3  0  0  0  0  0  0
  183.4680  178.5980  142.0560 C   0  0  0  0  0  0  0  0  0  0  0  0
  184.9580  178.3990  145.5480 C   0  0  0  0  0  0  0  0  0  0  0  0
  182.6830  179.0110  144.7170 C   0  0  0  0  0  3  0  0  0  0  0  0
  181.7710  179.2020  143.6810 C   0  0  0  0  0  3  0  0  0  0  0  0
  184.0720  178.1470  139.5570 C   0  0  0  0  0  3  0  0  0  0  0  0
  186.3660  178.0360  145.2160 C   0  0  0  0  0  0  0  0  0  0  0  0
  182.1620  178.9930  142.3570 C   0  0  0  0  0  2  0  0  0  0  0  0
  183.9970  178.6160  144.4420 C   0  0  2  0  0  3  0  0  0  0  0  0
  184.4060  178.4110  143.1020 C   0  0  0  0  0  0  0  0  0  0  0  0
  185.6760  178.0500  142.8460 C   0  0  0  0  0  3  0  0  0  0  0  0
  183.7710  178.3850  140.8010 C   0  0  0  0  0  0  0  0  0  0  0  0
  184.5670  178.4980  146.7420 O   0  0  0  0  0  0  0  0  0  0  0  0
  188.0990  178.2870  148.4210 O   0  0  0  0  0  0  0  0  0  0  0  0
  187.3930  177.8530  146.2200 N   0  0  0  0  0  0  0  0  0  0  0  0
  187.1860  178.3490  147.5540 C   0  0  0  0  0  3  0  0  0  0  0  0
  188.9180  177.0050  145.8830 S   0  0  0  0  0  0  0  0  0  0  0  0
  189.6560  178.4680  145.1050 C   0  0  0  0  0  2  0  0  0  0  0  0
  190.5310  178.0360  143.9390 C   0  0  2  0  0  3  0  0  0  0  0  0
  191.8150  178.8410  143.9510 C   0  0  0  0  0  1  0  0  0  0  0  0
  189.8350  178.2550  142.6770 N   0  0  0  0  0  2  0  0  0  0  0  0
  189.5630  176.9980  142.1150 N   0  0  0  0  0  2  0  0  0  0  0  0
  189.2230  177.2020  140.7140 C   0  0  1  0  0  3  0  0  0  0  0  0
  187.4710  178.6300  139.8910 O   0  0  0  0  0  1  0  0  0  0  0  0
  188.7410  178.6250  140.4720 C   0  0  0  0  0  2  0  0  0  0  0  0
  190.6060  176.7520  139.5920 S   0  0  0  0  0  0  0  0  0  0  0  0
  189.5890  176.4680  138.1050 C   0  0  0  0  0  2  0  0  0  0  0  0
  189.7600  177.5800  137.1900 N   0  0  0  0  0  1  0  0  0  0  0  0
  182.9830  178.0260  138.5470 C   0  0  0  0  0  2  0  0  0  0  0  0
  183.3040  177.1150  136.2730 C   0  0  0  0  0  2  0  0  0  0  0  0
  182.0080  176.7610  135.5560 C   0  0  0  0  0  2  0  0  0  0  0  0
  183.1380  176.7430  137.7400 C   0  0  2  0  0  3  0  0  0  0  0  0
  181.7400  174.5660  137.0150 C   0  0  1  0  0  0  0  0  0  0  0  0
  181.1740  175.8940  136.4900 C   0  0  1  0  0  0  0  0  0  0  0  0
  181.0530  175.9820  138.9490 O   0  0  0  0  0  1  0  0  0  0  0  0
  181.8930  175.8520  137.8330 C   0  0  2  0  0  0  0  0  0  0  0  0
  180.5350  173.3460  137.6470 S   0  0  0  0  0  1  0  0  0  0  0  0
  179.6760  176.1760  136.5800 C   0  0  0  0  0  2  0  0  0  0  0  0
  179.1510  176.3890  135.3010 O   0  0  0  0  0  1  0  0  0  0  0  0
  182.9880  174.0130  136.3320 C   0  0  0  0  0  2  0  0  0  0  0  0
  183.6870  173.1860  137.2170 O   0  0  0  0  0  0  0  0  0  0  0  0
  185.5280  171.9830  135.5360 O   0  0  0  0  0  0  0  0  0  0  0  0
  185.2920  173.2070  136.6750 P   0  0  0  0  0  0  0  0  0  0  0  0
  186.3560  172.9840  137.9740 O   0  0  0  0  0  1  0  0  0  0  0  0
  185.5730  174.5440  136.0270 O   0  0  0  0  0  1  0  0  0  0  0  0
  1  7  2  0  0  0  0
  2  8  1  0  0  0  0
  2 10  1  0  0  0  0
  3 13  2  0  0  0  0
  5  4  2  0  0  0  0
  6 12  2  0  0  0  0
  7  3  1  0  0  0  0
  7 15  1  0  0  0  0
  8  5  1  0  0  0  0
  9  4  1  1  0  0  0
  9  3  1  0  0  0  0
 10  9  1  0  0  0  0
 11 10  2  0  0  0  0
 11  1  1  0  0  0  0
 12  2  2  0  0  0  0
 15 16  1  0  0  0  0
 16 14  2  0  0  0  0
 17 15  1  0  0  0  0
 18 17  1  0  0  0  0
 19 20  1  6  0  0  0
 19 18  1  0  0  0  0
 21 19  1  0  0  0  0
 22 21  1  0  0  0  0
 23 25  1  1  0  0  0
 23 22  1  0  0  0  0
 24 25  1  0  0  0  0
 26 23  1  0  0  0  0
 27 26  1  0  0  0  0
 28 27  1  0  0  0  0
 29  6  1  0  0  0  0
 30 32  1  0  0  0  0
 31 30  1  0  0  0  0
 31 34  1  0  0  0  0
 32 36  1  0  0  0  0
 32 29  1  1  0  0  0
 33 37  1  1  0  0  0
 33 36  1  0  0  0  0
 34 38  1  6  0  0  0
 34 33  1  0  0  0  0
 34 36  1  0  0  0  0
 36 35  1  1  0  0  0
 39 38  1  0  0  0  0
 40 33  1  0  0  0  0
 40 41  1  0  0  0  0
 42 43  2  0  0  0  0
 43 41  1  0  0  0  0
 43 44  1  0  0  0  0
 45 43  1  0  0  0  0
M  END
>  <MODEL>
6

>  <REMARK>
 VINA RESULT:      -7.4      3.823      5.006
  Name = 
  16 active torsions:
  status: ('A' for Active; 'I' for Inactive)
    1  A    between atoms: S_5  and  C_9
    2  A    between atoms: S_5  and  C_35
    3  A    between atoms: C_6  and  C_14
    4  A    between atoms: C_6  and  S_28
    5  A    between atoms: C_8  and  C_27
    6  A    between atoms: P_11  and  O_16
    7  A    between atoms: C_14  and  N_40
    8  A    between atoms: O_16  and  C_20
    9  A    between atoms: N_19  and  C_26
   10  A    between atoms: N_19  and  S_28
   11  A    between atoms: C_20  and  C_25
   12  A    between atoms: C_21  and  C_37
   13  A    between atoms: C_22  and  C_37
   14  A    between atoms: C_23  and  C_35
   15  A    between atoms: N_24  and  C_35
   16  A    between atoms: N_24  and  N_40
                            x       y       z     vdW  Elec       q    Type
                         _______ _______ _______ _____ _____    ______ ____

>  <TORSDO>
F 16

$$$$
=
 OpenBabel11062414223D

 45 48  0  0  1  0  0  0  0  0999 V2000
  188.1410  177.4510  142.6010 C   0  0  0  0  0  3  0  0  0  0  0  0
  184.8590  178.4830  144.1630 C   0  0  0  0  0  0  0  0  0  0  0  0
  188.4070  177.4150  145.0100 C   0  0  0  0  0  0  0  0  0  0  0  0
  186.4690  178.1040  146.4280 C   0  0  0  0  0  3  0  0  0  0  0  0
  185.1470  178.5200  146.5710 C   0  0  0  0  0  3  0  0  0  0  0  0
  183.2520  178.7710  142.1260 C   0  0  0  0  0  3  0  0  0  0  0  0
  188.9670  177.2370  143.6400 C   0  0  0  0  0  0  0  0  0  0  0  0
  184.3460  178.7060  145.4440 C   0  0  0  0  0  2  0  0  0  0  0  0
  187.0070  177.8740  145.1560 C   0  0  2  0  0  3  0  0  0  0  0  0
  186.2050  178.0690  144.0060 C   0  0  0  0  0  0  0  0  0  0  0  0
  186.7360  177.8630  142.7870 C   0  0  0  0  0  3  0  0  0  0  0  0
  184.0540  178.6410  143.1430 C   0  0  0  0  0  0  0  0  0  0  0  0
  189.0910  177.1600  146.0390 O   0  0  0  0  0  0  0  0  0  0  0  0
  192.0650  175.3150  143.8500 O   0  0  0  0  0  0  0  0  0  0  0  0
  190.3370  176.8430  143.3890 N   0  0  0  0  0  0  0  0  0  0  0  0
  190.8520  175.6340  143.9740 C   0  0  0  0  0  3  0  0  0  0  0  0
  191.4290  177.7870  142.3510 S   0  0  0  0  0  0  0  0  0  0  0  0
  190.6380  177.1880  140.8330 C   0  0  0  0  0  2  0  0  0  0  0  0
  191.7020  176.6750  139.8760 C   0  0  2  0  0  3  0  0  0  0  0  0
  192.9690  177.4880  140.0530 C   0  0  0  0  0  1  0  0  0  0  0  0
  191.2410  176.7940  138.4980 N   0  0  0  0  0  2  0  0  0  0  0  0
  190.1680  175.9050  138.3280 N   0  0  0  0  0  2  0  0  0  0  0  0
  188.9840  176.6930  138.0140 C   0  0  1  0  0  3  0  0  0  0  0  0
  188.8060  179.0850  137.8420 O   0  0  0  0  0  1  0  0  0  0  0  0
  189.3550  177.9500  137.2420 C   0  0  0  0  0  2  0  0  0  0  0  0
  187.7080  175.7070  137.1340 S   0  0  0  0  0  0  0  0  0  0  0  0
  186.3470  176.9060  137.3220 C   0  0  0  0  0  2  0  0  0  0  0  0
  186.1510  177.6070  136.0680 N   0  0  0  0  0  1  0  0  0  0  0  0
  181.7830  178.8710  142.3560 C   0  0  0  0  0  2  0  0  0  0  0  0
  181.9360  177.3040  140.4530 C   0  0  0  0  0  2  0  0  0  0  0  0
  182.3310  177.9590  139.1370 C   0  0  0  0  0  2  0  0  0  0  0  0
  181.0130  178.2640  141.1900 C   0  0  2  0  0  3  0  0  0  0  0  0
  179.8970  178.9670  138.8490 C   0  0  1  0  0  0  0  0  0  0  0  0
  181.4200  179.1600  138.9160 C   0  0  1  0  0  0  0  0  0  0  0  0
  180.4310  180.6530  140.6070 O   0  0  0  0  0  1  0  0  0  0  0  0
  180.5770  179.3270  140.1740 C   0  0  2  0  0  0  0  0  0  0  0  0
  178.9310  180.2960  138.0510 S   0  0  0  0  0  1  0  0  0  0  0  0
  182.0520  180.4510  138.3980 C   0  0  0  0  0  2  0  0  0  0  0  0
  183.2860  180.6620  139.0200 O   0  0  0  0  0  1  0  0  0  0  0  0
  179.3750  177.5420  138.6900 C   0  0  0  0  0  2  0  0  0  0  0  0
  179.3990  177.1740  137.3410 O   0  0  0  0  0  0  0  0  0  0  0  0
  181.5060  175.5650  136.5460 O   0  0  0  0  0  1  0  0  0  0  0  0
  180.0050  175.5930  137.3200 P   0  0  0  0  0  0  0  0  0  0  0  0
  178.9330  174.5610  136.5120 O   0  0  0  0  0  0  0  0  0  0  0  0
  180.1770  175.1140  138.7440 O   0  0  0  0  0  1  0  0  0  0  0  0
  1 11  1  0  0  0  0
  1  7  2  0  0  0  0
  2  8  1  0  0  0  0
  3  9  1  0  0  0  0
  3 13  2  0  0  0  0
  4  5  2  0  0  0  0
  6 29  1  0  0  0  0
  6 12  2  0  0  0  0
  7  3  1  0  0  0  0
  8  5  1  0  0  0  0
  9  4  1  1  0  0  0
 10  2  1  0  0  0  0
 10  9  1  0  0  0  0
 11 10  2  0  0  0  0
 12  2  2  0  0  0  0
 14 16  2  0  0  0  0
 15  7  1  0  0  0  0
 15 16  1  0  0  0  0
 17 15  1  0  0  0  0
 18 17  1  0  0  0  0
 19 20  1  6  0  0  0
 19 18  1  0  0  0  0
 21 19  1  0  0  0  0
 22 21  1  0  0  0  0
 23 25  1  6  0  0  0
 23 22  1  0  0  0  0
 25 24  1  0  0  0  0
 26 27  1  0  0  0  0
 26 23  1  0  0  0  0
 28 27  1  0  0  0  0
 30 32  1  0  0  0  0
 31 30  1  0  0  0  0
 32 29  1  1  0  0  0
 33 37  1  6  0  0  0
 33 34  1  0  0  0  0
 33 36  1  0  0  0  0
 34 38  1  6  0  0  0
 34 31  1  0  0  0  0
 34 36  1  0  0  0  0
 36 35  1  1  0  0  0
 36 32  1  0  0  0  0
 38 39  1  0  0  0  0
 40 33  1  0  0  0  0
 41 40  1  0  0  0  0
 42 43  1  0  0  0  0
 43 41  1  0  0  0  0
 43 45  1  0  0  0  0
 44 43  2  0  0  0  0
M  END
>  <MODEL>
7

>  <REMARK>
 VINA RESULT:      -7.2      2.555      3.991
  Name = 
  16 active torsions:
  status: ('A' for Active; 'I' for Inactive)
    1  A    between atoms: S_5  and  C_9
    2  A    between atoms: S_5  and  C_35
    3  A    between atoms: C_6  and  C_14
    4  A    between atoms: C_6  and  S_28
    5  A    between atoms: C_8  and  C_27
    6  A    between atoms: P_11  and  O_16
    7  A    between atoms: C_14  and  N_40
    8  A    between atoms: O_16  and  C_20
    9  A    between atoms: N_19  and  C_26
   10  A    between atoms: N_19  and  S_28
   11  A    between atoms: C_20  and  C_25
   12  A    between atoms: C_21  and  C_37
   13  A    between atoms: C_22  and  C_37
   14  A    between atoms: C_23  and  C_35
   15  A    between atoms: N_24  and  C_35
   16  A    between atoms: N_24  and  N_40
                            x       y       z     vdW  Elec       q    Type
                         _______ _______ _______ _____ _____    ______ ____

>  <TORSDO>
F 16

$$$$
=
 OpenBabel11062414223D

 45 48  0  0  1  0  0  0  0  0999 V2000
  186.5580  178.0310  143.0770 C   0  0  0  0  0  3  0  0  0  0  0  0
  183.0240  178.7200  141.9340 C   0  0  0  0  0  0  0  0  0  0  0  0
  185.1850  178.3850  145.0430 C   0  0  0  0  0  0  0  0  0  0  0  0
  182.7710  178.9390  144.7190 C   0  0  0  0  0  3  0  0  0  0  0  0
  181.6650  179.1480  143.8970 C   0  0  0  0  0  3  0  0  0  0  0  0
  183.1320  178.4440  139.3400 C   0  0  0  0  0  3  0  0  0  0  0  0
  186.5100  178.1070  144.4180 C   0  0  0  0  0  0  0  0  0  0  0  0
  181.7910  179.0350  142.5120 C   0  0  0  0  0  2  0  0  0  0  0  0
  184.0170  178.6210  144.1650 C   0  0  2  0  0  3  0  0  0  0  0  0
  184.1570  178.5150  142.7600 C   0  0  0  0  0  0  0  0  0  0  0  0
  185.3620  178.2280  142.2360 C   0  0  0  0  0  3  0  0  0  0  0  0
  183.0770  178.5950  140.6320 C   0  0  0  0  0  0  0  0  0  0  0  0
  185.0370  178.3950  146.2950 O   0  0  0  0  0  0  0  0  0  0  0  0
  188.6730  177.4780  147.2920 O   0  0  0  0  0  0  0  0  0  0  0  0
  187.7220  177.9130  145.1860 N   0  0  0  0  0  0  0  0  0  0  0  0
  187.6380  177.5620  146.5780 C   0  0  0  0  0  3  0  0  0  0  0  0
  189.3420  178.0670  144.4700 S   0  0  0  0  0  0  0  0  0  0  0  0
  189.3070  176.3720  143.8240 C   0  0  0  0  0  2  0  0  0  0  0  0
  190.3410  176.2300  142.7180 C   0  0  2  0  0  3  0  0  0  0  0  0
  191.6930  176.6750  143.2360 C   0  0  0  0  0  1  0  0  0  0  0  0
  189.9700  177.0500  141.5720 N   0  0  0  0  0  2  0  0  0  0  0  0
  190.6720  176.5680  140.4560 N   0  0  0  0  0  2  0  0  0  0  0  0
  190.1380  177.2320  139.2750 C   0  0  1  0  0  3  0  0  0  0  0  0
  190.6790  176.4650  137.0600 O   0  0  0  0  0  1  0  0  0  0  0  0
  189.8590  176.2280  138.1650 C   0  0  0  0  0  2  0  0  0  0  0  0
  188.6570  178.2490  139.6590 S   0  0  0  0  0  0  0  0  0  0  0  0
  187.6890  177.7770  138.1880 C   0  0  0  0  0  2  0  0  0  0  0  0
  186.4920  178.5940  138.1210 N   0  0  0  0  0  1  0  0  0  0  0  0
  181.8690  178.3320  138.5590 C   0  0  0  0  0  2  0  0  0  0  0  0
  182.1940  176.0020  139.3100 C   0  0  0  0  0  2  0  0  0  0  0  0
  183.4050  175.3130  138.6970 C   0  0  0  0  0  2  0  0  0  0  0  0
  181.5630  176.8750  138.2350 C   0  0  2  0  0  3  0  0  0  0  0  0
  182.1250  174.9960  136.3990 C   0  0  1  0  0  0  0  0  0  0  0  0
  183.3410  175.5040  137.1870 C   0  0  1  0  0  0  0  0  0  0  0  0
  182.4450  177.4240  135.9310 O   0  0  0  0  0  1  0  0  0  0  0  0
  182.1770  176.4430  136.8970 C   0  0  2  0  0  0  0  0  0  0  0  0
  182.3470  174.7530  134.6020 S   0  0  0  0  0  1  0  0  0  0  0  0
  184.6360  175.8520  136.4550 C   0  0  0  0  0  2  0  0  0  0  0  0
  185.6050  174.8760  136.7060 O   0  0  0  0  0  1  0  0  0  0  0  0
  181.1740  174.0390  137.1120 C   0  0  0  0  0  2  0  0  0  0  0  0
  180.3280  173.4280  136.1820 O   0  0  0  0  0  0  0  0  0  0  0  0
  182.1270  171.5200  137.0690 O   0  0  0  0  0  1  0  0  0  0  0  0
  180.6310  171.7670  136.3260 P   0  0  0  0  0  0  0  0  0  0  0  0
  180.6290  171.0330  134.8000 O   0  0  0  0  0  0  0  0  0  0  0  0
  179.5490  171.1430  137.1790 O   0  0  0  0  0  1  0  0  0  0  0  0
  1  7  2  0  0  0  0
  2  8  1  0  0  0  0
  2 10  1  0  0  0  0
  3 13  2  0  0  0  0
  5  4  2  0  0  0  0
  6 12  2  0  0  0  0
  7  3  1  0  0  0  0
  7 15  1  0  0  0  0
  8  5  1  0  0  0  0
  9  4  1  1  0  0  0
  9  3  1  0  0  0  0
 10  9  1  0  0  0  0
 11 10  2  0  0  0  0
 11  1  1  0  0  0  0
 12  2  2  0  0  0  0
 15 16  1  0  0  0  0
 16 14  2  0  0  0  0
 17 15  1  0  0  0  0
 18 17  1  0  0  0  0
 19 20  1  1  0  0  0
 19 18  1  0  0  0  0
 21 19  1  0  0  0  0
 22 21  1  0  0  0  0
 23 25  1  6  0  0  0
 23 26  1  0  0  0  0
 23 22  1  0  0  0  0
 24 25  1  0  0  0  0
 27 26  1  0  0  0  0
 28 27  1  0  0  0  0
 29  6  1  0  0  0  0
 31 30  1  0  0  0  0
 32 29  1  1  0  0  0
 32 30  1  0  0  0  0
 33 37  1  6  0  0  0
 33 36  1  0  0  0  0
 33 40  1  0  0  0  0
 33 34  1  0  0  0  0
 34 38  1  6  0  0  0
 34 31  1  0  0  0  0
 36 35  1  6  0  0  0
 36 34  1  0  0  0  0
 36 32  1  0  0  0  0
 38 39  1  0  0  0  0
 41 43  1  0  0  0  0
 41 40  1  0  0  0  0
 43 42  1  0  0  0  0
 43 45  1  0  0  0  0
 44 43  2  0  0  0  0
M  END
>  <MODEL>
8

>  <REMARK>
 VINA RESULT:      -6.7      3.591      5.302
  Name = 
  16 active torsions:
  status: ('A' for Active; 'I' for Inactive)
    1  A    between atoms: S_5  and  C_9
    2  A    between atoms: S_5  and  C_35
    3  A    between atoms: C_6  and  C_14
    4  A    between atoms: C_6  and  S_28
    5  A    between atoms: C_8  and  C_27
    6  A    between atoms: P_11  and  O_16
    7  A    between atoms: C_14  and  N_40
    8  A    between atoms: O_16  and  C_20
    9  A    between atoms: N_19  and  C_26
   10  A    between atoms: N_19  and  S_28
   11  A    between atoms: C_20  and  C_25
   12  A    between atoms: C_21  and  C_37
   13  A    between atoms: C_22  and  C_37
   14  A    between atoms: C_23  and  C_35
   15  A    between atoms: N_24  and  C_35
   16  A    between atoms: N_24  and  N_40
                            x       y       z     vdW  Elec       q    Type
                         _______ _______ _______ _____ _____    ______ ____

>  <TORSDO>
F 16

$$$$
=
 OpenBabel11062414223D

 45 48  0  0  1  0  0  0  0  0999 V2000
  188.8240  178.0080  140.7420 C   0  0  0  0  0  3  0  0  0  0  0  0
  185.9280  178.1270  138.3190 C   0  0  0  0  0  0  0  0  0  0  0  0
  189.5390  176.9910  138.6610 C   0  0  0  0  0  0  0  0  0  0  0  0
  187.8830  176.8100  136.7990 C   0  0  0  0  0  3  0  0  0  0  0  0
  186.6190  177.0430  136.2620 C   0  0  0  0  0  3  0  0  0  0  0  0
  184.0720  179.4290  139.6140 C   0  0  0  0  0  3  0  0  0  0  0  0
  189.8130  177.3940  140.0700 C   0  0  0  0  0  0  0  0  0  0  0  0
  185.6480  177.7020  137.0170 C   0  0  0  0  0  3  0  0  0  0  0  0
  188.1890  177.2270  138.1000 C   0  0  0  0  0  0  0  0  0  0  0  0
  187.2080  177.8860  138.8780 C   0  0  0  0  0  0  0  0  0  0  0  0
  187.5050  178.2660  140.1340 C   0  0  0  0  0  3  0  0  0  0  0  0
  184.9910  178.7690  138.9700 C   0  0  0  0  0  0  0  0  0  0  0  0
  190.4360  176.4810  137.9360 O   0  0  0  0  0  0  0  0  0  0  0  0
  193.4270  177.2770  140.5850 O   0  0  0  0  0  0  0  0  0  0  0  0
  191.0820  177.1610  140.7280 N   0  0  0  0  0  0  0  0  0  0  0  0
  192.3050  177.5510  140.0790 C   0  0  0  0  0  3  0  0  0  0  0  0
  191.2010  176.4250  142.3410 S   0  0  0  0  0  0  0  0  0  0  0  0
  191.2630  178.0400  143.1640 C   0  0  0  0  0  2  0  0  0  0  0  0
  190.9670  177.8650  144.6450 C   0  0  2  0  0  3  0  0  0  0  0  0
  191.5610  176.5550  145.1240 C   0  0  0  0  0  1  0  0  0  0  0  0
  189.5280  177.8550  144.8750 N   0  0  0  0  0  2  0  0  0  0  0  0
  189.3080  178.1660  146.2260 N   0  0  0  0  0  2  0  0  0  0  0  0
  188.0670  177.5230  146.6340 C   0  0  1  0  0  3  0  0  0  0  0  0
  188.6520  177.9850  148.9210 O   0  0  0  0  0  1  0  0  0  0  0  0
  187.6100  178.0340  147.9930 C   0  0  0  0  0  2  0  0  0  0  0  0
  186.7480  177.6920  145.3660 S   0  0  0  0  0  0  0  0  0  0  0  0
  185.6140  178.7040  146.3740 C   0  0  0  0  0  2  0  0  0  0  0  0
  184.4270  179.0060  145.5980 N   0  0  0  0  0  1  0  0  0  0  0  0
  182.8880  179.9500  138.8760 C   0  0  0  0  0  2  0  0  0  0  0  0
  181.1930  179.3830  137.1700 C   0  0  0  0  0  2  0  0  0  0  0  0
  179.7660  179.3500  137.6980 C   0  0  0  0  0  2  0  0  0  0  0  0
  182.0990  178.8070  138.2480 C   0  0  2  0  0  3  0  0  0  0  0  0
  180.1980  177.0120  138.8680 C   0  0  1  0  0  0  0  0  0  0  0  0
  179.7440  178.4780  138.9460 C   0  0  1  0  0  0  0  0  0  0  0  0
  181.5200  178.1830  140.6280 O   0  0  0  0  0  1  0  0  0  0  0  0
  181.1880  178.1100  139.2670 C   0  0  2  0  0  0  0  0  0  0  0  0
  179.6410  175.9020  140.2070 S   0  0  0  0  0  1  0  0  0  0  0  0
  178.9310  178.9640  140.1440 C   0  0  0  0  0  2  0  0  0  0  0  0
  179.3680  180.2340  140.5350 O   0  0  0  0  0  1  0  0  0  0  0  0
  180.3510  176.3970  137.4800 C   0  0  0  0  0  2  0  0  0  0  0  0
  180.6600  175.0370  137.5940 O   0  0  0  0  0  0  0  0  0  0  0  0
  182.6870  173.3270  136.8040 O   0  0  0  0  0  1  0  0  0  0  0  0
  182.3070  174.9190  137.2170 P   0  0  0  0  0  0  0  0  0  0  0  0
  183.2500  175.4010  138.5390 O   0  0  0  0  0  1  0  0  0  0  0  0
  182.6060  175.8190  136.0390 O   0  0  0  0  0  0  0  0  0  0  0  0
  2 10  1  0  0  0  0
  2 12  2  0  0  0  0
  3  7  1  0  0  0  0
  4  9  2  0  0  0  0
  5  4  1  0  0  0  0
  5  8  2  0  0  0  0
  7 15  1  0  0  0  0
  7  1  2  0  0  0  0
  8  2  1  0  0  0  0
  9  3  1  0  0  0  0
  9 10  1  0  0  0  0
 10 11  2  0  0  0  0
 11  1  1  0  0  0  0
 12  6  2  0  0  0  0
 13  3  2  0  0  0  0
 15 17  1  0  0  0  0
 16 14  2  0  0  0  0
 16 15  1  0  0  0  0
 17 18  1  0  0  0  0
 18 19  1  0  0  0  0
 19 21  1  0  0  0  0
 19 20  1  6  0  0  0
 21 22  1  0  0  0  0
 22 23  1  0  0  0  0
 23 25  1  1  0  0  0
 25 24  1  0  0  0  0
 26 27  1  0  0  0  0
 26 23  1  0  0  0  0
 28 27  1  0  0  0  0
 29  6  1  0  0  0  0
 30 31  1  0  0  0  0
 30 32  1  0  0  0  0
 31 34  1  0  0  0  0
 32 29  1  1  0  0  0
 32 36  1  0  0  0  0
 33 34  1  0  0  0  0
 33 36  1  0  0  0  0
 33 37  1  1  0  0  0
 34 36  1  0  0  0  0
 34 38  1  1  0  0  0
 36 35  1  1  0  0  0
 38 39  1  0  0  0  0
 40 41  1  0  0  0  0
 40 33  1  0  0  0  0
 42 43  1  0  0  0  0
 43 41  1  0  0  0  0
 43 44  1  0  0  0  0
 45 43  2  0  0  0  0
M  END
>  <MODEL>
9

>  <REMARK>
 VINA RESULT:      -6.7      3.370      6.538
  Name = 
  16 active torsions:
  status: ('A' for Active; 'I' for Inactive)
    1  A    between atoms: S_5  and  C_9
    2  A    between atoms: S_5  and  C_35
    3  A    between atoms: C_6  and  C_14
    4  A    between atoms: C_6  and  S_28
    5  A    between atoms: C_8  and  C_27
    6  A    between atoms: P_11  and  O_16
    7  A    between atoms: C_14  and  N_40
    8  A    between atoms: O_16  and  C_20
    9  A    between atoms: N_19  and  C_26
   10  A    between atoms: N_19  and  S_28
   11  A    between atoms: C_20  and  C_25
   12  A    between atoms: C_21  and  C_37
   13  A    between atoms: C_22  and  C_37
   14  A    between atoms: C_23  and  C_35
   15  A    between atoms: N_24  and  C_35
   16  A    between atoms: N_24  and  N_40
                            x       y       z     vdW  Elec       q    Type
                         _______ _______ _______ _____ _____    ______ ____

>  <TORSDO>
F 16

$$$$
