=
 OpenBabel11062414563D

 51 57  0  0  1  0  0  0  0  0999 V2000
  188.0290  177.5410  143.7780 C   0  0  1  0  0  3  0  0  0  0  0  0
  190.3090  178.3810  144.0090 O   0  0  0  0  0  0  0  0  0  0  0  0
  189.7530  177.0670  142.0540 C   0  0  2  0  0  3  0  0  0  0  0  0
  190.7850  177.3730  143.1370 C   0  0  0  0  0  2  0  0  0  0  0  0
  189.1850  177.9010  144.7280 C   0  0  2  0  0  3  0  0  0  0  0  0
  188.4870  176.5460  142.7230 C   0  0  0  0  0  2  0  0  0  0  0  0
  189.5510  176.7890  145.7180 C   0  0  0  0  0  3  0  0  0  0  0  0
  190.8700  177.1270  146.3930 C   0  0  0  0  0  2  0  0  0  0  0  0
  189.5680  177.3590  147.1290 C   0  0  0  0  0  2  0  0  0  0  0  0
  190.2660  176.1040  141.1760 O   0  0  0  0  0  0  0  0  0  0  0  0
  190.2500  176.7150  139.9150 C   0  0  2  0  0  3  0  0  0  0  0  0
  191.4310  175.3140  137.7810 O   0  0  0  0  0  0  0  0  0  0  0  0
  192.4020  177.8460  140.0960 O   0  0  0  0  0  1  0  0  0  0  0  0
  192.1720  176.1120  138.4190 C   0  0  0  0  0  0  0  0  0  0  0  0
  191.6200  176.9330  139.4600 N   0  0  0  0  0  0  0  0  0  0  0  0
  193.5550  176.2250  138.0870 N   0  0  0  0  0  2  0  0  0  0  0  0
  194.1860  175.4210  137.0510 C   0  0  0  0  0  2  0  0  0  0  0  0
  195.5760  174.8750  138.9400 O   0  0  0  0  0  1  0  0  0  0  0  0
  196.5570  174.6430  136.7830 C   0  0  0  0  0  1  0  0  0  0  0  0
  195.2960  174.5380  137.6170 C   0  0  2  0  0  3  0  0  0  0  0  0
  189.4820  178.0320  139.9910 C   0  0  0  0  0  2  0  0  0  0  0  0
  188.5230  178.2140  138.8100 C   0  0  1  0  0  3  0  0  0  0  0  0
  188.8030  179.4160  138.1610 O   0  0  0  0  0  0  0  0  0  0  0  0
  189.1830  179.0520  136.8630 C   0  0  0  0  0  1  0  0  0  0  0  0
  188.5820  177.0460  137.8130 C   0  0  0  0  0  2  0  0  0  0  0  0
  186.2050  177.1340  137.0620 C   0  0  0  0  0  2  0  0  0  0  0  0
  184.9640  174.3290  134.9150 N   0  0  0  0  0  1  0  0  0  0  0  0
  187.2750  176.2480  137.7170 C   0  0  1  0  0  3  0  0  0  0  0  0
  187.2380  175.0340  135.4970 C   0  0  0  0  0  2  0  0  0  0  0  0
  185.1510  176.2950  136.3300 C   0  0  0  0  0  2  0  0  0  0  0  0
  185.7950  175.4830  135.1990 C   0  0  2  0  0  3  0  0  0  0  0  0
  187.4940  174.9140  136.9980 C   0  0  0  0  0  2  0  0  0  0  0  0
  186.9040  177.0300  144.4800 O   0  0  0  0  0  0  0  0  0  0  0  0
  186.2770  177.7770  145.4800 C   0  0  0  0  0  0  0  0  0  0  0  0
  186.1810  177.3240  146.6510 O   0  0  0  0  0  0  0  0  0  0  0  0
  184.8040  179.0020  143.9650 N   0  0  2  0  0  0  0  0  0  0  0  0
  185.7060  179.1280  145.1590 C   0  0  1  0  0  3  0  0  0  0  0  0
  184.3420  179.1320  145.3790 C   0  0  0  0  0  2  0  0  0  0  0  0
  183.5520  177.8390  140.7050 C   0  0  1  0  0  3  0  0  0  0  0  0
  185.4410  179.2180  141.6630 C   0  0  0  0  0  2  0  0  0  0  0  0
  184.9100  178.8430  140.0040 S   0  0  0  0  0  0  0  0  0  0  0  0
  183.4780  178.1430  142.0860 O   0  0  0  0  0  0  0  0  0  0  0  0
  184.5790  178.8170  142.5720 C   0  0  1  0  0  3  0  0  0  0  0  0
  182.3400  178.1460  140.0650 O   0  0  0  0  0  0  0  0  0  0  0  0
  181.9940  177.0180  139.2850 C   0  0  1  0  0  0  0  0  0  0  0  0
  180.5300  176.9370  138.7840 C   0  0  2  0  0  0  0  0  0  0  0  0
  179.5010  177.7650  138.0710 C   0  0  0  0  0  2  0  0  0  0  0  0
  181.7620  177.1620  137.8150 C   0  0  1  0  0  3  0  0  0  0  0  0
  182.4800  175.7900  139.7130 O   0  0  0  0  0  1  0  0  0  0  0  0
  182.0550  178.6010  137.3560 C   0  0  0  0  0  1  0  0  0  0  0  0
  179.9230  178.1020  139.3410 O   0  0  0  0  0  0  0  0  0  0  0  0
  1 33  1  1  0  0  0
  1  5  1  0  0  0  0
  2  5  1  0  0  0  0
  3 10  1  6  0  0  0
  3  6  1  0  0  0  0
  3  4  1  0  0  0  0
  4  2  1  0  0  0  0
  5  7  1  6  0  0  0
  6  1  1  0  0  0  0
  7  8  1  0  0  0  0
  7  9  1  0  0  0  0
  8  9  1  0  0  0  0
 11 21  1  1  0  0  0
 11 10  1  0  0  0  0
 12 14  2  0  0  0  0
 14 15  1  0  0  0  0
 15 11  1  0  0  0  0
 15 13  1  0  0  0  0
 16 14  1  0  0  0  0
 17 20  1  0  0  0  0
 17 16  1  0  0  0  0
 20 19  1  6  0  0  0
 20 18  1  0  0  0  0
 22 25  1  6  0  0  0
 22 21  1  0  0  0  0
 23 22  1  0  0  0  0
 24 23  1  0  0  0  0
 26 28  1  0  0  0  0
 28 25  1  6  0  0  0
 29 32  1  0  0  0  0
 30 26  1  0  0  0  0
 31 27  1  1  0  0  0
 31 29  1  0  0  0  0
 31 30  1  0  0  0  0
 32 28  1  0  0  0  0
 33 34  1  0  0  0  0
 34 35  2  0  0  0  0
 36 37  1  0  0  0  0
 36 38  1  1  0  0  0
 37 38  1  0  0  0  0
 37 34  1  1  0  0  0
 39 44  1  6  0  0  0
 39 42  1  0  0  0  0
 41 39  1  0  0  0  0
 41 40  1  0  0  0  0
 42 43  1  0  0  0  0
 43 40  1  1  0  0  0
 43 36  1  0  0  0  0
 45 49  1  1  0  0  0
 45 44  1  0  0  0  0
 46 47  1  1  0  0  0
 46 45  1  0  0  0  0
 46 51  1  0  0  0  0
 47 51  1  0  0  0  0
 48 50  1  1  0  0  0
 48 46  1  0  0  0  0
 48 45  1  0  0  0  0
M  END
>  <MODEL>
1

>  <REMARK>
 VINA RESULT:      -7.8      0.000      0.000
  Name = 
  17 active torsions:
  status: ('A' for Active; 'I' for Inactive)
    1  A    between atoms: O_2  and  C_8
    2  A    between atoms: O_2  and  C_28
    3  A    between atoms: C_4  and  O_49
    4  A    between atoms: C_6  and  C_38
    5  A    between atoms: C_7  and  O_49
    6  A    between atoms: N_10  and  C_47
    7  A    between atoms: N_12  and  C_24
    8  A    between atoms: C_13  and  C_28
    9  A    between atoms: N_14  and  C_20
   10  A    between atoms: C_20  and  C_37
   11  A    between atoms: C_24  and  C_40
   12  A    between atoms: C_24  and  O_48
   13  A    between atoms: C_25  and  C_27
   14  A    between atoms: C_27  and  C_35
   15  A    between atoms: O_30  and  C_35
   16  A    between atoms: C_32  and  O_48
   17  A    between atoms: C_35  and  C_40
                            x       y       z     vdW  Elec       q    Type
                         _______ _______ _______ _____ _____    ______ ____

>  <TORSDO>
F 17

$$$$
=
 OpenBabel11062414563D

 51 57  0  0  1  0  0  0  0  0999 V2000
  188.6720  177.4400  143.6320 C   0  0  1  0  0  3  0  0  0  0  0  0
  190.7860  178.5270  144.1820 O   0  0  0  0  0  0  0  0  0  0  0  0
  190.6310  177.2820  142.1120 C   0  0  2  0  0  3  0  0  0  0  0  0
  191.4830  177.6390  143.3280 C   0  0  0  0  0  2  0  0  0  0  0  0
  189.6550  177.8730  144.7330 C   0  0  2  0  0  3  0  0  0  0  0  0
  189.3700  176.5740  142.5940 C   0  0  0  0  0  2  0  0  0  0  0  0
  190.0380  176.7530  145.7060 C   0  0  0  0  0  3  0  0  0  0  0  0
  190.9640  177.3080  146.7760 C   0  0  0  0  0  2  0  0  0  0  0  0
  189.5000  177.0830  147.0900 C   0  0  0  0  0  2  0  0  0  0  0  0
  191.3590  176.4440  141.2600 O   0  0  0  0  0  0  0  0  0  0  0  0
  190.7400  176.5690  140.0090 C   0  0  2  0  0  3  0  0  0  0  0  0
  190.5090  174.5690  138.0450 O   0  0  0  0  0  0  0  0  0  0  0  0
  192.8360  177.1320  138.9000 O   0  0  0  0  0  1  0  0  0  0  0  0
  191.5720  175.2510  138.0430 C   0  0  0  0  0  0  0  0  0  0  0  0
  191.7240  176.3510  138.9530 N   0  0  0  0  0  0  0  0  0  0  0  0
  192.6120  174.9510  137.1130 N   0  0  0  0  0  2  0  0  0  0  0  0
  192.5330  173.8480  136.1680 C   0  0  0  0  0  2  0  0  0  0  0  0
  193.3880  171.5970  136.1990 O   0  0  0  0  0  1  0  0  0  0  0  0
  194.5490  173.2050  137.5170 C   0  0  0  0  0  1  0  0  0  0  0  0
  193.7580  172.9400  136.2520 C   0  0  2  0  0  3  0  0  0  0  0  0
  190.1030  177.9510  139.8870 C   0  0  0  0  0  2  0  0  0  0  0  0
  188.8590  177.9390  138.9920 C   0  0  1  0  0  3  0  0  0  0  0  0
  187.9880  178.9540  139.3890 O   0  0  0  0  0  0  0  0  0  0  0  0
  187.2130  178.3930  140.4100 C   0  0  0  0  0  1  0  0  0  0  0  0
  189.2000  178.0860  137.5010 C   0  0  0  0  0  2  0  0  0  0  0  0
  187.5340  176.2300  137.4370 C   0  0  0  0  0  2  0  0  0  0  0  0
  185.0970  176.1900  134.5950 N   0  0  0  0  0  1  0  0  0  0  0  0
  188.5820  176.9950  136.6150 C   0  0  1  0  0  3  0  0  0  0  0  0
  186.5580  177.9650  135.4460 C   0  0  0  0  0  2  0  0  0  0  0  0
  186.4420  175.6350  136.5410 C   0  0  0  0  0  2  0  0  0  0  0  0
  185.6860  176.7450  135.7980 C   0  0  2  0  0  3  0  0  0  0  0  0
  188.0320  177.5860  135.3140 C   0  0  0  0  0  2  0  0  0  0  0  0
  187.5450  176.7560  144.1630 O   0  0  0  0  0  0  0  0  0  0  0  0
  186.6060  177.4210  144.9550 C   0  0  0  0  0  0  0  0  0  0  0  0
  186.0530  176.8330  145.9210 O   0  0  0  0  0  0  0  0  0  0  0  0
  184.8450  178.8870  144.1070 N   0  0  2  0  0  0  0  0  0  0  0  0
  186.2440  178.8460  144.6500 C   0  0  1  0  0  3  0  0  0  0  0  0
  185.2380  179.2740  145.4940 C   0  0  0  0  0  2  0  0  0  0  0  0
  183.2020  178.1860  140.8890 C   0  0  1  0  0  3  0  0  0  0  0  0
  182.6240  179.0030  143.2100 C   0  0  0  0  0  2  0  0  0  0  0  0
  181.6540  178.6040  141.7680 S   0  0  0  0  0  0  0  0  0  0  0  0
  184.2280  178.1090  141.8610 O   0  0  0  0  0  0  0  0  0  0  0  0
  183.8850  178.6530  143.0820 C   0  0  1  0  0  3  0  0  0  0  0  0
  183.0640  176.9610  140.2170 O   0  0  0  0  0  0  0  0  0  0  0  0
  182.5910  177.2590  138.9170 C   0  0  1  0  0  0  0  0  0  0  0  0
  182.7870  176.1680  137.8350 C   0  0  2  0  0  0  0  0  0  0  0  0
  182.5410  174.7050  137.6050 C   0  0  0  0  0  2  0  0  0  0  0  0
  181.3650  176.5860  138.3900 C   0  0  1  0  0  3  0  0  0  0  0  0
  182.8450  178.5380  138.4390 O   0  0  0  0  0  1  0  0  0  0  0  0
  180.7280  175.6920  139.4680 C   0  0  0  0  0  1  0  0  0  0  0  0
  183.4730  175.1280  138.5310 O   0  0  0  0  0  0  0  0  0  0  0  0
  1 33  1  1  0  0  0
  1  5  1  0  0  0  0
  2  5  1  0  0  0  0
  3 10  1  6  0  0  0
  3  6  1  0  0  0  0
  3  4  1  0  0  0  0
  4  2  1  0  0  0  0
  5  7  1  6  0  0  0
  6  1  1  0  0  0  0
  7  8  1  0  0  0  0
  7  9  1  0  0  0  0
  8  9  1  0  0  0  0
 11 21  1  6  0  0  0
 11 10  1  0  0  0  0
 13 15  1  0  0  0  0
 14 12  2  0  0  0  0
 14 15  1  0  0  0  0
 15 11  1  0  0  0  0
 16 14  1  0  0  0  0
 17 20  1  0  0  0  0
 17 16  1  0  0  0  0
 18 20  1  0  0  0  0
 20 19  1  1  0  0  0
 22 25  1  6  0  0  0
 22 23  1  0  0  0  0
 22 21  1  0  0  0  0
 23 24  1  0  0  0  0
 28 26  1  0  0  0  0
 28 25  1  1  0  0  0
 29 31  1  0  0  0  0
 30 26  1  0  0  0  0
 31 27  1  6  0  0  0
 31 30  1  0  0  0  0
 32 29  1  0  0  0  0
 32 28  1  0  0  0  0
 33 34  1  0  0  0  0
 34 35  2  0  0  0  0
 36 37  1  0  0  0  0
 36 38  1  1  0  0  0
 37 34  1  1  0  0  0
 37 38  1  0  0  0  0
 39 44  1  1  0  0  0
 39 41  1  0  0  0  0
 39 42  1  0  0  0  0
 41 40  1  0  0  0  0
 42 43  1  0  0  0  0
 43 40  1  6  0  0  0
 43 36  1  0  0  0  0
 45 49  1  6  0  0  0
 45 44  1  0  0  0  0
 46 47  1  6  0  0  0
 46 48  1  0  0  0  0
 46 51  1  0  0  0  0
 46 45  1  0  0  0  0
 47 51  1  0  0  0  0
 48 45  1  0  0  0  0
 48 50  1  1  0  0  0
M  END
>  <MODEL>
2

>  <REMARK>
 VINA RESULT:      -7.0      1.519      2.055
  Name = 
  17 active torsions:
  status: ('A' for Active; 'I' for Inactive)
    1  A    between atoms: O_2  and  C_8
    2  A    between atoms: O_2  and  C_28
    3  A    between atoms: C_4  and  O_49
    4  A    between atoms: C_6  and  C_38
    5  A    between atoms: C_7  and  O_49
    6  A    between atoms: N_10  and  C_47
    7  A    between atoms: N_12  and  C_24
    8  A    between atoms: C_13  and  C_28
    9  A    between atoms: N_14  and  C_20
   10  A    between atoms: C_20  and  C_37
   11  A    between atoms: C_24  and  C_40
   12  A    between atoms: C_24  and  O_48
   13  A    between atoms: C_25  and  C_27
   14  A    between atoms: C_27  and  C_35
   15  A    between atoms: O_30  and  C_35
   16  A    between atoms: C_32  and  O_48
   17  A    between atoms: C_35  and  C_40
                            x       y       z     vdW  Elec       q    Type
                         _______ _______ _______ _____ _____    ______ ____

>  <TORSDO>
F 17

$$$$
=
 OpenBabel11062414563D

 51 57  0  0  1  0  0  0  0  0999 V2000
  184.1530  178.9270  140.9330 C   0  0  1  0  0  3  0  0  0  0  0  0
  185.2660  179.9890  142.8290 O   0  0  0  0  0  0  0  0  0  0  0  0
  186.5640  178.5380  141.3910 C   0  0  2  0  0  3  0  0  0  0  0  0
  186.2690  178.9900  142.8190 C   0  0  0  0  0  2  0  0  0  0  0  0
  184.0390  179.4390  142.3800 C   0  0  2  0  0  3  0  0  0  0  0  0
  185.2960  177.9310  140.8020 C   0  0  0  0  0  2  0  0  0  0  0  0
  183.4580  178.4150  143.3610 C   0  0  0  0  0  3  0  0  0  0  0  0
  183.3990  179.0260  144.7520 C   0  0  0  0  0  2  0  0  0  0  0  0
  182.1410  178.9390  143.9150 C   0  0  0  0  0  2  0  0  0  0  0  0
  187.5920  177.5880  141.4030 O   0  0  0  0  0  0  0  0  0  0  0  0
  188.7570  178.3050  141.0990 C   0  0  2  0  0  3  0  0  0  0  0  0
  188.3190  179.0930  138.4350 O   0  0  0  0  0  0  0  0  0  0  0  0
  190.2950  176.6700  140.1490 O   0  0  0  0  0  1  0  0  0  0  0  0
  189.0750  178.0980  138.6190 C   0  0  0  0  0  0  0  0  0  0  0  0
  189.4220  177.6940  139.9520 N   0  0  0  0  0  0  0  0  0  0  0  0
  189.6130  177.3930  137.5020 N   0  0  0  0  0  2  0  0  0  0  0  0
  189.2990  177.7390  136.1240 C   0  0  0  0  0  2  0  0  0  0  0  0
  187.0850  176.7940  136.1500 O   0  0  0  0  0  1  0  0  0  0  0  0
  188.8660  175.3380  135.5370 C   0  0  0  0  0  1  0  0  0  0  0  0
  188.3170  176.7490  135.5000 C   0  0  2  0  0  3  0  0  0  0  0  0
  189.6770  178.3300  142.3170 C   0  0  0  0  0  2  0  0  0  0  0  0
  190.0620  176.9210  142.7820 C   0  0  1  0  0  3  0  0  0  0  0  0
  191.4190  176.8880  143.1010 O   0  0  0  0  0  0  0  0  0  0  0  0
  191.6220  175.6470  143.7150 C   0  0  0  0  0  1  0  0  0  0  0  0
  189.2240  176.4420  143.9770 C   0  0  0  0  0  2  0  0  0  0  0  0
  187.3790  177.3160  145.4100 C   0  0  0  0  0  2  0  0  0  0  0  0
  188.2110  178.2100  148.9490 N   0  0  0  0  0  1  0  0  0  0  0  0
  188.8180  177.5690  144.9380 C   0  0  1  0  0  3  0  0  0  0  0  0
  189.4240  176.8710  147.2930 C   0  0  0  0  0  2  0  0  0  0  0  0
  187.1260  177.9250  146.7940 C   0  0  0  0  0  2  0  0  0  0  0  0
  188.0460  177.2870  147.8430 C   0  0  2  0  0  3  0  0  0  0  0  0
  189.8260  177.7100  146.0820 C   0  0  0  0  0  2  0  0  0  0  0  0
  182.9400  178.3450  140.4760 O   0  0  0  0  0  0  0  0  0  0  0  0
  182.0150  179.0910  139.7410 C   0  0  0  0  0  0  0  0  0  0  0  0
  182.3960  180.0530  139.0230 O   0  0  0  0  0  0  0  0  0  0  0  0
  180.3850  177.2790  139.5740 N   0  0  2  0  0  0  0  0  0  0  0  0
  180.5550  178.7510  139.8130 C   0  0  1  0  0  3  0  0  0  0  0  0
  180.3070  177.9470  140.9080 C   0  0  0  0  0  2  0  0  0  0  0  0
  181.3050  174.6740  137.1430 C   0  0  1  0  0  3  0  0  0  0  0  0
  179.2790  175.4980  138.4090 C   0  0  0  0  0  2  0  0  0  0  0  0
  179.5750  174.1120  137.3290 S   0  0  0  0  0  0  0  0  0  0  0  0
  181.5360  175.6550  138.1380 O   0  0  0  0  0  0  0  0  0  0  0  0
  180.3860  176.1330  138.7300 C   0  0  1  0  0  3  0  0  0  0  0  0
  182.1880  173.5930  137.2990 O   0  0  0  0  0  0  0  0  0  0  0  0
  183.0860  173.6380  136.2070 C   0  0  1  0  0  0  0  0  0  0  0  0
  184.5980  173.6620  136.5470 C   0  0  2  0  0  0  0  0  0  0  0  0
  185.6130  172.9270  137.3720 C   0  0  0  0  0  2  0  0  0  0  0  0
  183.8910  172.4310  135.8460 C   0  0  1  0  0  3  0  0  0  0  0  0
  182.7590  174.4940  135.1650 O   0  0  0  0  0  1  0  0  0  0  0  0
  183.5040  171.2330  136.7290 C   0  0  0  0  0  1  0  0  0  0  0  0
  184.6180  173.6700  137.9740 O   0  0  0  0  0  0  0  0  0  0  0  0
  1 33  1  1  0  0  0
  1  5  1  0  0  0  0
  3 10  1  1  0  0  0
  3  4  1  0  0  0  0
  4  2  1  0  0  0  0
  5  2  1  0  0  0  0
  5  7  1  1  0  0  0
  6  1  1  0  0  0  0
  6  3  1  0  0  0  0
  7  9  1  0  0  0  0
  7  8  1  0  0  0  0
  9  8  1  0  0  0  0
 11 10  1  0  0  0  0
 11 21  1  1  0  0  0
 12 14  2  0  0  0  0
 14 15  1  0  0  0  0
 15 13  1  0  0  0  0
 15 11  1  0  0  0  0
 16 14  1  0  0  0  0
 17 16  1  0  0  0  0
 20 19  1  1  0  0  0
 20 17  1  0  0  0  0
 20 18  1  0  0  0  0
 22 21  1  1  0  0  0
 22 23  1  0  0  0  0
 22 25  1  0  0  0  0
 23 24  1  0  0  0  0
 26 30  1  0  0  0  0
 28 25  1  6  0  0  0
 28 26  1  0  0  0  0
 28 32  1  0  0  0  0
 29 31  1  0  0  0  0
 30 31  1  0  0  0  0
 31 27  1  1  0  0  0
 32 29  1  0  0  0  0
 34 33  1  0  0  0  0
 35 34  2  0  0  0  0
 36 37  1  0  0  0  0
 36 38  1  1  0  0  0
 37 34  1  1  0  0  0
 37 38  1  0  0  0  0
 39 44  1  1  0  0  0
 39 41  1  0  0  0  0
 39 42  1  0  0  0  0
 41 40  1  0  0  0  0
 42 43  1  0  0  0  0
 43 40  1  6  0  0  0
 43 36  1  0  0  0  0
 45 49  1  6  0  0  0
 45 46  1  0  0  0  0
 45 44  1  0  0  0  0
 46 47  1  6  0  0  0
 46 51  1  0  0  0  0
 47 51  1  0  0  0  0
 48 45  1  0  0  0  0
 48 46  1  0  0  0  0
 48 50  1  1  0  0  0
M  END
>  <MODEL>
3

>  <REMARK>
 VINA RESULT:      -6.9      3.113      6.982
  Name = 
  17 active torsions:
  status: ('A' for Active; 'I' for Inactive)
    1  A    between atoms: O_2  and  C_8
    2  A    between atoms: O_2  and  C_28
    3  A    between atoms: C_4  and  O_49
    4  A    between atoms: C_6  and  C_38
    5  A    between atoms: C_7  and  O_49
    6  A    between atoms: N_10  and  C_47
    7  A    between atoms: N_12  and  C_24
    8  A    between atoms: C_13  and  C_28
    9  A    between atoms: N_14  and  C_20
   10  A    between atoms: C_20  and  C_37
   11  A    between atoms: C_24  and  C_40
   12  A    between atoms: C_24  and  O_48
   13  A    between atoms: C_25  and  C_27
   14  A    between atoms: C_27  and  C_35
   15  A    between atoms: O_30  and  C_35
   16  A    between atoms: C_32  and  O_48
   17  A    between atoms: C_35  and  C_40
                            x       y       z     vdW  Elec       q    Type
                         _______ _______ _______ _____ _____    ______ ____

>  <TORSDO>
F 17

$$$$
=
 OpenBabel11062414563D

 51 57  0  0  1  0  0  0  0  0999 V2000
  183.3530  177.9900  140.2370 C   0  0  1  0  0  3  0  0  0  0  0  0
  181.7230  177.1980  138.6010 O   0  0  0  0  0  0  0  0  0  0  0  0
  184.0340  177.4190  137.9170 C   0  0  2  0  0  3  0  0  0  0  0  0
  182.5660  177.6070  137.5410 C   0  0  0  0  0  2  0  0  0  0  0  0
  181.9060  178.0550  139.7160 C   0  0  2  0  0  3  0  0  0  0  0  0
  184.3420  178.2990  139.1230 C   0  0  0  0  0  2  0  0  0  0  0  0
  181.3990  179.4770  139.4550 C   0  0  0  0  0  3  0  0  0  0  0  0
  179.9150  179.4320  139.1260 C   0  0  0  0  0  2  0  0  0  0  0  0
  180.3660  179.8440  140.5110 C   0  0  0  0  0  2  0  0  0  0  0  0
  184.8450  177.7840  136.8350 O   0  0  0  0  0  0  0  0  0  0  0  0
  185.6750  176.6770  136.6130 C   0  0  2  0  0  3  0  0  0  0  0  0
  188.0150  175.9180  137.9770 O   0  0  0  0  0  0  0  0  0  0  0  0
  187.1670  177.9940  135.2050 O   0  0  0  0  0  1  0  0  0  0  0  0
  188.1440  176.7680  137.0520 C   0  0  0  0  0  0  0  0  0  0  0  0
  187.0130  177.1360  136.2470 N   0  0  0  0  0  0  0  0  0  0  0  0
  189.4220  177.3430  136.7810 N   0  0  0  0  0  2  0  0  0  0  0  0
  190.6100  177.0260  137.5590 C   0  0  0  0  0  2  0  0  0  0  0  0
  191.4130  174.8460  138.1910 O   0  0  0  0  0  1  0  0  0  0  0  0
  192.5820  175.9530  136.4370 C   0  0  0  0  0  1  0  0  0  0  0  0
  191.2470  175.7120  137.1120 C   0  0  2  0  0  3  0  0  0  0  0  0
  185.0790  175.8000  135.5150 C   0  0  0  0  0  2  0  0  0  0  0  0
  185.2780  174.3060  135.7940 C   0  0  1  0  0  3  0  0  0  0  0  0
  185.4350  174.1030  137.1650 O   0  0  0  0  0  0  0  0  0  0  0  0
  186.2930  173.0020  137.2760 C   0  0  0  0  0  1  0  0  0  0  0  0
  184.1250  173.4440  135.2570 C   0  0  0  0  0  2  0  0  0  0  0  0
  181.6610  173.8260  135.3280 C   0  0  0  0  0  2  0  0  0  0  0  0
  179.5420  171.1640  136.8890 N   0  0  0  0  0  1  0  0  0  0  0  0
  182.8870  173.4340  136.1650 C   0  0  1  0  0  3  0  0  0  0  0  0
  181.8590  171.1230  136.0920 C   0  0  0  0  0  2  0  0  0  0  0  0
  180.3740  173.2200  135.8980 C   0  0  0  0  0  2  0  0  0  0  0  0
  180.4410  171.6870  135.8800 C   0  0  2  0  0  3  0  0  0  0  0  0
  182.7390  172.0890  136.8820 C   0  0  0  0  0  2  0  0  0  0  0  0
  183.5630  178.8650  141.3360 O   0  0  0  0  0  0  0  0  0  0  0  0
  184.2230  178.4300  142.4880 C   0  0  0  0  0  0  0  0  0  0  0  0
  185.3450  177.8650  142.4070 O   0  0  0  0  0  0  0  0  0  0  0  0
  184.6610  178.9400  144.8370 N   0  0  2  0  0  0  0  0  0  0  0  0
  183.5880  178.6280  143.8340 C   0  0  1  0  0  3  0  0  0  0  0  0
  183.7300  179.9420  144.2380 C   0  0  0  0  0  2  0  0  0  0  0  0
  187.7830  177.4680  146.1160 C   0  0  1  0  0  3  0  0  0  0  0  0
  185.7360  178.6830  146.9660 C   0  0  0  0  0  2  0  0  0  0  0  0
  187.2450  178.1300  147.7340 S   0  0  0  0  0  0  0  0  0  0  0  0
  186.9080  177.9980  145.1360 O   0  0  0  0  0  0  0  0  0  0  0  0
  185.7650  178.5680  145.6550 C   0  0  1  0  0  3  0  0  0  0  0  0
  189.1090  177.8450  145.8520 O   0  0  0  0  0  0  0  0  0  0  0  0
  189.5200  177.1220  144.7080 C   0  0  1  0  0  0  0  0  0  0  0  0
  190.4970  177.8390  143.7420 C   0  0  2  0  0  0  0  0  0  0  0  0
  191.7970  178.5890  143.7530 C   0  0  0  0  0  2  0  0  0  0  0  0
  190.9120  176.5860  144.6160 C   0  0  1  0  0  3  0  0  0  0  0  0
  188.5380  176.4030  144.0390 O   0  0  0  0  0  1  0  0  0  0  0  0
  191.6840  176.8500  145.9200 C   0  0  0  0  0  1  0  0  0  0  0  0
  190.6660  179.1260  144.3340 O   0  0  0  0  0  0  0  0  0  0  0  0
  1 33  1  1  0  0  0
  2  5  1  0  0  0  0
  3 10  1  6  0  0  0
  3  6  1  0  0  0  0
  4  3  1  0  0  0  0
  4  2  1  0  0  0  0
  5  7  1  6  0  0  0
  5  1  1  0  0  0  0
  6  1  1  0  0  0  0
  7  9  1  0  0  0  0
  8  7  1  0  0  0  0
  8  9  1  0  0  0  0
 11 21  1  6  0  0  0
 11 10  1  0  0  0  0
 13 15  1  0  0  0  0
 14 12  2  0  0  0  0
 15 11  1  0  0  0  0
 15 14  1  0  0  0  0
 16 14  1  0  0  0  0
 16 17  1  0  0  0  0
 20 19  1  1  0  0  0
 20 17  1  0  0  0  0
 20 18  1  0  0  0  0
 21 22  1  0  0  0  0
 22 25  1  1  0  0  0
 22 23  1  0  0  0  0
 23 24  1  0  0  0  0
 26 30  1  0  0  0  0
 26 28  1  0  0  0  0
 28 25  1  6  0  0  0
 28 32  1  0  0  0  0
 29 32  1  0  0  0  0
 31 30  1  0  0  0  0
 31 29  1  0  0  0  0
 31 27  1  1  0  0  0
 33 34  1  0  0  0  0
 35 34  2  0  0  0  0
 36 38  1  6  0  0  0
 36 43  1  0  0  0  0
 37 34  1  6  0  0  0
 37 38  1  0  0  0  0
 37 36  1  0  0  0  0
 39 44  1  6  0  0  0
 39 41  1  0  0  0  0
 40 41  1  0  0  0  0
 42 43  1  0  0  0  0
 42 39  1  0  0  0  0
 43 40  1  1  0  0  0
 45 49  1  6  0  0  0
 45 44  1  0  0  0  0
 46 47  1  6  0  0  0
 46 51  1  0  0  0  0
 46 48  1  0  0  0  0
 46 45  1  0  0  0  0
 47 51  1  0  0  0  0
 48 45  1  0  0  0  0
 48 50  1  1  0  0  0
M  END
>  <MODEL>
4

>  <REMARK>
 VINA RESULT:      -6.5      2.935      7.389
  Name = 
  17 active torsions:
  status: ('A' for Active; 'I' for Inactive)
    1  A    between atoms: O_2  and  C_8
    2  A    between atoms: O_2  and  C_28
    3  A    between atoms: C_4  and  O_49
    4  A    between atoms: C_6  and  C_38
    5  A    between atoms: C_7  and  O_49
    6  A    between atoms: N_10  and  C_47
    7  A    between atoms: N_12  and  C_24
    8  A    between atoms: C_13  and  C_28
    9  A    between atoms: N_14  and  C_20
   10  A    between atoms: C_20  and  C_37
   11  A    between atoms: C_24  and  C_40
   12  A    between atoms: C_24  and  O_48
   13  A    between atoms: C_25  and  C_27
   14  A    between atoms: C_27  and  C_35
   15  A    between atoms: O_30  and  C_35
   16  A    between atoms: C_32  and  O_48
   17  A    between atoms: C_35  and  C_40
                            x       y       z     vdW  Elec       q    Type
                         _______ _______ _______ _____ _____    ______ ____

>  <TORSDO>
F 17

$$$$
=
 OpenBabel11062414563D

 51 57  0  0  1  0  0  0  0  0999 V2000
  184.6210  175.2300  137.0810 C   0  0  1  0  0  3  0  0  0  0  0  0
  185.6440  173.2360  138.0480 O   0  0  0  0  0  0  0  0  0  0  0  0
  187.0390  174.7500  136.7760 C   0  0  2  0  0  3  0  0  0  0  0  0
  186.6950  173.2980  137.1030 C   0  0  0  0  0  2  0  0  0  0  0  0
  184.4540  173.7520  137.4750 C   0  0  2  0  0  3  0  0  0  0  0  0
  185.8130  175.4100  136.1550 C   0  0  0  0  0  2  0  0  0  0  0  0
  183.9070  172.8630  136.3520 C   0  0  0  0  0  3  0  0  0  0  0  0
  183.6090  171.4780  136.9050 C   0  0  0  0  0  2  0  0  0  0  0  0
  182.4780  172.4590  136.6810 C   0  0  0  0  0  2  0  0  0  0  0  0
  188.1130  174.7860  135.8780 O   0  0  0  0  0  0  0  0  0  0  0  0
  189.0780  175.5930  136.4960 C   0  0  2  0  0  3  0  0  0  0  0  0
  191.8040  176.2340  136.2380 O   0  0  0  0  0  0  0  0  0  0  0  0
  189.8660  173.5840  137.6300 O   0  0  0  0  0  1  0  0  0  0  0  0
  191.5280  175.1150  136.7540 C   0  0  0  0  0  0  0  0  0  0  0  0
  190.1600  174.7560  137.0060 N   0  0  0  0  0  0  0  0  0  0  0  0
  192.5750  174.2170  137.1190 N   0  0  0  0  0  2  0  0  0  0  0  0
  193.9810  174.5080  136.8870 C   0  0  0  0  0  2  0  0  0  0  0  0
  195.1760  175.0970  138.8930 O   0  0  0  0  0  1  0  0  0  0  0  0
  196.1270  173.3840  137.5400 C   0  0  0  0  0  1  0  0  0  0  0  0
  194.8570  174.0370  138.0460 C   0  0  2  0  0  3  0  0  0  0  0  0
  188.4310  176.3970  137.6210 C   0  0  0  0  0  2  0  0  0  0  0  0
  189.1820  177.7020  137.9070 C   0  0  1  0  0  3  0  0  0  0  0  0
  188.7140  178.7060  137.0590 O   0  0  0  0  0  0  0  0  0  0  0  0
  187.3340  178.4920  136.9650 C   0  0  0  0  0  1  0  0  0  0  0  0
  189.0600  178.1460  139.3720 C   0  0  0  0  0  2  0  0  0  0  0  0
  191.2110  177.5410  140.4820 C   0  0  0  0  0  2  0  0  0  0  0  0
  191.1860  177.1470  144.2050 N   0  0  0  0  0  1  0  0  0  0  0  0
  189.7220  177.1830  140.3670 C   0  0  1  0  0  3  0  0  0  0  0  0
  189.5800  178.1980  142.6810 C   0  0  0  0  0  2  0  0  0  0  0  0
  191.7800  177.1460  141.8490 C   0  0  0  0  0  2  0  0  0  0  0  0
  191.0630  177.9040  142.9750 C   0  0  2  0  0  3  0  0  0  0  0  0
  188.9840  177.1810  141.7090 C   0  0  0  0  0  2  0  0  0  0  0  0
  183.4470  175.7560  136.4770 O   0  0  0  0  0  0  0  0  0  0  0  0
  182.6770  176.7270  137.1220 C   0  0  0  0  0  0  0  0  0  0  0  0
  182.5730  177.8850  136.6380 O   0  0  0  0  0  0  0  0  0  0  0  0
  182.3990  177.3770  139.4610 N   0  0  2  0  0  0  0  0  0  0  0  0
  181.9760  176.3940  138.4070 C   0  0  1  0  0  3  0  0  0  0  0  0
  181.0910  177.4010  138.7410 C   0  0  0  0  0  2  0  0  0  0  0  0
  184.0280  178.9070  142.3850 C   0  0  1  0  0  3  0  0  0  0  0  0
  184.5570  178.2770  139.9950 C   0  0  0  0  0  2  0  0  0  0  0  0
  185.5300  178.9240  141.3400 S   0  0  0  0  0  0  0  0  0  0  0  0
  183.0510  178.1460  141.6990 O   0  0  0  0  0  0  0  0  0  0  0  0
  183.3510  177.9110  140.3740 C   0  0  1  0  0  3  0  0  0  0  0  0
  184.3130  178.3360  143.6360 O   0  0  0  0  0  0  0  0  0  0  0  0
  185.1950  179.2220  144.2980 C   0  0  1  0  0  0  0  0  0  0  0  0
  185.1750  179.2000  145.8470 C   0  0  2  0  0  0  0  0  0  0  0  0
  185.2570  178.2360  146.9940 C   0  0  0  0  0  2  0  0  0  0  0  0
  186.4090  178.6950  144.9930 C   0  0  1  0  0  3  0  0  0  0  0  0
  185.2910  180.5080  143.7820 O   0  0  0  0  0  1  0  0  0  0  0  0
  186.5490  177.1790  144.7710 C   0  0  0  0  0  1  0  0  0  0  0  0
  184.1630  178.2420  146.1530 O   0  0  0  0  0  0  0  0  0  0  0  0
  1 33  1  6  0  0  0
  1  5  1  0  0  0  0
  3 10  1  6  0  0  0
  3  4  1  0  0  0  0
  4  2  1  0  0  0  0
  5  7  1  6  0  0  0
  5  2  1  0  0  0  0
  6  3  1  0  0  0  0
  6  1  1  0  0  0  0
  7  9  1  0  0  0  0
  7  8  1  0  0  0  0
  9  8  1  0  0  0  0
 10 11  1  0  0  0  0
 11 15  1  0  0  0  0
 11 21  1  1  0  0  0
 12 14  2  0  0  0  0
 14 15  1  0  0  0  0
 14 16  1  0  0  0  0
 15 13  1  0  0  0  0
 17 16  1  0  0  0  0
 17 20  1  0  0  0  0
 20 19  1  6  0  0  0
 20 18  1  0  0  0  0
 22 21  1  1  0  0  0
 22 25  1  0  0  0  0
 23 22  1  0  0  0  0
 24 23  1  0  0  0  0
 26 30  1  0  0  0  0
 28 25  1  6  0  0  0
 28 26  1  0  0  0  0
 28 32  1  0  0  0  0
 29 31  1  0  0  0  0
 30 31  1  0  0  0  0
 31 27  1  1  0  0  0
 32 29  1  0  0  0  0
 33 34  1  0  0  0  0
 35 34  2  0  0  0  0
 36 38  1  6  0  0  0
 36 43  1  0  0  0  0
 37 34  1  6  0  0  0
 37 38  1  0  0  0  0
 37 36  1  0  0  0  0
 39 44  1  1  0  0  0
 40 41  1  0  0  0  0
 41 39  1  0  0  0  0
 42 39  1  0  0  0  0
 43 40  1  6  0  0  0
 43 42  1  0  0  0  0
 44 45  1  0  0  0  0
 45 49  1  6  0  0  0
 45 48  1  0  0  0  0
 45 46  1  0  0  0  0
 46 51  1  0  0  0  0
 46 47  1  1  0  0  0
 48 50  1  6  0  0  0
 48 46  1  0  0  0  0
 51 47  1  0  0  0  0
M  END
>  <MODEL>
5

>  <REMARK>
 VINA RESULT:      -6.4      2.340      6.902
  Name = 
  17 active torsions:
  status: ('A' for Active; 'I' for Inactive)
    1  A    between atoms: O_2  and  C_8
    2  A    between atoms: O_2  and  C_28
    3  A    between atoms: C_4  and  O_49
    4  A    between atoms: C_6  and  C_38
    5  A    between atoms: C_7  and  O_49
    6  A    between atoms: N_10  and  C_47
    7  A    between atoms: N_12  and  C_24
    8  A    between atoms: C_13  and  C_28
    9  A    between atoms: N_14  and  C_20
   10  A    between atoms: C_20  and  C_37
   11  A    between atoms: C_24  and  C_40
   12  A    between atoms: C_24  and  O_48
   13  A    between atoms: C_25  and  C_27
   14  A    between atoms: C_27  and  C_35
   15  A    between atoms: O_30  and  C_35
   16  A    between atoms: C_32  and  O_48
   17  A    between atoms: C_35  and  C_40
                            x       y       z     vdW  Elec       q    Type
                         _______ _______ _______ _____ _____    ______ ____

>  <TORSDO>
F 17

$$$$
=
 OpenBabel11062414563D

 51 57  0  0  1  0  0  0  0  0999 V2000
  186.7310  177.6690  137.7540 C   0  0  1  0  0  3  0  0  0  0  0  0
  187.0100  175.4070  136.8820 O   0  0  0  0  0  0  0  0  0  0  0  0
  188.9820  176.7710  137.2110 C   0  0  2  0  0  3  0  0  0  0  0  0
  188.2610  175.7610  136.3220 C   0  0  0  0  0  2  0  0  0  0  0  0
  186.1520  176.5350  136.8890 C   0  0  2  0  0  3  0  0  0  0  0  0
  188.1340  178.0350  137.2960 C   0  0  0  0  0  2  0  0  0  0  0  0
  185.7420  176.9720  135.4780 C   0  0  0  0  0  3  0  0  0  0  0  0
  185.0000  175.8350  134.7940 C   0  0  0  0  0  2  0  0  0  0  0  0
  184.2230  176.9940  135.3810 C   0  0  0  0  0  2  0  0  0  0  0  0
  190.2360  177.0670  136.6630 O   0  0  0  0  0  0  0  0  0  0  0  0
  191.1640  176.6580  137.6300 C   0  0  2  0  0  3  0  0  0  0  0  0
  193.9080  177.0880  137.1890 O   0  0  0  0  0  0  0  0  0  0  0  0
  191.5660  174.4470  136.6840 O   0  0  0  0  0  1  0  0  0  0  0  0
  193.4300  175.9920  136.7840 C   0  0  0  0  0  0  0  0  0  0  0  0
  192.0600  175.6590  137.0550 N   0  0  0  0  0  0  0  0  0  0  0  0
  194.2580  175.0660  136.0820 N   0  0  0  0  0  2  0  0  0  0  0  0
  195.6520  175.3380  135.7630 C   0  0  0  0  0  2  0  0  0  0  0  0
  197.7780  175.6110  136.8580 O   0  0  0  0  0  1  0  0  0  0  0  0
  196.8880  173.4050  136.7770 C   0  0  0  0  0  1  0  0  0  0  0  0
  196.5880  174.8860  136.8810 C   0  0  2  0  0  3  0  0  0  0  0  0
  190.4270  176.0990  138.8440 C   0  0  0  0  0  2  0  0  0  0  0  0
  190.8030  176.8280  140.1380 C   0  0  1  0  0  3  0  0  0  0  0  0
  191.8310  177.7360  139.8810 O   0  0  0  0  0  0  0  0  0  0  0  0
  192.9750  177.1640  140.4500 C   0  0  0  0  0  1  0  0  0  0  0  0
  189.6080  177.5480  140.7820 C   0  0  0  0  0  2  0  0  0  0  0  0
  190.2240  175.9950  142.6340 C   0  0  0  0  0  2  0  0  0  0  0  0
  191.6790  177.4960  145.7390 N   0  0  0  0  0  1  0  0  0  0  0  0
  189.4650  177.2830  142.2870 C   0  0  1  0  0  3  0  0  0  0  0  0
  191.3840  178.4140  143.4860 C   0  0  0  0  0  2  0  0  0  0  0  0
  190.7080  176.0020  144.0880 C   0  0  0  0  0  2  0  0  0  0  0  0
  191.6850  177.1600  144.3290 C   0  0  2  0  0  3  0  0  0  0  0  0
  189.9070  178.4990  143.1070 C   0  0  0  0  0  2  0  0  0  0  0  0
  185.8980  178.8200  137.7490 O   0  0  0  0  0  0  0  0  0  0  0  0
  184.9170  179.0050  138.7270 C   0  0  0  0  0  0  0  0  0  0  0  0
  184.5580  180.1650  139.0600 O   0  0  0  0  0  0  0  0  0  0  0  0
  183.9020  178.1910  140.7940 N   0  0  2  0  0  0  0  0  0  0  0  0
  184.2930  177.8150  139.3950 C   0  0  1  0  0  3  0  0  0  0  0  0
  182.9560  178.0570  139.6460 C   0  0  0  0  0  2  0  0  0  0  0  0
  185.2380  178.1480  144.2230 C   0  0  1  0  0  3  0  0  0  0  0  0
  183.5050  179.3670  142.8460 C   0  0  0  0  0  2  0  0  0  0  0  0
  184.1130  179.5610  144.5100 S   0  0  0  0  0  0  0  0  0  0  0  0
  185.2390  177.8900  142.8310 O   0  0  0  0  0  0  0  0  0  0  0  0
  184.2150  178.5100  142.1460 C   0  0  1  0  0  3  0  0  0  0  0  0
  186.5330  178.4580  144.6700 O   0  0  0  0  0  0  0  0  0  0  0  0
  187.0270  177.3050  145.3230 C   0  0  1  0  0  0  0  0  0  0  0  0
  188.2340  177.5040  146.2740 C   0  0  2  0  0  0  0  0  0  0  0  0
  188.6740  178.3610  147.4250 C   0  0  0  0  0  2  0  0  0  0  0  0
  186.7880  177.1060  146.7850 C   0  0  1  0  0  3  0  0  0  0  0  0
  187.1370  176.1530  144.5550 O   0  0  0  0  0  1  0  0  0  0  0  0
  185.8970  178.2270  147.3480 C   0  0  0  0  0  1  0  0  0  0  0  0
  188.5200  178.8960  146.1620 O   0  0  0  0  0  0  0  0  0  0  0  0
  1 33  1  6  0  0  0
  2  5  1  0  0  0  0
  3 10  1  6  0  0  0
  3  6  1  0  0  0  0
  4  2  1  0  0  0  0
  4  3  1  0  0  0  0
  5  7  1  6  0  0  0
  5  1  1  0  0  0  0
  6  1  1  0  0  0  0
  8  9  1  0  0  0  0
  8  7  1  0  0  0  0
  9  7  1  0  0  0  0
 10 11  1  0  0  0  0
 11 21  1  1  0  0  0
 13 15  1  0  0  0  0
 14 15  1  0  0  0  0
 14 12  2  0  0  0  0
 15 11  1  0  0  0  0
 16 14  1  0  0  0  0
 17 16  1  0  0  0  0
 17 20  1  0  0  0  0
 18 20  1  0  0  0  0
 20 19  1  6  0  0  0
 22 21  1  6  0  0  0
 22 25  1  0  0  0  0
 23 22  1  0  0  0  0
 23 24  1  0  0  0  0
 26 30  1  0  0  0  0
 28 25  1  6  0  0  0
 28 26  1  0  0  0  0
 28 32  1  0  0  0  0
 29 31  1  0  0  0  0
 30 31  1  0  0  0  0
 31 27  1  1  0  0  0
 32 29  1  0  0  0  0
 33 34  1  0  0  0  0
 34 35  2  0  0  0  0
 36 38  1  6  0  0  0
 36 43  1  0  0  0  0
 37 34  1  6  0  0  0
 37 38  1  0  0  0  0
 37 36  1  0  0  0  0
 39 41  1  0  0  0  0
 39 44  1  6  0  0  0
 40 41  1  0  0  0  0
 42 39  1  0  0  0  0
 43 42  1  0  0  0  0
 43 40  1  1  0  0  0
 44 45  1  0  0  0  0
 45 49  1  6  0  0  0
 45 46  1  0  0  0  0
 45 48  1  0  0  0  0
 46 48  1  0  0  0  0
 46 47  1  1  0  0  0
 48 50  1  1  0  0  0
 51 46  1  0  0  0  0
 51 47  1  0  0  0  0
M  END
>  <MODEL>
6

>  <REMARK>
 VINA RESULT:      -6.4      2.365      7.135
  Name = 
  17 active torsions:
  status: ('A' for Active; 'I' for Inactive)
    1  A    between atoms: O_2  and  C_8
    2  A    between atoms: O_2  and  C_28
    3  A    between atoms: C_4  and  O_49
    4  A    between atoms: C_6  and  C_38
    5  A    between atoms: C_7  and  O_49
    6  A    between atoms: N_10  and  C_47
    7  A    between atoms: N_12  and  C_24
    8  A    between atoms: C_13  and  C_28
    9  A    between atoms: N_14  and  C_20
   10  A    between atoms: C_20  and  C_37
   11  A    between atoms: C_24  and  C_40
   12  A    between atoms: C_24  and  O_48
   13  A    between atoms: C_25  and  C_27
   14  A    between atoms: C_27  and  C_35
   15  A    between atoms: O_30  and  C_35
   16  A    between atoms: C_32  and  O_48
   17  A    between atoms: C_35  and  C_40
                            x       y       z     vdW  Elec       q    Type
                         _______ _______ _______ _____ _____    ______ ____

>  <TORSDO>
F 17

$$$$
=
 OpenBabel11062414563D

 51 57  0  0  1  0  0  0  0  0999 V2000
  188.3320  177.6990  142.4460 C   0  0  1  0  0  3  0  0  0  0  0  0
  190.4730  178.6140  143.1800 O   0  0  0  0  0  0  0  0  0  0  0  0
  190.4170  177.2790  141.1620 C   0  0  2  0  0  3  0  0  0  0  0  0
  191.1660  177.6200  142.4480 C   0  0  0  0  0  2  0  0  0  0  0  0
  189.2310  178.0980  143.6300 C   0  0  2  0  0  3  0  0  0  0  0  0
  189.0490  176.7170  141.5320 C   0  0  0  0  0  2  0  0  0  0  0  0
  189.3970  177.0010  144.6880 C   0  0  0  0  0  3  0  0  0  0  0  0
  190.3360  177.4900  145.7790 C   0  0  0  0  0  2  0  0  0  0  0  0
  188.8400  177.4950  146.0150 C   0  0  0  0  0  2  0  0  0  0  0  0
  191.1460  176.3320  140.4330 O   0  0  0  0  0  0  0  0  0  0  0  0
  190.4580  176.1970  139.2200 C   0  0  2  0  0  3  0  0  0  0  0  0
  193.1220  176.7770  138.5290 O   0  0  0  0  0  0  0  0  0  0  0  0
  190.6920  174.3010  137.7040 O   0  0  0  0  0  1  0  0  0  0  0  0
  192.5760  175.8080  137.9310 C   0  0  0  0  0  0  0  0  0  0  0  0
  191.2510  175.3910  138.2960 N   0  0  0  0  0  0  0  0  0  0  0  0
  193.2850  175.1030  136.9130 N   0  0  0  0  0  2  0  0  0  0  0  0
  194.6260  175.4730  136.4850 C   0  0  0  0  0  2  0  0  0  0  0  0
  195.0110  177.6430  135.5150 O   0  0  0  0  0  1  0  0  0  0  0  0
  193.2180  176.3650  134.6090 C   0  0  0  0  0  1  0  0  0  0  0  0
  194.6000  176.3410  135.2290 C   0  0  2  0  0  3  0  0  0  0  0  0
  190.1730  177.5780  138.6350 C   0  0  0  0  0  2  0  0  0  0  0  0
  188.9420  177.5780  137.7220 C   0  0  1  0  0  3  0  0  0  0  0  0
  188.1740  178.7150  137.9730 O   0  0  0  0  0  0  0  0  0  0  0  0
  187.1620  178.2890  138.8410 C   0  0  0  0  0  1  0  0  0  0  0  0
  189.3090  177.5040  136.2320 C   0  0  0  0  0  2  0  0  0  0  0  0
  187.7510  175.5570  136.2820 C   0  0  0  0  0  2  0  0  0  0  0  0
  184.2930  176.0740  134.9440 N   0  0  0  0  0  1  0  0  0  0  0  0
  188.3320  176.6670  135.3950 C   0  0  1  0  0  3  0  0  0  0  0  0
  186.0220  177.6760  135.6140 C   0  0  0  0  0  2  0  0  0  0  0  0
  186.3580  175.1280  135.8070 C   0  0  0  0  0  2  0  0  0  0  0  0
  185.3740  176.3040  135.8820 C   0  0  2  0  0  3  0  0  0  0  0  0
  187.2680  177.5520  134.7400 C   0  0  0  0  0  2  0  0  0  0  0  0
  187.0940  177.1520  142.8790 O   0  0  0  0  0  0  0  0  0  0  0  0
  186.1320  177.9500  143.5030 C   0  0  0  0  0  0  0  0  0  0  0  0
  185.6870  177.6420  144.6400 O   0  0  0  0  0  0  0  0  0  0  0  0
  184.1680  179.3590  143.1550 N   0  0  2  0  0  0  0  0  0  0  0  0
  185.6180  179.1800  142.8130 C   0  0  1  0  0  3  0  0  0  0  0  0
  185.2920  180.1470  143.7440 C   0  0  0  0  0  2  0  0  0  0  0  0
  180.8130  178.5160  141.8960 C   0  0  1  0  0  3  0  0  0  0  0  0
  181.9690  179.0800  144.0720 C   0  0  0  0  0  2  0  0  0  0  0  0
  180.3120  178.5730  143.6540 S   0  0  0  0  0  0  0  0  0  0  0  0
  182.2270  178.5930  141.8610 O   0  0  0  0  0  0  0  0  0  0  0  0
  182.7960  178.9940  143.0520 C   0  0  1  0  0  3  0  0  0  0  0  0
  180.3680  177.3250  141.3010 O   0  0  0  0  0  0  0  0  0  0  0  0
  180.1370  177.6110  139.9350 C   0  0  1  0  0  0  0  0  0  0  0  0
  180.9790  176.8190  138.9040 C   0  0  2  0  0  0  0  0  0  0  0  0
  181.3650  175.4110  138.5580 C   0  0  0  0  0  2  0  0  0  0  0  0
  179.4170  176.6270  139.0710 C   0  0  1  0  0  3  0  0  0  0  0  0
  179.9950  178.9500  139.5940 O   0  0  0  0  0  1  0  0  0  0  0  0
  178.9310  175.4270  139.9010 C   0  0  0  0  0  1  0  0  0  0  0  0
  181.8220  176.0050  139.7160 O   0  0  0  0  0  0  0  0  0  0  0  0
  1 33  1  1  0  0  0
  1  5  1  0  0  0  0
  2  5  1  0  0  0  0
  3 10  1  1  0  0  0
  3  6  1  0  0  0  0
  3  4  1  0  0  0  0
  4  2  1  0  0  0  0
  5  7  1  1  0  0  0
  6  1  1  0  0  0  0
  7  8  1  0  0  0  0
  7  9  1  0  0  0  0
  8  9  1  0  0  0  0
 11 21  1  6  0  0  0
 11 10  1  0  0  0  0
 13 15  1  0  0  0  0
 14 15  1  0  0  0  0
 14 12  2  0  0  0  0
 15 11  1  0  0  0  0
 16 14  1  0  0  0  0
 17 16  1  0  0  0  0
 20 19  1  1  0  0  0
 20 18  1  0  0  0  0
 20 17  1  0  0  0  0
 22 25  1  6  0  0  0
 22 23  1  0  0  0  0
 22 21  1  0  0  0  0
 23 24  1  0  0  0  0
 28 25  1  1  0  0  0
 28 26  1  0  0  0  0
 29 31  1  0  0  0  0
 30 31  1  0  0  0  0
 30 26  1  0  0  0  0
 31 27  1  6  0  0  0
 32 28  1  0  0  0  0
 32 29  1  0  0  0  0
 33 34  1  0  0  0  0
 34 35  2  0  0  0  0
 36 38  1  1  0  0  0
 37 36  1  0  0  0  0
 37 34  1  1  0  0  0
 37 38  1  0  0  0  0
 39 44  1  1  0  0  0
 39 41  1  0  0  0  0
 41 40  1  0  0  0  0
 42 39  1  0  0  0  0
 42 43  1  0  0  0  0
 43 36  1  0  0  0  0
 43 40  1  6  0  0  0
 45 49  1  6  0  0  0
 45 44  1  0  0  0  0
 46 47  1  6  0  0  0
 46 48  1  0  0  0  0
 46 51  1  0  0  0  0
 46 45  1  0  0  0  0
 47 51  1  0  0  0  0
 48 50  1  1  0  0  0
 48 45  1  0  0  0  0
M  END
>  <MODEL>
7

>  <REMARK>
 VINA RESULT:      -6.3      1.839      2.508
  Name = 
  17 active torsions:
  status: ('A' for Active; 'I' for Inactive)
    1  A    between atoms: O_2  and  C_8
    2  A    between atoms: O_2  and  C_28
    3  A    between atoms: C_4  and  O_49
    4  A    between atoms: C_6  and  C_38
    5  A    between atoms: C_7  and  O_49
    6  A    between atoms: N_10  and  C_47
    7  A    between atoms: N_12  and  C_24
    8  A    between atoms: C_13  and  C_28
    9  A    between atoms: N_14  and  C_20
   10  A    between atoms: C_20  and  C_37
   11  A    between atoms: C_24  and  C_40
   12  A    between atoms: C_24  and  O_48
   13  A    between atoms: C_25  and  C_27
   14  A    between atoms: C_27  and  C_35
   15  A    between atoms: O_30  and  C_35
   16  A    between atoms: C_32  and  O_48
   17  A    between atoms: C_35  and  C_40
                            x       y       z     vdW  Elec       q    Type
                         _______ _______ _______ _____ _____    ______ ____

>  <TORSDO>
F 17

$$$$
=
 OpenBabel11062414563D

 51 57  0  0  1  0  0  0  0  0999 V2000
  189.1850  177.0540  139.5850 C   0  0  1  0  0  3  0  0  0  0  0  0
  189.0620  176.8310  142.0120 O   0  0  0  0  0  0  0  0  0  0  0  0
  187.4080  178.1960  140.8920 C   0  0  2  0  0  3  0  0  0  0  0  0
  188.3260  178.0360  142.1010 C   0  0  0  0  0  2  0  0  0  0  0  0
  189.9520  176.8930  140.9090 C   0  0  2  0  0  3  0  0  0  0  0  0
  188.2690  178.2660  139.6350 C   0  0  0  0  0  2  0  0  0  0  0  0
  191.0710  177.9200  141.1130 C   0  0  0  0  0  3  0  0  0  0  0  0
  191.9490  177.4860  142.2760 C   0  0  0  0  0  2  0  0  0  0  0  0
  192.4160  177.2550  140.8550 C   0  0  0  0  0  2  0  0  0  0  0  0
  186.6550  179.3690  141.0260 O   0  0  0  0  0  0  0  0  0  0  0  0
  185.3730  178.9400  141.3930 C   0  0  2  0  0  3  0  0  0  0  0  0
  183.4810  176.9930  140.6590 O   0  0  0  0  0  0  0  0  0  0  0  0
  184.5330  180.1870  139.4740 O   0  0  0  0  0  1  0  0  0  0  0  0
  183.5930  177.9950  139.8980 C   0  0  0  0  0  0  0  0  0  0  0  0
  184.4690  179.0760  140.2550 N   0  0  0  0  0  0  0  0  0  0  0  0
  182.8250  178.0710  138.6980 N   0  0  0  0  0  2  0  0  0  0  0  0
  181.9250  177.0120  138.2680 C   0  0  0  0  0  2  0  0  0  0  0  0
  181.6950  176.6920  135.8930 O   0  0  0  0  0  1  0  0  0  0  0  0
  181.2510  178.8760  136.7300 C   0  0  0  0  0  1  0  0  0  0  0  0
  181.1810  177.3850  136.9880 C   0  0  2  0  0  3  0  0  0  0  0  0
  184.8790  179.7560  142.5840 C   0  0  0  0  0  2  0  0  0  0  0  0
  184.2890  178.8730  143.6890 C   0  0  1  0  0  3  0  0  0  0  0  0
  183.2370  178.1170  143.1710 O   0  0  0  0  0  0  0  0  0  0  0  0
  182.0790  178.6670  143.7360 C   0  0  0  0  0  1  0  0  0  0  0  0
  185.3360  177.9520  144.3330 C   0  0  0  0  0  2  0  0  0  0  0  0
  185.6440  178.9950  146.5790 C   0  0  0  0  0  2  0  0  0  0  0  0
  188.6680  178.0010  148.5480 N   0  0  0  0  0  1  0  0  0  0  0  0
  186.3320  178.6880  145.2410 C   0  0  1  0  0  3  0  0  0  0  0  0
  187.6000  176.9700  146.5990 C   0  0  0  0  0  2  0  0  0  0  0  0
  186.6570  179.0880  147.7240 C   0  0  0  0  0  2  0  0  0  0  0  0
  187.3910  177.7530  147.9090 C   0  0  2  0  0  3  0  0  0  0  0  0
  187.6360  177.8970  145.3860 C   0  0  0  0  0  2  0  0  0  0  0  0
  190.0620  177.1480  138.4710 O   0  0  0  0  0  0  0  0  0  0  0  0
  190.3870  176.0210  137.7110 C   0  0  0  0  0  0  0  0  0  0  0  0
  190.6610  174.9290  138.2750 O   0  0  0  0  0  0  0  0  0  0  0  0
  191.7070  175.5220  135.7170 N   0  0  2  0  0  0  0  0  0  0  0  0
  190.4180  176.1120  136.2130 C   0  0  1  0  0  3  0  0  0  0  0  0
  190.3760  174.8470  135.6590 C   0  0  0  0  0  2  0  0  0  0  0  0
  195.3470  175.2360  136.1790 C   0  0  1  0  0  3  0  0  0  0  0  0
  193.6830  176.2910  134.5960 C   0  0  0  0  0  2  0  0  0  0  0  0
  195.4600  176.1560  134.6020 S   0  0  0  0  0  0  0  0  0  0  0  0
  193.9880  174.8820  136.3600 O   0  0  0  0  0  0  0  0  0  0  0  0
  193.1180  175.5580  135.5310 C   0  0  1  0  0  3  0  0  0  0  0  0
  196.1550  174.0880  136.1310 O   0  0  0  0  0  0  0  0  0  0  0  0
  197.1210  174.2260  137.1560 C   0  0  1  0  0  0  0  0  0  0  0  0
  197.9990  172.9860  137.4590 C   0  0  2  0  0  0  0  0  0  0  0  0
  198.8630  171.9780  136.7590 C   0  0  0  0  0  2  0  0  0  0  0  0
  198.5730  174.3130  136.8130 C   0  0  1  0  0  3  0  0  0  0  0  0
  196.7190  174.8910  138.3070 O   0  0  0  0  0  1  0  0  0  0  0  0
  198.7730  174.3360  135.2880 C   0  0  0  0  0  1  0  0  0  0  0  0
  197.4970  171.9960  136.5640 O   0  0  0  0  0  0  0  0  0  0  0  0
  1 33  1  6  0  0  0
  1  6  1  0  0  0  0
  1  5  1  0  0  0  0
  2  4  1  0  0  0  0
  3 10  1  1  0  0  0
  3  4  1  0  0  0  0
  5  7  1  1  0  0  0
  5  2  1  0  0  0  0
  6  3  1  0  0  0  0
  7  8  1  0  0  0  0
  9  7  1  0  0  0  0
  9  8  1  0  0  0  0
 10 11  1  0  0  0  0
 11 21  1  1  0  0  0
 13 15  1  0  0  0  0
 14 15  1  0  0  0  0
 14 12  2  0  0  0  0
 15 11  1  0  0  0  0
 16 14  1  0  0  0  0
 17 16  1  0  0  0  0
 18 20  1  0  0  0  0
 20 19  1  6  0  0  0
 20 17  1  0  0  0  0
 22 21  1  6  0  0  0
 22 25  1  0  0  0  0
 23 22  1  0  0  0  0
 23 24  1  0  0  0  0
 26 30  1  0  0  0  0
 28 25  1  6  0  0  0
 28 32  1  0  0  0  0
 28 26  1  0  0  0  0
 29 31  1  0  0  0  0
 30 31  1  0  0  0  0
 31 27  1  6  0  0  0
 32 29  1  0  0  0  0
 34 35  2  0  0  0  0
 34 33  1  0  0  0  0
 36 38  1  1  0  0  0
 36 37  1  0  0  0  0
 37 34  1  1  0  0  0
 38 37  1  0  0  0  0
 39 44  1  6  0  0  0
 39 42  1  0  0  0  0
 40 41  1  0  0  0  0
 41 39  1  0  0  0  0
 43 40  1  1  0  0  0
 43 36  1  0  0  0  0
 43 42  1  0  0  0  0
 44 45  1  0  0  0  0
 45 46  1  0  0  0  0
 45 49  1  1  0  0  0
 46 47  1  1  0  0  0
 48 50  1  6  0  0  0
 48 45  1  0  0  0  0
 48 46  1  0  0  0  0
 51 47  1  0  0  0  0
 51 46  1  0  0  0  0
M  END
>  <MODEL>
8

>  <REMARK>
 VINA RESULT:      -6.3      2.976     11.105
  Name = 
  17 active torsions:
  status: ('A' for Active; 'I' for Inactive)
    1  A    between atoms: O_2  and  C_8
    2  A    between atoms: O_2  and  C_28
    3  A    between atoms: C_4  and  O_49
    4  A    between atoms: C_6  and  C_38
    5  A    between atoms: C_7  and  O_49
    6  A    between atoms: N_10  and  C_47
    7  A    between atoms: N_12  and  C_24
    8  A    between atoms: C_13  and  C_28
    9  A    between atoms: N_14  and  C_20
   10  A    between atoms: C_20  and  C_37
   11  A    between atoms: C_24  and  C_40
   12  A    between atoms: C_24  and  O_48
   13  A    between atoms: C_25  and  C_27
   14  A    between atoms: C_27  and  C_35
   15  A    between atoms: O_30  and  C_35
   16  A    between atoms: C_32  and  O_48
   17  A    between atoms: C_35  and  C_40
                            x       y       z     vdW  Elec       q    Type
                         _______ _______ _______ _____ _____    ______ ____

>  <TORSDO>
F 17

$$$$
=
 OpenBabel11062414563D

 51 57  0  0  1  0  0  0  0  0999 V2000
  182.1520  179.0720  141.1720 C   0  0  1  0  0  3  0  0  0  0  0  0
  182.2920  179.6840  143.5300 O   0  0  0  0  0  0  0  0  0  0  0  0
  184.0680  178.3450  142.5760 C   0  0  2  0  0  3  0  0  0  0  0  0
  183.1600  178.5930  143.7780 C   0  0  0  0  0  2  0  0  0  0  0  0
  181.3960  179.3550  142.4820 C   0  0  2  0  0  3  0  0  0  0  0  0
  183.1990  177.9880  141.3760 C   0  0  0  0  0  2  0  0  0  0  0  0
  180.4010  178.2590  142.8790 C   0  0  0  0  0  3  0  0  0  0  0  0
  180.0130  178.4340  144.3390 C   0  0  0  0  0  2  0  0  0  0  0  0
  179.0700  178.8970  143.2490 C   0  0  0  0  0  2  0  0  0  0  0  0
  184.9490  177.2960  142.8630 O   0  0  0  0  0  0  0  0  0  0  0  0
  186.1160  177.9160  143.3300 C   0  0  2  0  0  3  0  0  0  0  0  0
  186.5910  179.3730  140.9730 O   0  0  0  0  0  0  0  0  0  0  0  0
  188.0690  176.6110  142.6760 O   0  0  0  0  0  1  0  0  0  0  0  0
  187.3350  178.3760  141.1870 C   0  0  0  0  0  0  0  0  0  0  0  0
  187.2170  177.6380  142.4130 N   0  0  0  0  0  0  0  0  0  0  0  0
  188.3190  177.9980  140.2250 N   0  0  0  0  0  2  0  0  0  0  0  0
  188.4910  178.6910  138.9570 C   0  0  0  0  0  2  0  0  0  0  0  0
  189.3060  178.3630  136.7160 O   0  0  0  0  0  1  0  0  0  0  0  0
  189.3090  176.4620  138.1490 C   0  0  0  0  0  1  0  0  0  0  0  0
  189.4720  177.9640  138.0410 C   0  0  2  0  0  3  0  0  0  0  0  0
  186.4350  177.4140  144.7360 C   0  0  0  0  0  2  0  0  0  0  0  0
  186.6540  178.5640  145.7260 C   0  0  1  0  0  3  0  0  0  0  0  0
  185.7090  178.4860  146.7490 O   0  0  0  0  0  0  0  0  0  0  0  0
  186.1580  179.3770  147.7310 C   0  0  0  0  0  1  0  0  0  0  0  0
  188.0730  178.5770  146.3150 C   0  0  0  0  0  2  0  0  0  0  0  0
  190.1350  177.7700  145.1670 C   0  0  0  0  0  2  0  0  0  0  0  0
  192.3840  175.4600  147.0700 N   0  0  0  0  0  1  0  0  0  0  0  0
  188.8990  177.3310  145.9640 C   0  0  1  0  0  3  0  0  0  0  0  0
  190.5730  176.9320  147.8190 C   0  0  0  0  0  2  0  0  0  0  0  0
  191.3000  176.7910  145.3510 C   0  0  0  0  0  2  0  0  0  0  0  0
  191.7310  176.7300  146.8220 C   0  0  2  0  0  3  0  0  0  0  0  0
  189.2320  176.5180  147.2180 C   0  0  0  0  0  2  0  0  0  0  0  0
  181.2720  178.7110  140.1160 O   0  0  0  0  0  0  0  0  0  0  0  0
  181.0140  179.5900  139.0610 C   0  0  0  0  0  0  0  0  0  0  0  0
  181.5610  180.7230  139.0240 O   0  0  0  0  0  0  0  0  0  0  0  0
  180.5470  177.8960  137.3630 N   0  0  2  0  0  0  0  0  0  0  0  0
  180.0700  179.1860  137.9650 C   0  0  1  0  0  3  0  0  0  0  0  0
  179.4030  178.0280  138.3140 C   0  0  0  0  0  2  0  0  0  0  0  0
  183.5620  176.3280  135.9490 C   0  0  1  0  0  3  0  0  0  0  0  0
  181.1310  176.7000  135.3670 C   0  0  0  0  0  2  0  0  0  0  0  0
  182.4560  175.7940  134.5940 S   0  0  0  0  0  0  0  0  0  0  0  0
  182.7430  176.8700  136.9690 O   0  0  0  0  0  0  0  0  0  0  0  0
  181.4510  177.1370  136.5670 C   0  0  1  0  0  3  0  0  0  0  0  0
  184.2990  175.2360  136.4340 O   0  0  0  0  0  0  0  0  0  0  0  0
  185.6670  175.5780  136.3100 C   0  0  1  0  0  0  0  0  0  0  0  0
  186.6880  174.6320  136.9900 C   0  0  2  0  0  0  0  0  0  0  0  0
  187.0440  173.1760  137.0720 C   0  0  0  0  0  2  0  0  0  0  0  0
  186.5630  174.7810  135.4190 C   0  0  1  0  0  3  0  0  0  0  0  0
  185.9910  176.9190  136.4690 O   0  0  0  0  0  1  0  0  0  0  0  0
  185.7640  173.7060  134.6620 C   0  0  0  0  0  1  0  0  0  0  0  0
  185.8660  173.6480  137.6140 O   0  0  0  0  0  0  0  0  0  0  0  0
  1 33  1  6  0  0  0
  1  6  1  0  0  0  0
  1  5  1  0  0  0  0
  2  4  1  0  0  0  0
  3 10  1  1  0  0  0
  3  4  1  0  0  0  0
  5  7  1  1  0  0  0
  5  2  1  0  0  0  0
  6  3  1  0  0  0  0
  7  9  1  0  0  0  0
  7  8  1  0  0  0  0
  9  8  1  0  0  0  0
 10 11  1  0  0  0  0
 11 21  1  1  0  0  0
 12 14  2  0  0  0  0
 14 15  1  0  0  0  0
 15 13  1  0  0  0  0
 15 11  1  0  0  0  0
 16 14  1  0  0  0  0
 17 16  1  0  0  0  0
 18 20  1  0  0  0  0
 20 19  1  6  0  0  0
 20 17  1  0  0  0  0
 22 21  1  6  0  0  0
 22 25  1  0  0  0  0
 22 23  1  0  0  0  0
 23 24  1  0  0  0  0
 26 30  1  0  0  0  0
 26 28  1  0  0  0  0
 28 25  1  1  0  0  0
 28 32  1  0  0  0  0
 30 31  1  0  0  0  0
 31 27  1  1  0  0  0
 31 29  1  0  0  0  0
 32 29  1  0  0  0  0
 34 33  1  0  0  0  0
 35 34  2  0  0  0  0
 36 37  1  0  0  0  0
 36 38  1  1  0  0  0
 37 38  1  0  0  0  0
 37 34  1  1  0  0  0
 39 44  1  1  0  0  0
 39 42  1  0  0  0  0
 41 40  1  0  0  0  0
 41 39  1  0  0  0  0
 43 40  1  6  0  0  0
 43 42  1  0  0  0  0
 43 36  1  0  0  0  0
 45 44  1  0  0  0  0
 45 49  1  1  0  0  0
 45 46  1  0  0  0  0
 46 47  1  1  0  0  0
 46 51  1  0  0  0  0
 47 51  1  0  0  0  0
 48 50  1  6  0  0  0
 48 45  1  0  0  0  0
 48 46  1  0  0  0  0
M  END
>  <MODEL>
9

>  <REMARK>
 VINA RESULT:      -6.2      3.074      8.138
  Name = 
  17 active torsions:
  status: ('A' for Active; 'I' for Inactive)
    1  A    between atoms: O_2  and  C_8
    2  A    between atoms: O_2  and  C_28
    3  A    between atoms: C_4  and  O_49
    4  A    between atoms: C_6  and  C_38
    5  A    between atoms: C_7  and  O_49
    6  A    between atoms: N_10  and  C_47
    7  A    between atoms: N_12  and  C_24
    8  A    between atoms: C_13  and  C_28
    9  A    between atoms: N_14  and  C_20
   10  A    between atoms: C_20  and  C_37
   11  A    between atoms: C_24  and  C_40
   12  A    between atoms: C_24  and  O_48
   13  A    between atoms: C_25  and  C_27
   14  A    between atoms: C_27  and  C_35
   15  A    between atoms: O_30  and  C_35
   16  A    between atoms: C_32  and  O_48
   17  A    between atoms: C_35  and  C_40
                            x       y       z     vdW  Elec       q    Type
                         _______ _______ _______ _____ _____    ______ ____

>  <TORSDO>
F 17

$$$$
