=
 OpenBabel11062417513D

 39 44  0  0  1  0  0  0  0  0999 V2000
  189.1610  177.3380  140.5050 N   0  0  0  0  0  0  0  0  0  0  0  0
  189.7310  176.7620  139.4860 C   0  0  0  0  0  0  0  0  0  0  0  0
  189.4350  177.0230  138.0370 C   0  0  2  0  0  3  0  0  0  0  0  0
  187.9790  176.7810  137.8000 C   0  0  0  0  0  3  0  0  0  0  0  0
  188.3400  179.3070  139.5420 O   0  0  0  0  0  0  0  0  0  0  0  0
  185.8290  176.9700  136.6100 C   0  0  2  0  0  0  0  0  0  0  0  0
  187.3330  177.0500  136.6640 C   0  0  0  0  0  0  0  0  0  0  0  0
  183.7820  176.6810  137.9950 C   0  0  0  0  0  2  0  0  0  0  0  0
  190.2810  175.9450  137.4380 C   0  0  0  0  0  0  0  0  0  0  0  0
  185.5680  177.8210  143.0130 C   0  0  2  0  0  3  0  0  0  0  0  0
  187.0840  178.4370  141.3080 N   0  0  0  0  0  0  0  0  0  0  0  0
  186.8990  177.4730  142.3730 C   0  0  0  0  0  2  0  0  0  0  0  0
  185.2060  179.2180  142.5150 C   0  0  0  0  0  2  0  0  0  0  0  0
  190.9920  175.2010  138.4180 N   0  0  0  0  0  2  0  0  0  0  0  0
  183.7560  178.0960  138.5780 C   0  0  2  0  0  3  0  0  0  0  0  0
  188.0290  177.5260  135.5570 O   0  0  0  0  0  1  0  0  0  0  0  0
  190.6380  175.7230  139.6350 O   0  0  0  0  0  0  0  0  0  0  0  0
  185.1870  179.2990  140.0350 C   0  0  0  0  0  3  0  0  0  0  0  0
  184.5850  178.1980  139.7580 N   0  0  0  0  0  0  0  0  0  0  0  0
  188.2050  178.4050  140.4140 C   0  0  0  0  0  0  0  0  0  0  0  0
  185.2110  176.2070  137.7670 C   0  0  1  0  0  3  0  0  0  0  0  0
  190.3890  175.7250  136.2030 O   0  0  0  0  0  0  0  0  0  0  0  0
  186.0400  179.4470  141.2660 C   0  0  2  0  0  3  0  0  0  0  0  0
  185.3940  175.5500  136.4160 C   0  0  1  0  0  3  0  0  0  0  0  0
  185.3740  176.4900  135.3700 O   0  0  0  0  0  0  0  0  0  0  0  0
  186.8550  177.8410  144.9990 C   0  0  0  0  0  3  0  0  0  0  0  0
  185.6960  177.8130  144.4460 N   0  0  0  0  0  0  0  0  0  0  0  0
  186.9870  177.8330  146.4870 C   0  0  0  0  0  2  0  0  0  0  0  0
  188.3960  177.4470  146.9100 C   0  0  2  0  0  3  0  0  0  0  0  0
  188.6750  178.0060  148.2890 C   0  0  0  0  0  1  0  0  0  0  0  0
  189.3250  177.9660  146.0080 O   0  0  0  0  0  1  0  0  0  0  0  0
  182.1960  179.9300  138.7880 O   0  0  0  0  0  1  0  0  0  0  0  0
  182.3140  178.5380  138.8540 C   0  0  2  0  0  3  0  0  0  0  0  0
  181.6550  179.0260  141.2570 C   0  0  0  0  0  3  0  0  0  0  0  0
  179.7040  176.9700  141.2140 C   0  0  0  0  0  3  0  0  0  0  0  0
  181.7310  177.9870  140.1620 C   0  0  1  0  0  3  0  0  0  0  0  0
  179.8930  177.7100  142.3120 C   0  0  0  0  0  3  0  0  0  0  0  0
  180.8150  178.8630  142.2830 C   0  0  0  0  0  3  0  0  0  0  0  0
  180.3590  177.3520  139.9130 C   0  0  0  0  0  2  0  0  0  0  0  0
  2 17  1  0  0  0  0
  2  1  2  0  0  0  0
  3  4  1  1  0  0  0
  3  2  1  0  0  0  0
  5 20  2  0  0  0  0
  6 25  1  6  0  0  0
  6  7  1  0  0  0  0
  6 21  1  0  0  0  0
  7  4  2  0  0  0  0
  8 15  1  0  0  0  0
  9  3  1  0  0  0  0
  9 14  1  0  0  0  0
 10 27  1  1  0  0  0
 11 12  1  0  0  0  0
 12 10  1  0  0  0  0
 13 10  1  0  0  0  0
 14 17  1  0  0  0  0
 15 33  1  1  0  0  0
 15 19  1  0  0  0  0
 16  7  1  0  0  0  0
 19 18  2  0  0  0  0
 20  1  1  0  0  0  0
 20 11  1  0  0  0  0
 21  8  1  6  0  0  0
 22  9  2  0  0  0  0
 23 18  1  6  0  0  0
 23 11  1  0  0  0  0
 23 13  1  0  0  0  0
 24 25  1  6  0  0  0
 24  6  1  0  0  0  0
 24 21  1  0  0  0  0
 26 28  1  0  0  0  0
 27 26  2  0  0  0  0
 28 29  1  0  0  0  0
 29 30  1  1  0  0  0
 31 29  1  0  0  0  0
 33 32  1  1  0  0  0
 34 38  2  0  0  0  0
 35 37  2  0  0  0  0
 36 33  1  6  0  0  0
 36 34  1  0  0  0  0
 38 37  1  0  0  0  0
 39 36  1  0  0  0  0
 39 35  1  0  0  0  0
M  END
>  <MODEL>
1

>  <REMARK>
 VINA RESULT:      -7.7      0.000      0.000
  Name = 
  5 active torsions:
  status: ('A' for Active; 'I' for Inactive)
    1  A    between atoms: C_7  and  C_23
    2  A    between atoms: C_12  and  N_22
    3  A    between atoms: C_15  and  C_23
    4  A    between atoms: C_20  and  C_29
    5  A    between atoms: C_21  and  C_29
                            x       y       z     vdW  Elec       q    Type
                         _______ _______ _______ _____ _____    ______ ____

>  <TORSDO>
F 5

$$$$
=
 OpenBabel11062417513D

 39 44  0  0  1  0  0  0  0  0999 V2000
  186.7680  176.8620  136.9200 N   0  0  0  0  0  0  0  0  0  0  0  0
  185.5020  177.1080  137.0960 C   0  0  0  0  0  0  0  0  0  0  0  0
  184.9190  178.2130  137.9300 C   0  0  2  0  0  3  0  0  0  0  0  0
  185.4420  178.0800  139.3240 C   0  0  0  0  0  3  0  0  0  0  0  0
  187.7320  178.9310  137.4340 O   0  0  0  0  0  0  0  0  0  0  0  0
  186.0030  178.8390  141.6010 C   0  0  2  0  0  0  0  0  0  0  0  0
  185.2500  178.9670  140.3020 C   0  0  0  0  0  0  0  0  0  0  0  0
  187.8260  177.5960  142.7510 C   0  0  0  0  0  2  0  0  0  0  0  0
  183.4780  177.8240  137.8400 C   0  0  0  0  0  0  0  0  0  0  0  0
  190.5720  175.3910  138.5950 C   0  0  2  0  0  3  0  0  0  0  0  0
  189.0280  177.0540  137.9320 N   0  0  0  0  0  0  0  0  0  0  0  0
  189.2460  175.6220  137.8930 C   0  0  0  0  0  2  0  0  0  0  0  0
  191.2480  176.7570  138.6910 C   0  0  0  0  0  2  0  0  0  0  0  0
  183.2710  176.6760  137.0280 N   0  0  0  0  0  2  0  0  0  0  0  0
  188.9930  178.3090  142.0630 C   0  0  2  0  0  3  0  0  0  0  0  0
  184.4500  180.0850  140.0880 O   0  0  0  0  0  1  0  0  0  0  0  0
  184.5100  176.2770  136.5970 O   0  0  0  0  0  0  0  0  0  0  0  0
  189.7760  178.3990  139.8270 C   0  0  0  0  0  3  0  0  0  0  0  0
  189.3190  177.6900  140.7980 N   0  0  0  0  0  0  0  0  0  0  0  0
  187.8390  177.6740  137.4240 C   0  0  0  0  0  0  0  0  0  0  0  0
  186.6310  177.4740  141.8170 C   0  0  1  0  0  3  0  0  0  0  0  0
  182.5330  178.4500  138.3890 O   0  0  0  0  0  0  0  0  0  0  0  0
  190.1460  177.7860  138.5040 C   0  0  2  0  0  3  0  0  0  0  0  0
  185.3290  177.8440  142.4940 C   0  0  1  0  0  3  0  0  0  0  0  0
  185.2210  179.2310  142.7010 O   0  0  0  0  0  0  0  0  0  0  0  0
  192.5830  174.7880  137.5040 C   0  0  0  0  0  3  0  0  0  0  0  0
  191.3790  174.4810  137.8280 N   0  0  0  0  0  0  0  0  0  0  0  0
  193.4210  173.8410  136.7080 C   0  0  0  0  0  2  0  0  0  0  0  0
  194.8840  173.9300  137.1140 C   0  0  2  0  0  3  0  0  0  0  0  0
  195.1210  173.0500  138.3240 C   0  0  0  0  0  1  0  0  0  0  0  0
  195.2130  175.2470  137.4330 O   0  0  0  0  0  1  0  0  0  0  0  0
  191.3900  178.1010  142.2980 O   0  0  0  0  0  1  0  0  0  0  0  0
  190.2090  178.3750  142.9960 C   0  0  2  0  0  3  0  0  0  0  0  0
  191.3930  176.8740  144.6670 C   0  0  0  0  0  3  0  0  0  0  0  0
  189.5040  177.5100  146.6830 C   0  0  0  0  0  3  0  0  0  0  0  0
  190.0820  177.5010  144.2500 C   0  0  1  0  0  3  0  0  0  0  0  0
  190.5170  176.6740  146.9340 C   0  0  0  0  0  3  0  0  0  0  0  0
  191.5700  176.4530  145.9230 C   0  0  0  0  0  3  0  0  0  0  0  0
  189.4680  178.3020  145.4030 C   0  0  0  0  0  2  0  0  0  0  0  0
  1  2  2  0  0  0  0
  1 20  1  0  0  0  0
  2  3  1  0  0  0  0
  3  4  1  1  0  0  0
  4  7  2  0  0  0  0
  6  7  1  6  0  0  0
  6 21  1  0  0  0  0
  6 24  1  0  0  0  0
  6 25  1  0  0  0  0
  9  3  1  0  0  0  0
  9 22  2  0  0  0  0
 10 27  1  6  0  0  0
 10 13  1  0  0  0  0
 11 23  1  0  0  0  0
 12 11  1  0  0  0  0
 12 10  1  0  0  0  0
 14  9  1  0  0  0  0
 15  8  1  0  0  0  0
 15 33  1  1  0  0  0
 16  7  1  0  0  0  0
 17 14  1  0  0  0  0
 17  2  1  0  0  0  0
 18 19  2  0  0  0  0
 19 15  1  0  0  0  0
 20  5  2  0  0  0  0
 20 11  1  0  0  0  0
 21 24  1  0  0  0  0
 21  8  1  1  0  0  0
 23 13  1  1  0  0  0
 23 18  1  0  0  0  0
 24 25  1  1  0  0  0
 26 27  2  0  0  0  0
 28 29  1  0  0  0  0
 28 26  1  0  0  0  0
 29 31  1  0  0  0  0
 29 30  1  1  0  0  0
 33 32  1  6  0  0  0
 34 38  2  0  0  0  0
 35 37  2  0  0  0  0
 36 33  1  6  0  0  0
 36 34  1  0  0  0  0
 36 39  1  0  0  0  0
 38 37  1  0  0  0  0
 39 35  1  0  0  0  0
M  END
>  <MODEL>
2

>  <REMARK>
 VINA RESULT:      -7.6      2.618      8.008
  Name = 
  5 active torsions:
  status: ('A' for Active; 'I' for Inactive)
    1  A    between atoms: C_7  and  C_23
    2  A    between atoms: C_12  and  N_22
    3  A    between atoms: C_15  and  C_23
    4  A    between atoms: C_20  and  C_29
    5  A    between atoms: C_21  and  C_29
                            x       y       z     vdW  Elec       q    Type
                         _______ _______ _______ _____ _____    ______ ____

>  <TORSDO>
F 5

$$$$
=
 OpenBabel11062417513D

 39 44  0  0  1  0  0  0  0  0999 V2000
  189.1810  177.2390  140.5260 N   0  0  0  0  0  0  0  0  0  0  0  0
  189.5650  176.8010  139.3620 C   0  0  0  0  0  0  0  0  0  0  0  0
  189.0570  177.2640  138.0260 C   0  0  2  0  0  3  0  0  0  0  0  0
  187.5740  177.0760  137.9940 C   0  0  0  0  0  3  0  0  0  0  0  0
  188.2890  179.3320  139.9800 O   0  0  0  0  0  0  0  0  0  0  0  0
  185.2730  177.4550  137.1970 C   0  0  2  0  0  0  0  0  0  0  0  0
  186.7690  177.5080  137.0210 C   0  0  0  0  0  0  0  0  0  0  0  0
  183.4580  177.0040  138.8370 C   0  0  0  0  0  2  0  0  0  0  0  0
  189.7610  176.2680  137.1620 C   0  0  0  0  0  0  0  0  0  0  0  0
  186.0410  177.4170  143.6160 C   0  0  2  0  0  3  0  0  0  0  0  0
  187.2940  178.2430  141.7890 N   0  0  0  0  0  0  0  0  0  0  0  0
  187.2440  177.1440  142.7310 C   0  0  0  0  0  2  0  0  0  0  0  0
  185.6540  178.8740  143.3730 C   0  0  0  0  0  2  0  0  0  0  0  0
  190.5900  175.3860  137.9070 N   0  0  0  0  0  2  0  0  0  0  0  0
  183.5720  178.3250  139.6020 C   0  0  2  0  0  3  0  0  0  0  0  0
  187.3000  178.1230  135.8920 O   0  0  0  0  0  1  0  0  0  0  0  0
  190.4480  175.7400  139.2240 O   0  0  0  0  0  0  0  0  0  0  0  0
  185.2530  179.2970  140.9620 C   0  0  0  0  0  3  0  0  0  0  0  0
  184.5770  178.2530  140.6380 N   0  0  0  0  0  0  0  0  0  0  0  0
  188.2600  178.3200  140.7330 C   0  0  0  0  0  0  0  0  0  0  0  0
  184.8160  176.5480  138.3240 C   0  0  1  0  0  3  0  0  0  0  0  0
  189.6690  176.2190  135.9070 O   0  0  0  0  0  0  0  0  0  0  0  0
  186.2910  179.2630  142.0500 C   0  0  2  0  0  3  0  0  0  0  0  0
  184.7640  176.0820  136.8850 C   0  0  1  0  0  3  0  0  0  0  0  0
  184.6150  177.1570  135.9910 O   0  0  0  0  0  0  0  0  0  0  0  0
  186.7650  178.1940  145.7300 C   0  0  0  0  0  3  0  0  0  0  0  0
  186.3900  177.2100  144.9950 N   0  0  0  0  0  0  0  0  0  0  0  0
  187.1280  177.9780  147.1630 C   0  0  0  0  0  2  0  0  0  0  0  0
  188.5860  177.5710  147.3040 C   0  0  2  0  0  3  0  0  0  0  0  0
  189.1840  178.2630  148.5110 C   0  0  0  0  0  1  0  0  0  0  0  0
  189.2980  177.9410  146.1630 O   0  0  0  0  0  1  0  0  0  0  0  0
  181.4400  177.6250  140.4980 O   0  0  0  0  0  1  0  0  0  0  0  0
  182.2060  178.7440  140.1610 C   0  0  2  0  0  3  0  0  0  0  0  0
  180.2270  180.3190  139.9360 C   0  0  0  0  0  3  0  0  0  0  0  0
  181.5700  181.8380  137.9550 C   0  0  0  0  0  3  0  0  0  0  0  0
  181.4280  179.7050  139.2530 C   0  0  1  0  0  3  0  0  0  0  0  0
  180.3380  182.1710  138.3540 C   0  0  0  0  0  3  0  0  0  0  0  0
  179.7000  181.4580  139.4770 C   0  0  0  0  0  3  0  0  0  0  0  0
  182.3570  180.7920  138.6990 C   0  0  0  0  0  2  0  0  0  0  0  0
  1 20  1  0  0  0  0
  2  1  2  0  0  0  0
  3  4  1  1  0  0  0
  3  2  1  0  0  0  0
  5 20  2  0  0  0  0
  6 25  1  6  0  0  0
  6 21  1  0  0  0  0
  7  6  1  0  0  0  0
  7  4  2  0  0  0  0
  8 15  1  0  0  0  0
  9 14  1  0  0  0  0
  9  3  1  0  0  0  0
 10 27  1  1  0  0  0
 11 23  1  0  0  0  0
 11 12  1  0  0  0  0
 12 10  1  0  0  0  0
 13 10  1  0  0  0  0
 14 17  1  0  0  0  0
 15 33  1  1  0  0  0
 15 19  1  0  0  0  0
 16  7  1  0  0  0  0
 17  2  1  0  0  0  0
 19 18  2  0  0  0  0
 20 11  1  0  0  0  0
 21  8  1  6  0  0  0
 22  9  2  0  0  0  0
 23 18  1  6  0  0  0
 23 13  1  0  0  0  0
 24 25  1  6  0  0  0
 24  6  1  0  0  0  0
 24 21  1  0  0  0  0
 26 28  1  0  0  0  0
 27 26  2  0  0  0  0
 28 29  1  0  0  0  0
 29 30  1  1  0  0  0
 31 29  1  0  0  0  0
 33 32  1  6  0  0  0
 35 37  2  0  0  0  0
 35 39  1  0  0  0  0
 36 34  1  0  0  0  0
 36 33  1  1  0  0  0
 37 38  1  0  0  0  0
 38 34  2  0  0  0  0
 39 36  1  0  0  0  0
M  END
>  <MODEL>
3

>  <REMARK>
 VINA RESULT:      -7.6      1.458      1.926
  Name = 
  5 active torsions:
  status: ('A' for Active; 'I' for Inactive)
    1  A    between atoms: C_7  and  C_23
    2  A    between atoms: C_12  and  N_22
    3  A    between atoms: C_15  and  C_23
    4  A    between atoms: C_20  and  C_29
    5  A    between atoms: C_21  and  C_29
                            x       y       z     vdW  Elec       q    Type
                         _______ _______ _______ _____ _____    ______ ____

>  <TORSDO>
F 5

$$$$
=
 OpenBabel11062417513D

 39 44  0  0  1  0  0  0  0  0999 V2000
  188.0550  177.9450  139.4570 N   0  0  0  0  0  0  0  0  0  0  0  0
  188.9770  177.2140  138.8990 C   0  0  0  0  0  0  0  0  0  0  0  0
  188.9350  176.6400  137.5110 C   0  0  2  0  0  3  0  0  0  0  0  0
  187.7040  175.8020  137.3840 C   0  0  0  0  0  3  0  0  0  0  0  0
  186.9120  178.7800  137.5950 O   0  0  0  0  0  0  0  0  0  0  0  0
  185.9040  174.6100  136.1950 C   0  0  2  0  0  0  0  0  0  0  0  0
  187.2670  175.2500  136.2500 C   0  0  0  0  0  0  0  0  0  0  0  0
  183.7890  174.2740  137.4620 C   0  0  0  0  0  2  0  0  0  0  0  0
  190.1720  175.8020  137.5790 C   0  0  0  0  0  0  0  0  0  0  0  0
  184.0320  178.1900  141.2420 C   0  0  2  0  0  3  0  0  0  0  0  0
  185.6240  178.4450  139.5130 N   0  0  0  0  0  0  0  0  0  0  0  0
  185.5110  178.0980  140.9160 C   0  0  0  0  0  2  0  0  0  0  0  0
  183.3850  178.9490  140.0850 C   0  0  0  0  0  2  0  0  0  0  0  0
  190.8450  175.9210  138.8250 N   0  0  0  0  0  2  0  0  0  0  0  0
  183.2170  175.6760  137.2360 C   0  0  2  0  0  3  0  0  0  0  0  0
  188.0100  175.3710  135.0800 O   0  0  0  0  0  1  0  0  0  0  0  0
  190.0980  176.7800  139.5890 O   0  0  0  0  0  0  0  0  0  0  0  0
  183.8760  177.8490  137.9160 C   0  0  0  0  0  3  0  0  0  0  0  0
  183.7050  176.6130  138.2230 N   0  0  0  0  0  0  0  0  0  0  0  0
  186.8680  178.4120  138.8010 C   0  0  0  0  0  0  0  0  0  0  0  0
  185.3080  174.3100  137.5580 C   0  0  1  0  0  3  0  0  0  0  0  0
  190.6030  175.0880  136.6370 O   0  0  0  0  0  0  0  0  0  0  0  0
  184.3600  178.8550  138.9240 C   0  0  2  0  0  3  0  0  0  0  0  0
  185.9640  173.2170  136.7420 C   0  0  1  0  0  3  0  0  0  0  0  0
  185.8900  173.4780  135.3620 O   0  0  0  0  0  0  0  0  0  0  0  0
  184.4110  178.4940  143.5570 C   0  0  0  0  0  3  0  0  0  0  0  0
  183.8460  178.9000  142.4790 N   0  0  0  0  0  0  0  0  0  0  0  0
  184.2170  179.2320  144.8420 C   0  0  0  0  0  2  0  0  0  0  0  0
  185.3640  178.9660  145.8050 C   0  0  2  0  0  3  0  0  0  0  0  0
  186.2400  177.8650  145.2470 C   0  0  0  0  0  1  0  0  0  0  0  0
  184.8640  178.5710  147.0460 O   0  0  0  0  0  1  0  0  0  0  0  0
  181.1720  176.7190  136.4820 O   0  0  0  0  0  1  0  0  0  0  0  0
  181.6850  175.6330  137.1970 C   0  0  2  0  0  3  0  0  0  0  0  0
  180.2470  176.7420  138.9720 C   0  0  0  0  0  3  0  0  0  0  0  0
  179.3630  174.2250  139.9310 C   0  0  0  0  0  3  0  0  0  0  0  0
  181.0290  175.5100  138.5790 C   0  0  1  0  0  3  0  0  0  0  0  0
  178.9310  175.3600  140.4900 C   0  0  0  0  0  3  0  0  0  0  0  0
  179.2900  176.6650  139.9010 C   0  0  0  0  0  3  0  0  0  0  0  0
  180.1480  174.2580  138.6460 C   0  0  0  0  0  2  0  0  0  0  0  0
  2  1  2  0  0  0  0
  2 17  1  0  0  0  0
  3  4  1  1  0  0  0
  3  9  1  0  0  0  0
  3  2  1  0  0  0  0
  5 20  2  0  0  0  0
  6 25  1  6  0  0  0
  6  7  1  0  0  0  0
  6 24  1  0  0  0  0
  6 21  1  0  0  0  0
  7  4  2  0  0  0  0
  9 14  1  0  0  0  0
 10 27  1  1  0  0  0
 11 12  1  0  0  0  0
 12 10  1  0  0  0  0
 13 10  1  0  0  0  0
 14 17  1  0  0  0  0
 15 33  1  1  0  0  0
 15  8  1  0  0  0  0
 15 19  1  0  0  0  0
 16  7  1  0  0  0  0
 18 19  2  0  0  0  0
 20  1  1  0  0  0  0
 20 11  1  0  0  0  0
 21  8  1  6  0  0  0
 22  9  2  0  0  0  0
 23 18  1  6  0  0  0
 23 11  1  0  0  0  0
 23 13  1  0  0  0  0
 24 25  1  6  0  0  0
 24 21  1  0  0  0  0
 26 28  1  0  0  0  0
 27 26  2  0  0  0  0
 28 29  1  0  0  0  0
 29 30  1  6  0  0  0
 29 31  1  0  0  0  0
 33 32  1  1  0  0  0
 34 38  2  0  0  0  0
 35 37  2  0  0  0  0
 36 33  1  6  0  0  0
 36 39  1  0  0  0  0
 36 34  1  0  0  0  0
 38 37  1  0  0  0  0
 39 35  1  0  0  0  0
M  END
>  <MODEL>
4

>  <REMARK>
 VINA RESULT:      -7.5      2.085      2.702
  Name = 
  5 active torsions:
  status: ('A' for Active; 'I' for Inactive)
    1  A    between atoms: C_7  and  C_23
    2  A    between atoms: C_12  and  N_22
    3  A    between atoms: C_15  and  C_23
    4  A    between atoms: C_20  and  C_29
    5  A    between atoms: C_21  and  C_29
                            x       y       z     vdW  Elec       q    Type
                         _______ _______ _______ _____ _____    ______ ____

>  <TORSDO>
F 5

$$$$
=
 OpenBabel11062417513D

 39 44  0  0  1  0  0  0  0  0999 V2000
  189.3290  177.2350  140.3050 N   0  0  0  0  0  0  0  0  0  0  0  0
  189.8150  176.7020  139.2210 C   0  0  0  0  0  0  0  0  0  0  0  0
  189.4150  177.0330  137.8120 C   0  0  2  0  0  3  0  0  0  0  0  0
  187.9430  176.8150  137.6740 C   0  0  0  0  0  3  0  0  0  0  0  0
  188.4630  179.2530  139.4980 O   0  0  0  0  0  0  0  0  0  0  0  0
  185.7120  177.0770  136.6590 C   0  0  2  0  0  0  0  0  0  0  0  0
  187.2170  177.1420  136.6030 C   0  0  0  0  0  0  0  0  0  0  0  0
  183.7710  176.7420  138.1790 C   0  0  0  0  0  2  0  0  0  0  0  0
  190.2000  175.9760  137.1030 C   0  0  0  0  0  0  0  0  0  0  0  0
  185.9390  177.6320  143.0960 C   0  0  2  0  0  3  0  0  0  0  0  0
  187.3320  178.3140  141.3110 N   0  0  0  0  0  0  0  0  0  0  0  0
  187.2150  177.3020  142.3430 C   0  0  0  0  0  2  0  0  0  0  0  0
  185.5580  179.0540  142.6900 C   0  0  0  0  0  2  0  0  0  0  0  0
  190.9740  175.1810  137.9910 N   0  0  0  0  0  2  0  0  0  0  0  0
  183.8050  178.1280  138.8260 C   0  0  2  0  0  3  0  0  0  0  0  0
  187.8340  177.6630  135.4700 O   0  0  0  0  0  1  0  0  0  0  0  0
  190.7180  175.6500  139.2540 O   0  0  0  0  0  0  0  0  0  0  0  0
  185.3550  179.2500  140.2260 C   0  0  0  0  0  3  0  0  0  0  0  0
  184.7210  178.1680  139.9440 N   0  0  0  0  0  0  0  0  0  0  0  0
  188.3820  178.3130  140.3360 C   0  0  0  0  0  0  0  0  0  0  0  0
  185.1730  176.2670  137.8230 C   0  0  1  0  0  3  0  0  0  0  0  0
  190.2140  175.8130  135.8550 O   0  0  0  0  0  0  0  0  0  0  0  0
  186.2990  179.3340  141.3940 C   0  0  2  0  0  3  0  0  0  0  0  0
  185.2460  175.6720  136.4340 C   0  0  1  0  0  3  0  0  0  0  0  0
  185.1600  176.6600  135.4360 O   0  0  0  0  0  0  0  0  0  0  0  0
  187.3690  177.5980  144.9810 C   0  0  0  0  0  3  0  0  0  0  0  0
  186.1740  177.5560  144.5130 N   0  0  0  0  0  0  0  0  0  0  0  0
  187.6120  177.5190  146.4530 C   0  0  0  0  0  2  0  0  0  0  0  0
  189.0770  177.7630  146.7810 C   0  0  2  0  0  3  0  0  0  0  0  0
  189.8750  177.8150  145.4950 C   0  0  0  0  0  1  0  0  0  0  0  0
  189.5660  176.7320  147.5830 O   0  0  0  0  0  1  0  0  0  0  0  0
  181.4840  177.5150  139.1040 O   0  0  0  0  0  1  0  0  0  0  0  0
  182.3930  178.5700  139.2300 C   0  0  2  0  0  3  0  0  0  0  0  0
  181.3490  179.5310  137.1250 C   0  0  0  0  0  3  0  0  0  0  0  0
  180.2490  181.7030  138.5770 C   0  0  0  0  0  3  0  0  0  0  0  0
  181.9000  179.8260  138.5010 C   0  0  1  0  0  3  0  0  0  0  0  0
  180.0490  181.5900  137.2600 C   0  0  0  0  0  3  0  0  0  0  0  0
  180.5110  180.3890  136.5360 C   0  0  0  0  0  3  0  0  0  0  0  0
  180.8680  180.5720  139.3550 C   0  0  0  0  0  2  0  0  0  0  0  0
  1 20  1  0  0  0  0
  2 17  1  0  0  0  0
  2  1  2  0  0  0  0
  3  4  1  1  0  0  0
  3  2  1  0  0  0  0
  5 20  2  0  0  0  0
  6 25  1  6  0  0  0
  6 21  1  0  0  0  0
  7  6  1  0  0  0  0
  7  4  2  0  0  0  0
  8 15  1  0  0  0  0
  9  3  1  0  0  0  0
  9 14  1  0  0  0  0
 10 27  1  1  0  0  0
 11 23  1  0  0  0  0
 11 12  1  0  0  0  0
 12 10  1  0  0  0  0
 13 10  1  0  0  0  0
 14 17  1  0  0  0  0
 15 33  1  1  0  0  0
 15 19  1  0  0  0  0
 16  7  1  0  0  0  0
 19 18  2  0  0  0  0
 20 11  1  0  0  0  0
 21  8  1  6  0  0  0
 22  9  2  0  0  0  0
 23 18  1  6  0  0  0
 23 13  1  0  0  0  0
 24 25  1  6  0  0  0
 24  6  1  0  0  0  0
 24 21  1  0  0  0  0
 26 28  1  0  0  0  0
 27 26  2  0  0  0  0
 28 29  1  0  0  0  0
 29 30  1  6  0  0  0
 29 31  1  0  0  0  0
 33 32  1  6  0  0  0
 34 36  1  0  0  0  0
 35 39  1  0  0  0  0
 36 33  1  1  0  0  0
 36 39  1  0  0  0  0
 37 35  2  0  0  0  0
 38 34  2  0  0  0  0
 38 37  1  0  0  0  0
M  END
>  <MODEL>
5

>  <REMARK>
 VINA RESULT:      -7.5      1.391      2.050
  Name = 
  5 active torsions:
  status: ('A' for Active; 'I' for Inactive)
    1  A    between atoms: C_7  and  C_23
    2  A    between atoms: C_12  and  N_22
    3  A    between atoms: C_15  and  C_23
    4  A    between atoms: C_20  and  C_29
    5  A    between atoms: C_21  and  C_29
                            x       y       z     vdW  Elec       q    Type
                         _______ _______ _______ _____ _____    ______ ____

>  <TORSDO>
F 5

$$$$
=
 OpenBabel11062417513D

 39 44  0  0  1  0  0  0  0  0999 V2000
  187.3710  177.6340  137.7610 N   0  0  0  0  0  0  0  0  0  0  0  0
  186.1750  177.9690  138.1510 C   0  0  0  0  0  0  0  0  0  0  0  0
  185.8340  178.8220  139.3400 C   0  0  2  0  0  3  0  0  0  0  0  0
  186.4310  178.1940  140.5580 C   0  0  0  0  0  3  0  0  0  0  0  0
  188.6810  179.2990  138.7540 O   0  0  0  0  0  0  0  0  0  0  0  0
  187.2680  178.1230  142.8750 C   0  0  2  0  0  0  0  0  0  0  0  0
  186.4510  178.7460  141.7730 C   0  0  0  0  0  0  0  0  0  0  0  0
  188.9540  176.3630  143.3770 C   0  0  0  0  0  2  0  0  0  0  0  0
  184.3470  178.6650  139.3080 C   0  0  0  0  0  0  0  0  0  0  0  0
  191.0100  175.2450  138.4570 C   0  0  2  0  0  3  0  0  0  0  0  0
  189.7000  177.2120  138.5100 N   0  0  0  0  0  0  0  0  0  0  0  0
  189.6880  175.8490  138.0180 C   0  0  0  0  0  2  0  0  0  0  0  0
  191.8960  176.4150  138.8790 C   0  0  0  0  0  2  0  0  0  0  0  0
  183.9050  177.8660  138.2190 N   0  0  0  0  0  2  0  0  0  0  0  0
  190.1650  177.1020  142.8010 C   0  0  2  0  0  3  0  0  0  0  0  0
  185.8220  179.9660  141.9990 O   0  0  0  0  0  1  0  0  0  0  0  0
  185.0310  177.4690  137.5460 O   0  0  0  0  0  0  0  0  0  0  0  0
  190.7860  177.7900  140.6190 C   0  0  0  0  0  3  0  0  0  0  0  0
  190.2970  176.8760  141.3800 N   0  0  0  0  0  0  0  0  0  0  0  0
  188.5890  178.1050  138.3550 C   0  0  0  0  0  0  0  0  0  0  0  0
  187.6890  176.6920  142.5970 C   0  0  1  0  0  3  0  0  0  0  0  0
  183.5550  179.2010  140.1260 O   0  0  0  0  0  0  0  0  0  0  0  0
  190.9580  177.5810  139.1400 C   0  0  2  0  0  3  0  0  0  0  0  0
  186.5140  176.9920  143.5020 C   0  0  1  0  0  3  0  0  0  0  0  0
  186.6400  178.2460  144.1260 O   0  0  0  0  0  0  0  0  0  0  0  0
  190.9330  173.6510  136.7110 C   0  0  0  0  0  3  0  0  0  0  0  0
  191.6070  174.5270  137.3640 N   0  0  0  0  0  0  0  0  0  0  0  0
  191.5540  172.9050  135.5760 C   0  0  0  0  0  2  0  0  0  0  0  0
  190.4980  172.4210  134.5940 C   0  0  2  0  0  3  0  0  0  0  0  0
  189.3160  173.3670  134.6250 C   0  0  0  0  0  1  0  0  0  0  0  0
  190.0700  171.1410  134.9450 O   0  0  0  0  0  1  0  0  0  0  0  0
  191.7250  175.3590  143.4070 O   0  0  0  0  0  1  0  0  0  0  0  0
  191.4410  176.7190  143.5610 C   0  0  2  0  0  3  0  0  0  0  0  0
  190.1080  177.6990  145.4870 C   0  0  0  0  0  3  0  0  0  0  0  0
  191.6720  176.2850  147.3820 C   0  0  0  0  0  3  0  0  0  0  0  0
  191.4340  177.1280  145.0400 C   0  0  1  0  0  3  0  0  0  0  0  0
  190.6720  177.0800  147.7770 C   0  0  0  0  0  3  0  0  0  0  0  0
  189.7800  177.7070  146.7820 C   0  0  0  0  0  3  0  0  0  0  0  0
  191.8480  175.9470  145.9250 C   0  0  0  0  0  2  0  0  0  0  0  0
  1  2  2  0  0  0  0
  1 20  1  0  0  0  0
  2  3  1  0  0  0  0
  3  4  1  1  0  0  0
  4  7  2  0  0  0  0
  6  7  1  6  0  0  0
  6 24  1  0  0  0  0
  6 25  1  0  0  0  0
  7 16  1  0  0  0  0
  9  3  1  0  0  0  0
  9 22  2  0  0  0  0
 10 27  1  6  0  0  0
 10 13  1  0  0  0  0
 11 23  1  0  0  0  0
 12 10  1  0  0  0  0
 12 11  1  0  0  0  0
 14  9  1  0  0  0  0
 15  8  1  0  0  0  0
 15 33  1  1  0  0  0
 17  2  1  0  0  0  0
 17 14  1  0  0  0  0
 18 19  2  0  0  0  0
 19 15  1  0  0  0  0
 20 11  1  0  0  0  0
 20  5  2  0  0  0  0
 21  6  1  0  0  0  0
 21  8  1  1  0  0  0
 21 24  1  0  0  0  0
 23 13  1  1  0  0  0
 23 18  1  0  0  0  0
 24 25  1  1  0  0  0
 26 27  2  0  0  0  0
 28 26  1  0  0  0  0
 29 30  1  1  0  0  0
 29 31  1  0  0  0  0
 29 28  1  0  0  0  0
 33 32  1  1  0  0  0
 34 38  2  0  0  0  0
 35 37  2  0  0  0  0
 36 33  1  6  0  0  0
 36 34  1  0  0  0  0
 36 39  1  0  0  0  0
 38 37  1  0  0  0  0
 39 35  1  0  0  0  0
M  END
>  <MODEL>
6

>  <REMARK>
 VINA RESULT:      -7.3      2.804      8.667
  Name = 
  5 active torsions:
  status: ('A' for Active; 'I' for Inactive)
    1  A    between atoms: C_7  and  C_23
    2  A    between atoms: C_12  and  N_22
    3  A    between atoms: C_15  and  C_23
    4  A    between atoms: C_20  and  C_29
    5  A    between atoms: C_21  and  C_29
                            x       y       z     vdW  Elec       q    Type
                         _______ _______ _______ _____ _____    ______ ____

>  <TORSDO>
F 5

$$$$
=
 OpenBabel11062417513D

 39 44  0  0  1  0  0  0  0  0999 V2000
  187.7370  178.3980  139.0900 N   0  0  0  0  0  0  0  0  0  0  0  0
  188.7770  177.8380  138.5420 C   0  0  0  0  0  0  0  0  0  0  0  0
  188.8250  177.1830  137.1910 C   0  0  2  0  0  3  0  0  0  0  0  0
  187.7900  176.1050  137.1510 C   0  0  0  0  0  3  0  0  0  0  0  0
  186.4070  178.8660  137.2230 O   0  0  0  0  0  0  0  0  0  0  0  0
  186.2490  174.5010  136.0900 C   0  0  2  0  0  0  0  0  0  0  0  0
  187.4520  175.4080  136.0650 C   0  0  0  0  0  0  0  0  0  0  0  0
  184.2760  173.8190  137.4430 C   0  0  0  0  0  2  0  0  0  0  0  0
  190.2090  176.6210  137.2650 C   0  0  0  0  0  0  0  0  0  0  0  0
  183.7870  177.9250  140.9900 C   0  0  2  0  0  3  0  0  0  0  0  0
  185.2560  178.3930  139.1980 N   0  0  0  0  0  0  0  0  0  0  0  0
  185.2470  178.1170  140.6210 C   0  0  0  0  0  2  0  0  0  0  0  0
  182.9740  178.4630  139.8150 C   0  0  0  0  0  2  0  0  0  0  0  0
  190.8690  176.9510  138.4790 N   0  0  0  0  0  2  0  0  0  0  0  0
  183.4240  175.0570  137.1580 C   0  0  2  0  0  3  0  0  0  0  0  0
  188.1300  175.6060  134.8650 O   0  0  0  0  0  1  0  0  0  0  0  0
  189.9780  177.6850  139.2190 O   0  0  0  0  0  0  0  0  0  0  0  0
  183.6350  177.3570  137.6950 C   0  0  0  0  0  3  0  0  0  0  0  0
  183.7280  176.1320  138.0760 N   0  0  0  0  0  0  0  0  0  0  0  0
  186.4650  178.5710  138.4480 C   0  0  0  0  0  0  0  0  0  0  0  0
  185.7570  174.1690  137.4860 C   0  0  1  0  0  3  0  0  0  0  0  0
  190.7580  175.9540  136.3490 O   0  0  0  0  0  0  0  0  0  0  0  0
  183.9230  178.5000  138.6290 C   0  0  2  0  0  3  0  0  0  0  0  0
  186.6060  173.1860  136.7110 C   0  0  1  0  0  3  0  0  0  0  0  0
  186.4520  173.3410  135.3220 O   0  0  0  0  0  0  0  0  0  0  0  0
  184.1780  178.4770  143.2570 C   0  0  0  0  0  3  0  0  0  0  0  0
  183.4850  178.6560  142.1910 N   0  0  0  0  0  0  0  0  0  0  0  0
  183.8630  179.2380  144.5040 C   0  0  0  0  0  2  0  0  0  0  0  0
  184.9780  179.0950  145.5290 C   0  0  2  0  0  3  0  0  0  0  0  0
  186.0300  178.1450  144.9950 C   0  0  0  0  0  1  0  0  0  0  0  0
  184.4670  178.5890  146.7240 O   0  0  0  0  0  1  0  0  0  0  0  0
  181.3630  174.9800  138.4200 O   0  0  0  0  0  1  0  0  0  0  0  0
  181.9320  174.7000  137.1730 C   0  0  2  0  0  3  0  0  0  0  0  0
  180.5930  172.5840  137.5930 C   0  0  0  0  0  3  0  0  0  0  0  0
  180.7460  171.8590  134.8570 C   0  0  0  0  0  3  0  0  0  0  0  0
  181.6300  173.2640  136.7280 C   0  0  1  0  0  3  0  0  0  0  0  0
  180.0980  171.0860  135.7340 C   0  0  0  0  0  3  0  0  0  0  0  0
  179.9080  171.5360  137.1270 C   0  0  0  0  0  3  0  0  0  0  0  0
  181.2160  173.2340  135.2530 C   0  0  0  0  0  2  0  0  0  0  0  0
  2  1  2  0  0  0  0
  2 17  1  0  0  0  0
  3  4  1  1  0  0  0
  3  9  1  0  0  0  0
  3  2  1  0  0  0  0
  5 20  2  0  0  0  0
  6 25  1  6  0  0  0
  6 24  1  0  0  0  0
  6 21  1  0  0  0  0
  7  6  1  0  0  0  0
  7  4  2  0  0  0  0
  9 14  1  0  0  0  0
 10 27  1  1  0  0  0
 11 12  1  0  0  0  0
 12 10  1  0  0  0  0
 13 10  1  0  0  0  0
 14 17  1  0  0  0  0
 15 33  1  1  0  0  0
 15  8  1  0  0  0  0
 15 19  1  0  0  0  0
 16  7  1  0  0  0  0
 18 19  2  0  0  0  0
 20  1  1  0  0  0  0
 20 11  1  0  0  0  0
 21  8  1  6  0  0  0
 22  9  2  0  0  0  0
 23 18  1  6  0  0  0
 23 11  1  0  0  0  0
 23 13  1  0  0  0  0
 24 25  1  6  0  0  0
 24 21  1  0  0  0  0
 26 28  1  0  0  0  0
 27 26  2  0  0  0  0
 28 29  1  0  0  0  0
 29 30  1  6  0  0  0
 29 31  1  0  0  0  0
 33 32  1  1  0  0  0
 35 39  1  0  0  0  0
 35 37  2  0  0  0  0
 36 33  1  1  0  0  0
 36 34  1  0  0  0  0
 37 38  1  0  0  0  0
 38 34  2  0  0  0  0
 39 36  1  0  0  0  0
M  END
>  <MODEL>
7

>  <REMARK>
 VINA RESULT:      -7.2      3.045      4.118
  Name = 
  5 active torsions:
  status: ('A' for Active; 'I' for Inactive)
    1  A    between atoms: C_7  and  C_23
    2  A    between atoms: C_12  and  N_22
    3  A    between atoms: C_15  and  C_23
    4  A    between atoms: C_20  and  C_29
    5  A    between atoms: C_21  and  C_29
                            x       y       z     vdW  Elec       q    Type
                         _______ _______ _______ _____ _____    ______ ____

>  <TORSDO>
F 5

$$$$
=
 OpenBabel11062417513D

 39 44  0  0  1  0  0  0  0  0999 V2000
  184.4200  174.5610  135.1020 N   0  0  0  0  0  0  0  0  0  0  0  0
  183.2690  173.9630  134.9820 C   0  0  0  0  0  0  0  0  0  0  0  0
  181.9220  174.5630  135.2670 C   0  0  2  0  0  3  0  0  0  0  0  0
  181.9110  175.0540  136.6780 C   0  0  0  0  0  3  0  0  0  0  0  0
  183.8010  176.8150  134.9840 O   0  0  0  0  0  0  0  0  0  0  0  0
  181.1230  176.3930  138.5910 C   0  0  2  0  0  0  0  0  0  0  0  0
  180.9310  175.7690  137.2330 C   0  0  0  0  0  0  0  0  0  0  0  0
  182.7970  176.8480  140.3740 C   0  0  0  0  0  2  0  0  0  0  0  0
  181.0900  173.3310  135.1010 C   0  0  0  0  0  0  0  0  0  0  0  0
  187.5300  176.2130  137.7530 C   0  0  2  0  0  3  0  0  0  0  0  0
  185.6610  176.3390  136.3120 N   0  0  0  0  0  0  0  0  0  0  0  0
  186.6450  175.4050  136.8210 C   0  0  0  0  0  2  0  0  0  0  0  0
  187.2350  177.6820  137.4580 C   0  0  0  0  0  2  0  0  0  0  0  0
  181.8610  172.1960  134.7310 N   0  0  0  0  0  2  0  0  0  0  0  0
  183.5080  178.0020  139.6650 C   0  0  2  0  0  3  0  0  0  0  0  0
  179.7730  176.0480  136.5130 O   0  0  0  0  0  1  0  0  0  0  0  0
  183.1640  172.6160  134.6670 O   0  0  0  0  0  0  0  0  0  0  0  0
  184.8130  178.1650  137.6920 C   0  0  0  0  0  3  0  0  0  0  0  0
  184.5370  177.5210  138.7700 N   0  0  0  0  0  0  0  0  0  0  0  0
  184.5930  175.9450  135.4400 C   0  0  0  0  0  0  0  0  0  0  0  0
  182.2890  175.8190  139.3740 C   0  0  1  0  0  3  0  0  0  0  0  0
  179.8390  173.2910  135.2380 O   0  0  0  0  0  0  0  0  0  0  0  0
  185.8910  177.7060  136.7500 C   0  0  2  0  0  3  0  0  0  0  0  0
  180.8700  175.3810  139.6660 C   0  0  1  0  0  3  0  0  0  0  0  0
  179.9360  176.3830  139.3450 O   0  0  0  0  0  0  0  0  0  0  0  0
  189.7960  176.8460  137.5010 C   0  0  0  0  0  3  0  0  0  0  0  0
  188.9140  175.9140  137.4960 N   0  0  0  0  0  0  0  0  0  0  0  0
  191.2330  176.5350  137.2340 C   0  0  0  0  0  2  0  0  0  0  0  0
  191.9990  176.3300  138.5320 C   0  0  2  0  0  3  0  0  0  0  0  0
  191.3360  177.1270  139.6350 C   0  0  0  0  0  1  0  0  0  0  0  0
  193.3170  176.7630  138.3820 O   0  0  0  0  0  1  0  0  0  0  0  0
  185.3020  179.5040  140.2740 O   0  0  0  0  0  1  0  0  0  0  0  0
  184.0640  179.0020  140.6870 C   0  0  2  0  0  3  0  0  0  0  0  0
  185.5430  178.2920  142.6250 C   0  0  0  0  0  3  0  0  0  0  0  0
  183.5120  178.9240  144.4990 C   0  0  0  0  0  3  0  0  0  0  0  0
  184.1270  178.4590  142.1200 C   0  0  1  0  0  3  0  0  0  0  0  0
  184.6930  178.4480  144.9060 C   0  0  0  0  0  3  0  0  0  0  0  0
  185.7890  178.2480  143.9370 C   0  0  0  0  0  3  0  0  0  0  0  0
  183.3100  179.3450  143.0670 C   0  0  0  0  0  2  0  0  0  0  0  0
  1 20  1  0  0  0  0
  2  1  2  0  0  0  0
  2  3  1  0  0  0  0
  3  4  1  1  0  0  0
  4  7  2  0  0  0  0
  5 20  2  0  0  0  0
  6  7  1  6  0  0  0
  6 25  1  0  0  0  0
  6 21  1  0  0  0  0
  6 24  1  0  0  0  0
  9 22  2  0  0  0  0
  9  3  1  0  0  0  0
 10 27  1  6  0  0  0
 11 23  1  0  0  0  0
 11 12  1  0  0  0  0
 12 10  1  0  0  0  0
 13 10  1  0  0  0  0
 14  9  1  0  0  0  0
 15  8  1  0  0  0  0
 15 33  1  1  0  0  0
 16  7  1  0  0  0  0
 17 14  1  0  0  0  0
 17  2  1  0  0  0  0
 18 19  2  0  0  0  0
 19 15  1  0  0  0  0
 20 11  1  0  0  0  0
 21 24  1  0  0  0  0
 21  8  1  1  0  0  0
 23 13  1  1  0  0  0
 23 18  1  0  0  0  0
 24 25  1  1  0  0  0
 27 26  2  0  0  0  0
 28 26  1  0  0  0  0
 28 29  1  0  0  0  0
 29 30  1  1  0  0  0
 31 29  1  0  0  0  0
 33 32  1  6  0  0  0
 34 38  2  0  0  0  0
 35 37  2  0  0  0  0
 36 33  1  6  0  0  0
 36 34  1  0  0  0  0
 36 39  1  0  0  0  0
 38 37  1  0  0  0  0
 39 35  1  0  0  0  0
M  END
>  <MODEL>
8

>  <REMARK>
 VINA RESULT:      -6.9      3.097      6.748
  Name = 
  5 active torsions:
  status: ('A' for Active; 'I' for Inactive)
    1  A    between atoms: C_7  and  C_23
    2  A    between atoms: C_12  and  N_22
    3  A    between atoms: C_15  and  C_23
    4  A    between atoms: C_20  and  C_29
    5  A    between atoms: C_21  and  C_29
                            x       y       z     vdW  Elec       q    Type
                         _______ _______ _______ _____ _____    ______ ____

>  <TORSDO>
F 5

$$$$
=
 OpenBabel11062417513D

 39 44  0  0  1  0  0  0  0  0999 V2000
  183.8090  177.9570  139.0460 N   0  0  0  0  0  0  0  0  0  0  0  0
  182.9870  178.1510  140.0370 C   0  0  0  0  0  0  0  0  0  0  0  0
  183.2620  178.9550  141.2750 C   0  0  2  0  0  3  0  0  0  0  0  0
  184.4790  178.3970  141.9400 C   0  0  0  0  0  3  0  0  0  0  0  0
  185.2810  179.7590  139.2870 O   0  0  0  0  0  0  0  0  0  0  0  0
  186.4360  178.4180  143.4370 C   0  0  2  0  0  0  0  0  0  0  0  0
  185.0980  178.9450  142.9870 C   0  0  0  0  0  0  0  0  0  0  0  0
  188.2860  176.8630  142.8430 C   0  0  0  0  0  2  0  0  0  0  0  0
  182.0160  178.6280  142.0350 C   0  0  0  0  0  0  0  0  0  0  0  0
  187.4570  176.0020  137.5280 C   0  0  2  0  0  3  0  0  0  0  0  0
  186.2020  177.8050  138.4010 N   0  0  0  0  0  0  0  0  0  0  0  0
  186.0570  176.4510  137.9060 C   0  0  0  0  0  2  0  0  0  0  0  0
  188.3140  177.2660  137.4830 C   0  0  0  0  0  2  0  0  0  0  0  0
  181.1350  177.7850  141.3040 N   0  0  0  0  0  2  0  0  0  0  0  0
  188.9170  177.7390  141.7580 C   0  0  2  0  0  3  0  0  0  0  0  0
  184.5770  180.0840  143.5940 O   0  0  0  0  0  1  0  0  0  0  0  0
  181.7520  177.5230  140.1080 O   0  0  0  0  0  0  0  0  0  0  0  0
  188.1930  178.4990  139.6320 C   0  0  0  0  0  3  0  0  0  0  0  0
  188.2820  177.5320  140.4760 N   0  0  0  0  0  0  0  0  0  0  0  0
  185.1030  178.5640  138.9230 C   0  0  0  0  0  0  0  0  0  0  0  0
  186.7750  177.0450  142.8850 C   0  0  1  0  0  3  0  0  0  0  0  0
  181.7430  179.0670  143.1830 O   0  0  0  0  0  0  0  0  0  0  0  0
  187.5580  178.3140  138.2810 C   0  0  2  0  0  3  0  0  0  0  0  0
  186.2520  177.2050  144.2970 C   0  0  1  0  0  3  0  0  0  0  0  0
  186.5740  178.4640  144.8350 O   0  0  0  0  0  0  0  0  0  0  0  0
  186.9510  174.1790  136.1080 C   0  0  0  0  0  3  0  0  0  0  0  0
  187.4360  175.3600  136.2410 N   0  0  0  0  0  0  0  0  0  0  0  0
  186.9280  173.5130  134.7710 C   0  0  0  0  0  2  0  0  0  0  0  0
  186.9110  171.9990  134.9130 C   0  0  2  0  0  3  0  0  0  0  0  0
  185.5550  171.5610  135.4240 C   0  0  0  0  0  1  0  0  0  0  0  0
  187.8950  171.5920  135.8130 O   0  0  0  0  0  1  0  0  0  0  0  0
  190.7260  176.3640  140.9340 O   0  0  0  0  0  1  0  0  0  0  0  0
  190.4310  177.5030  141.6880 C   0  0  2  0  0  3  0  0  0  0  0  0
  190.4820  178.3930  144.0660 C   0  0  0  0  0  3  0  0  0  0  0  0
  191.6800  176.0030  145.0100 C   0  0  0  0  0  3  0  0  0  0  0  0
  191.1200  177.4630  143.0590 C   0  0  1  0  0  3  0  0  0  0  0  0
  191.3980  177.0050  145.8500 C   0  0  0  0  0  3  0  0  0  0  0  0
  190.6550  178.1890  145.3750 C   0  0  0  0  0  3  0  0  0  0  0  0
  191.1700  176.0280  143.5930 C   0  0  0  0  0  2  0  0  0  0  0  0
  1  2  2  0  0  0  0
  2 17  1  0  0  0  0
  2  3  1  0  0  0  0
  3  4  1  1  0  0  0
  3  9  1  0  0  0  0
  4  7  2  0  0  0  0
  6  7  1  6  0  0  0
  6 24  1  0  0  0  0
  6 25  1  0  0  0  0
  7 16  1  0  0  0  0
  9 22  2  0  0  0  0
 10 27  1  6  0  0  0
 10 12  1  0  0  0  0
 11 20  1  0  0  0  0
 12 11  1  0  0  0  0
 13 10  1  0  0  0  0
 14  9  1  0  0  0  0
 15 33  1  6  0  0  0
 15  8  1  0  0  0  0
 17 14  1  0  0  0  0
 18 19  2  0  0  0  0
 19 15  1  0  0  0  0
 20  1  1  0  0  0  0
 20  5  2  0  0  0  0
 21  8  1  1  0  0  0
 21  6  1  0  0  0  0
 21 24  1  0  0  0  0
 23 13  1  6  0  0  0
 23 11  1  0  0  0  0
 23 18  1  0  0  0  0
 24 25  1  1  0  0  0
 26 27  2  0  0  0  0
 28 29  1  0  0  0  0
 28 26  1  0  0  0  0
 29 30  1  1  0  0  0
 29 31  1  0  0  0  0
 33 32  1  1  0  0  0
 34 38  2  0  0  0  0
 35 37  2  0  0  0  0
 36 33  1  6  0  0  0
 36 39  1  0  0  0  0
 36 34  1  0  0  0  0
 38 37  1  0  0  0  0
 39 35  1  0  0  0  0
M  END
>  <MODEL>
9

>  <REMARK>
 VINA RESULT:      -6.7      2.767      8.714
  Name = 
  5 active torsions:
  status: ('A' for Active; 'I' for Inactive)
    1  A    between atoms: C_7  and  C_23
    2  A    between atoms: C_12  and  N_22
    3  A    between atoms: C_15  and  C_23
    4  A    between atoms: C_20  and  C_29
    5  A    between atoms: C_21  and  C_29
                            x       y       z     vdW  Elec       q    Type
                         _______ _______ _______ _____ _____    ______ ____

>  <TORSDO>
F 5

$$$$
