=
 OpenBabel11062417153D

 36 40  0  0  1  0  0  0  0  0999 V2000
  184.2180  175.7390  136.9140 C   0  0  1  0  0  3  0  0  0  0  0  0
  180.7210  180.4170  139.8620 C   0  0  0  0  0  1  0  0  0  0  0  0
  180.9000  178.7340  138.0340 C   0  0  0  0  0  2  0  0  0  0  0  0
  183.2610  178.1750  140.6480 C   0  0  2  0  0  3  0  0  0  0  0  0
  183.8300  179.2590  139.7450 C   0  0  1  0  0  3  0  0  0  0  0  0
  180.8620  175.0100  139.2990 O   0  0  0  0  0  1  0  0  0  0  0  0
  179.3890  174.1280  136.8860 C   0  0  0  0  0  2  0  0  0  0  0  0
  181.8370  178.2740  140.3390 C   0  0  0  0  0  0  0  0  0  0  0  0
  185.4370  177.7620  136.6520 N   0  0  0  0  0  0  0  0  0  0  0  0
  180.1230  176.4720  137.5200 C   0  0  1  0  0  3  0  0  0  0  0  0
  178.9340  175.5630  137.2020 C   0  0  0  0  0  2  0  0  0  0  0  0
  185.1220  176.5230  135.9600 C   0  0  0  0  0  3  0  0  0  0  0  0
  179.7710  177.7360  138.2780 C   0  0  0  0  0  2  0  0  0  0  0  0
  185.0590  178.7900  138.9570 C   0  0  0  0  0  2  0  0  0  0  0  0
  184.1370  176.6180  138.1230 C   0  0  0  0  0  3  0  0  0  0  0  0
  180.9740  177.6170  140.9060 O   0  0  0  0  0  0  0  0  0  0  0  0
  181.5730  179.2950  139.2900 C   0  0  2  0  0  0  0  0  0  0  0  0
  181.2800  175.7060  138.1610 C   0  0  2  0  0  3  0  0  0  0  0  0
  180.7890  174.0770  136.2240 C   0  0  1  0  0  3  0  0  0  0  0  0
  182.8300  179.8130  138.9020 O   0  0  0  0  0  0  0  0  0  0  0  0
  182.8540  175.5280  136.2550 C   0  0  0  0  0  2  0  0  0  0  0  0
  181.8740  174.7410  137.1270 C   0  0  1  0  0  3  0  0  0  0  0  0
  184.7990  177.7400  137.9140 C   0  0  0  0  0  0  0  0  0  0  0  0
  184.8100  178.1980  142.6110 C   0  0  0  0  0  3  0  0  0  0  0  0
  182.8000  179.1480  144.3090 C   0  0  0  0  0  3  0  0  0  0  0  0
  185.0800  178.4110  143.9660 C   0  0  0  0  0  3  0  0  0  0  0  0
  184.0760  178.8860  144.8140 C   0  0  0  0  0  3  0  0  0  0  0  0
  183.5370  178.4660  142.0950 C   0  0  0  0  0  0  0  0  0  0  0  0
  182.5280  178.9350  142.9550 C   0  0  0  0  0  3  0  0  0  0  0  0
  181.1750  172.6930  135.8830 N   0  0  0  0  0  0  0  0  0  0  0  0
  179.9770  171.8860  135.6590 C   0  0  0  0  0  1  0  0  0  0  0  0
  181.9520  172.0520  136.9560 C   0  0  0  0  0  2  0  0  0  0  0  0
  182.9970  171.0590  136.4430 C   0  0  0  0  0  2  0  0  0  0  0  0
  184.3760  171.6890  136.4730 C   0  0  0  0  0  3  0  0  0  0  0  0
  184.5220  172.4230  137.6500 O   0  0  0  0  0  1  0  0  0  0  0  0
  184.5330  172.5400  135.3780 O   0  0  0  0  0  1  0  0  0  0  0  0
  1 12  1  6  0  0  0
  1 15  1  0  0  0  0
  3 13  1  0  0  0  0
  3 17  1  0  0  0  0
  4 28  1  1  0  0  0
  5 14  1  6  0  0  0
  5  4  1  0  0  0  0
  7 11  1  0  0  0  0
  8  4  1  0  0  0  0
  8 16  2  0  0  0  0
  9 23  1  0  0  0  0
 10 11  1  1  0  0  0
 10 18  1  0  0  0  0
 10 13  1  0  0  0  0
 12  9  2  0  0  0  0
 17  2  1  1  0  0  0
 17  8  1  0  0  0  0
 18  6  1  1  0  0  0
 19 30  1  1  0  0  0
 19  7  1  0  0  0  0
 19 22  1  0  0  0  0
 20 17  1  0  0  0  0
 20  5  1  0  0  0  0
 21  1  1  0  0  0  0
 22 21  1  6  0  0  0
 22 18  1  0  0  0  0
 23 15  2  0  0  0  0
 23 14  1  0  0  0  0
 24 26  1  0  0  0  0
 25 27  1  0  0  0  0
 26 27  2  0  0  0  0
 28 24  2  0  0  0  0
 28 29  1  0  0  0  0
 29 25  2  0  0  0  0
 30 32  1  0  0  0  0
 31 30  1  0  0  0  0
 33 34  1  0  0  0  0
 33 32  1  0  0  0  0
 34 35  1  0  0  0  0
 36 34  1  0  0  0  0
M  END
>  <MODEL>
1

>  <REMARK>
 VINA RESULT:      -6.6      0.000      0.000
  Name = 
  5 active torsions:
  status: ('A' for Active; 'I' for Inactive)
    1  A    between atoms: C_2  and  N_3
    2  A    between atoms: C_2  and  C_19
    3  A    between atoms: N_3  and  C_27
    4  A    between atoms: C_6  and  C_29
    5  A    between atoms: C_14  and  C_19
                            x       y       z     vdW  Elec       q    Type
                         _______ _______ _______ _____ _____    ______ ____

>  <TORSDO>
F 5

$$$$
=
 OpenBabel11062417153D

 36 40  0  0  1  0  0  0  0  0999 V2000
  185.3650  175.4210  136.6450 C   0  0  1  0  0  3  0  0  0  0  0  0
  183.8710  179.0940  141.8490 C   0  0  0  0  0  1  0  0  0  0  0  0
  185.5650  177.7380  140.6240 C   0  0  0  0  0  2  0  0  0  0  0  0
  182.7990  178.6620  138.5690 C   0  0  2  0  0  3  0  0  0  0  0  0
  182.3750  177.4500  139.3840 C   0  0  1  0  0  3  0  0  0  0  0  0
  186.7120  179.3370  137.2180 O   0  0  0  0  0  1  0  0  0  0  0  0
  189.4630  178.2960  137.5720 C   0  0  0  0  0  2  0  0  0  0  0  0
  183.8920  179.1810  139.3880 C   0  0  0  0  0  0  0  0  0  0  0  0
  183.6910  174.2400  137.8500 N   0  0  0  0  0  0  0  0  0  0  0  0
  187.4750  178.0720  139.1340 C   0  0  1  0  0  3  0  0  0  0  0  0
  188.9020  178.5990  138.9730 C   0  0  0  0  0  2  0  0  0  0  0  0
  184.8860  174.0240  137.0500 C   0  0  0  0  0  3  0  0  0  0  0  0
  186.6880  178.7050  140.2630 C   0  0  0  0  0  2  0  0  0  0  0  0
  182.1940  176.1920  138.5260 C   0  0  0  0  0  2  0  0  0  0  0  0
  184.3340  176.3310  137.2360 C   0  0  0  0  0  3  0  0  0  0  0  0
  184.4920  180.2170  139.1390 O   0  0  0  0  0  0  0  0  0  0  0  0
  184.1470  178.3170  140.5720 C   0  0  2  0  0  0  0  0  0  0  0  0
  186.7090  178.0700  137.8110 C   0  0  2  0  0  3  0  0  0  0  0  0
  188.8910  176.9860  136.9710 C   0  0  1  0  0  3  0  0  0  0  0  0
  183.2480  177.2290  140.4830 O   0  0  0  0  0  0  0  0  0  0  0  0
  186.7580  175.6620  137.2280 C   0  0  0  0  0  2  0  0  0  0  0  0
  187.3360  177.0330  136.8710 C   0  0  1  0  0  3  0  0  0  0  0  0
  183.4500  175.6310  137.9220 C   0  0  0  0  0  0  0  0  0  0  0  0
  181.3390  180.1350  137.1720 C   0  0  0  0  0  3  0  0  0  0  0  0
  180.0170  181.1290  139.4280 C   0  0  0  0  0  3  0  0  0  0  0  0
  180.3360  181.0990  137.0290 C   0  0  0  0  0  3  0  0  0  0  0  0
  179.6750  181.5950  138.1560 C   0  0  0  0  0  3  0  0  0  0  0  0
  181.6810  179.6570  138.4420 C   0  0  0  0  0  0  0  0  0  0  0  0
  181.0190  180.1660  139.5730 C   0  0  0  0  0  3  0  0  0  0  0  0
  189.4870  176.6940  135.6510 N   0  0  0  0  0  0  0  0  0  0  0  0
  188.5370  177.0330  134.5930 C   0  0  0  0  0  1  0  0  0  0  0  0
  189.8360  175.2720  135.5010 C   0  0  0  0  0  2  0  0  0  0  0  0
  191.2410  174.9320  136.0040 C   0  0  0  0  0  2  0  0  0  0  0  0
  191.1550  174.1150  137.2790 C   0  0  0  0  0  3  0  0  0  0  0  0
  189.9170  173.4740  137.3340 O   0  0  0  0  0  1  0  0  0  0  0  0
  191.2910  174.9500  138.3890 O   0  0  0  0  0  1  0  0  0  0  0  0
  1 12  1  1  0  0  0
  1 21  1  0  0  0  0
  1 15  1  0  0  0  0
  4 28  1  1  0  0  0
  4  5  1  0  0  0  0
  4  8  1  0  0  0  0
  5 14  1  6  0  0  0
  5 20  1  0  0  0  0
  7 11  1  0  0  0  0
  8 17  1  0  0  0  0
  9 23  1  0  0  0  0
 10 11  1  6  0  0  0
 10 13  1  0  0  0  0
 12  9  2  0  0  0  0
 13  3  1  0  0  0  0
 15 23  2  0  0  0  0
 16  8  2  0  0  0  0
 17  3  1  0  0  0  0
 17  2  1  1  0  0  0
 18  6  1  6  0  0  0
 18 10  1  0  0  0  0
 19 30  1  6  0  0  0
 19  7  1  0  0  0  0
 20 17  1  0  0  0  0
 22 19  1  0  0  0  0
 22 21  1  1  0  0  0
 22 18  1  0  0  0  0
 23 14  1  0  0  0  0
 24 28  1  0  0  0  0
 25 29  1  0  0  0  0
 26 24  2  0  0  0  0
 26 27  1  0  0  0  0
 27 25  2  0  0  0  0
 28 29  2  0  0  0  0
 31 30  1  0  0  0  0
 32 30  1  0  0  0  0
 32 33  1  0  0  0  0
 33 34  1  0  0  0  0
 34 35  1  0  0  0  0
 34 36  1  0  0  0  0
M  END
>  <MODEL>
2

>  <REMARK>
 VINA RESULT:      -6.0      3.229      6.373
  Name = 
  5 active torsions:
  status: ('A' for Active; 'I' for Inactive)
    1  A    between atoms: C_2  and  N_3
    2  A    between atoms: C_2  and  C_19
    3  A    between atoms: N_3  and  C_27
    4  A    between atoms: C_6  and  C_29
    5  A    between atoms: C_14  and  C_19
                            x       y       z     vdW  Elec       q    Type
                         _______ _______ _______ _____ _____    ______ ____

>  <TORSDO>
F 5

$$$$
=
 OpenBabel11062417153D

 36 40  0  0  1  0  0  0  0  0999 V2000
  186.4370  178.3890  141.6030 C   0  0  1  0  0  3  0  0  0  0  0  0
  188.7160  177.7430  135.5040 C   0  0  0  0  0  1  0  0  0  0  0  0
  189.0630  178.5910  137.8220 C   0  0  0  0  0  2  0  0  0  0  0  0
  186.4600  176.1600  137.6250 C   0  0  2  0  0  3  0  0  0  0  0  0
  185.8700  177.4940  137.1940 C   0  0  1  0  0  3  0  0  0  0  0  0
  189.4830  175.7450  140.5030 O   0  0  0  0  0  1  0  0  0  0  0  0
  191.4070  177.3830  142.0470 C   0  0  0  0  0  2  0  0  0  0  0  0
  187.8820  176.3950  137.3880 C   0  0  0  0  0  0  0  0  0  0  0  0
  184.9760  179.6300  140.1980 N   0  0  0  0  0  0  0  0  0  0  0  0
  190.2410  177.9520  139.8670 C   0  0  1  0  0  3  0  0  0  0  0  0
  191.5870  177.7410  140.5620 C   0  0  0  0  0  2  0  0  0  0  0  0
  185.5720  179.6500  141.5240 C   0  0  0  0  0  3  0  0  0  0  0  0
  190.2830  177.8470  138.3560 C   0  0  0  0  0  2  0  0  0  0  0  0
  184.8550  178.0460  138.2020 C   0  0  0  0  0  2  0  0  0  0  0  0
  186.2070  177.7230  140.2820 C   0  0  0  0  0  3  0  0  0  0  0  0
  188.7430  175.5380  137.5360 O   0  0  0  0  0  0  0  0  0  0  0  0
  188.1370  177.7800  136.9090 C   0  0  2  0  0  0  0  0  0  0  0  0
  189.1330  177.0980  140.4860 C   0  0  2  0  0  3  0  0  0  0  0  0
  190.1420  178.0280  142.6680 C   0  0  1  0  0  3  0  0  0  0  0  0
  186.8860  178.4370  136.8830 O   0  0  0  0  0  0  0  0  0  0  0  0
  187.8980  178.7940  141.8040 C   0  0  0  0  0  2  0  0  0  0  0  0
  188.8500  177.6010  141.9060 C   0  0  1  0  0  3  0  0  0  0  0  0
  185.4200  178.4670  139.5290 C   0  0  0  0  0  0  0  0  0  0  0  0
  185.6100  175.2760  135.4460 C   0  0  0  0  0  3  0  0  0  0  0  0
  185.1690  172.7370  136.5370 C   0  0  0  0  0  3  0  0  0  0  0  0
  185.0740  174.2560  134.6540 C   0  0  0  0  0  3  0  0  0  0  0  0
  184.8540  172.9880  135.1990 C   0  0  0  0  0  3  0  0  0  0  0  0
  185.9370  175.0310  136.7850 C   0  0  0  0  0  0  0  0  0  0  0  0
  185.7050  173.7560  137.3300 C   0  0  0  0  0  3  0  0  0  0  0  0
  190.0250  177.7100  144.1060 N   0  0  0  0  0  0  0  0  0  0  0  0
  191.2710  177.1130  144.5840 C   0  0  0  0  0  1  0  0  0  0  0  0
  188.9380  176.7560  144.3780 C   0  0  0  0  0  2  0  0  0  0  0  0
  187.8140  177.3410  145.2370 C   0  0  0  0  0  2  0  0  0  0  0  0
  188.3460  177.7220  146.6050 C   0  0  0  0  0  3  0  0  0  0  0  0
  188.9600  176.6130  147.1860 O   0  0  0  0  0  1  0  0  0  0  0  0
  187.2970  178.1460  147.4210 O   0  0  0  0  0  1  0  0  0  0  0  0
  1 15  1  6  0  0  0
  1 21  1  0  0  0  0
  3 13  1  0  0  0  0
  4 28  1  6  0  0  0
  5  4  1  0  0  0  0
  5 14  1  1  0  0  0
  7 19  1  0  0  0  0
  8 16  2  0  0  0  0
  8  4  1  0  0  0  0
  9 12  2  0  0  0  0
 10 13  1  6  0  0  0
 10 18  1  0  0  0  0
 10 11  1  0  0  0  0
 11  7  1  0  0  0  0
 12  1  1  0  0  0  0
 14 23  1  0  0  0  0
 17  2  1  6  0  0  0
 17  8  1  0  0  0  0
 17  3  1  0  0  0  0
 18  6  1  1  0  0  0
 18 22  1  0  0  0  0
 19 30  1  1  0  0  0
 20 17  1  0  0  0  0
 20  5  1  0  0  0  0
 22 21  1  6  0  0  0
 22 19  1  0  0  0  0
 23  9  1  0  0  0  0
 23 15  2  0  0  0  0
 24 28  1  0  0  0  0
 25 29  1  0  0  0  0
 26 27  1  0  0  0  0
 26 24  2  0  0  0  0
 27 25  2  0  0  0  0
 28 29  2  0  0  0  0
 30 32  1  0  0  0  0
 30 31  1  0  0  0  0
 32 33  1  0  0  0  0
 33 34  1  0  0  0  0
 34 35  1  0  0  0  0
 34 36  1  0  0  0  0
M  END
>  <MODEL>
3

>  <REMARK>
 VINA RESULT:      -6.0      4.657      9.377
  Name = 
  5 active torsions:
  status: ('A' for Active; 'I' for Inactive)
    1  A    between atoms: C_2  and  N_3
    2  A    between atoms: C_2  and  C_19
    3  A    between atoms: N_3  and  C_27
    4  A    between atoms: C_6  and  C_29
    5  A    between atoms: C_14  and  C_19
                            x       y       z     vdW  Elec       q    Type
                         _______ _______ _______ _____ _____    ______ ____

>  <TORSDO>
F 5

$$$$
=
 OpenBabel11062417153D

 36 40  0  0  1  0  0  0  0  0999 V2000
  189.8130  177.5830  138.7110 C   0  0  1  0  0  3  0  0  0  0  0  0
  193.0240  172.5050  136.1210 C   0  0  0  0  0  1  0  0  0  0  0  0
  190.8600  173.4940  136.8600 C   0  0  0  0  0  2  0  0  0  0  0  0
  193.4240  175.9420  136.4600 C   0  0  2  0  0  3  0  0  0  0  0  0
  193.6230  175.2930  137.8200 C   0  0  1  0  0  3  0  0  0  0  0  0
  189.6800  176.5370  134.6650 O   0  0  0  0  0  1  0  0  0  0  0  0
  186.8380  175.7700  134.9980 C   0  0  0  0  0  2  0  0  0  0  0  0
  192.6500  174.9130  135.7700 C   0  0  0  0  0  0  0  0  0  0  0  0
  191.2690  176.7680  140.4030 N   0  0  0  0  0  0  0  0  0  0  0  0
  188.9060  174.6000  135.8900 C   0  0  1  0  0  3  0  0  0  0  0  0
  187.6680  174.4740  135.0010 C   0  0  0  0  0  2  0  0  0  0  0  0
  189.9520  177.3560  140.2190 C   0  0  0  0  0  3  0  0  0  0  0  0
  189.9990  173.5900  135.6040 C   0  0  0  0  0  2  0  0  0  0  0  0
  193.3240  176.2460  138.9830 C   0  0  0  0  0  2  0  0  0  0  0  0
  191.1300  177.1270  138.1640 C   0  0  0  0  0  3  0  0  0  0  0  0
  192.3220  174.9870  134.5940 O   0  0  0  0  0  0  0  0  0  0  0  0
  192.3560  173.7590  136.6610 C   0  0  2  0  0  0  0  0  0  0  0  0
  189.4310  176.0350  135.9460 C   0  0  2  0  0  3  0  0  0  0  0  0
  186.9350  176.5430  136.3390 C   0  0  1  0  0  3  0  0  0  0  0  0
  192.9020  174.0730  137.9270 O   0  0  0  0  0  0  0  0  0  0  0  0
  188.6430  176.7490  138.1850 C   0  0  0  0  0  2  0  0  0  0  0  0
  188.4110  176.9120  136.6810 C   0  0  1  0  0  3  0  0  0  0  0  0
  191.8850  176.6520  139.1360 C   0  0  0  0  0  0  0  0  0  0  0  0
  195.7210  175.2090  135.8000 C   0  0  0  0  0  3  0  0  0  0  0  0
  196.2660  177.6730  134.5940 C   0  0  0  0  0  3  0  0  0  0  0  0
  196.9700  175.4420  135.2160 C   0  0  0  0  0  3  0  0  0  0  0  0
  197.2420  176.6730  134.6130 C   0  0  0  0  0  3  0  0  0  0  0  0
  194.7350  176.2020  135.7770 C   0  0  0  0  0  0  0  0  0  0  0  0
  195.0180  177.4420  135.1780 C   0  0  0  0  0  3  0  0  0  0  0  0
  186.0870  177.7530  136.3250 N   0  0  0  0  0  0  0  0  0  0  0  0
  186.9260  178.9460  136.4190 C   0  0  0  0  0  1  0  0  0  0  0  0
  185.1410  177.7810  137.4530 C   0  0  0  0  0  2  0  0  0  0  0  0
  185.6680  178.5420  138.6720 C   0  0  0  0  0  2  0  0  0  0  0  0
  184.5150  179.1500  139.4460 C   0  0  0  0  0  3  0  0  0  0  0  0
  184.2960  180.4530  138.9990 O   0  0  0  0  0  1  0  0  0  0  0  0
  184.8180  179.1770  140.8080 O   0  0  0  0  0  1  0  0  0  0  0  0
  1 15  1  6  0  0  0
  1 12  1  0  0  0  0
  4 28  1  6  0  0  0
  4  5  1  0  0  0  0
  5 20  1  0  0  0  0
  5 14  1  1  0  0  0
  7 11  1  0  0  0  0
  7 19  1  0  0  0  0
  8  4  1  0  0  0  0
  8 17  1  0  0  0  0
 10 11  1  6  0  0  0
 10 18  1  0  0  0  0
 12  9  2  0  0  0  0
 13 10  1  0  0  0  0
 13  3  1  0  0  0  0
 14 23  1  0  0  0  0
 15 23  2  0  0  0  0
 16  8  2  0  0  0  0
 17  2  1  6  0  0  0
 17  3  1  0  0  0  0
 17 20  1  0  0  0  0
 18  6  1  6  0  0  0
 18 22  1  0  0  0  0
 19 30  1  6  0  0  0
 19 22  1  0  0  0  0
 21  1  1  0  0  0  0
 22 21  1  1  0  0  0
 23  9  1  0  0  0  0
 25 27  2  0  0  0  0
 25 29  1  0  0  0  0
 26 24  2  0  0  0  0
 27 26  1  0  0  0  0
 28 24  1  0  0  0  0
 29 28  2  0  0  0  0
 30 31  1  0  0  0  0
 30 32  1  0  0  0  0
 32 33  1  0  0  0  0
 33 34  1  0  0  0  0
 34 36  1  0  0  0  0
 35 34  1  0  0  0  0
M  END
>  <MODEL>
4

>  <REMARK>
 VINA RESULT:      -5.9      6.864     10.530
  Name = 
  5 active torsions:
  status: ('A' for Active; 'I' for Inactive)
    1  A    between atoms: C_2  and  N_3
    2  A    between atoms: C_2  and  C_19
    3  A    between atoms: N_3  and  C_27
    4  A    between atoms: C_6  and  C_29
    5  A    between atoms: C_14  and  C_19
                            x       y       z     vdW  Elec       q    Type
                         _______ _______ _______ _____ _____    ______ ____

>  <TORSDO>
F 5

$$$$
=
 OpenBabel11062417153D

 36 40  0  0  1  0  0  0  0  0999 V2000
  185.3950  172.9490  136.8830 C   0  0  1  0  0  3  0  0  0  0  0  0
  189.3240  177.7810  134.8810 C   0  0  0  0  0  1  0  0  0  0  0  0
  187.1920  176.5230  134.5970 C   0  0  0  0  0  2  0  0  0  0  0  0
  188.7130  175.9470  137.7720 C   0  0  2  0  0  3  0  0  0  0  0  0
  189.4110  175.0490  136.7630 C   0  0  1  0  0  3  0  0  0  0  0  0
  184.6600  177.0070  137.5670 O   0  0  0  0  0  1  0  0  0  0  0  0
  182.3500  176.8590  135.7190 C   0  0  0  0  0  2  0  0  0  0  0  0
  188.1570  176.9730  136.8930 C   0  0  0  0  0  0  0  0  0  0  0  0
  187.3800  171.9190  136.0790 N   0  0  0  0  0  0  0  0  0  0  0  0
  184.8250  176.7440  135.1680 C   0  0  1  0  0  3  0  0  0  0  0  0
  183.5150  177.5040  134.9480 C   0  0  0  0  0  2  0  0  0  0  0  0
  185.9410  171.7220  136.1470 C   0  0  0  0  0  3  0  0  0  0  0  0
  186.0780  177.5340  134.8510 C   0  0  0  0  0  2  0  0  0  0  0  0
  189.1100  173.5620  136.9850 C   0  0  0  0  0  2  0  0  0  0  0  0
  186.6250  173.7340  137.2170 C   0  0  0  0  0  3  0  0  0  0  0  0
  187.5600  177.9610  137.2990 O   0  0  0  0  0  0  0  0  0  0  0  0
  188.4460  176.6850  135.4620 C   0  0  2  0  0  0  0  0  0  0  0  0
  184.8810  176.0800  136.5440 C   0  0  2  0  0  3  0  0  0  0  0  0
  182.5110  175.3250  135.8690 C   0  0  1  0  0  3  0  0  0  0  0  0
  189.1460  175.4570  135.4280 O   0  0  0  0  0  0  0  0  0  0  0  0
  184.4500  173.7120  135.9530 C   0  0  0  0  0  2  0  0  0  0  0  0
  183.8390  174.9570  136.6000 C   0  0  1  0  0  3  0  0  0  0  0  0
  187.6920  173.1400  136.7200 C   0  0  0  0  0  0  0  0  0  0  0  0
  191.0470  176.5570  138.4290 C   0  0  0  0  0  3  0  0  0  0  0  0
  190.2060  177.4690  140.9370 C   0  0  0  0  0  3  0  0  0  0  0  0
  191.9820  177.0460  139.3470 C   0  0  0  0  0  3  0  0  0  0  0  0
  191.5620  177.5020  140.5990 C   0  0  0  0  0  3  0  0  0  0  0  0
  189.6870  176.5280  138.7560 C   0  0  0  0  0  0  0  0  0  0  0  0
  189.2710  176.9800  140.0210 C   0  0  0  0  0  3  0  0  0  0  0  0
  181.3530  174.7270  136.5650 N   0  0  0  0  0  0  0  0  0  0  0  0
  180.1230  175.3940  136.1420 C   0  0  0  0  0  1  0  0  0  0  0  0
  181.4540  174.8600  138.0280 C   0  0  0  0  0  2  0  0  0  0  0  0
  180.4560  175.8570  138.6200 C   0  0  0  0  0  2  0  0  0  0  0  0
  181.1760  176.8430  139.5200 C   0  0  0  0  0  3  0  0  0  0  0  0
  182.4350  176.3390  139.8440 O   0  0  0  0  0  1  0  0  0  0  0  0
  180.4440  177.0380  140.6920 O   0  0  0  0  0  1  0  0  0  0  0  0
  1 21  1  6  0  0  0
  1 15  1  0  0  0  0
  3 13  1  0  0  0  0
  3 17  1  0  0  0  0
  4 28  1  1  0  0  0
  5 14  1  6  0  0  0
  5  4  1  0  0  0  0
  7 19  1  0  0  0  0
  8 16  2  0  0  0  0
  8  4  1  0  0  0  0
  9 12  2  0  0  0  0
  9 23  1  0  0  0  0
 10 13  1  1  0  0  0
 10 18  1  0  0  0  0
 11 10  1  0  0  0  0
 11  7  1  0  0  0  0
 12  1  1  0  0  0  0
 17  2  1  6  0  0  0
 17  8  1  0  0  0  0
 18 22  1  0  0  0  0
 18  6  1  1  0  0  0
 19 30  1  1  0  0  0
 19 22  1  0  0  0  0
 20 17  1  0  0  0  0
 20  5  1  0  0  0  0
 22 21  1  6  0  0  0
 23 14  1  0  0  0  0
 23 15  2  0  0  0  0
 24 28  2  0  0  0  0
 24 26  1  0  0  0  0
 26 27  2  0  0  0  0
 27 25  1  0  0  0  0
 28 29  1  0  0  0  0
 29 25  2  0  0  0  0
 30 32  1  0  0  0  0
 31 30  1  0  0  0  0
 32 33  1  0  0  0  0
 33 34  1  0  0  0  0
 34 35  1  0  0  0  0
 34 36  1  0  0  0  0
M  END
>  <MODEL>
5

>  <REMARK>
 VINA RESULT:      -5.4      3.734      6.320
  Name = 
  5 active torsions:
  status: ('A' for Active; 'I' for Inactive)
    1  A    between atoms: C_2  and  N_3
    2  A    between atoms: C_2  and  C_19
    3  A    between atoms: N_3  and  C_27
    4  A    between atoms: C_6  and  C_29
    5  A    between atoms: C_14  and  C_19
                            x       y       z     vdW  Elec       q    Type
                         _______ _______ _______ _____ _____    ______ ____

>  <TORSDO>
F 5

$$$$
=
 OpenBabel11062417153D

 36 40  0  0  1  0  0  0  0  0999 V2000
  181.2790  178.7500  143.2950 C   0  0  1  0  0  3  0  0  0  0  0  0
  182.0100  179.2930  136.8160 C   0  0  0  0  0  1  0  0  0  0  0  0
  182.8370  179.8500  139.1000 C   0  0  0  0  0  2  0  0  0  0  0  0
  180.5360  177.1240  139.1000 C   0  0  2  0  0  3  0  0  0  0  0  0
  179.7210  178.4060  139.0510 C   0  0  1  0  0  3  0  0  0  0  0  0
  184.2100  176.7470  141.0870 O   0  0  0  0  0  1  0  0  0  0  0  0
  186.2790  178.4110  142.4000 C   0  0  0  0  0  2  0  0  0  0  0  0
  181.8210  177.5900  138.5840 C   0  0  0  0  0  0  0  0  0  0  0  0
  179.3910  179.9540  142.4980 N   0  0  0  0  0  0  0  0  0  0  0  0
  184.5500  179.1060  140.6780 C   0  0  1  0  0  3  0  0  0  0  0  0
  186.0420  178.9950  140.9960 C   0  0  0  0  0  2  0  0  0  0  0  0
  180.2960  179.8730  143.6340 C   0  0  0  0  0  3  0  0  0  0  0  0
  184.2230  179.2200  139.2030 C   0  0  0  0  0  2  0  0  0  0  0  0
  178.9390  178.6630  140.3440 C   0  0  0  0  0  2  0  0  0  0  0  0
  180.7960  178.2480  141.9690 C   0  0  0  0  0  3  0  0  0  0  0  0
  182.7760  176.8530  138.3810 O   0  0  0  0  0  0  0  0  0  0  0  0
  181.8010  179.0500  138.3020 C   0  0  2  0  0  0  0  0  0  0  0  0
  183.7290  178.0260  141.3820 C   0  0  2  0  0  3  0  0  0  0  0  0
  185.1500  178.7760  143.3970 C   0  0  1  0  0  3  0  0  0  0  0  0
  180.5220  179.5200  138.6780 O   0  0  0  0  0  0  0  0  0  0  0  0
  182.6930  179.3280  143.2190 C   0  0  0  0  0  2  0  0  0  0  0  0
  183.7600  178.2800  142.8930 C   0  0  1  0  0  3  0  0  0  0  0  0
  179.7720  178.9700  141.5570 C   0  0  0  0  0  0  0  0  0  0  0  0
  179.8330  174.7550  138.7180 C   0  0  0  0  0  3  0  0  0  0  0  0
  179.0450  175.3100  136.0910 C   0  0  0  0  0  3  0  0  0  0  0  0
  179.3280  173.7340  137.9070 C   0  0  0  0  0  3  0  0  0  0  0  0
  178.9340  174.0120  136.5950 C   0  0  0  0  0  3  0  0  0  0  0  0
  179.9400  176.0600  138.2240 C   0  0  0  0  0  0  0  0  0  0  0  0
  179.5500  176.3320  136.9010 C   0  0  0  0  0  3  0  0  0  0  0  0
  185.4310  178.2480  144.7470 N   0  0  0  0  0  0  0  0  0  0  0  0
  185.2900  179.3150  145.7360 C   0  0  0  0  0  1  0  0  0  0  0  0
  186.7960  177.7100  144.8610 C   0  0  0  0  0  2  0  0  0  0  0  0
  187.3620  177.7760  146.2820 C   0  0  0  0  0  2  0  0  0  0  0  0
  188.8720  177.9040  146.2370 C   0  0  0  0  0  3  0  0  0  0  0  0
  189.2780  178.1290  144.9220 O   0  0  0  0  0  1  0  0  0  0  0  0
  189.4620  176.7290  146.7050 O   0  0  0  0  0  1  0  0  0  0  0  0
  1 15  1  6  0  0  0
  1 12  1  0  0  0  0
  3 13  1  0  0  0  0
  4 28  1  6  0  0  0
  5  4  1  0  0  0  0
  5 14  1  1  0  0  0
  7 19  1  0  0  0  0
  8  4  1  0  0  0  0
  9 12  2  0  0  0  0
 10 13  1  6  0  0  0
 10 11  1  0  0  0  0
 10 18  1  0  0  0  0
 11  7  1  0  0  0  0
 14 23  1  0  0  0  0
 16  8  2  0  0  0  0
 17  2  1  6  0  0  0
 17  8  1  0  0  0  0
 17 20  1  0  0  0  0
 17  3  1  0  0  0  0
 18  6  1  1  0  0  0
 18 22  1  0  0  0  0
 19 30  1  1  0  0  0
 20  5  1  0  0  0  0
 21  1  1  0  0  0  0
 22 21  1  6  0  0  0
 22 19  1  0  0  0  0
 23 15  2  0  0  0  0
 23  9  1  0  0  0  0
 25 27  2  0  0  0  0
 25 29  1  0  0  0  0
 26 24  2  0  0  0  0
 27 26  1  0  0  0  0
 28 24  1  0  0  0  0
 29 28  2  0  0  0  0
 30 32  1  0  0  0  0
 30 31  1  0  0  0  0
 32 33  1  0  0  0  0
 34 33  1  0  0  0  0
 34 36  1  0  0  0  0
 35 34  1  0  0  0  0
M  END
>  <MODEL>
6

>  <REMARK>
 VINA RESULT:      -5.2      3.510      8.074
  Name = 
  5 active torsions:
  status: ('A' for Active; 'I' for Inactive)
    1  A    between atoms: C_2  and  N_3
    2  A    between atoms: C_2  and  C_19
    3  A    between atoms: N_3  and  C_27
    4  A    between atoms: C_6  and  C_29
    5  A    between atoms: C_14  and  C_19
                            x       y       z     vdW  Elec       q    Type
                         _______ _______ _______ _____ _____    ______ ____

>  <TORSDO>
F 5

$$$$
=
 OpenBabel11062417153D

 36 40  0  0  1  0  0  0  0  0999 V2000
  185.9900  176.1900  136.8060 C   0  0  1  0  0  3  0  0  0  0  0  0
  180.8590  179.7190  138.8110 C   0  0  0  0  0  1  0  0  0  0  0  0
  181.8660  178.2270  137.0880 C   0  0  0  0  0  2  0  0  0  0  0  0
  183.6250  178.1250  140.1910 C   0  0  2  0  0  3  0  0  0  0  0  0
  184.0980  179.3590  139.4390 C   0  0  1  0  0  3  0  0  0  0  0  0
  182.4650  174.5460  138.3370 O   0  0  0  0  0  1  0  0  0  0  0  0
  181.8530  173.4570  135.6500 C   0  0  0  0  0  2  0  0  0  0  0  0
  182.3310  177.8900  139.5530 C   0  0  0  0  0  0  0  0  0  0  0  0
  186.6950  178.4600  136.8240 N   0  0  0  0  0  0  0  0  0  0  0  0
  181.8160  175.8740  136.4220 C   0  0  1  0  0  3  0  0  0  0  0  0
  180.9960  174.7210  135.8400 C   0  0  0  0  0  2  0  0  0  0  0  0
  186.8660  177.2190  136.0860 C   0  0  0  0  0  3  0  0  0  0  0  0
  180.9960  176.9740  137.0660 C   0  0  0  0  0  2  0  0  0  0  0  0
  185.5530  179.2440  138.9670 C   0  0  0  0  0  2  0  0  0  0  0  0
  185.4170  176.9600  137.9550 C   0  0  0  0  0  3  0  0  0  0  0  0
  181.5520  177.0150  139.9050 O   0  0  0  0  0  0  0  0  0  0  0  0
  182.0710  178.8690  138.4640 C   0  0  2  0  0  0  0  0  0  0  0  0
  182.9470  175.3800  137.3240 C   0  0  2  0  0  3  0  0  0  0  0  0
  183.3360  173.7830  135.3380 C   0  0  1  0  0  3  0  0  0  0  0  0
  183.2140  179.6970  138.3790 O   0  0  0  0  0  0  0  0  0  0  0  0
  184.9120  175.6890  135.8440 C   0  0  0  0  0  2  0  0  0  0  0  0
  183.9840  174.6430  136.4660 C   0  0  1  0  0  3  0  0  0  0  0  0
  185.8100  178.2180  137.8990 C   0  0  0  0  0  0  0  0  0  0  0  0
  184.5840  178.2150  142.4970 C   0  0  0  0  0  3  0  0  0  0  0  0
  182.1230  178.9650  143.5970 C   0  0  0  0  0  3  0  0  0  0  0  0
  184.4640  178.4140  143.8760 C   0  0  0  0  0  3  0  0  0  0  0  0
  183.2340  178.7890  144.4250 C   0  0  0  0  0  3  0  0  0  0  0  0
  183.4780  178.3980  141.6590 C   0  0  0  0  0  0  0  0  0  0  0  0
  182.2420  178.7660  142.2180 C   0  0  0  0  0  3  0  0  0  0  0  0
  184.1220  172.5540  135.1080 N   0  0  0  0  0  0  0  0  0  0  0  0
  183.3390  171.3850  135.5050 C   0  0  0  0  0  1  0  0  0  0  0  0
  185.3730  172.5390  135.8830 C   0  0  0  0  0  2  0  0  0  0  0  0
  186.6290  172.4740  135.0120 C   0  0  0  0  0  2  0  0  0  0  0  0
  187.8650  172.3690  135.8850 C   0  0  0  0  0  3  0  0  0  0  0  0
  188.5900  171.2340  135.5220 O   0  0  0  0  0  1  0  0  0  0  0  0
  187.4920  172.2660  137.2260 O   0  0  0  0  0  1  0  0  0  0  0  0
  1 21  1  6  0  0  0
  1 15  1  0  0  0  0
  3 17  1  0  0  0  0
  4 28  1  1  0  0  0
  5 14  1  6  0  0  0
  5  4  1  0  0  0  0
  7 11  1  0  0  0  0
  8 16  2  0  0  0  0
  8  4  1  0  0  0  0
  9 23  1  0  0  0  0
 10 11  1  1  0  0  0
 10 13  1  0  0  0  0
 10 18  1  0  0  0  0
 12  1  1  0  0  0  0
 12  9  2  0  0  0  0
 13  3  1  0  0  0  0
 17  2  1  1  0  0  0
 17  8  1  0  0  0  0
 18  6  1  1  0  0  0
 19 30  1  1  0  0  0
 19  7  1  0  0  0  0
 19 22  1  0  0  0  0
 20 17  1  0  0  0  0
 20  5  1  0  0  0  0
 22 21  1  6  0  0  0
 22 18  1  0  0  0  0
 23 15  2  0  0  0  0
 23 14  1  0  0  0  0
 24 26  1  0  0  0  0
 25 27  1  0  0  0  0
 26 27  2  0  0  0  0
 28 29  1  0  0  0  0
 28 24  2  0  0  0  0
 29 25  2  0  0  0  0
 30 31  1  0  0  0  0
 30 32  1  0  0  0  0
 33 32  1  0  0  0  0
 33 34  1  0  0  0  0
 34 36  1  0  0  0  0
 35 34  1  0  0  0  0
M  END
>  <MODEL>
7

>  <REMARK>
 VINA RESULT:      -5.1      1.637      2.172
  Name = 
  5 active torsions:
  status: ('A' for Active; 'I' for Inactive)
    1  A    between atoms: C_2  and  N_3
    2  A    between atoms: C_2  and  C_19
    3  A    between atoms: N_3  and  C_27
    4  A    between atoms: C_6  and  C_29
    5  A    between atoms: C_14  and  C_19
                            x       y       z     vdW  Elec       q    Type
                         _______ _______ _______ _____ _____    ______ ____

>  <TORSDO>
F 5

$$$$
=
 OpenBabel11062417153D

 36 40  0  0  1  0  0  0  0  0999 V2000
  189.5230  177.5490  138.6050 C   0  0  1  0  0  3  0  0  0  0  0  0
  192.9870  172.5430  136.2090 C   0  0  0  0  0  1  0  0  0  0  0  0
  190.7730  173.4550  136.8980 C   0  0  0  0  0  2  0  0  0  0  0  0
  193.2260  176.0050  136.4370 C   0  0  2  0  0  3  0  0  0  0  0  0
  193.4430  175.4090  137.8190 C   0  0  1  0  0  3  0  0  0  0  0  0
  189.4750  176.3670  134.5950 O   0  0  0  0  0  1  0  0  0  0  0  0
  186.6690  175.4810  134.9320 C   0  0  0  0  0  2  0  0  0  0  0  0
  192.5070  174.9190  135.7750 C   0  0  0  0  0  0  0  0  0  0  0  0
  191.0000  176.8580  140.3340 N   0  0  0  0  0  0  0  0  0  0  0  0
  188.7800  174.4380  135.8780 C   0  0  1  0  0  3  0  0  0  0  0  0
  187.5570  174.2250  134.9840 C   0  0  0  0  0  2  0  0  0  0  0  0
  189.6590  177.3780  140.1210 C   0  0  0  0  0  3  0  0  0  0  0  0
  189.9200  173.4700  135.6330 C   0  0  0  0  0  2  0  0  0  0  0  0
  193.0900  176.3860  138.9480 C   0  0  0  0  0  2  0  0  0  0  0  0
  190.8650  177.1370  138.0830 C   0  0  0  0  0  3  0  0  0  0  0  0
  192.1860  174.9390  134.5950 O   0  0  0  0  0  0  0  0  0  0  0  0
  192.2580  173.7820  136.7020 C   0  0  2  0  0  0  0  0  0  0  0  0
  189.2380  175.8960  135.8900 C   0  0  2  0  0  3  0  0  0  0  0  0
  186.7180  176.3010  136.2470 C   0  0  1  0  0  3  0  0  0  0  0  0
  192.7780  174.1620  137.9600 O   0  0  0  0  0  0  0  0  0  0  0  0
  188.3980  176.6460  138.0980 C   0  0  0  0  0  2  0  0  0  0  0  0
  188.1720  176.7490  136.5880 C   0  0  1  0  0  3  0  0  0  0  0  0
  191.6330  176.7300  139.0760 C   0  0  0  0  0  0  0  0  0  0  0  0
  195.5320  175.3250  135.7510 C   0  0  0  0  0  3  0  0  0  0  0  0
  196.0320  177.8270  134.6020 C   0  0  0  0  0  3  0  0  0  0  0  0
  196.7750  175.5930  135.1680 C   0  0  0  0  0  3  0  0  0  0  0  0
  197.0240  176.8430  134.5940 C   0  0  0  0  0  3  0  0  0  0  0  0
  194.5300  176.3020  135.7560 C   0  0  0  0  0  0  0  0  0  0  0  0
  194.7900  177.5610  135.1850 C   0  0  0  0  0  3  0  0  0  0  0  0
  185.8160  177.4690  136.1880 N   0  0  0  0  0  0  0  0  0  0  0  0
  185.7610  178.1190  137.4960 C   0  0  0  0  0  1  0  0  0  0  0  0
  184.4420  177.0920  135.8170 C   0  0  0  0  0  2  0  0  0  0  0  0
  183.5830  176.6680  137.0100 C   0  0  0  0  0  2  0  0  0  0  0  0
  183.2450  175.1930  136.9110 C   0  0  0  0  0  3  0  0  0  0  0  0
  181.9020  175.0040  137.2400 O   0  0  0  0  0  1  0  0  0  0  0  0
  184.0410  174.4630  137.7950 O   0  0  0  0  0  1  0  0  0  0  0  0
  1 15  1  6  0  0  0
  1 12  1  0  0  0  0
  4 28  1  6  0  0  0
  4  5  1  0  0  0  0
  5 20  1  0  0  0  0
  5 14  1  1  0  0  0
  7 11  1  0  0  0  0
  7 19  1  0  0  0  0
  8  4  1  0  0  0  0
  8 17  1  0  0  0  0
 10 11  1  6  0  0  0
 10 18  1  0  0  0  0
 12  9  2  0  0  0  0
 13 10  1  0  0  0  0
 13  3  1  0  0  0  0
 14 23  1  0  0  0  0
 15 23  2  0  0  0  0
 16  8  2  0  0  0  0
 17  2  1  6  0  0  0
 17  3  1  0  0  0  0
 17 20  1  0  0  0  0
 18  6  1  6  0  0  0
 18 22  1  0  0  0  0
 19 30  1  6  0  0  0
 19 22  1  0  0  0  0
 21  1  1  0  0  0  0
 22 21  1  1  0  0  0
 23  9  1  0  0  0  0
 24 28  1  0  0  0  0
 25 29  1  0  0  0  0
 26 24  2  0  0  0  0
 27 25  2  0  0  0  0
 27 26  1  0  0  0  0
 29 28  2  0  0  0  0
 30 31  1  0  0  0  0
 32 30  1  0  0  0  0
 32 33  1  0  0  0  0
 34 33  1  0  0  0  0
 34 35  1  0  0  0  0
 34 36  1  0  0  0  0
M  END
>  <MODEL>
8

>  <REMARK>
 VINA RESULT:      -5.1      6.704     10.064
  Name = 
  5 active torsions:
  status: ('A' for Active; 'I' for Inactive)
    1  A    between atoms: C_2  and  N_3
    2  A    between atoms: C_2  and  C_19
    3  A    between atoms: N_3  and  C_27
    4  A    between atoms: C_6  and  C_29
    5  A    between atoms: C_14  and  C_19
                            x       y       z     vdW  Elec       q    Type
                         _______ _______ _______ _____ _____    ______ ____

>  <TORSDO>
F 5

$$$$
=
 OpenBabel11062417153D

 36 40  0  0  1  0  0  0  0  0999 V2000
  184.2350  173.2160  137.2170 C   0  0  1  0  0  3  0  0  0  0  0  0
  188.4360  177.4920  134.5940 C   0  0  0  0  0  1  0  0  0  0  0  0
  186.1580  176.4810  134.5940 C   0  0  0  0  0  2  0  0  0  0  0  0
  187.9470  175.8360  137.6130 C   0  0  2  0  0  3  0  0  0  0  0  0
  188.4240  174.8300  136.5770 C   0  0  1  0  0  3  0  0  0  0  0  0
  184.0400  177.3530  137.7920 O   0  0  0  0  0  1  0  0  0  0  0  0
  181.5380  177.4140  136.2070 C   0  0  0  0  0  2  0  0  0  0  0  0
  187.4150  176.8910  136.7530 C   0  0  0  0  0  0  0  0  0  0  0  0
  185.9920  171.9370  136.2550 N   0  0  0  0  0  0  0  0  0  0  0  0
  183.9080  176.9950  135.4030 C   0  0  1  0  0  3  0  0  0  0  0  0
  182.6760  177.8940  135.2890 C   0  0  0  0  0  2  0  0  0  0  0  0
  184.5560  171.9120  136.4830 C   0  0  0  0  0  3  0  0  0  0  0  0
  185.1990  177.6230  134.9190 C   0  0  0  0  0  2  0  0  0  0  0  0
  187.9840  173.3960  136.8970 C   0  0  0  0  0  2  0  0  0  0  0  0
  185.5750  173.8640  137.3830 C   0  0  0  0  0  3  0  0  0  0  0  0
  186.9810  177.9540  137.1750 O   0  0  0  0  0  0  0  0  0  0  0  0
  187.5100  176.5240  135.3140 C   0  0  2  0  0  0  0  0  0  0  0  0
  184.0410  176.3740  136.7940 C   0  0  2  0  0  3  0  0  0  0  0  0
  181.5410  175.8770  136.4080 C   0  0  1  0  0  3  0  0  0  0  0  0
  188.0600  175.2230  135.2610 O   0  0  0  0  0  0  0  0  0  0  0  0
  183.2850  174.0540  136.3590 C   0  0  0  0  0  2  0  0  0  0  0  0
  182.8920  175.3820  137.0100 C   0  0  1  0  0  3  0  0  0  0  0  0
  186.5080  173.1340  136.8030 C   0  0  0  0  0  0  0  0  0  0  0  0
  188.8020  177.1620  139.5530 C   0  0  0  0  0  3  0  0  0  0  0  0
  191.4590  176.5530  138.9230 C   0  0  0  0  0  3  0  0  0  0  0  0
  189.8420  177.6790  140.3300 C   0  0  0  0  0  3  0  0  0  0  0  0
  191.1700  177.3740  140.0160 C   0  0  0  0  0  3  0  0  0  0  0  0
  189.0820  176.3320  138.4610 C   0  0  0  0  0  0  0  0  0  0  0  0
  190.4190  176.0360  138.1440 C   0  0  0  0  0  3  0  0  0  0  0  0
  180.4080  175.4410  137.2490 N   0  0  0  0  0  0  0  0  0  0  0  0
  180.8780  175.1580  138.6040 C   0  0  0  0  0  1  0  0  0  0  0  0
  179.7690  174.2200  136.7320 C   0  0  0  0  0  2  0  0  0  0  0  0
  179.5860  173.1320  137.7930 C   0  0  0  0  0  2  0  0  0  0  0  0
  179.9430  171.7760  137.2160 C   0  0  0  0  0  3  0  0  0  0  0  0
  181.2480  171.4480  137.5820 O   0  0  0  0  0  1  0  0  0  0  0  0
  179.8520  171.8120  135.8240 O   0  0  0  0  0  1  0  0  0  0  0  0
  1 21  1  6  0  0  0
  1 15  1  0  0  0  0
  3 13  1  0  0  0  0
  3 17  1  0  0  0  0
  4 28  1  6  0  0  0
  5 14  1  1  0  0  0
  5  4  1  0  0  0  0
  7 19  1  0  0  0  0
  8 16  2  0  0  0  0
  8  4  1  0  0  0  0
  9 12  2  0  0  0  0
  9 23  1  0  0  0  0
 10 13  1  1  0  0  0
 10 18  1  0  0  0  0
 11 10  1  0  0  0  0
 11  7  1  0  0  0  0
 12  1  1  0  0  0  0
 17  2  1  6  0  0  0
 17  8  1  0  0  0  0
 18 22  1  0  0  0  0
 18  6  1  1  0  0  0
 19 22  1  0  0  0  0
 19 30  1  1  0  0  0
 20 17  1  0  0  0  0
 20  5  1  0  0  0  0
 22 21  1  6  0  0  0
 23 14  1  0  0  0  0
 23 15  2  0  0  0  0
 24 26  1  0  0  0  0
 25 27  1  0  0  0  0
 27 26  2  0  0  0  0
 28 24  2  0  0  0  0
 29 28  1  0  0  0  0
 29 25  2  0  0  0  0
 30 31  1  0  0  0  0
 32 30  1  0  0  0  0
 32 33  1  0  0  0  0
 34 35  1  0  0  0  0
 34 33  1  0  0  0  0
 36 34  1  0  0  0  0
M  END
>  <MODEL>
9

>  <REMARK>
 VINA RESULT:      -5.0      3.667      5.827
  Name = 
  5 active torsions:
  status: ('A' for Active; 'I' for Inactive)
    1  A    between atoms: C_2  and  N_3
    2  A    between atoms: C_2  and  C_19
    3  A    between atoms: N_3  and  C_27
    4  A    between atoms: C_6  and  C_29
    5  A    between atoms: C_14  and  C_19
                            x       y       z     vdW  Elec       q    Type
                         _______ _______ _______ _____ _____    ______ ____

>  <TORSDO>
F 5

$$$$
