=
 OpenBabel11062417583D

 40 44  0  0  1  0  0  0  0  0999 V2000
  189.0480  178.7620  138.0000 C   0  0  0  0  0  3  0  0  0  0  0  0
  188.5780  178.9200  140.4070 N   0  0  0  0  0  0  0  0  0  0  0  0
  189.9580  176.1830  138.6380 N   0  0  0  0  0  0  0  0  0  0  0  0
  189.3290  176.7890  140.9440 C   0  0  0  0  0  3  0  0  0  0  0  0
  188.7780  177.9990  141.3930 C   0  0  2  0  0  3  0  0  0  0  0  0
  189.0140  178.3050  139.3030 C   0  0  0  0  0  0  0  0  0  0  0  0
  189.5400  177.9100  137.0500 N   0  0  0  0  0  0  0  0  0  0  0  0
  189.9830  176.6400  137.3450 C   0  0  0  0  0  0  0  0  0  0  0  0
  189.4800  177.0040  139.5980 C   0  0  0  0  0  0  0  0  0  0  0  0
  185.0910  178.0190  144.8330 C   0  0  0  0  0  2  0  0  0  0  0  0
  188.1410  178.4430  145.9300 C   0  0  0  0  0  2  0  0  0  0  0  0
  187.0130  177.5960  143.0890 C   0  0  0  0  0  2  0  0  0  0  0  0
  187.0930  177.5500  145.4730 N   0  0  2  0  0  0  0  0  0  0  0  0
  186.5050  178.2370  144.3490 C   0  0  2  0  0  3  0  0  0  0  0  0
  185.6110  178.5950  147.2140 C   0  0  0  0  0  1  0  0  0  0  0  0
  189.3920  178.0710  145.1750 C   0  0  0  0  0  3  0  0  0  0  0  0
  189.5090  177.9200  143.8270 C   0  0  0  0  0  0  0  0  0  0  0  0
  185.7690  177.5470  146.1110 C   0  0  1  0  0  3  0  0  0  0  0  0
  188.3830  178.2370  142.8180 C   0  0  1  0  0  3  0  0  0  0  0  0
  190.8580  177.5040  143.2980 C   0  0  1  0  0  3  0  0  0  0  0  0
  191.6180  178.6220  142.9440 O   0  0  0  0  0  1  0  0  0  0  0  0
  191.6060  176.6460  144.3070 C   0  0  0  0  0  2  0  0  0  0  0  0
  191.5500  175.2130  143.9060 C   0  0  0  0  0  0  0  0  0  0  0  0
  192.4390  174.3020  144.4600 O   0  0  0  0  0  1  0  0  0  0  0  0
  190.6750  174.8220  143.0910 O   0  0  0  0  0  0  0  0  0  0  0  0
  190.5160  175.7920  136.2530 C   0  0  0  0  0  0  0  0  0  0  0  0
  189.7590  175.5410  135.2760 O   0  0  0  0  0  0  0  0  0  0  0  0
  193.1270  172.9400  135.9030 C   0  0  0  0  0  0  0  0  0  0  0  0
  191.8890  175.2280  136.2350 C   0  0  0  0  0  0  0  0  0  0  0  0
  192.9250  176.0280  136.4820 C   0  0  0  0  0  3  0  0  0  0  0  0
  192.8660  171.5730  135.6120 N   0  0  0  0  0  1  0  0  0  0  0  0
  194.3560  175.7350  136.5470 C   0  0  0  0  0  3  0  0  0  0  0  0
  192.0080  173.8220  135.9970 N   0  0  0  0  0  0  0  0  0  0  0  0
  195.0160  174.5880  136.3750 C   0  0  0  0  0  0  0  0  0  0  0  0
  194.3990  173.2950  136.0660 C   0  0  0  0  0  2  0  0  0  0  0  0
  196.4130  174.5690  136.4870 O   0  0  0  0  0  0  0  0  0  0  0  0
  196.1660  173.7030  139.1300 O   0  0  0  0  0  1  0  0  0  0  0  0
  197.2670  174.1570  137.9290 P   0  0  0  0  0  0  0  0  0  0  0  0
  198.2020  173.0060  137.6450 O   0  0  0  0  0  0  0  0  0  0  0  0
  198.1630  175.4900  138.4590 O   0  0  0  0  0  1  0  0  0  0  0  0
  1  6  1  0  0  0  0
  2  5  1  0  0  0  0
  3  9  1  0  0  0  0
  5  4  1  6  0  0  0
  5 19  1  0  0  0  0
  6  9  1  0  0  0  0
  6  2  2  0  0  0  0
  7  8  1  0  0  0  0
  7  1  2  0  0  0  0
  8  3  2  0  0  0  0
  9  4  2  0  0  0  0
 10 18  1  0  0  0  0
 13 11  1  1  0  0  0
 13 18  1  0  0  0  0
 14 12  1  6  0  0  0
 14 10  1  0  0  0  0
 14 13  1  0  0  0  0
 16 11  1  0  0  0  0
 17 16  2  0  0  0  0
 18 15  1  1  0  0  0
 19 12  1  1  0  0  0
 19 17  1  0  0  0  0
 20 21  1  1  0  0  0
 20 17  1  0  0  0  0
 20 22  1  0  0  0  0
 23 22  1  0  0  0  0
 23 24  1  0  0  0  0
 25 23  2  0  0  0  0
 26  8  1  0  0  0  0
 27 26  2  0  0  0  0
 28 33  2  0  0  0  0
 28 35  1  0  0  0  0
 29 26  1  0  0  0  0
 29 30  2  0  0  0  0
 30 32  1  0  0  0  0
 31 28  1  0  0  0  0
 33 29  1  0  0  0  0
 34 36  1  0  0  0  0
 34 32  2  0  0  0  0
 35 34  1  0  0  0  0
 36 38  1  0  0  0  0
 38 40  1  0  0  0  0
 38 37  1  0  0  0  0
 39 38  2  0  0  0  0
M  END
>  <MODEL>
1

>  <REMARK>
 VINA RESULT:      -8.0      0.000      0.000
  Name = 
  8 active torsions:
  status: ('A' for Active; 'I' for Inactive)
    1  A    between atoms: C_3  and  C_12
    2  A    between atoms: C_9  and  C_39
    3  A    between atoms: C_10  and  C_29
    4  A    between atoms: C_10  and  C_39
    5  A    between atoms: C_12  and  C_34
    6  A    between atoms: P_18  and  O_37
    7  A    between atoms: C_23  and  C_31
    8  A    between atoms: C_32  and  O_37
                            x       y       z     vdW  Elec       q    Type
                         _______ _______ _______ _____ _____    ______ ____

>  <TORSDO>
F 8

$$$$
=
 OpenBabel11062417583D

 40 44  0  0  1  0  0  0  0  0999 V2000
  188.8460  178.7000  139.2890 C   0  0  0  0  0  3  0  0  0  0  0  0
  188.2520  178.4210  141.6580 N   0  0  0  0  0  0  0  0  0  0  0  0
  190.2300  176.2830  139.6460 N   0  0  0  0  0  0  0  0  0  0  0  0
  189.3950  176.4220  141.9630 C   0  0  0  0  0  3  0  0  0  0  0  0
  188.5920  177.4260  142.5260 C   0  0  2  0  0  3  0  0  0  0  0  0
  188.8500  178.0650  140.5160 C   0  0  0  0  0  0  0  0  0  0  0  0
  189.5400  178.1040  138.2730 N   0  0  0  0  0  0  0  0  0  0  0  0
  190.2170  176.9150  138.4290 C   0  0  0  0  0  0  0  0  0  0  0  0
  189.5560  176.8510  140.6700 C   0  0  0  0  0  0  0  0  0  0  0  0
  189.7350  177.5950  147.4340 C   0  0  0  0  0  2  0  0  0  0  0  0
  186.5620  177.6410  146.6510 C   0  0  0  0  0  2  0  0  0  0  0  0
  189.1810  177.9200  144.8840 C   0  0  0  0  0  2  0  0  0  0  0  0
  187.8210  178.3470  146.7970 N   0  0  2  0  0  0  0  0  0  0  0  0
  188.8030  177.4390  146.2560 C   0  0  2  0  0  3  0  0  0  0  0  0
  187.9120  177.4520  149.1450 C   0  0  0  0  0  1  0  0  0  0  0  0
  186.0090  178.0080  145.2970 C   0  0  0  0  0  3  0  0  0  0  0  0
  186.6760  177.9560  144.1110 C   0  0  0  0  0  0  0  0  0  0  0  0
  188.5590  178.3240  148.0680 C   0  0  1  0  0  3  0  0  0  0  0  0
  188.0970  177.3780  143.9390 C   0  0  1  0  0  3  0  0  0  0  0  0
  185.9270  178.4100  142.8840 C   0  0  1  0  0  3  0  0  0  0  0  0
  185.2530  177.3400  142.2890 O   0  0  0  0  0  1  0  0  0  0  0  0
  184.9570  179.5360  143.2150 C   0  0  0  0  0  2  0  0  0  0  0  0
  183.5530  179.0510  143.1100 C   0  0  0  0  0  0  0  0  0  0  0  0
  182.8660  178.6630  144.2520 O   0  0  0  0  0  1  0  0  0  0  0  0
  182.9770  179.0280  141.9920 O   0  0  0  0  0  0  0  0  0  0  0  0
  190.9560  176.3510  137.2750 C   0  0  0  0  0  0  0  0  0  0  0  0
  190.5150  176.5860  136.1180 O   0  0  0  0  0  0  0  0  0  0  0  0
  193.1640  173.2250  136.6240 C   0  0  0  0  0  0  0  0  0  0  0  0
  192.1870  175.5320  137.3990 C   0  0  0  0  0  0  0  0  0  0  0  0
  193.1970  175.9810  138.1440 C   0  0  0  0  0  3  0  0  0  0  0  0
  192.8290  172.0910  135.8350 N   0  0  0  0  0  1  0  0  0  0  0  0
  194.4940  175.3790  138.4480 C   0  0  0  0  0  3  0  0  0  0  0  0
  192.1900  174.2630  136.7380 N   0  0  0  0  0  0  0  0  0  0  0  0
  195.0220  174.2160  138.0640 C   0  0  0  0  0  0  0  0  0  0  0  0
  194.3640  173.2320  137.1980 C   0  0  0  0  0  2  0  0  0  0  0  0
  196.3080  173.8620  138.4960 O   0  0  0  0  0  0  0  0  0  0  0  0
  198.3800  175.5910  139.2070 O   0  0  0  0  0  1  0  0  0  0  0  0
  197.7570  174.6300  137.9630 P   0  0  0  0  0  0  0  0  0  0  0  0
  198.7730  173.5760  137.5880 O   0  0  0  0  0  1  0  0  0  0  0  0
  197.4260  175.5960  136.6150 O   0  0  0  0  0  0  0  0  0  0  0  0
  1  6  1  0  0  0  0
  2  5  1  0  0  0  0
  3  9  1  0  0  0  0
  5  4  1  6  0  0  0
  5 19  1  0  0  0  0
  6  9  1  0  0  0  0
  6  2  2  0  0  0  0
  7  8  1  0  0  0  0
  7  1  2  0  0  0  0
  8  3  2  0  0  0  0
  9  4  2  0  0  0  0
 10 18  1  0  0  0  0
 13 11  1  1  0  0  0
 13 18  1  0  0  0  0
 14 12  1  6  0  0  0
 14 13  1  0  0  0  0
 14 10  1  0  0  0  0
 16 11  1  0  0  0  0
 17 16  2  0  0  0  0
 18 15  1  1  0  0  0
 19 17  1  0  0  0  0
 19 12  1  1  0  0  0
 20 21  1  1  0  0  0
 20 22  1  0  0  0  0
 20 17  1  0  0  0  0
 23 22  1  0  0  0  0
 23 24  1  0  0  0  0
 25 23  2  0  0  0  0
 26 29  1  0  0  0  0
 26  8  1  0  0  0  0
 27 26  2  0  0  0  0
 28 33  2  0  0  0  0
 28 35  1  0  0  0  0
 29 30  2  0  0  0  0
 30 32  1  0  0  0  0
 31 28  1  0  0  0  0
 33 29  1  0  0  0  0
 34 32  2  0  0  0  0
 34 36  1  0  0  0  0
 35 34  1  0  0  0  0
 38 36  1  0  0  0  0
 38 37  1  0  0  0  0
 39 38  1  0  0  0  0
 40 38  2  0  0  0  0
M  END
>  <MODEL>
2

>  <REMARK>
 VINA RESULT:      -8.0      2.561      3.660
  Name = 
  8 active torsions:
  status: ('A' for Active; 'I' for Inactive)
    1  A    between atoms: C_3  and  C_12
    2  A    between atoms: C_9  and  C_39
    3  A    between atoms: C_10  and  C_29
    4  A    between atoms: C_10  and  C_39
    5  A    between atoms: C_12  and  C_34
    6  A    between atoms: P_18  and  O_37
    7  A    between atoms: C_23  and  C_31
    8  A    between atoms: C_32  and  O_37
                            x       y       z     vdW  Elec       q    Type
                         _______ _______ _______ _____ _____    ______ ____

>  <TORSDO>
F 8

$$$$
=
 OpenBabel11062417583D

 40 44  0  0  1  0  0  0  0  0999 V2000
  189.0840  178.4220  138.0250 C   0  0  0  0  0  3  0  0  0  0  0  0
  188.5970  178.6680  140.4220 N   0  0  0  0  0  0  0  0  0  0  0  0
  190.3980  176.0730  138.8260 N   0  0  0  0  0  0  0  0  0  0  0  0
  189.6820  176.7280  141.0930 C   0  0  0  0  0  3  0  0  0  0  0  0
  188.9430  177.8620  141.4650 C   0  0  2  0  0  3  0  0  0  0  0  0
  189.1250  178.0560  139.3570 C   0  0  0  0  0  0  0  0  0  0  0  0
  189.7060  177.5970  137.1300 N   0  0  0  0  0  0  0  0  0  0  0  0
  190.3480  176.4380  137.5040 C   0  0  0  0  0  0  0  0  0  0  0  0
  189.7950  176.8710  139.7340 C   0  0  0  0  0  0  0  0  0  0  0  0
  185.1840  177.9430  144.8240 C   0  0  0  0  0  2  0  0  0  0  0  0
  188.2080  178.4080  145.9760 C   0  0  0  0  0  2  0  0  0  0  0  0
  187.1450  177.4890  143.1320 C   0  0  0  0  0  2  0  0  0  0  0  0
  187.1730  177.4990  145.5180 N   0  0  2  0  0  0  0  0  0  0  0  0
  186.6070  178.1570  144.3650 C   0  0  2  0  0  3  0  0  0  0  0  0
  185.6490  178.5770  147.2020 C   0  0  0  0  0  1  0  0  0  0  0  0
  189.4760  178.0240  145.2570 C   0  0  0  0  0  3  0  0  0  0  0  0
  189.6220  177.8430  143.9160 C   0  0  0  0  0  0  0  0  0  0  0  0
  185.8360  177.5040  146.1280 C   0  0  1  0  0  3  0  0  0  0  0  0
  188.5170  178.1310  142.8760 C   0  0  1  0  0  3  0  0  0  0  0  0
  190.9840  177.4220  143.4250 C   0  0  1  0  0  3  0  0  0  0  0  0
  191.7550  178.5360  143.0840 O   0  0  0  0  0  1  0  0  0  0  0  0
  191.7040  176.5690  144.4610 C   0  0  0  0  0  2  0  0  0  0  0  0
  191.6560  175.1340  144.0690 C   0  0  0  0  0  0  0  0  0  0  0  0
  192.5510  174.2310  144.6270 O   0  0  0  0  0  1  0  0  0  0  0  0
  190.7820  174.7320  143.2590 O   0  0  0  0  0  0  0  0  0  0  0  0
  191.0090  175.6140  136.4660 C   0  0  0  0  0  0  0  0  0  0  0  0
  190.2870  175.1030  135.5670 O   0  0  0  0  0  0  0  0  0  0  0  0
  194.6660  176.3900  135.4190 C   0  0  0  0  0  0  0  0  0  0  0  0
  192.4700  175.3590  136.4150 C   0  0  0  0  0  0  0  0  0  0  0  0
  192.9620  174.2680  137.0020 C   0  0  0  0  0  3  0  0  0  0  0  0
  195.1210  177.5060  134.6640 N   0  0  0  0  0  1  0  0  0  0  0  0
  194.3350  173.7720  137.0850 C   0  0  0  0  0  3  0  0  0  0  0  0
  193.2650  176.2950  135.6820 N   0  0  0  0  0  0  0  0  0  0  0  0
  195.4710  174.2750  136.5980 C   0  0  0  0  0  0  0  0  0  0  0  0
  195.5840  175.5150  135.8240 C   0  0  0  0  0  2  0  0  0  0  0  0
  196.6800  173.6010  136.8200 O   0  0  0  0  0  0  0  0  0  0  0  0
  197.9390  175.5130  138.4170 O   0  0  0  0  0  1  0  0  0  0  0  0
  198.1740  174.3810  137.1830 P   0  0  0  0  0  0  0  0  0  0  0  0
  199.1800  173.3490  137.6350 O   0  0  0  0  0  1  0  0  0  0  0  0
  198.7570  175.1650  135.8030 O   0  0  0  0  0  0  0  0  0  0  0  0
  1  6  1  0  0  0  0
  2  5  1  0  0  0  0
  3  9  1  0  0  0  0
  5  4  1  6  0  0  0
  5 19  1  0  0  0  0
  6  9  1  0  0  0  0
  6  2  2  0  0  0  0
  7  8  1  0  0  0  0
  7  1  2  0  0  0  0
  8  3  2  0  0  0  0
  9  4  2  0  0  0  0
 10 18  1  0  0  0  0
 13 11  1  1  0  0  0
 13 18  1  0  0  0  0
 14 12  1  6  0  0  0
 14 10  1  0  0  0  0
 14 13  1  0  0  0  0
 16 11  1  0  0  0  0
 17 16  2  0  0  0  0
 18 15  1  1  0  0  0
 19 12  1  1  0  0  0
 19 17  1  0  0  0  0
 20 21  1  1  0  0  0
 20 17  1  0  0  0  0
 20 22  1  0  0  0  0
 23 22  1  0  0  0  0
 23 24  1  0  0  0  0
 25 23  2  0  0  0  0
 26  8  1  0  0  0  0
 27 26  2  0  0  0  0
 28 33  2  0  0  0  0
 28 35  1  0  0  0  0
 29 26  1  0  0  0  0
 29 30  2  0  0  0  0
 30 32  1  0  0  0  0
 31 28  1  0  0  0  0
 33 29  1  0  0  0  0
 34 36  1  0  0  0  0
 34 32  2  0  0  0  0
 35 34  1  0  0  0  0
 36 38  1  0  0  0  0
 38 39  1  0  0  0  0
 38 37  1  0  0  0  0
 40 38  2  0  0  0  0
M  END
>  <MODEL>
3

>  <REMARK>
 VINA RESULT:      -7.9      1.154      1.570
  Name = 
  8 active torsions:
  status: ('A' for Active; 'I' for Inactive)
    1  A    between atoms: C_3  and  C_12
    2  A    between atoms: C_9  and  C_39
    3  A    between atoms: C_10  and  C_29
    4  A    between atoms: C_10  and  C_39
    5  A    between atoms: C_12  and  C_34
    6  A    between atoms: P_18  and  O_37
    7  A    between atoms: C_23  and  C_31
    8  A    between atoms: C_32  and  O_37
                            x       y       z     vdW  Elec       q    Type
                         _______ _______ _______ _____ _____    ______ ____

>  <TORSDO>
F 8

$$$$
=
 OpenBabel11062417583D

 40 44  0  0  1  0  0  0  0  0999 V2000
  183.3600  178.2040  142.0410 C   0  0  0  0  0  3  0  0  0  0  0  0
  182.0060  179.3050  140.3090 N   0  0  0  0  0  0  0  0  0  0  0  0
  185.5340  179.0860  140.4980 N   0  0  0  0  0  0  0  0  0  0  0  0
  183.7980  180.0370  139.0260 C   0  0  0  0  0  3  0  0  0  0  0  0
  182.4060  179.9750  139.1910 C   0  0  0  0  0  0  0  0  0  0  0  0
  183.1540  178.9170  140.8760 C   0  0  0  0  0  0  0  0  0  0  0  0
  184.6540  177.9520  142.4000 N   0  0  0  0  0  2  0  0  0  0  0  0
  185.7310  178.3830  141.6590 C   0  0  0  0  0  0  0  0  0  0  0  0
  184.2650  179.3480  140.1160 C   0  0  0  0  0  0  0  0  0  0  0  0
  180.7980  184.2710  137.0980 C   0  0  0  0  0  2  0  0  0  0  0  0
  179.5390  181.4920  135.9250 C   0  0  0  0  0  2  0  0  0  0  0  0
  181.9460  182.0500  137.9130 C   0  0  0  0  0  2  0  0  0  0  0  0
  180.6290  182.4480  135.9640 N   0  0  2  0  0  0  0  0  0  0  0  0
  180.7570  182.7840  137.3610 C   0  0  2  0  0  3  0  0  0  0  0  0
  178.9310  184.2230  135.4300 C   0  0  0  0  0  1  0  0  0  0  0  0
  180.1520  180.1240  136.0950 C   0  0  0  0  0  3  0  0  0  0  0  0
  181.0250  179.7450  137.0680 C   0  0  0  0  0  0  0  0  0  0  0  0
  180.3970  183.8730  135.6840 C   0  0  1  0  0  3  0  0  0  0  0  0
  181.4430  180.6400  138.2560 C   0  0  1  0  0  3  0  0  0  0  0  0
  181.5360  178.3280  137.0150 C   0  0  1  0  0  3  0  0  0  0  0  0
  180.5200  177.4230  137.3320 O   0  0  0  0  0  1  0  0  0  0  0  0
  182.1340  178.0070  135.6530 C   0  0  0  0  0  2  0  0  0  0  0  0
  183.1550  176.9300  135.7800 C   0  0  0  0  0  0  0  0  0  0  0  0
  184.2490  177.1060  136.6170 O   0  0  0  0  0  1  0  0  0  0  0  0
  183.0080  175.8470  135.1580 O   0  0  0  0  0  0  0  0  0  0  0  0
  187.1000  178.0480  142.1170 C   0  0  0  0  0  0  0  0  0  0  0  0
  188.0030  177.9270  141.2450 O   0  0  0  0  0  0  0  0  0  0  0  0
  186.5110  178.2340  145.9500 C   0  0  0  0  0  0  0  0  0  0  0  0
  187.4750  177.8560  143.5400 C   0  0  0  0  0  0  0  0  0  0  0  0
  188.6780  177.3660  143.8370 C   0  0  0  0  0  3  0  0  0  0  0  0
  185.3440  178.7000  146.6140 N   0  0  0  0  0  1  0  0  0  0  0  0
  189.3010  177.1000  145.1330 C   0  0  0  0  0  3  0  0  0  0  0  0
  186.5170  178.2640  144.5220 N   0  0  0  0  0  0  0  0  0  0  0  0
  188.8360  177.2720  146.3710 C   0  0  0  0  0  0  0  0  0  0  0  0
  187.5130  177.8040  146.7130 C   0  0  0  0  0  2  0  0  0  0  0  0
  189.6410  176.9310  147.4680 O   0  0  0  0  0  0  0  0  0  0  0  0
  192.1350  177.3760  148.6400 O   0  0  0  0  0  1  0  0  0  0  0  0
  191.3310  176.6040  147.3680 P   0  0  0  0  0  0  0  0  0  0  0  0
  191.5580  175.1140  147.4630 O   0  0  0  0  0  1  0  0  0  0  0  0
  191.9340  177.1700  145.8930 O   0  0  0  0  0  0  0  0  0  0  0  0
  1  7  1  0  0  0  0
  2  6  1  0  0  0  0
  3  8  2  0  0  0  0
  4  5  1  0  0  0  0
  4  9  2  0  0  0  0
  5  2  2  0  0  0  0
  6  1  2  0  0  0  0
  8 26  1  0  0  0  0
  8  7  1  0  0  0  0
  9  3  1  0  0  0  0
  9  6  1  0  0  0  0
 11 16  1  0  0  0  0
 12 19  1  0  0  0  0
 13 11  1  1  0  0  0
 13 14  1  0  0  0  0
 14 10  1  6  0  0  0
 14 12  1  0  0  0  0
 16 17  2  0  0  0  0
 17 19  1  0  0  0  0
 18 15  1  1  0  0  0
 18 13  1  0  0  0  0
 18 10  1  0  0  0  0
 19  5  1  6  0  0  0
 20 17  1  0  0  0  0
 20 21  1  6  0  0  0
 22 23  1  0  0  0  0
 22 20  1  0  0  0  0
 23 24  1  0  0  0  0
 25 23  2  0  0  0  0
 26 29  1  0  0  0  0
 27 26  2  0  0  0  0
 28 31  1  0  0  0  0
 28 35  1  0  0  0  0
 29 30  2  0  0  0  0
 29 33  1  0  0  0  0
 30 32  1  0  0  0  0
 32 34  2  0  0  0  0
 33 28  2  0  0  0  0
 34 35  1  0  0  0  0
 34 36  1  0  0  0  0
 38 39  1  0  0  0  0
 38 36  1  0  0  0  0
 38 37  1  0  0  0  0
 40 38  2  0  0  0  0
M  END
>  <MODEL>
4

>  <REMARK>
 VINA RESULT:      -7.9      6.438     10.590
  Name = 
  8 active torsions:
  status: ('A' for Active; 'I' for Inactive)
    1  A    between atoms: C_3  and  C_12
    2  A    between atoms: C_9  and  C_39
    3  A    between atoms: C_10  and  C_29
    4  A    between atoms: C_10  and  C_39
    5  A    between atoms: C_12  and  C_34
    6  A    between atoms: P_18  and  O_37
    7  A    between atoms: C_23  and  C_31
    8  A    between atoms: C_32  and  O_37
                            x       y       z     vdW  Elec       q    Type
                         _______ _______ _______ _____ _____    ______ ____

>  <TORSDO>
F 8

$$$$
=
 OpenBabel11062417583D

 40 44  0  0  1  0  0  0  0  0999 V2000
  188.9750  178.7970  137.8840 C   0  0  0  0  0  3  0  0  0  0  0  0
  188.5740  178.9250  140.3060 N   0  0  0  0  0  0  0  0  0  0  0  0
  189.9520  176.2310  138.4700 N   0  0  0  0  0  0  0  0  0  0  0  0
  189.3810  176.8040  140.8000 C   0  0  0  0  0  3  0  0  0  0  0  0
  188.8200  177.9990  141.2760 C   0  0  2  0  0  3  0  0  0  0  0  0
  188.9890  178.3280  139.1830 C   0  0  0  0  0  0  0  0  0  0  0  0
  189.4550  177.9640  136.9120 N   0  0  0  0  0  0  0  0  0  0  0  0
  189.9300  176.7000  137.1810 C   0  0  0  0  0  0  0  0  0  0  0  0
  189.4870  177.0330  139.4520 C   0  0  0  0  0  0  0  0  0  0  0  0
  185.2180  178.0110  144.8040 C   0  0  0  0  0  2  0  0  0  0  0  0
  188.2990  178.3680  145.8340 C   0  0  0  0  0  2  0  0  0  0  0  0
  187.0910  177.5910  143.0070 C   0  0  0  0  0  2  0  0  0  0  0  0
  187.2270  177.5000  145.3870 N   0  0  2  0  0  0  0  0  0  0  0  0
  186.6230  178.2160  144.2900 C   0  0  2  0  0  3  0  0  0  0  0  0
  185.8030  178.5350  147.1820 C   0  0  0  0  0  1  0  0  0  0  0  0
  189.5260  177.9910  145.0420 C   0  0  0  0  0  3  0  0  0  0  0  0
  189.6070  177.8640  143.6900 C   0  0  0  0  0  0  0  0  0  0  0  0
  185.9180  177.5050  146.0570 C   0  0  1  0  0  3  0  0  0  0  0  0
  188.4630  178.2160  142.7140 C   0  0  1  0  0  3  0  0  0  0  0  0
  190.9370  177.4370  143.1200 C   0  0  1  0  0  3  0  0  0  0  0  0
  191.6560  178.5430  142.6600 O   0  0  0  0  0  1  0  0  0  0  0  0
  191.7510  176.6570  144.1430 C   0  0  0  0  0  2  0  0  0  0  0  0
  191.5880  175.1940  143.9210 C   0  0  0  0  0  0  0  0  0  0  0  0
  192.4380  174.2970  144.5550 O   0  0  0  0  0  1  0  0  0  0  0  0
  190.6590  174.7680  143.1880 O   0  0  0  0  0  0  0  0  0  0  0  0
  190.4460  175.8720  136.0650 C   0  0  0  0  0  0  0  0  0  0  0  0
  189.7090  175.7150  135.0550 O   0  0  0  0  0  0  0  0  0  0  0  0
  194.3230  175.8390  135.8640 C   0  0  0  0  0  0  0  0  0  0  0  0
  191.7810  175.2240  136.0620 C   0  0  0  0  0  0  0  0  0  0  0  0
  191.8620  173.8970  136.1530 C   0  0  0  0  0  3  0  0  0  0  0  0
  195.1820  176.9640  135.7350 N   0  0  0  0  0  1  0  0  0  0  0  0
  193.0270  173.0150  136.1530 C   0  0  0  0  0  3  0  0  0  0  0  0
  192.9160  176.0820  135.9080 N   0  0  0  0  0  0  0  0  0  0  0  0
  194.3290  173.2960  136.0630 C   0  0  0  0  0  0  0  0  0  0  0  0
  194.8970  174.6410  135.9350 C   0  0  0  0  0  2  0  0  0  0  0  0
  195.2660  172.2540  136.0900 O   0  0  0  0  0  0  0  0  0  0  0  0
  197.3460  170.9850  137.4530 O   0  0  0  0  0  0  0  0  0  0  0  0
  195.7010  171.3750  137.5090 P   0  0  0  0  0  0  0  0  0  0  0  0
  195.4290  172.2260  138.7270 O   0  0  0  0  0  1  0  0  0  0  0  0
  194.7870  169.9560  137.6020 O   0  0  0  0  0  1  0  0  0  0  0  0
  1  6  1  0  0  0  0
  2  5  1  0  0  0  0
  3  9  1  0  0  0  0
  5  4  1  6  0  0  0
  5 19  1  0  0  0  0
  6  9  1  0  0  0  0
  6  2  2  0  0  0  0
  7  8  1  0  0  0  0
  7  1  2  0  0  0  0
  8  3  2  0  0  0  0
  9  4  2  0  0  0  0
 10 18  1  0  0  0  0
 13 11  1  1  0  0  0
 13 18  1  0  0  0  0
 14 12  1  6  0  0  0
 14 10  1  0  0  0  0
 14 13  1  0  0  0  0
 16 11  1  0  0  0  0
 17 16  2  0  0  0  0
 18 15  1  1  0  0  0
 19 12  1  1  0  0  0
 19 17  1  0  0  0  0
 20 21  1  1  0  0  0
 20 17  1  0  0  0  0
 20 22  1  0  0  0  0
 23 22  1  0  0  0  0
 23 24  1  0  0  0  0
 25 23  2  0  0  0  0
 26  8  1  0  0  0  0
 27 26  2  0  0  0  0
 28 33  2  0  0  0  0
 28 35  1  0  0  0  0
 29 26  1  0  0  0  0
 29 30  2  0  0  0  0
 31 28  1  0  0  0  0
 32 30  1  0  0  0  0
 33 29  1  0  0  0  0
 34 36  1  0  0  0  0
 34 32  2  0  0  0  0
 35 34  1  0  0  0  0
 36 38  1  0  0  0  0
 37 38  2  0  0  0  0
 38 40  1  0  0  0  0
 38 39  1  0  0  0  0
M  END
>  <MODEL>
5

>  <REMARK>
 VINA RESULT:      -7.8      1.353      1.946
  Name = 
  8 active torsions:
  status: ('A' for Active; 'I' for Inactive)
    1  A    between atoms: C_3  and  C_12
    2  A    between atoms: C_9  and  C_39
    3  A    between atoms: C_10  and  C_29
    4  A    between atoms: C_10  and  C_39
    5  A    between atoms: C_12  and  C_34
    6  A    between atoms: P_18  and  O_37
    7  A    between atoms: C_23  and  C_31
    8  A    between atoms: C_32  and  O_37
                            x       y       z     vdW  Elec       q    Type
                         _______ _______ _______ _____ _____    ______ ____

>  <TORSDO>
F 8

$$$$
=
 OpenBabel11062417583D

 40 44  0  0  1  0  0  0  0  0999 V2000
  189.0760  178.4890  137.5110 C   0  0  0  0  0  3  0  0  0  0  0  0
  190.6940  176.9210  136.5270 N   0  0  0  0  0  0  0  0  0  0  0  0
  189.3670  176.9010  139.8080 N   0  0  0  0  0  0  0  0  0  0  0  0
  190.9390  175.6010  138.4220 C   0  0  0  0  0  3  0  0  0  0  0  0
  191.3010  175.8360  137.0870 C   0  0  0  0  0  0  0  0  0  0  0  0
  189.9180  177.3930  137.5080 C   0  0  0  0  0  0  0  0  0  0  0  0
  188.4010  178.7570  138.6690 N   0  0  0  0  0  2  0  0  0  0  0  0
  188.5380  177.9940  139.8060 C   0  0  0  0  0  0  0  0  0  0  0  0
  190.0450  176.6090  138.6770 C   0  0  0  0  0  0  0  0  0  0  0  0
  196.0230  174.0760  136.9200 C   0  0  0  0  0  2  0  0  0  0  0  0
  193.9150  172.8660  134.7350 C   0  0  0  0  0  2  0  0  0  0  0  0
  193.4950  174.6970  137.2900 C   0  0  0  0  0  2  0  0  0  0  0  0
  194.4460  172.8710  136.0850 N   0  0  2  0  0  0  0  0  0  0  0  0
  194.6210  174.2690  136.3930 C   0  0  2  0  0  3  0  0  0  0  0  0
  196.7200  172.5480  135.0620 C   0  0  0  0  0  1  0  0  0  0  0  0
  192.4130  172.9250  134.8560 C   0  0  0  0  0  3  0  0  0  0  0  0
  191.6960  173.8110  135.6000 C   0  0  0  0  0  0  0  0  0  0  0  0
  195.8820  172.6780  136.3350 C   0  0  1  0  0  3  0  0  0  0  0  0
  192.3140  175.0070  136.3580 C   0  0  1  0  0  3  0  0  0  0  0  0
  190.1970  173.6530  135.5980 C   0  0  1  0  0  3  0  0  0  0  0  0
  189.6180  174.4340  134.5940 O   0  0  0  0  0  1  0  0  0  0  0  0
  189.7960  172.1930  135.4390 C   0  0  0  0  0  2  0  0  0  0  0  0
  188.3230  172.0450  135.5970 C   0  0  0  0  0  0  0  0  0  0  0  0
  187.7260  172.3110  136.8220 O   0  0  0  0  0  1  0  0  0  0  0  0
  187.6140  171.7130  134.6120 O   0  0  0  0  0  0  0  0  0  0  0  0
  187.7530  178.3500  141.0110 C   0  0  0  0  0  0  0  0  0  0  0  0
  186.6210  178.8800  140.8450 O   0  0  0  0  0  0  0  0  0  0  0  0
  190.3000  178.5350  143.9350 C   0  0  0  0  0  0  0  0  0  0  0  0
  188.2150  178.1140  142.4010 C   0  0  0  0  0  0  0  0  0  0  0  0
  187.4230  177.4580  143.2490 C   0  0  0  0  0  3  0  0  0  0  0  0
  191.5880  179.1370  143.9100 N   0  0  0  0  0  1  0  0  0  0  0  0
  187.6340  177.0770  144.6440 C   0  0  0  0  0  3  0  0  0  0  0  0
  189.5290  178.5730  142.7340 N   0  0  0  0  0  0  0  0  0  0  0  0
  188.6760  177.2830  145.4520 C   0  0  0  0  0  0  0  0  0  0  0  0
  189.9110  177.9800  145.0800 C   0  0  0  0  0  2  0  0  0  0  0  0
  188.6330  176.8150  146.7730 O   0  0  0  0  0  0  0  0  0  0  0  0
  187.0400  178.9370  147.6390 O   0  0  0  0  0  0  0  0  0  0  0  0
  188.1640  177.7730  148.1280 P   0  0  0  0  0  0  0  0  0  0  0  0
  187.5390  176.8830  149.1770 O   0  0  0  0  0  1  0  0  0  0  0  0
  189.5230  178.5390  148.7800 O   0  0  0  0  0  1  0  0  0  0  0  0
  1  7  1  0  0  0  0
  2  5  2  0  0  0  0
  2  6  1  0  0  0  0
  4  9  2  0  0  0  0
  5  4  1  0  0  0  0
  6  1  2  0  0  0  0
  6  9  1  0  0  0  0
  7  8  1  0  0  0  0
  8  3  2  0  0  0  0
  8 26  1  0  0  0  0
  9  3  1  0  0  0  0
 11 16  1  0  0  0  0
 13 11  1  6  0  0  0
 13 18  1  0  0  0  0
 13 14  1  0  0  0  0
 14 10  1  1  0  0  0
 14 12  1  0  0  0  0
 16 17  2  0  0  0  0
 17 19  1  0  0  0  0
 18 15  1  6  0  0  0
 18 10  1  0  0  0  0
 19  5  1  1  0  0  0
 19 12  1  0  0  0  0
 20 21  1  6  0  0  0
 20 17  1  0  0  0  0
 22 23  1  0  0  0  0
 22 20  1  0  0  0  0
 23 24  1  0  0  0  0
 25 23  2  0  0  0  0
 26 29  1  0  0  0  0
 27 26  2  0  0  0  0
 28 35  1  0  0  0  0
 29 33  1  0  0  0  0
 29 30  2  0  0  0  0
 30 32  1  0  0  0  0
 31 28  1  0  0  0  0
 32 34  2  0  0  0  0
 33 28  2  0  0  0  0
 34 36  1  0  0  0  0
 35 34  1  0  0  0  0
 36 38  1  0  0  0  0
 37 38  2  0  0  0  0
 38 40  1  0  0  0  0
 38 39  1  0  0  0  0
M  END
>  <MODEL>
6

>  <REMARK>
 VINA RESULT:      -7.7      4.077     10.165
  Name = 
  8 active torsions:
  status: ('A' for Active; 'I' for Inactive)
    1  A    between atoms: C_3  and  C_12
    2  A    between atoms: C_9  and  C_39
    3  A    between atoms: C_10  and  C_29
    4  A    between atoms: C_10  and  C_39
    5  A    between atoms: C_12  and  C_34
    6  A    between atoms: P_18  and  O_37
    7  A    between atoms: C_23  and  C_31
    8  A    between atoms: C_32  and  O_37
                            x       y       z     vdW  Elec       q    Type
                         _______ _______ _______ _____ _____    ______ ____

>  <TORSDO>
F 8

$$$$
=
 OpenBabel11062417583D

 40 44  0  0  1  0  0  0  0  0999 V2000
  188.3690  178.7350  139.6600 C   0  0  0  0  0  3  0  0  0  0  0  0
  190.0200  177.8300  138.0790 N   0  0  0  0  0  0  0  0  0  0  0  0
  189.3190  176.7160  141.3650 N   0  0  0  0  0  0  0  0  0  0  0  0
  190.8110  176.1560  139.4820 C   0  0  0  0  0  3  0  0  0  0  0  0
  190.8860  176.7880  138.2310 C   0  0  0  0  0  0  0  0  0  0  0  0
  189.3640  177.8720  139.2440 C   0  0  0  0  0  0  0  0  0  0  0  0
  187.8760  178.5590  140.9230 N   0  0  0  0  0  2  0  0  0  0  0  0
  188.3350  177.5790  141.7740 C   0  0  0  0  0  0  0  0  0  0  0  0
  189.8240  176.8620  140.1200 C   0  0  0  0  0  0  0  0  0  0  0  0
  195.3560  174.7140  137.1620 C   0  0  0  0  0  2  0  0  0  0  0  0
  193.3970  175.3930  134.6340 C   0  0  0  0  0  2  0  0  0  0  0  0
  192.8920  175.4050  137.7650 C   0  0  0  0  0  2  0  0  0  0  0  0
  193.7600  174.5140  135.7300 N   0  0  2  0  0  0  0  0  0  0  0  0
  194.0590  175.4100  136.8200 C   0  0  2  0  0  3  0  0  0  0  0  0
  196.0860  174.4860  134.7770 C   0  0  0  0  0  1  0  0  0  0  0  0
  191.9080  175.6160  134.7280 C   0  0  0  0  0  3  0  0  0  0  0  0
  191.2170  175.9970  135.8370 C   0  0  0  0  0  0  0  0  0  0  0  0
  195.1230  173.9770  135.8500 C   0  0  1  0  0  3  0  0  0  0  0  0
  191.8740  176.3940  137.1760 C   0  0  1  0  0  3  0  0  0  0  0  0
  189.7200  176.1210  135.7010 C   0  0  1  0  0  3  0  0  0  0  0  0
  189.3870  177.0300  134.6940 O   0  0  0  0  0  1  0  0  0  0  0  0
  189.0760  174.7680  135.4360 C   0  0  0  0  0  2  0  0  0  0  0  0
  188.7280  174.1030  136.7220 C   0  0  0  0  0  0  0  0  0  0  0  0
  187.4110  174.0870  137.1610 O   0  0  0  0  0  0  0  0  0  0  0  0
  189.6220  173.5250  137.3930 O   0  0  0  0  0  1  0  0  0  0  0  0
  187.7300  177.4530  143.1200 C   0  0  0  0  0  0  0  0  0  0  0  0
  188.4110  176.9010  144.0260 O   0  0  0  0  0  0  0  0  0  0  0  0
  184.9390  178.5960  145.5660 C   0  0  0  0  0  0  0  0  0  0  0  0
  186.3740  177.9450  143.4690 C   0  0  0  0  0  0  0  0  0  0  0  0
  185.4790  178.1340  142.4990 C   0  0  0  0  0  3  0  0  0  0  0  0
  185.0340  178.7050  146.9800 N   0  0  0  0  0  1  0  0  0  0  0  0
  184.0900  178.5840  142.5630 C   0  0  0  0  0  3  0  0  0  0  0  0
  186.0930  178.1410  144.8580 N   0  0  0  0  0  0  0  0  0  0  0  0
  183.3370  178.9290  143.6090 C   0  0  0  0  0  0  0  0  0  0  0  0
  183.7780  178.9270  145.0070 C   0  0  0  0  0  2  0  0  0  0  0  0
  182.0110  179.3360  143.4050 O   0  0  0  0  0  0  0  0  0  0  0  0
  179.7500  177.8570  142.7000 O   0  0  0  0  0  1  0  0  0  0  0  0
  181.0200  178.7990  142.0990 P   0  0  0  0  0  0  0  0  0  0  0  0
  180.4550  179.9970  141.3740 O   0  0  0  0  0  1  0  0  0  0  0  0
  181.9460  177.8780  141.0240 O   0  0  0  0  0  0  0  0  0  0  0  0
  1  7  1  0  0  0  0
  2  5  2  0  0  0  0
  2  6  1  0  0  0  0
  3  8  2  0  0  0  0
  4  9  2  0  0  0  0
  5  4  1  0  0  0  0
  6  1  2  0  0  0  0
  6  9  1  0  0  0  0
  7  8  1  0  0  0  0
  8 26  1  0  0  0  0
  9  3  1  0  0  0  0
 11 16  1  0  0  0  0
 13 11  1  6  0  0  0
 13 18  1  0  0  0  0
 13 14  1  0  0  0  0
 14 10  1  1  0  0  0
 14 12  1  0  0  0  0
 16 17  2  0  0  0  0
 17 19  1  0  0  0  0
 18 15  1  6  0  0  0
 18 10  1  0  0  0  0
 19 12  1  0  0  0  0
 19  5  1  1  0  0  0
 20 21  1  6  0  0  0
 20 17  1  0  0  0  0
 22 20  1  0  0  0  0
 22 23  1  0  0  0  0
 23 24  2  0  0  0  0
 23 25  1  0  0  0  0
 26 29  1  0  0  0  0
 26 27  2  0  0  0  0
 28 31  1  0  0  0  0
 29 33  1  0  0  0  0
 30 32  1  0  0  0  0
 30 29  2  0  0  0  0
 32 34  2  0  0  0  0
 33 28  2  0  0  0  0
 34 35  1  0  0  0  0
 35 28  1  0  0  0  0
 36 34  1  0  0  0  0
 38 37  1  0  0  0  0
 38 36  1  0  0  0  0
 39 38  1  0  0  0  0
 40 38  2  0  0  0  0
M  END
>  <MODEL>
7

>  <REMARK>
 VINA RESULT:      -7.6      4.612     11.059
  Name = 
  8 active torsions:
  status: ('A' for Active; 'I' for Inactive)
    1  A    between atoms: C_3  and  C_12
    2  A    between atoms: C_9  and  C_39
    3  A    between atoms: C_10  and  C_29
    4  A    between atoms: C_10  and  C_39
    5  A    between atoms: C_12  and  C_34
    6  A    between atoms: P_18  and  O_37
    7  A    between atoms: C_23  and  C_31
    8  A    between atoms: C_32  and  O_37
                            x       y       z     vdW  Elec       q    Type
                         _______ _______ _______ _____ _____    ______ ____

>  <TORSDO>
F 8

$$$$
=
 OpenBabel11062417583D

 40 44  0  0  1  0  0  0  0  0999 V2000
  187.8240  178.6340  139.0730 C   0  0  0  0  0  3  0  0  0  0  0  0
  189.7960  177.6850  137.9550 N   0  0  0  0  0  0  0  0  0  0  0  0
  188.7030  177.1290  141.2750 N   0  0  0  0  0  0  0  0  0  0  0  0
  190.5300  176.4350  139.7700 C   0  0  0  0  0  3  0  0  0  0  0  0
  190.7350  176.8220  138.4360 C   0  0  0  0  0  0  0  0  0  0  0  0
  188.9620  177.8550  138.9860 C   0  0  0  0  0  0  0  0  0  0  0  0
  187.1570  178.6350  140.2660 N   0  0  0  0  0  2  0  0  0  0  0  0
  187.5780  177.9090  141.3570 C   0  0  0  0  0  0  0  0  0  0  0  0
  189.3820  177.1050  140.1070 C   0  0  0  0  0  0  0  0  0  0  0  0
  195.2120  174.5010  138.3900 C   0  0  0  0  0  2  0  0  0  0  0  0
  193.9280  175.3000  135.4910 C   0  0  0  0  0  2  0  0  0  0  0  0
  192.7160  175.3290  138.4220 C   0  0  0  0  0  2  0  0  0  0  0  0
  193.9810  174.3970  136.6260 N   0  0  2  0  0  0  0  0  0  0  0  0
  194.0680  175.2710  137.7710 C   0  0  2  0  0  3  0  0  0  0  0  0
  196.4590  174.2410  136.2330 C   0  0  0  0  0  1  0  0  0  0  0  0
  192.4730  175.6070  135.2440 C   0  0  0  0  0  3  0  0  0  0  0  0
  191.5660  176.0230  136.1700 C   0  0  0  0  0  0  0  0  0  0  0  0
  195.2480  173.7830  137.0480 C   0  0  1  0  0  3  0  0  0  0  0  0
  191.9180  176.3770  137.6310 C   0  0  1  0  0  3  0  0  0  0  0  0
  190.1500  176.2320  135.6960 C   0  0  1  0  0  3  0  0  0  0  0  0
  190.1180  177.0910  134.5940 O   0  0  0  0  0  1  0  0  0  0  0  0
  189.4770  174.9080  135.3630 C   0  0  0  0  0  2  0  0  0  0  0  0
  188.9410  174.2780  136.6010 C   0  0  0  0  0  0  0  0  0  0  0  0
  187.6760  174.6180  137.0610 O   0  0  0  0  0  0  0  0  0  0  0  0
  189.6190  173.4120  137.2110 O   0  0  0  0  0  1  0  0  0  0  0  0
  186.7810  177.9580  142.6060 C   0  0  0  0  0  0  0  0  0  0  0  0
  185.5460  178.1950  142.5110 O   0  0  0  0  0  0  0  0  0  0  0  0
  186.8100  178.2360  146.4780 C   0  0  0  0  0  0  0  0  0  0  0  0
  187.3470  177.7370  143.9600 C   0  0  0  0  0  0  0  0  0  0  0  0
  188.5230  177.1230  144.0820 C   0  0  0  0  0  3  0  0  0  0  0  0
  185.8140  178.8300  147.3000 N   0  0  0  0  0  1  0  0  0  0  0  0
  189.3060  176.8000  145.2740 C   0  0  0  0  0  3  0  0  0  0  0  0
  186.6000  178.2540  145.0660 N   0  0  0  0  0  0  0  0  0  0  0  0
  189.0570  177.0310  146.5650 C   0  0  0  0  0  0  0  0  0  0  0  0
  187.8660  177.7050  147.0900 C   0  0  0  0  0  2  0  0  0  0  0  0
  189.9800  176.6130  147.5340 O   0  0  0  0  0  0  0  0  0  0  0  0
  192.1140  174.8880  147.0220 O   0  0  0  0  0  1  0  0  0  0  0  0
  191.6810  176.5040  147.2730 P   0  0  0  0  0  0  0  0  0  0  0  0
  192.0530  177.3170  146.0550 O   0  0  0  0  0  0  0  0  0  0  0  0
  192.5040  177.1060  148.6220 O   0  0  0  0  0  1  0  0  0  0  0  0
  1  7  1  0  0  0  0
  2  5  2  0  0  0  0
  2  6  1  0  0  0  0
  3  8  2  0  0  0  0
  4  9  2  0  0  0  0
  5  4  1  0  0  0  0
  6  1  2  0  0  0  0
  6  9  1  0  0  0  0
  7  8  1  0  0  0  0
  8 26  1  0  0  0  0
  9  3  1  0  0  0  0
 13 11  1  6  0  0  0
 13 18  1  0  0  0  0
 13 14  1  0  0  0  0
 14 10  1  1  0  0  0
 14 12  1  0  0  0  0
 16 11  1  0  0  0  0
 16 17  2  0  0  0  0
 17 19  1  0  0  0  0
 18 15  1  6  0  0  0
 18 10  1  0  0  0  0
 19 12  1  0  0  0  0
 19  5  1  1  0  0  0
 20 21  1  6  0  0  0
 20 17  1  0  0  0  0
 22 20  1  0  0  0  0
 22 23  1  0  0  0  0
 23 24  2  0  0  0  0
 23 25  1  0  0  0  0
 26 29  1  0  0  0  0
 27 26  2  0  0  0  0
 28 35  1  0  0  0  0
 28 31  1  0  0  0  0
 29 30  2  0  0  0  0
 29 33  1  0  0  0  0
 30 32  1  0  0  0  0
 32 34  2  0  0  0  0
 33 28  2  0  0  0  0
 34 35  1  0  0  0  0
 34 36  1  0  0  0  0
 37 38  1  0  0  0  0
 38 36  1  0  0  0  0
 38 40  1  0  0  0  0
 39 38  2  0  0  0  0
M  END
>  <MODEL>
8

>  <REMARK>
 VINA RESULT:      -7.6      3.511      9.587
  Name = 
  8 active torsions:
  status: ('A' for Active; 'I' for Inactive)
    1  A    between atoms: C_3  and  C_12
    2  A    between atoms: C_9  and  C_39
    3  A    between atoms: C_10  and  C_29
    4  A    between atoms: C_10  and  C_39
    5  A    between atoms: C_12  and  C_34
    6  A    between atoms: P_18  and  O_37
    7  A    between atoms: C_23  and  C_31
    8  A    between atoms: C_32  and  O_37
                            x       y       z     vdW  Elec       q    Type
                         _______ _______ _______ _____ _____    ______ ____

>  <TORSDO>
F 8

$$$$
=
 OpenBabel11062417583D

 40 44  0  0  1  0  0  0  0  0999 V2000
  185.8920  179.3420  141.3620 C   0  0  0  0  0  3  0  0  0  0  0  0
  184.2150  179.0930  139.5820 N   0  0  0  0  0  0  0  0  0  0  0  0
  183.8910  178.2560  143.0050 N   0  0  0  0  0  0  0  0  0  0  0  0
  182.5540  178.1950  140.9340 C   0  0  0  0  0  3  0  0  0  0  0  0
  182.9410  178.6100  139.6510 C   0  0  0  0  0  0  0  0  0  0  0  0
  184.6590  179.0010  140.8400 C   0  0  0  0  0  0  0  0  0  0  0  0
  186.0860  179.1290  142.6980 N   0  0  0  0  0  2  0  0  0  0  0  0
  185.1190  178.5910  143.5160 C   0  0  0  0  0  0  0  0  0  0  0  0
  183.6680  178.4580  141.6880 C   0  0  0  0  0  0  0  0  0  0  0  0
  180.3240  175.5410  136.6250 C   0  0  0  0  0  2  0  0  0  0  0  0
  179.9370  178.7550  136.1660 C   0  0  0  0  0  2  0  0  0  0  0  0
  181.3690  177.1030  138.4640 C   0  0  0  0  0  2  0  0  0  0  0  0
  179.6140  177.5530  136.9130 N   0  0  2  0  0  0  0  0  0  0  0  0
  180.8790  176.8760  137.0630 C   0  0  2  0  0  3  0  0  0  0  0  0
  179.0160  176.4930  134.7130 C   0  0  0  0  0  1  0  0  0  0  0  0
  180.2750  179.8200  137.1780 C   0  0  0  0  0  3  0  0  0  0  0  0
  181.1520  179.7040  138.2130 C   0  0  0  0  0  0  0  0  0  0  0  0
  179.0990  176.3550  136.2340 C   0  0  1  0  0  3  0  0  0  0  0  0
  182.0580  178.4760  138.4480 C   0  0  1  0  0  3  0  0  0  0  0  0
  181.3000  180.8960  139.1230 C   0  0  1  0  0  3  0  0  0  0  0  0
  181.8540  181.9790  138.4350 O   0  0  0  0  0  1  0  0  0  0  0  0
  179.9670  181.2840  139.7460 C   0  0  0  0  0  2  0  0  0  0  0  0
  179.6980  180.4470  140.9480 C   0  0  0  0  0  0  0  0  0  0  0  0
  179.1360  179.1850  140.8040 O   0  0  0  0  0  0  0  0  0  0  0  0
  180.0130  180.8670  142.0910 O   0  0  0  0  0  1  0  0  0  0  0  0
  185.4140  178.4110  144.9570 C   0  0  0  0  0  0  0  0  0  0  0  0
  184.4730  178.5770  145.7790 O   0  0  0  0  0  0  0  0  0  0  0  0
  188.0630  177.9490  147.7580 C   0  0  0  0  0  0  0  0  0  0  0  0
  186.7480  178.0390  145.4900 C   0  0  0  0  0  0  0  0  0  0  0  0
  187.6950  177.6270  144.6480 C   0  0  0  0  0  3  0  0  0  0  0  0
  187.8890  178.1940  149.1480 N   0  0  0  0  0  1  0  0  0  0  0  0
  189.0790  177.2250  144.8980 C   0  0  0  0  0  3  0  0  0  0  0  0
  186.9500  178.1990  146.8980 N   0  0  0  0  0  0  0  0  0  0  0  0
  189.7710  177.1610  146.0360 C   0  0  0  0  0  0  0  0  0  0  0  0
  189.2530  177.5040  147.3640 C   0  0  0  0  0  2  0  0  0  0  0  0
  191.1070  176.7330  146.0120 O   0  0  0  0  0  0  0  0  0  0  0  0
  190.8630  174.8490  148.0570 O   0  0  0  0  0  1  0  0  0  0  0  0
  191.9060  175.9680  147.3350 P   0  0  0  0  0  0  0  0  0  0  0  0
  193.1360  175.2520  146.8300 O   0  0  0  0  0  0  0  0  0  0  0  0
  192.3610  177.1310  148.4740 O   0  0  0  0  0  1  0  0  0  0  0  0
  1  7  1  0  0  0  0
  2  5  2  0  0  0  0
  2  6  1  0  0  0  0
  3  8  2  0  0  0  0
  4  9  2  0  0  0  0
  5  4  1  0  0  0  0
  6  1  2  0  0  0  0
  6  9  1  0  0  0  0
  7  8  1  0  0  0  0
  8 26  1  0  0  0  0
  9  3  1  0  0  0  0
 11 16  1  0  0  0  0
 13 11  1  6  0  0  0
 13 14  1  0  0  0  0
 14 10  1  1  0  0  0
 14 12  1  0  0  0  0
 16 17  2  0  0  0  0
 17 19  1  0  0  0  0
 17 20  1  0  0  0  0
 18 15  1  6  0  0  0
 18 10  1  0  0  0  0
 18 13  1  0  0  0  0
 19 12  1  0  0  0  0
 19  5  1  1  0  0  0
 20 21  1  6  0  0  0
 20 22  1  0  0  0  0
 22 23  1  0  0  0  0
 23 25  1  0  0  0  0
 24 23  2  0  0  0  0
 26 29  1  0  0  0  0
 26 27  2  0  0  0  0
 28 31  1  0  0  0  0
 29 33  1  0  0  0  0
 30 32  1  0  0  0  0
 30 29  2  0  0  0  0
 32 34  2  0  0  0  0
 33 28  2  0  0  0  0
 34 35  1  0  0  0  0
 35 28  1  0  0  0  0
 36 34  1  0  0  0  0
 36 38  1  0  0  0  0
 38 37  1  0  0  0  0
 38 40  1  0  0  0  0
 39 38  2  0  0  0  0
M  END
>  <MODEL>
9

>  <REMARK>
 VINA RESULT:      -7.6      6.799     10.724
  Name = 
  8 active torsions:
  status: ('A' for Active; 'I' for Inactive)
    1  A    between atoms: C_3  and  C_12
    2  A    between atoms: C_9  and  C_39
    3  A    between atoms: C_10  and  C_29
    4  A    between atoms: C_10  and  C_39
    5  A    between atoms: C_12  and  C_34
    6  A    between atoms: P_18  and  O_37
    7  A    between atoms: C_23  and  C_31
    8  A    between atoms: C_32  and  O_37
                            x       y       z     vdW  Elec       q    Type
                         _______ _______ _______ _____ _____    ______ ____

>  <TORSDO>
F 8

$$$$
