=
 OpenBabel11062412573D

 50 54  0  0  1  0  0  0  0  0999 V2000
  189.0360  178.6280  139.1490 C   0  0  1  0  0  3  0  0  0  0  0  0
  188.3110  178.8110  137.9670 O   0  0  0  0  0  1  0  0  0  0  0  0
  188.1020  178.3130  140.2700 C   0  0  0  0  0  0  0  0  0  0  0  0
  189.0390  176.6900  144.8320 C   0  0  0  0  0  2  0  0  0  0  0  0
  188.6640  176.5600  143.3590 C   0  0  0  0  0  2  0  0  0  0  0  0
  190.1440  178.5730  143.1210 O   0  0  0  0  0  0  0  0  0  0  0  0
  188.6080  178.0420  141.4420 C   0  0  0  0  0  0  0  0  0  0  0  0
  190.4350  177.1080  144.9660 N   0  0  0  0  0  0  0  0  0  0  0  0
  189.1210  177.7700  142.6070 C   0  0  0  0  0  0  0  0  0  0  0  0
  190.5290  178.4880  144.4920 C   0  0  0  0  0  2  0  0  0  0  0  0
  192.0360  175.7760  146.8660 C   0  0  0  0  0  1  0  0  0  0  0  0
  189.6060  176.6200  147.3910 O   0  0  0  0  0  0  0  0  0  0  0  0
  190.8550  177.1240  146.6740 S   0  0  2  0  0  0  0  0  0  0  0  0
  186.7230  178.0450  139.9970 N   0  0  0  0  0  2  0  0  0  0  0  0
  184.4410  178.3930  140.0040 C   0  0  1  0  0  3  0  0  0  0  0  0
  184.8450  178.6840  141.4100 N   0  0  0  0  0  0  0  0  0  0  0  0
  183.3990  179.4030  139.5740 C   0  0  0  0  0  1  0  0  0  0  0  0
  185.6550  179.0180  140.2000 C   0  0  1  0  0  3  0  0  0  0  0  0
  183.0540  178.9540  144.6660 C   0  0  0  0  0  3  0  0  0  0  0  0
  184.5970  178.7120  142.8120 C   0  0  0  0  0  0  0  0  0  0  0  0
  184.1060  178.7600  145.5660 C   0  0  0  0  0  3  0  0  0  0  0  0
  185.6470  178.5080  143.7130 C   0  0  0  0  0  3  0  0  0  0  0  0
  186.4200  178.3480  145.9630 F   0  0  0  0  0  0  0  0  0  0  0  0
  183.2990  178.9270  143.2890 C   0  0  0  0  0  3  0  0  0  0  0  0
  185.4020  178.5350  145.0900 C   0  0  0  0  0  0  0  0  0  0  0  0
  191.1710  177.7070  139.5910 O   0  0  0  0  0  0  0  0  0  0  0  0
  190.1170  177.5900  138.9800 C   0  0  0  0  0  0  0  0  0  0  0  0
  190.5340  175.2390  138.5300 N   0  0  0  0  0  2  0  0  0  0  0  0
  191.4620  175.5110  136.5730 N   0  0  0  0  0  2  0  0  0  0  0  0
  190.6670  176.7060  136.7400 C   0  0  2  0  0  3  0  0  0  0  0  0
  189.9360  176.4530  138.0120 C   0  0  2  0  0  3  0  0  0  0  0  0
  191.6900  175.0340  137.8310 O   0  0  0  0  0  0  0  0  0  0  0  0
  189.7020  176.8470  135.5750 C   0  0  0  0  0  2  0  0  0  0  0  0
  187.2130  176.5720  135.2830 C   0  0  0  0  0  0  0  0  0  0  0  0
  188.4990  175.9280  135.7610 C   0  0  1  0  0  3  0  0  0  0  0  0
  185.2300  173.6080  135.0020 O   0  0  0  0  0  0  0  0  0  0  0  0
  187.1510  177.9590  135.1910 O   0  0  0  0  0  1  0  0  0  0  0  0
  187.5620  173.7470  135.1920 N   0  0  0  0  0  0  0  0  0  0  0  0
  186.2590  174.3360  135.0580 C   0  0  0  0  0  0  0  0  0  0  0  0
  186.1310  175.8070  135.0020 C   0  0  0  0  0  0  0  0  0  0  0  0
  188.7330  174.5990  135.0470 C   0  0  0  0  0  2  0  0  0  0  0  0
  187.9000  172.2860  137.1180 C   0  0  0  0  0  1  0  0  0  0  0  0
  187.7420  172.3640  135.6090 C   0  0  0  0  0  2  0  0  0  0  0  0
  184.8570  176.3580  134.6260 N   0  0  0  0  0  2  0  0  0  0  0  0
  183.9590  177.1230  135.4810 C   0  0  0  0  0  2  0  0  0  0  0  0
  184.1590  176.7180  136.9340 C   0  0  0  0  0  2  0  0  0  0  0  0
  183.3510  175.3070  138.6500 F   0  0  0  0  0  0  0  0  0  0  0  0
  181.8670  176.6130  137.5740 F   0  0  0  0  0  0  0  0  0  0  0  0
  183.0110  175.8500  137.4270 C   0  0  0  0  0  0  0  0  0  0  0  0
  182.7710  174.8260  136.5290 F   0  0  0  0  0  0  0  0  0  0  0  0
  1  2  1  6  0  0  0
  1  3  1  0  0  0  0
  3  7  2  0  0  0  0
  4  8  1  0  0  0  0
  5  4  1  0  0  0  0
  6 10  1  0  0  0  0
  7  9  2  0  0  0  0
  8 13  1  0  0  0  0
  9  6  1  0  0  0  0
  9  5  1  0  0  0  0
 10  8  1  0  0  0  0
 13 11  1  6  0  0  0
 13 12  2  0  0  0  0
 14  3  1  0  0  0  0
 15 17  1  6  0  0  0
 15 18  1  0  0  0  0
 15 16  1  0  0  0  0
 16 20  1  0  0  0  0
 18 14  1  1  0  0  0
 18 16  1  0  0  0  0
 19 21  1  0  0  0  0
 20 24  1  0  0  0  0
 20 22  2  0  0  0  0
 22 25  1  0  0  0  0
 24 19  2  0  0  0  0
 25 21  2  0  0  0  0
 25 23  1  0  0  0  0
 27  1  1  0  0  0  0
 27 26  2  0  0  0  0
 29 30  1  0  0  0  0
 29 32  1  0  0  0  0
 30 33  1  6  0  0  0
 30 31  1  0  0  0  0
 31 28  1  0  0  0  0
 31 27  1  1  0  0  0
 32 28  1  0  0  0  0
 34 35  1  0  0  0  0
 35 33  1  6  0  0  0
 36 39  2  0  0  0  0
 37 34  1  0  0  0  0
 38 43  1  0  0  0  0
 39 38  1  0  0  0  0
 40 39  1  0  0  0  0
 40 34  2  0  0  0  0
 41 38  1  0  0  0  0
 41 35  1  0  0  0  0
 43 42  1  0  0  0  0
 44 40  1  0  0  0  0
 44 45  1  0  0  0  0
 45 46  1  0  0  0  0
 46 49  1  0  0  0  0
 49 48  1  0  0  0  0
 49 47  1  0  0  0  0
 50 49  1  0  0  0  0
M  END
>  <MODEL>
1

>  <REMARK>
 VINA RESULT:      -8.1      0.000      0.000
  Name = 
  14 active torsions:
  status: ('A' for Active; 'I' for Inactive)
    1  A    between atoms: C_6  and  C_47
    2  A    between atoms: C_8  and  N_34
    3  A    between atoms: C_8  and  C_46
    4  A    between atoms: N_13  and  C_19
    5  A    between atoms: C_14  and  C_22
    6  A    between atoms: C_14  and  C_50
    7  A    between atoms: N_16  and  C_17
    8  A    between atoms: N_16  and  C_22
    9  A    between atoms: C_29  and  C_47
   10  A    between atoms: S_32  and  N_42
   11  A    between atoms: N_33  and  C_40
   12  A    between atoms: N_34  and  C_39
   13  A    between atoms: C_35  and  C_46
   14  A    between atoms: C_36  and  C_50
                            x       y       z     vdW  Elec       q    Type
                         _______ _______ _______ _____ _____    ______ ____

>  <TORSDO>
F 14

$$$$
=
 OpenBabel11062412573D

 50 54  0  0  1  0  0  0  0  0999 V2000
  188.6380  178.5280  139.7300 C   0  0  1  0  0  3  0  0  0  0  0  0
  187.5400  178.3520  138.8820 O   0  0  0  0  0  1  0  0  0  0  0  0
  188.2170  178.3260  141.1480 C   0  0  0  0  0  0  0  0  0  0  0  0
  183.8590  179.1230  143.3180 C   0  0  0  0  0  2  0  0  0  0  0  0
  185.2870  179.4590  142.9000 C   0  0  0  0  0  2  0  0  0  0  0  0
  184.7200  178.0290  140.9180 O   0  0  0  0  0  0  0  0  0  0  0  0
  186.9530  178.4660  141.4460 C   0  0  0  0  0  0  0  0  0  0  0  0
  182.9840  179.0840  142.1450 N   0  0  0  0  0  0  0  0  0  0  0  0
  185.6930  178.6110  141.7360 C   0  0  0  0  0  0  0  0  0  0  0  0
  183.3650  177.9190  141.3490 C   0  0  0  0  0  2  0  0  0  0  0  0
  180.4850  178.1380  141.2470 C   0  0  0  0  0  1  0  0  0  0  0  0
  180.7350  180.2140  142.8340 O   0  0  0  0  0  0  0  0  0  0  0  0
  181.3320  178.8170  142.6860 S   0  0  2  0  0  0  0  0  0  0  0  0
  189.2020  178.2590  142.1840 N   0  0  0  0  0  2  0  0  0  0  0  0
  190.7030  177.1860  143.5690 C   0  0  1  0  0  3  0  0  0  0  0  0
  189.4980  177.3640  144.4290 N   0  0  0  0  0  0  0  0  0  0  0  0
  191.2980  175.8190  143.8350 C   0  0  0  0  0  1  0  0  0  0  0  0
  189.4690  177.0580  142.9670 C   0  0  1  0  0  3  0  0  0  0  0  0
  189.0050  177.6890  148.1080 C   0  0  0  0  0  3  0  0  0  0  0  0
  188.8690  177.5670  145.6900 C   0  0  0  0  0  0  0  0  0  0  0  0
  187.6370  177.9720  148.1700 C   0  0  0  0  0  3  0  0  0  0  0  0
  187.5030  177.8600  145.7530 C   0  0  0  0  0  3  0  0  0  0  0  0
  185.5610  178.3340  147.0540 F   0  0  0  0  0  0  0  0  0  0  0  0
  189.6210  177.4900  146.8690 C   0  0  0  0  0  3  0  0  0  0  0  0
  186.8860  178.0600  146.9920 C   0  0  0  0  0  0  0  0  0  0  0  0
  190.8900  177.8110  139.8480 O   0  0  0  0  0  0  0  0  0  0  0  0
  189.7920  177.6440  139.3320 C   0  0  0  0  0  0  0  0  0  0  0  0
  190.3420  175.3970  138.5900 N   0  0  0  0  0  2  0  0  0  0  0  0
  191.1010  175.9540  136.6200 N   0  0  0  0  0  2  0  0  0  0  0  0
  190.2380  177.0570  136.9740 C   0  0  2  0  0  3  0  0  0  0  0  0
  189.6220  176.6090  138.2530 C   0  0  2  0  0  3  0  0  0  0  0  0
  191.4540  175.3620  137.7970 O   0  0  0  0  0  0  0  0  0  0  0  0
  189.1810  177.2470  135.8980 C   0  0  0  0  0  2  0  0  0  0  0  0
  186.6850  176.9070  135.8050 C   0  0  0  0  0  0  0  0  0  0  0  0
  188.0290  176.2700  136.1000 C   0  0  1  0  0  3  0  0  0  0  0  0
  184.7720  173.9100  135.4120 O   0  0  0  0  0  0  0  0  0  0  0  0
  186.5740  178.2930  135.8570 O   0  0  0  0  0  1  0  0  0  0  0  0
  187.1060  174.1190  135.4040 N   0  0  0  0  0  0  0  0  0  0  0  0
  185.7800  174.6680  135.4460 C   0  0  0  0  0  0  0  0  0  0  0  0
  185.6040  176.1320  135.5480 C   0  0  0  0  0  0  0  0  0  0  0  0
  188.2330  175.0250  135.2400 C   0  0  0  0  0  2  0  0  0  0  0  0
  188.1680  172.5510  136.9430 C   0  0  0  0  0  1  0  0  0  0  0  0
  187.3640  172.7100  135.6650 C   0  0  0  0  0  2  0  0  0  0  0  0
  184.2850  176.6670  135.3440 N   0  0  0  0  0  2  0  0  0  0  0  0
  183.3390  177.0540  136.3810 C   0  0  0  0  0  2  0  0  0  0  0  0
  182.2890  175.9650  136.5560 C   0  0  0  0  0  2  0  0  0  0  0  0
  181.9700  176.2400  138.8820 F   0  0  0  0  0  0  0  0  0  0  0  0
  181.5690  174.2100  137.9960 F   0  0  0  0  0  0  0  0  0  0  0  0
  182.3830  175.3260  137.9330 C   0  0  0  0  0  0  0  0  0  0  0  0
  183.6900  174.9600  138.1980 F   0  0  0  0  0  0  0  0  0  0  0  0
  1  2  1  6  0  0  0
  1  3  1  0  0  0  0
  3  7  2  0  0  0  0
  3 14  1  0  0  0  0
  5  4  1  0  0  0  0
  6 10  1  0  0  0  0
  6  9  1  0  0  0  0
  7  9  2  0  0  0  0
  8 13  1  0  0  0  0
  8  4  1  0  0  0  0
  9  5  1  0  0  0  0
 10  8  1  0  0  0  0
 13 11  1  6  0  0  0
 13 12  2  0  0  0  0
 15 17  1  1  0  0  0
 15 16  1  0  0  0  0
 16 20  1  0  0  0  0
 18 14  1  6  0  0  0
 18 15  1  0  0  0  0
 18 16  1  0  0  0  0
 19 21  1  0  0  0  0
 20 22  2  0  0  0  0
 20 24  1  0  0  0  0
 22 25  1  0  0  0  0
 24 19  2  0  0  0  0
 25 23  1  0  0  0  0
 25 21  2  0  0  0  0
 27  1  1  0  0  0  0
 27 26  2  0  0  0  0
 29 30  1  0  0  0  0
 29 32  1  0  0  0  0
 30 33  1  6  0  0  0
 30 31  1  0  0  0  0
 31 28  1  0  0  0  0
 31 27  1  1  0  0  0
 32 28  1  0  0  0  0
 34 37  1  0  0  0  0
 34 35  1  0  0  0  0
 35 33  1  6  0  0  0
 36 39  2  0  0  0  0
 38 39  1  0  0  0  0
 38 43  1  0  0  0  0
 39 40  1  0  0  0  0
 40 34  2  0  0  0  0
 41 38  1  0  0  0  0
 41 35  1  0  0  0  0
 43 42  1  0  0  0  0
 44 40  1  0  0  0  0
 44 45  1  0  0  0  0
 45 46  1  0  0  0  0
 46 49  1  0  0  0  0
 49 48  1  0  0  0  0
 49 50  1  0  0  0  0
 49 47  1  0  0  0  0
M  END
>  <MODEL>
2

>  <REMARK>
 VINA RESULT:      -8.1      2.565      4.562
  Name = 
  14 active torsions:
  status: ('A' for Active; 'I' for Inactive)
    1  A    between atoms: C_6  and  C_47
    2  A    between atoms: C_8  and  N_34
    3  A    between atoms: C_8  and  C_46
    4  A    between atoms: N_13  and  C_19
    5  A    between atoms: C_14  and  C_22
    6  A    between atoms: C_14  and  C_50
    7  A    between atoms: N_16  and  C_17
    8  A    between atoms: N_16  and  C_22
    9  A    between atoms: C_29  and  C_47
   10  A    between atoms: S_32  and  N_42
   11  A    between atoms: N_33  and  C_40
   12  A    between atoms: N_34  and  C_39
   13  A    between atoms: C_35  and  C_46
   14  A    between atoms: C_36  and  C_50
                            x       y       z     vdW  Elec       q    Type
                         _______ _______ _______ _____ _____    ______ ____

>  <TORSDO>
F 14

$$$$
=
 OpenBabel11062412573D

 50 54  0  0  1  0  0  0  0  0999 V2000
  189.1800  178.2690  139.3730 C   0  0  1  0  0  3  0  0  0  0  0  0
  188.0300  178.4090  140.1550 O   0  0  0  0  0  1  0  0  0  0  0  0
  189.9760  177.1000  139.8530 C   0  0  0  0  0  0  0  0  0  0  0  0
  193.1950  174.2400  137.4470 C   0  0  0  0  0  2  0  0  0  0  0  0
  191.8350  174.6270  138.0180 C   0  0  0  0  0  2  0  0  0  0  0  0
  192.6540  176.9580  137.5780 O   0  0  0  0  0  0  0  0  0  0  0  0
  190.8830  176.5990  139.0590 C   0  0  0  0  0  0  0  0  0  0  0  0
  193.5590  175.1390  136.3500 N   0  0  0  0  0  0  0  0  0  0  0  0
  191.7830  176.1030  138.2590 C   0  0  0  0  0  0  0  0  0  0  0  0
  193.8210  176.4560  136.9290 C   0  0  0  0  0  2  0  0  0  0  0  0
  195.7230  173.4010  136.8400 C   0  0  0  0  0  1  0  0  0  0  0  0
  196.0190  175.7720  135.7530 O   0  0  0  0  0  0  0  0  0  0  0  0
  195.0710  174.5810  135.6450 S   0  0  2  0  0  0  0  0  0  0  0  0
  189.5640  176.3860  141.0230 N   0  0  0  0  0  2  0  0  0  0  0  0
  190.7350  177.6900  142.5230 C   0  0  1  0  0  3  0  0  0  0  0  0
  189.5760  177.1940  143.3200 N   0  0  0  0  0  0  0  0  0  0  0  0
  191.9730  177.6690  143.3940 C   0  0  0  0  0  1  0  0  0  0  0  0
  190.3020  176.4030  142.2800 C   0  0  1  0  0  3  0  0  0  0  0  0
  186.2880  177.5920  145.0250 C   0  0  0  0  0  3  0  0  0  0  0  0
  188.6010  177.3350  144.3480 C   0  0  0  0  0  0  0  0  0  0  0  0
  186.6830  177.6040  146.3670 C   0  0  0  0  0  3  0  0  0  0  0  0
  188.9930  177.3370  145.6900 C   0  0  0  0  0  3  0  0  0  0  0  0
  188.4160  177.4870  147.9990 F   0  0  0  0  0  0  0  0  0  0  0  0
  187.2460  177.4540  144.0170 C   0  0  0  0  0  3  0  0  0  0  0  0
  188.0350  177.4750  146.6990 C   0  0  0  0  0  0  0  0  0  0  0  0
  189.3900  178.9450  137.1150 O   0  0  0  0  0  0  0  0  0  0  0  0
  188.8450  178.1850  137.9050 C   0  0  0  0  0  0  0  0  0  0  0  0
  188.3670  175.9130  137.1900 N   0  0  0  0  0  2  0  0  0  0  0  0
  187.4220  176.4340  135.2920 N   0  0  0  0  0  2  0  0  0  0  0  0
  187.2690  177.6320  136.0850 C   0  0  2  0  0  3  0  0  0  0  0  0
  187.7950  177.2260  137.4180 C   0  0  2  0  0  3  0  0  0  0  0  0
  188.4720  175.7550  135.8370 O   0  0  0  0  0  0  0  0  0  0  0  0
  185.8000  178.0070  136.1710 C   0  0  0  0  0  2  0  0  0  0  0  0
  184.5110  177.9740  138.3360 C   0  0  0  0  0  0  0  0  0  0  0  0
  185.0850  177.1450  137.2050 C   0  0  1  0  0  3  0  0  0  0  0  0
  182.1980  175.5620  139.6150 O   0  0  0  0  0  0  0  0  0  0  0  0
  185.0420  179.2360  138.5800 O   0  0  0  0  0  1  0  0  0  0  0  0
  183.2840  175.5310  137.5390 N   0  0  0  0  0  0  0  0  0  0  0  0
  182.9570  176.1460  138.7930 C   0  0  0  0  0  0  0  0  0  0  0  0
  183.5320  177.4670  139.1250 C   0  0  0  0  0  0  0  0  0  0  0  0
  183.9910  176.3160  136.5370 C   0  0  0  0  0  2  0  0  0  0  0  0
  184.3110  173.3180  137.6330 C   0  0  0  0  0  1  0  0  0  0  0  0
  183.0610  174.1130  137.2970 C   0  0  0  0  0  2  0  0  0  0  0  0
  183.0030  178.1650  140.2650 N   0  0  0  0  0  2  0  0  0  0  0  0
  183.7620  178.9550  141.2240 C   0  0  0  0  0  2  0  0  0  0  0  0
  183.8140  178.2330  142.5630 C   0  0  0  0  0  2  0  0  0  0  0  0
  184.0540  180.1350  143.9460 F   0  0  0  0  0  0  0  0  0  0  0  0
  181.9810  179.5820  143.2660 F   0  0  0  0  0  0  0  0  0  0  0  0
  183.2060  179.0820  143.6700 C   0  0  0  0  0  0  0  0  0  0  0  0
  183.0410  178.3230  144.8140 F   0  0  0  0  0  0  0  0  0  0  0  0
  1  3  1  0  0  0  0
  1  2  1  1  0  0  0
  3 14  1  0  0  0  0
  4  5  1  0  0  0  0
  5  9  1  0  0  0  0
  6  9  1  0  0  0  0
  7  3  2  0  0  0  0
  8 10  1  0  0  0  0
  8  4  1  0  0  0  0
  9  7  2  0  0  0  0
 10  6  1  0  0  0  0
 13 12  2  0  0  0  0
 13  8  1  0  0  0  0
 13 11  1  1  0  0  0
 15 16  1  0  0  0  0
 15 17  1  1  0  0  0
 16 20  1  0  0  0  0
 18 14  1  6  0  0  0
 18 15  1  0  0  0  0
 18 16  1  0  0  0  0
 19 21  1  0  0  0  0
 20 22  2  0  0  0  0
 21 25  2  0  0  0  0
 22 25  1  0  0  0  0
 24 20  1  0  0  0  0
 24 19  2  0  0  0  0
 25 23  1  0  0  0  0
 26 27  2  0  0  0  0
 27  1  1  0  0  0  0
 28 31  1  0  0  0  0
 29 32  1  0  0  0  0
 29 30  1  0  0  0  0
 30 33  1  1  0  0  0
 30 31  1  0  0  0  0
 31 27  1  6  0  0  0
 32 28  1  0  0  0  0
 34 37  1  0  0  0  0
 34 40  2  0  0  0  0
 35 33  1  6  0  0  0
 35 34  1  0  0  0  0
 38 39  1  0  0  0  0
 39 40  1  0  0  0  0
 39 36  2  0  0  0  0
 40 44  1  0  0  0  0
 41 35  1  0  0  0  0
 41 38  1  0  0  0  0
 43 38  1  0  0  0  0
 43 42  1  0  0  0  0
 44 45  1  0  0  0  0
 45 46  1  0  0  0  0
 46 49  1  0  0  0  0
 48 49  1  0  0  0  0
 49 47  1  0  0  0  0
 49 50  1  0  0  0  0
M  END
>  <MODEL>
3

>  <REMARK>
 VINA RESULT:      -8.0      3.448      5.967
  Name = 
  14 active torsions:
  status: ('A' for Active; 'I' for Inactive)
    1  A    between atoms: C_6  and  C_47
    2  A    between atoms: C_8  and  N_34
    3  A    between atoms: C_8  and  C_46
    4  A    between atoms: N_13  and  C_19
    5  A    between atoms: C_14  and  C_22
    6  A    between atoms: C_14  and  C_50
    7  A    between atoms: N_16  and  C_17
    8  A    between atoms: N_16  and  C_22
    9  A    between atoms: C_29  and  C_47
   10  A    between atoms: S_32  and  N_42
   11  A    between atoms: N_33  and  C_40
   12  A    between atoms: N_34  and  C_39
   13  A    between atoms: C_35  and  C_46
   14  A    between atoms: C_36  and  C_50
                            x       y       z     vdW  Elec       q    Type
                         _______ _______ _______ _____ _____    ______ ____

>  <TORSDO>
F 14

$$$$
=
 OpenBabel11062412573D

 50 54  0  0  1  0  0  0  0  0999 V2000
  187.1710  178.7580  141.4630 C   0  0  1  0  0  3  0  0  0  0  0  0
  186.6060  178.6270  140.1900 O   0  0  0  0  0  1  0  0  0  0  0  0
  186.2750  178.1330  142.4800 C   0  0  0  0  0  0  0  0  0  0  0  0
  181.4930  178.9050  143.4090 C   0  0  0  0  0  2  0  0  0  0  0  0
  182.9950  179.0860  143.6050 C   0  0  0  0  0  2  0  0  0  0  0  0
  183.0620  178.6300  141.1380 O   0  0  0  0  0  0  0  0  0  0  0  0
  184.9970  178.3970  142.4260 C   0  0  0  0  0  0  0  0  0  0  0  0
  181.0760  179.4750  142.1270 N   0  0  0  0  0  0  0  0  0  0  0  0
  183.7250  178.6670  142.3680 C   0  0  0  0  0  0  0  0  0  0  0  0
  181.6370  178.6350  141.0700 C   0  0  0  0  0  2  0  0  0  0  0  0
  179.0360  177.7780  141.1770 C   0  0  0  0  0  1  0  0  0  0  0  0
  178.9350  180.3910  140.9520 O   0  0  0  0  0  0  0  0  0  0  0  0
  179.3260  179.3540  142.0010 S   0  0  2  0  0  0  0  0  0  0  0  0
  186.8350  177.4970  143.6320 N   0  0  0  0  0  2  0  0  0  0  0  0
  186.6740  177.4920  145.9340 C   0  0  1  0  0  3  0  0  0  0  0  0
  188.1430  177.4250  145.6860 N   0  0  0  0  0  0  0  0  0  0  0  0
  186.4160  178.4190  147.1030 C   0  0  0  0  0  1  0  0  0  0  0  0
  187.1690  178.2060  144.8630 C   0  0  1  0  0  3  0  0  0  0  0  0
  191.2060  176.7390  147.6920 C   0  0  0  0  0  3  0  0  0  0  0  0
  189.4620  177.0160  146.0310 C   0  0  0  0  0  0  0  0  0  0  0  0
  192.0510  176.2050  146.7150 C   0  0  0  0  0  3  0  0  0  0  0  0
  190.3050  176.4730  145.0570 C   0  0  0  0  0  3  0  0  0  0  0  0
  192.4200  175.5530  144.4520 F   0  0  0  0  0  0  0  0  0  0  0  0
  189.9110  177.1410  147.3510 C   0  0  0  0  0  3  0  0  0  0  0  0
  191.6000  176.0700  145.3980 C   0  0  0  0  0  0  0  0  0  0  0  0
  189.3270  178.5350  142.4130 O   0  0  0  0  0  0  0  0  0  0  0  0
  188.5750  178.2080  141.5040 C   0  0  0  0  0  0  0  0  0  0  0  0
  190.0230  176.3490  140.9120 N   0  0  0  0  0  2  0  0  0  0  0  0
  191.1000  177.3630  139.3060 N   0  0  0  0  0  2  0  0  0  0  0  0
  189.8600  178.0980  139.3970 C   0  0  2  0  0  3  0  0  0  0  0  0
  189.0770  177.3210  140.3980 C   0  0  2  0  0  3  0  0  0  0  0  0
  191.2660  176.7560  140.5170 O   0  0  0  0  0  0  0  0  0  0  0  0
  189.1640  178.0990  138.0460 C   0  0  0  0  0  2  0  0  0  0  0  0
  187.4570  176.6180  136.9310 C   0  0  0  0  0  0  0  0  0  0  0  0
  188.8020  176.6790  137.6270 C   0  0  1  0  0  3  0  0  0  0  0  0
  187.8370  173.4240  135.3640 O   0  0  0  0  0  0  0  0  0  0  0  0
  186.5430  177.6430  137.1470 O   0  0  0  0  0  1  0  0  0  0  0  0
  189.5200  174.7570  136.3040 N   0  0  0  0  0  0  0  0  0  0  0  0
  188.1620  174.5160  135.9060 C   0  0  0  0  0  0  0  0  0  0  0  0
  187.1390  175.5530  136.1550 C   0  0  0  0  0  0  0  0  0  0  0  0
  189.8950  176.0950  136.7350 C   0  0  0  0  0  2  0  0  0  0  0  0
  191.7520  174.0160  135.6520 C   0  0  0  0  0  1  0  0  0  0  0  0
  190.4890  173.6780  136.4250 C   0  0  0  0  0  2  0  0  0  0  0  0
  185.8510  175.3910  135.5350 N   0  0  0  0  0  2  0  0  0  0  0  0
  184.6180  174.9870  136.1960 C   0  0  0  0  0  2  0  0  0  0  0  0
  184.3790  173.5000  135.9800 C   0  0  0  0  0  2  0  0  0  0  0  0
  183.7050  171.7440  137.4120 F   0  0  0  0  0  0  0  0  0  0  0  0
  185.9120  172.0830  137.1270 F   0  0  0  0  0  0  0  0  0  0  0  0
  184.6820  172.7050  137.2410 C   0  0  0  0  0  0  0  0  0  0  0  0
  184.6890  173.5430  138.3400 F   0  0  0  0  0  0  0  0  0  0  0  0
  1  2  1  6  0  0  0
  1 27  1  0  0  0  0
  1  3  1  0  0  0  0
  3 14  1  0  0  0  0
  4  5  1  0  0  0  0
  6  9  1  0  0  0  0
  7  3  2  0  0  0  0
  8  4  1  0  0  0  0
  9  7  2  0  0  0  0
  9  5  1  0  0  0  0
 10  6  1  0  0  0  0
 10  8  1  0  0  0  0
 12 13  2  0  0  0  0
 13 11  1  6  0  0  0
 13  8  1  0  0  0  0
 15 17  1  1  0  0  0
 16 15  1  0  0  0  0
 16 20  1  0  0  0  0
 18 14  1  6  0  0  0
 18 16  1  0  0  0  0
 18 15  1  0  0  0  0
 20 24  2  0  0  0  0
 21 19  2  0  0  0  0
 22 25  2  0  0  0  0
 22 20  1  0  0  0  0
 23 25  1  0  0  0  0
 24 19  1  0  0  0  0
 25 21  1  0  0  0  0
 27 26  2  0  0  0  0
 29 30  1  0  0  0  0
 29 32  1  0  0  0  0
 30 33  1  6  0  0  0
 30 31  1  0  0  0  0
 31 28  1  0  0  0  0
 31 27  1  1  0  0  0
 32 28  1  0  0  0  0
 34 37  1  0  0  0  0
 34 35  1  0  0  0  0
 35 33  1  6  0  0  0
 36 39  2  0  0  0  0
 38 43  1  0  0  0  0
 38 41  1  0  0  0  0
 39 40  1  0  0  0  0
 39 38  1  0  0  0  0
 40 34  2  0  0  0  0
 41 35  1  0  0  0  0
 42 43  1  0  0  0  0
 44 40  1  0  0  0  0
 44 45  1  0  0  0  0
 46 45  1  0  0  0  0
 46 49  1  0  0  0  0
 48 49  1  0  0  0  0
 49 47  1  0  0  0  0
 49 50  1  0  0  0  0
M  END
>  <MODEL>
4

>  <REMARK>
 VINA RESULT:      -7.9      3.354      5.888
  Name = 
  14 active torsions:
  status: ('A' for Active; 'I' for Inactive)
    1  A    between atoms: C_6  and  C_47
    2  A    between atoms: C_8  and  N_34
    3  A    between atoms: C_8  and  C_46
    4  A    between atoms: N_13  and  C_19
    5  A    between atoms: C_14  and  C_22
    6  A    between atoms: C_14  and  C_50
    7  A    between atoms: N_16  and  C_17
    8  A    between atoms: N_16  and  C_22
    9  A    between atoms: C_29  and  C_47
   10  A    between atoms: S_32  and  N_42
   11  A    between atoms: N_33  and  C_40
   12  A    between atoms: N_34  and  C_39
   13  A    between atoms: C_35  and  C_46
   14  A    between atoms: C_36  and  C_50
                            x       y       z     vdW  Elec       q    Type
                         _______ _______ _______ _____ _____    ______ ____

>  <TORSDO>
F 14

$$$$
=
 OpenBabel11062412573D

 50 54  0  0  1  0  0  0  0  0999 V2000
  189.8070  174.8340  137.0550 C   0  0  1  0  0  3  0  0  0  0  0  0
  190.3130  174.2550  135.8880 O   0  0  0  0  0  1  0  0  0  0  0  0
  190.9330  175.3100  137.9120 C   0  0  0  0  0  0  0  0  0  0  0  0
  195.8010  174.7090  137.3910 C   0  0  0  0  0  2  0  0  0  0  0  0
  194.4090  174.3880  137.9270 C   0  0  0  0  0  2  0  0  0  0  0  0
  193.6760  175.3120  135.7120 O   0  0  0  0  0  0  0  0  0  0  0  0
  192.1530  175.1520  137.4760 C   0  0  0  0  0  0  0  0  0  0  0  0
  195.8680  174.4320  135.9550 N   0  0  0  0  0  0  0  0  0  0  0  0
  193.3670  174.9890  137.0360 C   0  0  0  0  0  0  0  0  0  0  0  0
  195.0310  175.4200  135.2770 C   0  0  0  0  0  2  0  0  0  0  0  0
  198.4600  173.3400  136.1260 C   0  0  0  0  0  1  0  0  0  0  0  0
  197.9970  175.9230  136.1820 O   0  0  0  0  0  0  0  0  0  0  0  0
  197.5180  174.6980  135.4080 S   0  0  2  0  0  0  0  0  0  0  0  0
  190.6920  175.6670  139.2760 N   0  0  0  0  0  2  0  0  0  0  0  0
  189.1730  177.2820  139.9180 C   0  0  1  0  0  3  0  0  0  0  0  0
  190.0100  177.0830  141.1370 N   0  0  0  0  0  0  0  0  0  0  0  0
  188.8800  178.7590  139.7600 C   0  0  0  0  0  1  0  0  0  0  0  0
  190.5190  177.0420  139.7320 C   0  0  1  0  0  3  0  0  0  0  0  0
  191.4850  176.3800  144.4840 C   0  0  0  0  0  3  0  0  0  0  0  0
  190.1930  177.0570  142.5480 C   0  0  0  0  0  0  0  0  0  0  0  0
  190.5590  177.0100  145.3220 C   0  0  0  0  0  3  0  0  0  0  0  0
  189.2730  177.6950  143.3870 C   0  0  0  0  0  3  0  0  0  0  0  0
  188.5580  178.2790  145.5850 F   0  0  0  0  0  0  0  0  0  0  0  0
  191.3040  176.4060  143.0980 C   0  0  0  0  0  3  0  0  0  0  0  0
  189.4540  177.6690  144.7730 C   0  0  0  0  0  0  0  0  0  0  0  0
  189.2060  177.0310  136.4110 O   0  0  0  0  0  0  0  0  0  0  0  0
  188.8090  175.9220  136.7440 C   0  0  0  0  0  0  0  0  0  0  0  0
  187.0690  174.2550  137.0570 N   0  0  0  0  0  2  0  0  0  0  0  0
  185.8130  174.8760  135.3820 N   0  0  0  0  0  2  0  0  0  0  0  0
  186.5810  176.0610  135.6860 C   0  0  2  0  0  3  0  0  0  0  0  0
  187.3350  175.6730  136.9100 C   0  0  2  0  0  3  0  0  0  0  0  0
  186.5330  173.8270  135.8750 O   0  0  0  0  0  0  0  0  0  0  0  0
  185.6420  177.2210  135.9720 C   0  0  0  0  0  2  0  0  0  0  0  0
  185.1630  178.1320  138.2730 C   0  0  0  0  0  0  0  0  0  0  0  0
  184.9080  177.0060  137.2900 C   0  0  1  0  0  3  0  0  0  0  0  0
  182.4090  177.5240  140.4740 O   0  0  0  0  0  0  0  0  0  0  0  0
  186.2980  178.9190  138.1110 O   0  0  0  0  0  1  0  0  0  0  0  0
  182.7140  176.6790  138.3090 N   0  0  0  0  0  0  0  0  0  0  0  0
  183.0980  177.5060  139.4170 C   0  0  0  0  0  0  0  0  0  0  0  0
  184.3230  178.3280  139.3170 C   0  0  0  0  0  0  0  0  0  0  0  0
  183.4110  176.8390  137.0420 C   0  0  0  0  0  2  0  0  0  0  0  0
  181.5760  174.8670  137.1350 C   0  0  0  0  0  1  0  0  0  0  0  0
  181.7540  175.5950  138.4560 C   0  0  0  0  0  2  0  0  0  0  0  0
  184.5520  179.3220  140.3320 N   0  0  0  0  0  2  0  0  0  0  0  0
  185.5350  179.2520  141.4040 C   0  0  0  0  0  2  0  0  0  0  0  0
  185.1360  178.1750  142.4030 C   0  0  0  0  0  2  0  0  0  0  0  0
  184.8340  180.1560  143.6580 F   0  0  0  0  0  0  0  0  0  0  0  0
  183.5320  178.3880  144.1510 F   0  0  0  0  0  0  0  0  0  0  0  0
  184.7990  178.7790  143.7580 C   0  0  0  0  0  0  0  0  0  0  0  0
  185.7230  178.3710  144.7020 F   0  0  0  0  0  0  0  0  0  0  0  0
  1  2  1  6  0  0  0
  1  3  1  0  0  0  0
  3 14  1  0  0  0  0
  4  5  1  0  0  0  0
  6  9  1  0  0  0  0
  7  3  2  0  0  0  0
  8  4  1  0  0  0  0
  9  7  2  0  0  0  0
  9  5  1  0  0  0  0
 10  6  1  0  0  0  0
 10  8  1  0  0  0  0
 13  8  1  0  0  0  0
 13 11  1  1  0  0  0
 13 12  2  0  0  0  0
 15 17  1  1  0  0  0
 15 16  1  0  0  0  0
 16 20  1  0  0  0  0
 18 14  1  6  0  0  0
 18 15  1  0  0  0  0
 18 16  1  0  0  0  0
 19 21  1  0  0  0  0
 20 24  1  0  0  0  0
 20 22  2  0  0  0  0
 22 25  1  0  0  0  0
 24 19  2  0  0  0  0
 25 21  2  0  0  0  0
 25 23  1  0  0  0  0
 26 27  2  0  0  0  0
 27  1  1  0  0  0  0
 29 30  1  0  0  0  0
 29 32  1  0  0  0  0
 30 33  1  1  0  0  0
 30 31  1  0  0  0  0
 31 27  1  6  0  0  0
 31 28  1  0  0  0  0
 32 28  1  0  0  0  0
 34 40  2  0  0  0  0
 35 33  1  6  0  0  0
 35 34  1  0  0  0  0
 37 34  1  0  0  0  0
 38 43  1  0  0  0  0
 38 39  1  0  0  0  0
 39 36  2  0  0  0  0
 40 39  1  0  0  0  0
 40 44  1  0  0  0  0
 41 35  1  0  0  0  0
 41 38  1  0  0  0  0
 42 43  1  0  0  0  0
 44 45  1  0  0  0  0
 45 46  1  0  0  0  0
 46 49  1  0  0  0  0
 47 49  1  0  0  0  0
 49 48  1  0  0  0  0
 49 50  1  0  0  0  0
M  END
>  <MODEL>
5

>  <REMARK>
 VINA RESULT:      -7.9      3.564      6.967
  Name = 
  14 active torsions:
  status: ('A' for Active; 'I' for Inactive)
    1  A    between atoms: C_6  and  C_47
    2  A    between atoms: C_8  and  N_34
    3  A    between atoms: C_8  and  C_46
    4  A    between atoms: N_13  and  C_19
    5  A    between atoms: C_14  and  C_22
    6  A    between atoms: C_14  and  C_50
    7  A    between atoms: N_16  and  C_17
    8  A    between atoms: N_16  and  C_22
    9  A    between atoms: C_29  and  C_47
   10  A    between atoms: S_32  and  N_42
   11  A    between atoms: N_33  and  C_40
   12  A    between atoms: N_34  and  C_39
   13  A    between atoms: C_35  and  C_46
   14  A    between atoms: C_36  and  C_50
                            x       y       z     vdW  Elec       q    Type
                         _______ _______ _______ _____ _____    ______ ____

>  <TORSDO>
F 14

$$$$
=
 OpenBabel11062412573D

 50 54  0  0  1  0  0  0  0  0999 V2000
  182.6730  178.0980  140.0040 C   0  0  1  0  0  3  0  0  0  0  0  0
  181.4040  178.4540  140.4730 O   0  0  0  0  0  1  0  0  0  0  0  0
  182.8100  178.4940  138.5710 C   0  0  0  0  0  0  0  0  0  0  0  0
  180.3600  181.8860  135.9590 C   0  0  0  0  0  2  0  0  0  0  0  0
  180.6650  180.4850  136.4810 C   0  0  0  0  0  2  0  0  0  0  0  0
  181.4660  181.7430  138.4990 O   0  0  0  0  0  0  0  0  0  0  0  0
  182.1450  179.5360  138.1490 C   0  0  0  0  0  0  0  0  0  0  0  0
  179.8740  182.7380  137.0460 N   0  0  0  0  0  0  0  0  0  0  0  0
  181.4770  180.5730  137.7350 C   0  0  0  0  0  0  0  0  0  0  0  0
  180.9950  182.9750  137.9540 C   0  0  0  0  0  2  0  0  0  0  0  0
  180.7930  184.7500  135.2990 C   0  0  0  0  0  1  0  0  0  0  0  0
  179.5350  185.2760  137.5420 O   0  0  0  0  0  0  0  0  0  0  0  0
  179.4200  184.2990  136.3760 S   0  0  2  0  0  0  0  0  0  0  0  0
  183.4250  177.6010  137.6380 N   0  0  0  0  0  2  0  0  0  0  0  0
  184.2860  175.5630  136.9810 C   0  0  1  0  0  3  0  0  0  0  0  0
  185.5000  176.3910  137.2370 N   0  0  0  0  0  0  0  0  0  0  0  0
  184.5310  174.1610  137.4970 C   0  0  0  0  0  1  0  0  0  0  0  0
  184.2360  176.4550  138.0320 C   0  0  1  0  0  3  0  0  0  0  0  0
  189.0930  176.1560  136.2820 C   0  0  0  0  0  3  0  0  0  0  0  0
  186.8510  176.7580  136.9810 C   0  0  0  0  0  0  0  0  0  0  0  0
  189.5070  177.4780  136.4700 C   0  0  0  0  0  3  0  0  0  0  0  0
  187.2640  178.0820  137.1600 C   0  0  0  0  0  3  0  0  0  0  0  0
  188.9940  179.7230  137.0900 F   0  0  0  0  0  0  0  0  0  0  0  0
  187.7660  175.7970  136.5330 C   0  0  0  0  0  3  0  0  0  0  0  0
  188.5920  178.4420  136.9070 C   0  0  0  0  0  0  0  0  0  0  0  0
  184.5990  179.4190  140.3870 O   0  0  0  0  0  0  0  0  0  0  0  0
  183.7640  178.6680  140.8750 C   0  0  0  0  0  0  0  0  0  0  0  0
  182.8720  178.9390  143.1190 N   0  0  0  0  0  2  0  0  0  0  0  0
  184.7640  179.4250  144.0920 N   0  0  0  0  0  2  0  0  0  0  0  0
  185.1690  178.7060  142.9060 C   0  0  2  0  0  3  0  0  0  0  0  0
  183.8750  178.2630  142.3190 C   0  0  2  0  0  3  0  0  0  0  0  0
  183.5170  179.9120  143.8270 O   0  0  0  0  0  0  0  0  0  0  0  0
  186.0260  177.5140  143.2970 C   0  0  0  0  0  2  0  0  0  0  0  0
  188.0260  177.9740  144.7600 C   0  0  0  0  0  0  0  0  0  0  0  0
  187.4990  177.9030  143.3410 C   0  0  1  0  0  3  0  0  0  0  0  0
  191.5220  177.8110  144.0170 O   0  0  0  0  0  0  0  0  0  0  0  0
  187.1230  178.1540  145.8030 O   0  0  0  0  0  1  0  0  0  0  0  0
  189.7380  177.2800  142.5930 N   0  0  0  0  0  0  0  0  0  0  0  0
  190.2780  177.6680  143.8650 C   0  0  0  0  0  0  0  0  0  0  0  0
  189.3590  177.9170  144.9960 C   0  0  0  0  0  0  0  0  0  0  0  0
  188.3290  176.9280  142.5090 C   0  0  0  0  0  2  0  0  0  0  0  0
  189.6190  177.1960  140.1560 C   0  0  0  0  0  1  0  0  0  0  0  0
  190.5190  177.3680  141.3670 C   0  0  0  0  0  2  0  0  0  0  0  0
  189.9310  178.0640  146.3080 N   0  0  0  0  0  2  0  0  0  0  0  0
  189.6110  177.2690  147.4850 C   0  0  0  0  0  2  0  0  0  0  0  0
  190.3340  175.9310  147.4170 C   0  0  0  0  0  2  0  0  0  0  0  0
  192.3310  175.0000  148.2720 F   0  0  0  0  0  0  0  0  0  0  0  0
  192.4620  176.2250  146.3890 F   0  0  0  0  0  0  0  0  0  0  0  0
  191.8320  176.1060  147.6150 C   0  0  0  0  0  0  0  0  0  0  0  0
  192.0830  177.2340  148.3740 F   0  0  0  0  0  0  0  0  0  0  0  0
  1  2  1  1  0  0  0
  1 27  1  0  0  0  0
  3  1  1  0  0  0  0
  4  5  1  0  0  0  0
  4  8  1  0  0  0  0
  5  9  1  0  0  0  0
  7  3  2  0  0  0  0
  8 10  1  0  0  0  0
  9  7  2  0  0  0  0
  9  6  1  0  0  0  0
 10  6  1  0  0  0  0
 13 11  1  6  0  0  0
 13  8  1  0  0  0  0
 13 12  2  0  0  0  0
 14  3  1  0  0  0  0
 15 16  1  0  0  0  0
 15 17  1  1  0  0  0
 15 18  1  0  0  0  0
 16 18  1  0  0  0  0
 18 14  1  6  0  0  0
 19 21  2  0  0  0  0
 19 24  1  0  0  0  0
 20 22  1  0  0  0  0
 20 16  1  0  0  0  0
 21 25  1  0  0  0  0
 24 20  2  0  0  0  0
 25 23  1  0  0  0  0
 25 22  2  0  0  0  0
 26 27  2  0  0  0  0
 28 32  1  0  0  0  0
 30 33  1  1  0  0  0
 30 29  1  0  0  0  0
 31 27  1  6  0  0  0
 31 30  1  0  0  0  0
 31 28  1  0  0  0  0
 32 29  1  0  0  0  0
 34 40  2  0  0  0  0
 34 37  1  0  0  0  0
 35 33  1  1  0  0  0
 35 34  1  0  0  0  0
 38 39  1  0  0  0  0
 39 36  2  0  0  0  0
 39 40  1  0  0  0  0
 40 44  1  0  0  0  0
 41 38  1  0  0  0  0
 41 35  1  0  0  0  0
 42 43  1  0  0  0  0
 43 38  1  0  0  0  0
 44 45  1  0  0  0  0
 46 45  1  0  0  0  0
 46 49  1  0  0  0  0
 48 49  1  0  0  0  0
 49 47  1  0  0  0  0
 49 50  1  0  0  0  0
M  END
>  <MODEL>
6

>  <REMARK>
 VINA RESULT:      -7.7      4.645     10.363
  Name = 
  14 active torsions:
  status: ('A' for Active; 'I' for Inactive)
    1  A    between atoms: C_6  and  C_47
    2  A    between atoms: C_8  and  N_34
    3  A    between atoms: C_8  and  C_46
    4  A    between atoms: N_13  and  C_19
    5  A    between atoms: C_14  and  C_22
    6  A    between atoms: C_14  and  C_50
    7  A    between atoms: N_16  and  C_17
    8  A    between atoms: N_16  and  C_22
    9  A    between atoms: C_29  and  C_47
   10  A    between atoms: S_32  and  N_42
   11  A    between atoms: N_33  and  C_40
   12  A    between atoms: N_34  and  C_39
   13  A    between atoms: C_35  and  C_46
   14  A    between atoms: C_36  and  C_50
                            x       y       z     vdW  Elec       q    Type
                         _______ _______ _______ _____ _____    ______ ____

>  <TORSDO>
F 14

$$$$
=
 OpenBabel11062412573D

 50 54  0  0  1  0  0  0  0  0999 V2000
  188.4070  178.6290  139.4580 C   0  0  1  0  0  3  0  0  0  0  0  0
  189.2810  179.3220  138.6150 O   0  0  0  0  0  1  0  0  0  0  0  0
  187.3780  177.9170  138.6440 C   0  0  0  0  0  0  0  0  0  0  0  0
  182.4550  178.1650  138.8170 C   0  0  0  0  0  2  0  0  0  0  0  0
  183.8310  177.5860  139.1320 C   0  0  0  0  0  2  0  0  0  0  0  0
  184.5470  179.9830  138.9370 O   0  0  0  0  0  0  0  0  0  0  0  0
  186.1290  178.2710  138.7770 C   0  0  0  0  0  0  0  0  0  0  0  0
  182.2910  179.4670  139.4660 N   0  0  0  0  0  0  0  0  0  0  0  0
  184.8840  178.6270  138.9180 C   0  0  0  0  0  0  0  0  0  0  0  0
  183.1920  180.4070  138.8010 C   0  0  0  0  0  2  0  0  0  0  0  0
  179.9470  178.8360  138.0350 C   0  0  0  0  0  1  0  0  0  0  0  0
  180.8170  181.2940  138.3290 O   0  0  0  0  0  0  0  0  0  0  0  0
  180.6530  180.0360  139.1780 S   0  0  2  0  0  0  0  0  0  0  0  0
  187.7200  176.7100  137.9560 N   0  0  0  0  0  2  0  0  0  0  0  0
  188.0130  175.3490  136.1160 C   0  0  1  0  0  3  0  0  0  0  0  0
  186.6320  175.0250  136.5740 N   0  0  0  0  0  0  0  0  0  0  0  0
  188.0300  175.3940  134.6030 C   0  0  0  0  0  1  0  0  0  0  0  0
  187.2510  176.3850  136.6140 C   0  0  1  0  0  3  0  0  0  0  0  0
  184.6770  171.8660  136.8520 C   0  0  0  0  0  3  0  0  0  0  0  0
  185.5380  174.1300  136.7440 C   0  0  0  0  0  0  0  0  0  0  0  0
  183.3920  172.3670  137.0840 C   0  0  0  0  0  3  0  0  0  0  0  0
  184.2540  174.6290  136.9860 C   0  0  0  0  0  3  0  0  0  0  0  0
  181.9360  174.2320  137.3770 F   0  0  0  0  0  0  0  0  0  0  0  0
  185.7500  172.7470  136.6850 C   0  0  0  0  0  3  0  0  0  0  0  0
  183.1810  173.7480  137.1530 C   0  0  0  0  0  0  0  0  0  0  0  0
  189.8180  176.7880  139.9300 O   0  0  0  0  0  0  0  0  0  0  0  0
  189.1540  177.7080  140.3900 C   0  0  0  0  0  0  0  0  0  0  0  0
  190.1830  178.5620  142.4190 N   0  0  0  0  0  2  0  0  0  0  0  0
  190.0800  176.7050  143.5620 N   0  0  0  0  0  2  0  0  0  0  0  0
  189.0420  176.5490  142.5690 C   0  0  2  0  0  3  0  0  0  0  0  0
  189.0290  177.8690  141.8810 C   0  0  2  0  0  3  0  0  0  0  0  0
  190.9490  177.6260  143.0540 O   0  0  0  0  0  0  0  0  0  0  0  0
  187.7130  176.2790  143.2540 C   0  0  0  0  0  2  0  0  0  0  0  0
  186.0500  177.9820  144.0810 C   0  0  0  0  0  0  0  0  0  0  0  0
  187.4150  177.3560  144.2900 C   0  0  1  0  0  3  0  0  0  0  0  0
  185.6600  179.4500  147.3200 O   0  0  0  0  0  0  0  0  0  0  0  0
  185.4580  177.8970  142.8250 O   0  0  0  0  0  1  0  0  0  0  0  0
  187.2010  177.8050  146.6800 N   0  0  0  0  0  0  0  0  0  0  0  0
  186.0860  178.6710  146.4240 C   0  0  0  0  0  0  0  0  0  0  0  0
  185.4480  178.6560  145.0900 C   0  0  0  0  0  0  0  0  0  0  0  0
  187.5320  176.7820  145.6990 C   0  0  0  0  0  2  0  0  0  0  0  0
  189.4170  177.3100  147.5750 C   0  0  0  0  0  1  0  0  0  0  0  0
  188.0920  178.0130  147.8120 C   0  0  0  0  0  2  0  0  0  0  0  0
  184.1940  179.3450  144.9360 N   0  0  0  0  0  2  0  0  0  0  0  0
  182.9090  178.7400  144.6140 C   0  0  0  0  0  2  0  0  0  0  0  0
  182.3230  179.3990  143.3740 C   0  0  0  0  0  2  0  0  0  0  0  0
  180.1930  179.6180  142.3730 F   0  0  0  0  0  0  0  0  0  0  0  0
  181.3590  177.7360  141.9670 F   0  0  0  0  0  0  0  0  0  0  0  0
  181.0550  178.6900  142.9210 C   0  0  0  0  0  0  0  0  0  0  0  0
  180.4390  178.0840  144.0010 F   0  0  0  0  0  0  0  0  0  0  0  0
  1  2  1  6  0  0  0
  1 27  1  0  0  0  0
  3  7  2  0  0  0  0
  3  1  1  0  0  0  0
  4  5  1  0  0  0  0
  4  8  1  0  0  0  0
  7  9  2  0  0  0  0
  9  6  1  0  0  0  0
  9  5  1  0  0  0  0
 10  6  1  0  0  0  0
 10  8  1  0  0  0  0
 12 13  2  0  0  0  0
 13 11  1  6  0  0  0
 13  8  1  0  0  0  0
 14  3  1  0  0  0  0
 15 17  1  6  0  0  0
 15 16  1  0  0  0  0
 15 18  1  0  0  0  0
 16 18  1  0  0  0  0
 16 20  1  0  0  0  0
 18 14  1  1  0  0  0
 19 21  1  0  0  0  0
 20 22  2  0  0  0  0
 21 25  2  0  0  0  0
 22 25  1  0  0  0  0
 24 20  1  0  0  0  0
 24 19  2  0  0  0  0
 25 23  1  0  0  0  0
 26 27  2  0  0  0  0
 28 32  1  0  0  0  0
 30 33  1  1  0  0  0
 30 29  1  0  0  0  0
 31 27  1  6  0  0  0
 31 28  1  0  0  0  0
 31 30  1  0  0  0  0
 32 29  1  0  0  0  0
 34 35  1  0  0  0  0
 34 40  2  0  0  0  0
 35 33  1  6  0  0  0
 35 41  1  0  0  0  0
 37 34  1  0  0  0  0
 38 43  1  0  0  0  0
 39 38  1  0  0  0  0
 39 36  2  0  0  0  0
 40 39  1  0  0  0  0
 41 38  1  0  0  0  0
 42 43  1  0  0  0  0
 44 40  1  0  0  0  0
 45 44  1  0  0  0  0
 46 45  1  0  0  0  0
 47 49  1  0  0  0  0
 48 49  1  0  0  0  0
 49 46  1  0  0  0  0
 49 50  1  0  0  0  0
M  END
>  <MODEL>
7

>  <REMARK>
 VINA RESULT:      -7.7      3.367      8.631
  Name = 
  14 active torsions:
  status: ('A' for Active; 'I' for Inactive)
    1  A    between atoms: C_6  and  C_47
    2  A    between atoms: C_8  and  N_34
    3  A    between atoms: C_8  and  C_46
    4  A    between atoms: N_13  and  C_19
    5  A    between atoms: C_14  and  C_22
    6  A    between atoms: C_14  and  C_50
    7  A    between atoms: N_16  and  C_17
    8  A    between atoms: N_16  and  C_22
    9  A    between atoms: C_29  and  C_47
   10  A    between atoms: S_32  and  N_42
   11  A    between atoms: N_33  and  C_40
   12  A    between atoms: N_34  and  C_39
   13  A    between atoms: C_35  and  C_46
   14  A    between atoms: C_36  and  C_50
                            x       y       z     vdW  Elec       q    Type
                         _______ _______ _______ _____ _____    ______ ____

>  <TORSDO>
F 14

$$$$
=
 OpenBabel11062412573D

 50 54  0  0  1  0  0  0  0  0999 V2000
  183.8490  179.2820  139.6370 C   0  0  1  0  0  3  0  0  0  0  0  0
  184.1980  180.4980  139.0420 O   0  0  0  0  0  1  0  0  0  0  0  0
  183.9440  178.1820  138.6320 C   0  0  0  0  0  0  0  0  0  0  0  0
  187.7190  176.8050  135.7720 C   0  0  0  0  0  2  0  0  0  0  0  0
  186.4210  177.5330  136.1070 C   0  0  0  0  0  2  0  0  0  0  0  0
  187.4030  177.5840  138.4150 O   0  0  0  0  0  0  0  0  0  0  0  0
  185.1110  177.9190  138.1090 C   0  0  0  0  0  0  0  0  0  0  0  0
  188.8320  177.3770  136.5310 N   0  0  0  0  0  0  0  0  0  0  0  0
  186.2770  177.6650  137.5900 C   0  0  0  0  0  0  0  0  0  0  0  0
  188.6280  177.0330  137.9370 C   0  0  0  0  0  2  0  0  0  0  0  0
  189.8850  174.8530  135.8510 C   0  0  0  0  0  1  0  0  0  0  0  0
  191.2220  176.6230  137.2540 O   0  0  0  0  0  0  0  0  0  0  0  0
  190.3210  176.5930  136.0220 S   0  0  2  0  0  0  0  0  0  0  0  0
  182.7540  177.6300  138.0610 N   0  0  0  0  0  2  0  0  0  0  0  0
  181.2460  175.9560  137.5620 C   0  0  1  0  0  3  0  0  0  0  0  0
  182.5490  175.2370  137.6600 N   0  0  0  0  0  0  0  0  0  0  0  0
  180.1680  175.1070  138.2010 C   0  0  0  0  0  1  0  0  0  0  0  0
  182.1390  176.3890  138.5200 C   0  0  1  0  0  3  0  0  0  0  0  0
  185.6640  173.4600  136.6530 C   0  0  0  0  0  3  0  0  0  0  0  0
  183.4430  174.1930  137.2880 C   0  0  0  0  0  0  0  0  0  0  0  0
  185.2030  172.1420  136.5640 C   0  0  0  0  0  3  0  0  0  0  0  0
  182.9860  172.8740  137.2080 C   0  0  0  0  0  3  0  0  0  0  0  0
  183.4200  170.5730  136.7560 F   0  0  0  0  0  0  0  0  0  0  0  0
  184.7850  174.4840  137.0180 C   0  0  0  0  0  3  0  0  0  0  0  0
  183.8650  171.8490  136.8430 C   0  0  0  0  0  0  0  0  0  0  0  0
  185.8530  179.3290  140.8950 O   0  0  0  0  0  0  0  0  0  0  0  0
  184.6690  179.0160  140.8740 C   0  0  0  0  0  0  0  0  0  0  0  0
  182.6530  178.6270  142.1740 N   0  0  0  0  0  2  0  0  0  0  0  0
  183.4990  179.1370  144.1200 N   0  0  0  0  0  2  0  0  0  0  0  0
  184.6560  178.7790  143.3330 C   0  0  2  0  0  3  0  0  0  0  0  0
  184.0620  178.3050  142.0530 C   0  0  2  0  0  3  0  0  0  0  0  0
  182.5310  179.4900  143.2250 O   0  0  0  0  0  0  0  0  0  0  0  0
  185.4210  177.6630  144.0240 C   0  0  0  0  0  2  0  0  0  0  0  0
  187.5870  177.5620  145.3080 C   0  0  0  0  0  0  0  0  0  0  0  0
  186.9180  177.9460  144.0040 C   0  0  1  0  0  3  0  0  0  0  0  0
  190.9670  177.4530  144.1390 O   0  0  0  0  0  0  0  0  0  0  0  0
  186.8100  177.4650  146.4580 O   0  0  0  0  0  1  0  0  0  0  0  0
  189.0130  177.4650  142.8450 N   0  0  0  0  0  0  0  0  0  0  0  0
  189.7060  177.4250  144.1010 C   0  0  0  0  0  0  0  0  0  0  0  0
  188.9280  177.3690  145.3570 C   0  0  0  0  0  0  0  0  0  0  0  0
  187.5770  177.2260  142.8300 C   0  0  0  0  0  2  0  0  0  0  0  0
  190.4480  176.7140  141.0190 C   0  0  0  0  0  1  0  0  0  0  0  0
  189.6740  177.8770  141.6150 C   0  0  0  0  0  2  0  0  0  0  0  0
  189.6360  177.0870  146.5760 N   0  0  0  0  0  2  0  0  0  0  0  0
  190.6760  177.9070  147.1820 C   0  0  0  0  0  2  0  0  0  0  0  0
  191.4590  177.0840  148.1950 C   0  0  0  0  0  2  0  0  0  0  0  0
  192.2840  176.1350  146.1940 F   0  0  0  0  0  0  0  0  0  0  0  0
  193.3420  175.6270  148.1150 F   0  0  0  0  0  0  0  0  0  0  0  0
  192.1090  175.8760  147.5390 C   0  0  0  0  0  0  0  0  0  0  0  0
  191.2990  174.7640  147.6830 F   0  0  0  0  0  0  0  0  0  0  0  0
  1  2  1  6  0  0  0
  1 27  1  0  0  0  0
  3  1  1  0  0  0  0
  4  5  1  0  0  0  0
  4  8  1  0  0  0  0
  5  9  1  0  0  0  0
  7  3  2  0  0  0  0
  8 10  1  0  0  0  0
  9  7  2  0  0  0  0
  9  6  1  0  0  0  0
 10  6  1  0  0  0  0
 13 11  1  1  0  0  0
 13  8  1  0  0  0  0
 13 12  2  0  0  0  0
 14  3  1  0  0  0  0
 15 16  1  0  0  0  0
 15 17  1  1  0  0  0
 15 18  1  0  0  0  0
 16 18  1  0  0  0  0
 18 14  1  6  0  0  0
 19 24  1  0  0  0  0
 20 16  1  0  0  0  0
 21 19  2  0  0  0  0
 21 25  1  0  0  0  0
 22 20  1  0  0  0  0
 23 25  1  0  0  0  0
 24 20  2  0  0  0  0
 25 22  2  0  0  0  0
 27 26  2  0  0  0  0
 28 32  1  0  0  0  0
 30 33  1  1  0  0  0
 30 29  1  0  0  0  0
 31 27  1  6  0  0  0
 31 28  1  0  0  0  0
 31 30  1  0  0  0  0
 32 29  1  0  0  0  0
 34 40  2  0  0  0  0
 34 37  1  0  0  0  0
 35 33  1  1  0  0  0
 35 34  1  0  0  0  0
 38 39  1  0  0  0  0
 39 36  2  0  0  0  0
 39 40  1  0  0  0  0
 40 44  1  0  0  0  0
 41 38  1  0  0  0  0
 41 35  1  0  0  0  0
 42 43  1  0  0  0  0
 43 38  1  0  0  0  0
 44 45  1  0  0  0  0
 45 46  1  0  0  0  0
 47 49  1  0  0  0  0
 49 50  1  0  0  0  0
 49 48  1  0  0  0  0
 49 46  1  0  0  0  0
M  END
>  <MODEL>
8

>  <REMARK>
 VINA RESULT:      -7.5      3.340      9.419
  Name = 
  14 active torsions:
  status: ('A' for Active; 'I' for Inactive)
    1  A    between atoms: C_6  and  C_47
    2  A    between atoms: C_8  and  N_34
    3  A    between atoms: C_8  and  C_46
    4  A    between atoms: N_13  and  C_19
    5  A    between atoms: C_14  and  C_22
    6  A    between atoms: C_14  and  C_50
    7  A    between atoms: N_16  and  C_17
    8  A    between atoms: N_16  and  C_22
    9  A    between atoms: C_29  and  C_47
   10  A    between atoms: S_32  and  N_42
   11  A    between atoms: N_33  and  C_40
   12  A    between atoms: N_34  and  C_39
   13  A    between atoms: C_35  and  C_46
   14  A    between atoms: C_36  and  C_50
                            x       y       z     vdW  Elec       q    Type
                         _______ _______ _______ _____ _____    ______ ____

>  <TORSDO>
F 14

$$$$
=
 OpenBabel11062412573D

 50 54  0  0  1  0  0  0  0  0999 V2000
  191.2320  177.6420  140.1720 C   0  0  1  0  0  3  0  0  0  0  0  0
  192.6250  177.6430  140.2860 O   0  0  0  0  0  1  0  0  0  0  0  0
  190.8380  177.1720  138.8110 C   0  0  0  0  0  0  0  0  0  0  0  0
  186.3700  176.2630  136.9280 C   0  0  0  0  0  2  0  0  0  0  0  0
  187.6980  175.9110  137.5920 C   0  0  0  0  0  2  0  0  0  0  0  0
  187.4970  178.2310  138.5250 O   0  0  0  0  0  0  0  0  0  0  0  0
  189.5690  177.1530  138.5040 C   0  0  0  0  0  0  0  0  0  0  0  0
  185.5480  177.0660  137.8340 N   0  0  0  0  0  0  0  0  0  0  0  0
  188.3020  177.1340  138.2070 C   0  0  0  0  0  0  0  0  0  0  0  0
  186.1900  178.3720  137.9700 C   0  0  0  0  0  2  0  0  0  0  0  0
  183.0340  175.8540  137.4370 C   0  0  0  0  0  1  0  0  0  0  0  0
  184.2520  177.2500  135.5770 O   0  0  0  0  0  0  0  0  0  0  0  0
  183.9840  177.3420  137.0770 S   0  0  2  0  0  0  0  0  0  0  0  0
  191.7930  176.5040  137.9810 N   0  0  0  0  0  2  0  0  0  0  0  0
  191.9390  175.1070  136.1500 C   0  0  1  0  0  3  0  0  0  0  0  0
  192.9380  174.5430  137.1020 N   0  0  0  0  0  0  0  0  0  0  0  0
  191.2100  173.9670  135.4710 C   0  0  0  0  0  1  0  0  0  0  0  0
  191.6250  175.1400  137.4920 C   0  0  1  0  0  3  0  0  0  0  0  0
  195.5550  171.8930  137.2240 C   0  0  0  0  0  3  0  0  0  0  0  0
  194.1560  173.8650  137.3970 C   0  0  0  0  0  0  0  0  0  0  0  0
  196.5500  172.5350  137.9680 C   0  0  0  0  0  3  0  0  0  0  0  0
  195.1550  174.5090  138.1330 C   0  0  0  0  0  3  0  0  0  0  0  0
  197.3160  174.4630  139.1420 F   0  0  0  0  0  0  0  0  0  0  0  0
  194.3600  172.5590  136.9360 C   0  0  0  0  0  3  0  0  0  0  0  0
  196.3510  173.8430  138.4210 C   0  0  0  0  0  0  0  0  0  0  0  0
  190.4820  175.6280  141.1640 O   0  0  0  0  0  0  0  0  0  0  0  0
  190.5860  176.8430  141.2760 C   0  0  0  0  0  0  0  0  0  0  0  0
  190.9280  178.5330  142.9880 N   0  0  0  0  0  2  0  0  0  0  0  0
  190.5070  177.2500  144.7040 N   0  0  0  0  0  2  0  0  0  0  0  0
  189.8290  176.5890  143.6130 C   0  0  2  0  0  3  0  0  0  0  0  0
  190.0070  177.5360  142.4780 C   0  0  2  0  0  3  0  0  0  0  0  0
  191.4760  178.0210  144.1300 O   0  0  0  0  0  0  0  0  0  0  0  0
  188.3580  176.4170  143.9540 C   0  0  0  0  0  2  0  0  0  0  0  0
  186.5950  178.1410  144.4780 C   0  0  0  0  0  0  0  0  0  0  0  0
  187.8990  177.5060  144.9170 C   0  0  1  0  0  3  0  0  0  0  0  0
  185.6800  179.6390  147.5950 O   0  0  0  0  0  0  0  0  0  0  0  0
  186.2220  178.0510  143.1410 O   0  0  0  0  0  1  0  0  0  0  0  0
  187.2910  177.9760  147.2340 N   0  0  0  0  0  0  0  0  0  0  0  0
  186.2430  178.8490  146.7880 C   0  0  0  0  0  0  0  0  0  0  0  0
  185.8380  178.8280  145.3670 C   0  0  0  0  0  0  0  0  0  0  0  0
  187.7730  176.9430  146.3300 C   0  0  0  0  0  2  0  0  0  0  0  0
  189.4620  177.8880  148.3470 C   0  0  0  0  0  1  0  0  0  0  0  0
  187.9810  178.1870  148.4990 C   0  0  0  0  0  2  0  0  0  0  0  0
  184.6350  179.5260  144.9990 N   0  0  0  0  0  2  0  0  0  0  0  0
  183.3320  178.9270  144.7450 C   0  0  0  0  0  2  0  0  0  0  0  0
  182.7290  179.5190  143.4790 C   0  0  0  0  0  2  0  0  0  0  0  0
  181.2950  178.2020  142.1380 F   0  0  0  0  0  0  0  0  0  0  0  0
  180.8910  178.2820  144.3520 F   0  0  0  0  0  0  0  0  0  0  0  0
  181.3120  179.0130  143.2560 C   0  0  0  0  0  0  0  0  0  0  0  0
  180.4540  180.0780  143.0540 F   0  0  0  0  0  0  0  0  0  0  0  0
  1  2  1  6  0  0  0
  1 27  1  0  0  0  0
  3  1  1  0  0  0  0
  4  5  1  0  0  0  0
  4  8  1  0  0  0  0
  5  9  1  0  0  0  0
  7  3  2  0  0  0  0
  8 10  1  0  0  0  0
  9  7  2  0  0  0  0
  9  6  1  0  0  0  0
 10  6  1  0  0  0  0
 12 13  2  0  0  0  0
 13 11  1  1  0  0  0
 13  8  1  0  0  0  0
 14  3  1  0  0  0  0
 15 17  1  6  0  0  0
 15 16  1  0  0  0  0
 15 18  1  0  0  0  0
 16 20  1  0  0  0  0
 16 18  1  0  0  0  0
 18 14  1  1  0  0  0
 19 21  1  0  0  0  0
 20 22  2  0  0  0  0
 21 25  2  0  0  0  0
 22 25  1  0  0  0  0
 24 19  2  0  0  0  0
 24 20  1  0  0  0  0
 25 23  1  0  0  0  0
 26 27  2  0  0  0  0
 28 32  1  0  0  0  0
 30 33  1  1  0  0  0
 30 29  1  0  0  0  0
 31 27  1  6  0  0  0
 31 28  1  0  0  0  0
 31 30  1  0  0  0  0
 32 29  1  0  0  0  0
 34 35  1  0  0  0  0
 34 40  2  0  0  0  0
 35 33  1  6  0  0  0
 35 41  1  0  0  0  0
 37 34  1  0  0  0  0
 38 43  1  0  0  0  0
 39 38  1  0  0  0  0
 39 36  2  0  0  0  0
 40 39  1  0  0  0  0
 41 38  1  0  0  0  0
 42 43  1  0  0  0  0
 44 40  1  0  0  0  0
 45 44  1  0  0  0  0
 46 45  1  0  0  0  0
 47 49  1  0  0  0  0
 49 46  1  0  0  0  0
 49 48  1  0  0  0  0
 50 49  1  0  0  0  0
M  END
>  <MODEL>
9

>  <REMARK>
 VINA RESULT:      -7.4      4.112      9.686
  Name = 
  14 active torsions:
  status: ('A' for Active; 'I' for Inactive)
    1  A    between atoms: C_6  and  C_47
    2  A    between atoms: C_8  and  N_34
    3  A    between atoms: C_8  and  C_46
    4  A    between atoms: N_13  and  C_19
    5  A    between atoms: C_14  and  C_22
    6  A    between atoms: C_14  and  C_50
    7  A    between atoms: N_16  and  C_17
    8  A    between atoms: N_16  and  C_22
    9  A    between atoms: C_29  and  C_47
   10  A    between atoms: S_32  and  N_42
   11  A    between atoms: N_33  and  C_40
   12  A    between atoms: N_34  and  C_39
   13  A    between atoms: C_35  and  C_46
   14  A    between atoms: C_36  and  C_50
                            x       y       z     vdW  Elec       q    Type
                         _______ _______ _______ _____ _____    ______ ____

>  <TORSDO>
F 14

$$$$
