=
 OpenBabel11062414263D

 50 54  0  0  1  0  0  0  0  0999 V2000
  183.5500  178.6890  143.2140 C   0  0  1  0  0  3  0  0  0  0  0  0
  181.3270  179.5800  143.2760 O   0  0  0  0  0  1  0  0  0  0  0  0
  182.1410  178.6490  142.6300 C   0  0  1  0  0  3  0  0  0  0  0  0
  182.2030  178.9590  141.1320 C   0  0  0  0  0  2  0  0  0  0  0  0
  182.5580  179.1140  138.1200 C   0  0  0  0  0  2  0  0  0  0  0  0
  181.4420  178.3300  138.7670 C   0  0  2  0  0  0  0  0  0  0  0  0
  180.0410  178.4970  138.2550 C   0  0  0  0  0  2  0  0  0  0  0  0
  181.4720  177.9480  140.2370 C   0  0  2  0  0  3  0  0  0  0  0  0
  180.0040  177.7950  140.6170 C   0  0  0  0  0  2  0  0  0  0  0  0
  182.3920  177.6310  137.7950 C   0  0  2  0  0  3  0  0  0  0  0  0
  179.1900  177.8260  139.3230 C   0  0  0  0  0  2  0  0  0  0  0  0
  183.0640  175.3070  138.3950 C   0  0  0  0  0  2  0  0  0  0  0  0
  183.4770  176.7910  138.4870 C   0  0  1  0  0  3  0  0  0  0  0  0
  184.0410  174.4250  137.6020 C   0  0  0  0  0  2  0  0  0  0  0  0
  184.8790  176.5260  136.4080 C   0  0  2  0  0  3  0  0  0  0  0  0
  185.1740  179.1220  138.9720 O   0  0  0  0  0  0  0  0  0  0  0  0
  185.4550  178.3840  137.9920 C   0  0  0  0  0  0  0  0  0  0  0  0
  186.1810  176.8120  135.7140 C   0  0  0  0  0  3  0  0  0  0  0  0
  184.8700  177.0030  137.8670 C   0  0  1  0  0  3  0  0  0  0  0  0
  186.4610  178.7890  137.0610 N   0  0  0  0  0  2  0  0  0  0  0  0
  186.8780  177.9140  136.0040 C   0  0  0  0  0  3  0  0  0  0  0  0
  184.4530  175.0540  136.2540 C   0  0  2  0  0  3  0  0  0  0  0  0
  183.3340  174.9210  135.2160 C   0  0  2  0  0  3  0  0  0  0  0  0
  182.7000  176.1490  135.0220 O   0  0  0  0  0  1  0  0  0  0  0  0
  182.2990  173.9040  135.6620 C   0  0  0  0  0  1  0  0  0  0  0  0
  184.4820  179.0320  142.2310 O   0  0  0  0  0  0  0  0  0  0  0  0
  185.8010  177.5560  143.3590 F   0  0  0  0  0  0  0  0  0  0  0  0
  185.7300  178.8320  142.8300 C   0  0  1  0  0  3  0  0  0  0  0  0
  186.8380  179.0330  141.8100 C   0  0  0  0  0  2  0  0  0  0  0  0
  187.0680  177.8560  141.0980 O   0  0  0  0  0  0  0  0  0  0  0  0
  188.3540  177.9970  140.5760 C   0  0  0  0  0  2  0  0  0  0  0  0
  191.5940  176.7340  143.2830 C   0  0  0  0  0  3  0  0  0  0  0  0
  189.2980  177.2330  141.3790 N   0  0  0  0  0  0  0  0  0  0  0  0
  188.7560  176.3940  142.4410 C   0  0  0  0  0  2  0  0  0  0  0  0
  191.6810  176.5830  141.9590 C   0  0  0  0  0  3  0  0  0  0  0  0
  189.1080  176.9290  143.8300 C   0  0  0  0  0  2  0  0  0  0  0  0
  190.5120  177.5380  143.9440 C   0  0  1  0  0  3  0  0  0  0  0  0
  190.6860  177.1100  141.0080 C   0  0  0  0  0  0  0  0  0  0  0  0
  191.1740  177.3900  139.4670 S   0  0  0  0  0  0  0  0  0  0  0  0
  190.8580  177.8750  145.3940 C   0  0  0  0  0  2  0  0  0  0  0  0
  191.5370  176.7240  146.1330 C   0  0  0  0  0  2  0  0  0  0  0  0
  191.9960  177.3720  148.3890 O   0  0  0  0  0  1  0  0  0  0  0  0
  191.0950  176.6700  147.5850 C   0  0  1  0  0  3  0  0  0  0  0  0
  188.7190  176.6130  147.2670 O   0  0  0  0  0  0  0  0  0  0  0  0
  189.7170  177.2320  147.7200 C   0  0  0  0  0  0  0  0  0  0  0  0
  189.5300  178.4230  148.4080 O   0  0  0  0  0  1  0  0  0  0  0  0
  183.6120  179.7090  144.3440 C   0  0  0  0  0  2  0  0  0  0  0  0
  183.4560  179.0610  145.6050 O   0  0  0  0  0  0  0  0  0  0  0  0
  184.5140  178.4960  146.2950 N   0  0  0  0  0  0  0  0  0  0  0  0
  185.6490  179.0970  146.4600 C   0  0  0  0  0  2  0  0  0  0  0  0
  1 47  1  1  0  0  0
  3  1  1  0  0  0  0
  3  2  1  1  0  0  0
  4  3  1  0  0  0  0
  6  5  1  1  0  0  0
  6  8  1  0  0  0  0
  7  6  1  0  0  0  0
  7 11  1  0  0  0  0
  8  9  1  0  0  0  0
  8  4  1  1  0  0  0
 10  5  1  1  0  0  0
 10 13  1  0  0  0  0
 10  6  1  0  0  0  0
 11  9  1  0  0  0  0
 13 12  1  6  0  0  0
 14 12  1  0  0  0  0
 15 18  1  1  0  0  0
 15 19  1  0  0  0  0
 17 16  2  0  0  0  0
 18 21  2  0  0  0  0
 19 17  1  6  0  0  0
 19 13  1  0  0  0  0
 20 17  1  0  0  0  0
 21 20  1  0  0  0  0
 22 23  1  6  0  0  0
 22 15  1  0  0  0  0
 22 14  1  0  0  0  0
 23 25  1  1  0  0  0
 24 23  1  0  0  0  0
 26 28  1  0  0  0  0
 26  1  1  0  0  0  0
 28 27  1  6  0  0  0
 29 28  1  0  0  0  0
 30 29  1  0  0  0  0
 31 30  1  0  0  0  0
 31 33  1  0  0  0  0
 32 37  1  0  0  0  0
 33 34  1  0  0  0  0
 34 36  1  0  0  0  0
 35 32  2  0  0  0  0
 36 37  1  0  0  0  0
 37 40  1  1  0  0  0
 38 33  1  0  0  0  0
 38 35  1  0  0  0  0
 39 38  2  0  0  0  0
 40 41  1  0  0  0  0
 41 43  1  0  0  0  0
 43 45  1  0  0  0  0
 43 42  1  1  0  0  0
 44 45  2  0  0  0  0
 45 46  1  0  0  0  0
 47 48  1  0  0  0  0
 48 49  1  0  0  0  0
 49 50  2  0  0  0  0
M  END
>  <MODEL>
1

>  <REMARK>
 VINA RESULT:      -7.0      0.000      0.000
  Name = 
  18 active torsions:
  status: ('A' for Active; 'I' for Inactive)
    1  A    between atoms: C_4  and  C_7
    2  A    between atoms: C_4  and  C_43
    3  A    between atoms: C_4  and  O_44
    4  A    between atoms: O_5  and  C_15
    5  A    between atoms: O_5  and  C_36
    6  A    between atoms: C_6  and  C_48
    7  A    between atoms: C_7  and  O_45
    8  A    between atoms: C_9  and  C_40
    9  A    between atoms: C_11  and  C_25
   10  A    between atoms: C_11  and  C_29
   11  A    between atoms: N_12  and  C_36
   12  A    between atoms: C_15  and  C_39
   13  A    between atoms: C_21  and  C_49
   14  A    between atoms: C_23  and  C_25
   15  A    between atoms: C_29  and  C_34
   16  A    between atoms: N_33  and  O_45
   17  A    between atoms: C_39  and  O_44
   18  A    between atoms: C_43  and  C_49
                            x       y       z     vdW  Elec       q    Type
                         _______ _______ _______ _____ _____    ______ ____

>  <TORSDO>
F 18

$$$$
=
 OpenBabel11062414263D

 50 54  0  0  1  0  0  0  0  0999 V2000
  187.4730  177.7480  137.9360 C   0  0  1  0  0  3  0  0  0  0  0  0
  185.6030  179.2050  137.5860 O   0  0  0  0  0  1  0  0  0  0  0  0
  185.9900  178.0060  138.1860 C   0  0  1  0  0  3  0  0  0  0  0  0
  185.1680  176.8470  137.6170 C   0  0  0  0  0  2  0  0  0  0  0  0
  182.6860  176.3260  139.2880 C   0  0  0  0  0  2  0  0  0  0  0  0
  182.6220  176.6320  137.8110 C   0  0  2  0  0  0  0  0  0  0  0  0
  181.7740  175.7690  136.9230 C   0  0  0  0  0  2  0  0  0  0  0  0
  183.7930  177.2460  137.0630 C   0  0  2  0  0  3  0  0  0  0  0  0
  183.5970  176.7940  135.6200 C   0  0  0  0  0  2  0  0  0  0  0  0
  181.8320  177.4940  138.7970 C   0  0  2  0  0  3  0  0  0  0  0  0
  182.2050  176.1700  135.5210 C   0  0  0  0  0  2  0  0  0  0  0  0
  182.1560  179.8280  137.9840 C   0  0  0  0  0  2  0  0  0  0  0  0
  182.5030  178.8390  139.1170 C   0  0  1  0  0  3  0  0  0  0  0  0
  181.3480  181.0540  138.4380 C   0  0  0  0  0  2  0  0  0  0  0  0
  180.5610  179.7120  140.4690 C   0  0  2  0  0  3  0  0  0  0  0  0
  183.4900  177.8940  141.7030 O   0  0  0  0  0  0  0  0  0  0  0  0
  182.4470  178.6000  141.6930 C   0  0  0  0  0  0  0  0  0  0  0  0
  180.0520  180.1610  141.8090 C   0  0  0  0  0  3  0  0  0  0  0  0
  182.0660  179.4050  140.4810 C   0  0  1  0  0  3  0  0  0  0  0  0
  181.6910  178.7690  142.8940 N   0  0  0  0  0  2  0  0  0  0  0  0
  180.5680  179.6590  142.9350 C   0  0  0  0  0  3  0  0  0  0  0  0
  180.1550  180.6800  139.3420 C   0  0  2  0  0  3  0  0  0  0  0  0
  179.0000  180.0980  138.5200 C   0  0  2  0  0  3  0  0  0  0  0  0
  178.9480  178.7100  138.6660 O   0  0  0  0  0  1  0  0  0  0  0  0
  179.1620  180.4270  137.0470 C   0  0  0  0  0  1  0  0  0  0  0  0
  188.0830  177.2320  139.0820 O   0  0  0  0  0  0  0  0  0  0  0  0
  188.4090  178.7380  140.7590 F   0  0  0  0  0  0  0  0  0  0  0  0
  188.8980  178.2660  139.5540 C   0  0  1  0  0  3  0  0  0  0  0  0
  190.3220  177.7700  139.7320 C   0  0  0  0  0  2  0  0  0  0  0  0
  190.3630  176.7080  140.6350 O   0  0  0  0  0  0  0  0  0  0  0  0
  191.1960  177.1430  141.6660 C   0  0  0  0  0  2  0  0  0  0  0  0
  188.4930  177.8580  145.0720 C   0  0  0  0  0  3  0  0  0  0  0  0
  190.4850  177.0780  142.9340 N   0  0  0  0  0  0  0  0  0  0  0  0
  189.7110  175.8740  143.2130 C   0  0  0  0  0  2  0  0  0  0  0  0
  189.7970  178.1360  145.1360 C   0  0  0  0  0  3  0  0  0  0  0  0
  188.2050  176.1450  143.2010 C   0  0  0  0  0  2  0  0  0  0  0  0
  187.7950  177.5010  143.7910 C   0  0  1  0  0  3  0  0  0  0  0  0
  190.7110  178.0410  143.9830 C   0  0  0  0  0  0  0  0  0  0  0  0
  192.0820  178.9420  144.0180 S   0  0  0  0  0  0  0  0  0  0  0  0
  186.2760  177.6180  143.9180 C   0  0  0  0  0  2  0  0  0  0  0  0
  185.7840  177.5250  145.3600 C   0  0  0  0  0  2  0  0  0  0  0  0
  183.9580  178.9300  145.9970 O   0  0  0  0  0  1  0  0  0  0  0  0
  185.3480  178.8840  145.8780 C   0  0  1  0  0  3  0  0  0  0  0  0
  185.9650  180.3120  147.7030 O   0  0  0  0  0  0  0  0  0  0  0  0
  186.0000  179.1610  147.1940 C   0  0  0  0  0  0  0  0  0  0  0  0
  186.5980  178.1210  147.8920 O   0  0  0  0  0  1  0  0  0  0  0  0
  187.6390  176.7600  136.7880 C   0  0  0  0  0  2  0  0  0  0  0  0
  188.6020  175.7640  137.1270 O   0  0  0  0  0  0  0  0  0  0  0  0
  189.7150  175.5010  136.3480 N   0  0  0  0  0  0  0  0  0  0  0  0
  190.8600  176.0740  136.5380 C   0  0  0  0  0  2  0  0  0  0  0  0
  1 47  1  6  0  0  0
  1  3  1  0  0  0  0
  1 26  1  0  0  0  0
  3  2  1  6  0  0  0
  4  3  1  0  0  0  0
  6  7  1  6  0  0  0
  6 10  1  0  0  0  0
  6  5  1  0  0  0  0
  8  4  1  1  0  0  0
  8  6  1  0  0  0  0
  9  8  1  0  0  0  0
 10 13  1  0  0  0  0
 10  5  1  1  0  0  0
 11  9  1  0  0  0  0
 11  7  1  0  0  0  0
 12 14  1  0  0  0  0
 13 12  1  6  0  0  0
 13 19  1  0  0  0  0
 14 22  1  0  0  0  0
 15 19  1  0  0  0  0
 15 18  1  1  0  0  0
 17 16  2  0  0  0  0
 17 20  1  0  0  0  0
 18 21  2  0  0  0  0
 19 17  1  1  0  0  0
 20 21  1  0  0  0  0
 22 23  1  6  0  0  0
 22 15  1  0  0  0  0
 23 25  1  6  0  0  0
 23 24  1  0  0  0  0
 26 28  1  0  0  0  0
 28 29  1  0  0  0  0
 28 27  1  1  0  0  0
 29 30  1  0  0  0  0
 30 31  1  0  0  0  0
 31 33  1  0  0  0  0
 32 35  2  0  0  0  0
 33 34  1  0  0  0  0
 33 38  1  0  0  0  0
 36 34  1  0  0  0  0
 36 37  1  0  0  0  0
 37 40  1  1  0  0  0
 37 32  1  0  0  0  0
 38 39  2  0  0  0  0
 38 35  1  0  0  0  0
 40 41  1  0  0  0  0
 41 43  1  0  0  0  0
 43 42  1  1  0  0  0
 43 45  1  0  0  0  0
 45 44  2  0  0  0  0
 45 46  1  0  0  0  0
 47 48  1  0  0  0  0
 49 50  2  0  0  0  0
 49 48  1  0  0  0  0
M  END
>  <MODEL>
2

>  <REMARK>
 VINA RESULT:      -7.0      2.362      5.905
  Name = 
  18 active torsions:
  status: ('A' for Active; 'I' for Inactive)
    1  A    between atoms: C_4  and  C_7
    2  A    between atoms: C_4  and  C_43
    3  A    between atoms: C_4  and  O_44
    4  A    between atoms: O_5  and  C_15
    5  A    between atoms: O_5  and  C_36
    6  A    between atoms: C_6  and  C_48
    7  A    between atoms: C_7  and  O_45
    8  A    between atoms: C_9  and  C_40
    9  A    between atoms: C_11  and  C_25
   10  A    between atoms: C_11  and  C_29
   11  A    between atoms: N_12  and  C_36
   12  A    between atoms: C_15  and  C_39
   13  A    between atoms: C_21  and  C_49
   14  A    between atoms: C_23  and  C_25
   15  A    between atoms: C_29  and  C_34
   16  A    between atoms: N_33  and  O_45
   17  A    between atoms: C_39  and  O_44
   18  A    between atoms: C_43  and  C_49
                            x       y       z     vdW  Elec       q    Type
                         _______ _______ _______ _____ _____    ______ ____

>  <TORSDO>
F 18

$$$$
=
 OpenBabel11062414263D

 50 54  0  0  1  0  0  0  0  0999 V2000
  183.3010  178.4970  143.5390 C   0  0  1  0  0  3  0  0  0  0  0  0
  181.2390  179.6550  143.1530 O   0  0  0  0  0  1  0  0  0  0  0  0
  182.0540  178.6300  142.6710 C   0  0  1  0  0  3  0  0  0  0  0  0
  182.4680  178.9260  141.2270 C   0  0  0  0  0  2  0  0  0  0  0  0
  183.0280  179.4410  138.2870 C   0  0  0  0  0  2  0  0  0  0  0  0
  181.8320  178.6500  138.7600 C   0  0  2  0  0  0  0  0  0  0  0  0
  180.4790  178.9630  138.1930 C   0  0  0  0  0  2  0  0  0  0  0  0
  181.7460  178.0820  140.1660 C   0  0  2  0  0  3  0  0  0  0  0  0
  180.2500  177.9700  140.4370 C   0  0  0  0  0  2  0  0  0  0  0  0
  182.8070  178.0240  137.7620 C   0  0  2  0  0  3  0  0  0  0  0  0
  179.5260  178.2150  139.1120 C   0  0  0  0  0  2  0  0  0  0  0  0
  183.0870  175.6790  138.5590 C   0  0  0  0  0  2  0  0  0  0  0  0
  183.7990  177.0390  138.4010 C   0  0  1  0  0  3  0  0  0  0  0  0
  183.7260  174.5320  137.7600 C   0  0  0  0  0  2  0  0  0  0  0  0
  184.7640  176.2740  136.2000 C   0  0  2  0  0  3  0  0  0  0  0  0
  185.9850  178.9810  138.3420 O   0  0  0  0  0  0  0  0  0  0  0  0
  185.9490  178.1070  137.4360 C   0  0  0  0  0  0  0  0  0  0  0  0
  185.9660  176.2010  135.3020 C   0  0  0  0  0  3  0  0  0  0  0  0
  185.0870  176.8810  137.5720 C   0  0  1  0  0  3  0  0  0  0  0  0
  186.8510  178.1910  136.3300 N   0  0  0  0  0  2  0  0  0  0  0  0
  186.9070  177.1470  135.3480 C   0  0  0  0  0  3  0  0  0  0  0  0
  184.0320  174.9220  136.2980 C   0  0  2  0  0  3  0  0  0  0  0  0
  182.7560  174.9360  135.4510 C   0  0  2  0  0  3  0  0  0  0  0  0
  182.4250  176.2420  135.0870 O   0  0  0  0  0  1  0  0  0  0  0  0
  181.5900  174.3340  136.2150 C   0  0  0  0  0  1  0  0  0  0  0  0
  184.3570  179.2400  143.0030 O   0  0  0  0  0  0  0  0  0  0  0  0
  185.8340  178.8180  141.3220 F   0  0  0  0  0  0  0  0  0  0  0  0
  185.2180  178.2920  142.4430 C   0  0  1  0  0  3  0  0  0  0  0  0
  186.2650  177.8720  143.4600 C   0  0  0  0  0  2  0  0  0  0  0  0
  187.2280  177.0570  142.8650 O   0  0  0  0  0  0  0  0  0  0  0  0
  188.4320  177.4230  143.4690 C   0  0  0  0  0  2  0  0  0  0  0  0
  191.3640  177.3010  140.1820 C   0  0  0  0  0  3  0  0  0  0  0  0
  189.4130  177.7570  142.4480 N   0  0  0  0  0  0  0  0  0  0  0  0
  188.9960  178.6560  141.3780 C   0  0  0  0  0  2  0  0  0  0  0  0
  191.7320  177.5040  141.4490 C   0  0  0  0  0  3  0  0  0  0  0  0
  188.8960  177.9370  140.0310 C   0  0  0  0  0  2  0  0  0  0  0  0
  189.9780  176.8750  139.7920 C   0  0  1  0  0  3  0  0  0  0  0  0
  190.8070  177.4190  142.5940 C   0  0  0  0  0  0  0  0  0  0  0  0
  191.4450  177.0960  144.0700 S   0  0  0  0  0  0  0  0  0  0  0  0
  189.9270  176.3400  138.3610 C   0  0  0  0  0  2  0  0  0  0  0  0
  191.3020  176.2560  137.7020 C   0  0  0  0  0  2  0  0  0  0  0  0
  191.3100  174.1810  136.5140 O   0  0  0  0  0  1  0  0  0  0  0  0
  191.7990  174.8230  137.6540 C   0  0  1  0  0  3  0  0  0  0  0  0
  193.9320  173.8230  137.2020 O   0  0  0  0  0  0  0  0  0  0  0  0
  193.2940  174.8010  137.6720 C   0  0  0  0  0  0  0  0  0  0  0  0
  193.9860  175.9020  138.1560 O   0  0  0  0  0  1  0  0  0  0  0  0
  183.0040  178.9900  144.9500 C   0  0  0  0  0  2  0  0  0  0  0  0
  184.2170  179.3000  145.6320 O   0  0  0  0  0  0  0  0  0  0  0  0
  184.6860  178.5590  146.7030 N   0  0  0  0  0  0  0  0  0  0  0  0
  185.9250  178.5700  147.0790 C   0  0  0  0  0  2  0  0  0  0  0  0
  1 47  1  1  0  0  0
  3  2  1  1  0  0  0
  3  1  1  0  0  0  0
  4  3  1  0  0  0  0
  5  6  1  0  0  0  0
  6  7  1  6  0  0  0
  6  8  1  0  0  0  0
  7 11  1  0  0  0  0
  8  9  1  0  0  0  0
  8  4  1  1  0  0  0
 10  5  1  1  0  0  0
 10 13  1  0  0  0  0
 10  6  1  0  0  0  0
 11  9  1  0  0  0  0
 13 12  1  6  0  0  0
 14 12  1  0  0  0  0
 15 18  1  1  0  0  0
 15 22  1  0  0  0  0
 15 19  1  0  0  0  0
 17 16  2  0  0  0  0
 18 21  2  0  0  0  0
 19 17  1  6  0  0  0
 19 13  1  0  0  0  0
 20 17  1  0  0  0  0
 21 20  1  0  0  0  0
 22 23  1  6  0  0  0
 22 14  1  0  0  0  0
 23 25  1  1  0  0  0
 24 23  1  0  0  0  0
 26  1  1  0  0  0  0
 28 27  1  6  0  0  0
 28 26  1  0  0  0  0
 28 29  1  0  0  0  0
 30 29  1  0  0  0  0
 30 31  1  0  0  0  0
 32 35  2  0  0  0  0
 33 38  1  0  0  0  0
 33 31  1  0  0  0  0
 34 33  1  0  0  0  0
 35 38  1  0  0  0  0
 36 34  1  0  0  0  0
 37 40  1  6  0  0  0
 37 36  1  0  0  0  0
 37 32  1  0  0  0  0
 38 39  2  0  0  0  0
 41 40  1  0  0  0  0
 43 42  1  6  0  0  0
 43 45  1  0  0  0  0
 43 41  1  0  0  0  0
 44 45  2  0  0  0  0
 45 46  1  0  0  0  0
 47 48  1  0  0  0  0
 48 49  1  0  0  0  0
 49 50  2  0  0  0  0
M  END
>  <MODEL>
3

>  <REMARK>
 VINA RESULT:      -6.6      2.483      4.189
  Name = 
  18 active torsions:
  status: ('A' for Active; 'I' for Inactive)
    1  A    between atoms: C_4  and  C_7
    2  A    between atoms: C_4  and  C_43
    3  A    between atoms: C_4  and  O_44
    4  A    between atoms: O_5  and  C_15
    5  A    between atoms: O_5  and  C_36
    6  A    between atoms: C_6  and  C_48
    7  A    between atoms: C_7  and  O_45
    8  A    between atoms: C_9  and  C_40
    9  A    between atoms: C_11  and  C_25
   10  A    between atoms: C_11  and  C_29
   11  A    between atoms: N_12  and  C_36
   12  A    between atoms: C_15  and  C_39
   13  A    between atoms: C_21  and  C_49
   14  A    between atoms: C_23  and  C_25
   15  A    between atoms: C_29  and  C_34
   16  A    between atoms: N_33  and  O_45
   17  A    between atoms: C_39  and  O_44
   18  A    between atoms: C_43  and  C_49
                            x       y       z     vdW  Elec       q    Type
                         _______ _______ _______ _____ _____    ______ ____

>  <TORSDO>
F 18

$$$$
=
 OpenBabel11062414263D

 50 54  0  0  1  0  0  0  0  0999 V2000
  185.8150  177.9900  143.7060 C   0  0  1  0  0  3  0  0  0  0  0  0
  183.8450  179.2510  144.2260 O   0  0  0  0  0  1  0  0  0  0  0  0
  184.3530  178.2740  143.3700 C   0  0  1  0  0  3  0  0  0  0  0  0
  184.2460  178.7430  141.9170 C   0  0  0  0  0  2  0  0  0  0  0  0
  183.8120  179.5800  139.0300 C   0  0  0  0  0  2  0  0  0  0  0  0
  182.6920  179.0730  139.9070 C   0  0  2  0  0  0  0  0  0  0  0  0
  181.3990  179.8320  139.9510 C   0  0  0  0  0  2  0  0  0  0  0  0
  182.9580  178.3190  141.1990 C   0  0  2  0  0  3  0  0  0  0  0  0
  181.7150  178.5710  142.0450 C   0  0  0  0  0  2  0  0  0  0  0  0
  182.9780  178.3870  138.5710 C   0  0  2  0  0  3  0  0  0  0  0  0
  180.6700  179.2240  141.1390 C   0  0  0  0  0  2  0  0  0  0  0  0
  182.7620  175.9280  138.9180 C   0  0  0  0  0  2  0  0  0  0  0  0
  183.7700  177.0770  138.7060 C   0  0  1  0  0  3  0  0  0  0  0  0
  182.7710  174.8630  137.8100 C   0  0  0  0  0  2  0  0  0  0  0  0
  183.7870  176.5990  136.2290 C   0  0  2  0  0  3  0  0  0  0  0  0
  186.3230  178.3970  138.1640 O   0  0  0  0  0  0  0  0  0  0  0  0
  185.7690  177.7770  137.2190 C   0  0  0  0  0  0  0  0  0  0  0  0
  184.6010  176.4350  134.9770 C   0  0  0  0  0  3  0  0  0  0  0  0
  184.6580  176.7960  137.4790 C   0  0  1  0  0  3  0  0  0  0  0  0
  186.2970  177.8790  135.8940 N   0  0  0  0  0  2  0  0  0  0  0  0
  185.7540  177.0920  134.8250 C   0  0  0  0  0  3  0  0  0  0  0  0
  182.7460  175.4760  136.3940 C   0  0  2  0  0  3  0  0  0  0  0  0
  181.3450  175.9820  136.0350 C   0  0  2  0  0  3  0  0  0  0  0  0
  180.4050  174.9600  136.1800 O   0  0  0  0  0  1  0  0  0  0  0  0
  181.3000  176.4850  134.6030 C   0  0  0  0  0  1  0  0  0  0  0  0
  186.6300  178.2260  142.5950 O   0  0  0  0  0  0  0  0  0  0  0  0
  187.6940  176.2440  142.9510 F   0  0  0  0  0  0  0  0  0  0  0  0
  187.8500  177.6170  142.9070 C   0  0  1  0  0  3  0  0  0  0  0  0
  188.8980  177.9870  141.8720 C   0  0  0  0  0  2  0  0  0  0  0  0
  188.6890  177.2800  140.6870 O   0  0  0  0  0  0  0  0  0  0  0  0
  189.1520  178.1250  139.6780 C   0  0  0  0  0  2  0  0  0  0  0  0
  191.3490  174.9660  137.5300 C   0  0  0  0  0  3  0  0  0  0  0  0
  189.9950  177.3760  138.7580 N   0  0  0  0  0  0  0  0  0  0  0  0
  189.6370  177.3980  137.3440 C   0  0  0  0  0  2  0  0  0  0  0  0
  191.9690  175.8410  138.3250 C   0  0  0  0  0  3  0  0  0  0  0  0
  189.1310  176.0380  136.8600 C   0  0  0  0  0  2  0  0  0  0  0  0
  189.8550  174.8310  137.4710 C   0  0  1  0  0  3  0  0  0  0  0  0
  191.2640  176.8260  139.1660 C   0  0  0  0  0  0  0  0  0  0  0  0
  192.0450  177.4020  140.4880 S   0  0  0  0  0  0  0  0  0  0  0  0
  189.4270  173.5250  136.8020 C   0  0  0  0  0  2  0  0  0  0  0  0
  188.0750  173.6240  136.1000 C   0  0  0  0  0  2  0  0  0  0  0  0
  186.5250  173.2540  137.8830 O   0  0  0  0  0  1  0  0  0  0  0  0
  187.0620  172.6830  136.7270 C   0  0  1  0  0  3  0  0  0  0  0  0
  186.2620  171.9350  134.5940 O   0  0  0  0  0  0  0  0  0  0  0  0
  185.9830  172.3670  135.7430 C   0  0  0  0  0  0  0  0  0  0  0  0
  184.6540  172.4920  136.1240 O   0  0  0  0  0  1  0  0  0  0  0  0
  186.2620  178.8810  144.8580 C   0  0  0  0  0  2  0  0  0  0  0  0
  186.3660  178.1210  146.0600 O   0  0  0  0  0  0  0  0  0  0  0  0
  187.4440  177.2990  146.3380 N   0  0  0  0  0  0  0  0  0  0  0  0
  188.6660  177.7240  146.3640 C   0  0  0  0  0  2  0  0  0  0  0  0
  1 47  1  1  0  0  0
  3  1  1  0  0  0  0
  3  2  1  1  0  0  0
  4  3  1  0  0  0  0
  6  5  1  1  0  0  0
  6  7  1  0  0  0  0
  6  8  1  0  0  0  0
  7 11  1  0  0  0  0
  8  4  1  1  0  0  0
  8  9  1  0  0  0  0
 10 13  1  0  0  0  0
 10  5  1  6  0  0  0
 10  6  1  0  0  0  0
 11  9  1  0  0  0  0
 13 12  1  6  0  0  0
 14 12  1  0  0  0  0
 15 18  1  6  0  0  0
 15 22  1  0  0  0  0
 15 19  1  0  0  0  0
 17 16  2  0  0  0  0
 19 17  1  6  0  0  0
 19 13  1  0  0  0  0
 20 17  1  0  0  0  0
 21 18  2  0  0  0  0
 21 20  1  0  0  0  0
 22 23  1  1  0  0  0
 22 14  1  0  0  0  0
 23 25  1  6  0  0  0
 23 24  1  0  0  0  0
 26 28  1  0  0  0  0
 26  1  1  0  0  0  0
 28 27  1  6  0  0  0
 29 28  1  0  0  0  0
 30 29  1  0  0  0  0
 31 30  1  0  0  0  0
 32 35  2  0  0  0  0
 33 38  1  0  0  0  0
 33 31  1  0  0  0  0
 34 33  1  0  0  0  0
 35 38  1  0  0  0  0
 36 34  1  0  0  0  0
 36 37  1  0  0  0  0
 37 40  1  6  0  0  0
 37 32  1  0  0  0  0
 38 39  2  0  0  0  0
 41 43  1  0  0  0  0
 41 40  1  0  0  0  0
 43 42  1  1  0  0  0
 44 45  2  0  0  0  0
 45 46  1  0  0  0  0
 45 43  1  0  0  0  0
 47 48  1  0  0  0  0
 48 49  1  0  0  0  0
 49 50  2  0  0  0  0
M  END
>  <MODEL>
4

>  <REMARK>
 VINA RESULT:      -6.4      2.501      5.395
  Name = 
  18 active torsions:
  status: ('A' for Active; 'I' for Inactive)
    1  A    between atoms: C_4  and  C_7
    2  A    between atoms: C_4  and  C_43
    3  A    between atoms: C_4  and  O_44
    4  A    between atoms: O_5  and  C_15
    5  A    between atoms: O_5  and  C_36
    6  A    between atoms: C_6  and  C_48
    7  A    between atoms: C_7  and  O_45
    8  A    between atoms: C_9  and  C_40
    9  A    between atoms: C_11  and  C_25
   10  A    between atoms: C_11  and  C_29
   11  A    between atoms: N_12  and  C_36
   12  A    between atoms: C_15  and  C_39
   13  A    between atoms: C_21  and  C_49
   14  A    between atoms: C_23  and  C_25
   15  A    between atoms: C_29  and  C_34
   16  A    between atoms: N_33  and  O_45
   17  A    between atoms: C_39  and  O_44
   18  A    between atoms: C_43  and  C_49
                            x       y       z     vdW  Elec       q    Type
                         _______ _______ _______ _____ _____    ______ ____

>  <TORSDO>
F 18

$$$$
=
 OpenBabel11062414263D

 50 54  0  0  1  0  0  0  0  0999 V2000
  183.1160  178.8330  143.2340 C   0  0  1  0  0  3  0  0  0  0  0  0
  183.7560  178.9960  145.5380 O   0  0  0  0  0  1  0  0  0  0  0  0
  183.9110  179.5990  144.2890 C   0  0  1  0  0  3  0  0  0  0  0  0
  185.3910  179.6180  143.8960 C   0  0  0  0  0  2  0  0  0  0  0  0
  186.8040  177.0040  143.2700 C   0  0  0  0  0  2  0  0  0  0  0  0
  186.7060  177.5600  144.6710 C   0  0  2  0  0  0  0  0  0  0  0  0
  186.2800  176.6530  145.7880 C   0  0  0  0  0  2  0  0  0  0  0  0
  186.3390  179.0090  144.9390 C   0  0  2  0  0  3  0  0  0  0  0  0
  185.7270  178.9910  146.3350 C   0  0  0  0  0  2  0  0  0  0  0  0
  188.0780  177.2350  144.0800 C   0  0  2  0  0  3  0  0  0  0  0  0
  185.9960  177.6100  146.9350 C   0  0  0  0  0  2  0  0  0  0  0  0
  190.0200  178.7330  144.5280 C   0  0  0  0  0  2  0  0  0  0  0  0
  188.8390  178.4680  143.5700 C   0  0  1  0  0  3  0  0  0  0  0  0
  191.4050  178.6220  143.8730 C   0  0  0  0  0  2  0  0  0  0  0  0
  190.3660  177.1480  142.0580 C   0  0  2  0  0  3  0  0  0  0  0  0
  187.1640  178.6910  141.1830 O   0  0  0  0  0  0  0  0  0  0  0  0
  188.2920  178.1450  141.0620 C   0  0  0  0  0  0  0  0  0  0  0  0
  190.8120  176.8520  140.6540 C   0  0  0  0  0  2  0  0  0  0  0  0
  189.3450  178.2920  142.1260 C   0  0  1  0  0  3  0  0  0  0  0  0
  188.6440  177.5050  139.8330 N   0  0  0  0  0  0  0  0  0  0  0  0
  189.9620  176.9780  139.6310 C   0  0  0  0  0  3  0  0  0  0  0  0
  191.5580  177.3500  143.0130 C   0  0  2  0  0  3  0  0  0  0  0  0
  191.7630  176.1110  143.8910 C   0  0  2  0  0  3  0  0  0  0  0  0
  190.8150  175.1330  143.5840 O   0  0  0  0  0  1  0  0  0  0  0  0
  191.6410  176.4620  145.3620 C   0  0  0  0  0  1  0  0  0  0  0  0
  181.9230  179.4980  142.9390 O   0  0  0  0  0  0  0  0  0  0  0  0
  180.5290  178.9570  144.6570 F   0  0  0  0  0  0  0  0  0  0  0  0
  180.9120  178.6320  143.3680 C   0  0  1  0  0  3  0  0  0  0  0  0
  179.7170  178.7210  142.4350 C   0  0  0  0  0  2  0  0  0  0  0  0
  179.9740  178.0430  141.2430 O   0  0  0  0  0  0  0  0  0  0  0  0
  179.2140  178.7070  140.2800 C   0  0  0  0  0  2  0  0  0  0  0  0
  180.8340  180.0870  136.4210 C   0  0  0  0  0  3  0  0  0  0  0  0
  180.0770  179.1580  139.1980 N   0  0  0  0  0  0  0  0  0  0  0  0
  180.7890  180.4180  139.3810 C   0  0  0  0  0  2  0  0  0  0  0  0
  181.0450  178.8480  136.8730 C   0  0  0  0  0  3  0  0  0  0  0  0
  180.2580  181.5150  138.4570 C   0  0  0  0  0  2  0  0  0  0  0  0
  179.8570  181.0330  137.0560 C   0  0  1  0  0  3  0  0  0  0  0  0
  180.4140  178.3020  138.0880 C   0  0  0  0  0  0  0  0  0  0  0  0
  180.2660  176.6720  138.2060 S   0  0  0  0  0  0  0  0  0  0  0  0
  179.5200  182.2070  136.1370 C   0  0  0  0  0  2  0  0  0  0  0  0
  180.7210  182.7080  135.3370 C   0  0  0  0  0  2  0  0  0  0  0  0
  179.5260  184.6590  134.6450 O   0  0  0  0  0  1  0  0  0  0  0  0
  180.7150  184.2220  135.2310 C   0  0  1  0  0  3  0  0  0  0  0  0
  181.9370  184.6240  137.2550 O   0  0  0  0  0  1  0  0  0  0  0  0
  180.8900  184.8280  136.5860 C   0  0  0  0  0  0  0  0  0  0  0  0
  179.9120  185.6770  137.0860 O   0  0  0  0  0  0  0  0  0  0  0  0
  183.9440  178.6940  141.9630 C   0  0  0  0  0  2  0  0  0  0  0  0
  183.0980  178.4220  140.8480 O   0  0  0  0  0  0  0  0  0  0  0  0
  183.5070  177.6700  139.7610 N   0  0  0  0  0  0  0  0  0  0  0  0
  184.1540  178.1730  138.7590 C   0  0  0  0  0  2  0  0  0  0  0  0
  1 47  1  6  0  0  0
  1  3  1  0  0  0  0
  3  2  1  1  0  0  0
  4  3  1  0  0  0  0
  6  5  1  6  0  0  0
  6  8  1  0  0  0  0
  6  7  1  0  0  0  0
  7 11  1  0  0  0  0
  8  4  1  6  0  0  0
  8  9  1  0  0  0  0
  9 11  1  0  0  0  0
 10  5  1  6  0  0  0
 10  6  1  0  0  0  0
 13 10  1  0  0  0  0
 13 12  1  1  0  0  0
 14 12  1  0  0  0  0
 15 18  1  6  0  0  0
 15 19  1  0  0  0  0
 15 22  1  0  0  0  0
 17 16  2  0  0  0  0
 19 17  1  6  0  0  0
 19 13  1  0  0  0  0
 20 17  1  0  0  0  0
 21 20  2  0  0  0  0
 21 18  1  0  0  0  0
 22 14  1  0  0  0  0
 22 23  1  1  0  0  0
 23 25  1  1  0  0  0
 24 23  1  0  0  0  0
 26  1  1  0  0  0  0
 26 28  1  0  0  0  0
 28 27  1  1  0  0  0
 29 28  1  0  0  0  0
 30 29  1  0  0  0  0
 31 30  1  0  0  0  0
 32 35  2  0  0  0  0
 32 37  1  0  0  0  0
 33 34  1  0  0  0  0
 33 31  1  0  0  0  0
 35 38  1  0  0  0  0
 36 34  1  0  0  0  0
 37 40  1  6  0  0  0
 37 36  1  0  0  0  0
 38 39  2  0  0  0  0
 38 33  1  0  0  0  0
 41 40  1  0  0  0  0
 43 42  1  1  0  0  0
 43 41  1  0  0  0  0
 43 45  1  0  0  0  0
 45 46  2  0  0  0  0
 45 44  1  0  0  0  0
 48 47  1  0  0  0  0
 49 48  1  0  0  0  0
 50 49  2  0  0  0  0
M  END
>  <MODEL>
5

>  <REMARK>
 VINA RESULT:      -6.2      3.621      9.978
  Name = 
  18 active torsions:
  status: ('A' for Active; 'I' for Inactive)
    1  A    between atoms: C_4  and  C_7
    2  A    between atoms: C_4  and  C_43
    3  A    between atoms: C_4  and  O_44
    4  A    between atoms: O_5  and  C_15
    5  A    between atoms: O_5  and  C_36
    6  A    between atoms: C_6  and  C_48
    7  A    between atoms: C_7  and  O_45
    8  A    between atoms: C_9  and  C_40
    9  A    between atoms: C_11  and  C_25
   10  A    between atoms: C_11  and  C_29
   11  A    between atoms: N_12  and  C_36
   12  A    between atoms: C_15  and  C_39
   13  A    between atoms: C_21  and  C_49
   14  A    between atoms: C_23  and  C_25
   15  A    between atoms: C_29  and  C_34
   16  A    between atoms: N_33  and  O_45
   17  A    between atoms: C_39  and  O_44
   18  A    between atoms: C_43  and  C_49
                            x       y       z     vdW  Elec       q    Type
                         _______ _______ _______ _____ _____    ______ ____

>  <TORSDO>
F 18

$$$$
=
 OpenBabel11062414263D

 50 54  0  0  1  0  0  0  0  0999 V2000
  182.6090  178.4800  140.5720 C   0  0  1  0  0  3  0  0  0  0  0  0
  182.4920  176.1080  140.2530 O   0  0  0  0  0  1  0  0  0  0  0  0
  182.9280  177.2960  139.6640 C   0  0  1  0  0  3  0  0  0  0  0  0
  182.2390  177.4930  138.3110 C   0  0  0  0  0  2  0  0  0  0  0  0
  183.8270  177.1520  135.7450 C   0  0  0  0  0  2  0  0  0  0  0  0
  182.6270  176.2980  136.0770 C   0  0  2  0  0  0  0  0  0  0  0  0
  181.5700  176.0880  135.0340 C   0  0  0  0  0  2  0  0  0  0  0  0
  182.0670  176.2090  137.4860 C   0  0  2  0  0  3  0  0  0  0  0  0
  180.6000  175.8440  137.2860 C   0  0  0  0  0  2  0  0  0  0  0  0
  183.9670  175.6310  135.7640 C   0  0  2  0  0  3  0  0  0  0  0  0
  180.4180  175.4740  135.8130 C   0  0  0  0  0  2  0  0  0  0  0  0
  184.0330  173.9000  137.5570 C   0  0  0  0  0  2  0  0  0  0  0  0
  184.7320  175.1640  137.0120 C   0  0  1  0  0  3  0  0  0  0  0  0
  184.9100  172.6380  137.5510 C   0  0  0  0  0  2  0  0  0  0  0  0
  186.3450  173.7140  135.7260 C   0  0  2  0  0  3  0  0  0  0  0  0
  186.7910  177.2170  136.6940 O   0  0  0  0  0  0  0  0  0  0  0  0
  187.0530  176.0520  136.2950 C   0  0  0  0  0  0  0  0  0  0  0  0
  187.7670  173.4600  135.3130 C   0  0  0  0  0  3  0  0  0  0  0  0
  186.2160  174.8770  136.7200 C   0  0  1  0  0  3  0  0  0  0  0  0
  188.2520  175.8070  135.5540 N   0  0  0  0  0  2  0  0  0  0  0  0
  188.6290  174.4730  135.1890 C   0  0  0  0  0  3  0  0  0  0  0  0
  185.6450  172.4300  136.2100 C   0  0  2  0  0  3  0  0  0  0  0  0
  184.6930  171.8950  135.1340 C   0  0  2  0  0  3  0  0  0  0  0  0
  183.9340  172.9350  134.5940 O   0  0  0  0  0  1  0  0  0  0  0  0
  183.7520  170.8540  135.7120 C   0  0  0  0  0  1  0  0  0  0  0  0
  183.7670  179.2090  140.8570 O   0  0  0  0  0  0  0  0  0  0  0  0
  183.1390  178.2110  142.8050 F   0  0  0  0  0  0  0  0  0  0  0  0
  183.8130  179.2850  142.2520 C   0  0  1  0  0  3  0  0  0  0  0  0
  185.2550  179.2930  142.7280 C   0  0  0  0  0  2  0  0  0  0  0  0
  185.9330  178.1680  142.2580 O   0  0  0  0  0  0  0  0  0  0  0  0
  187.1080  178.6670  141.6940 C   0  0  0  0  0  2  0  0  0  0  0  0
  190.9320  176.5350  142.1990 C   0  0  0  0  0  3  0  0  0  0  0  0
  188.1570  177.6610  141.7730 N   0  0  0  0  0  0  0  0  0  0  0  0
  188.0080  176.6060  142.7690 C   0  0  0  0  0  2  0  0  0  0  0  0
  190.3880  176.7330  140.9960 C   0  0  0  0  0  3  0  0  0  0  0  0
  189.0350  176.7340  143.8960 C   0  0  0  0  0  2  0  0  0  0  0  0
  190.4250  177.2020  143.4450 C   0  0  1  0  0  3  0  0  0  0  0  0
  189.1850  177.5540  140.7660 C   0  0  0  0  0  0  0  0  0  0  0  0
  188.9710  178.1980  139.2730 S   0  0  0  0  0  0  0  0  0  0  0  0
  191.4390  177.1230  144.5860 C   0  0  0  0  0  2  0  0  0  0  0  0
  190.9980  177.8810  145.8360 C   0  0  0  0  0  2  0  0  0  0  0  0
  191.8240  176.9240  147.8650 O   0  0  0  0  0  1  0  0  0  0  0  0
  190.7370  176.9290  146.9900 C   0  0  1  0  0  3  0  0  0  0  0  0
  188.3870  176.7680  147.4400 O   0  0  0  0  0  0  0  0  0  0  0  0
  189.4850  177.3250  147.7030 C   0  0  0  0  0  0  0  0  0  0  0  0
  189.5460  178.2750  148.7130 O   0  0  0  0  0  1  0  0  0  0  0  0
  181.5930  179.3920  139.8960 C   0  0  0  0  0  2  0  0  0  0  0  0
  180.4250  179.5170  140.7040 O   0  0  0  0  0  0  0  0  0  0  0  0
  180.4440  180.0780  141.9690 N   0  0  0  0  0  0  0  0  0  0  0  0
  179.6750  179.6760  142.9300 C   0  0  0  0  0  2  0  0  0  0  0  0
  1 47  1  6  0  0  0
  1 26  1  0  0  0  0
  3  2  1  1  0  0  0
  3  1  1  0  0  0  0
  4  3  1  0  0  0  0
  5  6  1  0  0  0  0
  6  7  1  6  0  0  0
  6  8  1  0  0  0  0
  7 11  1  0  0  0  0
  8  4  1  6  0  0  0
  9  8  1  0  0  0  0
 10  5  1  1  0  0  0
 10  6  1  0  0  0  0
 10 13  1  0  0  0  0
 11  9  1  0  0  0  0
 13 12  1  6  0  0  0
 14 12  1  0  0  0  0
 15 18  1  1  0  0  0
 15 22  1  0  0  0  0
 15 19  1  0  0  0  0
 17 16  2  0  0  0  0
 19 17  1  6  0  0  0
 19 13  1  0  0  0  0
 20 17  1  0  0  0  0
 21 18  2  0  0  0  0
 21 20  1  0  0  0  0
 22 23  1  6  0  0  0
 22 14  1  0  0  0  0
 23 25  1  1  0  0  0
 24 23  1  0  0  0  0
 26 28  1  0  0  0  0
 28 29  1  0  0  0  0
 28 27  1  1  0  0  0
 30 29  1  0  0  0  0
 31 33  1  0  0  0  0
 31 30  1  0  0  0  0
 32 37  1  0  0  0  0
 33 34  1  0  0  0  0
 34 36  1  0  0  0  0
 35 32  2  0  0  0  0
 37 36  1  0  0  0  0
 37 40  1  1  0  0  0
 38 35  1  0  0  0  0
 38 33  1  0  0  0  0
 39 38  2  0  0  0  0
 40 41  1  0  0  0  0
 41 43  1  0  0  0  0
 43 45  1  0  0  0  0
 43 42  1  1  0  0  0
 44 45  2  0  0  0  0
 45 46  1  0  0  0  0
 47 48  1  0  0  0  0
 48 49  1  0  0  0  0
 49 50  2  0  0  0  0
M  END
>  <MODEL>
6

>  <REMARK>
 VINA RESULT:      -6.2      2.173      3.094
  Name = 
  18 active torsions:
  status: ('A' for Active; 'I' for Inactive)
    1  A    between atoms: C_4  and  C_7
    2  A    between atoms: C_4  and  C_43
    3  A    between atoms: C_4  and  O_44
    4  A    between atoms: O_5  and  C_15
    5  A    between atoms: O_5  and  C_36
    6  A    between atoms: C_6  and  C_48
    7  A    between atoms: C_7  and  O_45
    8  A    between atoms: C_9  and  C_40
    9  A    between atoms: C_11  and  C_25
   10  A    between atoms: C_11  and  C_29
   11  A    between atoms: N_12  and  C_36
   12  A    between atoms: C_15  and  C_39
   13  A    between atoms: C_21  and  C_49
   14  A    between atoms: C_23  and  C_25
   15  A    between atoms: C_29  and  C_34
   16  A    between atoms: N_33  and  O_45
   17  A    between atoms: C_39  and  O_44
   18  A    between atoms: C_43  and  C_49
                            x       y       z     vdW  Elec       q    Type
                         _______ _______ _______ _____ _____    ______ ____

>  <TORSDO>
F 18

$$$$
=
 OpenBabel11062414263D

 50 54  0  0  1  0  0  0  0  0999 V2000
  183.6860  178.6800  143.1700 C   0  0  1  0  0  3  0  0  0  0  0  0
  183.8870  177.1710  141.3200 O   0  0  0  0  0  1  0  0  0  0  0  0
  183.6880  178.5110  141.6540 C   0  0  1  0  0  3  0  0  0  0  0  0
  182.3540  179.0000  141.0850 C   0  0  0  0  0  2  0  0  0  0  0  0
  182.7010  179.2220  138.0760 C   0  0  0  0  0  2  0  0  0  0  0  0
  181.5990  178.4060  138.7090 C   0  0  2  0  0  0  0  0  0  0  0  0
  180.1950  178.5590  138.2020 C   0  0  0  0  0  2  0  0  0  0  0  0
  181.6390  177.9950  140.1710 C   0  0  2  0  0  3  0  0  0  0  0  0
  180.1740  177.8090  140.5500 C   0  0  0  0  0  2  0  0  0  0  0  0
  182.5600  177.7440  137.7210 C   0  0  2  0  0  3  0  0  0  0  0  0
  179.3580  177.8530  139.2570 C   0  0  0  0  0  2  0  0  0  0  0  0
  183.2740  175.4190  138.2700 C   0  0  0  0  0  2  0  0  0  0  0  0
  183.6600  176.9080  138.3950 C   0  0  1  0  0  3  0  0  0  0  0  0
  184.2660  174.5720  137.4580 C   0  0  0  0  0  2  0  0  0  0  0  0
  185.0660  176.7140  136.3100 C   0  0  2  0  0  3  0  0  0  0  0  0
  185.3160  179.2580  138.9310 O   0  0  0  0  0  0  0  0  0  0  0  0
  185.6090  178.5460  137.9350 C   0  0  0  0  0  0  0  0  0  0  0  0
  186.3620  177.0380  135.6220 C   0  0  0  0  0  3  0  0  0  0  0  0
  185.0490  177.1580  137.7790 C   0  0  1  0  0  3  0  0  0  0  0  0
  186.6070  178.9900  137.0120 N   0  0  0  0  0  2  0  0  0  0  0  0
  187.0390  178.1450  135.9360 C   0  0  0  0  0  3  0  0  0  0  0  0
  184.6660  175.2370  136.1250 C   0  0  2  0  0  3  0  0  0  0  0  0
  183.5490  175.1070  135.0840 C   0  0  2  0  0  3  0  0  0  0  0  0
  182.9040  176.3320  134.9040 O   0  0  0  0  0  1  0  0  0  0  0  0
  182.5220  174.0760  135.5170 C   0  0  0  0  0  1  0  0  0  0  0  0
  184.8170  179.3860  143.5890 O   0  0  0  0  0  0  0  0  0  0  0  0
  184.3580  177.7180  145.0700 F   0  0  0  0  0  0  0  0  0  0  0  0
  185.2420  178.7320  144.7490 C   0  0  1  0  0  3  0  0  0  0  0  0
  186.6350  178.1610  144.5460 C   0  0  0  0  0  2  0  0  0  0  0  0
  186.7350  177.5440  143.2990 O   0  0  0  0  0  0  0  0  0  0  0  0
  187.9080  176.7900  143.3640 C   0  0  0  0  0  2  0  0  0  0  0  0
  190.9310  177.5460  140.2480 C   0  0  0  0  0  3  0  0  0  0  0  0
  188.9200  177.3810  142.5010 N   0  0  0  0  0  0  0  0  0  0  0  0
  188.5410  178.5500  141.7160 C   0  0  0  0  0  2  0  0  0  0  0  0
  191.2650  177.3810  141.5300 C   0  0  0  0  0  3  0  0  0  0  0  0
  188.4740  178.2380  140.2200 C   0  0  0  0  0  2  0  0  0  0  0  0
  189.5530  177.2680  139.7200 C   0  0  1  0  0  3  0  0  0  0  0  0
  190.3070  176.9940  142.5820 C   0  0  0  0  0  0  0  0  0  0  0  0
  190.9000  176.2610  143.9240 S   0  0  0  0  0  0  0  0  0  0  0  0
  189.5390  177.1550  138.1960 C   0  0  0  0  0  2  0  0  0  0  0  0
  189.2630  175.7380  137.7000 C   0  0  0  0  0  2  0  0  0  0  0  0
  190.5750  173.7420  137.5880 O   0  0  0  0  0  1  0  0  0  0  0  0
  190.5320  175.0800  137.1890 C   0  0  1  0  0  3  0  0  0  0  0  0
  189.5800  175.4960  135.0280 O   0  0  0  0  0  0  0  0  0  0  0  0
  190.5990  175.1890  135.7000 C   0  0  0  0  0  0  0  0  0  0  0  0
  191.8160  175.0120  135.0570 O   0  0  0  0  0  1  0  0  0  0  0  0
  182.4330  179.4300  143.6050 C   0  0  0  0  0  2  0  0  0  0  0  0
  181.5300  178.5450  144.2640 O   0  0  0  0  0  0  0  0  0  0  0  0
  180.1550  178.6950  144.2040 N   0  0  0  0  0  0  0  0  0  0  0  0
  179.5800  179.6910  143.6110 C   0  0  0  0  0  2  0  0  0  0  0  0
  1 26  1  0  0  0  0
  1 47  1  6  0  0  0
  3  2  1  1  0  0  0
  3  1  1  0  0  0  0
  4  3  1  0  0  0  0
  6  5  1  1  0  0  0
  6  8  1  0  0  0  0
  7  6  1  0  0  0  0
  7 11  1  0  0  0  0
  8  9  1  0  0  0  0
  8  4  1  1  0  0  0
 10  5  1  1  0  0  0
 10 13  1  0  0  0  0
 10  6  1  0  0  0  0
 11  9  1  0  0  0  0
 13 12  1  6  0  0  0
 14 12  1  0  0  0  0
 15 18  1  1  0  0  0
 15 19  1  0  0  0  0
 17 16  2  0  0  0  0
 18 21  2  0  0  0  0
 19 17  1  6  0  0  0
 19 13  1  0  0  0  0
 20 17  1  0  0  0  0
 21 20  1  0  0  0  0
 22 23  1  6  0  0  0
 22 15  1  0  0  0  0
 22 14  1  0  0  0  0
 23 25  1  1  0  0  0
 24 23  1  0  0  0  0
 26 28  1  0  0  0  0
 28 27  1  6  0  0  0
 29 28  1  0  0  0  0
 30 31  1  0  0  0  0
 30 29  1  0  0  0  0
 32 35  2  0  0  0  0
 33 38  1  0  0  0  0
 33 31  1  0  0  0  0
 34 33  1  0  0  0  0
 35 38  1  0  0  0  0
 36 34  1  0  0  0  0
 37 40  1  6  0  0  0
 37 36  1  0  0  0  0
 37 32  1  0  0  0  0
 38 39  2  0  0  0  0
 41 40  1  0  0  0  0
 43 42  1  6  0  0  0
 43 41  1  0  0  0  0
 44 45  2  0  0  0  0
 45 43  1  0  0  0  0
 46 45  1  0  0  0  0
 47 48  1  0  0  0  0
 49 48  1  0  0  0  0
 50 49  2  0  0  0  0
M  END
>  <MODEL>
7

>  <REMARK>
 VINA RESULT:      -6.1      2.506      4.642
  Name = 
  18 active torsions:
  status: ('A' for Active; 'I' for Inactive)
    1  A    between atoms: C_4  and  C_7
    2  A    between atoms: C_4  and  C_43
    3  A    between atoms: C_4  and  O_44
    4  A    between atoms: O_5  and  C_15
    5  A    between atoms: O_5  and  C_36
    6  A    between atoms: C_6  and  C_48
    7  A    between atoms: C_7  and  O_45
    8  A    between atoms: C_9  and  C_40
    9  A    between atoms: C_11  and  C_25
   10  A    between atoms: C_11  and  C_29
   11  A    between atoms: N_12  and  C_36
   12  A    between atoms: C_15  and  C_39
   13  A    between atoms: C_21  and  C_49
   14  A    between atoms: C_23  and  C_25
   15  A    between atoms: C_29  and  C_34
   16  A    between atoms: N_33  and  O_45
   17  A    between atoms: C_39  and  O_44
   18  A    between atoms: C_43  and  C_49
                            x       y       z     vdW  Elec       q    Type
                         _______ _______ _______ _____ _____    ______ ____

>  <TORSDO>
F 18

$$$$
=
 OpenBabel11062414263D

 50 54  0  0  1  0  0  0  0  0999 V2000
  182.9760  178.8030  143.4690 C   0  0  1  0  0  3  0  0  0  0  0  0
  183.7580  179.0050  145.7260 O   0  0  0  0  0  1  0  0  0  0  0  0
  183.8240  179.5940  144.4620 C   0  0  1  0  0  3  0  0  0  0  0  0
  185.2750  179.6300  143.9770 C   0  0  0  0  0  2  0  0  0  0  0  0
  186.6850  177.0390  143.2550 C   0  0  0  0  0  2  0  0  0  0  0  0
  186.6650  177.5890  144.6610 C   0  0  2  0  0  0  0  0  0  0  0  0
  186.3220  176.6730  145.7990 C   0  0  0  0  0  2  0  0  0  0  0  0
  186.2950  179.0330  144.9570 C   0  0  2  0  0  3  0  0  0  0  0  0
  185.7700  179.0020  146.3880 C   0  0  0  0  0  2  0  0  0  0  0  0
  188.0030  177.2860  143.9860 C   0  0  2  0  0  3  0  0  0  0  0  0
  186.0960  177.6230  146.9640 C   0  0  0  0  0  2  0  0  0  0  0  0
  189.9360  178.8220  144.3290 C   0  0  0  0  0  2  0  0  0  0  0  0
  188.7130  178.5320  143.4330 C   0  0  1  0  0  3  0  0  0  0  0  0
  191.2880  178.7360  143.6040 C   0  0  0  0  0  2  0  0  0  0  0  0
  190.1860  177.2360  141.8490 C   0  0  2  0  0  3  0  0  0  0  0  0
  186.9140  178.7150  141.1350 O   0  0  0  0  0  0  0  0  0  0  0  0
  188.0440  178.1900  140.9580 C   0  0  0  0  0  0  0  0  0  0  0  0
  190.5640  176.9440  140.4250 C   0  0  0  0  0  2  0  0  0  0  0  0
  189.1470  178.3610  141.9660 C   0  0  1  0  0  3  0  0  0  0  0  0
  188.3450  177.5520  139.7140 N   0  0  0  0  0  0  0  0  0  0  0  0
  189.6620  177.0500  139.4470 C   0  0  0  0  0  3  0  0  0  0  0  0
  191.4210  177.4630  142.7410 C   0  0  2  0  0  3  0  0  0  0  0  0
  191.6940  176.2310  143.6100 C   0  0  2  0  0  3  0  0  0  0  0  0
  190.7300  175.2480  143.3810 O   0  0  0  0  0  1  0  0  0  0  0  0
  191.6800  176.5930  145.0840 C   0  0  0  0  0  1  0  0  0  0  0  0
  181.7790  179.4710  143.2010 O   0  0  0  0  0  0  0  0  0  0  0  0
  180.1360  179.0040  144.7080 F   0  0  0  0  0  0  0  0  0  0  0  0
  180.7730  178.5690  143.5600 C   0  0  1  0  0  3  0  0  0  0  0  0
  179.7670  178.4310  142.4300 C   0  0  0  0  0  2  0  0  0  0  0  0
  180.1830  177.4600  141.5190 O   0  0  0  0  0  0  0  0  0  0  0  0
  179.1530  177.3830  140.5800 C   0  0  0  0  0  2  0  0  0  0  0  0
  181.8180  176.7670  137.1240 C   0  0  0  0  0  3  0  0  0  0  0  0
  179.7070  177.0890  139.2660 N   0  0  0  0  0  0  0  0  0  0  0  0
  179.5480  175.7330  138.7540 C   0  0  0  0  0  2  0  0  0  0  0  0
  180.9920  177.8120  137.2000 C   0  0  0  0  0  3  0  0  0  0  0  0
  180.8810  174.9840  138.6930 C   0  0  0  0  0  2  0  0  0  0  0  0
  182.0810  175.8470  138.2820 C   0  0  1  0  0  3  0  0  0  0  0  0
  180.1830  178.1320  138.3920 C   0  0  0  0  0  0  0  0  0  0  0  0
  179.7010  179.6860  138.5940 S   0  0  0  0  0  0  0  0  0  0  0  0
  183.3310  174.9950  138.0600 C   0  0  0  0  0  2  0  0  0  0  0  0
  183.3140  174.2370  136.7350 C   0  0  0  0  0  2  0  0  0  0  0  0
  184.9330  172.9830  137.9690 O   0  0  0  0  0  1  0  0  0  0  0  0
  184.1370  172.9640  136.8220 C   0  0  1  0  0  3  0  0  0  0  0  0
  182.0400  171.8690  137.2150 O   0  0  0  0  0  1  0  0  0  0  0  0
  183.2330  171.7730  136.8260 C   0  0  0  0  0  0  0  0  0  0  0  0
  183.7000  170.5610  136.3360 O   0  0  0  0  0  0  0  0  0  0  0  0
  183.7480  178.6090  142.1700 C   0  0  0  0  0  2  0  0  0  0  0  0
  182.9230  178.9310  141.0520 O   0  0  0  0  0  0  0  0  0  0  0  0
  183.3550  178.8120  139.7430 N   0  0  0  0  0  0  0  0  0  0  0  0
  183.8510  179.8010  139.0710 C   0  0  0  0  0  2  0  0  0  0  0  0
  1 47  1  6  0  0  0
  1  3  1  0  0  0  0
  3  2  1  1  0  0  0
  4  3  1  0  0  0  0
  6  5  1  6  0  0  0
  6  8  1  0  0  0  0
  6  7  1  0  0  0  0
  7 11  1  0  0  0  0
  8  4  1  6  0  0  0
  8  9  1  0  0  0  0
  9 11  1  0  0  0  0
 10  5  1  6  0  0  0
 10  6  1  0  0  0  0
 13 10  1  0  0  0  0
 13 12  1  1  0  0  0
 14 12  1  0  0  0  0
 15 18  1  6  0  0  0
 15 19  1  0  0  0  0
 15 22  1  0  0  0  0
 17 16  2  0  0  0  0
 19 17  1  6  0  0  0
 19 13  1  0  0  0  0
 20 17  1  0  0  0  0
 21 20  2  0  0  0  0
 21 18  1  0  0  0  0
 22 14  1  0  0  0  0
 22 23  1  1  0  0  0
 23 25  1  1  0  0  0
 24 23  1  0  0  0  0
 26  1  1  0  0  0  0
 26 28  1  0  0  0  0
 28 27  1  1  0  0  0
 29 28  1  0  0  0  0
 30 29  1  0  0  0  0
 31 30  1  0  0  0  0
 32 35  2  0  0  0  0
 32 37  1  0  0  0  0
 33 31  1  0  0  0  0
 34 33  1  0  0  0  0
 35 38  1  0  0  0  0
 36 34  1  0  0  0  0
 37 40  1  6  0  0  0
 37 36  1  0  0  0  0
 38 39  2  0  0  0  0
 38 33  1  0  0  0  0
 41 43  1  0  0  0  0
 41 40  1  0  0  0  0
 43 45  1  0  0  0  0
 43 42  1  1  0  0  0
 45 44  1  0  0  0  0
 46 45  2  0  0  0  0
 48 47  1  0  0  0  0
 49 48  1  0  0  0  0
 50 49  2  0  0  0  0
M  END
>  <MODEL>
8

>  <REMARK>
 VINA RESULT:      -5.9      3.105      9.047
  Name = 
  18 active torsions:
  status: ('A' for Active; 'I' for Inactive)
    1  A    between atoms: C_4  and  C_7
    2  A    between atoms: C_4  and  C_43
    3  A    between atoms: C_4  and  O_44
    4  A    between atoms: O_5  and  C_15
    5  A    between atoms: O_5  and  C_36
    6  A    between atoms: C_6  and  C_48
    7  A    between atoms: C_7  and  O_45
    8  A    between atoms: C_9  and  C_40
    9  A    between atoms: C_11  and  C_25
   10  A    between atoms: C_11  and  C_29
   11  A    between atoms: N_12  and  C_36
   12  A    between atoms: C_15  and  C_39
   13  A    between atoms: C_21  and  C_49
   14  A    between atoms: C_23  and  C_25
   15  A    between atoms: C_29  and  C_34
   16  A    between atoms: N_33  and  O_45
   17  A    between atoms: C_39  and  O_44
   18  A    between atoms: C_43  and  C_49
                            x       y       z     vdW  Elec       q    Type
                         _______ _______ _______ _____ _____    ______ ____

>  <TORSDO>
F 18

$$$$
=
 OpenBabel11062414263D

 50 54  0  0  1  0  0  0  0  0999 V2000
  191.0990  176.3170  138.7280 C   0  0  1  0  0  3  0  0  0  0  0  0
  191.8800  177.8850  140.3620 O   0  0  0  0  0  1  0  0  0  0  0  0
  191.3240  176.6150  140.2070 C   0  0  1  0  0  3  0  0  0  0  0  0
  189.9880  176.5340  140.9510 C   0  0  0  0  0  2  0  0  0  0  0  0
  188.6800  179.1020  141.9080 C   0  0  0  0  0  2  0  0  0  0  0  0
  189.6890  178.3460  142.7390 C   0  0  2  0  0  0  0  0  0  0  0  0
  190.8180  179.0980  143.3800 C   0  0  0  0  0  2  0  0  0  0  0  0
  190.0590  176.9030  142.4400 C   0  0  2  0  0  3  0  0  0  0  0  0
  191.4670  176.7500  143.0060 C   0  0  0  0  0  2  0  0  0  0  0  0
  188.3100  178.6560  143.3210 C   0  0  2  0  0  3  0  0  0  0  0  0
  191.7630  177.9990  143.8380 C   0  0  0  0  0  2  0  0  0  0  0  0
  187.7930  176.4480  144.3560 C   0  0  0  0  0  2  0  0  0  0  0  0
  187.3410  177.4630  143.2850 C   0  0  1  0  0  3  0  0  0  0  0  0
  186.7640  176.2000  145.4700 C   0  0  0  0  0  2  0  0  0  0  0  0
  185.7210  178.4740  144.9330 C   0  0  2  0  0  3  0  0  0  0  0  0
  185.6280  178.7300  141.2820 O   0  0  0  0  0  0  0  0  0  0  0  0
  185.2650  178.7840  142.4860 C   0  0  0  0  0  0  0  0  0  0  0  0
  184.3400  179.0090  145.1850 C   0  0  0  0  0  2  0  0  0  0  0  0
  185.8790  177.8850  143.5240 C   0  0  1  0  0  3  0  0  0  0  0  0
  184.1450  179.5930  142.8560 N   0  0  0  0  0  0  0  0  0  0  0  0
  183.6420  179.5790  144.1990 C   0  0  0  0  0  3  0  0  0  0  0  0
  186.1790  177.5090  146.0430 C   0  0  2  0  0  3  0  0  0  0  0  0
  187.1770  178.1970  146.9800 C   0  0  2  0  0  3  0  0  0  0  0  0
  187.6410  177.3000  147.9440 O   0  0  0  0  0  1  0  0  0  0  0  0
  186.5340  179.3780  147.6840 C   0  0  0  0  0  1  0  0  0  0  0  0
  190.1670  177.2040  138.1820 O   0  0  0  0  0  0  0  0  0  0  0  0
  189.5170  175.0680  137.7320 F   0  0  0  0  0  0  0  0  0  0  0  0
  189.2960  176.4010  137.4380 C   0  0  1  0  0  3  0  0  0  0  0  0
  187.8550  176.7680  137.7470 C   0  0  0  0  0  2  0  0  0  0  0  0
  187.1680  177.0850  136.5750 O   0  0  0  0  0  0  0  0  0  0  0  0
  187.0930  175.8860  135.8660 C   0  0  0  0  0  2  0  0  0  0  0  0
  183.3800  174.3570  137.6820 C   0  0  0  0  0  3  0  0  0  0  0  0
  185.8090  175.2460  136.1150 N   0  0  0  0  0  0  0  0  0  0  0  0
  184.6550  175.7340  135.3680 C   0  0  0  0  0  2  0  0  0  0  0  0
  184.3950  173.5500  137.3640 C   0  0  0  0  0  3  0  0  0  0  0  0
  183.6570  176.4640  136.2680 C   0  0  0  0  0  2  0  0  0  0  0  0
  183.4920  175.8540  137.6670 C   0  0  1  0  0  3  0  0  0  0  0  0
  185.7030  174.0300  136.8820 C   0  0  0  0  0  0  0  0  0  0  0  0
  187.0030  173.0520  137.0950 S   0  0  0  0  0  0  0  0  0  0  0  0
  182.3480  176.5190  138.4330 C   0  0  0  0  0  2  0  0  0  0  0  0
  182.7660  177.0350  139.8080 C   0  0  0  0  0  2  0  0  0  0  0  0
  182.4970  179.1350  138.6980 O   0  0  0  0  0  1  0  0  0  0  0  0
  182.4690  178.5170  139.9500 C   0  0  1  0  0  3  0  0  0  0  0  0
  181.0000  178.5450  141.8450 O   0  0  0  0  0  1  0  0  0  0  0  0
  181.1390  178.7090  140.6050 C   0  0  0  0  0  0  0  0  0  0  0  0
  180.0590  179.1360  139.8440 O   0  0  0  0  0  0  0  0  0  0  0  0
  192.4150  176.4400  137.9700 C   0  0  0  0  0  2  0  0  0  0  0  0
  193.1800  175.2450  138.1110 O   0  0  0  0  0  0  0  0  0  0  0  0
  194.5630  175.2430  138.1760 N   0  0  0  0  0  0  0  0  0  0  0  0
  195.2470  174.2290  138.6000 C   0  0  0  0  0  2  0  0  0  0  0  0
  1 47  1  6  0  0  0
  1  3  1  0  0  0  0
  3  2  1  6  0  0  0
  3  4  1  0  0  0  0
  6  5  1  6  0  0  0
  6 10  1  0  0  0  0
  6  7  1  0  0  0  0
  7 11  1  0  0  0  0
  8  4  1  6  0  0  0
  8  6  1  0  0  0  0
  8  9  1  0  0  0  0
  9 11  1  0  0  0  0
 10  5  1  6  0  0  0
 12 14  1  0  0  0  0
 13 10  1  0  0  0  0
 13 19  1  0  0  0  0
 13 12  1  1  0  0  0
 14 22  1  0  0  0  0
 15 18  1  1  0  0  0
 15 22  1  0  0  0  0
 16 17  2  0  0  0  0
 17 20  1  0  0  0  0
 19 17  1  6  0  0  0
 19 15  1  0  0  0  0
 20 21  2  0  0  0  0
 21 18  1  0  0  0  0
 22 23  1  6  0  0  0
 23 25  1  1  0  0  0
 23 24  1  0  0  0  0
 26  1  1  0  0  0  0
 28 27  1  1  0  0  0
 28 29  1  0  0  0  0
 28 26  1  0  0  0  0
 30 29  1  0  0  0  0
 31 33  1  0  0  0  0
 31 30  1  0  0  0  0
 33 38  1  0  0  0  0
 34 33  1  0  0  0  0
 34 36  1  0  0  0  0
 35 32  2  0  0  0  0
 36 37  1  0  0  0  0
 37 32  1  0  0  0  0
 37 40  1  6  0  0  0
 38 39  2  0  0  0  0
 38 35  1  0  0  0  0
 40 41  1  0  0  0  0
 41 43  1  0  0  0  0
 43 42  1  6  0  0  0
 43 45  1  0  0  0  0
 45 44  1  0  0  0  0
 46 45  2  0  0  0  0
 47 48  1  0  0  0  0
 48 49  1  0  0  0  0
 49 50  2  0  0  0  0
M  END
>  <MODEL>
9

>  <REMARK>
 VINA RESULT:      -5.8      2.925      9.670
  Name = 
  18 active torsions:
  status: ('A' for Active; 'I' for Inactive)
    1  A    between atoms: C_4  and  C_7
    2  A    between atoms: C_4  and  C_43
    3  A    between atoms: C_4  and  O_44
    4  A    between atoms: O_5  and  C_15
    5  A    between atoms: O_5  and  C_36
    6  A    between atoms: C_6  and  C_48
    7  A    between atoms: C_7  and  O_45
    8  A    between atoms: C_9  and  C_40
    9  A    between atoms: C_11  and  C_25
   10  A    between atoms: C_11  and  C_29
   11  A    between atoms: N_12  and  C_36
   12  A    between atoms: C_15  and  C_39
   13  A    between atoms: C_21  and  C_49
   14  A    between atoms: C_23  and  C_25
   15  A    between atoms: C_29  and  C_34
   16  A    between atoms: N_33  and  O_45
   17  A    between atoms: C_39  and  O_44
   18  A    between atoms: C_43  and  C_49
                            x       y       z     vdW  Elec       q    Type
                         _______ _______ _______ _____ _____    ______ ____

>  <TORSDO>
F 18

$$$$
