=
 OpenBabel11062416073D

 43 47  0  0  1  0  0  0  0  0999 V2000
  188.8230  178.6900  139.7180 C   0  0  1  0  0  3  0  0  0  0  0  0
  190.0390  176.9970  138.2130 N   0  0  0  0  0  0  0  0  0  0  0  0
  190.2800  176.8070  139.5900 C   0  0  0  0  0  0  0  0  0  0  0  0
  189.6710  177.7540  140.4430 N   0  0  0  0  0  2  0  0  0  0  0  0
  190.9880  175.8630  140.0340 O   0  0  0  0  0  0  0  0  0  0  0  0
  189.1300  178.4820  137.9110 S   0  0  0  0  0  0  0  0  0  0  0  0
  187.3700  178.3990  140.0410 C   0  0  0  0  0  2  0  0  0  0  0  0
  184.7960  178.6240  142.5160 C   0  0  0  0  0  0  0  0  0  0  0  0
  185.9900  178.4690  142.0170 C   0  0  0  0  0  0  0  0  0  0  0  0
  183.1910  179.4340  144.2720 C   0  0  0  0  0  3  0  0  0  0  0  0
  183.6290  178.2990  141.6870 C   0  0  0  0  0  3  0  0  0  0  0  0
  182.3980  178.5530  142.1280 C   0  0  0  0  0  3  0  0  0  0  0  0
  184.6220  179.0810  143.9420 C   0  0  1  0  0  3  0  0  0  0  0  0
  182.1760  179.1730  143.4470 C   0  0  0  0  0  3  0  0  0  0  0  0
  187.1770  178.3070  141.5110 C   0  0  0  0  0  3  0  0  0  0  0  0
  185.0920  178.0490  144.8560 N   0  0  0  0  0  2  0  0  0  0  0  0
  184.9630  178.6050  147.1160 O   0  0  0  0  0  1  0  0  0  0  0  0
  185.7510  178.7110  145.9730 C   0  0  1  0  0  3  0  0  0  0  0  0
  190.0800  176.8440  144.2800 C   0  0  0  0  0  1  0  0  0  0  0  0
  187.1010  178.1210  146.2300 C   0  0  0  0  0  0  0  0  0  0  0  0
  191.2260  176.4100  147.1350 Cl  0  0  0  0  0  0  0  0  0  0  0  0
  187.9390  177.7430  145.1710 C   0  0  0  0  0  3  0  0  0  0  0  0
  189.6410  177.0630  146.7560 C   0  0  0  0  0  0  0  0  0  0  0  0
  188.8020  177.4390  147.8090 C   0  0  0  0  0  3  0  0  0  0  0  0
  187.5370  177.9620  147.5480 C   0  0  0  0  0  3  0  0  0  0  0  0
  189.2040  177.2090  145.4300 C   0  0  0  0  0  0  0  0  0  0  0  0
  190.3170  175.9790  137.2040 C   0  0  2  0  0  3  0  0  0  0  0  0
  194.0170  173.8220  137.7700 C   0  0  0  0  0  2  0  0  0  0  0  0
  191.5380  176.3260  136.4900 N   0  0  0  0  0  2  0  0  0  0  0  0
  192.8190  174.6250  137.5240 N   0  0  0  0  0  0  0  0  0  0  0  0
  196.3720  175.9090  135.8410 O   0  0  0  0  0  1  0  0  0  0  0  0
  195.2820  174.6310  137.5290 C   0  0  0  0  0  2  0  0  0  0  0  0
  192.7700  175.6370  136.7040 C   0  0  0  0  0  0  0  0  0  0  0  0
  195.1960  175.2220  136.1330 C   0  0  1  0  0  3  0  0  0  0  0  0
  194.0170  176.1890  136.0600 C   0  0  0  0  0  2  0  0  0  0  0  0
  187.9930  175.0950  136.8370 C   0  0  0  0  0  2  0  0  0  0  0  0
  189.1580  175.8230  136.2210 C   0  0  2  0  0  3  0  0  0  0  0  0
  187.3720  174.3250  135.6840 C   0  0  2  0  0  3  0  0  0  0  0  0
  188.3430  174.2610  134.5940 N   0  0  0  0  0  2  0  0  0  0  0  0
  189.5490  174.9400  135.0610 C   0  0  0  0  0  2  0  0  0  0  0  0
  184.9290  173.9890  135.2230 C   0  0  0  0  0  1  0  0  0  0  0  0
  186.0790  174.9740  135.1880 C   0  0  1  0  0  3  0  0  0  0  0  0
  185.7610  176.1030  135.9440 O   0  0  0  0  0  1  0  0  0  0  0  0
  1  7  1  6  0  0  0
  1  4  1  0  0  0  0
  2  3  1  0  0  0  0
  3  5  2  0  0  0  0
  3  4  1  0  0  0  0
  6  2  1  0  0  0  0
  6  1  1  0  0  0  0
  7 15  1  0  0  0  0
  8 13  1  0  0  0  0
  9  8  2  0  0  0  0
 11 12  2  0  0  0  0
 11  8  1  0  0  0  0
 12 14  1  0  0  0  0
 13 10  1  0  0  0  0
 13 16  1  1  0  0  0
 14 10  2  0  0  0  0
 15  9  2  0  0  0  0
 16 18  1  0  0  0  0
 18 20  1  0  0  0  0
 18 17  1  1  0  0  0
 19 26  1  0  0  0  0
 20 25  1  0  0  0  0
 22 26  1  0  0  0  0
 22 20  2  0  0  0  0
 23 21  1  0  0  0  0
 23 24  1  0  0  0  0
 25 24  2  0  0  0  0
 26 23  2  0  0  0  0
 27 29  1  6  0  0  0
 27  2  1  0  0  0  0
 29 33  1  0  0  0  0
 30 28  1  0  0  0  0
 32 28  1  0  0  0  0
 33 30  2  0  0  0  0
 34 31  1  1  0  0  0
 34 32  1  0  0  0  0
 35 34  1  0  0  0  0
 35 33  1  0  0  0  0
 37 36  1  0  0  0  0
 37 27  1  1  0  0  0
 38 42  1  6  0  0  0
 38 36  1  0  0  0  0
 39 40  1  0  0  0  0
 39 38  1  0  0  0  0
 40 37  1  0  0  0  0
 42 41  1  1  0  0  0
 42 43  1  0  0  0  0
M  END
>  <MODEL>
1

>  <REMARK>
 VINA RESULT:      -9.8      0.000      0.000
  Name = 
  9 active torsions:
  status: ('A' for Active; 'I' for Inactive)
    1  A    between atoms: C_1  and  C_7
    2  A    between atoms: C_7  and  C_43
    3  A    between atoms: N_8  and  C_10
    4  A    between atoms: C_10  and  N_17
    5  A    between atoms: C_10  and  C_19
    6  A    between atoms: C_13  and  C_29
    7  A    between atoms: C_29  and  N_30
    8  A    between atoms: N_30  and  C_38
    9  A    between atoms: C_31  and  C_37
                            x       y       z     vdW  Elec       q    Type
                         _______ _______ _______ _____ _____    ______ ____

>  <TORSDO>
F 9

$$$$
=
 OpenBabel11062416073D

 43 47  0  0  1  0  0  0  0  0999 V2000
  188.8350  178.6730  139.5910 C   0  0  1  0  0  3  0  0  0  0  0  0
  190.0490  177.0530  138.0070 N   0  0  0  0  0  0  0  0  0  0  0  0
  190.3210  176.8220  139.3720 C   0  0  0  0  0  0  0  0  0  0  0  0
  189.7130  177.7290  140.2680 N   0  0  0  0  0  2  0  0  0  0  0  0
  191.0540  175.8770  139.7700 O   0  0  0  0  0  0  0  0  0  0  0  0
  189.1090  178.5310  137.7730 S   0  0  0  0  0  0  0  0  0  0  0  0
  187.3940  178.3450  139.9320 C   0  0  0  0  0  2  0  0  0  0  0  0
  184.8580  178.6140  142.4420 C   0  0  0  0  0  0  0  0  0  0  0  0
  186.0430  178.4390  141.9270 C   0  0  0  0  0  0  0  0  0  0  0  0
  183.2910  179.4510  144.2200 C   0  0  0  0  0  3  0  0  0  0  0  0
  183.6750  178.3080  141.6290 C   0  0  0  0  0  3  0  0  0  0  0  0
  182.4540  178.5820  142.0880 C   0  0  0  0  0  3  0  0  0  0  0  0
  184.7120  179.0740  143.8700 C   0  0  1  0  0  3  0  0  0  0  0  0
  182.2610  179.2060  143.4090 C   0  0  0  0  0  3  0  0  0  0  0  0
  187.2200  178.2570  141.4050 C   0  0  0  0  0  3  0  0  0  0  0  0
  185.1770  178.0350  144.7780 N   0  0  0  0  0  2  0  0  0  0  0  0
  185.0050  178.5660  147.0420 O   0  0  0  0  0  1  0  0  0  0  0  0
  185.8130  178.6880  145.9140 C   0  0  1  0  0  3  0  0  0  0  0  0
  190.1690  176.8380  144.2770 C   0  0  0  0  0  1  0  0  0  0  0  0
  187.1620  178.1040  146.1890 C   0  0  0  0  0  0  0  0  0  0  0  0
  191.2810  176.4080  147.1460 Cl  0  0  0  0  0  0  0  0  0  0  0  0
  188.0140  177.7280  145.1400 C   0  0  0  0  0  3  0  0  0  0  0  0
  189.6990  177.0560  146.7470 C   0  0  0  0  0  0  0  0  0  0  0  0
  188.8450  177.4280  147.7890 C   0  0  0  0  0  3  0  0  0  0  0  0
  187.5810  177.9470  147.5110 C   0  0  0  0  0  3  0  0  0  0  0  0
  189.2780  177.1990  145.4150 C   0  0  0  0  0  0  0  0  0  0  0  0
  190.3250  176.0740  136.9590 C   0  0  2  0  0  3  0  0  0  0  0  0
  186.5130  175.4700  135.0150 C   0  0  0  0  0  2  0  0  0  0  0  0
  189.5160  174.8840  137.1840 N   0  0  0  0  0  2  0  0  0  0  0  0
  187.7820  175.5920  135.7360 N   0  0  0  0  0  0  0  0  0  0  0  0
  185.2980  172.4380  136.7340 O   0  0  0  0  0  1  0  0  0  0  0  0
  185.5230  174.6110  135.7850 C   0  0  0  0  0  2  0  0  0  0  0  0
  188.2390  174.7010  136.5700 C   0  0  0  0  0  0  0  0  0  0  0  0
  186.2000  173.2870  136.0950 C   0  0  1  0  0  3  0  0  0  0  0  0
  187.3980  173.5290  137.0100 C   0  0  0  0  0  2  0  0  0  0  0  0
  192.4180  176.0320  135.5700 C   0  0  0  0  0  2  0  0  0  0  0  0
  191.8050  175.7020  136.9040 C   0  0  2  0  0  3  0  0  0  0  0  0
  193.4730  174.9600  135.3590 C   0  0  2  0  0  3  0  0  0  0  0  0
  193.2000  173.8560  136.2760 N   0  0  0  0  0  2  0  0  0  0  0  0
  191.9910  174.2080  137.0140 C   0  0  0  0  0  2  0  0  0  0  0  0
  194.9940  176.9500  135.2000 C   0  0  0  0  0  1  0  0  0  0  0  0
  194.8890  175.4910  135.5940 C   0  0  1  0  0  3  0  0  0  0  0  0
  195.2720  175.3290  136.9270 O   0  0  0  0  0  1  0  0  0  0  0  0
  1  7  1  6  0  0  0
  1  4  1  0  0  0  0
  2  3  1  0  0  0  0
  3  5  2  0  0  0  0
  3  4  1  0  0  0  0
  6  2  1  0  0  0  0
  6  1  1  0  0  0  0
  7 15  1  0  0  0  0
  8 13  1  0  0  0  0
  9  8  2  0  0  0  0
 11 12  2  0  0  0  0
 11  8  1  0  0  0  0
 12 14  1  0  0  0  0
 13 10  1  0  0  0  0
 13 16  1  1  0  0  0
 14 10  2  0  0  0  0
 15  9  2  0  0  0  0
 16 18  1  0  0  0  0
 18 20  1  0  0  0  0
 18 17  1  1  0  0  0
 19 26  1  0  0  0  0
 20 25  1  0  0  0  0
 22 26  1  0  0  0  0
 22 20  2  0  0  0  0
 23 21  1  0  0  0  0
 23 24  1  0  0  0  0
 25 24  2  0  0  0  0
 26 23  2  0  0  0  0
 27 29  1  1  0  0  0
 27  2  1  0  0  0  0
 28 30  1  0  0  0  0
 28 32  1  0  0  0  0
 30 33  2  0  0  0  0
 32 34  1  0  0  0  0
 33 35  1  0  0  0  0
 33 29  1  0  0  0  0
 34 31  1  1  0  0  0
 34 35  1  0  0  0  0
 36 37  1  0  0  0  0
 37 27  1  6  0  0  0
 37 40  1  0  0  0  0
 38 36  1  0  0  0  0
 38 42  1  1  0  0  0
 38 39  1  0  0  0  0
 39 40  1  0  0  0  0
 42 41  1  1  0  0  0
 42 43  1  0  0  0  0
M  END
>  <MODEL>
2

>  <REMARK>
 VINA RESULT:      -9.5      1.079      4.522
  Name = 
  9 active torsions:
  status: ('A' for Active; 'I' for Inactive)
    1  A    between atoms: C_1  and  C_7
    2  A    between atoms: C_7  and  C_43
    3  A    between atoms: N_8  and  C_10
    4  A    between atoms: C_10  and  N_17
    5  A    between atoms: C_10  and  C_19
    6  A    between atoms: C_13  and  C_29
    7  A    between atoms: C_29  and  N_30
    8  A    between atoms: N_30  and  C_38
    9  A    between atoms: C_31  and  C_37
                            x       y       z     vdW  Elec       q    Type
                         _______ _______ _______ _____ _____    ______ ____

>  <TORSDO>
F 9

$$$$
=
 OpenBabel11062416073D

 43 47  0  0  1  0  0  0  0  0999 V2000
  190.4580  177.6280  141.0560 C   0  0  1  0  0  3  0  0  0  0  0  0
  191.4140  176.5970  138.9040 N   0  0  0  0  0  0  0  0  0  0  0  0
  192.4000  176.9670  139.8430 C   0  0  0  0  0  0  0  0  0  0  0  0
  191.9130  177.5860  141.0140 N   0  0  0  0  0  2  0  0  0  0  0  0
  193.6300  176.7620  139.6550 O   0  0  0  0  0  0  0  0  0  0  0  0
  189.8080  177.1450  139.3980 S   0  0  0  0  0  0  0  0  0  0  0  0
  189.9620  176.6630  142.1160 C   0  0  0  0  0  2  0  0  0  0  0  0
  188.6100  177.4730  145.3280 C   0  0  0  0  0  0  0  0  0  0  0  0
  188.6590  177.3240  144.0340 C   0  0  0  0  0  0  0  0  0  0  0  0
  187.4340  177.3980  147.5480 C   0  0  0  0  0  3  0  0  0  0  0  0
  189.8570  177.7110  146.0660 C   0  0  0  0  0  3  0  0  0  0  0  0
  189.8530  177.7550  147.3980 C   0  0  0  0  0  3  0  0  0  0  0  0
  187.2850  177.4520  146.0460 C   0  0  1  0  0  3  0  0  0  0  0  0
  188.6080  177.5570  148.1610 C   0  0  0  0  0  3  0  0  0  0  0  0
  188.7180  177.1810  142.7430 C   0  0  0  0  0  3  0  0  0  0  0  0
  186.5010  178.6240  145.6760 N   0  0  0  0  0  2  0  0  0  0  0  0
  184.3640  178.9060  146.5650 O   0  0  0  0  0  1  0  0  0  0  0  0
  185.1040  178.2190  145.6050 C   0  0  1  0  0  3  0  0  0  0  0  0
  185.7070  178.7190  140.6590 C   0  0  0  0  0  1  0  0  0  0  0  0
  184.5350  178.4760  144.2460 C   0  0  0  0  0  0  0  0  0  0  0  0
  182.6780  179.1870  140.1470 Cl  0  0  0  0  0  0  0  0  0  0  0  0
  185.3580  178.5020  143.1110 C   0  0  0  0  0  3  0  0  0  0  0  0
  183.4220  178.9130  141.7130 C   0  0  0  0  0  0  0  0  0  0  0  0
  182.6060  178.8890  142.8470 C   0  0  0  0  0  3  0  0  0  0  0  0
  183.1600  178.6750  144.1090 C   0  0  0  0  0  3  0  0  0  0  0  0
  184.8070  178.7260  141.8470 C   0  0  0  0  0  0  0  0  0  0  0  0
  191.6700  175.6900  137.7890 C   0  0  2  0  0  3  0  0  0  0  0  0
  195.4390  173.9490  136.5910 C   0  0  0  0  0  2  0  0  0  0  0  0
  192.5580  176.3370  136.8320 N   0  0  0  0  0  2  0  0  0  0  0  0
  194.1920  174.6280  136.9480 N   0  0  0  0  0  0  0  0  0  0  0  0
  196.8980  176.6890  134.5950 O   0  0  0  0  0  1  0  0  0  0  0  0
  196.5070  174.9460  136.1690 C   0  0  0  0  0  2  0  0  0  0  0  0
  193.8210  175.7800  136.4650 C   0  0  0  0  0  0  0  0  0  0  0  0
  195.9240  175.8120  135.0660 C   0  0  1  0  0  3  0  0  0  0  0  0
  194.7470  176.6130  135.6150 C   0  0  0  0  0  2  0  0  0  0  0  0
  190.3490  173.7790  136.8300 C   0  0  0  0  0  2  0  0  0  0  0  0
  190.3770  175.2600  137.0990 C   0  0  2  0  0  3  0  0  0  0  0  0
  189.5570  173.6400  135.5410 C   0  0  2  0  0  3  0  0  0  0  0  0
  189.5060  174.9460  134.8870 N   0  0  0  0  0  2  0  0  0  0  0  0
  190.2710  175.8680  135.7210 C   0  0  0  0  0  2  0  0  0  0  0  0
  188.0590  172.3510  137.0870 C   0  0  0  0  0  1  0  0  0  0  0  0
  188.1370  173.1290  135.7900 C   0  0  1  0  0  3  0  0  0  0  0  0
  187.2200  174.1810  135.8110 O   0  0  0  0  0  1  0  0  0  0  0  0
  1  7  1  1  0  0  0
  2  6  1  0  0  0  0
  2  3  1  0  0  0  0
  3  4  1  0  0  0  0
  4  1  1  0  0  0  0
  5  3  2  0  0  0  0
  6  1  1  0  0  0  0
  7 15  1  0  0  0  0
  8 13  1  0  0  0  0
  8 11  1  0  0  0  0
  9  8  2  0  0  0  0
 10 14  2  0  0  0  0
 11 12  2  0  0  0  0
 12 14  1  0  0  0  0
 13 16  1  1  0  0  0
 13 10  1  0  0  0  0
 15  9  2  0  0  0  0
 18 16  1  0  0  0  0
 18 17  1  1  0  0  0
 19 26  1  0  0  0  0
 20 18  1  0  0  0  0
 21 23  1  0  0  0  0
 22 20  2  0  0  0  0
 23 26  2  0  0  0  0
 23 24  1  0  0  0  0
 24 25  2  0  0  0  0
 25 20  1  0  0  0  0
 26 22  1  0  0  0  0
 27 29  1  6  0  0  0
 27  2  1  0  0  0  0
 28 30  1  0  0  0  0
 32 28  1  0  0  0  0
 33 29  1  0  0  0  0
 33 30  2  0  0  0  0
 34 31  1  1  0  0  0
 34 35  1  0  0  0  0
 34 32  1  0  0  0  0
 35 33  1  0  0  0  0
 36 37  1  0  0  0  0
 37 27  1  6  0  0  0
 38 42  1  1  0  0  0
 38 36  1  0  0  0  0
 39 38  1  0  0  0  0
 39 40  1  0  0  0  0
 40 37  1  0  0  0  0
 42 43  1  0  0  0  0
 42 41  1  1  0  0  0
M  END
>  <MODEL>
3

>  <REMARK>
 VINA RESULT:      -9.3      2.318      4.313
  Name = 
  9 active torsions:
  status: ('A' for Active; 'I' for Inactive)
    1  A    between atoms: C_1  and  C_7
    2  A    between atoms: C_7  and  C_43
    3  A    between atoms: N_8  and  C_10
    4  A    between atoms: C_10  and  N_17
    5  A    between atoms: C_10  and  C_19
    6  A    between atoms: C_13  and  C_29
    7  A    between atoms: C_29  and  N_30
    8  A    between atoms: N_30  and  C_38
    9  A    between atoms: C_31  and  C_37
                            x       y       z     vdW  Elec       q    Type
                         _______ _______ _______ _____ _____    ______ ____

>  <TORSDO>
F 9

$$$$
=
 OpenBabel11062416073D

 43 47  0  0  1  0  0  0  0  0999 V2000
  183.9560  178.0480  141.4170 C   0  0  1  0  0  3  0  0  0  0  0  0
  181.7410  178.3610  140.1500 N   0  0  0  0  0  0  0  0  0  0  0  0
  181.7130  178.8560  141.4710 C   0  0  0  0  0  0  0  0  0  0  0  0
  182.8970  178.6520  142.2140 N   0  0  0  0  0  2  0  0  0  0  0  0
  180.7080  179.4390  141.9580 O   0  0  0  0  0  0  0  0  0  0  0  0
  183.2350  177.4770  139.8180 S   0  0  0  0  0  0  0  0  0  0  0  0
  185.0390  179.0790  141.1660 C   0  0  0  0  0  2  0  0  0  0  0  0
  188.4120  178.0240  140.6050 C   0  0  0  0  0  0  0  0  0  0  0  0
  187.3420  178.3690  141.2650 C   0  0  0  0  0  0  0  0  0  0  0  0
  190.5000  176.6650  140.2810 C   0  0  0  0  0  3  0  0  0  0  0  0
  188.6040  178.5320  139.2410 C   0  0  0  0  0  3  0  0  0  0  0  0
  189.6290  178.1080  138.5030 C   0  0  0  0  0  3  0  0  0  0  0  0
  189.4600  177.1580  141.2580 C   0  0  1  0  0  3  0  0  0  0  0  0
  190.5850  177.1170  139.0280 C   0  0  0  0  0  3  0  0  0  0  0  0
  186.2730  178.7230  141.9150 C   0  0  0  0  0  3  0  0  0  0  0  0
  190.1110  177.8920  142.3340 N   0  0  0  0  0  2  0  0  0  0  0  0
  191.9290  177.0040  143.4920 O   0  0  0  0  0  1  0  0  0  0  0  0
  190.5480  176.9240  143.3300 C   0  0  1  0  0  3  0  0  0  0  0  0
  186.4390  178.0420  145.9660 C   0  0  0  0  0  1  0  0  0  0  0  0
  189.8690  177.1550  144.6430 C   0  0  0  0  0  0  0  0  0  0  0  0
  187.8860  177.7540  148.7010 Cl  0  0  0  0  0  0  0  0  0  0  0  0
  188.5120  177.5040  144.7030 C   0  0  0  0  0  3  0  0  0  0  0  0
  188.6230  177.5320  147.1230 C   0  0  0  0  0  0  0  0  0  0  0  0
  189.9760  177.1870  147.0590 C   0  0  0  0  0  3  0  0  0  0  0  0
  190.5970  177.0020  145.8240 C   0  0  0  0  0  3  0  0  0  0  0  0
  187.8890  177.7000  145.9380 C   0  0  0  0  0  0  0  0  0  0  0  0
  180.7560  178.7280  139.1360 C   0  0  2  0  0  3  0  0  0  0  0  0
  178.9320  174.8500  139.6850 C   0  0  0  0  0  2  0  0  0  0  0  0
  180.7430  177.7180  138.0860 N   0  0  0  0  0  2  0  0  0  0  0  0
  179.5920  176.1270  139.4090 N   0  0  0  0  0  0  0  0  0  0  0  0
  179.9650  173.1210  136.5920 O   0  0  0  0  0  1  0  0  0  0  0  0
  179.5340  173.7280  138.8550 C   0  0  0  0  0  2  0  0  0  0  0  0
  180.1730  176.4230  138.2800 C   0  0  0  0  0  0  0  0  0  0  0  0
  179.4930  174.1550  137.3980 C   0  0  1  0  0  3  0  0  0  0  0  0
  180.3740  175.3870  137.2030 C   0  0  0  0  0  2  0  0  0  0  0  0
  179.8610  181.0280  138.6630 C   0  0  0  0  0  2  0  0  0  0  0  0
  181.0430  180.1040  138.5390 C   0  0  2  0  0  3  0  0  0  0  0  0
  179.9350  181.9100  137.4290 C   0  0  2  0  0  3  0  0  0  0  0  0
  180.8200  181.2720  136.4560 N   0  0  0  0  0  2  0  0  0  0  0  0
  181.2600  180.0110  137.0480 C   0  0  0  0  0  2  0  0  0  0  0  0
  181.1930  183.9070  136.5750 C   0  0  0  0  0  1  0  0  0  0  0  0
  180.4500  183.3140  137.7540 C   0  0  1  0  0  3  0  0  0  0  0  0
  179.4040  184.1580  138.1310 O   0  0  0  0  0  1  0  0  0  0  0  0
  1  7  1  6  0  0  0
  1  4  1  0  0  0  0
  2  3  1  0  0  0  0
  3  5  2  0  0  0  0
  3  4  1  0  0  0  0
  6  2  1  0  0  0  0
  6  1  1  0  0  0  0
  7 15  1  0  0  0  0
  8 13  1  0  0  0  0
  8  9  2  0  0  0  0
  9 15  2  0  0  0  0
 10 13  1  0  0  0  0
 11  8  1  0  0  0  0
 12 14  1  0  0  0  0
 12 11  2  0  0  0  0
 13 16  1  1  0  0  0
 14 10  2  0  0  0  0
 16 18  1  0  0  0  0
 18 17  1  1  0  0  0
 18 20  1  0  0  0  0
 20 22  2  0  0  0  0
 20 25  1  0  0  0  0
 22 26  1  0  0  0  0
 23 21  1  0  0  0  0
 24 23  1  0  0  0  0
 25 24  2  0  0  0  0
 26 19  1  0  0  0  0
 26 23  2  0  0  0  0
 27 29  1  6  0  0  0
 27  2  1  0  0  0  0
 29 33  1  0  0  0  0
 30 28  1  0  0  0  0
 32 28  1  0  0  0  0
 33 30  2  0  0  0  0
 34 31  1  6  0  0  0
 34 32  1  0  0  0  0
 35 34  1  0  0  0  0
 35 33  1  0  0  0  0
 37 36  1  0  0  0  0
 37 27  1  6  0  0  0
 38 42  1  1  0  0  0
 38 36  1  0  0  0  0
 39 40  1  0  0  0  0
 39 38  1  0  0  0  0
 40 37  1  0  0  0  0
 42 41  1  6  0  0  0
 42 43  1  0  0  0  0
M  END
>  <MODEL>
4

>  <REMARK>
 VINA RESULT:      -9.2      4.700      9.061
  Name = 
  9 active torsions:
  status: ('A' for Active; 'I' for Inactive)
    1  A    between atoms: C_1  and  C_7
    2  A    between atoms: C_7  and  C_43
    3  A    between atoms: N_8  and  C_10
    4  A    between atoms: C_10  and  N_17
    5  A    between atoms: C_10  and  C_19
    6  A    between atoms: C_13  and  C_29
    7  A    between atoms: C_29  and  N_30
    8  A    between atoms: N_30  and  C_38
    9  A    between atoms: C_31  and  C_37
                            x       y       z     vdW  Elec       q    Type
                         _______ _______ _______ _____ _____    ______ ____

>  <TORSDO>
F 9

$$$$
=
 OpenBabel11062416073D

 43 47  0  0  1  0  0  0  0  0999 V2000
  190.4450  177.5840  140.6150 C   0  0  1  0  0  3  0  0  0  0  0  0
  191.4970  176.6250  138.4730 N   0  0  0  0  0  0  0  0  0  0  0  0
  192.4420  176.9860  139.4570 C   0  0  0  0  0  0  0  0  0  0  0  0
  191.9020  177.5670  140.6250 N   0  0  0  0  0  2  0  0  0  0  0  0
  193.6810  176.8060  139.3090 O   0  0  0  0  0  0  0  0  0  0  0  0
  189.8650  177.1340  138.9220 S   0  0  0  0  0  0  0  0  0  0  0  0
  189.9290  176.5830  141.6300 C   0  0  0  0  0  2  0  0  0  0  0  0
  189.0240  177.2360  145.0300 C   0  0  0  0  0  0  0  0  0  0  0  0
  188.9220  177.2080  143.7310 C   0  0  0  0  0  0  0  0  0  0  0  0
  188.0780  177.0890  147.3530 C   0  0  0  0  0  3  0  0  0  0  0  0
  190.3590  177.2490  145.6410 C   0  0  0  0  0  3  0  0  0  0  0  0
  190.4950  177.1650  146.9640 C   0  0  0  0  0  3  0  0  0  0  0  0
  187.7860  177.3060  145.8870 C   0  0  1  0  0  3  0  0  0  0  0  0
  189.3180  177.0450  147.8430 C   0  0  0  0  0  3  0  0  0  0  0  0
  188.8320  177.1830  142.4340 C   0  0  0  0  0  3  0  0  0  0  0  0
  187.1280  178.5930  145.7060 N   0  0  0  0  0  2  0  0  0  0  0  0
  185.4040  179.3760  147.0670 O   0  0  0  0  0  1  0  0  0  0  0  0
  185.7330  178.4370  146.0920 C   0  0  1  0  0  3  0  0  0  0  0  0
  185.0220  178.5620  141.1360 C   0  0  0  0  0  1  0  0  0  0  0  0
  184.8260  178.5910  144.9120 C   0  0  0  0  0  0  0  0  0  0  0  0
  181.9560  178.9930  141.3970 Cl  0  0  0  0  0  0  0  0  0  0  0  0
  185.3260  178.5310  143.6040 C   0  0  0  0  0  3  0  0  0  0  0  0
  183.0860  178.8380  142.7310 C   0  0  0  0  0  0  0  0  0  0  0  0
  182.5920  178.9000  144.0370 C   0  0  0  0  0  3  0  0  0  0  0  0
  183.4590  178.7810  145.1230 C   0  0  0  0  0  3  0  0  0  0  0  0
  184.4620  178.6600  142.5130 C   0  0  0  0  0  0  0  0  0  0  0  0
  191.8090  175.7520  137.3450 C   0  0  2  0  0  3  0  0  0  0  0  0
  188.4950  174.8930  134.7090 C   0  0  0  0  0  2  0  0  0  0  0  0
  191.0270  174.5280  137.4510 N   0  0  0  0  0  2  0  0  0  0  0  0
  189.5870  175.1020  135.6610 N   0  0  0  0  0  0  0  0  0  0  0  0
  187.1020  171.8510  136.2680 O   0  0  0  0  0  1  0  0  0  0  0  0
  187.4110  174.0050  135.3000 C   0  0  0  0  0  2  0  0  0  0  0  0
  189.9080  174.2610  136.6040 C   0  0  0  0  0  0  0  0  0  0  0  0
  188.0730  172.7280  135.7880 C   0  0  1  0  0  3  0  0  0  0  0  0
  189.0520  173.0590  136.9120 C   0  0  0  0  0  2  0  0  0  0  0  0
  193.8640  175.6590  135.9030 C   0  0  0  0  0  2  0  0  0  0  0  0
  193.2980  175.4220  137.2770 C   0  0  2  0  0  3  0  0  0  0  0  0
  194.9480  174.6050  135.7500 C   0  0  2  0  0  3  0  0  0  0  0  0
  194.7350  173.5730  136.7620 N   0  0  0  0  0  2  0  0  0  0  0  0
  193.5350  173.9480  137.5050 C   0  0  0  0  0  2  0  0  0  0  0  0
  196.4550  176.5340  135.1970 C   0  0  0  0  0  1  0  0  0  0  0  0
  196.3510  175.1960  135.8990 C   0  0  1  0  0  3  0  0  0  0  0  0
  196.6970  175.3360  137.2440 O   0  0  0  0  0  1  0  0  0  0  0  0
  1  4  1  0  0  0  0
  1  7  1  1  0  0  0
  2  6  1  0  0  0  0
  2  3  1  0  0  0  0
  3  4  1  0  0  0  0
  5  3  2  0  0  0  0
  6  1  1  0  0  0  0
  7 15  1  0  0  0  0
  8 11  1  0  0  0  0
  8 13  1  0  0  0  0
  9  8  2  0  0  0  0
 10 14  2  0  0  0  0
 11 12  2  0  0  0  0
 12 14  1  0  0  0  0
 13 16  1  1  0  0  0
 13 10  1  0  0  0  0
 15  9  2  0  0  0  0
 16 18  1  0  0  0  0
 18 17  1  1  0  0  0
 19 26  1  0  0  0  0
 20 25  1  0  0  0  0
 20 18  1  0  0  0  0
 21 23  1  0  0  0  0
 22 20  2  0  0  0  0
 23 24  1  0  0  0  0
 24 25  2  0  0  0  0
 26 23  2  0  0  0  0
 26 22  1  0  0  0  0
 27 29  1  1  0  0  0
 27  2  1  0  0  0  0
 28 32  1  0  0  0  0
 28 30  1  0  0  0  0
 30 33  2  0  0  0  0
 32 34  1  0  0  0  0
 33 35  1  0  0  0  0
 33 29  1  0  0  0  0
 34 31  1  1  0  0  0
 34 35  1  0  0  0  0
 36 37  1  0  0  0  0
 37 27  1  6  0  0  0
 37 40  1  0  0  0  0
 38 42  1  1  0  0  0
 38 36  1  0  0  0  0
 38 39  1  0  0  0  0
 39 40  1  0  0  0  0
 42 41  1  1  0  0  0
 42 43  1  0  0  0  0
M  END
>  <MODEL>
5

>  <REMARK>
 VINA RESULT:      -9.2      2.360      6.121
  Name = 
  9 active torsions:
  status: ('A' for Active; 'I' for Inactive)
    1  A    between atoms: C_1  and  C_7
    2  A    between atoms: C_7  and  C_43
    3  A    between atoms: N_8  and  C_10
    4  A    between atoms: C_10  and  N_17
    5  A    between atoms: C_10  and  C_19
    6  A    between atoms: C_13  and  C_29
    7  A    between atoms: C_29  and  N_30
    8  A    between atoms: N_30  and  C_38
    9  A    between atoms: C_31  and  C_37
                            x       y       z     vdW  Elec       q    Type
                         _______ _______ _______ _____ _____    ______ ____

>  <TORSDO>
F 9

$$$$
=
 OpenBabel11062416073D

 43 47  0  0  1  0  0  0  0  0999 V2000
  186.3550  178.6230  137.8430 C   0  0  1  0  0  3  0  0  0  0  0  0
  187.8780  176.6640  137.1710 N   0  0  0  0  0  0  0  0  0  0  0  0
  188.1620  177.1900  138.4490 C   0  0  0  0  0  0  0  0  0  0  0  0
  187.3790  178.3030  138.8280 N   0  0  0  0  0  2  0  0  0  0  0  0
  189.0490  176.7070  139.2030 O   0  0  0  0  0  0  0  0  0  0  0  0
  186.6860  177.6460  136.3130 S   0  0  0  0  0  0  0  0  0  0  0  0
  184.9930  178.2680  138.4090 C   0  0  0  0  0  2  0  0  0  0  0  0
  182.7820  178.4590  141.2150 C   0  0  0  0  0  0  0  0  0  0  0  0
  183.9050  178.3950  140.5570 C   0  0  0  0  0  0  0  0  0  0  0  0
  181.3410  179.2630  143.1100 C   0  0  0  0  0  3  0  0  0  0  0  0
  181.5670  177.9000  140.6090 C   0  0  0  0  0  3  0  0  0  0  0  0
  180.3870  178.0510  141.2080 C   0  0  0  0  0  3  0  0  0  0  0  0
  182.7470  179.0520  142.6010 C   0  0  1  0  0  3  0  0  0  0  0  0
  180.2670  178.7860  142.4790 C   0  0  0  0  0  3  0  0  0  0  0  0
  185.0220  178.3230  139.8930 C   0  0  0  0  0  3  0  0  0  0  0  0
  183.4780  178.1970  143.5270 N   0  0  0  0  0  2  0  0  0  0  0  0
  183.6180  179.2420  145.6060 O   0  0  0  0  0  1  0  0  0  0  0  0
  184.2740  179.0570  144.3910 C   0  0  1  0  0  3  0  0  0  0  0  0
  188.4610  176.9260  142.6570 C   0  0  0  0  0  1  0  0  0  0  0  0
  185.6310  178.4760  144.6300 C   0  0  0  0  0  0  0  0  0  0  0  0
  189.7860  176.8030  145.4650 Cl  0  0  0  0  0  0  0  0  0  0  0  0
  186.3930  177.9620  143.5710 C   0  0  0  0  0  3  0  0  0  0  0  0
  188.1880  177.4380  145.1130 C   0  0  0  0  0  0  0  0  0  0  0  0
  187.4240  177.9490  146.1660 C   0  0  0  0  0  3  0  0  0  0  0  0
  186.1500  178.4620  145.9260 C   0  0  0  0  0  3  0  0  0  0  0  0
  187.6670  177.4380  143.8090 C   0  0  0  0  0  0  0  0  0  0  0  0
  188.3500  175.3570  136.7200 C   0  0  2  0  0  3  0  0  0  0  0  0
  192.5360  175.3000  137.7880 C   0  0  0  0  0  2  0  0  0  0  0  0
  189.4070  175.5380  135.7350 N   0  0  0  0  0  2  0  0  0  0  0  0
  191.1470  175.3550  137.3310 N   0  0  0  0  0  0  0  0  0  0  0  0
  194.1070  176.3240  134.6090 O   0  0  0  0  0  1  0  0  0  0  0  0
  193.4450  176.1210  136.8880 C   0  0  0  0  0  2  0  0  0  0  0  0
  190.7900  175.5560  136.0940 C   0  0  0  0  0  0  0  0  0  0  0  0
  193.2340  175.6490  135.4600 C   0  0  1  0  0  3  0  0  0  0  0  0
  191.7950  175.9350  135.0360 C   0  0  0  0  0  2  0  0  0  0  0  0
  186.3780  173.8760  137.2010 C   0  0  0  0  0  2  0  0  0  0  0  0
  187.2180  174.5180  136.1310 C   0  0  2  0  0  3  0  0  0  0  0  0
  185.9290  172.5580  136.5950 C   0  0  2  0  0  3  0  0  0  0  0  0
  186.7860  172.2600  135.4490 N   0  0  0  0  0  2  0  0  0  0  0  0
  187.7640  173.3400  135.3600 C   0  0  0  0  0  2  0  0  0  0  0  0
  183.6150  171.6770  137.0020 C   0  0  0  0  0  1  0  0  0  0  0  0
  184.4650  172.5970  136.1510 C   0  0  1  0  0  3  0  0  0  0  0  0
  183.9590  173.8960  136.2010 O   0  0  0  0  0  1  0  0  0  0  0  0
  1  7  1  1  0  0  0
  1  4  1  0  0  0  0
  2  3  1  0  0  0  0
  3  4  1  0  0  0  0
  3  5  2  0  0  0  0
  6  2  1  0  0  0  0
  6  1  1  0  0  0  0
  7 15  1  0  0  0  0
  8 13  1  0  0  0  0
  9  8  2  0  0  0  0
 11 12  2  0  0  0  0
 11  8  1  0  0  0  0
 12 14  1  0  0  0  0
 13 10  1  0  0  0  0
 13 16  1  1  0  0  0
 14 10  2  0  0  0  0
 15  9  2  0  0  0  0
 16 18  1  0  0  0  0
 18 20  1  0  0  0  0
 18 17  1  1  0  0  0
 19 26  1  0  0  0  0
 20 25  1  0  0  0  0
 22 26  1  0  0  0  0
 22 20  2  0  0  0  0
 23 21  1  0  0  0  0
 23 24  1  0  0  0  0
 25 24  2  0  0  0  0
 26 23  2  0  0  0  0
 27 29  1  6  0  0  0
 27  2  1  0  0  0  0
 29 33  1  0  0  0  0
 30 28  1  0  0  0  0
 32 28  1  0  0  0  0
 33 30  2  0  0  0  0
 34 31  1  6  0  0  0
 34 32  1  0  0  0  0
 35 34  1  0  0  0  0
 35 33  1  0  0  0  0
 37 27  1  1  0  0  0
 37 36  1  0  0  0  0
 38 42  1  6  0  0  0
 38 36  1  0  0  0  0
 39 38  1  0  0  0  0
 40 39  1  0  0  0  0
 40 37  1  0  0  0  0
 42 43  1  0  0  0  0
 42 41  1  1  0  0  0
M  END
>  <MODEL>
6

>  <REMARK>
 VINA RESULT:      -8.5      1.903      2.425
  Name = 
  9 active torsions:
  status: ('A' for Active; 'I' for Inactive)
    1  A    between atoms: C_1  and  C_7
    2  A    between atoms: C_7  and  C_43
    3  A    between atoms: N_8  and  C_10
    4  A    between atoms: C_10  and  N_17
    5  A    between atoms: C_10  and  C_19
    6  A    between atoms: C_13  and  C_29
    7  A    between atoms: C_29  and  N_30
    8  A    between atoms: N_30  and  C_38
    9  A    between atoms: C_31  and  C_37
                            x       y       z     vdW  Elec       q    Type
                         _______ _______ _______ _____ _____    ______ ____

>  <TORSDO>
F 9

$$$$
=
 OpenBabel11062416073D

 43 47  0  0  1  0  0  0  0  0999 V2000
  187.9670  178.4960  138.5910 C   0  0  1  0  0  3  0  0  0  0  0  0
  188.3300  176.6770  136.8100 N   0  0  0  0  0  0  0  0  0  0  0  0
  188.8260  177.9440  136.4360 C   0  0  0  0  0  0  0  0  0  0  0  0
  188.5950  178.9790  137.3690 N   0  0  0  0  0  2  0  0  0  0  0  0
  189.4330  178.1440  135.3500 O   0  0  0  0  0  0  0  0  0  0  0  0
  187.4120  176.7580  138.3180 S   0  0  0  0  0  0  0  0  0  0  0  0
  188.9720  178.5550  139.7240 C   0  0  0  0  0  2  0  0  0  0  0  0
  189.6800  178.0690  143.1980 C   0  0  0  0  0  0  0  0  0  0  0  0
  188.9750  178.2510  142.1160 C   0  0  0  0  0  0  0  0  0  0  0  0
  190.0760  177.0730  145.4710 C   0  0  0  0  0  3  0  0  0  0  0  0
  191.0660  178.5530  143.2360 C   0  0  0  0  0  3  0  0  0  0  0  0
  191.8440  178.2830  144.2830 C   0  0  0  0  0  3  0  0  0  0  0  0
  189.0600  177.4180  144.4080 C   0  0  1  0  0  3  0  0  0  0  0  0
  191.3430  177.4880  145.4180 C   0  0  0  0  0  3  0  0  0  0  0  0
  188.2800  178.4410  141.0340 C   0  0  0  0  0  3  0  0  0  0  0  0
  188.0390  178.2900  144.9730 N   0  0  0  0  0  2  0  0  0  0  0  0
  186.7920  177.4120  146.7370 O   0  0  0  0  0  1  0  0  0  0  0  0
  186.9040  177.4590  145.3500 C   0  0  1  0  0  3  0  0  0  0  0  0
  183.9560  178.2310  141.3750 C   0  0  0  0  0  1  0  0  0  0  0  0
  185.6340  177.9780  144.7550 C   0  0  0  0  0  0  0  0  0  0  0  0
  181.6930  179.5200  143.0680 Cl  0  0  0  0  0  0  0  0  0  0  0  0
  185.3920  177.8910  143.3770 C   0  0  0  0  0  3  0  0  0  0  0  0
  183.2210  178.9200  143.6890 C   0  0  0  0  0  0  0  0  0  0  0  0
  183.4670  179.0080  145.0620 C   0  0  0  0  0  3  0  0  0  0  0  0
  184.6690  178.5420  145.5920 C   0  0  0  0  0  3  0  0  0  0  0  0
  184.1930  178.3650  142.8400 C   0  0  0  0  0  0  0  0  0  0  0  0
  188.7200  175.4360  136.1460 C   0  0  2  0  0  3  0  0  0  0  0  0
  184.8200  174.3030  134.6730 C   0  0  0  0  0  2  0  0  0  0  0  0
  187.9660  174.3260  136.7130 N   0  0  0  0  0  2  0  0  0  0  0  0
  186.1250  174.6220  135.2540 N   0  0  0  0  0  0  0  0  0  0  0  0
  183.8120  171.7760  137.1680 O   0  0  0  0  0  1  0  0  0  0  0  0
  183.9070  173.6470  135.6970 C   0  0  0  0  0  2  0  0  0  0  0  0
  186.6610  173.9750  136.2510 C   0  0  0  0  0  0  0  0  0  0  0  0
  184.6440  172.4540  136.2800 C   0  0  1  0  0  3  0  0  0  0  0  0
  185.8870  172.9370  137.0230 C   0  0  0  0  0  2  0  0  0  0  0  0
  190.5640  173.7370  135.9750 C   0  0  0  0  0  2  0  0  0  0  0  0
  190.2190  175.1720  136.2720 C   0  0  2  0  0  3  0  0  0  0  0  0
  191.7520  173.4370  136.8730 C   0  0  2  0  0  3  0  0  0  0  0  0
  191.8160  174.4600  137.9140 N   0  0  0  0  0  2  0  0  0  0  0  0
  190.6830  175.3560  137.6970 C   0  0  0  0  0  2  0  0  0  0  0  0
  194.1150  174.2730  136.7640 C   0  0  0  0  0  1  0  0  0  0  0  0
  193.0690  173.4060  136.0950 C   0  0  1  0  0  3  0  0  0  0  0  0
  193.5450  172.1010  135.9650 O   0  0  0  0  0  1  0  0  0  0  0  0
  1  7  1  1  0  0  0
  2  6  1  0  0  0  0
  3  2  1  0  0  0  0
  3  4  1  0  0  0  0
  4  1  1  0  0  0  0
  5  3  2  0  0  0  0
  6  1  1  0  0  0  0
  7 15  1  0  0  0  0
  8 11  1  0  0  0  0
  8 13  1  0  0  0  0
  9  8  2  0  0  0  0
 11 12  2  0  0  0  0
 12 14  1  0  0  0  0
 13 16  1  1  0  0  0
 13 10  1  0  0  0  0
 14 10  2  0  0  0  0
 15  9  2  0  0  0  0
 16 18  1  0  0  0  0
 18 17  1  1  0  0  0
 19 26  1  0  0  0  0
 20 18  1  0  0  0  0
 20 25  1  0  0  0  0
 21 23  1  0  0  0  0
 22 20  2  0  0  0  0
 23 24  1  0  0  0  0
 24 25  2  0  0  0  0
 26 22  1  0  0  0  0
 26 23  2  0  0  0  0
 27 29  1  1  0  0  0
 27  2  1  0  0  0  0
 28 30  1  0  0  0  0
 28 32  1  0  0  0  0
 30 33  2  0  0  0  0
 32 34  1  0  0  0  0
 33 29  1  0  0  0  0
 33 35  1  0  0  0  0
 34 35  1  0  0  0  0
 34 31  1  1  0  0  0
 36 37  1  0  0  0  0
 36 38  1  0  0  0  0
 37 27  1  1  0  0  0
 37 40  1  0  0  0  0
 38 42  1  6  0  0  0
 38 39  1  0  0  0  0
 40 39  1  0  0  0  0
 42 41  1  1  0  0  0
 43 42  1  0  0  0  0
M  END
>  <MODEL>
7

>  <REMARK>
 VINA RESULT:      -8.4      2.622      6.382
  Name = 
  9 active torsions:
  status: ('A' for Active; 'I' for Inactive)
    1  A    between atoms: C_1  and  C_7
    2  A    between atoms: C_7  and  C_43
    3  A    between atoms: N_8  and  C_10
    4  A    between atoms: C_10  and  N_17
    5  A    between atoms: C_10  and  C_19
    6  A    between atoms: C_13  and  C_29
    7  A    between atoms: C_29  and  N_30
    8  A    between atoms: N_30  and  C_38
    9  A    between atoms: C_31  and  C_37
                            x       y       z     vdW  Elec       q    Type
                         _______ _______ _______ _____ _____    ______ ____

>  <TORSDO>
F 9

$$$$
=
 OpenBabel11062416073D

 43 47  0  0  1  0  0  0  0  0999 V2000
  187.6660  178.4280  136.8640 C   0  0  1  0  0  3  0  0  0  0  0  0
  189.6750  177.5930  138.2340 N   0  0  0  0  0  0  0  0  0  0  0  0
  188.8370  178.4820  138.9400 C   0  0  0  0  0  0  0  0  0  0  0  0
  187.7530  179.0030  138.1990 N   0  0  0  0  0  2  0  0  0  0  0  0
  189.0360  178.7940  140.1450 O   0  0  0  0  0  0  0  0  0  0  0  0
  189.2100  177.4740  136.5330 S   0  0  0  0  0  0  0  0  0  0  0  0
  186.4580  177.5140  136.7930 C   0  0  0  0  0  2  0  0  0  0  0  0
  183.1270  178.2280  137.8860 C   0  0  0  0  0  0  0  0  0  0  0  0
  184.3930  177.9300  137.9670 C   0  0  0  0  0  0  0  0  0  0  0  0
  181.0380  179.3630  138.7000 C   0  0  0  0  0  3  0  0  0  0  0  0
  182.3880  177.8790  136.6660 C   0  0  0  0  0  3  0  0  0  0  0  0
  181.1250  178.2700  136.5090 C   0  0  0  0  0  3  0  0  0  0  0  0
  182.4230  178.8740  139.0520 C   0  0  1  0  0  3  0  0  0  0  0  0
  180.4410  179.0680  137.5440 C   0  0  0  0  0  3  0  0  0  0  0  0
  185.6550  177.6240  138.0390 C   0  0  0  0  0  3  0  0  0  0  0  0
  182.3410  177.9380  140.1650 N   0  0  0  0  0  2  0  0  0  0  0  0
  180.7340  178.1630  141.8390 O   0  0  0  0  0  1  0  0  0  0  0  0
  181.9270  178.6850  141.3440 C   0  0  1  0  0  3  0  0  0  0  0  0
  186.6660  177.8780  142.7480 C   0  0  0  0  0  1  0  0  0  0  0  0
  182.9790  178.6440  142.4060 C   0  0  0  0  0  0  0  0  0  0  0  0
  186.1160  178.6350  145.7100 Cl  0  0  0  0  0  0  0  0  0  0  0  0
  184.2960  178.2690  142.1060 C   0  0  0  0  0  3  0  0  0  0  0  0
  184.9280  178.6270  144.4180 C   0  0  0  0  0  0  0  0  0  0  0  0
  183.6130  178.9970  144.7140 C   0  0  0  0  0  3  0  0  0  0  0  0
  182.6420  179.0030  143.7130 C   0  0  0  0  0  3  0  0  0  0  0  0
  185.2690  178.2530  143.1080 C   0  0  0  0  0  0  0  0  0  0  0  0
  190.6530  176.7260  138.8850 C   0  0  2  0  0  3  0  0  0  0  0  0
  190.0100  175.6280  143.0140 C   0  0  0  0  0  2  0  0  0  0  0  0
  191.2770  177.4440  139.9880 N   0  0  0  0  0  2  0  0  0  0  0  0
  190.2740  176.0880  141.6500 N   0  0  0  0  0  0  0  0  0  0  0  0
  191.6810  178.4110  144.7710 O   0  0  0  0  0  1  0  0  0  0  0  0
  190.1330  176.7670  144.0140 C   0  0  0  0  0  2  0  0  0  0  0  0
  191.0350  177.1040  141.3550 C   0  0  0  0  0  0  0  0  0  0  0  0
  191.4960  177.4100  143.8200 C   0  0  1  0  0  3  0  0  0  0  0  0
  191.5760  178.0200  142.4230 C   0  0  0  0  0  2  0  0  0  0  0  0
  191.7910  174.7320  137.8640 C   0  0  0  0  0  2  0  0  0  0  0  0
  191.7170  176.2350  137.9070 C   0  0  2  0  0  3  0  0  0  0  0  0
  193.2550  174.4300  137.5930 C   0  0  2  0  0  3  0  0  0  0  0  0
  194.0370  175.6290  137.8870 N   0  0  0  0  0  2  0  0  0  0  0  0
  193.0980  176.6410  138.3620 C   0  0  0  0  0  2  0  0  0  0  0  0
  194.9230  174.2790  135.7240 C   0  0  0  0  0  1  0  0  0  0  0  0
  193.4950  173.9980  136.1450 C   0  0  1  0  0  3  0  0  0  0  0  0
  193.2050  172.6440  135.9700 O   0  0  0  0  0  1  0  0  0  0  0  0
  1  7  1  1  0  0  0
  1  4  1  0  0  0  0
  2 27  1  0  0  0  0
  2  3  1  0  0  0  0
  3  5  2  0  0  0  0
  4  3  1  0  0  0  0
  6  1  1  0  0  0  0
  6  2  1  0  0  0  0
  7 15  1  0  0  0  0
  8  9  2  0  0  0  0
  8 13  1  0  0  0  0
  9 15  2  0  0  0  0
 10 13  1  0  0  0  0
 11  8  1  0  0  0  0
 12 11  2  0  0  0  0
 12 14  1  0  0  0  0
 13 16  1  1  0  0  0
 14 10  2  0  0  0  0
 16 18  1  0  0  0  0
 18 17  1  1  0  0  0
 18 20  1  0  0  0  0
 19 26  1  0  0  0  0
 20 25  1  0  0  0  0
 22 20  2  0  0  0  0
 22 26  1  0  0  0  0
 23 24  1  0  0  0  0
 23 21  1  0  0  0  0
 25 24  2  0  0  0  0
 26 23  2  0  0  0  0
 27 29  1  1  0  0  0
 28 32  1  0  0  0  0
 29 33  1  0  0  0  0
 30 28  1  0  0  0  0
 33 30  2  0  0  0  0
 33 35  1  0  0  0  0
 34 32  1  0  0  0  0
 34 31  1  1  0  0  0
 35 34  1  0  0  0  0
 36 37  1  0  0  0  0
 37 40  1  0  0  0  0
 37 27  1  1  0  0  0
 38 42  1  6  0  0  0
 38 36  1  0  0  0  0
 38 39  1  0  0  0  0
 39 40  1  0  0  0  0
 42 41  1  1  0  0  0
 43 42  1  0  0  0  0
M  END
>  <MODEL>
8

>  <REMARK>
 VINA RESULT:      -8.4      3.011      5.714
  Name = 
  9 active torsions:
  status: ('A' for Active; 'I' for Inactive)
    1  A    between atoms: C_1  and  C_7
    2  A    between atoms: C_7  and  C_43
    3  A    between atoms: N_8  and  C_10
    4  A    between atoms: C_10  and  N_17
    5  A    between atoms: C_10  and  C_19
    6  A    between atoms: C_13  and  C_29
    7  A    between atoms: C_29  and  N_30
    8  A    between atoms: N_30  and  C_38
    9  A    between atoms: C_31  and  C_37
                            x       y       z     vdW  Elec       q    Type
                         _______ _______ _______ _____ _____    ______ ____

>  <TORSDO>
F 9

$$$$
=
 OpenBabel11062416073D

 43 47  0  0  1  0  0  0  0  0999 V2000
  184.1260  179.3730  142.8860 C   0  0  1  0  0  3  0  0  0  0  0  0
  183.2580  178.6850  140.5660 N   0  0  0  0  0  0  0  0  0  0  0  0
  184.6190  179.0550  140.5750 C   0  0  0  0  0  0  0  0  0  0  0  0
  185.1150  179.4910  141.8230 N   0  0  0  0  0  2  0  0  0  0  0  0
  185.3450  179.0030  139.5460 O   0  0  0  0  0  0  0  0  0  0  0  0
  182.4870  179.0030  142.1240 S   0  0  0  0  0  0  0  0  0  0  0  0
  184.5350  178.2530  143.8230 C   0  0  0  0  0  2  0  0  0  0  0  0
  187.6240  177.6500  145.5240 C   0  0  0  0  0  0  0  0  0  0  0  0
  186.7830  177.7470  144.5330 C   0  0  0  0  0  0  0  0  0  0  0  0
  189.9040  177.8800  146.5550 C   0  0  0  0  0  3  0  0  0  0  0  0
  187.1120  177.3630  146.8700 C   0  0  0  0  0  3  0  0  0  0  0  0
  187.9340  177.3690  147.9180 C   0  0  0  0  0  3  0  0  0  0  0  0
  189.1060  177.7790  145.2770 C   0  0  1  0  0  3  0  0  0  0  0  0
  189.3670  177.6720  147.7590 C   0  0  0  0  0  3  0  0  0  0  0  0
  185.9350  177.8380  143.5510 C   0  0  0  0  0  3  0  0  0  0  0  0
  189.5810  176.6460  144.4940 N   0  0  0  0  0  2  0  0  0  0  0  0
  191.6810  176.1820  143.5940 O   0  0  0  0  0  1  0  0  0  0  0  0
  190.6520  177.1200  143.6300 C   0  0  1  0  0  3  0  0  0  0  0  0
  190.8730  176.2880  138.6960 C   0  0  0  0  0  1  0  0  0  0  0  0
  190.1530  177.3810  142.2450 C   0  0  0  0  0  0  0  0  0  0  0  0
  188.4970  178.1930  138.0780 Cl  0  0  0  0  0  0  0  0  0  0  0  0
  190.7370  176.7530  141.1360 C   0  0  0  0  0  3  0  0  0  0  0  0
  189.1580  177.8630  139.6710 C   0  0  0  0  0  0  0  0  0  0  0  0
  188.5810  178.4900  140.7780 C   0  0  0  0  0  3  0  0  0  0  0  0
  189.0780  178.2530  142.0590 C   0  0  0  0  0  3  0  0  0  0  0  0
  190.2480  176.9960  139.8500 C   0  0  0  0  0  0  0  0  0  0  0  0
  182.6390  177.9340  139.4770 C   0  0  2  0  0  3  0  0  0  0  0  0
  181.8830  174.3290  137.2190 C   0  0  0  0  0  2  0  0  0  0  0  0
  183.6750  177.2740  138.6940 N   0  0  0  0  0  2  0  0  0  0  0  0
  182.2420  175.5350  137.9660 N   0  0  0  0  0  0  0  0  0  0  0  0
  185.2930  173.4290  136.1310 O   0  0  0  0  0  1  0  0  0  0  0  0
  183.0870  173.4200  137.0270 C   0  0  0  0  0  2  0  0  0  0  0  0
  183.4350  176.0610  137.9780 C   0  0  0  0  0  0  0  0  0  0  0  0
  184.1950  174.2450  136.3960 C   0  0  1  0  0  3  0  0  0  0  0  0
  184.6130  175.3570  137.3550 C   0  0  0  0  0  2  0  0  0  0  0  0
  182.1710  180.2830  138.7150 C   0  0  0  0  0  2  0  0  0  0  0  0
  181.7920  178.8330  138.5780 C   0  0  2  0  0  3  0  0  0  0  0  0
  180.8720  181.0390  138.5010 C   0  0  2  0  0  3  0  0  0  0  0  0
  179.7600  180.1030  138.6610 N   0  0  0  0  0  2  0  0  0  0  0  0
  180.3430  178.8080  138.9990 C   0  0  0  0  0  2  0  0  0  0  0  0
  179.5800  181.2280  136.3580 C   0  0  0  0  0  1  0  0  0  0  0  0
  180.8050  181.6910  137.1190 C   0  0  1  0  0  3  0  0  0  0  0  0
  180.8060  183.0830  137.2180 O   0  0  0  0  0  1  0  0  0  0  0  0
  1  7  1  1  0  0  0
  2  3  1  0  0  0  0
  2  6  1  0  0  0  0
  3  4  1  0  0  0  0
  4  1  1  0  0  0  0
  5  3  2  0  0  0  0
  6  1  1  0  0  0  0
  8 11  1  0  0  0  0
  9  8  2  0  0  0  0
 10 14  2  0  0  0  0
 11 12  2  0  0  0  0
 13 16  1  1  0  0  0
 13  8  1  0  0  0  0
 13 10  1  0  0  0  0
 14 12  1  0  0  0  0
 15  7  1  0  0  0  0
 15  9  2  0  0  0  0
 18 17  1  6  0  0  0
 18 16  1  0  0  0  0
 19 26  1  0  0  0  0
 20 18  1  0  0  0  0
 21 23  1  0  0  0  0
 22 20  2  0  0  0  0
 23 26  2  0  0  0  0
 23 24  1  0  0  0  0
 24 25  2  0  0  0  0
 25 20  1  0  0  0  0
 26 22  1  0  0  0  0
 27 29  1  6  0  0  0
 27  2  1  0  0  0  0
 28 30  1  0  0  0  0
 30 33  2  0  0  0  0
 32 28  1  0  0  0  0
 33 29  1  0  0  0  0
 34 31  1  1  0  0  0
 34 32  1  0  0  0  0
 34 35  1  0  0  0  0
 35 33  1  0  0  0  0
 37 36  1  0  0  0  0
 37 40  1  0  0  0  0
 37 27  1  1  0  0  0
 38 42  1  6  0  0  0
 38 39  1  0  0  0  0
 38 36  1  0  0  0  0
 39 40  1  0  0  0  0
 42 41  1  1  0  0  0
 42 43  1  0  0  0  0
M  END
>  <MODEL>
9

>  <REMARK>
 VINA RESULT:      -8.4      4.162      7.927
  Name = 
  9 active torsions:
  status: ('A' for Active; 'I' for Inactive)
    1  A    between atoms: C_1  and  C_7
    2  A    between atoms: C_7  and  C_43
    3  A    between atoms: N_8  and  C_10
    4  A    between atoms: C_10  and  N_17
    5  A    between atoms: C_10  and  C_19
    6  A    between atoms: C_13  and  C_29
    7  A    between atoms: C_29  and  N_30
    8  A    between atoms: N_30  and  C_38
    9  A    between atoms: C_31  and  C_37
                            x       y       z     vdW  Elec       q    Type
                         _______ _______ _______ _____ _____    ______ ____

>  <TORSDO>
F 9

$$$$
