=
 OpenBabel11062416313D

 29 33  0  0  1  0  0  0  0  0999 V2000
  189.2320  176.9950  138.9250 N   0  0  0  0  0  0  0  0  0  0  0  0
  187.9280  177.5290  139.1160 C   0  0  0  0  0  0  0  0  0  0  0  0
  185.7790  178.4560  138.5640 C   0  0  0  0  0  3  0  0  0  0  0  0
  186.5980  178.8580  140.8630 C   0  0  0  0  0  0  0  0  0  0  0  0
  185.6050  178.9290  139.7730 N   0  0  0  0  0  0  0  0  0  0  0  0
  188.9100  177.7600  141.0750 C   0  0  0  0  0  0  0  0  0  0  0  0
  187.7550  177.9870  140.4700 C   0  0  0  0  0  0  0  0  0  0  0  0
  187.0210  177.7530  138.1740 C   0  0  0  0  0  3  0  0  0  0  0  0
  189.7990  177.1420  140.0830 C   0  0  2  0  0  3  0  0  0  0  0  0
  191.1460  176.7560  140.3340 N   0  0  0  0  0  1  0  0  0  0  0  0
  188.0830  176.7450  147.5610 N   0  0  0  0  0  1  0  0  0  0  0  0
  187.5460  176.5780  145.1760 C   0  0  0  0  0  3  0  0  0  0  0  0
  190.6890  179.1540  143.9590 C   0  0  2  0  0  3  0  0  0  0  0  0
  188.8440  177.8140  143.5850 C   0  0  0  0  0  0  0  0  0  0  0  0
  189.3070  178.2890  142.3410 N   0  0  0  0  0  0  0  0  0  0  0  0
  190.4740  179.0650  142.4970 N   0  0  0  0  0  2  0  0  0  0  0  0
  187.7950  176.9290  143.8380 C   0  0  0  0  0  3  0  0  0  0  0  0
  189.4080  177.9750  145.9120 C   0  0  0  0  0  3  0  0  0  0  0  0
  188.3460  177.1040  146.2110 C   0  0  0  0  0  0  0  0  0  0  0  0
  192.0650  178.6140  144.2980 C   0  0  0  0  0  1  0  0  0  0  0  0
  189.6300  178.3040  144.5740 C   0  0  0  0  0  0  0  0  0  0  0  0
  185.9320  178.3360  142.1270 C   0  0  0  0  0  2  0  0  0  0  0  0
  185.0980  179.4270  144.0290 C   0  0  0  0  0  2  0  0  0  0  0  0
  182.7610  178.9440  143.6170 C   0  0  0  0  0  2  0  0  0  0  0  0
  184.9240  179.2750  142.5900 N   0  0  0  0  0  0  0  0  0  0  0  0
  183.7100  179.5620  144.6210 C   0  0  1  0  0  3  0  0  0  0  0  0
  183.6290  178.6280  142.4110 C   0  0  0  0  0  2  0  0  0  0  0  0
  183.5890  179.0410  145.9320 O   0  0  0  0  0  0  0  0  0  0  0  0
  184.8460  178.6080  146.3870 C   0  0  0  0  0  1  0  0  0  0  0  0
  1  2  2  0  0  0  0
  1  9  1  0  0  0  0
  2  7  1  0  0  0  0
  3  5  1  0  0  0  0
  4 22  1  0  0  0  0
  5  4  2  0  0  0  0
  6 15  1  0  0  0  0
  7  4  1  0  0  0  0
  7  6  2  0  0  0  0
  8  3  2  0  0  0  0
  8  2  1  0  0  0  0
  9 10  1  6  0  0  0
  9  6  1  0  0  0  0
 12 19  1  0  0  0  0
 13 20  1  6  0  0  0
 13 21  1  0  0  0  0
 14 17  1  0  0  0  0
 14 21  2  0  0  0  0
 15 16  1  0  0  0  0
 15 14  1  0  0  0  0
 16 13  1  0  0  0  0
 17 12  2  0  0  0  0
 18 19  2  0  0  0  0
 19 11  1  0  0  0  0
 21 18  1  0  0  0  0
 22 25  1  0  0  0  0
 23 26  1  0  0  0  0
 24 26  1  0  0  0  0
 25 23  1  0  0  0  0
 26 28  1  1  0  0  0
 27 25  1  0  0  0  0
 27 24  1  0  0  0  0
 28 29  1  0  0  0  0
M  END
>  <MODEL>
1

>  <REMARK>
 VINA RESULT:      -7.8      0.000      0.000
  Name = 
  4 active torsions:
  status: ('A' for Active; 'I' for Inactive)
    1  A    between atoms: O_8  and  C_27
    2  A    between atoms: C_10  and  C_17
    3  A    between atoms: N_11  and  C_18
    4  A    between atoms: C_17  and  N_25
                            x       y       z     vdW  Elec       q    Type
                         _______ _______ _______ _____ _____    ______ ____

>  <TORSDO>
F 4

$$$$
=
 OpenBabel11062416313D

 29 33  0  0  1  0  0  0  0  0999 V2000
  190.3690  177.8800  139.3990 N   0  0  0  0  0  0  0  0  0  0  0  0
  190.0930  177.3380  140.6840 C   0  0  1  0  0  3  0  0  0  0  0  0
  190.3180  175.9360  142.6260 C   0  0  0  0  0  3  0  0  0  0  0  0
  188.1070  176.9860  142.2720 C   0  0  0  0  0  0  0  0  0  0  0  0
  189.0920  176.1770  143.0170 N   0  0  0  0  0  0  0  0  0  0  0  0
  188.2330  178.3700  140.1120 C   0  0  0  0  0  0  0  0  0  0  0  0
  188.7570  177.6710  141.1050 C   0  0  0  0  0  0  0  0  0  0  0  0
  190.8600  176.4980  141.3680 C   0  0  0  0  0  3  0  0  0  0  0  0
  189.2650  178.4780  139.0730 C   0  0  0  0  0  0  0  0  0  0  0  0
  189.0900  179.1450  137.8270 N   0  0  0  0  0  1  0  0  0  0  0  0
  182.9840  176.7660  136.4150 N   0  0  0  0  0  1  0  0  0  0  0  0
  185.3620  176.9550  136.9760 C   0  0  0  0  0  3  0  0  0  0  0  0
  184.6770  179.1400  140.5470 C   0  0  2  0  0  3  0  0  0  0  0  0
  186.0190  178.1490  138.9480 C   0  0  0  0  0  0  0  0  0  0  0  0
  186.8480  178.6850  139.9530 N   0  0  0  0  0  0  0  0  0  0  0  0
  186.0840  179.2500  140.9940 N   0  0  0  0  0  2  0  0  0  0  0  0
  186.3870  177.4120  137.8210 C   0  0  0  0  0  3  0  0  0  0  0  0
  183.6810  177.9570  138.4360 C   0  0  0  0  0  3  0  0  0  0  0  0
  184.0130  177.2310  137.2790 C   0  0  0  0  0  0  0  0  0  0  0  0
  183.8820  178.3600  141.5770 C   0  0  0  0  0  1  0  0  0  0  0  0
  184.7220  178.3980  139.2550 C   0  0  0  0  0  0  0  0  0  0  0  0
  187.4660  177.9990  143.2070 C   0  0  0  0  0  2  0  0  0  0  0  0
  185.6530  177.6410  144.6520 C   0  0  0  0  0  2  0  0  0  0  0  0
  186.8190  178.2090  146.6970 C   0  0  0  0  0  2  0  0  0  0  0  0
  187.0670  177.3570  144.4490 N   0  0  0  0  0  0  0  0  0  0  0  0
  185.4600  177.8380  146.1420 C   0  0  1  0  0  3  0  0  0  0  0  0
  187.7710  178.0450  145.5260 C   0  0  0  0  0  2  0  0  0  0  0  0
  184.4290  178.7480  146.4750 O   0  0  0  0  0  0  0  0  0  0  0  0
  183.6900  179.0680  145.3230 C   0  0  0  0  0  1  0  0  0  0  0  0
  1  2  1  0  0  0  0
  2  7  1  0  0  0  0
  2  8  1  6  0  0  0
  3  5  1  0  0  0  0
  4  5  2  0  0  0  0
  4 22  1  0  0  0  0
  6  7  2  0  0  0  0
  7  4  1  0  0  0  0
  8  3  2  0  0  0  0
  9  1  2  0  0  0  0
  9  6  1  0  0  0  0
 10  9  1  0  0  0  0
 11 19  1  0  0  0  0
 12 19  2  0  0  0  0
 12 17  1  0  0  0  0
 13 16  1  0  0  0  0
 13 20  1  1  0  0  0
 14 21  1  0  0  0  0
 14 15  1  0  0  0  0
 15  6  1  0  0  0  0
 15 16  1  0  0  0  0
 17 14  2  0  0  0  0
 18 21  2  0  0  0  0
 19 18  1  0  0  0  0
 21 13  1  0  0  0  0
 22 25  1  0  0  0  0
 23 26  1  0  0  0  0
 25 23  1  0  0  0  0
 25 27  1  0  0  0  0
 26 28  1  6  0  0  0
 26 24  1  0  0  0  0
 27 24  1  0  0  0  0
 29 28  1  0  0  0  0
M  END
>  <MODEL>
2

>  <REMARK>
 VINA RESULT:      -7.7      1.882      5.604
  Name = 
  4 active torsions:
  status: ('A' for Active; 'I' for Inactive)
    1  A    between atoms: O_8  and  C_27
    2  A    between atoms: C_10  and  C_17
    3  A    between atoms: N_11  and  C_18
    4  A    between atoms: C_17  and  N_25
                            x       y       z     vdW  Elec       q    Type
                         _______ _______ _______ _____ _____    ______ ____

>  <TORSDO>
F 4

$$$$
=
 OpenBabel11062416313D

 29 33  0  0  1  0  0  0  0  0999 V2000
  183.1970  178.3660  141.5580 N   0  0  0  0  0  0  0  0  0  0  0  0
  183.4190  178.5430  142.9510 C   0  0  1  0  0  3  0  0  0  0  0  0
  182.9830  179.1630  145.2340 C   0  0  0  0  0  3  0  0  0  0  0  0
  185.3590  178.9310  144.5870 C   0  0  0  0  0  0  0  0  0  0  0  0
  184.2560  179.1650  145.5400 N   0  0  0  0  0  0  0  0  0  0  0  0
  185.4360  178.2960  142.0990 C   0  0  0  0  0  0  0  0  0  0  0  0
  184.8240  178.4820  143.2580 C   0  0  0  0  0  0  0  0  0  0  0  0
  182.5130  178.8850  143.8570 C   0  0  0  0  0  3  0  0  0  0  0  0
  184.3910  178.2270  141.0700 C   0  0  0  0  0  0  0  0  0  0  0  0
  184.6380  178.0500  139.6790 N   0  0  0  0  0  1  0  0  0  0  0  0
  191.1660  175.1170  143.0210 N   0  0  0  0  0  1  0  0  0  0  0  0
  188.8060  175.6500  143.4110 C   0  0  0  0  0  3  0  0  0  0  0  0
  188.7750  178.9420  140.7350 C   0  0  2  0  0  3  0  0  0  0  0  0
  187.8180  177.5230  142.2880 C   0  0  0  0  0  0  0  0  0  0  0  0
  186.8380  178.4420  141.8620 N   0  0  0  0  0  0  0  0  0  0  0  0
  187.3440  179.2980  140.8640 N   0  0  0  0  0  2  0  0  0  0  0  0
  187.6760  176.4500  143.1690 C   0  0  0  0  0  3  0  0  0  0  0  0
  190.1240  177.0070  141.8680 C   0  0  0  0  0  3  0  0  0  0  0  0
  190.0280  175.9310  142.7670 C   0  0  0  0  0  0  0  0  0  0  0  0
  189.0670  178.5440  139.3000 C   0  0  0  0  0  1  0  0  0  0  0  0
  188.9850  177.7830  141.6490 C   0  0  0  0  0  0  0  0  0  0  0  0
  186.3190  177.9010  145.1600 C   0  0  0  0  0  2  0  0  0  0  0  0
  188.5220  178.0150  145.9600 C   0  0  0  0  0  2  0  0  0  0  0  0
  187.9790  177.6980  148.2980 C   0  0  0  0  0  2  0  0  0  0  0  0
  187.1670  178.5090  146.1710 N   0  0  0  0  0  0  0  0  0  0  0  0
  189.1370  177.8360  147.3330 C   0  0  1  0  0  3  0  0  0  0  0  0
  186.7430  177.9720  147.4600 C   0  0  0  0  0  2  0  0  0  0  0  0
  190.0840  176.7870  147.4080 O   0  0  0  0  0  0  0  0  0  0  0  0
  190.9740  176.8740  146.3240 C   0  0  0  0  0  1  0  0  0  0  0  0
  1  2  1  0  0  0  0
  2  7  1  0  0  0  0
  2  8  1  6  0  0  0
  3  5  1  0  0  0  0
  4 22  1  0  0  0  0
  4  5  2  0  0  0  0
  6  7  2  0  0  0  0
  7  4  1  0  0  0  0
  8  3  2  0  0  0  0
  9  1  2  0  0  0  0
  9  6  1  0  0  0  0
 10  9  1  0  0  0  0
 13 20  1  6  0  0  0
 13 16  1  0  0  0  0
 13 21  1  0  0  0  0
 14 17  2  0  0  0  0
 15  6  1  0  0  0  0
 15 14  1  0  0  0  0
 16 15  1  0  0  0  0
 17 12  1  0  0  0  0
 18 19  1  0  0  0  0
 19 11  1  0  0  0  0
 19 12  2  0  0  0  0
 21 18  2  0  0  0  0
 21 14  1  0  0  0  0
 22 25  1  0  0  0  0
 23 25  1  0  0  0  0
 23 26  1  0  0  0  0
 25 27  1  0  0  0  0
 26 28  1  6  0  0  0
 26 24  1  0  0  0  0
 27 24  1  0  0  0  0
 29 28  1  0  0  0  0
M  END
>  <MODEL>
3

>  <REMARK>
 VINA RESULT:      -7.2      2.378      5.112
  Name = 
  4 active torsions:
  status: ('A' for Active; 'I' for Inactive)
    1  A    between atoms: O_8  and  C_27
    2  A    between atoms: C_10  and  C_17
    3  A    between atoms: N_11  and  C_18
    4  A    between atoms: C_17  and  N_25
                            x       y       z     vdW  Elec       q    Type
                         _______ _______ _______ _____ _____    ______ ____

>  <TORSDO>
F 4

$$$$
=
 OpenBabel11062416313D

 29 33  0  0  1  0  0  0  0  0999 V2000
  181.4880  178.6330  143.9360 N   0  0  0  0  0  0  0  0  0  0  0  0
  182.8840  178.7490  144.1790 C   0  0  0  0  0  0  0  0  0  0  0  0
  184.9260  179.2400  145.3520 C   0  0  0  0  0  3  0  0  0  0  0  0
  185.0690  179.1280  142.8850 C   0  0  2  0  0  3  0  0  0  0  0  0
  185.6250  179.2740  144.2450 N   0  0  0  0  0  0  0  0  0  0  0  0
  182.7170  178.6200  141.9860 C   0  0  0  0  0  0  0  0  0  0  0  0
  183.6240  178.7260  142.9440 C   0  0  0  0  0  0  0  0  0  0  0  0
  183.4630  179.0130  145.3430 C   0  0  0  0  0  3  0  0  0  0  0  0
  181.4050  178.5640  142.6430 C   0  0  0  0  0  0  0  0  0  0  0  0
  180.1620  178.4640  141.9570 N   0  0  0  0  0  1  0  0  0  0  0  0
  182.5660  175.3990  136.2080 N   0  0  0  0  0  1  0  0  0  0  0  0
  182.6790  175.6360  138.6440 C   0  0  0  0  0  3  0  0  0  0  0  0
  182.8810  179.8720  138.5460 C   0  0  2  0  0  3  0  0  0  0  0  0
  182.8710  177.8210  139.6110 C   0  0  0  0  0  0  0  0  0  0  0  0
  182.9480  178.8300  140.5910 N   0  0  0  0  0  0  0  0  0  0  0  0
  182.8930  180.1110  140.0070 N   0  0  0  0  0  2  0  0  0  0  0  0
  182.7790  176.4400  139.7920 C   0  0  0  0  0  3  0  0  0  0  0  0
  182.7350  177.6200  137.2220 C   0  0  0  0  0  3  0  0  0  0  0  0
  182.6630  176.2230  137.3630 C   0  0  0  0  0  0  0  0  0  0  0  0
  181.6450  180.5110  137.9430 C   0  0  0  0  0  1  0  0  0  0  0  0
  182.8330  178.3910  138.3810 C   0  0  0  0  0  0  0  0  0  0  0  0
  185.8840  178.1080  142.1070 C   0  0  0  0  0  2  0  0  0  0  0  0
  188.0800  178.2770  141.2990 C   0  0  0  0  0  2  0  0  0  0  0  0
  188.9950  176.4640  142.6180 C   0  0  0  0  0  2  0  0  0  0  0  0
  187.2790  178.1620  142.5110 N   0  0  0  0  0  0  0  0  0  0  0  0
  189.3350  177.4610  141.5310 C   0  0  1  0  0  3  0  0  0  0  0  0
  187.6060  176.8610  143.0830 C   0  0  0  0  0  2  0  0  0  0  0  0
  189.8700  176.8790  140.3570 O   0  0  0  0  0  0  0  0  0  0  0  0
  189.0680  177.2170  139.2530 C   0  0  0  0  0  1  0  0  0  0  0  0
  1  2  1  0  0  0  0
  2  8  2  0  0  0  0
  4 22  1  6  0  0  0
  4  7  1  0  0  0  0
  4  5  1  0  0  0  0
  5  3  2  0  0  0  0
  6  9  1  0  0  0  0
  6  7  2  0  0  0  0
  7  2  1  0  0  0  0
  8  3  1  0  0  0  0
  9  1  2  0  0  0  0
 10  9  1  0  0  0  0
 11 19  1  0  0  0  0
 12 17  1  0  0  0  0
 13 20  1  1  0  0  0
 13 16  1  0  0  0  0
 14 17  2  0  0  0  0
 14 15  1  0  0  0  0
 15  6  1  0  0  0  0
 16 15  1  0  0  0  0
 18 19  1  0  0  0  0
 18 21  2  0  0  0  0
 19 12  2  0  0  0  0
 21 13  1  0  0  0  0
 21 14  1  0  0  0  0
 22 25  1  0  0  0  0
 23 26  1  0  0  0  0
 23 25  1  0  0  0  0
 24 27  1  0  0  0  0
 25 27  1  0  0  0  0
 26 28  1  6  0  0  0
 26 24  1  0  0  0  0
 29 28  1  0  0  0  0
M  END
>  <MODEL>
4

>  <REMARK>
 VINA RESULT:      -7.1      3.181      7.922
  Name = 
  4 active torsions:
  status: ('A' for Active; 'I' for Inactive)
    1  A    between atoms: O_8  and  C_27
    2  A    between atoms: C_10  and  C_17
    3  A    between atoms: N_11  and  C_18
    4  A    between atoms: C_17  and  N_25
                            x       y       z     vdW  Elec       q    Type
                         _______ _______ _______ _____ _____    ______ ____

>  <TORSDO>
F 4

$$$$
=
 OpenBabel11062416313D

 29 33  0  0  1  0  0  0  0  0999 V2000
  190.8320  176.2230  141.3600 N   0  0  0  0  0  0  0  0  0  0  0  0
  190.0200  177.0890  140.5780 C   0  0  0  0  0  0  0  0  0  0  0  0
  189.4300  178.6980  138.8900 C   0  0  0  0  0  3  0  0  0  0  0  0
  187.8610  178.4620  140.7870 C   0  0  0  0  0  0  0  0  0  0  0  0
  188.3050  179.0030  139.4870 N   0  0  0  0  0  0  0  0  0  0  0  0
  188.8230  176.6960  142.3860 C   0  0  0  0  0  0  0  0  0  0  0  0
  188.7690  177.3560  141.2390 C   0  0  0  0  0  0  0  0  0  0  0  0
  190.3820  177.7240  139.4710 C   0  0  0  0  0  3  0  0  0  0  0  0
  190.1180  176.0050  142.4210 C   0  0  2  0  0  3  0  0  0  0  0  0
  190.5720  175.1950  143.5010 N   0  0  0  0  0  1  0  0  0  0  0  0
  188.8710  178.2680  148.8130 N   0  0  0  0  0  1  0  0  0  0  0  0
  189.8060  177.4980  146.6830 C   0  0  0  0  0  3  0  0  0  0  0  0
  186.0790  177.5570  144.6560 C   0  0  2  0  0  3  0  0  0  0  0  0
  188.3510  177.1630  144.8070 C   0  0  0  0  0  0  0  0  0  0  0  0
  187.9360  176.8720  143.4920 N   0  0  0  0  0  0  0  0  0  0  0  0
  186.5660  177.1540  143.3180 N   0  0  0  0  0  2  0  0  0  0  0  0
  189.6420  177.1280  145.3370 C   0  0  0  0  0  3  0  0  0  0  0  0
  187.4130  177.9430  146.8740 C   0  0  0  0  0  3  0  0  0  0  0  0
  188.6940  177.8990  147.4510 C   0  0  0  0  0  0  0  0  0  0  0  0
  185.4710  178.9450  144.5730 C   0  0  0  0  0  1  0  0  0  0  0  0
  187.2830  177.5700  145.5360 C   0  0  0  0  0  0  0  0  0  0  0  0
  186.4260  177.9720  140.6720 C   0  0  0  0  0  2  0  0  0  0  0  0
  184.4280  179.2000  140.7260 C   0  0  0  0  0  2  0  0  0  0  0  0
  183.7150  178.6580  138.4760 C   0  0  0  0  0  2  0  0  0  0  0  0
  185.6220  178.9320  139.9350 N   0  0  0  0  0  0  0  0  0  0  0  0
  183.2860  179.3660  139.7440 C   0  0  1  0  0  3  0  0  0  0  0  0
  185.1580  178.2580  138.7270 C   0  0  0  0  0  2  0  0  0  0  0  0
  182.0300  178.9490  140.2450 O   0  0  0  0  0  0  0  0  0  0  0  0
  182.1470  178.6280  141.6080 C   0  0  0  0  0  1  0  0  0  0  0  0
  1  9  1  0  0  0  0
  2  7  1  0  0  0  0
  2  1  2  0  0  0  0
  3  8  2  0  0  0  0
  3  5  1  0  0  0  0
  4  7  1  0  0  0  0
  5  4  2  0  0  0  0
  6  9  1  0  0  0  0
  6 15  1  0  0  0  0
  7  6  2  0  0  0  0
  8  2  1  0  0  0  0
  9 10  1  1  0  0  0
 12 19  1  0  0  0  0
 13 20  1  6  0  0  0
 13 21  1  0  0  0  0
 14 17  1  0  0  0  0
 14 21  2  0  0  0  0
 15 14  1  0  0  0  0
 16 15  1  0  0  0  0
 16 13  1  0  0  0  0
 17 12  2  0  0  0  0
 18 19  2  0  0  0  0
 19 11  1  0  0  0  0
 21 18  1  0  0  0  0
 22  4  1  0  0  0  0
 24 27  1  0  0  0  0
 24 26  1  0  0  0  0
 25 22  1  0  0  0  0
 25 23  1  0  0  0  0
 26 28  1  1  0  0  0
 26 23  1  0  0  0  0
 27 25  1  0  0  0  0
 28 29  1  0  0  0  0
M  END
>  <MODEL>
5

>  <REMARK>
 VINA RESULT:      -7.0      2.047      3.511
  Name = 
  4 active torsions:
  status: ('A' for Active; 'I' for Inactive)
    1  A    between atoms: O_8  and  C_27
    2  A    between atoms: C_10  and  C_17
    3  A    between atoms: N_11  and  C_18
    4  A    between atoms: C_17  and  N_25
                            x       y       z     vdW  Elec       q    Type
                         _______ _______ _______ _____ _____    ______ ____

>  <TORSDO>
F 4

$$$$
=
 OpenBabel11062416313D

 29 33  0  0  1  0  0  0  0  0999 V2000
  185.8060  178.9820  141.7680 N   0  0  0  0  0  0  0  0  0  0  0  0
  184.6870  179.0490  142.6430 C   0  0  0  0  0  0  0  0  0  0  0  0
  183.4350  178.9940  144.6950 C   0  0  0  0  0  3  0  0  0  0  0  0
  182.1540  178.6280  142.6110 C   0  0  2  0  0  3  0  0  0  0  0  0
  182.3000  178.8070  144.0690 N   0  0  0  0  0  0  0  0  0  0  0  0
  183.8080  178.7250  140.6480 C   0  0  0  0  0  0  0  0  0  0  0  0
  183.4560  178.8960  141.9120 C   0  0  0  0  0  0  0  0  0  0  0  0
  184.7220  179.0760  143.9680 C   0  0  0  0  0  3  0  0  0  0  0  0
  185.2740  178.7870  140.6000 C   0  0  0  0  0  0  0  0  0  0  0  0
  186.0520  178.6310  139.4180 N   0  0  0  0  0  1  0  0  0  0  0  0
  180.2940  180.9890  135.5180 N   0  0  0  0  0  1  0  0  0  0  0  0
  181.4880  181.1190  137.6550 C   0  0  0  0  0  3  0  0  0  0  0  0
  182.2010  176.9430  137.8790 C   0  0  2  0  0  3  0  0  0  0  0  0
  182.2990  179.1090  138.6780 C   0  0  0  0  0  0  0  0  0  0  0  0
  182.9540  178.2660  139.5980 N   0  0  0  0  0  0  0  0  0  0  0  0
  182.9840  176.9350  139.1340 N   0  0  0  0  0  2  0  0  0  0  0  0
  182.1640  180.4980  138.7180 C   0  0  0  0  0  3  0  0  0  0  0  0
  181.1550  178.9550  136.5730 C   0  0  0  0  0  3  0  0  0  0  0  0
  180.9790  180.3500  136.5880 C   0  0  0  0  0  0  0  0  0  0  0  0
  183.0650  176.4270  136.7440 C   0  0  0  0  0  1  0  0  0  0  0  0
  181.8320  178.3680  137.6440 C   0  0  0  0  0  0  0  0  0  0  0  0
  181.0610  179.5460  142.0910 C   0  0  0  0  0  2  0  0  0  0  0  0
  180.2020  177.3790  141.8310 C   0  0  0  0  0  2  0  0  0  0  0  0
  178.9310  177.8290  139.8200 C   0  0  0  0  0  2  0  0  0  0  0  0
  179.8450  178.7910  141.8400 N   0  0  0  0  0  0  0  0  0  0  0  0
  179.3490  176.7220  140.7640 C   0  0  1  0  0  3  0  0  0  0  0  0
  179.4240  179.1050  140.4780 C   0  0  0  0  0  2  0  0  0  0  0  0
  179.9670  175.6190  140.1290 O   0  0  0  0  0  0  0  0  0  0  0  0
  179.2740  174.4390  140.4480 C   0  0  0  0  0  1  0  0  0  0  0  0
  1  2  1  0  0  0  0
  2  8  2  0  0  0  0
  4 22  1  6  0  0  0
  4  5  1  0  0  0  0
  5  3  2  0  0  0  0
  6  7  2  0  0  0  0
  7  4  1  0  0  0  0
  7  2  1  0  0  0  0
  8  3  1  0  0  0  0
  9  6  1  0  0  0  0
  9  1  2  0  0  0  0
 10  9  1  0  0  0  0
 11 19  1  0  0  0  0
 12 17  1  0  0  0  0
 13 20  1  6  0  0  0
 13 16  1  0  0  0  0
 14 17  2  0  0  0  0
 14 15  1  0  0  0  0
 15  6  1  0  0  0  0
 16 15  1  0  0  0  0
 18 19  1  0  0  0  0
 18 21  2  0  0  0  0
 19 12  2  0  0  0  0
 21 13  1  0  0  0  0
 21 14  1  0  0  0  0
 23 25  1  0  0  0  0
 24 27  1  0  0  0  0
 24 26  1  0  0  0  0
 25 22  1  0  0  0  0
 26 28  1  6  0  0  0
 26 23  1  0  0  0  0
 27 25  1  0  0  0  0
 28 29  1  0  0  0  0
M  END
>  <MODEL>
6

>  <REMARK>
 VINA RESULT:      -7.0      4.056      8.061
  Name = 
  4 active torsions:
  status: ('A' for Active; 'I' for Inactive)
    1  A    between atoms: O_8  and  C_27
    2  A    between atoms: C_10  and  C_17
    3  A    between atoms: N_11  and  C_18
    4  A    between atoms: C_17  and  N_25
                            x       y       z     vdW  Elec       q    Type
                         _______ _______ _______ _____ _____    ______ ____

>  <TORSDO>
F 4

$$$$
=
 OpenBabel11062416313D

 29 33  0  0  1  0  0  0  0  0999 V2000
  189.0760  178.4340  137.0270 N   0  0  0  0  0  0  0  0  0  0  0  0
  189.5630  177.8060  138.2060 C   0  0  1  0  0  3  0  0  0  0  0  0
  190.9070  176.3790  139.5990 C   0  0  0  0  0  3  0  0  0  0  0  0
  188.7300  177.0960  140.5280 C   0  0  0  0  0  0  0  0  0  0  0  0
  190.0400  176.4170  140.5800 N   0  0  0  0  0  0  0  0  0  0  0  0
  187.5730  178.5680  138.7690 C   0  0  0  0  0  0  0  0  0  0  0  0
  188.6080  177.9170  139.2780 C   0  0  0  0  0  0  0  0  0  0  0  0
  190.6580  177.0660  138.3120 C   0  0  0  0  0  3  0  0  0  0  0  0
  187.9040  178.8720  137.3710 C   0  0  0  0  0  0  0  0  0  0  0  0
  187.0420  179.5520  136.4660 N   0  0  0  0  0  1  0  0  0  0  0  0
  181.5950  175.7340  138.6420 N   0  0  0  0  0  1  0  0  0  0  0  0
  183.8250  176.3090  137.8060 C   0  0  0  0  0  3  0  0  0  0  0  0
  184.7000  178.9470  141.0110 C   0  0  2  0  0  3  0  0  0  0  0  0
  185.1700  177.8830  139.0140 C   0  0  0  0  0  0  0  0  0  0  0  0
  186.2800  178.6770  139.3660 N   0  0  0  0  0  0  0  0  0  0  0  0
  186.0800  179.3040  140.6130 N   0  0  0  0  0  2  0  0  0  0  0  0
  185.0300  177.0240  137.9230 C   0  0  0  0  0  3  0  0  0  0  0  0
  182.9990  177.3190  139.8690 C   0  0  0  0  0  3  0  0  0  0  0  0
  182.8100  176.4600  138.7730 C   0  0  0  0  0  0  0  0  0  0  0  0
  184.7300  178.2530  142.3600 C   0  0  0  0  0  1  0  0  0  0  0  0
  184.2060  178.0140  139.9580 C   0  0  0  0  0  0  0  0  0  0  0  0
  188.5560  177.9640  141.7650 C   0  0  0  0  0  2  0  0  0  0  0  0
  188.1750  176.9330  143.8380 C   0  0  0  0  0  2  0  0  0  0  0  0
  189.8050  178.2200  145.0840 C   0  0  0  0  0  2  0  0  0  0  0  0
  189.2150  177.3520  142.9070 N   0  0  0  0  0  0  0  0  0  0  0  0
  188.7180  177.1760  145.2310 C   0  0  1  0  0  3  0  0  0  0  0  0
  189.9550  178.4110  143.5850 C   0  0  0  0  0  2  0  0  0  0  0  0
  187.7270  177.5010  146.1880 O   0  0  0  0  0  0  0  0  0  0  0  0
  186.6190  178.0780  145.5440 C   0  0  0  0  0  1  0  0  0  0  0  0
  1  9  2  0  0  0  0
  1  2  1  0  0  0  0
  2  8  1  6  0  0  0
  2  7  1  0  0  0  0
  3  5  1  0  0  0  0
  4  5  2  0  0  0  0
  4 22  1  0  0  0  0
  6  7  2  0  0  0  0
  6 15  1  0  0  0  0
  7  4  1  0  0  0  0
  8  3  2  0  0  0  0
  9  6  1  0  0  0  0
 10  9  1  0  0  0  0
 11 19  1  0  0  0  0
 12 17  2  0  0  0  0
 12 19  1  0  0  0  0
 13 20  1  1  0  0  0
 14 15  1  0  0  0  0
 14 21  2  0  0  0  0
 15 16  1  0  0  0  0
 16 13  1  0  0  0  0
 17 14  1  0  0  0  0
 18 21  1  0  0  0  0
 19 18  2  0  0  0  0
 21 13  1  0  0  0  0
 22 25  1  0  0  0  0
 23 26  1  0  0  0  0
 24 26  1  0  0  0  0
 25 27  1  0  0  0  0
 25 23  1  0  0  0  0
 26 28  1  1  0  0  0
 27 24  1  0  0  0  0
 29 28  1  0  0  0  0
M  END
>  <MODEL>
7

>  <REMARK>
 VINA RESULT:      -6.9      2.161      5.792
  Name = 
  4 active torsions:
  status: ('A' for Active; 'I' for Inactive)
    1  A    between atoms: O_8  and  C_27
    2  A    between atoms: C_10  and  C_17
    3  A    between atoms: N_11  and  C_18
    4  A    between atoms: C_17  and  N_25
                            x       y       z     vdW  Elec       q    Type
                         _______ _______ _______ _____ _____    ______ ____

>  <TORSDO>
F 4

$$$$
=
 OpenBabel11062416313D

 29 33  0  0  1  0  0  0  0  0999 V2000
  194.1840  175.7360  137.9800 N   0  0  0  0  0  0  0  0  0  0  0  0
  193.6030  174.7350  137.1530 C   0  0  0  0  0  0  0  0  0  0  0  0
  193.4430  173.0450  135.4500 C   0  0  0  0  0  3  0  0  0  0  0  0
  191.3220  174.1010  136.1610 C   0  0  0  0  0  0  0  0  0  0  0  0
  192.1370  173.1350  135.3980 N   0  0  0  0  0  0  0  0  0  0  0  0
  191.8820  175.8570  137.9500 C   0  0  0  0  0  0  0  0  0  0  0  0
  192.1670  174.8300  137.1660 C   0  0  0  0  0  0  0  0  0  0  0  0
  194.2490  173.9150  136.3350 C   0  0  0  0  0  3  0  0  0  0  0  0
  193.1610  176.3910  138.4370 C   0  0  2  0  0  3  0  0  0  0  0  0
  193.2910  177.5150  139.3000 N   0  0  0  0  0  1  0  0  0  0  0  0
  187.7140  178.3100  142.4660 N   0  0  0  0  0  1  0  0  0  0  0  0
  189.5620  176.9370  141.6280 C   0  0  0  0  0  3  0  0  0  0  0  0
  188.9090  177.9630  137.5640 C   0  0  2  0  0  3  0  0  0  0  0  0
  189.9840  176.8350  139.2710 C   0  0  0  0  0  0  0  0  0  0  0  0
  190.6110  176.5020  138.0540 N   0  0  0  0  0  0  0  0  0  0  0  0
  190.0400  177.2100  136.9770 N   0  0  0  0  0  2  0  0  0  0  0  0
  190.3320  176.4390  140.5630 C   0  0  0  0  0  3  0  0  0  0  0  0
  188.1830  178.2090  140.0660 C   0  0  0  0  0  3  0  0  0  0  0  0
  188.4870  177.8150  141.3800 C   0  0  0  0  0  0  0  0  0  0  0  0
  189.0940  179.4430  137.2880 C   0  0  0  0  0  1  0  0  0  0  0  0
  188.9660  177.6970  139.0300 C   0  0  0  0  0  0  0  0  0  0  0  0
  190.1750  173.3730  136.8440 C   0  0  0  0  0  2  0  0  0  0  0  0
  188.0070  174.2670  136.7900 C   0  0  0  0  0  2  0  0  0  0  0  0
  186.8910  172.2330  136.0970 C   0  0  0  0  0  2  0  0  0  0  0  0
  188.9680  173.4680  136.0410 N   0  0  0  0  0  0  0  0  0  0  0  0
  186.6420  173.6630  136.5280 C   0  0  1  0  0  3  0  0  0  0  0  0
  188.4000  172.1260  135.9690 C   0  0  0  0  0  2  0  0  0  0  0  0
  185.7360  173.7940  137.6070 O   0  0  0  0  0  0  0  0  0  0  0  0
  184.7900  172.7560  137.5600 C   0  0  0  0  0  1  0  0  0  0  0  0
  1  9  1  0  0  0  0
  2  7  1  0  0  0  0
  2  1  2  0  0  0  0
  3  8  2  0  0  0  0
  4 22  1  0  0  0  0
  4  7  1  0  0  0  0
  5  3  1  0  0  0  0
  5  4  2  0  0  0  0
  6 15  1  0  0  0  0
  6  9  1  0  0  0  0
  7  6  2  0  0  0  0
  8  2  1  0  0  0  0
  9 10  1  6  0  0  0
 13 20  1  1  0  0  0
 13 21  1  0  0  0  0
 14 17  1  0  0  0  0
 15 14  1  0  0  0  0
 16 13  1  0  0  0  0
 16 15  1  0  0  0  0
 17 12  2  0  0  0  0
 18 19  2  0  0  0  0
 19 12  1  0  0  0  0
 19 11  1  0  0  0  0
 21 14  2  0  0  0  0
 21 18  1  0  0  0  0
 24 26  1  0  0  0  0
 25 23  1  0  0  0  0
 25 22  1  0  0  0  0
 26 23  1  0  0  0  0
 26 28  1  1  0  0  0
 27 25  1  0  0  0  0
 27 24  1  0  0  0  0
 29 28  1  0  0  0  0
M  END
>  <MODEL>
8

>  <REMARK>
 VINA RESULT:      -6.5      4.417      7.473
  Name = 
  4 active torsions:
  status: ('A' for Active; 'I' for Inactive)
    1  A    between atoms: O_8  and  C_27
    2  A    between atoms: C_10  and  C_17
    3  A    between atoms: N_11  and  C_18
    4  A    between atoms: C_17  and  N_25
                            x       y       z     vdW  Elec       q    Type
                         _______ _______ _______ _____ _____    ______ ____

>  <TORSDO>
F 4

$$$$
=
 OpenBabel11062416313D

 29 33  0  0  1  0  0  0  0  0999 V2000
  192.4320  177.1280  141.8290 N   0  0  0  0  0  0  0  0  0  0  0  0
  191.1120  177.1030  142.3600 C   0  0  0  0  0  0  0  0  0  0  0  0
  189.3110  176.6150  143.8770 C   0  0  0  0  0  3  0  0  0  0  0  0
  188.6780  177.1520  141.5460 C   0  0  2  0  0  3  0  0  0  0  0  0
  188.4000  176.8320  142.9610 N   0  0  0  0  0  0  0  0  0  0  0  0
  190.8390  177.5820  140.2270 C   0  0  0  0  0  0  0  0  0  0  0  0
  190.1430  177.4020  141.3380 C   0  0  0  0  0  0  0  0  0  0  0  0
  190.7570  176.7030  143.5730 C   0  0  0  0  0  3  0  0  0  0  0  0
  192.2540  177.4060  140.5740 C   0  0  0  0  0  0  0  0  0  0  0  0
  193.3320  177.5030  139.6490 N   0  0  0  0  0  1  0  0  0  0  0  0
  189.5000  173.6570  135.0700 N   0  0  0  0  0  1  0  0  0  0  0  0
  190.5850  174.3210  137.1650 C   0  0  0  0  0  3  0  0  0  0  0  0
  188.8800  178.2060  137.1930 C   0  0  2  0  0  3  0  0  0  0  0  0
  190.2320  176.5280  138.0300 C   0  0  0  0  0  0  0  0  0  0  0  0
  190.3010  177.6320  138.9030 N   0  0  0  0  0  0  0  0  0  0  0  0
  189.4450  178.6690  138.4800 N   0  0  0  0  0  2  0  0  0  0  0  0
  190.8350  175.2770  138.1650 C   0  0  0  0  0  3  0  0  0  0  0  0
  189.1360  175.8960  135.9900 C   0  0  0  0  0  3  0  0  0  0  0  0
  189.7430  174.6310  136.0770 C   0  0  0  0  0  0  0  0  0  0  0  0
  187.3660  178.1890  137.2860 C   0  0  0  0  0  1  0  0  0  0  0  0
  189.4040  176.8230  136.9980 C   0  0  0  0  0  0  0  0  0  0  0  0
  187.8570  178.3590  141.1250 C   0  0  0  0  0  2  0  0  0  0  0  0
  185.8450  178.5270  139.9300 C   0  0  0  0  0  2  0  0  0  0  0  0
  184.5100  179.3780  141.7630 C   0  0  0  0  0  2  0  0  0  0  0  0
  186.4380  178.0460  141.1710 N   0  0  0  0  0  0  0  0  0  0  0  0
  184.4690  179.0560  140.2840 C   0  0  1  0  0  3  0  0  0  0  0  0
  185.8580  178.8620  142.2330 C   0  0  0  0  0  2  0  0  0  0  0  0
  184.0370  180.1280  139.4680 O   0  0  0  0  0  0  0  0  0  0  0  0
  182.8220  179.7890  138.8460 C   0  0  0  0  0  1  0  0  0  0  0  0
  1  2  1  0  0  0  0
  2  8  2  0  0  0  0
  4 22  1  1  0  0  0
  4  5  1  0  0  0  0
  5  3  2  0  0  0  0
  6  9  1  0  0  0  0
  6  7  2  0  0  0  0
  7  4  1  0  0  0  0
  7  2  1  0  0  0  0
  8  3  1  0  0  0  0
  9  1  2  0  0  0  0
 10  9  1  0  0  0  0
 11 19  1  0  0  0  0
 12 17  1  0  0  0  0
 13 20  1  1  0  0  0
 13 16  1  0  0  0  0
 14 17  2  0  0  0  0
 14 15  1  0  0  0  0
 15  6  1  0  0  0  0
 16 15  1  0  0  0  0
 18 19  1  0  0  0  0
 18 21  2  0  0  0  0
 19 12  2  0  0  0  0
 21 13  1  0  0  0  0
 21 14  1  0  0  0  0
 22 25  1  0  0  0  0
 23 26  1  0  0  0  0
 23 25  1  0  0  0  0
 24 27  1  0  0  0  0
 25 27  1  0  0  0  0
 26 28  1  6  0  0  0
 26 24  1  0  0  0  0
 29 28  1  0  0  0  0
M  END
>  <MODEL>
9

>  <REMARK>
 VINA RESULT:      -6.5      2.692      6.150
  Name = 
  4 active torsions:
  status: ('A' for Active; 'I' for Inactive)
    1  A    between atoms: O_8  and  C_27
    2  A    between atoms: C_10  and  C_17
    3  A    between atoms: N_11  and  C_18
    4  A    between atoms: C_17  and  N_25
                            x       y       z     vdW  Elec       q    Type
                         _______ _______ _______ _____ _____    ______ ____

>  <TORSDO>
F 4

$$$$
