=
 OpenBabel11062413003D

 38 44  0  0  1  0  0  0  0  0999 V2000
  184.3660  176.6340  137.3730 C   0  0  1  0  0  3  0  0  0  0  0  0
  183.7180  178.3380  139.0420 C   0  0  0  0  0  0  0  0  0  0  0  0
  186.0550  178.0320  138.6700 O   0  0  0  0  0  0  0  0  0  0  0  0
  187.0230  176.5570  136.8970 C   0  0  2  0  0  0  0  0  0  0  0  0
  190.5470  176.4050  136.0970 C   0  0  0  0  0  3  0  0  0  0  0  0
  186.7560  174.0920  136.6300 C   0  0  0  0  0  1  0  0  0  0  0  0
  184.2860  175.2450  137.5600 O   0  0  0  0  0  0  0  0  0  0  0  0
  188.4040  175.3650  135.3240 C   0  0  0  0  0  2  0  0  0  0  0  0
  183.4370  177.2220  138.3620 C   0  0  0  0  0  0  0  0  0  0  0  0
  182.4500  176.2150  138.7520 C   0  0  0  0  0  2  0  0  0  0  0  0
  189.2280  176.2370  136.2220 C   0  0  0  0  0  0  0  0  0  0  0  0
  188.4410  176.9370  137.2720 C   0  0  2  0  0  3  0  0  0  0  0  0
  186.3440  177.7670  136.2720 C   0  0  0  0  0  2  0  0  0  0  0  0
  185.7970  177.1890  137.5610 C   0  0  1  0  0  0  0  0  0  0  0  0
  182.9620  175.0020  137.9920 C   0  0  0  0  0  2  0  0  0  0  0  0
  185.0300  179.0040  138.7420 C   0  0  0  0  0  2  0  0  0  0  0  0
  186.9930  175.4040  135.9020 C   0  0  2  0  0  3  0  0  0  0  0  0
  183.1260  178.6320  141.3230 O   0  0  0  0  0  0  0  0  0  0  0  0
  182.8450  178.8340  140.1140 C   0  0  0  0  0  3  0  0  0  0  0  0
  188.7610  176.3900  138.5450 O   0  0  0  0  0  0  0  0  0  0  0  0
  189.6220  177.8890  142.5230 N   0  0  0  0  0  2  0  0  0  0  0  0
  189.4550  177.1110  139.5180 C   0  0  0  0  0  0  0  0  0  0  0  0
  187.3920  178.4580  142.0890 N   0  0  0  0  0  2  0  0  0  0  0  0
  188.5330  178.0880  141.6130 C   0  0  0  0  0  0  0  0  0  0  0  0
  191.4270  177.4580  140.8900 C   0  0  0  0  0  2  0  0  0  0  0  0
  191.8160  177.3890  143.2840 N   0  0  0  0  0  1  0  0  0  0  0  0
  188.7770  178.2860  140.1490 C   0  0  0  0  0  2  0  0  0  0  0  0
  190.8340  177.1230  142.2490 C   0  0  1  0  0  3  0  0  0  0  0  0
  190.6670  176.7730  139.8520 N   0  0  0  0  0  0  0  0  0  0  0  0
  191.5130  175.5760  134.8300 S   0  0  0  0  0  0  0  0  0  0  0  0
  195.5400  175.2240  137.4540 O   0  0  0  0  0  0  0  0  0  0  0  0
  193.4210  173.6870  135.3690 C   0  0  0  0  0  0  0  0  0  0  0  0
  193.2320  175.6110  136.9450 C   0  0  0  0  0  2  0  0  0  0  0  0
  193.0020  172.8430  134.5940 O   0  0  0  0  0  0  0  0  0  0  0  0
  195.1280  173.9090  137.1630 C   0  0  2  0  0  3  0  0  0  0  0  0
  194.8880  173.7700  135.6560 C   0  0  0  0  0  2  0  0  0  0  0  0
  194.2320  174.8930  137.8580 C   0  0  1  0  0  3  0  0  0  0  0  0
  192.4700  174.6310  136.0550 C   0  0  1  0  0  3  0  0  0  0  0  0
  1  7  1  1  0  0  0
  1 14  1  0  0  0  0
  1  9  1  0  0  0  0
  2 19  1  0  0  0  0
  3 16  1  0  0  0  0
  4 13  1  6  0  0  0
  4 12  1  0  0  0  0
  4 14  1  0  0  0  0
  5 11  2  0  0  0  0
  7 15  1  0  0  0  0
  8 17  1  0  0  0  0
  8 11  1  0  0  0  0
  9 10  1  0  0  0  0
  9  2  2  0  0  0  0
 11 12  1  0  0  0  0
 12 20  1  1  0  0  0
 14 13  1  6  0  0  0
 14  3  1  0  0  0  0
 15 10  1  0  0  0  0
 16  2  1  0  0  0  0
 17  6  1  1  0  0  0
 17  4  1  0  0  0  0
 19 18  2  0  0  0  0
 20 22  1  0  0  0  0
 22 29  2  0  0  0  0
 22 27  1  0  0  0  0
 24 23  2  0  0  0  0
 24 21  1  0  0  0  0
 25 28  1  0  0  0  0
 27 24  1  0  0  0  0
 28 21  1  0  0  0  0
 28 26  1  1  0  0  0
 29 25  1  0  0  0  0
 30  5  1  0  0  0  0
 31 37  1  0  0  0  0
 32 36  1  0  0  0  0
 32 38  1  0  0  0  0
 34 32  2  0  0  0  0
 35 36  1  6  0  0  0
 35 31  1  0  0  0  0
 35 37  1  0  0  0  0
 37 33  1  6  0  0  0
 38 30  1  6  0  0  0
 38 33  1  0  0  0  0
M  END
>  <MODEL>
1

>  <REMARK>
 VINA RESULT:      -7.0      0.000      0.000
  Name = 
  5 active torsions:
  status: ('A' for Active; 'I' for Inactive)
    1  A    between atoms: C_4  and  C_38
    2  A    between atoms: C_7  and  O_11
    3  A    between atoms: C_10  and  S_13
    4  A    between atoms: O_11  and  C_30
    5  A    between atoms: S_13  and  C_24
                            x       y       z     vdW  Elec       q    Type
                         _______ _______ _______ _____ _____    ______ ____

>  <TORSDO>
F 5

$$$$
=
 OpenBabel11062413003D

 38 44  0  0  1  0  0  0  0  0999 V2000
  185.5990  175.2520  136.4600 C   0  0  1  0  0  3  0  0  0  0  0  0
  184.3170  176.9680  137.6930 C   0  0  0  0  0  0  0  0  0  0  0  0
  186.6950  177.0770  137.8610 O   0  0  0  0  0  0  0  0  0  0  0  0
  188.2710  175.6340  136.5600 C   0  0  2  0  0  0  0  0  0  0  0  0
  191.8610  176.0730  136.5350 C   0  0  0  0  0  3  0  0  0  0  0  0
  188.4770  173.1490  136.6040 C   0  0  0  0  0  1  0  0  0  0  0  0
  185.7060  173.9010  136.8260 O   0  0  0  0  0  0  0  0  0  0  0  0
  190.1500  174.5670  135.4960 C   0  0  0  0  0  2  0  0  0  0  0  0
  184.3850  175.7540  137.1400 C   0  0  0  0  0  0  0  0  0  0  0  0
  183.5120  174.6240  137.4600 C   0  0  0  0  0  2  0  0  0  0  0  0
  190.5930  175.6710  136.4080 C   0  0  0  0  0  0  0  0  0  0  0  0
  189.4830  176.3160  137.1600 C   0  0  2  0  0  3  0  0  0  0  0  0
  187.5660  176.6190  135.6380 C   0  0  0  0  0  2  0  0  0  0  0  0
  186.8390  176.0870  136.8570 C   0  0  1  0  0  0  0  0  0  0  0  0
  184.3760  173.4570  137.0060 C   0  0  0  0  0  2  0  0  0  0  0  0
  185.5370  177.8370  137.5770 C   0  0  0  0  0  2  0  0  0  0  0  0
  188.6570  174.3970  135.7580 C   0  0  2  0  0  3  0  0  0  0  0  0
  182.1630  177.9430  137.9230 O   0  0  0  0  0  0  0  0  0  0  0  0
  183.1530  177.3990  138.4780 C   0  0  0  0  0  3  0  0  0  0  0  0
  189.5880  175.9770  138.5370 O   0  0  0  0  0  0  0  0  0  0  0  0
  189.0170  178.3580  142.1180 N   0  0  0  0  0  2  0  0  0  0  0  0
  189.9190  176.9150  139.5160 C   0  0  0  0  0  0  0  0  0  0  0  0
  187.1460  178.7640  140.7690 N   0  0  0  0  0  2  0  0  0  0  0  0
  188.3550  178.3210  140.8470 C   0  0  0  0  0  0  0  0  0  0  0  0
  191.2640  177.6060  141.4140 C   0  0  0  0  0  2  0  0  0  0  0  0
  190.7380  178.0900  143.7330 N   0  0  0  0  0  1  0  0  0  0  0  0
  189.1340  178.1870  139.5760 C   0  0  0  0  0  2  0  0  0  0  0  0
  190.1920  177.5750  142.4910 C   0  0  1  0  0  3  0  0  0  0  0  0
  190.8980  176.6880  140.3450 N   0  0  0  0  0  0  0  0  0  0  0  0
  193.2130  175.3150  135.6290 S   0  0  0  0  0  0  0  0  0  0  0  0
  196.5600  172.9050  138.1230 O   0  0  0  0  0  0  0  0  0  0  0  0
  193.6610  172.7440  136.4590 C   0  0  0  0  0  0  0  0  0  0  0  0
  194.9020  174.5620  137.6320 C   0  0  0  0  0  2  0  0  0  0  0  0
  192.7090  172.2450  135.8810 O   0  0  0  0  0  0  0  0  0  0  0  0
  195.4040  172.1000  138.1110 C   0  0  2  0  0  3  0  0  0  0  0  0
  194.9070  171.9410  136.6700 C   0  0  0  0  0  2  0  0  0  0  0  0
  195.3940  173.5090  138.6310 C   0  0  1  0  0  3  0  0  0  0  0  0
  193.5820  174.1540  136.9800 C   0  0  1  0  0  3  0  0  0  0  0  0
  1  7  1  1  0  0  0
  1 14  1  0  0  0  0
  1  9  1  0  0  0  0
  2 19  1  0  0  0  0
  4 13  1  6  0  0  0
  4 14  1  0  0  0  0
  4 12  1  0  0  0  0
  7 15  1  0  0  0  0
  8 17  1  0  0  0  0
  8 11  1  0  0  0  0
  9 10  1  0  0  0  0
  9  2  2  0  0  0  0
 11  5  2  0  0  0  0
 11 12  1  0  0  0  0
 12 20  1  1  0  0  0
 14 13  1  6  0  0  0
 14  3  1  0  0  0  0
 15 10  1  0  0  0  0
 16  2  1  0  0  0  0
 16  3  1  0  0  0  0
 17  4  1  0  0  0  0
 17  6  1  1  0  0  0
 18 19  2  0  0  0  0
 20 22  1  0  0  0  0
 21 28  1  0  0  0  0
 22 27  1  0  0  0  0
 22 29  2  0  0  0  0
 23 24  2  0  0  0  0
 24 21  1  0  0  0  0
 25 28  1  0  0  0  0
 27 24  1  0  0  0  0
 28 26  1  1  0  0  0
 29 25  1  0  0  0  0
 30  5  1  0  0  0  0
 31 37  1  0  0  0  0
 32 36  1  0  0  0  0
 32 38  1  0  0  0  0
 34 32  2  0  0  0  0
 35 36  1  6  0  0  0
 35 31  1  0  0  0  0
 35 37  1  0  0  0  0
 37 33  1  6  0  0  0
 38 30  1  6  0  0  0
 38 33  1  0  0  0  0
M  END
>  <MODEL>
2

>  <REMARK>
 VINA RESULT:      -6.9      1.451      1.764
  Name = 
  5 active torsions:
  status: ('A' for Active; 'I' for Inactive)
    1  A    between atoms: C_4  and  C_38
    2  A    between atoms: C_7  and  O_11
    3  A    between atoms: C_10  and  S_13
    4  A    between atoms: O_11  and  C_30
    5  A    between atoms: S_13  and  C_24
                            x       y       z     vdW  Elec       q    Type
                         _______ _______ _______ _____ _____    ______ ____

>  <TORSDO>
F 5

$$$$
=
 OpenBabel11062413003D

 38 44  0  0  1  0  0  0  0  0999 V2000
  180.2830  176.3270  137.7090 C   0  0  1  0  0  3  0  0  0  0  0  0
  181.3020  174.7740  136.0790 C   0  0  0  0  0  0  0  0  0  0  0  0
  182.7780  175.8120  137.6410 O   0  0  0  0  0  0  0  0  0  0  0  0
  182.0320  177.2490  139.5490 C   0  0  2  0  0  0  0  0  0  0  0  0
  184.2440  178.4920  142.1260 C   0  0  0  0  0  3  0  0  0  0  0  0
  180.7720  179.3980  139.4560 C   0  0  0  0  0  1  0  0  0  0  0  0
  179.8050  177.6130  137.4140 O   0  0  0  0  0  0  0  0  0  0  0  0
  181.8130  178.5960  141.5330 C   0  0  0  0  0  2  0  0  0  0  0  0
  180.3150  175.6080  136.4170 C   0  0  0  0  0  0  0  0  0  0  0  0
  179.3930  176.2560  135.4840 C   0  0  0  0  0  2  0  0  0  0  0  0
  183.2410  178.2080  141.2920 C   0  0  0  0  0  0  0  0  0  0  0  0
  183.4540  177.4440  140.0340 C   0  0  2  0  0  3  0  0  0  0  0  0
  181.6330  175.7990  139.7850 C   0  0  0  0  0  2  0  0  0  0  0  0
  181.6820  176.3370  138.3690 C   0  0  1  0  0  0  0  0  0  0  0  0
  178.9320  177.4430  136.3140 C   0  0  0  0  0  2  0  0  0  0  0  0
  182.3940  174.5670  137.0900 C   0  0  0  0  0  2  0  0  0  0  0  0
  181.0550  178.1570  140.2840 C   0  0  2  0  0  3  0  0  0  0  0  0
  181.4240  172.9230  134.5950 O   0  0  0  0  0  0  0  0  0  0  0  0
  181.3860  174.1720  134.7410 C   0  0  0  0  0  3  0  0  0  0  0  0
  184.1680  178.2530  139.1060 O   0  0  0  0  0  0  0  0  0  0  0  0
  187.3600  177.9920  136.1800 N   0  0  0  0  0  2  0  0  0  0  0  0
  185.4220  177.8940  138.6100 C   0  0  0  0  0  0  0  0  0  0  0  0
  185.4530  177.1240  135.1330 N   0  0  0  0  0  2  0  0  0  0  0  0
  186.0340  177.4510  136.2380 C   0  0  0  0  0  0  0  0  0  0  0  0
  187.8380  178.1210  138.6020 C   0  0  0  0  0  2  0  0  0  0  0  0
  189.4290  178.8820  136.9350 N   0  0  0  0  0  1  0  0  0  0  0  0
  185.4870  176.8820  137.5100 C   0  0  0  0  0  2  0  0  0  0  0  0
  188.0140  178.7620  137.2350 C   0  0  1  0  0  3  0  0  0  0  0  0
  186.5040  178.4210  139.1050 N   0  0  0  0  0  0  0  0  0  0  0  0
  184.0050  179.4050  143.6540 S   0  0  0  0  0  0  0  0  0  0  0  0
  187.7950  176.4550  144.0580 O   0  0  0  0  0  0  0  0  0  0  0  0
  185.8300  178.7020  145.5710 C   0  0  0  0  0  0  0  0  0  0  0  0
  186.4120  178.2100  143.1960 C   0  0  0  0  0  2  0  0  0  0  0  0
  185.3290  179.3430  146.4810 O   0  0  0  0  0  0  0  0  0  0  0  0
  187.8870  177.3820  145.1140 C   0  0  2  0  0  3  0  0  0  0  0  0
  186.5550  177.4270  145.8720 C   0  0  0  0  0  2  0  0  0  0  0  0
  187.8110  177.8100  143.6770 C   0  0  1  0  0  3  0  0  0  0  0  0
  185.7420  179.1960  144.1520 C   0  0  1  0  0  3  0  0  0  0  0  0
  1  9  1  6  0  0  0
  1 14  1  0  0  0  0
  2  9  2  0  0  0  0
  2 16  1  0  0  0  0
  3 14  1  0  0  0  0
  4 13  1  1  0  0  0
  4 12  1  0  0  0  0
  4 17  1  0  0  0  0
  5 30  1  0  0  0  0
  7  1  1  0  0  0  0
 10 15  1  0  0  0  0
 10  9  1  0  0  0  0
 11  8  1  0  0  0  0
 11  5  2  0  0  0  0
 12 20  1  6  0  0  0
 12 11  1  0  0  0  0
 14  4  1  0  0  0  0
 14 13  1  1  0  0  0
 15  7  1  0  0  0  0
 16  3  1  0  0  0  0
 17  6  1  6  0  0  0
 17  8  1  0  0  0  0
 18 19  2  0  0  0  0
 19  2  1  0  0  0  0
 21 24  1  0  0  0  0
 21 28  1  0  0  0  0
 22 29  2  0  0  0  0
 22 20  1  0  0  0  0
 23 24  2  0  0  0  0
 24 27  1  0  0  0  0
 25 29  1  0  0  0  0
 27 22  1  0  0  0  0
 28 26  1  6  0  0  0
 28 25  1  0  0  0  0
 31 35  1  0  0  0  0
 32 36  1  0  0  0  0
 32 34  2  0  0  0  0
 33 38  1  0  0  0  0
 35 36  1  1  0  0  0
 37 33  1  1  0  0  0
 37 31  1  0  0  0  0
 37 35  1  0  0  0  0
 38 30  1  6  0  0  0
 38 32  1  0  0  0  0
M  END
>  <MODEL>
3

>  <REMARK>
 VINA RESULT:      -6.7      4.997      7.998
  Name = 
  5 active torsions:
  status: ('A' for Active; 'I' for Inactive)
    1  A    between atoms: C_4  and  C_38
    2  A    between atoms: C_7  and  O_11
    3  A    between atoms: C_10  and  S_13
    4  A    between atoms: O_11  and  C_30
    5  A    between atoms: S_13  and  C_24
                            x       y       z     vdW  Elec       q    Type
                         _______ _______ _______ _____ _____    ______ ____

>  <TORSDO>
F 5

$$$$
=
 OpenBabel11062413003D

 38 44  0  0  1  0  0  0  0  0999 V2000
  187.8720  178.2520  139.3810 C   0  0  1  0  0  3  0  0  0  0  0  0
  189.2690  176.7020  138.0570 C   0  0  0  0  0  0  0  0  0  0  0  0
  186.9250  176.6810  137.6130 O   0  0  0  0  0  0  0  0  0  0  0  0
  185.2820  178.2790  138.6170 C   0  0  2  0  0  0  0  0  0  0  0  0
  181.8050  178.4830  137.6410 C   0  0  0  0  0  3  0  0  0  0  0  0
  184.7260  178.6060  141.0260 C   0  0  0  0  0  1  0  0  0  0  0  0
  187.5450  178.0910  140.7370 O   0  0  0  0  0  0  0  0  0  0  0  0
  183.3730  179.6090  139.2380 C   0  0  0  0  0  2  0  0  0  0  0  0
  189.0800  177.4270  139.1630 C   0  0  0  0  0  0  0  0  0  0  0  0
  189.7540  177.2140  140.4440 C   0  0  0  0  0  2  0  0  0  0  0  0
  183.0100  178.5800  138.2100 C   0  0  0  0  0  0  0  0  0  0  0  0
  184.1290  177.6710  137.8450 C   0  0  2  0  0  3  0  0  0  0  0  0
  186.1970  179.0000  137.6370 C   0  0  0  0  0  2  0  0  0  0  0  0
  186.7320  177.8240  138.4290 C   0  0  1  0  0  0  0  0  0  0  0  0
  188.7790  177.8870  141.3970 C   0  0  0  0  0  2  0  0  0  0  0  0
  188.1980  176.7740  137.0060 C   0  0  0  0  0  2  0  0  0  0  0  0
  184.7980  179.2740  139.6640 C   0  0  2  0  0  3  0  0  0  0  0  0
  190.2460  174.5390  137.9490 O   0  0  0  0  0  0  0  0  0  0  0  0
  190.4090  175.7860  137.9140 C   0  0  0  0  0  3  0  0  0  0  0  0
  183.8580  176.3670  138.3430 O   0  0  0  0  0  0  0  0  0  0  0  0
  183.8330  172.1790  137.2070 N   0  0  0  0  0  2  0  0  0  0  0  0
  183.6600  175.2700  137.5020 C   0  0  0  0  0  0  0  0  0  0  0  0
  186.0030  172.6290  137.9670 N   0  0  0  0  0  2  0  0  0  0  0  0
  184.8800  173.1010  137.5430 C   0  0  0  0  0  0  0  0  0  0  0  0
  182.1850  173.7750  136.2870 C   0  0  0  0  0  2  0  0  0  0  0  0
  181.7180  171.4000  136.4600 N   0  0  0  0  0  1  0  0  0  0  0  0
  184.8600  174.5080  137.0340 C   0  0  0  0  0  2  0  0  0  0  0  0
  182.4150  172.5060  137.0910 C   0  0  1  0  0  3  0  0  0  0  0  0
  182.4600  174.9330  137.1270 N   0  0  0  0  0  0  0  0  0  0  0  0
  180.4450  179.5780  138.0600 S   0  0  0  0  0  0  0  0  0  0  0  0
  180.2670  184.2740  136.9920 O   0  0  0  0  0  0  0  0  0  0  0  0
  180.5120  181.1490  135.8190 C   0  0  0  0  0  0  0  0  0  0  0  0
  181.0280  182.2400  138.0020 C   0  0  0  0  0  2  0  0  0  0  0  0
  180.5040  180.2360  135.0090 O   0  0  0  0  0  0  0  0  0  0  0  0
  180.7930  183.6200  135.8610 C   0  0  2  0  0  3  0  0  0  0  0  0
  179.8740  182.4580  135.4690 C   0  0  0  0  0  2  0  0  0  0  0  0
  181.4200  183.4990  137.2200 C   0  0  1  0  0  3  0  0  0  0  0  0
  181.1790  180.9760  137.1570 C   0  0  1  0  0  3  0  0  0  0  0  0
  1  9  1  6  0  0  0
  1  7  1  0  0  0  0
  2  9  2  0  0  0  0
  3 14  1  0  0  0  0
  4 13  1  6  0  0  0
  4 17  1  0  0  0  0
  5 30  1  0  0  0  0
  5 11  2  0  0  0  0
  7 15  1  0  0  0  0
  8 17  1  0  0  0  0
  9 10  1  0  0  0  0
 10 15  1  0  0  0  0
 11  8  1  0  0  0  0
 12 11  1  0  0  0  0
 12 20  1  1  0  0  0
 12  4  1  0  0  0  0
 14 13  1  6  0  0  0
 14  4  1  0  0  0  0
 14  1  1  0  0  0  0
 16  3  1  0  0  0  0
 16  2  1  0  0  0  0
 17  6  1  1  0  0  0
 19 18  2  0  0  0  0
 19  2  1  0  0  0  0
 21 24  1  0  0  0  0
 22 20  1  0  0  0  0
 24 23  2  0  0  0  0
 25 28  1  0  0  0  0
 25 29  1  0  0  0  0
 27 22  1  0  0  0  0
 27 24  1  0  0  0  0
 28 26  1  6  0  0  0
 28 21  1  0  0  0  0
 29 22  2  0  0  0  0
 31 37  1  0  0  0  0
 32 38  1  0  0  0  0
 34 32  2  0  0  0  0
 35 36  1  1  0  0  0
 35 31  1  0  0  0  0
 35 37  1  0  0  0  0
 36 32  1  0  0  0  0
 37 33  1  1  0  0  0
 38 33  1  0  0  0  0
 38 30  1  1  0  0  0
M  END
>  <MODEL>
4

>  <REMARK>
 VINA RESULT:      -6.6      4.585      9.745
  Name = 
  5 active torsions:
  status: ('A' for Active; 'I' for Inactive)
    1  A    between atoms: C_4  and  C_38
    2  A    between atoms: C_7  and  O_11
    3  A    between atoms: C_10  and  S_13
    4  A    between atoms: O_11  and  C_30
    5  A    between atoms: S_13  and  C_24
                            x       y       z     vdW  Elec       q    Type
                         _______ _______ _______ _____ _____    ______ ____

>  <TORSDO>
F 5

$$$$
=
 OpenBabel11062413003D

 38 44  0  0  1  0  0  0  0  0999 V2000
  183.6980  177.5910  138.6810 C   0  0  1  0  0  3  0  0  0  0  0  0
  183.4890  178.6410  140.9080 C   0  0  0  0  0  0  0  0  0  0  0  0
  185.6920  178.4510  140.0140 O   0  0  0  0  0  0  0  0  0  0  0  0
  186.2150  177.6470  137.7030 C   0  0  2  0  0  0  0  0  0  0  0  0
  189.5190  177.7300  136.2330 C   0  0  0  0  0  3  0  0  0  0  0  0
  185.7180  175.4200  136.6980 C   0  0  0  0  0  1  0  0  0  0  0  0
  183.5470  176.2220  138.4130 O   0  0  0  0  0  0  0  0  0  0  0  0
  187.1990  177.0380  135.5910 C   0  0  0  0  0  2  0  0  0  0  0  0
  183.0080  177.8240  139.9680 C   0  0  0  0  0  0  0  0  0  0  0  0
  182.0320  176.7560  140.1890 C   0  0  0  0  0  2  0  0  0  0  0  0
  188.2340  177.5460  136.5490 C   0  0  0  0  0  0  0  0  0  0  0  0
  187.7020  177.8620  137.9010 C   0  0  2  0  0  3  0  0  0  0  0  0
  185.5300  179.0050  137.6530 C   0  0  0  0  0  2  0  0  0  0  0  0
  185.1780  178.0330  138.7620 C   0  0  1  0  0  0  0  0  0  0  0  0
  182.3060  175.8640  138.9890 C   0  0  0  0  0  2  0  0  0  0  0  0
  184.7740  179.3540  140.5970 C   0  0  0  0  0  2  0  0  0  0  0  0
  185.9200  176.8970  136.4100 C   0  0  2  0  0  3  0  0  0  0  0  0
  183.5160  178.5330  143.2810 O   0  0  0  0  0  0  0  0  0  0  0  0
  182.8600  178.7580  142.2310 C   0  0  0  0  0  3  0  0  0  0  0  0
  188.2000  176.9130  138.8370 O   0  0  0  0  0  0  0  0  0  0  0  0
  189.4390  177.0740  142.9910 N   0  0  0  0  0  2  0  0  0  0  0  0
  189.0010  177.2790  139.9200 C   0  0  0  0  0  0  0  0  0  0  0  0
  187.2110  177.7970  142.9540 N   0  0  0  0  0  2  0  0  0  0  0  0
  188.2920  177.5710  142.2880 C   0  0  0  0  0  0  0  0  0  0  0  0
  191.0880  177.1370  141.1510 C   0  0  0  0  0  2  0  0  0  0  0  0
  191.6580  176.3150  143.3610 N   0  0  0  0  0  1  0  0  0  0  0  0
  188.4310  178.2110  140.9420 C   0  0  0  0  0  2  0  0  0  0  0  0
  190.5880  176.4060  142.3860 C   0  0  1  0  0  3  0  0  0  0  0  0
  190.2180  176.8280  140.0240 N   0  0  0  0  0  0  0  0  0  0  0  0
  190.1780  177.3660  134.6030 S   0  0  0  0  0  0  0  0  0  0  0  0
  191.3750  174.5130  138.3000 O   0  0  0  0  0  0  0  0  0  0  0  0
  192.3740  175.9710  135.4580 C   0  0  0  0  0  0  0  0  0  0  0  0
  190.1590  175.3130  136.3970 C   0  0  0  0  0  2  0  0  0  0  0  0
  193.1390  176.3750  134.5970 O   0  0  0  0  0  0  0  0  0  0  0  0
  192.3270  174.2870  137.2870 C   0  0  2  0  0  3  0  0  0  0  0  0
  192.9010  175.6280  136.8170 C   0  0  0  0  0  2  0  0  0  0  0  0
  190.8530  174.1150  137.0540 C   0  0  1  0  0  3  0  0  0  0  0  0
  190.9100  175.7950  135.1570 C   0  0  1  0  0  3  0  0  0  0  0  0
  1  7  1  1  0  0  0
  1 14  1  0  0  0  0
  1  9  1  0  0  0  0
  2 19  1  0  0  0  0
  3 16  1  0  0  0  0
  4 13  1  6  0  0  0
  4 12  1  0  0  0  0
  4 14  1  0  0  0  0
  5 11  2  0  0  0  0
  7 15  1  0  0  0  0
  8 17  1  0  0  0  0
  8 11  1  0  0  0  0
  9 10  1  0  0  0  0
  9  2  2  0  0  0  0
 11 12  1  0  0  0  0
 12 20  1  1  0  0  0
 14 13  1  6  0  0  0
 14  3  1  0  0  0  0
 15 10  1  0  0  0  0
 16  2  1  0  0  0  0
 17  6  1  1  0  0  0
 17  4  1  0  0  0  0
 19 18  2  0  0  0  0
 20 22  1  0  0  0  0
 22 29  2  0  0  0  0
 22 27  1  0  0  0  0
 24 23  2  0  0  0  0
 24 21  1  0  0  0  0
 25 28  1  0  0  0  0
 27 24  1  0  0  0  0
 28 21  1  0  0  0  0
 28 26  1  1  0  0  0
 29 25  1  0  0  0  0
 30  5  1  0  0  0  0
 32 36  1  0  0  0  0
 34 32  2  0  0  0  0
 35 36  1  6  0  0  0
 35 31  1  0  0  0  0
 37 33  1  6  0  0  0
 37 35  1  0  0  0  0
 37 31  1  0  0  0  0
 38 30  1  1  0  0  0
 38 32  1  0  0  0  0
 38 33  1  0  0  0  0
M  END
>  <MODEL>
5

>  <REMARK>
 VINA RESULT:      -6.5      1.621      1.998
  Name = 
  5 active torsions:
  status: ('A' for Active; 'I' for Inactive)
    1  A    between atoms: C_4  and  C_38
    2  A    between atoms: C_7  and  O_11
    3  A    between atoms: C_10  and  S_13
    4  A    between atoms: O_11  and  C_30
    5  A    between atoms: S_13  and  C_24
                            x       y       z     vdW  Elec       q    Type
                         _______ _______ _______ _____ _____    ______ ____

>  <TORSDO>
F 5

$$$$
=
 OpenBabel11062413003D

 38 44  0  0  1  0  0  0  0  0999 V2000
  188.0120  178.2230  139.3670 C   0  0  1  0  0  3  0  0  0  0  0  0
  189.5330  176.6710  138.1890 C   0  0  0  0  0  0  0  0  0  0  0  0
  187.2250  176.5740  137.5910 O   0  0  0  0  0  0  0  0  0  0  0  0
  185.4790  178.1580  138.4320 C   0  0  2  0  0  0  0  0  0  0  0  0
  182.0720  178.2380  137.2200 C   0  0  0  0  0  3  0  0  0  0  0  0
  184.7550  178.5420  140.7870 C   0  0  0  0  0  1  0  0  0  0  0  0
  187.5990  178.0940  140.7020 O   0  0  0  0  0  0  0  0  0  0  0  0
  183.5000  179.4540  138.8810 C   0  0  0  0  0  2  0  0  0  0  0  0
  189.2520  177.4240  139.2560 C   0  0  0  0  0  0  0  0  0  0  0  0
  189.8430  177.2680  140.5860 C   0  0  0  0  0  2  0  0  0  0  0  0
  183.2330  178.3850  137.8650 C   0  0  0  0  0  0  0  0  0  0  0  0
  184.3970  177.4950  137.6050 C   0  0  2  0  0  3  0  0  0  0  0  0
  186.4400  178.8720  137.4920 C   0  0  0  0  0  2  0  0  0  0  0  0
  186.9500  177.7350  138.3550 C   0  0  1  0  0  0  0  0  0  0  0  0
  188.7900  177.9440  141.4490 C   0  0  0  0  0  2  0  0  0  0  0  0
  188.5340  176.6830  137.0670 C   0  0  0  0  0  2  0  0  0  0  0  0
  184.9010  179.1700  139.4120 C   0  0  2  0  0  3  0  0  0  0  0  0
  190.5700  174.5460  137.9620 O   0  0  0  0  0  0  0  0  0  0  0  0
  190.7020  175.7830  138.1520 C   0  0  0  0  0  3  0  0  0  0  0  0
  184.1240  176.2000  138.1250 O   0  0  0  0  0  0  0  0  0  0  0  0
  185.0300  172.5730  135.9240 N   0  0  0  0  0  2  0  0  0  0  0  0
  183.8620  175.1030  137.3030 C   0  0  0  0  0  0  0  0  0  0  0  0
  186.5730  174.1750  135.1900 N   0  0  0  0  0  2  0  0  0  0  0  0
  185.4580  173.9350  135.7920 C   0  0  0  0  0  0  0  0  0  0  0  0
  182.7990  172.9550  136.9170 C   0  0  0  0  0  2  0  0  0  0  0  0
  183.6630  170.7230  136.5170 N   0  0  0  0  0  1  0  0  0  0  0  0
  184.4890  175.0660  135.9450 C   0  0  0  0  0  2  0  0  0  0  0  0
  184.0400  172.0780  136.8760 C   0  0  1  0  0  3  0  0  0  0  0  0
  183.0780  174.1460  137.7090 N   0  0  0  0  0  0  0  0  0  0  0  0
  180.6600  179.3080  137.5130 S   0  0  0  0  0  0  0  0  0  0  0  0
  180.6300  175.0630  139.7940 O   0  0  0  0  0  0  0  0  0  0  0  0
  179.4710  176.8590  137.2190 C   0  0  0  0  0  0  0  0  0  0  0  0
  180.3980  177.4240  139.4650 C   0  0  0  0  0  2  0  0  0  0  0  0
  178.9310  177.0950  136.1500 O   0  0  0  0  0  0  0  0  0  0  0  0
  179.4950  175.0850  138.9610 C   0  0  2  0  0  3  0  0  0  0  0  0
  179.9140  175.4640  137.5360 C   0  0  0  0  0  2  0  0  0  0  0  0
  179.7480  176.1420  139.9970 C   0  0  1  0  0  3  0  0  0  0  0  0
  179.6750  177.9570  138.2290 C   0  0  1  0  0  3  0  0  0  0  0  0
  1  9  1  1  0  0  0
  1  7  1  0  0  0  0
  2  9  2  0  0  0  0
  3 14  1  0  0  0  0
  4 13  1  6  0  0  0
  4 17  1  0  0  0  0
  5 30  1  0  0  0  0
  5 11  2  0  0  0  0
  7 15  1  0  0  0  0
  8 17  1  0  0  0  0
  9 10  1  0  0  0  0
 10 15  1  0  0  0  0
 11  8  1  0  0  0  0
 12 11  1  0  0  0  0
 12 20  1  1  0  0  0
 12  4  1  0  0  0  0
 14 13  1  6  0  0  0
 14  4  1  0  0  0  0
 14  1  1  0  0  0  0
 16  3  1  0  0  0  0
 16  2  1  0  0  0  0
 17  6  1  1  0  0  0
 18 19  2  0  0  0  0
 19  2  1  0  0  0  0
 21 28  1  0  0  0  0
 22 29  2  0  0  0  0
 22 20  1  0  0  0  0
 23 24  2  0  0  0  0
 24 21  1  0  0  0  0
 24 27  1  0  0  0  0
 25 29  1  0  0  0  0
 27 22  1  0  0  0  0
 28 26  1  6  0  0  0
 28 25  1  0  0  0  0
 31 37  1  0  0  0  0
 32 36  1  0  0  0  0
 32 38  1  0  0  0  0
 34 32  2  0  0  0  0
 35 36  1  6  0  0  0
 35 31  1  0  0  0  0
 35 37  1  0  0  0  0
 37 33  1  6  0  0  0
 38 30  1  6  0  0  0
 38 33  1  0  0  0  0
M  END
>  <MODEL>
6

>  <REMARK>
 VINA RESULT:      -6.4      4.104      9.319
  Name = 
  5 active torsions:
  status: ('A' for Active; 'I' for Inactive)
    1  A    between atoms: C_4  and  C_38
    2  A    between atoms: C_7  and  O_11
    3  A    between atoms: C_10  and  S_13
    4  A    between atoms: O_11  and  C_30
    5  A    between atoms: S_13  and  C_24
                            x       y       z     vdW  Elec       q    Type
                         _______ _______ _______ _____ _____    ______ ____

>  <TORSDO>
F 5

$$$$
=
 OpenBabel11062413003D

 38 44  0  0  1  0  0  0  0  0999 V2000
  188.9030  177.2040  145.2460 C   0  0  1  0  0  3  0  0  0  0  0  0
  186.4360  177.2480  145.3930 C   0  0  0  0  0  0  0  0  0  0  0  0
  187.3830  177.2960  143.2030 O   0  0  0  0  0  0  0  0  0  0  0  0
  189.8220  177.0360  142.7120 C   0  0  2  0  0  0  0  0  0  0  0  0
  191.1910  176.7230  139.3790 C   0  0  0  0  0  3  0  0  0  0  0  0
  191.7060  178.4920  143.4540 C   0  0  0  0  0  1  0  0  0  0  0  0
  189.7530  178.2760  145.5600 O   0  0  0  0  0  0  0  0  0  0  0  0
  192.0100  176.7520  141.7460 C   0  0  0  0  0  2  0  0  0  0  0  0
  187.6290  177.4880  145.9430 C   0  0  0  0  0  0  0  0  0  0  0  0
  187.8850  178.4080  147.0520 C   0  0  0  0  0  2  0  0  0  0  0  0
  190.9550  176.8640  140.6860 C   0  0  0  0  0  0  0  0  0  0  0  0
  189.5910  177.1240  141.2180 C   0  0  2  0  0  3  0  0  0  0  0  0
  189.2370  175.7250  143.2180 C   0  0  0  0  0  2  0  0  0  0  0  0
  188.6740  177.0380  143.7260 C   0  0  1  0  0  0  0  0  0  0  0  0
  189.3650  178.6930  146.8540 C   0  0  0  0  0  2  0  0  0  0  0  0
  186.4300  176.6420  144.0190 C   0  0  0  0  0  2  0  0  0  0  0  0
  191.3050  177.0820  143.0580 C   0  0  2  0  0  3  0  0  0  0  0  0
  184.6740  178.7850  145.8120 O   0  0  0  0  0  0  0  0  0  0  0  0
  185.1850  177.6590  146.0440 C   0  0  0  0  0  3  0  0  0  0  0  0
  189.1950  178.4460  140.8730 O   0  0  0  0  0  0  0  0  0  0  0  0
  186.9230  177.7810  137.2370 N   0  0  0  0  0  2  0  0  0  0  0  0
  188.2260  178.7090  139.9040 C   0  0  0  0  0  0  0  0  0  0  0  0
  189.1770  177.7930  136.5970 N   0  0  0  0  0  2  0  0  0  0  0  0
  188.2990  178.0950  137.4930 C   0  0  0  0  0  0  0  0  0  0  0  0
  185.9020  178.8480  139.2190 C   0  0  0  0  0  2  0  0  0  0  0  0
  184.5780  177.6400  137.5840 N   0  0  0  0  0  1  0  0  0  0  0  0
  188.6800  179.1020  138.5330 C   0  0  0  0  0  2  0  0  0  0  0  0
  185.8700  177.6830  138.2440 C   0  0  1  0  0  3  0  0  0  0  0  0
  186.9600  178.6280  140.1960 N   0  0  0  0  0  0  0  0  0  0  0  0
  192.8290  176.3980  138.7190 S   0  0  0  0  0  0  0  0  0  0  0  0
  191.2830  172.9530  135.7230 O   0  0  0  0  0  0  0  0  0  0  0  0
  193.2960  175.5930  136.1430 C   0  0  0  0  0  0  0  0  0  0  0  0
  191.1860  174.8170  137.2240 C   0  0  0  0  0  2  0  0  0  0  0  0
  194.2020  176.3780  135.9150 O   0  0  0  0  0  0  0  0  0  0  0  0
  191.8900  173.9420  134.9260 C   0  0  2  0  0  3  0  0  0  0  0  0
  193.2870  174.2540  135.4740 C   0  0  0  0  0  2  0  0  0  0  0  0
  190.7590  174.2530  135.8640 C   0  0  1  0  0  3  0  0  0  0  0  0
  192.1750  175.9720  137.0750 C   0  0  1  0  0  3  0  0  0  0  0  0
  1  7  1  6  0  0  0
  1  9  1  0  0  0  0
  2  9  2  0  0  0  0
  2 19  1  0  0  0  0
  3 14  1  0  0  0  0
  3 16  1  0  0  0  0
  4 17  1  0  0  0  0
  4 13  1  6  0  0  0
  4 14  1  0  0  0  0
  5 11  2  0  0  0  0
  7 15  1  0  0  0  0
  8 17  1  0  0  0  0
  9 10  1  0  0  0  0
 11 12  1  0  0  0  0
 11  8  1  0  0  0  0
 12 20  1  1  0  0  0
 12  4  1  0  0  0  0
 14 13  1  1  0  0  0
 14  1  1  0  0  0  0
 15 10  1  0  0  0  0
 16  2  1  0  0  0  0
 17  6  1  6  0  0  0
 18 19  2  0  0  0  0
 21 24  1  0  0  0  0
 21 28  1  0  0  0  0
 22 29  2  0  0  0  0
 22 20  1  0  0  0  0
 23 24  2  0  0  0  0
 24 27  1  0  0  0  0
 25 29  1  0  0  0  0
 27 22  1  0  0  0  0
 28 26  1  6  0  0  0
 28 25  1  0  0  0  0
 30  5  1  0  0  0  0
 31 37  1  0  0  0  0
 32 38  1  0  0  0  0
 34 32  2  0  0  0  0
 35 36  1  1  0  0  0
 35 31  1  0  0  0  0
 35 37  1  0  0  0  0
 36 32  1  0  0  0  0
 37 33  1  1  0  0  0
 38 33  1  0  0  0  0
 38 30  1  1  0  0  0
M  END
>  <MODEL>
7

>  <REMARK>
 VINA RESULT:      -6.4      3.236      6.235
  Name = 
  5 active torsions:
  status: ('A' for Active; 'I' for Inactive)
    1  A    between atoms: C_4  and  C_38
    2  A    between atoms: C_7  and  O_11
    3  A    between atoms: C_10  and  S_13
    4  A    between atoms: O_11  and  C_30
    5  A    between atoms: S_13  and  C_24
                            x       y       z     vdW  Elec       q    Type
                         _______ _______ _______ _____ _____    ______ ____

>  <TORSDO>
F 5

$$$$
=
 OpenBabel11062413003D

 38 44  0  0  1  0  0  0  0  0999 V2000
  186.8270  178.6720  139.9070 C   0  0  1  0  0  3  0  0  0  0  0  0
  188.1140  177.8250  137.9740 C   0  0  0  0  0  0  0  0  0  0  0  0
  185.7750  177.3530  137.9980 O   0  0  0  0  0  0  0  0  0  0  0  0
  184.1680  178.2580  139.6870 C   0  0  2  0  0  0  0  0  0  0  0  0
  180.5800  177.8500  139.4850 C   0  0  0  0  0  3  0  0  0  0  0  0
  184.1670  177.9050  142.1560 C   0  0  0  0  0  1  0  0  0  0  0  0
  186.8750  178.1440  141.2060 O   0  0  0  0  0  0  0  0  0  0  0  0
  182.2600  178.9320  140.9940 C   0  0  0  0  0  2  0  0  0  0  0  0
  188.0730  178.2230  139.2480 C   0  0  0  0  0  0  0  0  0  0  0  0
  189.0670  177.8970  140.2730 C   0  0  0  0  0  2  0  0  0  0  0  0
  181.8490  178.1000  139.8180 C   0  0  0  0  0  0  0  0  0  0  0  0
  182.9900  177.5820  139.0160 C   0  0  2  0  0  3  0  0  0  0  0  0
  184.6710  179.3720  138.7800 C   0  0  0  0  0  2  0  0  0  0  0  0
  185.5860  178.2090  139.1100 C   0  0  1  0  0  0  0  0  0  0  0  0
  188.2490  178.0950  141.5390 C   0  0  0  0  0  2  0  0  0  0  0  0
  186.8240  177.8740  137.2050 C   0  0  0  0  0  2  0  0  0  0  0  0
  183.7830  178.8550  141.0350 C   0  0  2  0  0  3  0  0  0  0  0  0
  189.5430  177.3410  136.1390 O   0  0  0  0  0  0  0  0  0  0  0  0
  189.3300  177.2580  137.3760 C   0  0  0  0  0  3  0  0  0  0  0  0
  183.0870  176.1740  139.1890 O   0  0  0  0  0  0  0  0  0  0  0  0
  183.5360  172.3970  137.1020 N   0  0  0  0  0  2  0  0  0  0  0  0
  182.9710  175.2790  138.1240 C   0  0  0  0  0  0  0  0  0  0  0  0
  185.6800  172.9850  137.8410 N   0  0  0  0  0  2  0  0  0  0  0  0
  184.4720  173.3650  137.5940 C   0  0  0  0  0  0  0  0  0  0  0  0
  181.6170  173.8910  136.6640 C   0  0  0  0  0  2  0  0  0  0  0  0
  181.4910  171.4960  136.2960 N   0  0  0  0  0  1  0  0  0  0  0  0
  184.2210  174.8320  137.4330 C   0  0  0  0  0  2  0  0  0  0  0  0
  182.0820  172.5230  137.1350 C   0  0  1  0  0  3  0  0  0  0  0  0
  181.8010  174.8580  137.7390 N   0  0  0  0  0  0  0  0  0  0  0  0
  179.1890  178.4740  140.4330 S   0  0  0  0  0  0  0  0  0  0  0  0
  180.6190  180.8120  136.4690 O   0  0  0  0  0  0  0  0  0  0  0  0
  179.7840  181.0450  139.7010 C   0  0  0  0  0  0  0  0  0  0  0  0
  179.2720  179.4210  137.8780 C   0  0  0  0  0  2  0  0  0  0  0  0
  179.6760  181.5340  140.8140 O   0  0  0  0  0  0  0  0  0  0  0  0
  180.0990  181.7820  137.3470 C   0  0  2  0  0  3  0  0  0  0  0  0
  180.7560  181.6290  138.7240 C   0  0  0  0  0  2  0  0  0  0  0  0
  179.2940  180.5970  136.8960 C   0  0  1  0  0  3  0  0  0  0  0  0
  178.9310  179.8720  139.2980 C   0  0  1  0  0  3  0  0  0  0  0  0
  1  9  1  6  0  0  0
  1  7  1  0  0  0  0
  2  9  2  0  0  0  0
  3 14  1  0  0  0  0
  4 13  1  6  0  0  0
  4 17  1  0  0  0  0
  5 11  2  0  0  0  0
  5 30  1  0  0  0  0
  7 15  1  0  0  0  0
  8 17  1  0  0  0  0
  9 10  1  0  0  0  0
 10 15  1  0  0  0  0
 11  8  1  0  0  0  0
 12 20  1  1  0  0  0
 12  4  1  0  0  0  0
 12 11  1  0  0  0  0
 14 13  1  6  0  0  0
 14  4  1  0  0  0  0
 14  1  1  0  0  0  0
 16  2  1  0  0  0  0
 16  3  1  0  0  0  0
 17  6  1  1  0  0  0
 18 19  2  0  0  0  0
 19  2  1  0  0  0  0
 21 28  1  0  0  0  0
 21 24  1  0  0  0  0
 22 20  1  0  0  0  0
 24 23  2  0  0  0  0
 25 28  1  0  0  0  0
 25 29  1  0  0  0  0
 27 24  1  0  0  0  0
 27 22  1  0  0  0  0
 28 26  1  6  0  0  0
 29 22  2  0  0  0  0
 31 37  1  0  0  0  0
 31 35  1  0  0  0  0
 32 34  2  0  0  0  0
 33 38  1  0  0  0  0
 35 36  1  1  0  0  0
 36 32  1  0  0  0  0
 37 35  1  0  0  0  0
 37 33  1  1  0  0  0
 38 32  1  0  0  0  0
 38 30  1  1  0  0  0
M  END
>  <MODEL>
8

>  <REMARK>
 VINA RESULT:      -6.2      4.541     10.060
  Name = 
  5 active torsions:
  status: ('A' for Active; 'I' for Inactive)
    1  A    between atoms: C_4  and  C_38
    2  A    between atoms: C_7  and  O_11
    3  A    between atoms: C_10  and  S_13
    4  A    between atoms: O_11  and  C_30
    5  A    between atoms: S_13  and  C_24
                            x       y       z     vdW  Elec       q    Type
                         _______ _______ _______ _____ _____    ______ ____

>  <TORSDO>
F 5

$$$$
=
 OpenBabel11062413003D

 38 44  0  0  1  0  0  0  0  0999 V2000
  188.8660  177.2000  145.2970 C   0  0  1  0  0  3  0  0  0  0  0  0
  186.4480  177.3550  145.7840 C   0  0  0  0  0  0  0  0  0  0  0  0
  187.0840  177.3730  143.4840 O   0  0  0  0  0  0  0  0  0  0  0  0
  189.4170  177.0070  142.6600 C   0  0  2  0  0  0  0  0  0  0  0  0
  190.2950  176.6540  139.1690 C   0  0  0  0  0  3  0  0  0  0  0  0
  191.4500  178.3720  143.1340 C   0  0  0  0  0  1  0  0  0  0  0  0
  189.7990  178.2310  145.4900 O   0  0  0  0  0  0  0  0  0  0  0  0
  191.4350  176.6310  141.4000 C   0  0  0  0  0  2  0  0  0  0  0  0
  187.7160  177.5370  146.1630 C   0  0  0  0  0  0  0  0  0  0  0  0
  188.1640  178.4370  147.2270 C   0  0  0  0  0  2  0  0  0  0  0  0
  190.2500  176.7970  140.4960 C   0  0  0  0  0  0  0  0  0  0  0  0
  188.9850  177.1150  141.2120 C   0  0  2  0  0  3  0  0  0  0  0  0
  188.8490  175.7210  143.2420 C   0  0  0  0  0  2  0  0  0  0  0  0
  188.4220  177.0540  143.8230 C   0  0  1  0  0  0  0  0  0  0  0  0
  189.6140  178.6570  146.8250 C   0  0  0  0  0  2  0  0  0  0  0  0
  186.2250  176.7580  144.4240 C   0  0  0  0  0  2  0  0  0  0  0  0
  190.9350  176.9840  142.7960 C   0  0  2  0  0  3  0  0  0  0  0  0
  184.7530  178.9150  146.3630 O   0  0  0  0  0  0  0  0  0  0  0  0
  185.3190  177.8170  146.6020 C   0  0  0  0  0  3  0  0  0  0  0  0
  188.6070  178.4560  140.9260 O   0  0  0  0  0  0  0  0  0  0  0  0
  185.1970  177.7590  138.3350 N   0  0  0  0  0  2  0  0  0  0  0  0
  187.4270  178.7730  140.2500 C   0  0  0  0  0  0  0  0  0  0  0  0
  187.0900  177.1970  137.0750 N   0  0  0  0  0  2  0  0  0  0  0  0
  186.6120  177.8070  138.1060 C   0  0  0  0  0  0  0  0  0  0  0  0
  185.0580  179.3000  140.2630 C   0  0  0  0  0  2  0  0  0  0  0  0
  183.1020  178.1730  139.3740 N   0  0  0  0  0  1  0  0  0  0  0  0
  187.4640  178.8530  138.7560 C   0  0  0  0  0  2  0  0  0  0  0  0
  184.5290  178.0380  139.6030 C   0  0  1  0  0  3  0  0  0  0  0  0
  186.3300  179.0070  140.9110 N   0  0  0  0  0  0  0  0  0  0  0  0
  191.8100  176.2590  138.2880 S   0  0  0  0  0  0  0  0  0  0  0  0
  188.9110  172.7990  136.6010 O   0  0  0  0  0  0  0  0  0  0  0  0
  191.7390  174.5330  136.1640 C   0  0  0  0  0  0  0  0  0  0  0  0
  189.5960  174.9620  137.3670 C   0  0  0  0  0  2  0  0  0  0  0  0
  192.8360  174.8230  135.7140 O   0  0  0  0  0  0  0  0  0  0  0  0
  189.7480  173.1830  135.5350 C   0  0  2  0  0  3  0  0  0  0  0  0
  191.2100  173.1430  135.9940 C   0  0  0  0  0  2  0  0  0  0  0  0
  188.8820  174.1670  136.2680 C   0  0  1  0  0  3  0  0  0  0  0  0
  190.9060  175.5710  136.8680 C   0  0  1  0  0  3  0  0  0  0  0  0
  1  7  1  6  0  0  0
  1  9  1  0  0  0  0
  2  9  2  0  0  0  0
  2 19  1  0  0  0  0
  3 14  1  0  0  0  0
  3 16  1  0  0  0  0
  4 17  1  0  0  0  0
  4 13  1  6  0  0  0
  4 14  1  0  0  0  0
  5 11  2  0  0  0  0
  7 15  1  0  0  0  0
  8 17  1  0  0  0  0
  9 10  1  0  0  0  0
 11 12  1  0  0  0  0
 11  8  1  0  0  0  0
 12 20  1  6  0  0  0
 12  4  1  0  0  0  0
 14 13  1  1  0  0  0
 14  1  1  0  0  0  0
 15 10  1  0  0  0  0
 16  2  1  0  0  0  0
 17  6  1  6  0  0  0
 18 19  2  0  0  0  0
 21 28  1  0  0  0  0
 22 29  2  0  0  0  0
 22 20  1  0  0  0  0
 23 24  2  0  0  0  0
 24 21  1  0  0  0  0
 24 27  1  0  0  0  0
 25 29  1  0  0  0  0
 27 22  1  0  0  0  0
 28 26  1  6  0  0  0
 28 25  1  0  0  0  0
 30  5  1  0  0  0  0
 32 38  1  0  0  0  0
 34 32  2  0  0  0  0
 35 36  1  1  0  0  0
 35 37  1  0  0  0  0
 35 31  1  0  0  0  0
 36 32  1  0  0  0  0
 37 31  1  0  0  0  0
 37 33  1  1  0  0  0
 38 33  1  0  0  0  0
 38 30  1  1  0  0  0
M  END
>  <MODEL>
9

>  <REMARK>
 VINA RESULT:      -6.1      3.371      6.424
  Name = 
  5 active torsions:
  status: ('A' for Active; 'I' for Inactive)
    1  A    between atoms: C_4  and  C_38
    2  A    between atoms: C_7  and  O_11
    3  A    between atoms: C_10  and  S_13
    4  A    between atoms: O_11  and  C_30
    5  A    between atoms: S_13  and  C_24
                            x       y       z     vdW  Elec       q    Type
                         _______ _______ _______ _____ _____    ______ ____

>  <TORSDO>
F 5

$$$$
