=
 OpenBabel11062414183D

 45 50  0  0  1  0  0  0  0  0999 V2000
  189.5870  177.5470  142.4770 C   0  0  1  0  0  3  0  0  0  0  0  0
  189.0570  177.3890  140.0750 N   0  0  0  0  0  0  0  0  0  0  0  0
  190.0310  177.0220  141.1070 C   0  0  0  0  0  2  0  0  0  0  0  0
  187.3300  178.0370  141.7180 C   0  0  2  0  0  3  0  0  0  0  0  0
  188.1610  177.2900  142.6810 N   0  0  0  0  0  2  0  0  0  0  0  0
  188.0270  178.3770  140.3920 C   0  0  0  0  0  2  0  0  0  0  0  0
  190.2720  176.3130  138.2890 C   0  0  0  0  0  3  0  0  0  0  0  0
  190.3780  175.6780  136.9270 C   0  0  1  0  0  3  0  0  0  0  0  0
  188.1300  177.8220  136.7780 C   0  0  0  0  0  0  0  0  0  0  0  0
  189.5180  175.7640  134.6340 N   0  0  0  0  0  1  0  0  0  0  0  0
  189.2820  177.7510  135.9300 N   0  0  0  0  0  2  0  0  0  0  0  0
  187.9140  176.8270  137.8660 C   0  0  0  0  0  2  0  0  0  0  0  0
  189.1240  176.8160  138.7560 C   0  0  0  0  0  0  0  0  0  0  0  0
  190.1110  176.5670  135.6880 C   0  0  1  0  0  3  0  0  0  0  0  0
  187.3250  178.7820  136.6520 O   0  0  0  0  0  0  0  0  0  0  0  0
  191.5260  174.8660  136.7990 O   0  0  0  0  0  0  0  0  0  0  0  0
  192.4960  175.3130  137.7160 C   0  0  0  0  0  2  0  0  0  0  0  0
  193.8720  174.7560  137.3670 C   0  0  2  0  0  3  0  0  0  0  0  0
  195.5120  173.0940  139.1040 O   0  0  0  0  0  0  0  0  0  0  0  0
  196.5470  174.9940  139.8540 O   0  0  0  0  0  1  0  0  0  0  0  0
  194.8920  175.3030  138.2520 N   0  0  0  0  0  2  0  0  0  0  0  0
  195.6830  174.4740  139.1030 C   0  0  0  0  0  0  0  0  0  0  0  0
  194.1970  175.0690  135.9820 N   0  0  0  0  0  2  0  0  0  0  0  0
  195.0950  173.3130  134.5940 N   0  0  0  0  0  2  0  0  0  0  0  0
  195.3720  174.2960  135.6010 C   0  0  1  0  0  0  0  0  0  0  0  0
  196.7420  174.9390  135.5000 C   0  0  0  0  0  1  0  0  0  0  0  0
  195.3270  172.9820  135.9260 O   0  0  0  0  0  0  0  0  0  0  0  0
  190.0340  177.4570  145.0710 C   0  0  0  0  0  2  0  0  0  0  0  0
  190.8030  175.6850  143.6090 O   0  0  0  0  0  1  0  0  0  0  0  0
  191.3630  177.9030  144.4670 C   0  0  1  0  0  3  0  0  0  0  0  0
  190.4060  177.0190  143.6710 C   0  0  1  0  0  0  0  0  0  0  0  0
  191.2790  179.3790  144.1140 C   0  0  0  0  0  1  0  0  0  0  0  0
  186.6770  179.2650  142.3580 C   0  0  0  0  0  2  0  0  0  0  0  0
  184.8240  178.9460  144.0490 C   0  0  0  0  0  0  0  0  0  0  0  0
  182.5180  178.6200  143.3460 C   0  0  0  0  0  3  0  0  0  0  0  0
  183.2250  178.8680  139.4410 C   0  0  0  0  0  3  0  0  0  0  0  0
  180.9250  179.7660  140.5820 O   0  0  0  0  0  0  0  0  0  0  0  0
  185.2300  179.0520  142.7050 C   0  0  0  0  0  0  0  0  0  0  0  0
  184.2600  178.9530  141.6930 C   0  0  0  0  0  0  0  0  0  0  0  0
  182.9370  178.7380  142.0230 C   0  0  0  0  0  0  0  0  0  0  0  0
  181.2650  177.3040  140.4970 O   0  0  0  0  0  0  0  0  0  0  0  0
  184.5380  179.0720  140.2210 C   0  0  0  0  0  3  0  0  0  0  0  0
  183.4720  178.7280  144.3630 C   0  0  0  0  0  3  0  0  0  0  0  0
  185.7230  179.0650  145.0560 F   0  0  0  0  0  0  0  0  0  0  0  0
  181.9240  178.6460  140.6360 S   0  0  0  0  0  0  0  0  0  0  0  0
  1  3  1  6  0  0  0
  1  5  1  0  0  0  0
  1 31  1  0  0  0  0
  2  6  1  0  0  0  0
  2  3  1  0  0  0  0
  4 33  1  1  0  0  0
  4  5  1  0  0  0  0
  6  4  1  0  0  0  0
  7 13  2  0  0  0  0
  8 16  1  6  0  0  0
  8  7  1  0  0  0  0
  9 12  1  0  0  0  0
 11  9  1  0  0  0  0
 12 13  1  0  0  0  0
 13  2  1  0  0  0  0
 14 10  1  6  0  0  0
 14 11  1  0  0  0  0
 14  8  1  0  0  0  0
 15  9  2  0  0  0  0
 16 17  1  0  0  0  0
 18 17  1  1  0  0  0
 18 21  1  0  0  0  0
 21 22  1  0  0  0  0
 22 19  2  0  0  0  0
 22 20  1  0  0  0  0
 23 18  1  0  0  0  0
 24 25  1  0  0  0  0
 24 27  1  0  0  0  0
 25 26  1  6  0  0  0
 25 27  1  0  0  0  0
 25 23  1  0  0  0  0
 30 32  1  6  0  0  0
 30 28  1  0  0  0  0
 31 29  1  6  0  0  0
 31 30  1  0  0  0  0
 31 28  1  0  0  0  0
 33 38  1  0  0  0  0
 34 43  1  0  0  0  0
 34 44  1  0  0  0  0
 35 43  2  0  0  0  0
 36 42  2  0  0  0  0
 36 45  1  0  0  0  0
 37 45  2  0  0  0  0
 38 34  2  0  0  0  0
 39 40  2  0  0  0  0
 39 38  1  0  0  0  0
 40 35  1  0  0  0  0
 41 45  2  0  0  0  0
 42 39  1  0  0  0  0
 45 40  1  0  0  0  0
M  END
>  <MODEL>
1

>  <REMARK>
 VINA RESULT:      -8.9      0.000      0.000
  Name = 
  10 active torsions:
  status: ('A' for Active; 'I' for Inactive)
    1  A    between atoms: O_3  and  C_11
    2  A    between atoms: O_3  and  C_40
    3  A    between atoms: C_4  and  N_22
    4  A    between atoms: C_4  and  N_32
    5  A    between atoms: C_4  and  C_40
    6  A    between atoms: C_10  and  C_18
    7  A    between atoms: C_12  and  C_15
    8  A    between atoms: C_12  and  C_29
    9  A    between atoms: N_21  and  C_39
   10  A    between atoms: N_22  and  C_34
                            x       y       z     vdW  Elec       q    Type
                         _______ _______ _______ _____ _____    ______ ____

>  <TORSDO>
F 10

$$$$
=
 OpenBabel11062414183D

 45 50  0  0  1  0  0  0  0  0999 V2000
  189.4030  177.4480  142.1950 C   0  0  1  0  0  3  0  0  0  0  0  0
  188.8580  177.5210  139.7920 N   0  0  0  0  0  0  0  0  0  0  0  0
  189.8200  177.0270  140.7820 C   0  0  0  0  0  2  0  0  0  0  0  0
  187.1660  178.0960  141.4970 C   0  0  2  0  0  3  0  0  0  0  0  0
  187.9670  177.2350  142.3860 N   0  0  0  0  0  2  0  0  0  0  0  0
  187.8720  178.5200  140.2000 C   0  0  0  0  0  2  0  0  0  0  0  0
  187.7660  176.8860  137.7360 C   0  0  0  0  0  3  0  0  0  0  0  0
  187.7630  176.4350  136.2990 C   0  0  1  0  0  3  0  0  0  0  0  0
  190.3030  175.2410  137.6400 C   0  0  0  0  0  0  0  0  0  0  0  0
  188.9470  175.0500  134.6600 N   0  0  0  0  0  1  0  0  0  0  0  0
  189.2860  174.4990  136.9550 N   0  0  0  0  0  2  0  0  0  0  0  0
  190.2100  176.7210  137.7840 C   0  0  0  0  0  2  0  0  0  0  0  0
  188.8970  177.0620  138.4280 C   0  0  0  0  0  0  0  0  0  0  0  0
  188.3350  175.0330  135.9760 C   0  0  1  0  0  3  0  0  0  0  0  0
  191.2500  174.6260  138.1960 O   0  0  0  0  0  0  0  0  0  0  0  0
  186.5380  176.7050  135.6520 O   0  0  0  0  0  0  0  0  0  0  0  0
  185.5610  176.9670  136.6310 C   0  0  0  0  0  2  0  0  0  0  0  0
  184.3350  176.0860  136.4260 C   0  0  2  0  0  3  0  0  0  0  0  0
  181.8610  175.2290  135.1550 O   0  0  0  0  0  0  0  0  0  0  0  0
  180.8860  177.1760  135.8650 O   0  0  0  0  0  1  0  0  0  0  0  0
  183.1140  176.8820  136.4530 N   0  0  0  0  0  2  0  0  0  0  0  0
  181.9120  176.4500  135.8190 C   0  0  0  0  0  0  0  0  0  0  0  0
  184.2820  175.0610  137.4600 N   0  0  0  0  0  2  0  0  0  0  0  0
  184.7260  172.7140  137.7930 N   0  0  0  0  0  2  0  0  0  0  0  0
  184.9100  173.8530  136.9410 C   0  0  1  0  0  0  0  0  0  0  0  0
  184.9170  173.5420  135.4570 C   0  0  0  0  0  1  0  0  0  0  0  0
  185.9430  173.3790  137.6780 O   0  0  0  0  0  0  0  0  0  0  0  0
  189.8310  177.0890  144.7690 C   0  0  0  0  0  2  0  0  0  0  0  0
  190.5710  175.4560  143.1400 O   0  0  0  0  0  1  0  0  0  0  0  0
  191.1730  177.5650  144.2180 C   0  0  1  0  0  3  0  0  0  0  0  0
  190.2020  176.7860  143.3340 C   0  0  1  0  0  0  0  0  0  0  0  0
  191.1240  179.0700  144.0140 C   0  0  0  0  0  1  0  0  0  0  0  0
  186.5670  179.2900  142.2450 C   0  0  0  0  0  2  0  0  0  0  0  0
  184.7900  178.9570  144.0130 C   0  0  0  0  0  0  0  0  0  0  0  0
  182.4550  178.6390  143.4100 C   0  0  0  0  0  3  0  0  0  0  0  0
  182.9890  178.9220  139.4800 C   0  0  0  0  0  3  0  0  0  0  0  0
  180.7430  179.8120  140.7310 O   0  0  0  0  0  0  0  0  0  0  0  0
  185.1370  179.0750  142.6530 C   0  0  0  0  0  0  0  0  0  0  0  0
  184.1230  178.9860  141.6850 C   0  0  0  0  0  0  0  0  0  0  0  0
  182.8150  178.7690  142.0710 C   0  0  0  0  0  0  0  0  0  0  0  0
  181.0750  177.3500  140.6080 O   0  0  0  0  0  0  0  0  0  0  0  0
  184.3350  179.1190  140.2020 C   0  0  0  0  0  3  0  0  0  0  0  0
  183.4540  178.7370  144.3840 C   0  0  0  0  0  3  0  0  0  0  0  0
  185.7340  179.0660  144.9800 F   0  0  0  0  0  0  0  0  0  0  0  0
  181.7410  178.6910  140.7290 S   0  0  0  0  0  0  0  0  0  0  0  0
  1  3  1  6  0  0  0
  1  5  1  0  0  0  0
  1 31  1  0  0  0  0
  2  6  1  0  0  0  0
  2  3  1  0  0  0  0
  4 33  1  1  0  0  0
  4  5  1  0  0  0  0
  6  4  1  0  0  0  0
  7 13  2  0  0  0  0
  8 16  1  1  0  0  0
  8  7  1  0  0  0  0
  9 12  1  0  0  0  0
  9 15  2  0  0  0  0
 11  9  1  0  0  0  0
 12 13  1  0  0  0  0
 13  2  1  0  0  0  0
 14 10  1  6  0  0  0
 14  8  1  0  0  0  0
 14 11  1  0  0  0  0
 16 17  1  0  0  0  0
 18 21  1  0  0  0  0
 18 17  1  1  0  0  0
 18 23  1  0  0  0  0
 19 22  2  0  0  0  0
 22 20  1  0  0  0  0
 22 21  1  0  0  0  0
 25 26  1  6  0  0  0
 25 23  1  0  0  0  0
 25 27  1  0  0  0  0
 25 24  1  0  0  0  0
 27 24  1  0  0  0  0
 30 32  1  6  0  0  0
 30 28  1  0  0  0  0
 31 29  1  6  0  0  0
 31 30  1  0  0  0  0
 31 28  1  0  0  0  0
 33 38  1  0  0  0  0
 34 43  1  0  0  0  0
 34 44  1  0  0  0  0
 35 43  2  0  0  0  0
 36 42  2  0  0  0  0
 36 45  1  0  0  0  0
 38 34  2  0  0  0  0
 39 40  2  0  0  0  0
 39 38  1  0  0  0  0
 40 35  1  0  0  0  0
 41 45  2  0  0  0  0
 42 39  1  0  0  0  0
 45 37  2  0  0  0  0
 45 40  1  0  0  0  0
M  END
>  <MODEL>
2

>  <REMARK>
 VINA RESULT:      -8.7      2.712      6.050
  Name = 
  10 active torsions:
  status: ('A' for Active; 'I' for Inactive)
    1  A    between atoms: O_3  and  C_11
    2  A    between atoms: O_3  and  C_40
    3  A    between atoms: C_4  and  N_22
    4  A    between atoms: C_4  and  N_32
    5  A    between atoms: C_4  and  C_40
    6  A    between atoms: C_10  and  C_18
    7  A    between atoms: C_12  and  C_15
    8  A    between atoms: C_12  and  C_29
    9  A    between atoms: N_21  and  C_39
   10  A    between atoms: N_22  and  C_34
                            x       y       z     vdW  Elec       q    Type
                         _______ _______ _______ _____ _____    ______ ____

>  <TORSDO>
F 10

$$$$
=
 OpenBabel11062414183D

 45 50  0  0  1  0  0  0  0  0999 V2000
  189.5630  177.4100  142.1590 C   0  0  1  0  0  3  0  0  0  0  0  0
  189.0070  177.3620  139.7570 N   0  0  0  0  0  0  0  0  0  0  0  0
  189.9760  176.9220  140.7660 C   0  0  0  0  0  2  0  0  0  0  0  0
  187.3190  178.0100  141.4400 C   0  0  2  0  0  3  0  0  0  0  0  0
  188.1290  177.1980  142.3660 N   0  0  0  0  0  2  0  0  0  0  0  0
  188.0170  178.3740  140.1210 C   0  0  0  0  0  2  0  0  0  0  0  0
  187.9140  176.4840  137.7940 C   0  0  0  0  0  3  0  0  0  0  0  0
  187.9040  175.9580  136.3820 C   0  0  1  0  0  3  0  0  0  0  0  0
  190.6330  175.1660  137.6470 C   0  0  0  0  0  0  0  0  0  0  0  0
  189.1790  174.6440  134.7540 N   0  0  0  0  0  1  0  0  0  0  0  0
  189.6890  174.2670  137.0520 N   0  0  0  0  0  2  0  0  0  0  0  0
  190.3580  176.6290  137.7240 C   0  0  0  0  0  2  0  0  0  0  0  0
  189.0430  176.8380  138.4180 C   0  0  0  0  0  0  0  0  0  0  0  0
  188.6340  174.6230  136.0990 C   0  0  1  0  0  3  0  0  0  0  0  0
  191.6750  174.7060  138.1820 O   0  0  0  0  0  0  0  0  0  0  0  0
  186.6260  176.0360  135.7870 O   0  0  0  0  0  0  0  0  0  0  0  0
  185.6700  176.2350  136.8000 C   0  0  0  0  0  2  0  0  0  0  0  0
  184.5280  175.2330  136.6750 C   0  0  2  0  0  3  0  0  0  0  0  0
  185.4550  172.9090  138.1610 O   0  0  0  0  0  1  0  0  0  0  0  0
  185.8280  171.8500  136.1660 O   0  0  0  0  0  0  0  0  0  0  0  0
  184.9820  174.0090  136.0270 N   0  0  0  0  0  2  0  0  0  0  0  0
  185.4400  172.8810  136.7710 C   0  0  0  0  0  0  0  0  0  0  0  0
  183.4340  175.8210  135.9150 N   0  0  0  0  0  2  0  0  0  0  0  0
  181.0520  176.1590  136.0930 N   0  0  0  0  0  2  0  0  0  0  0  0
  182.2840  175.9620  136.8000 C   0  0  1  0  0  0  0  0  0  0  0  0
  182.1630  175.1470  138.0730 C   0  0  0  0  0  1  0  0  0  0  0  0
  181.6930  177.1810  136.7870 O   0  0  0  0  0  0  0  0  0  0  0  0
  189.9800  177.1480  144.7460 C   0  0  0  0  0  2  0  0  0  0  0  0
  190.7780  175.4840  143.1780 O   0  0  0  0  0  1  0  0  0  0  0  0
  191.3130  177.6430  144.1890 C   0  0  1  0  0  3  0  0  0  0  0  0
  190.3710  176.8080  143.3240 C   0  0  1  0  0  0  0  0  0  0  0  0
  191.2220  179.1390  143.9350 C   0  0  0  0  0  1  0  0  0  0  0  0
  186.7150  179.2350  142.1320 C   0  0  0  0  0  2  0  0  0  0  0  0
  184.9700  178.8900  143.9290 C   0  0  0  0  0  0  0  0  0  0  0  0
  182.6200  178.6090  143.3660 C   0  0  0  0  0  3  0  0  0  0  0  0
  183.0800  178.9560  139.4330 C   0  0  0  0  0  3  0  0  0  0  0  0
  180.8690  179.8480  140.7430 O   0  0  0  0  0  0  0  0  0  0  0  0
  185.2910  179.0290  142.5640 C   0  0  0  0  0  0  0  0  0  0  0  0
  184.2580  178.9680  141.6150 C   0  0  0  0  0  0  0  0  0  0  0  0
  182.9550  178.7590  142.0230 C   0  0  0  0  0  0  0  0  0  0  0  0
  181.1710  177.3860  140.5700 O   0  0  0  0  0  0  0  0  0  0  0  0
  184.4420  179.1250  140.1310 C   0  0  0  0  0  3  0  0  0  0  0  0
  183.6390  178.6770  144.3220 C   0  0  0  0  0  3  0  0  0  0  0  0
  185.9330  178.9700  144.8790 F   0  0  0  0  0  0  0  0  0  0  0  0
  181.8550  178.7170  140.7010 S   0  0  0  0  0  0  0  0  0  0  0  0
  1  3  1  6  0  0  0
  1  5  1  0  0  0  0
  1 31  1  0  0  0  0
  2  6  1  0  0  0  0
  2  3  1  0  0  0  0
  4 33  1  1  0  0  0
  4  5  1  0  0  0  0
  6  4  1  0  0  0  0
  7 13  2  0  0  0  0
  8 16  1  1  0  0  0
  8  7  1  0  0  0  0
  9 12  1  0  0  0  0
  9 15  2  0  0  0  0
 11  9  1  0  0  0  0
 12 13  1  0  0  0  0
 13  2  1  0  0  0  0
 14 10  1  6  0  0  0
 14  8  1  0  0  0  0
 14 11  1  0  0  0  0
 16 17  1  0  0  0  0
 18 17  1  6  0  0  0
 20 22  2  0  0  0  0
 21 18  1  0  0  0  0
 21 22  1  0  0  0  0
 22 19  1  0  0  0  0
 23 18  1  0  0  0  0
 23 25  1  0  0  0  0
 24 27  1  0  0  0  0
 24 25  1  0  0  0  0
 25 26  1  1  0  0  0
 27 25  1  0  0  0  0
 30 32  1  6  0  0  0
 30 28  1  0  0  0  0
 31 29  1  6  0  0  0
 31 30  1  0  0  0  0
 31 28  1  0  0  0  0
 33 38  1  0  0  0  0
 34 43  1  0  0  0  0
 34 44  1  0  0  0  0
 35 43  2  0  0  0  0
 36 42  2  0  0  0  0
 36 45  1  0  0  0  0
 38 34  2  0  0  0  0
 39 40  2  0  0  0  0
 39 38  1  0  0  0  0
 40 35  1  0  0  0  0
 41 45  2  0  0  0  0
 42 39  1  0  0  0  0
 45 37  2  0  0  0  0
 45 40  1  0  0  0  0
M  END
>  <MODEL>
3

>  <REMARK>
 VINA RESULT:      -8.7      2.746      6.032
  Name = 
  10 active torsions:
  status: ('A' for Active; 'I' for Inactive)
    1  A    between atoms: O_3  and  C_11
    2  A    between atoms: O_3  and  C_40
    3  A    between atoms: C_4  and  N_22
    4  A    between atoms: C_4  and  N_32
    5  A    between atoms: C_4  and  C_40
    6  A    between atoms: C_10  and  C_18
    7  A    between atoms: C_12  and  C_15
    8  A    between atoms: C_12  and  C_29
    9  A    between atoms: N_21  and  C_39
   10  A    between atoms: N_22  and  C_34
                            x       y       z     vdW  Elec       q    Type
                         _______ _______ _______ _____ _____    ______ ____

>  <TORSDO>
F 10

$$$$
=
 OpenBabel11062414183D

 45 50  0  0  1  0  0  0  0  0999 V2000
  182.8600  178.5590  140.2220 C   0  0  1  0  0  3  0  0  0  0  0  0
  184.6970  178.8450  141.8410 N   0  0  0  0  0  0  0  0  0  0  0  0
  183.2400  178.7770  141.6910 C   0  0  0  0  0  2  0  0  0  0  0  0
  185.1260  177.9610  139.5750 C   0  0  2  0  0  3  0  0  0  0  0  0
  183.7160  177.5340  139.6230 N   0  0  0  0  0  2  0  0  0  0  0  0
  185.5260  178.9880  140.6460 C   0  0  0  0  0  2  0  0  0  0  0  0
  186.2300  177.8830  143.4370 C   0  0  0  0  0  3  0  0  0  0  0  0
  186.9160  177.8270  144.7770 C   0  0  1  0  0  3  0  0  0  0  0  0
  184.0880  179.0390  145.2340 C   0  0  0  0  0  0  0  0  0  0  0  0
  186.6100  178.2400  147.1730 N   0  0  0  0  0  1  0  0  0  0  0  0
  184.6270  177.8890  145.8960 N   0  0  0  0  0  2  0  0  0  0  0  0
  184.8790  179.7760  144.2070 C   0  0  0  0  0  2  0  0  0  0  0  0
  185.3090  178.8080  143.1430 C   0  0  0  0  0  0  0  0  0  0  0  0
  186.0470  177.5490  146.0270 C   0  0  1  0  0  3  0  0  0  0  0  0
  182.9020  179.3880  145.4650 O   0  0  0  0  0  0  0  0  0  0  0  0
  188.1070  177.0700  144.7410 O   0  0  0  0  0  0  0  0  0  0  0  0
  189.1290  177.8100  145.3660 C   0  0  0  0  0  2  0  0  0  0  0  0
  190.4550  177.0600  145.3110 C   0  0  2  0  0  3  0  0  0  0  0  0
  192.3490  175.0310  146.1870 O   0  0  0  0  0  0  0  0  0  0  0  0
  192.6110  176.1970  148.1400 O   0  0  0  0  0  1  0  0  0  0  0  0
  191.1340  177.1150  146.5990 N   0  0  0  0  0  2  0  0  0  0  0  0
  192.0550  176.1080  147.0160 C   0  0  0  0  0  0  0  0  0  0  0  0
  191.3060  177.6320  144.2770 N   0  0  0  0  0  2  0  0  0  0  0  0
  191.7450  177.5020  141.9080 N   0  0  0  0  0  2  0  0  0  0  0  0
  190.9550  177.0170  143.0030 C   0  0  1  0  0  0  0  0  0  0  0  0
  190.5760  175.5510  142.9120 C   0  0  0  0  0  1  0  0  0  0  0  0
  190.4110  177.8550  142.0890 O   0  0  0  0  0  0  0  0  0  0  0  0
  180.9910  177.4030  138.7710 C   0  0  0  0  0  2  0  0  0  0  0  0
  180.6110  177.9330  141.1030 O   0  0  0  0  0  1  0  0  0  0  0  0
  180.5680  178.8680  138.8460 C   0  0  1  0  0  3  0  0  0  0  0  0
  181.3740  178.2320  139.9760 C   0  0  1  0  0  0  0  0  0  0  0  0
  181.4050  179.6780  137.8700 C   0  0  0  0  0  1  0  0  0  0  0  0
  185.5430  178.4010  138.1690 C   0  0  0  0  0  2  0  0  0  0  0  0
  185.6260  176.5230  136.4790 C   0  0  0  0  0  0  0  0  0  0  0  0
  187.6950  175.3250  136.0250 C   0  0  0  0  0  3  0  0  0  0  0  0
  189.9500  177.4000  138.5580 C   0  0  0  0  0  3  0  0  0  0  0  0
  190.8990  176.4140  136.2070 O   0  0  0  0  0  0  0  0  0  0  0  0
  186.2910  177.3390  137.4140 C   0  0  0  0  0  0  0  0  0  0  0  0
  187.6650  177.1410  137.6320 C   0  0  0  0  0  0  0  0  0  0  0  0
  188.3380  176.1490  136.9460 C   0  0  0  0  0  0  0  0  0  0  0  0
  190.3800  174.7710  138.0010 O   0  0  0  0  0  0  0  0  0  0  0  0
  188.5120  177.9490  138.5750 C   0  0  0  0  0  3  0  0  0  0  0  0
  186.3290  175.5190  135.7930 C   0  0  0  0  0  3  0  0  0  0  0  0
  184.3080  176.6990  136.2190 F   0  0  0  0  0  0  0  0  0  0  0  0
  190.0050  176.0800  137.3650 S   0  0  0  0  0  0  0  0  0  0  0  0
  1  3  1  1  0  0  0
  2 13  1  0  0  0  0
  3  2  1  0  0  0  0
  4 33  1  6  0  0  0
  4  5  1  0  0  0  0
  4  6  1  0  0  0  0
  5  1  1  0  0  0  0
  6  2  1  0  0  0  0
  7  8  1  0  0  0  0
  8 16  1  6  0  0  0
  8 14  1  0  0  0  0
  9 15  2  0  0  0  0
  9 11  1  0  0  0  0
 11 14  1  0  0  0  0
 12  9  1  0  0  0  0
 13  7  2  0  0  0  0
 13 12  1  0  0  0  0
 14 10  1  1  0  0  0
 16 17  1  0  0  0  0
 18 17  1  1  0  0  0
 18 21  1  0  0  0  0
 19 22  2  0  0  0  0
 21 22  1  0  0  0  0
 22 20  1  0  0  0  0
 23 18  1  0  0  0  0
 24 27  1  0  0  0  0
 24 25  1  0  0  0  0
 25 26  1  6  0  0  0
 25 23  1  0  0  0  0
 27 25  1  0  0  0  0
 28 30  1  0  0  0  0
 28 31  1  0  0  0  0
 30 32  1  6  0  0  0
 30 31  1  0  0  0  0
 31  1  1  0  0  0  0
 31 29  1  1  0  0  0
 34 38  1  0  0  0  0
 35 40  2  0  0  0  0
 36 42  2  0  0  0  0
 37 45  2  0  0  0  0
 38 39  2  0  0  0  0
 38 33  1  0  0  0  0
 39 42  1  0  0  0  0
 40 45  1  0  0  0  0
 40 39  1  0  0  0  0
 43 35  1  0  0  0  0
 43 34  2  0  0  0  0
 44 34  1  0  0  0  0
 45 41  2  0  0  0  0
 45 36  1  0  0  0  0
M  END
>  <MODEL>
4

>  <REMARK>
 VINA RESULT:      -8.6      4.281      8.749
  Name = 
  10 active torsions:
  status: ('A' for Active; 'I' for Inactive)
    1  A    between atoms: O_3  and  C_11
    2  A    between atoms: O_3  and  C_40
    3  A    between atoms: C_4  and  N_22
    4  A    between atoms: C_4  and  N_32
    5  A    between atoms: C_4  and  C_40
    6  A    between atoms: C_10  and  C_18
    7  A    between atoms: C_12  and  C_15
    8  A    between atoms: C_12  and  C_29
    9  A    between atoms: N_21  and  C_39
   10  A    between atoms: N_22  and  C_34
                            x       y       z     vdW  Elec       q    Type
                         _______ _______ _______ _____ _____    ______ ____

>  <TORSDO>
F 10

$$$$
=
 OpenBabel11062414183D

 45 50  0  0  1  0  0  0  0  0999 V2000
  181.5590  178.6890  141.2340 C   0  0  1  0  0  3  0  0  0  0  0  0
  183.8730  178.7690  142.0810 N   0  0  0  0  0  0  0  0  0  0  0  0
  182.4620  178.9030  142.4540 C   0  0  0  0  0  2  0  0  0  0  0  0
  183.3560  177.7530  139.8900 C   0  0  2  0  0  3  0  0  0  0  0  0
  182.0160  177.5320  140.4620 N   0  0  0  0  0  2  0  0  0  0  0  0
  184.2330  178.7500  140.6640 C   0  0  0  0  0  2  0  0  0  0  0  0
  185.8950  177.8020  142.9770 C   0  0  0  0  0  3  0  0  0  0  0  0
  187.0050  177.7080  143.9910 C   0  0  1  0  0  3  0  0  0  0  0  0
  184.4760  178.7390  145.4800 C   0  0  0  0  0  0  0  0  0  0  0  0
  187.5390  177.9680  146.3680 N   0  0  0  0  0  1  0  0  0  0  0  0
  185.2480  177.5830  145.8320 N   0  0  0  0  0  2  0  0  0  0  0  0
  184.8380  179.5730  144.2990 C   0  0  0  0  0  2  0  0  0  0  0  0
  184.9010  178.6920  143.0850 C   0  0  0  0  0  0  0  0  0  0  0  0
  186.6340  177.3130  145.4410 C   0  0  1  0  0  3  0  0  0  0  0  0
  183.4340  179.0100  146.1300 O   0  0  0  0  0  0  0  0  0  0  0  0
  188.1320  177.0190  143.4920 O   0  0  0  0  0  0  0  0  0  0  0  0
  188.5450  177.6380  142.2970 C   0  0  0  0  0  2  0  0  0  0  0  0
  190.0240  177.3790  142.0330 C   0  0  2  0  0  3  0  0  0  0  0  0
  192.4940  177.8150  140.5580 O   0  0  0  0  0  1  0  0  0  0  0  0
  191.5720  176.6930  138.7880 O   0  0  0  0  0  0  0  0  0  0  0  0
  190.2300  176.8960  140.6730 N   0  0  0  0  0  2  0  0  0  0  0  0
  191.4450  177.1240  139.9620 C   0  0  0  0  0  0  0  0  0  0  0  0
  190.5350  176.4050  142.9880 N   0  0  0  0  0  2  0  0  0  0  0  0
  191.8310  176.2780  145.0180 N   0  0  0  0  0  2  0  0  0  0  0  0
  191.1060  177.1270  144.1180 C   0  0  1  0  0  0  0  0  0  0  0  0
  191.6820  178.5200  143.9540 C   0  0  0  0  0  1  0  0  0  0  0  0
  190.5830  176.8110  145.3270 O   0  0  0  0  0  0  0  0  0  0  0  0
  179.0690  178.4610  140.4090 C   0  0  0  0  0  2  0  0  0  0  0  0
  179.7150  177.7670  142.6380 O   0  0  0  0  0  1  0  0  0  0  0  0
  179.0680  179.7040  141.2960 C   0  0  1  0  0  3  0  0  0  0  0  0
  180.0570  178.5680  141.5500 C   0  0  1  0  0  0  0  0  0  0  0  0
  179.6550  180.8710  140.5190 C   0  0  0  0  0  1  0  0  0  0  0  0
  183.2940  178.0790  138.3950 C   0  0  0  0  0  2  0  0  0  0  0  0
  183.2940  176.0110  136.9410 C   0  0  0  0  0  0  0  0  0  0  0  0
  185.3510  175.1590  135.9600 C   0  0  0  0  0  3  0  0  0  0  0  0
  187.7290  177.9780  137.4470 C   0  0  0  0  0  3  0  0  0  0  0  0
  188.1410  176.8340  135.0130 O   0  0  0  0  0  0  0  0  0  0  0  0
  184.0050  177.0700  137.5390 C   0  0  0  0  0  0  0  0  0  0  0  0
  185.3900  177.1630  137.3240 C   0  0  0  0  0  0  0  0  0  0  0  0
  186.0350  176.2190  136.5510 C   0  0  0  0  0  0  0  0  0  0  0  0
  188.5500  175.4190  137.0180 O   0  0  0  0  0  0  0  0  0  0  0  0
  186.2740  178.2490  137.8720 C   0  0  0  0  0  3  0  0  0  0  0  0
  183.9700  175.0600  136.1580 C   0  0  0  0  0  3  0  0  0  0  0  0
  181.9530  175.8990  137.1000 F   0  0  0  0  0  0  0  0  0  0  0  0
  187.7240  176.5230  136.4210 S   0  0  0  0  0  0  0  0  0  0  0  0
  1 31  1  0  0  0  0
  1  3  1  1  0  0  0
  2  3  1  0  0  0  0
  2 13  1  0  0  0  0
  4 33  1  6  0  0  0
  4  5  1  0  0  0  0
  4  6  1  0  0  0  0
  5  1  1  0  0  0  0
  6  2  1  0  0  0  0
  7 13  2  0  0  0  0
  7  8  1  0  0  0  0
  8 16  1  6  0  0  0
  8 14  1  0  0  0  0
  9 11  1  0  0  0  0
  9 15  2  0  0  0  0
 12  9  1  0  0  0  0
 13 12  1  0  0  0  0
 14 11  1  0  0  0  0
 14 10  1  1  0  0  0
 17 16  1  0  0  0  0
 18 17  1  1  0  0  0
 18 23  1  0  0  0  0
 20 22  2  0  0  0  0
 21 18  1  0  0  0  0
 22 19  1  0  0  0  0
 22 21  1  0  0  0  0
 23 25  1  0  0  0  0
 24 27  1  0  0  0  0
 25 26  1  6  0  0  0
 25 24  1  0  0  0  0
 25 27  1  0  0  0  0
 28 30  1  0  0  0  0
 28 31  1  0  0  0  0
 30 32  1  6  0  0  0
 30 31  1  0  0  0  0
 31 29  1  1  0  0  0
 34 44  1  0  0  0  0
 34 38  1  0  0  0  0
 35 43  1  0  0  0  0
 35 40  2  0  0  0  0
 36 42  2  0  0  0  0
 37 45  2  0  0  0  0
 38 33  1  0  0  0  0
 39 38  2  0  0  0  0
 39 42  1  0  0  0  0
 40 39  1  0  0  0  0
 43 34  2  0  0  0  0
 45 40  1  0  0  0  0
 45 41  2  0  0  0  0
 45 36  1  0  0  0  0
M  END
>  <MODEL>
5

>  <REMARK>
 VINA RESULT:      -8.5      3.918      8.415
  Name = 
  10 active torsions:
  status: ('A' for Active; 'I' for Inactive)
    1  A    between atoms: O_3  and  C_11
    2  A    between atoms: O_3  and  C_40
    3  A    between atoms: C_4  and  N_22
    4  A    between atoms: C_4  and  N_32
    5  A    between atoms: C_4  and  C_40
    6  A    between atoms: C_10  and  C_18
    7  A    between atoms: C_12  and  C_15
    8  A    between atoms: C_12  and  C_29
    9  A    between atoms: N_21  and  C_39
   10  A    between atoms: N_22  and  C_34
                            x       y       z     vdW  Elec       q    Type
                         _______ _______ _______ _____ _____    ______ ____

>  <TORSDO>
F 10

$$$$
=
 OpenBabel11062414183D

 45 50  0  0  1  0  0  0  0  0999 V2000
  191.2430  176.4200  138.4950 C   0  0  1  0  0  3  0  0  0  0  0  0
  189.3810  176.9910  140.0080 N   0  0  0  0  0  0  0  0  0  0  0  0
  190.8240  176.7420  139.9340 C   0  0  0  0  0  2  0  0  0  0  0  0
  189.1350  177.1910  137.5590 C   0  0  2  0  0  3  0  0  0  0  0  0
  190.6010  177.3470  137.5610 N   0  0  0  0  0  2  0  0  0  0  0  0
  188.5420  176.6390  138.8640 C   0  0  0  0  0  2  0  0  0  0  0  0
  188.8110  176.8640  142.3490 C   0  0  0  0  0  3  0  0  0  0  0  0
  188.2240  177.4160  143.6220 C   0  0  1  0  0  3  0  0  0  0  0  0
  186.6080  178.6250  141.2560 C   0  0  0  0  0  0  0  0  0  0  0  0
  186.4320  178.8220  144.5250 N   0  0  0  0  0  1  0  0  0  0  0  0
  186.0620  177.8940  142.3600 N   0  0  0  0  0  2  0  0  0  0  0  0
  188.0750  178.8630  141.1410 C   0  0  0  0  0  2  0  0  0  0  0  0
  188.7850  177.5410  141.1970 C   0  0  0  0  0  0  0  0  0  0  0  0
  186.7000  177.6850  143.6630 C   0  0  1  0  0  3  0  0  0  0  0  0
  185.8480  179.0060  140.3280 O   0  0  0  0  0  0  0  0  0  0  0  0
  188.7080  176.7530  144.7710 O   0  0  0  0  0  0  0  0  0  0  0  0
  189.8680  177.4140  145.2160 C   0  0  0  0  0  2  0  0  0  0  0  0
  190.1760  177.0570  146.6660 C   0  0  2  0  0  3  0  0  0  0  0  0
  192.3300  177.1790  148.6180 O   0  0  0  0  0  1  0  0  0  0  0  0
  193.1800  175.2520  147.7190 O   0  0  0  0  0  0  0  0  0  0  0  0
  191.2340  176.0580  146.7400 N   0  0  0  0  0  2  0  0  0  0  0  0
  192.2860  176.1360  147.6990 C   0  0  0  0  0  0  0  0  0  0  0  0
  188.9730  176.5560  147.3190 N   0  0  0  0  0  2  0  0  0  0  0  0
  187.2520  177.2250  148.8710 N   0  0  0  0  0  2  0  0  0  0  0  0
  188.4130  177.6290  148.1310 C   0  0  1  0  0  0  0  0  0  0  0  0
  189.3040  178.6280  148.8430 C   0  0  0  0  0  1  0  0  0  0  0  0
  187.1830  178.0540  147.7550 O   0  0  0  0  0  0  0  0  0  0  0  0
  193.2860  176.3980  136.8350 C   0  0  0  0  0  2  0  0  0  0  0  0
  193.5510  177.1220  139.1310 O   0  0  0  0  0  1  0  0  0  0  0  0
  193.4730  175.1490  137.6920 C   0  0  1  0  0  3  0  0  0  0  0  0
  192.7640  176.3780  138.2550 C   0  0  1  0  0  0  0  0  0  0  0  0
  192.5310  174.0620  137.2010 C   0  0  0  0  0  1  0  0  0  0  0  0
  188.6440  176.4200  136.3300 C   0  0  0  0  0  2  0  0  0  0  0  0
  187.9980  174.0370  136.8760 C   0  0  0  0  0  0  0  0  0  0  0  0
  185.6750  173.4140  137.2430 C   0  0  0  0  0  3  0  0  0  0  0  0
  184.1690  177.0550  136.7140 C   0  0  0  0  0  3  0  0  0  0  0  0
  183.1150  175.2650  138.4700 O   0  0  0  0  0  0  0  0  0  0  0  0
  187.6150  175.3760  136.6590 C   0  0  0  0  0  0  0  0  0  0  0  0
  186.2560  175.7160  136.7520 C   0  0  0  0  0  0  0  0  0  0  0  0
  185.3180  174.7440  137.0360 C   0  0  0  0  0  0  0  0  0  0  0  0
  182.8270  174.7840  136.0480 O   0  0  0  0  0  0  0  0  0  0  0  0
  185.7020  177.1020  136.5740 C   0  0  0  0  0  3  0  0  0  0  0  0
  187.0270  173.0640  137.1630 C   0  0  0  0  0  3  0  0  0  0  0  0
  189.3020  173.6720  136.8230 F   0  0  0  0  0  0  0  0  0  0  0  0
  183.7190  175.3770  137.1010 S   0  0  0  0  0  0  0  0  0  0  0  0
  1  3  1  1  0  0  0
  2 13  1  0  0  0  0
  3  2  1  0  0  0  0
  4 33  1  6  0  0  0
  4  5  1  0  0  0  0
  4  6  1  0  0  0  0
  5  1  1  0  0  0  0
  6  2  1  0  0  0  0
  7  8  1  0  0  0  0
  8 14  1  0  0  0  0
  8 16  1  1  0  0  0
  9 11  1  0  0  0  0
 11 14  1  0  0  0  0
 12 13  1  0  0  0  0
 12  9  1  0  0  0  0
 13  7  2  0  0  0  0
 14 10  1  1  0  0  0
 15  9  2  0  0  0  0
 16 17  1  0  0  0  0
 18 17  1  6  0  0  0
 18 21  1  0  0  0  0
 18 23  1  0  0  0  0
 21 22  1  0  0  0  0
 22 20  2  0  0  0  0
 22 19  1  0  0  0  0
 23 25  1  0  0  0  0
 25 26  1  1  0  0  0
 25 24  1  0  0  0  0
 27 25  1  0  0  0  0
 27 24  1  0  0  0  0
 28 30  1  0  0  0  0
 28 31  1  0  0  0  0
 30 32  1  6  0  0  0
 30 31  1  0  0  0  0
 31  1  1  0  0  0  0
 31 29  1  1  0  0  0
 33 38  1  0  0  0  0
 34 43  1  0  0  0  0
 36 45  1  0  0  0  0
 38 39  1  0  0  0  0
 38 34  2  0  0  0  0
 39 40  2  0  0  0  0
 40 45  1  0  0  0  0
 40 35  1  0  0  0  0
 41 45  2  0  0  0  0
 42 36  2  0  0  0  0
 42 39  1  0  0  0  0
 43 35  2  0  0  0  0
 44 34  1  0  0  0  0
 45 37  2  0  0  0  0
M  END
>  <MODEL>
6

>  <REMARK>
 VINA RESULT:      -8.4      3.525      8.373
  Name = 
  10 active torsions:
  status: ('A' for Active; 'I' for Inactive)
    1  A    between atoms: O_3  and  C_11
    2  A    between atoms: O_3  and  C_40
    3  A    between atoms: C_4  and  N_22
    4  A    between atoms: C_4  and  N_32
    5  A    between atoms: C_4  and  C_40
    6  A    between atoms: C_10  and  C_18
    7  A    between atoms: C_12  and  C_15
    8  A    between atoms: C_12  and  C_29
    9  A    between atoms: N_21  and  C_39
   10  A    between atoms: N_22  and  C_34
                            x       y       z     vdW  Elec       q    Type
                         _______ _______ _______ _____ _____    ______ ____

>  <TORSDO>
F 10

$$$$
=
 OpenBabel11062414183D

 45 50  0  0  1  0  0  0  0  0999 V2000
  186.3580  178.2470  138.9350 C   0  0  1  0  0  3  0  0  0  0  0  0
  185.5050  178.4350  141.2410 N   0  0  0  0  0  0  0  0  0  0  0  0
  186.7000  178.1880  140.4280 C   0  0  0  0  0  2  0  0  0  0  0  0
  184.1890  179.2740  139.3270 C   0  0  2  0  0  3  0  0  0  0  0  0
  185.4960  179.3980  138.6570 N   0  0  0  0  0  2  0  0  0  0  0  0
  184.1930  178.4090  140.5970 C   0  0  0  0  0  2  0  0  0  0  0  0
  186.1680  177.7520  143.4580 C   0  0  0  0  0  3  0  0  0  0  0  0
  186.3220  177.9660  144.9420 C   0  0  1  0  0  3  0  0  0  0  0  0
  183.8090  179.5560  144.0310 C   0  0  0  0  0  0  0  0  0  0  0  0
  185.2920  179.0090  146.9050 N   0  0  0  0  0  1  0  0  0  0  0  0
  183.8470  178.5620  145.0620 N   0  0  0  0  0  2  0  0  0  0  0  0
  185.0350  179.9140  143.2630 C   0  0  0  0  0  2  0  0  0  0  0  0
  185.6080  178.6650  142.6580 C   0  0  0  0  0  0  0  0  0  0  0  0
  185.0360  178.1140  145.7910 C   0  0  1  0  0  3  0  0  0  0  0  0
  182.7090  180.0800  143.7160 O   0  0  0  0  0  0  0  0  0  0  0  0
  187.2770  177.0990  145.5150 O   0  0  0  0  0  0  0  0  0  0  0  0
  188.3430  177.8720  146.0140 C   0  0  0  0  0  2  0  0  0  0  0  0
  189.6850  177.2540  145.6390 C   0  0  2  0  0  3  0  0  0  0  0  0
  192.0490  175.5580  145.6980 O   0  0  0  0  0  0  0  0  0  0  0  0
  192.4040  176.2200  147.8610 O   0  0  0  0  0  1  0  0  0  0  0  0
  190.5450  177.1350  146.8100 N   0  0  0  0  0  2  0  0  0  0  0  0
  191.6970  176.2940  146.8240 C   0  0  0  0  0  0  0  0  0  0  0  0
  190.3400  178.0670  144.6230 N   0  0  0  0  0  2  0  0  0  0  0  0
  191.2330  177.7020  142.4130 N   0  0  0  0  0  2  0  0  0  0  0  0
  190.1720  177.4110  143.3330 C   0  0  1  0  0  0  0  0  0  0  0  0
  189.6070  176.0080  143.2280 C   0  0  0  0  0  1  0  0  0  0  0  0
  189.9570  178.2450  142.2870 O   0  0  0  0  0  0  0  0  0  0  0  0
  187.3440  178.2330  136.4940 C   0  0  0  0  0  2  0  0  0  0  0  0
  188.6550  179.0370  138.3650 O   0  0  0  0  0  1  0  0  0  0  0  0
  187.9730  177.0180  137.1700 C   0  0  1  0  0  3  0  0  0  0  0  0
  187.5730  178.2430  137.9890 C   0  0  1  0  0  0  0  0  0  0  0  0
  186.9560  175.8890  137.2100 C   0  0  0  0  0  1  0  0  0  0  0  0
  183.0830  178.8610  138.3510 C   0  0  0  0  0  2  0  0  0  0  0  0
  181.0140  179.2050  139.7640 C   0  0  0  0  0  0  0  0  0  0  0  0
  179.5640  177.3420  140.3510 C   0  0  0  0  0  3  0  0  0  0  0  0
  181.6420  174.5600  138.4130 C   0  0  0  0  0  3  0  0  0  0  0  0
  178.9330  174.4830  138.6450 O   0  0  0  0  0  0  0  0  0  0  0  0
  181.8530  178.3370  139.0380 C   0  0  0  0  0  0  0  0  0  0  0  0
  181.5220  176.9740  138.9690 C   0  0  0  0  0  0  0  0  0  0  0  0
  180.4000  176.5010  139.6190 C   0  0  0  0  0  0  0  0  0  0  0  0
  180.2610  174.0540  140.7030 O   0  0  0  0  0  0  0  0  0  0  0  0
  182.3030  175.9360  138.2120 C   0  0  0  0  0  3  0  0  0  0  0  0
  179.8780  178.7030  140.4190 C   0  0  0  0  0  3  0  0  0  0  0  0
  181.2820  180.5320  139.8320 F   0  0  0  0  0  0  0  0  0  0  0  0
  180.1850  174.8080  139.4060 S   0  0  0  0  0  0  0  0  0  0  0  0
  1  3  1  1  0  0  0
  2 13  1  0  0  0  0
  3  2  1  0  0  0  0
  4 33  1  6  0  0  0
  4  6  1  0  0  0  0
  5  1  1  0  0  0  0
  5  4  1  0  0  0  0
  6  2  1  0  0  0  0
  7  8  1  0  0  0  0
  8 16  1  1  0  0  0
  8 14  1  0  0  0  0
  9 11  1  0  0  0  0
 11 14  1  0  0  0  0
 12  9  1  0  0  0  0
 13 12  1  0  0  0  0
 13  7  2  0  0  0  0
 14 10  1  1  0  0  0
 15  9  2  0  0  0  0
 16 17  1  0  0  0  0
 18 17  1  1  0  0  0
 18 21  1  0  0  0  0
 19 22  2  0  0  0  0
 21 22  1  0  0  0  0
 22 20  1  0  0  0  0
 23 18  1  0  0  0  0
 24 25  1  0  0  0  0
 25 26  1  6  0  0  0
 25 23  1  0  0  0  0
 27 24  1  0  0  0  0
 27 25  1  0  0  0  0
 28 30  1  0  0  0  0
 28 31  1  0  0  0  0
 30 32  1  1  0  0  0
 30 31  1  0  0  0  0
 31 29  1  1  0  0  0
 31  1  1  0  0  0  0
 33 38  1  0  0  0  0
 34 44  1  0  0  0  0
 34 43  1  0  0  0  0
 35 43  2  0  0  0  0
 36 45  1  0  0  0  0
 37 45  2  0  0  0  0
 38 34  2  0  0  0  0
 39 38  1  0  0  0  0
 39 40  2  0  0  0  0
 40 35  1  0  0  0  0
 42 36  2  0  0  0  0
 42 39  1  0  0  0  0
 45 40  1  0  0  0  0
 45 41  2  0  0  0  0
M  END
>  <MODEL>
7

>  <REMARK>
 VINA RESULT:      -8.4      4.577      7.646
  Name = 
  10 active torsions:
  status: ('A' for Active; 'I' for Inactive)
    1  A    between atoms: O_3  and  C_11
    2  A    between atoms: O_3  and  C_40
    3  A    between atoms: C_4  and  N_22
    4  A    between atoms: C_4  and  N_32
    5  A    between atoms: C_4  and  C_40
    6  A    between atoms: C_10  and  C_18
    7  A    between atoms: C_12  and  C_15
    8  A    between atoms: C_12  and  C_29
    9  A    between atoms: N_21  and  C_39
   10  A    between atoms: N_22  and  C_34
                            x       y       z     vdW  Elec       q    Type
                         _______ _______ _______ _____ _____    ______ ____

>  <TORSDO>
F 10

$$$$
=
 OpenBabel11062414183D

 45 50  0  0  1  0  0  0  0  0999 V2000
  181.5090  178.8790  142.1140 C   0  0  1  0  0  3  0  0  0  0  0  0
  183.9430  178.9140  142.5070 N   0  0  0  0  0  0  0  0  0  0  0  0
  182.6300  179.0430  143.1470 C   0  0  0  0  0  2  0  0  0  0  0  0
  183.0050  177.9810  140.4210 C   0  0  2  0  0  3  0  0  0  0  0  0
  181.7950  177.7480  141.2300 N   0  0  0  0  0  2  0  0  0  0  0  0
  184.0260  178.9440  141.0470 C   0  0  0  0  0  2  0  0  0  0  0  0
  186.1440  178.0050  142.8930 C   0  0  0  0  0  3  0  0  0  0  0  0
  187.4270  177.8740  143.6720 C   0  0  1  0  0  3  0  0  0  0  0  0
  185.1670  178.5160  145.7100 C   0  0  0  0  0  0  0  0  0  0  0  0
  188.3780  177.8830  145.9310 N   0  0  0  0  0  1  0  0  0  0  0  0
  186.0510  177.3900  145.7620 N   0  0  0  0  0  2  0  0  0  0  0  0
  185.2570  179.5140  144.6070 C   0  0  0  0  0  2  0  0  0  0  0  0
  185.1420  178.7950  143.2940 C   0  0  0  0  0  0  0  0  0  0  0  0
  187.3530  177.2780  145.0990 C   0  0  1  0  0  3  0  0  0  0  0  0
  184.2500  178.6240  146.5650 O   0  0  0  0  0  0  0  0  0  0  0  0
  188.4780  177.3400  142.8940 O   0  0  0  0  0  0  0  0  0  0  0  0
  188.1880  177.5630  141.5350 C   0  0  0  0  0  2  0  0  0  0  0  0
  189.4530  177.4820  140.6880 C   0  0  2  0  0  3  0  0  0  0  0  0
  188.8390  179.3400  138.5350 O   0  0  0  0  0  1  0  0  0  0  0  0
  188.5690  177.5460  137.1370 O   0  0  0  0  0  0  0  0  0  0  0  0
  189.1420  177.0470  139.3330 N   0  0  0  0  0  2  0  0  0  0  0  0
  188.8370  177.9710  138.2900 C   0  0  0  0  0  0  0  0  0  0  0  0
  190.4010  176.5600  141.3000 N   0  0  0  0  0  2  0  0  0  0  0  0
  192.0570  177.0670  142.9790 N   0  0  0  0  0  2  0  0  0  0  0  0
  191.6090  177.3020  141.6370 C   0  0  1  0  0  0  0  0  0  0  0  0
  192.7190  177.5040  140.6230 C   0  0  0  0  0  1  0  0  0  0  0  0
  191.4540  178.2570  142.5840 O   0  0  0  0  0  0  0  0  0  0  0  0
  178.9310  178.4560  141.7850 C   0  0  0  0  0  2  0  0  0  0  0  0
  179.9890  178.1060  143.9350 O   0  0  0  0  0  1  0  0  0  0  0  0
  179.0130  179.8110  142.4830 C   0  0  1  0  0  3  0  0  0  0  0  0
  180.0920  178.7550  142.7070 C   0  0  1  0  0  0  0  0  0  0  0  0
  179.3890  180.8740  141.4640 C   0  0  0  0  0  1  0  0  0  0  0  0
  182.6640  178.3610  138.9780 C   0  0  0  0  0  2  0  0  0  0  0  0
  184.4900  177.5290  137.4390 C   0  0  0  0  0  0  0  0  0  0  0  0
  184.1660  175.5600  136.0470 C   0  0  0  0  0  3  0  0  0  0  0  0
  180.4680  174.7750  137.2760 C   0  0  0  0  0  3  0  0  0  0  0  0
  182.2400  172.8270  136.5950 O   0  0  0  0  0  0  0  0  0  0  0  0
  183.1930  177.3820  137.9670 C   0  0  0  0  0  0  0  0  0  0  0  0
  182.4010  176.3070  137.5310 C   0  0  0  0  0  0  0  0  0  0  0  0
  182.8900  175.4260  136.5880 C   0  0  0  0  0  0  0  0  0  0  0  0
  181.3390  174.2360  134.7550 O   0  0  0  0  0  0  0  0  0  0  0  0
  181.0120  176.0070  138.0220 C   0  0  0  0  0  3  0  0  0  0  0  0
  184.9690  176.6210  136.4810 C   0  0  0  0  0  3  0  0  0  0  0  0
  185.2980  178.5350  137.8540 F   0  0  0  0  0  0  0  0  0  0  0  0
  181.7580  174.1910  136.1970 S   0  0  0  0  0  0  0  0  0  0  0  0
  1 31  1  0  0  0  0
  1  3  1  1  0  0  0
  2  3  1  0  0  0  0
  2 13  1  0  0  0  0
  4 33  1  6  0  0  0
  4  6  1  0  0  0  0
  4  5  1  0  0  0  0
  5  1  1  0  0  0  0
  6  2  1  0  0  0  0
  7 13  2  0  0  0  0
  7  8  1  0  0  0  0
  8 16  1  6  0  0  0
  8 14  1  0  0  0  0
  9 11  1  0  0  0  0
  9 15  2  0  0  0  0
 12  9  1  0  0  0  0
 13 12  1  0  0  0  0
 14 11  1  0  0  0  0
 14 10  1  1  0  0  0
 17 16  1  0  0  0  0
 18 23  1  0  0  0  0
 18 17  1  1  0  0  0
 20 22  2  0  0  0  0
 21 18  1  0  0  0  0
 22 19  1  0  0  0  0
 22 21  1  0  0  0  0
 23 25  1  0  0  0  0
 25 26  1  6  0  0  0
 25 27  1  0  0  0  0
 25 24  1  0  0  0  0
 27 24  1  0  0  0  0
 28 30  1  0  0  0  0
 28 31  1  0  0  0  0
 30 32  1  6  0  0  0
 30 31  1  0  0  0  0
 31 29  1  1  0  0  0
 34 44  1  0  0  0  0
 34 38  1  0  0  0  0
 35 43  1  0  0  0  0
 35 40  2  0  0  0  0
 36 42  2  0  0  0  0
 38 33  1  0  0  0  0
 39 38  2  0  0  0  0
 39 42  1  0  0  0  0
 40 39  1  0  0  0  0
 41 45  2  0  0  0  0
 43 34  2  0  0  0  0
 45 40  1  0  0  0  0
 45 37  2  0  0  0  0
 45 36  1  0  0  0  0
M  END
>  <MODEL>
8

>  <REMARK>
 VINA RESULT:      -8.3      4.020      8.085
  Name = 
  10 active torsions:
  status: ('A' for Active; 'I' for Inactive)
    1  A    between atoms: O_3  and  C_11
    2  A    between atoms: O_3  and  C_40
    3  A    between atoms: C_4  and  N_22
    4  A    between atoms: C_4  and  N_32
    5  A    between atoms: C_4  and  C_40
    6  A    between atoms: C_10  and  C_18
    7  A    between atoms: C_12  and  C_15
    8  A    between atoms: C_12  and  C_29
    9  A    between atoms: N_21  and  C_39
   10  A    between atoms: N_22  and  C_34
                            x       y       z     vdW  Elec       q    Type
                         _______ _______ _______ _____ _____    ______ ____

>  <TORSDO>
F 10

$$$$
=
 OpenBabel11062414183D

 45 50  0  0  1  0  0  0  0  0999 V2000
  181.7390  178.5190  140.9690 C   0  0  1  0  0  3  0  0  0  0  0  0
  184.0170  178.6960  141.8950 N   0  0  0  0  0  0  0  0  0  0  0  0
  182.5900  178.7990  142.2130 C   0  0  0  0  0  2  0  0  0  0  0  0
  183.6090  177.5940  139.7220 C   0  0  2  0  0  3  0  0  0  0  0  0
  182.2560  177.3520  140.2530 N   0  0  0  0  0  2  0  0  0  0  0  0
  184.4280  178.6410  140.4930 C   0  0  0  0  0  2  0  0  0  0  0  0
  186.0140  177.7990  142.9100 C   0  0  0  0  0  3  0  0  0  0  0  0
  187.0890  177.7690  143.9650 C   0  0  1  0  0  3  0  0  0  0  0  0
  184.4990  178.8460  145.3100 C   0  0  0  0  0  0  0  0  0  0  0  0
  187.5350  178.1570  146.3430 N   0  0  0  0  0  1  0  0  0  0  0  0
  185.2680  177.7190  145.7480 N   0  0  0  0  0  2  0  0  0  0  0  0
  184.8940  179.6230  144.1010 C   0  0  0  0  0  2  0  0  0  0  0  0
  185.0090  178.6810  142.9370 C   0  0  0  0  0  0  0  0  0  0  0  0
  186.6700  177.4450  145.4200 C   0  0  1  0  0  3  0  0  0  0  0  0
  183.4320  179.1390  145.9090 O   0  0  0  0  0  0  0  0  0  0  0  0
  188.2390  177.0690  143.5430 O   0  0  0  0  0  0  0  0  0  0  0  0
  188.2640  177.0520  142.1360 C   0  0  0  0  0  2  0  0  0  0  0  0
  189.6270  177.4870  141.6100 C   0  0  2  0  0  3  0  0  0  0  0  0
  191.7970  176.5030  143.2810 O   0  0  0  0  0  0  0  0  0  0  0  0
  191.9330  178.5810  144.2340 O   0  0  0  0  0  1  0  0  0  0  0  0
  190.3160  178.3230  142.5850 N   0  0  0  0  0  2  0  0  0  0  0  0
  191.3740  177.8220  143.4020 C   0  0  0  0  0  0  0  0  0  0  0  0
  189.4670  178.2160  140.3580 N   0  0  0  0  0  2  0  0  0  0  0  0
  189.5000  177.8020  137.9820 N   0  0  0  0  0  2  0  0  0  0  0  0
  189.9570  177.3750  139.2730 C   0  0  1  0  0  0  0  0  0  0  0  0
  191.3600  176.8010  139.2920 C   0  0  0  0  0  1  0  0  0  0  0  0
  189.0060  176.6660  138.6190 O   0  0  0  0  0  0  0  0  0  0  0  0
  179.4030  177.4980  140.3110 C   0  0  0  0  0  2  0  0  0  0  0  0
  179.8440  178.2520  142.5700 O   0  0  0  0  0  1  0  0  0  0  0  0
  179.1670  179.0050  140.3460 C   0  0  1  0  0  3  0  0  0  0  0  0
  180.2290  178.3640  141.2360 C   0  0  1  0  0  0  0  0  0  0  0  0
  179.7190  179.6250  139.0730 C   0  0  0  0  0  1  0  0  0  0  0  0
  183.5930  177.8690  138.2160 C   0  0  0  0  0  2  0  0  0  0  0  0
  185.7430  177.3020  137.0140 C   0  0  0  0  0  0  0  0  0  0  0  0
  186.0500  175.1450  135.9300 C   0  0  0  0  0  3  0  0  0  0  0  0
  182.4910  173.6680  136.9080 C   0  0  0  0  0  3  0  0  0  0  0  0
  184.7260  172.1280  136.7210 O   0  0  0  0  0  0  0  0  0  0  0  0
  184.4530  176.9200  137.4310 C   0  0  0  0  0  0  0  0  0  0  0  0
  183.9840  175.6390  137.0980 C   0  0  0  0  0  0  0  0  0  0  0  0
  184.7770  174.7820  136.3600 C   0  0  0  0  0  0  0  0  0  0  0  0
  183.7820  173.0220  134.6010 O   0  0  0  0  0  0  0  0  0  0  0  0
  182.6450  175.0830  137.4950 C   0  0  0  0  0  3  0  0  0  0  0  0
  186.5330  176.4150  136.2640 C   0  0  0  0  0  3  0  0  0  0  0  0
  186.2450  178.5180  137.3380 F   0  0  0  0  0  0  0  0  0  0  0  0
  184.0080  173.2710  136.0650 S   0  0  0  0  0  0  0  0  0  0  0  0
  1 31  1  0  0  0  0
  1  3  1  1  0  0  0
  2  3  1  0  0  0  0
  2 13  1  0  0  0  0
  4 33  1  6  0  0  0
  4  5  1  0  0  0  0
  4  6  1  0  0  0  0
  5  1  1  0  0  0  0
  6  2  1  0  0  0  0
  7 13  2  0  0  0  0
  7  8  1  0  0  0  0
  8 16  1  6  0  0  0
  8 14  1  0  0  0  0
  9 11  1  0  0  0  0
  9 15  2  0  0  0  0
 12  9  1  0  0  0  0
 13 12  1  0  0  0  0
 14 11  1  0  0  0  0
 14 10  1  1  0  0  0
 17 16  1  0  0  0  0
 18 17  1  1  0  0  0
 18 21  1  0  0  0  0
 19 22  2  0  0  0  0
 21 22  1  0  0  0  0
 22 20  1  0  0  0  0
 23 18  1  0  0  0  0
 24 27  1  0  0  0  0
 24 25  1  0  0  0  0
 25 26  1  1  0  0  0
 25 23  1  0  0  0  0
 27 25  1  0  0  0  0
 28 30  1  0  0  0  0
 28 31  1  0  0  0  0
 30 32  1  6  0  0  0
 30 31  1  0  0  0  0
 31 29  1  1  0  0  0
 34 44  1  0  0  0  0
 34 38  1  0  0  0  0
 35 43  1  0  0  0  0
 35 40  2  0  0  0  0
 36 42  2  0  0  0  0
 38 33  1  0  0  0  0
 39 38  2  0  0  0  0
 39 42  1  0  0  0  0
 40 39  1  0  0  0  0
 41 45  2  0  0  0  0
 43 34  2  0  0  0  0
 45 40  1  0  0  0  0
 45 37  2  0  0  0  0
 45 36  1  0  0  0  0
M  END
>  <MODEL>
9

>  <REMARK>
 VINA RESULT:      -8.2      3.782      8.131
  Name = 
  10 active torsions:
  status: ('A' for Active; 'I' for Inactive)
    1  A    between atoms: O_3  and  C_11
    2  A    between atoms: O_3  and  C_40
    3  A    between atoms: C_4  and  N_22
    4  A    between atoms: C_4  and  N_32
    5  A    between atoms: C_4  and  C_40
    6  A    between atoms: C_10  and  C_18
    7  A    between atoms: C_12  and  C_15
    8  A    between atoms: C_12  and  C_29
    9  A    between atoms: N_21  and  C_39
   10  A    between atoms: N_22  and  C_34
                            x       y       z     vdW  Elec       q    Type
                         _______ _______ _______ _____ _____    ______ ____

>  <TORSDO>
F 10

$$$$
