=
 OpenBabel11062413593D

 53 62  0  0  1  0  0  0  0  0999 V2000
  187.3460  178.1970  140.1170 C   0  0  0  0  0  0  0  0  0  0  0  0
  188.1150  177.4550  143.9620 O   0  0  0  0  0  0  0  0  0  0  0  0
  187.2980  177.1860  137.9490 C   0  0  2  0  0  3  0  0  0  0  0  0
  188.7950  178.7890  141.9690 C   0  0  1  0  0  3  0  0  0  0  0  0
  185.1090  178.3250  141.9540 C   0  0  0  0  0  2  0  0  0  0  0  0
  188.5970  177.4960  137.1930 C   0  0  1  0  0  3  0  0  0  0  0  0
  186.1020  177.3310  135.6500 C   0  0  0  0  0  2  0  0  0  0  0  0
  188.9380  176.4140  136.2600 N   0  0  0  0  0  0  0  0  0  0  0  0
  186.4460  177.6460  142.2830 C   0  0  1  0  0  3  0  0  0  0  0  0
  188.5740  178.7580  136.5780 O   0  0  0  0  0  1  0  0  0  0  0  0
  184.6440  178.9570  139.8580 C   0  0  1  0  0  3  0  0  0  0  0  0
  186.0280  176.9290  137.1210 C   0  0  2  0  0  3  0  0  0  0  0  0
  184.6000  177.8560  140.7310 O   0  0  0  0  0  0  0  0  0  0  0  0
  189.8510  177.7850  142.3830 C   0  0  0  0  0  2  0  0  0  0  0  0
  187.5720  178.1260  141.3960 C   0  0  0  0  0  0  0  0  0  0  0  0
  186.9230  178.2620  138.8850 C   0  0  0  0  0  0  0  0  0  0  0  0
  188.9980  178.4350  143.4580 C   0  0  2  0  0  3  0  0  0  0  0  0
  186.8080  177.9080  143.7360 C   0  0  0  0  0  2  0  0  0  0  0  0
  185.5110  178.6780  138.6030 C   0  0  1  0  0  3  0  0  0  0  0  0
  186.9240  176.3280  134.8550 C   0  0  0  0  0  2  0  0  0  0  0  0
  188.4050  176.6680  134.9220 C   0  0  0  0  0  2  0  0  0  0  0  0
  184.9210  177.6370  137.7630 N   0  0  0  0  0  2  0  0  0  0  0  0
  183.2620  179.4300  139.5190 C   0  0  0  0  0  0  0  0  0  0  0  0
  181.1700  179.3610  140.8030 C   0  0  0  0  0  3  0  0  0  0  0  0
  180.5380  180.4820  140.4480 C   0  0  0  0  0  0  0  0  0  0  0  0
  182.0730  178.6020  139.8930 C   0  0  0  0  0  2  0  0  0  0  0  0
  181.8430  181.1720  138.4310 C   0  0  0  0  0  3  0  0  0  0  0  0
  183.1290  180.5530  138.8090 C   0  0  0  0  0  3  0  0  0  0  0  0
  180.6830  181.1270  139.1080 C   0  0  0  0  0  0  0  0  0  0  0  0
  179.7020  181.0690  141.3900 O   0  0  0  0  0  1  0  0  0  0  0  0
  179.6040  181.7970  138.5190 O   0  0  0  0  0  0  0  0  0  0  0  0
  179.3820  183.1950  138.6430 C   0  0  0  0  0  2  0  0  0  0  0  0
  181.0300  184.6870  137.3490 C   0  0  0  0  0  2  0  0  0  0  0  0
  179.7530  183.8870  137.3470 C   0  0  0  0  0  0  0  0  0  0  0  0
  179.4670  183.2170  136.0900 N   0  0  0  0  0  1  0  0  0  0  0  0
  179.6760  185.3910  137.3020 C   0  0  0  0  0  2  0  0  0  0  0  0
  190.3890  176.3750  136.1490 C   0  0  0  0  0  2  0  0  0  0  0  0
  195.4830  174.8840  134.6880 C   0  0  0  0  0  1  0  0  0  0  0  0
  190.4400  173.8920  135.5320 C   0  0  2  0  0  3  0  0  0  0  0  0
  192.4560  175.0310  136.6680 C   0  0  0  0  0  0  0  0  0  0  0  0
  189.6880  173.2610  136.6960 C   0  0  0  0  0  2  0  0  0  0  0  0
  195.3110  175.0920  137.1690 C   0  0  2  0  0  3  0  0  0  0  0  0
  192.6260  173.7400  134.5940 C   0  0  0  0  0  2  0  0  0  0  0  0
  194.3100  175.0880  138.3190 C   0  0  0  0  0  2  0  0  0  0  0  0
  193.2650  174.4660  135.7420 C   0  0  0  0  0  0  0  0  0  0  0  0
  191.4930  172.9680  135.0930 N   0  0  0  0  0  2  0  0  0  0  0  0
  190.2380  174.3160  137.6490 C   0  0  0  0  0  2  0  0  0  0  0  0
  193.0300  175.7590  137.8540 C   0  0  0  0  0  2  0  0  0  0  0  0
  194.7690  174.3660  135.9260 C   0  0  1  0  0  3  0  0  0  0  0  0
  190.9520  174.9890  136.4880 C   0  0  1  0  0  0  0  0  0  0  0  0
  197.8280  175.1580  137.3310 N   0  0  0  0  0  1  0  0  0  0  0  0
  196.6230  173.3810  138.2140 O   0  0  0  0  0  0  0  0  0  0  0  0
  196.6050  174.4880  137.6110 C   0  0  0  0  0  0  0  0  0  0  0  0
  1 15  2  0  0  0  0
  3 16  1  1  0  0  0
  4 14  1  6  0  0  0
  4 17  1  0  0  0  0
  6 10  1  6  0  0  0
  6  3  1  0  0  0  0
  8  6  1  0  0  0  0
  9  5  1  6  0  0  0
  9 18  1  0  0  0  0
 11 23  1  6  0  0  0
 11 13  1  0  0  0  0
 12  7  1  6  0  0  0
 12 22  1  0  0  0  0
 12  3  1  0  0  0  0
 13  5  1  0  0  0  0
 15  4  1  0  0  0  0
 15  9  1  0  0  0  0
 16  1  2  0  0  0  0
 17 14  1  6  0  0  0
 17  2  1  0  0  0  0
 18  2  1  0  0  0  0
 19 22  1  1  0  0  0
 19 16  1  0  0  0  0
 19 11  1  0  0  0  0
 20 21  1  0  0  0  0
 20  7  1  0  0  0  0
 21  8  1  0  0  0  0
 23 26  1  0  0  0  0
 25 24  2  0  0  0  0
 25 30  1  0  0  0  0
 26 24  1  0  0  0  0
 27 28  1  0  0  0  0
 27 29  2  0  0  0  0
 28 23  2  0  0  0  0
 29 25  1  0  0  0  0
 31 32  1  0  0  0  0
 31 29  1  0  0  0  0
 34 33  1  0  0  0  0
 34 32  1  0  0  0  0
 35 34  1  0  0  0  0
 36 34  1  0  0  0  0
 36 33  1  0  0  0  0
 37  8  1  0  0  0  0
 39 50  1  0  0  0  0
 39 41  1  1  0  0  0
 40 48  1  0  0  0  0
 41 47  1  0  0  0  0
 42 53  1  1  0  0  0
 42 44  1  0  0  0  0
 43 46  1  0  0  0  0
 43 45  1  0  0  0  0
 45 49  1  0  0  0  0
 45 40  2  0  0  0  0
 46 39  1  0  0  0  0
 48 44  1  0  0  0  0
 49 38  1  6  0  0  0
 49 42  1  0  0  0  0
 50 37  1  6  0  0  0
 50 40  1  0  0  0  0
 50 47  1  0  0  0  0
 51 53  1  0  0  0  0
 53 52  2  0  0  0  0
M  END
>  <MODEL>
1

>  <REMARK>
 VINA RESULT:      -7.9      0.000      0.000
  Name = 
  7 active torsions:
  status: ('A' for Active; 'I' for Inactive)
    1  A    between atoms: N_10  and  C_46
    2  A    between atoms: C_12  and  C_16
    3  A    between atoms: C_19  and  C_40
    4  A    between atoms: O_20  and  C_28
    5  A    between atoms: O_20  and  C_42
    6  A    between atoms: C_28  and  C_32
    7  A    between atoms: C_46  and  C_53
                            x       y       z     vdW  Elec       q    Type
                         _______ _______ _______ _____ _____    ______ ____

>  <TORSDO>
F 7

$$$$
=
 OpenBabel11062413593D

 53 62  0  0  1  0  0  0  0  0999 V2000
  187.7390  176.3090  137.5290 C   0  0  0  0  0  0  0  0  0  0  0  0
  185.1350  174.0770  135.4880 O   0  0  0  0  0  0  0  0  0  0  0  0
  188.4090  176.9160  139.7440 C   0  0  2  0  0  3  0  0  0  0  0  0
  185.9070  176.4030  135.9430 C   0  0  1  0  0  3  0  0  0  0  0  0
  188.8180  174.0950  136.0020 C   0  0  0  0  0  2  0  0  0  0  0  0
  187.7720  178.2560  140.1390 C   0  0  1  0  0  3  0  0  0  0  0  0
  190.4760  177.6640  141.1230 C   0  0  0  0  0  2  0  0  0  0  0  0
  187.5440  178.3270  141.5880 N   0  0  0  0  0  0  0  0  0  0  0  0
  187.3340  174.2350  136.3710 C   0  0  1  0  0  3  0  0  0  0  0  0
  188.4880  179.3590  139.6460 O   0  0  0  0  0  1  0  0  0  0  0  0
  190.3510  175.4240  136.9460 C   0  0  1  0  0  3  0  0  0  0  0  0
  189.7470  176.5350  140.3990 C   0  0  2  0  0  3  0  0  0  0  0  0
  189.6300  174.2330  137.1410 O   0  0  0  0  0  0  0  0  0  0  0  0
  184.5110  176.1430  136.4670 C   0  0  0  0  0  2  0  0  0  0  0  0
  186.9560  175.6570  136.7210 C   0  0  0  0  0  0  0  0  0  0  0  0
  188.6620  176.8220  138.2940 C   0  0  0  0  0  0  0  0  0  0  0  0
  184.9550  175.4470  135.1920 C   0  0  2  0  0  3  0  0  0  0  0  0
  186.4730  173.7590  135.2120 C   0  0  0  0  0  2  0  0  0  0  0  0
  190.0990  176.4550  138.0760 C   0  0  1  0  0  3  0  0  0  0  0  0
  189.8140  177.9690  142.4580 C   0  0  0  0  0  2  0  0  0  0  0  0
  188.6690  178.9550  142.2810 C   0  0  0  0  0  2  0  0  0  0  0  0
  190.6150  175.9830  139.3600 N   0  0  0  0  0  2  0  0  0  0  0  0
  191.8070  175.1410  136.7290 C   0  0  0  0  0  0  0  0  0  0  0  0
  193.8050  175.9740  137.8870 C   0  0  0  0  0  3  0  0  0  0  0  0
  194.6470  174.9390  137.8630 C   0  0  0  0  0  0  0  0  0  0  0  0
  192.8080  176.2500  136.8150 C   0  0  0  0  0  2  0  0  0  0  0  0
  193.5620  173.4560  136.1690 C   0  0  0  0  0  3  0  0  0  0  0  0
  192.1710  173.9050  136.3780 C   0  0  0  0  0  3  0  0  0  0  0  0
  194.6690  173.9140  136.7750 C   0  0  0  0  0  0  0  0  0  0  0  0
  195.5450  174.8210  138.9160 O   0  0  0  0  0  1  0  0  0  0  0  0
  195.8740  173.3160  136.3850 O   0  0  0  0  0  0  0  0  0  0  0  0
  196.7080  173.8240  135.3550 C   0  0  0  0  0  2  0  0  0  0  0  0
  199.1720  174.4900  135.6800 C   0  0  0  0  0  2  0  0  0  0  0  0
  197.7190  174.7880  135.9450 C   0  0  0  0  0  0  0  0  0  0  0  0
  197.3940  176.2030  135.9840 N   0  0  0  0  0  1  0  0  0  0  0  0
  198.5850  174.2990  137.0760 C   0  0  0  0  0  2  0  0  0  0  0  0
  186.3760  179.1690  141.8050 C   0  0  0  0  0  2  0  0  0  0  0  0
  181.0040  180.0400  140.9740 C   0  0  0  0  0  1  0  0  0  0  0  0
  185.1150  179.0970  144.0310 C   0  0  2  0  0  3  0  0  0  0  0  0
  184.0290  178.2540  141.8490 C   0  0  0  0  0  0  0  0  0  0  0  0
  185.6650  177.8290  144.6660 C   0  0  0  0  0  2  0  0  0  0  0  0
  181.6230  177.7110  140.3250 C   0  0  2  0  0  3  0  0  0  0  0  0
  182.9830  179.9020  143.3290 C   0  0  0  0  0  2  0  0  0  0  0  0
  182.6730  176.6290  140.5490 C   0  0  0  0  0  2  0  0  0  0  0  0
  182.9230  178.9740  142.1500 C   0  0  0  0  0  0  0  0  0  0  0  0
  183.7050  179.2450  144.4140 N   0  0  0  0  0  2  0  0  0  0  0  0
  185.8030  177.1780  143.2940 C   0  0  0  0  0  2  0  0  0  0  0  0
  184.0320  177.2920  140.6910 C   0  0  0  0  0  2  0  0  0  0  0  0
  181.5840  178.7290  141.4790 C   0  0  1  0  0  3  0  0  0  0  0  0
  185.3050  178.4570  142.6410 C   0  0  1  0  0  0  0  0  0  0  0  0
  179.4450  176.8350  141.2490 N   0  0  0  0  0  1  0  0  0  0  0  0
  179.8840  176.7730  138.9700 O   0  0  0  0  0  0  0  0  0  0  0  0
  180.2780  177.0890  140.1250 C   0  0  0  0  0  0  0  0  0  0  0  0
  1 16  2  0  0  0  0
  3 16  1  6  0  0  0
  3  6  1  0  0  0  0
  3 12  1  0  0  0  0
  4 14  1  1  0  0  0
  4 15  1  0  0  0  0
  5  9  1  0  0  0  0
  5 13  1  0  0  0  0
  6 10  1  1  0  0  0
  6  8  1  0  0  0  0
  7 20  1  0  0  0  0
  8 37  1  0  0  0  0
  8 21  1  0  0  0  0
  9 18  1  6  0  0  0
  9 15  1  0  0  0  0
 11 23  1  1  0  0  0
 11 13  1  0  0  0  0
 11 19  1  0  0  0  0
 12  7  1  6  0  0  0
 15  1  2  0  0  0  0
 17  2  1  0  0  0  0
 17  4  1  0  0  0  0
 17 14  1  1  0  0  0
 18  2  1  0  0  0  0
 19 16  1  1  0  0  0
 19 22  1  0  0  0  0
 21 20  1  0  0  0  0
 22 12  1  0  0  0  0
 23 26  1  0  0  0  0
 25 24  2  0  0  0  0
 25 30  1  0  0  0  0
 26 24  1  0  0  0  0
 27 28  1  0  0  0  0
 27 29  2  0  0  0  0
 28 23  2  0  0  0  0
 29 25  1  0  0  0  0
 31 29  1  0  0  0  0
 32 34  1  0  0  0  0
 32 31  1  0  0  0  0
 33 34  1  0  0  0  0
 33 36  1  0  0  0  0
 34 35  1  0  0  0  0
 34 36  1  0  0  0  0
 39 46  1  0  0  0  0
 39 41  1  1  0  0  0
 40 45  2  0  0  0  0
 40 50  1  0  0  0  0
 42 53  1  1  0  0  0
 42 44  1  0  0  0  0
 42 49  1  0  0  0  0
 43 46  1  0  0  0  0
 44 48  1  0  0  0  0
 45 43  1  0  0  0  0
 47 41  1  0  0  0  0
 48 40  1  0  0  0  0
 49 38  1  6  0  0  0
 49 45  1  0  0  0  0
 50 37  1  6  0  0  0
 50 47  1  0  0  0  0
 50 39  1  0  0  0  0
 52 53  2  0  0  0  0
 53 51  1  0  0  0  0
M  END
>  <MODEL>
2

>  <REMARK>
 VINA RESULT:      -7.1      2.928     12.213
  Name = 
  7 active torsions:
  status: ('A' for Active; 'I' for Inactive)
    1  A    between atoms: N_10  and  C_46
    2  A    between atoms: C_12  and  C_16
    3  A    between atoms: C_19  and  C_40
    4  A    between atoms: O_20  and  C_28
    5  A    between atoms: O_20  and  C_42
    6  A    between atoms: C_28  and  C_32
    7  A    between atoms: C_46  and  C_53
                            x       y       z     vdW  Elec       q    Type
                         _______ _______ _______ _____ _____    ______ ____

>  <TORSDO>
F 7

$$$$
=
 OpenBabel11062413593D

 53 62  0  0  1  0  0  0  0  0999 V2000
  182.3120  178.1960  141.4490 C   0  0  0  0  0  0  0  0  0  0  0  0
  179.3660  179.8230  143.5940 O   0  0  0  0  0  0  0  0  0  0  0  0
  183.5690  178.4500  139.4300 C   0  0  2  0  0  3  0  0  0  0  0  0
  180.0910  177.7970  142.3360 C   0  0  1  0  0  3  0  0  0  0  0  0
  183.0270  179.3300  144.0190 C   0  0  0  0  0  2  0  0  0  0  0  0
  182.9960  177.5410  138.3340 C   0  0  1  0  0  3  0  0  0  0  0  0
  185.9010  177.9700  138.3970 C   0  0  0  0  0  2  0  0  0  0  0  0
  183.2030  178.1230  137.0010 N   0  0  0  0  0  0  0  0  0  0  0  0
  181.7140  179.6370  143.2860 C   0  0  1  0  0  3  0  0  0  0  0  0
  183.4620  176.2210  138.4300 O   0  0  0  0  0  1  0  0  0  0  0  0
  184.6840  178.2520  142.9710 C   0  0  1  0  0  3  0  0  0  0  0  0
  185.0620  178.8110  139.3560 C   0  0  2  0  0  3  0  0  0  0  0  0
  184.1300  179.5280  143.1700 O   0  0  0  0  0  0  0  0  0  0  0  0
  178.9320  178.5090  141.6710 C   0  0  0  0  0  2  0  0  0  0  0  0
  181.3680  178.5880  142.2530 C   0  0  0  0  0  0  0  0  0  0  0  0
  183.3860  177.8840  140.7800 C   0  0  0  0  0  0  0  0  0  0  0  0
  179.0220  178.5150  143.1870 C   0  0  2  0  0  3  0  0  0  0  0  0
  180.5790  179.7420  144.2930 C   0  0  0  0  0  2  0  0  0  0  0  0
  184.7150  177.8510  141.4740 C   0  0  1  0  0  3  0  0  0  0  0  0
  185.6470  178.3770  136.9540 C   0  0  0  0  0  2  0  0  0  0  0  0
  184.4410  177.6420  136.3890 C   0  0  0  0  0  2  0  0  0  0  0  0
  185.6170  178.7080  140.7050 N   0  0  0  0  0  2  0  0  0  0  0  0
  186.0260  178.1410  143.6320 C   0  0  0  0  0  0  0  0  0  0  0  0
  186.7260  178.5540  145.9480 C   0  0  0  0  0  3  0  0  0  0  0  0
  187.6820  177.6470  146.1620 C   0  0  0  0  0  0  0  0  0  0  0  0
  186.4640  179.1760  144.6200 C   0  0  0  0  0  2  0  0  0  0  0  0
  188.1730  176.8840  143.8350 C   0  0  0  0  0  3  0  0  0  0  0  0
  186.8430  177.1540  143.2550 C   0  0  0  0  0  3  0  0  0  0  0  0
  188.5820  177.1230  145.0910 C   0  0  0  0  0  0  0  0  0  0  0  0
  187.8340  177.1740  147.4600 O   0  0  0  0  0  1  0  0  0  0  0  0
  189.9080  176.7770  145.3810 O   0  0  0  0  0  0  0  0  0  0  0  0
  190.8700  176.4460  144.3910 C   0  0  0  0  0  2  0  0  0  0  0  0
  190.5260  177.8890  142.2890 C   0  0  0  0  0  2  0  0  0  0  0  0
  191.2380  177.6870  143.6020 C   0  0  0  0  0  0  0  0  0  0  0  0
  191.5240  178.9150  144.3240 N   0  0  0  0  0  1  0  0  0  0  0  0
  192.0040  177.5070  142.3170 C   0  0  0  0  0  2  0  0  0  0  0  0
  182.1010  177.6830  136.1570 C   0  0  0  0  0  2  0  0  0  0  0  0
  181.9650  182.8740  137.9860 C   0  0  0  0  0  1  0  0  0  0  0  0
  180.2680  177.9500  137.9230 C   0  0  2  0  0  3  0  0  0  0  0  0
  180.8550  179.8680  136.3020 C   0  0  0  0  0  0  0  0  0  0  0  0
  179.0820  177.2710  137.2530 C   0  0  0  0  0  2  0  0  0  0  0  0
  180.8970  182.7110  135.7360 C   0  0  2  0  0  3  0  0  0  0  0  0
  180.7860  180.1310  138.7360 C   0  0  0  0  0  2  0  0  0  0  0  0
  180.2380  181.7270  134.7760 C   0  0  0  0  0  2  0  0  0  0  0  0
  180.8960  180.7140  137.3570 C   0  0  0  0  0  0  0  0  0  0  0  0
  179.7770  179.0760  138.7260 N   0  0  0  0  0  2  0  0  0  0  0  0
  179.5650  177.7340  135.8840 C   0  0  0  0  0  2  0  0  0  0  0  0
  180.9420  180.3870  134.8910 C   0  0  0  0  0  2  0  0  0  0  0  0
  180.8420  182.2230  137.1940 C   0  0  1  0  0  3  0  0  0  0  0  0
  180.7830  178.3720  136.5320 C   0  0  1  0  0  0  0  0  0  0  0  0
  179.0210  184.3180  136.2500 N   0  0  0  0  0  1  0  0  0  0  0  0
  180.8120  184.9620  134.9190 O   0  0  0  0  0  0  0  0  0  0  0  0
  180.2630  184.0590  135.6070 C   0  0  0  0  0  0  0  0  0  0  0  0
  1 15  2  0  0  0  0
  2 18  1  0  0  0  0
  3 16  1  1  0  0  0
  4 14  1  6  0  0  0
  4 17  1  0  0  0  0
  6 10  1  6  0  0  0
  6  3  1  0  0  0  0
  8  6  1  0  0  0  0
  9  5  1  1  0  0  0
  9 18  1  0  0  0  0
 11 13  1  0  0  0  0
 11 23  1  6  0  0  0
 12  7  1  6  0  0  0
 12  3  1  0  0  0  0
 12 22  1  0  0  0  0
 13  5  1  0  0  0  0
 15  4  1  0  0  0  0
 15  9  1  0  0  0  0
 16  1  2  0  0  0  0
 16 19  1  0  0  0  0
 17 14  1  6  0  0  0
 17  2  1  0  0  0  0
 19 22  1  6  0  0  0
 19 11  1  0  0  0  0
 20  7  1  0  0  0  0
 21 20  1  0  0  0  0
 21  8  1  0  0  0  0
 23 26  1  0  0  0  0
 24 25  2  0  0  0  0
 25 30  1  0  0  0  0
 26 24  1  0  0  0  0
 27 29  2  0  0  0  0
 28 23  2  0  0  0  0
 28 27  1  0  0  0  0
 29 31  1  0  0  0  0
 29 25  1  0  0  0  0
 32 31  1  0  0  0  0
 33 36  1  0  0  0  0
 33 34  1  0  0  0  0
 34 35  1  0  0  0  0
 34 32  1  0  0  0  0
 36 34  1  0  0  0  0
 37  8  1  0  0  0  0
 39 41  1  6  0  0  0
 39 46  1  0  0  0  0
 40 50  1  0  0  0  0
 40 45  2  0  0  0  0
 42 53  1  1  0  0  0
 42 49  1  0  0  0  0
 44 48  1  0  0  0  0
 44 42  1  0  0  0  0
 45 43  1  0  0  0  0
 46 43  1  0  0  0  0
 47 50  1  0  0  0  0
 47 41  1  0  0  0  0
 48 40  1  0  0  0  0
 49 45  1  0  0  0  0
 49 38  1  1  0  0  0
 50 37  1  6  0  0  0
 50 39  1  0  0  0  0
 52 53  2  0  0  0  0
 53 51  1  0  0  0  0
M  END
>  <MODEL>
3

>  <REMARK>
 VINA RESULT:      -6.8      4.686     10.885
  Name = 
  7 active torsions:
  status: ('A' for Active; 'I' for Inactive)
    1  A    between atoms: N_10  and  C_46
    2  A    between atoms: C_12  and  C_16
    3  A    between atoms: C_19  and  C_40
    4  A    between atoms: O_20  and  C_28
    5  A    between atoms: O_20  and  C_42
    6  A    between atoms: C_28  and  C_32
    7  A    between atoms: C_46  and  C_53
                            x       y       z     vdW  Elec       q    Type
                         _______ _______ _______ _____ _____    ______ ____

>  <TORSDO>
F 7

$$$$
=
 OpenBabel11062413593D

 53 62  0  0  1  0  0  0  0  0999 V2000
  188.8590  177.9370  140.5420 C   0  0  0  0  0  0  0  0  0  0  0  0
  190.0730  177.2240  144.2760 O   0  0  0  0  0  0  0  0  0  0  0  0
  188.6120  176.9250  138.3880 C   0  0  2  0  0  3  0  0  0  0  0  0
  190.4770  178.5850  142.2270 C   0  0  1  0  0  3  0  0  0  0  0  0
  186.8330  177.9750  142.6140 C   0  0  0  0  0  2  0  0  0  0  0  0
  189.8080  177.2870  137.4960 C   0  0  1  0  0  3  0  0  0  0  0  0
  187.1670  177.0230  136.2350 C   0  0  0  0  0  2  0  0  0  0  0  0
  190.0870  176.2190  136.5260 N   0  0  0  0  0  0  0  0  0  0  0  0
  188.2240  177.3500  142.7910 C   0  0  1  0  0  3  0  0  0  0  0  0
  189.6680  178.5470  136.8930 O   0  0  0  0  0  1  0  0  0  0  0  0
  186.1170  178.5890  140.5850 C   0  0  1  0  0  3  0  0  0  0  0  0
  187.2700  176.6180  137.7030 C   0  0  2  0  0  3  0  0  0  0  0  0
  186.2110  177.4870  141.4520 O   0  0  0  0  0  0  0  0  0  0  0  0
  191.6110  177.6230  142.5180 C   0  0  0  0  0  2  0  0  0  0  0  0
  189.2260  177.8740  141.7880 C   0  0  0  0  0  0  0  0  0  0  0  0
  188.3010  177.9850  139.3650 C   0  0  0  0  0  0  0  0  0  0  0  0
  190.8570  178.2390  143.6830 C   0  0  2  0  0  3  0  0  0  0  0  0
  188.7320  177.6260  144.1980 C   0  0  0  0  0  2  0  0  0  0  0  0
  186.8510  178.3450  139.2410 C   0  0  1  0  0  3  0  0  0  0  0  0
  187.9360  176.0540  135.3490 C   0  0  0  0  0  2  0  0  0  0  0  0
  189.4010  176.4520  135.2550 C   0  0  0  0  0  2  0  0  0  0  0  0
  186.2140  177.2820  138.4660 N   0  0  0  0  0  2  0  0  0  0  0  0
  184.6880  179.0070  140.4020 C   0  0  0  0  0  0  0  0  0  0  0  0
  183.2540  179.0300  138.4090 C   0  0  0  0  0  3  0  0  0  0  0  0
  182.0410  178.7380  138.8820 C   0  0  0  0  0  0  0  0  0  0  0  0
  184.2820  179.7790  139.1850 C   0  0  0  0  0  2  0  0  0  0  0  0
  182.3750  179.0580  141.3380 C   0  0  0  0  0  3  0  0  0  0  0  0
  183.8180  178.7500  141.3810 C   0  0  0  0  0  3  0  0  0  0  0  0
  181.5790  179.0970  140.2570 C   0  0  0  0  0  0  0  0  0  0  0  0
  181.1720  178.0600  138.0360 O   0  0  0  0  0  1  0  0  0  0  0  0
  180.2380  179.4260  140.4940 O   0  0  0  0  0  0  0  0  0  0  0  0
  179.7430  180.7570  140.5040 C   0  0  0  0  0  2  0  0  0  0  0  0
  180.6390  182.1130  138.5100 C   0  0  0  0  0  2  0  0  0  0  0  0
  179.5510  181.2400  139.0800 C   0  0  0  0  0  0  0  0  0  0  0  0
  178.9310  180.3480  138.1170 N   0  0  0  0  0  1  0  0  0  0  0  0
  179.2770  182.7060  138.8630 C   0  0  0  0  0  2  0  0  0  0  0  0
  191.5170  176.2380  136.2570 C   0  0  0  0  0  2  0  0  0  0  0  0
  196.8850  175.3790  135.3900 C   0  0  0  0  0  1  0  0  0  0  0  0
  191.8820  173.9510  135.1670 C   0  0  2  0  0  3  0  0  0  0  0  0
  193.5940  174.9310  136.8280 C   0  0  0  0  0  0  0  0  0  0  0  0
  191.0230  173.0450  136.0380 C   0  0  0  0  0  2  0  0  0  0  0  0
  196.3240  175.0430  137.7980 C   0  0  2  0  0  3  0  0  0  0  0  0
  194.1890  174.1250  134.5940 C   0  0  0  0  0  2  0  0  0  0  0  0
  195.1660  174.7370  138.7410 C   0  0  0  0  0  2  0  0  0  0  0  0
  194.5810  174.6230  135.9540 C   0  0  0  0  0  0  0  0  0  0  0  0
  193.0670  173.2020  134.7310 N   0  0  0  0  0  2  0  0  0  0  0  0
  191.3260  173.9010  137.2620 C   0  0  0  0  0  2  0  0  0  0  0  0
  193.9160  175.4200  138.2150 C   0  0  0  0  0  2  0  0  0  0  0  0
  196.0420  174.5700  136.3620 C   0  0  1  0  0  3  0  0  0  0  0  0
  192.1440  174.8450  136.3960 C   0  0  1  0  0  0  0  0  0  0  0  0
  198.4700  175.2090  139.1160 N   0  0  0  0  0  1  0  0  0  0  0  0
  197.8810  173.2370  138.0400 O   0  0  0  0  0  0  0  0  0  0  0  0
  197.5860  174.4310  138.3170 C   0  0  0  0  0  0  0  0  0  0  0  0
  1 15  2  0  0  0  0
  3 16  1  1  0  0  0
  4 14  1  6  0  0  0
  4 17  1  0  0  0  0
  6 10  1  6  0  0  0
  6  3  1  0  0  0  0
  8  6  1  0  0  0  0
  9  5  1  6  0  0  0
  9 18  1  0  0  0  0
 11 23  1  6  0  0  0
 11 13  1  0  0  0  0
 12  7  1  6  0  0  0
 12  3  1  0  0  0  0
 12 22  1  0  0  0  0
 13  5  1  0  0  0  0
 15  4  1  0  0  0  0
 15  9  1  0  0  0  0
 16  1  2  0  0  0  0
 17 14  1  6  0  0  0
 17  2  1  0  0  0  0
 18  2  1  0  0  0  0
 19 22  1  1  0  0  0
 19 16  1  0  0  0  0
 19 11  1  0  0  0  0
 20  7  1  0  0  0  0
 21 20  1  0  0  0  0
 21  8  1  0  0  0  0
 23 28  2  0  0  0  0
 24 25  2  0  0  0  0
 24 26  1  0  0  0  0
 25 29  1  0  0  0  0
 26 23  1  0  0  0  0
 27 28  1  0  0  0  0
 29 31  1  0  0  0  0
 29 27  2  0  0  0  0
 30 25  1  0  0  0  0
 31 32  1  0  0  0  0
 33 36  1  0  0  0  0
 33 34  1  0  0  0  0
 34 32  1  0  0  0  0
 35 34  1  0  0  0  0
 36 34  1  0  0  0  0
 37  8  1  0  0  0  0
 39 41  1  1  0  0  0
 39 50  1  0  0  0  0
 40 48  1  0  0  0  0
 41 47  1  0  0  0  0
 42 53  1  1  0  0  0
 42 44  1  0  0  0  0
 43 46  1  0  0  0  0
 43 45  1  0  0  0  0
 45 49  1  0  0  0  0
 45 40  2  0  0  0  0
 46 39  1  0  0  0  0
 48 44  1  0  0  0  0
 49 38  1  6  0  0  0
 49 42  1  0  0  0  0
 50 37  1  6  0  0  0
 50 40  1  0  0  0  0
 50 47  1  0  0  0  0
 52 53  2  0  0  0  0
 53 51  1  0  0  0  0
M  END
>  <MODEL>
4

>  <REMARK>
 VINA RESULT:      -6.8      1.466      2.071
  Name = 
  7 active torsions:
  status: ('A' for Active; 'I' for Inactive)
    1  A    between atoms: N_10  and  C_46
    2  A    between atoms: C_12  and  C_16
    3  A    between atoms: C_19  and  C_40
    4  A    between atoms: O_20  and  C_28
    5  A    between atoms: O_20  and  C_42
    6  A    between atoms: C_28  and  C_32
    7  A    between atoms: C_46  and  C_53
                            x       y       z     vdW  Elec       q    Type
                         _______ _______ _______ _____ _____    ______ ____

>  <TORSDO>
F 7

$$$$
=
 OpenBabel11062413593D

 53 62  0  0  1  0  0  0  0  0999 V2000
  186.0460  178.3070  137.9680 C   0  0  0  0  0  0  0  0  0  0  0  0
  188.0130  176.4680  135.0230 O   0  0  0  0  0  0  0  0  0  0  0  0
  184.0450  178.2140  139.2770 C   0  0  2  0  0  3  0  0  0  0  0  0
  186.9020  178.5880  135.7180 C   0  0  1  0  0  3  0  0  0  0  0  0
  188.5550  177.0320  138.6580 C   0  0  0  0  0  2  0  0  0  0  0  0
  182.9940  179.1750  138.7020 C   0  0  1  0  0  3  0  0  0  0  0  0
  183.1010  178.8220  141.6170 C   0  0  0  0  0  2  0  0  0  0  0  0
  181.6330  178.6840  138.9560 N   0  0  0  0  0  0  0  0  0  0  0  0
  187.7730  176.7370  137.3700 C   0  0  1  0  0  3  0  0  0  0  0  0
  183.1840  180.4990  139.1290 O   0  0  0  0  0  1  0  0  0  0  0  0
  187.6180  178.2190  140.3070 C   0  0  1  0  0  3  0  0  0  0  0  0
  183.9850  177.9000  140.7810 C   0  0  2  0  0  3  0  0  0  0  0  0
  187.7230  176.9190  139.7840 O   0  0  0  0  0  0  0  0  0  0  0  0
  186.1650  177.8890  134.5940 C   0  0  0  0  0  2  0  0  0  0  0  0
  186.8000  177.8390  137.0180 C   0  0  0  0  0  0  0  0  0  0  0  0
  185.4230  178.6890  139.0480 C   0  0  0  0  0  0  0  0  0  0  0  0
  187.6800  177.7890  134.6500 C   0  0  2  0  0  3  0  0  0  0  0  0
  188.7440  176.5380  136.2170 C   0  0  0  0  0  2  0  0  0  0  0  0
  186.1490  178.7140  140.3590 C   0  0  1  0  0  3  0  0  0  0  0  0
  181.6290  178.5000  141.4060 C   0  0  0  0  0  2  0  0  0  0  0  0
  181.0820  179.2370  140.1930 C   0  0  0  0  0  2  0  0  0  0  0  0
  185.3510  177.9330  141.3020 N   0  0  0  0  0  2  0  0  0  0  0  0
  188.3160  178.3250  141.6300 C   0  0  0  0  0  0  0  0  0  0  0  0
  187.4680  178.1240  143.9250 C   0  0  0  0  0  3  0  0  0  0  0  0
  188.4750  177.5550  144.5910 C   0  0  0  0  0  0  0  0  0  0  0  0
  187.6620  179.0430  142.7680 C   0  0  0  0  0  2  0  0  0  0  0  0
  190.3600  177.8310  142.9750 C   0  0  0  0  0  3  0  0  0  0  0  0
  189.5560  177.8420  141.7360 C   0  0  0  0  0  3  0  0  0  0  0  0
  189.9150  177.7440  144.2380 C   0  0  0  0  0  0  0  0  0  0  0  0
  188.1480  176.7430  145.6700 O   0  0  0  0  0  1  0  0  0  0  0  0
  190.8960  177.7630  145.2370 O   0  0  0  0  0  0  0  0  0  0  0  0
  191.6820  176.6340  145.5910 C   0  0  0  0  0  2  0  0  0  0  0  0
  192.7780  175.6980  147.7210 C   0  0  0  0  0  2  0  0  0  0  0  0
  191.6110  176.4120  147.0890 C   0  0  0  0  0  0  0  0  0  0  0  0
  191.0160  177.4420  147.9210 N   0  0  0  0  0  1  0  0  0  0  0  0
  191.4250  175.0010  147.5850 C   0  0  0  0  0  2  0  0  0  0  0  0
  180.7920  179.1460  137.8610 C   0  0  0  0  0  2  0  0  0  0  0  0
  183.6680  174.4550  138.0020 C   0  0  0  0  0  1  0  0  0  0  0  0
  181.8330  178.6790  135.5700 C   0  0  2  0  0  3  0  0  0  0  0  0
  181.0290  176.7590  137.0930 C   0  0  0  0  0  0  0  0  0  0  0  0
  180.6540  178.9060  134.6350 C   0  0  0  0  0  2  0  0  0  0  0  0
  181.2220  173.9770  137.8870 C   0  0  2  0  0  3  0  0  0  0  0  0
  183.2780  176.8680  136.1300 C   0  0  0  0  0  2  0  0  0  0  0  0
  179.8850  174.5890  137.4820 C   0  0  0  0  0  2  0  0  0  0  0  0
  182.2060  176.1280  136.8770 C   0  0  0  0  0  0  0  0  0  0  0  0
  182.6670  177.6010  135.0260 N   0  0  0  0  0  2  0  0  0  0  0  0
  179.6890  178.3820  135.6910 C   0  0  0  0  0  2  0  0  0  0  0  0
  179.9050  176.0690  137.8190 C   0  0  0  0  0  2  0  0  0  0  0  0
  182.4070  174.6530  137.1770 C   0  0  1  0  0  3  0  0  0  0  0  0
  180.8490  178.1990  136.6560 C   0  0  1  0  0  0  0  0  0  0  0  0
  182.4170  171.8580  137.2190 N   0  0  0  0  0  1  0  0  0  0  0  0
  180.1520  171.8380  137.7300 O   0  0  0  0  0  0  0  0  0  0  0  0
  181.2160  172.5060  137.6190 C   0  0  0  0  0  0  0  0  0  0  0  0
  1 16  2  0  0  0  0
  2 18  1  0  0  0  0
  3 16  1  1  0  0  0
  3 12  1  0  0  0  0
  4 14  1  6  0  0  0
  4 15  1  0  0  0  0
  5 13  1  0  0  0  0
  6  8  1  0  0  0  0
  6 10  1  1  0  0  0
  6  3  1  0  0  0  0
  8 21  1  0  0  0  0
  9 18  1  6  0  0  0
  9  5  1  0  0  0  0
 11 19  1  0  0  0  0
 11 23  1  1  0  0  0
 12 22  1  0  0  0  0
 12  7  1  1  0  0  0
 13 11  1  0  0  0  0
 15  9  1  0  0  0  0
 15  1  2  0  0  0  0
 17 14  1  6  0  0  0
 17  2  1  0  0  0  0
 17  4  1  0  0  0  0
 19 16  1  6  0  0  0
 19 22  1  0  0  0  0
 20  7  1  0  0  0  0
 21 20  1  0  0  0  0
 23 28  2  0  0  0  0
 23 26  1  0  0  0  0
 24 25  2  0  0  0  0
 25 30  1  0  0  0  0
 26 24  1  0  0  0  0
 27 29  2  0  0  0  0
 28 27  1  0  0  0  0
 29 25  1  0  0  0  0
 29 31  1  0  0  0  0
 31 32  1  0  0  0  0
 32 34  1  0  0  0  0
 34 36  1  0  0  0  0
 34 33  1  0  0  0  0
 34 35  1  0  0  0  0
 36 33  1  0  0  0  0
 37  8  1  0  0  0  0
 39 41  1  6  0  0  0
 39 50  1  0  0  0  0
 40 48  1  0  0  0  0
 41 47  1  0  0  0  0
 42 53  1  6  0  0  0
 43 45  1  0  0  0  0
 44 48  1  0  0  0  0
 44 42  1  0  0  0  0
 45 40  2  0  0  0  0
 45 49  1  0  0  0  0
 46 39  1  0  0  0  0
 46 43  1  0  0  0  0
 47 50  1  0  0  0  0
 49 42  1  0  0  0  0
 49 38  1  1  0  0  0
 50 40  1  0  0  0  0
 50 37  1  1  0  0  0
 51 53  1  0  0  0  0
 53 52  2  0  0  0  0
M  END
>  <MODEL>
5

>  <REMARK>
 VINA RESULT:      -6.2      4.376     10.481
  Name = 
  7 active torsions:
  status: ('A' for Active; 'I' for Inactive)
    1  A    between atoms: N_10  and  C_46
    2  A    between atoms: C_12  and  C_16
    3  A    between atoms: C_19  and  C_40
    4  A    between atoms: O_20  and  C_28
    5  A    between atoms: O_20  and  C_42
    6  A    between atoms: C_28  and  C_32
    7  A    between atoms: C_46  and  C_53
                            x       y       z     vdW  Elec       q    Type
                         _______ _______ _______ _____ _____    ______ ____

>  <TORSDO>
F 7

$$$$
=
 OpenBabel11062413593D

 53 62  0  0  1  0  0  0  0  0999 V2000
  186.7760  178.2210  137.9930 C   0  0  0  0  0  0  0  0  0  0  0  0
  188.5660  176.3950  134.9290 O   0  0  0  0  0  0  0  0  0  0  0  0
  184.7530  178.2700  139.2690 C   0  0  2  0  0  3  0  0  0  0  0  0
  187.7050  178.5730  135.7810 C   0  0  1  0  0  3  0  0  0  0  0  0
  189.1000  176.6000  138.6030 C   0  0  0  0  0  2  0  0  0  0  0  0
  183.8370  179.3930  138.7620 C   0  0  1  0  0  3  0  0  0  0  0  0
  183.8420  178.8010  141.6400 C   0  0  0  0  0  2  0  0  0  0  0  0
  182.4220  179.0530  138.9610 N   0  0  0  0  0  0  0  0  0  0  0  0
  188.3140  176.5040  137.2880 C   0  0  1  0  0  3  0  0  0  0  0  0
  184.1760  180.6460  139.2970 O   0  0  0  0  0  1  0  0  0  0  0  0
  188.2790  177.7580  140.3320 C   0  0  1  0  0  3  0  0  0  0  0  0
  184.6250  177.8470  140.7410 C   0  0  2  0  0  3  0  0  0  0  0  0
  188.2370  176.5000  139.7080 O   0  0  0  0  0  0  0  0  0  0  0  0
  186.9120  178.0590  134.5970 C   0  0  0  0  0  2  0  0  0  0  0  0
  187.4880  177.7410  137.0150 C   0  0  0  0  0  0  0  0  0  0  0  0
  186.1820  178.5900  139.0930 C   0  0  0  0  0  0  0  0  0  0  0  0
  188.4020  177.7720  134.6600 C   0  0  2  0  0  3  0  0  0  0  0  0
  189.2760  176.2810  136.1320 C   0  0  0  0  0  2  0  0  0  0  0  0
  186.8800  178.4230  140.4090 C   0  0  1  0  0  3  0  0  0  0  0  0
  182.3470  178.6780  141.3890 C   0  0  0  0  0  2  0  0  0  0  0  0
  181.9170  179.5690  140.2330 C   0  0  0  0  0  2  0  0  0  0  0  0
  185.9750  177.6720  141.2780 N   0  0  0  0  0  2  0  0  0  0  0  0
  188.9580  177.6730  141.6670 C   0  0  0  0  0  0  0  0  0  0  0  0
  191.2170  178.3240  142.3740 C   0  0  0  0  0  3  0  0  0  0  0  0
  191.0510  178.7500  143.6280 C   0  0  0  0  0  0  0  0  0  0  0  0
  190.3910  177.2510  141.7530 C   0  0  0  0  0  2  0  0  0  0  0  0
  188.7610  177.8950  144.1450 C   0  0  0  0  0  3  0  0  0  0  0  0
  188.2350  177.8980  142.7660 C   0  0  0  0  0  3  0  0  0  0  0  0
  189.9980  178.2260  144.5500 C   0  0  0  0  0  0  0  0  0  0  0  0
  191.9140  179.7380  144.0860 O   0  0  0  0  0  1  0  0  0  0  0  0
  190.2410  178.1270  145.9250 O   0  0  0  0  0  0  0  0  0  0  0  0
  189.7010  177.1030  146.7490 C   0  0  0  0  0  2  0  0  0  0  0  0
  187.7130  176.9610  148.3750 C   0  0  0  0  0  2  0  0  0  0  0  0
  188.9180  177.7240  147.8880 C   0  0  0  0  0  0  0  0  0  0  0  0
  189.6420  178.4290  148.9310 N   0  0  0  0  0  1  0  0  0  0  0  0
  187.5420  178.2610  147.5910 C   0  0  0  0  0  2  0  0  0  0  0  0
  181.6650  179.7000  137.8990 C   0  0  0  0  0  2  0  0  0  0  0  0
  184.0370  175.5150  135.2220 C   0  0  0  0  0  1  0  0  0  0  0  0
  180.4270  179.2380  135.7070 C   0  0  2  0  0  3  0  0  0  0  0  0
  181.5030  177.3280  137.0650 C   0  0  0  0  0  0  0  0  0  0  0  0
  178.9750  179.2200  136.1620 C   0  0  0  0  0  2  0  0  0  0  0  0
  182.6550  174.6680  137.1200 C   0  0  2  0  0  3  0  0  0  0  0  0
  181.9430  177.7070  134.6860 C   0  0  0  0  0  2  0  0  0  0  0  0
  181.4970  175.0420  138.0370 C   0  0  0  0  0  2  0  0  0  0  0  0
  182.0680  176.8670  135.9240 C   0  0  0  0  0  0  0  0  0  0  0  0
  180.5950  178.2630  134.6230 N   0  0  0  0  0  2  0  0  0  0  0  0
  179.3820  178.6310  137.5070 C   0  0  0  0  0  2  0  0  0  0  0  0
  181.5750  176.5280  138.3390 C   0  0  0  0  0  2  0  0  0  0  0  0
  182.6330  175.4640  135.8040 C   0  0  1  0  0  3  0  0  0  0  0  0
  180.8420  178.6910  137.0880 C   0  0  1  0  0  0  0  0  0  0  0  0
  181.5680  172.6290  136.1070 N   0  0  0  0  0  1  0  0  0  0  0  0
  183.5630  172.4560  137.2830 O   0  0  0  0  0  0  0  0  0  0  0  0
  182.6410  173.1970  136.8470 C   0  0  0  0  0  0  0  0  0  0  0  0
  1 16  2  0  0  0  0
  2 18  1  0  0  0  0
  3 16  1  1  0  0  0
  3 12  1  0  0  0  0
  4 14  1  6  0  0  0
  4 15  1  0  0  0  0
  5 13  1  0  0  0  0
  6  8  1  0  0  0  0
  6  3  1  0  0  0  0
  6 10  1  1  0  0  0
  8 21  1  0  0  0  0
  9 18  1  6  0  0  0
  9  5  1  0  0  0  0
 11 19  1  0  0  0  0
 11 23  1  1  0  0  0
 12 22  1  0  0  0  0
 12  7  1  1  0  0  0
 13 11  1  0  0  0  0
 15  9  1  0  0  0  0
 15  1  2  0  0  0  0
 17 14  1  6  0  0  0
 17  2  1  0  0  0  0
 17  4  1  0  0  0  0
 19 16  1  6  0  0  0
 19 22  1  0  0  0  0
 20  7  1  0  0  0  0
 21 20  1  0  0  0  0
 23 26  1  0  0  0  0
 23 28  2  0  0  0  0
 24 25  2  0  0  0  0
 25 30  1  0  0  0  0
 25 29  1  0  0  0  0
 26 24  1  0  0  0  0
 27 29  2  0  0  0  0
 28 27  1  0  0  0  0
 29 31  1  0  0  0  0
 31 32  1  0  0  0  0
 32 34  1  0  0  0  0
 34 33  1  0  0  0  0
 34 35  1  0  0  0  0
 36 34  1  0  0  0  0
 36 33  1  0  0  0  0
 37  8  1  0  0  0  0
 39 41  1  1  0  0  0
 39 50  1  0  0  0  0
 40 50  1  0  0  0  0
 40 48  1  0  0  0  0
 41 47  1  0  0  0  0
 42 53  1  6  0  0  0
 42 44  1  0  0  0  0
 43 45  1  0  0  0  0
 44 48  1  0  0  0  0
 45 40  2  0  0  0  0
 46 43  1  0  0  0  0
 46 39  1  0  0  0  0
 49 38  1  1  0  0  0
 49 45  1  0  0  0  0
 49 42  1  0  0  0  0
 50 47  1  0  0  0  0
 50 37  1  1  0  0  0
 51 53  1  0  0  0  0
 53 52  2  0  0  0  0
M  END
>  <MODEL>
6

>  <REMARK>
 VINA RESULT:      -6.1      4.187     10.153
  Name = 
  7 active torsions:
  status: ('A' for Active; 'I' for Inactive)
    1  A    between atoms: N_10  and  C_46
    2  A    between atoms: C_12  and  C_16
    3  A    between atoms: C_19  and  C_40
    4  A    between atoms: O_20  and  C_28
    5  A    between atoms: O_20  and  C_42
    6  A    between atoms: C_28  and  C_32
    7  A    between atoms: C_46  and  C_53
                            x       y       z     vdW  Elec       q    Type
                         _______ _______ _______ _____ _____    ______ ____

>  <TORSDO>
F 7

$$$$
=
 OpenBabel11062413593D

 53 62  0  0  1  0  0  0  0  0999 V2000
  188.1690  178.2510  140.4170 C   0  0  0  0  0  0  0  0  0  0  0  0
  189.7470  176.8510  137.0290 O   0  0  0  0  0  0  0  0  0  0  0  0
  186.2300  178.1300  141.8130 C   0  0  2  0  0  3  0  0  0  0  0  0
  188.9610  178.8960  138.2180 C   0  0  1  0  0  3  0  0  0  0  0  0
  190.5100  176.5600  140.6560 C   0  0  0  0  0  2  0  0  0  0  0  0
  185.2950  179.3130  141.5200 C   0  0  1  0  0  3  0  0  0  0  0  0
  185.4740  178.3390  144.2870 C   0  0  0  0  0  2  0  0  0  0  0  0
  183.8920  178.9510  141.7610 N   0  0  0  0  0  0  0  0  0  0  0  0
  189.6430  176.6430  139.3930 C   0  0  1  0  0  3  0  0  0  0  0  0
  185.6790  180.4820  142.1950 O   0  0  0  0  0  1  0  0  0  0  0  0
  189.8100  177.4770  142.5740 C   0  0  1  0  0  3  0  0  0  0  0  0
  186.1910  177.5140  143.2210 C   0  0  2  0  0  3  0  0  0  0  0  0
  189.7180  176.3140  141.7900 O   0  0  0  0  0  0  0  0  0  0  0  0
  188.0920  178.5470  137.0280 C   0  0  0  0  0  2  0  0  0  0  0  0
  188.8140  177.9060  139.3410 C   0  0  0  0  0  0  0  0  0  0  0  0
  187.6480  178.4690  141.5920 C   0  0  0  0  0  0  0  0  0  0  0  0
  189.5800  178.2520  136.9580 C   0  0  2  0  0  3  0  0  0  0  0  0
  190.5300  176.5760  138.1590 C   0  0  0  0  0  2  0  0  0  0  0  0
  188.4250  178.1260  142.8270 C   0  0  1  0  0  3  0  0  0  0  0  0
  183.9650  178.2530  144.1160 C   0  0  0  0  0  2  0  0  0  0  0  0
  183.4720  179.2920  143.1200 C   0  0  0  0  0  2  0  0  0  0  0  0
  187.5690  177.2670  143.6430 N   0  0  0  0  0  2  0  0  0  0  0  0
  190.5700  177.2130  143.8390 C   0  0  0  0  0  0  0  0  0  0  0  0
  190.1670  177.9410  146.1490 C   0  0  0  0  0  3  0  0  0  0  0  0
  190.5830  176.9110  146.8880 C   0  0  0  0  0  0  0  0  0  0  0  0
  190.7700  178.3100  144.8370 C   0  0  0  0  0  2  0  0  0  0  0  0
  191.8720  175.5820  145.2100 C   0  0  0  0  0  3  0  0  0  0  0  0
  191.1300  176.0120  144.0080 C   0  0  0  0  0  3  0  0  0  0  0  0
  191.6810  175.9850  146.4770 C   0  0  0  0  0  0  0  0  0  0  0  0
  189.9480  176.7010  148.1060 O   0  0  0  0  0  1  0  0  0  0  0  0
  192.5350  175.4220  147.4340 O   0  0  0  0  0  0  0  0  0  0  0  0
  193.6080  176.1250  148.0420 C   0  0  0  0  0  2  0  0  0  0  0  0
  192.8410  177.5470  150.0440 C   0  0  0  0  0  2  0  0  0  0  0  0
  193.3690  176.2300  149.5350 C   0  0  0  0  0  0  0  0  0  0  0  0
  192.8660  175.0680  150.2460 N   0  0  0  0  0  1  0  0  0  0  0  0
  194.2800  177.1250  150.3360 C   0  0  0  0  0  2  0  0  0  0  0  0
  183.0760  179.7340  140.8450 C   0  0  0  0  0  2  0  0  0  0  0  0
  182.8910  177.5030  135.8160 C   0  0  0  0  0  1  0  0  0  0  0  0
  180.7000  179.8720  139.9050 C   0  0  2  0  0  3  0  0  0  0  0  0
  182.2440  177.8790  139.3570 C   0  0  0  0  0  0  0  0  0  0  0  0
  179.8680  179.3640  141.0730 C   0  0  0  0  0  2  0  0  0  0  0  0
  182.9640  175.7210  137.5610 C   0  0  2  0  0  3  0  0  0  0  0  0
  181.1050  179.2140  137.6490 C   0  0  0  0  0  2  0  0  0  0  0  0
  182.6800  175.4560  139.0360 C   0  0  0  0  0  2  0  0  0  0  0  0
  181.9210  178.0200  138.0500 C   0  0  0  0  0  0  0  0  0  0  0  0
  180.0690  179.4400  138.6520 N   0  0  0  0  0  2  0  0  0  0  0  0
  180.9880  178.4160  141.4850 C   0  0  0  0  0  2  0  0  0  0  0  0
  183.0450  176.6960  139.8320 C   0  0  0  0  0  2  0  0  0  0  0  0
  182.1740  176.9280  137.0270 C   0  0  1  0  0  3  0  0  0  0  0  0
  181.8520  178.9510  140.3550 C   0  0  1  0  0  0  0  0  0  0  0  0
  183.7230  173.8380  136.0630 N   0  0  0  0  0  1  0  0  0  0  0  0
  181.4900  174.0560  136.6640 O   0  0  0  0  0  0  0  0  0  0  0  0
  182.6680  174.4980  136.7530 C   0  0  0  0  0  0  0  0  0  0  0  0
  1 16  2  0  0  0  0
  2 18  1  0  0  0  0
  3 16  1  1  0  0  0
  3 12  1  0  0  0  0
  4 14  1  6  0  0  0
  4 15  1  0  0  0  0
  5 13  1  0  0  0  0
  6  8  1  0  0  0  0
  6  3  1  0  0  0  0
  6 10  1  1  0  0  0
  8 21  1  0  0  0  0
  9 18  1  6  0  0  0
  9  5  1  0  0  0  0
 11 19  1  0  0  0  0
 11 23  1  1  0  0  0
 12 22  1  0  0  0  0
 12  7  1  1  0  0  0
 13 11  1  0  0  0  0
 15  9  1  0  0  0  0
 15  1  2  0  0  0  0
 17 14  1  6  0  0  0
 17  2  1  0  0  0  0
 17  4  1  0  0  0  0
 19 16  1  6  0  0  0
 19 22  1  0  0  0  0
 20  7  1  0  0  0  0
 21 20  1  0  0  0  0
 23 28  2  0  0  0  0
 23 26  1  0  0  0  0
 24 25  2  0  0  0  0
 25 30  1  0  0  0  0
 26 24  1  0  0  0  0
 27 29  2  0  0  0  0
 28 27  1  0  0  0  0
 29 25  1  0  0  0  0
 29 31  1  0  0  0  0
 31 32  1  0  0  0  0
 32 34  1  0  0  0  0
 33 36  1  0  0  0  0
 34 33  1  0  0  0  0
 34 35  1  0  0  0  0
 34 36  1  0  0  0  0
 37  8  1  0  0  0  0
 39 50  1  0  0  0  0
 39 41  1  1  0  0  0
 40 48  1  0  0  0  0
 40 50  1  0  0  0  0
 41 47  1  0  0  0  0
 42 53  1  6  0  0  0
 42 44  1  0  0  0  0
 43 45  1  0  0  0  0
 43 46  1  0  0  0  0
 44 48  1  0  0  0  0
 45 40  2  0  0  0  0
 46 39  1  0  0  0  0
 49 38  1  6  0  0  0
 49 42  1  0  0  0  0
 49 45  1  0  0  0  0
 50 37  1  1  0  0  0
 50 47  1  0  0  0  0
 51 53  1  0  0  0  0
 52 53  2  0  0  0  0
M  END
>  <MODEL>
7

>  <REMARK>
 VINA RESULT:      -5.7      4.106     11.350
  Name = 
  7 active torsions:
  status: ('A' for Active; 'I' for Inactive)
    1  A    between atoms: N_10  and  C_46
    2  A    between atoms: C_12  and  C_16
    3  A    between atoms: C_19  and  C_40
    4  A    between atoms: O_20  and  C_28
    5  A    between atoms: O_20  and  C_42
    6  A    between atoms: C_28  and  C_32
    7  A    between atoms: C_46  and  C_53
                            x       y       z     vdW  Elec       q    Type
                         _______ _______ _______ _____ _____    ______ ____

>  <TORSDO>
F 7

$$$$
=
 OpenBabel11062413593D

 53 62  0  0  1  0  0  0  0  0999 V2000
  185.3660  178.5600  138.9480 C   0  0  0  0  0  0  0  0  0  0  0  0
  188.5730  177.3670  136.8950 O   0  0  0  0  0  0  0  0  0  0  0  0
  183.1220  177.9500  139.5100 C   0  0  2  0  0  3  0  0  0  0  0  0
  186.8360  179.1410  137.1090 C   0  0  1  0  0  3  0  0  0  0  0  0
  187.7240  177.8600  140.4810 C   0  0  0  0  0  2  0  0  0  0  0  0
  182.1320  178.6730  138.5850 C   0  0  1  0  0  3  0  0  0  0  0  0
  181.3380  178.2100  141.3760 C   0  0  0  0  0  2  0  0  0  0  0  0
  180.9170  177.8730  138.3810 N   0  0  0  0  0  0  0  0  0  0  0  0
  187.5080  177.4570  139.0150 C   0  0  1  0  0  3  0  0  0  0  0  0
  181.8570  179.9820  139.0100 O   0  0  0  0  0  1  0  0  0  0  0  0
  186.0410  178.7190  141.6800 C   0  0  1  0  0  3  0  0  0  0  0  0
  182.6380  177.5560  140.9150 C   0  0  2  0  0  3  0  0  0  0  0  0
  186.6130  177.5040  141.2650 O   0  0  0  0  0  0  0  0  0  0  0  0
  186.7000  178.3480  135.8250 C   0  0  0  0  0  2  0  0  0  0  0  0
  186.4820  178.3250  138.3220 C   0  0  0  0  0  0  0  0  0  0  0  0
  184.3480  178.7370  139.7430 C   0  0  0  0  0  0  0  0  0  0  0  0
  188.0880  178.5940  136.3910 C   0  0  2  0  0  3  0  0  0  0  0  0
  188.8260  177.5430  138.2630 C   0  0  0  0  0  2  0  0  0  0  0  0
  184.5680  178.8620  141.2200 C   0  0  1  0  0  3  0  0  0  0  0  0
  180.1380  177.5720  140.6920 C   0  0  0  0  0  2  0  0  0  0  0  0
  179.8730  178.2230  139.3430 C   0  0  0  0  0  2  0  0  0  0  0  0
  183.7040  177.8740  141.8640 N   0  0  0  0  0  2  0  0  0  0  0  0
  186.2130  178.9150  143.1570 C   0  0  0  0  0  0  0  0  0  0  0  0
  184.5760  179.3790  144.9270 C   0  0  0  0  0  3  0  0  0  0  0  0
  185.0580  178.7310  145.9890 C   0  0  0  0  0  0  0  0  0  0  0  0
  185.4350  179.9780  143.8680 C   0  0  0  0  0  2  0  0  0  0  0  0
  187.3900  178.2270  145.2480 C   0  0  0  0  0  3  0  0  0  0  0  0
  187.1290  178.1840  143.7960 C   0  0  0  0  0  3  0  0  0  0  0  0
  186.5150  178.5000  146.2290 C   0  0  0  0  0  0  0  0  0  0  0  0
  184.1400  178.2490  146.9140 O   0  0  0  0  0  1  0  0  0  0  0  0
  187.0280  178.4830  147.5320 O   0  0  0  0  0  0  0  0  0  0  0  0
  187.7350  177.3830  148.0860 C   0  0  0  0  0  2  0  0  0  0  0  0
  189.8020  177.4560  146.5560 C   0  0  0  0  0  2  0  0  0  0  0  0
  189.2270  177.6100  147.9410 C   0  0  0  0  0  0  0  0  0  0  0  0
  189.8570  178.6460  148.7400 N   0  0  0  0  0  1  0  0  0  0  0  0
  190.0970  176.4180  147.6370 C   0  0  0  0  0  2  0  0  0  0  0  0
  180.4080  178.1850  137.0540 C   0  0  0  0  0  2  0  0  0  0  0  0
  181.7010  172.8550  137.5330 C   0  0  0  0  0  1  0  0  0  0  0  0
  182.6920  177.7310  135.9920 C   0  0  2  0  0  3  0  0  0  0  0  0
  180.8080  175.9710  135.9200 C   0  0  0  0  0  0  0  0  0  0  0  0
  182.5640  178.4400  134.6520 C   0  0  0  0  0  2  0  0  0  0  0  0
  180.0210  173.1880  135.7170 C   0  0  2  0  0  3  0  0  0  0  0  0
  183.0660  175.5000  136.7440 C   0  0  0  0  0  2  0  0  0  0  0  0
  179.4580  174.2360  134.7640 C   0  0  0  0  0  2  0  0  0  0  0  0
  181.6970  175.0380  136.3340 C   0  0  0  0  0  0  0  0  0  0  0  0
  183.5170  176.5300  135.8140 N   0  0  0  0  0  2  0  0  0  0  0  0
  181.0780  178.1060  134.5940 C   0  0  0  0  0  2  0  0  0  0  0  0
  179.4240  175.5750  135.4780 C   0  0  0  0  0  2  0  0  0  0  0  0
  181.4350  173.5480  136.2060 C   0  0  1  0  0  3  0  0  0  0  0  0
  181.1780  177.4400  135.9560 C   0  0  1  0  0  0  0  0  0  0  0  0
  181.2490  171.1840  134.7980 N   0  0  0  0  0  1  0  0  0  0  0  0
  178.9310  171.2950  134.7300 O   0  0  0  0  0  0  0  0  0  0  0  0
  180.0170  171.8430  135.0630 C   0  0  0  0  0  0  0  0  0  0  0  0
  1 16  2  0  0  0  0
  2 18  1  0  0  0  0
  3 16  1  1  0  0  0
  3 12  1  0  0  0  0
  4 14  1  6  0  0  0
  4 15  1  0  0  0  0
  5 13  1  0  0  0  0
  6 10  1  1  0  0  0
  6  3  1  0  0  0  0
  8  6  1  0  0  0  0
  8 21  1  0  0  0  0
  9 18  1  6  0  0  0
  9  5  1  0  0  0  0
 11 23  1  1  0  0  0
 12  7  1  1  0  0  0
 12 22  1  0  0  0  0
 13 11  1  0  0  0  0
 15  1  2  0  0  0  0
 15  9  1  0  0  0  0
 17 14  1  6  0  0  0
 17  2  1  0  0  0  0
 17  4  1  0  0  0  0
 19 16  1  6  0  0  0
 19 11  1  0  0  0  0
 19 22  1  0  0  0  0
 20  7  1  0  0  0  0
 21 20  1  0  0  0  0
 23 28  2  0  0  0  0
 23 26  1  0  0  0  0
 24 25  2  0  0  0  0
 25 29  1  0  0  0  0
 25 30  1  0  0  0  0
 26 24  1  0  0  0  0
 27 29  2  0  0  0  0
 28 27  1  0  0  0  0
 29 31  1  0  0  0  0
 31 32  1  0  0  0  0
 33 36  1  0  0  0  0
 33 34  1  0  0  0  0
 34 32  1  0  0  0  0
 34 35  1  0  0  0  0
 36 34  1  0  0  0  0
 37  8  1  0  0  0  0
 39 41  1  6  0  0  0
 40 50  1  0  0  0  0
 40 45  2  0  0  0  0
 42 53  1  6  0  0  0
 42 49  1  0  0  0  0
 44 48  1  0  0  0  0
 44 42  1  0  0  0  0
 45 43  1  0  0  0  0
 46 39  1  0  0  0  0
 46 43  1  0  0  0  0
 47 41  1  0  0  0  0
 47 50  1  0  0  0  0
 48 40  1  0  0  0  0
 49 45  1  0  0  0  0
 49 38  1  1  0  0  0
 50 39  1  0  0  0  0
 50 37  1  1  0  0  0
 51 53  1  0  0  0  0
 52 53  2  0  0  0  0
M  END
>  <MODEL>
8

>  <REMARK>
 VINA RESULT:      -4.9      4.691     10.111
  Name = 
  7 active torsions:
  status: ('A' for Active; 'I' for Inactive)
    1  A    between atoms: N_10  and  C_46
    2  A    between atoms: C_12  and  C_16
    3  A    between atoms: C_19  and  C_40
    4  A    between atoms: O_20  and  C_28
    5  A    between atoms: O_20  and  C_42
    6  A    between atoms: C_28  and  C_32
    7  A    between atoms: C_46  and  C_53
                            x       y       z     vdW  Elec       q    Type
                         _______ _______ _______ _____ _____    ______ ____

>  <TORSDO>
F 7

$$$$
