=
 OpenBabel11062415113D

 55 60  0  0  1  0  0  0  0  0999 V2000
  190.6050  175.2140  136.6950 C   0  0  2  0  0  3  0  0  0  0  0  0
  190.9690  176.6220  137.0860 C   0  0  0  0  0  2  0  0  0  0  0  0
  189.4650  174.8280  137.4200 O   0  0  0  0  0  0  0  0  0  0  0  0
  188.7530  176.0050  137.7050 C   0  0  1  0  0  3  0  0  0  0  0  0
  189.6760  177.2100  137.5420 C   0  0  1  0  0  3  0  0  0  0  0  0
  189.4030  177.7180  141.1250 C   0  0  2  0  0  3  0  0  0  0  0  0
  187.8390  178.5830  139.5240 O   0  0  0  0  0  0  0  0  0  0  0  0
  188.0940  178.5040  140.9070 C   0  0  0  0  0  2  0  0  0  0  0  0
  189.8630  177.9420  138.8700 C   0  0  1  0  0  3  0  0  0  0  0  0
  188.9590  179.0380  138.9730 O   0  0  0  0  0  0  0  0  0  0  0  0
  189.7470  177.0220  139.9470 O   0  0  0  0  0  0  0  0  0  0  0  0
  190.6380  176.8360  143.1050 C   0  0  2  0  0  3  0  0  0  0  0  0
  189.3870  176.7450  142.3160 C   0  0  2  0  0  3  0  0  0  0  0  0
  190.4010  175.7680  142.2200 O   0  0  0  0  0  0  0  0  0  0  0  0
  190.3880  176.3770  144.5270 C   0  0  0  0  0  2  0  0  0  0  0  0
  191.3540  176.9400  145.3840 O   0  0  0  0  0  0  0  0  0  0  0  0
  191.0430  176.6270  146.7350 C   0  0  2  0  0  0  0  0  0  0  0  0
  191.3620  177.7390  147.5320 O   0  0  0  0  0  1  0  0  0  0  0  0
  192.8440  175.8300  148.3410 C   0  0  0  0  0  1  0  0  0  0  0  0
  191.8960  175.4360  147.2170 C   0  0  2  0  0  3  0  0  0  0  0  0
  192.6290  174.8980  146.1560 O   0  0  0  0  0  1  0  0  0  0  0  0
  189.6700  176.3010  146.8910 O   0  0  0  0  0  0  0  0  0  0  0  0
  189.0460  177.2880  147.6770 C   0  0  0  0  0  2  0  0  0  0  0  0
  186.6290  177.9740  144.9880 C   0  0  0  0  0  3  0  0  0  0  0  0
  187.4920  177.2720  145.7350 C   0  0  0  0  0  3  0  0  0  0  0  0
  185.6900  179.0350  147.0860 C   0  0  0  0  0  2  0  0  0  0  0  0
  187.6080  177.4630  147.2290 C   0  0  2  0  0  3  0  0  0  0  0  0
  187.0780  178.8220  147.6760 C   0  0  0  0  0  2  0  0  0  0  0  0
  185.7880  179.0900  145.5630 C   0  0  2  0  0  3  0  0  0  0  0  0
  183.4100  178.9380  145.6710 O   0  0  0  0  0  1  0  0  0  0  0  0
  184.4280  179.1060  144.9450 C   0  0  0  0  0  0  0  0  0  0  0  0
  184.2770  179.2950  143.5730 O   0  0  0  0  0  0  0  0  0  0  0  0
  191.7350  174.2740  136.9750 C   0  0  0  0  0  0  0  0  0  0  0  0
  192.5830  174.5540  137.8700 O   0  0  0  0  0  1  0  0  0  0  0  0
  191.8480  173.0800  136.2640 O   0  0  0  0  0  0  0  0  0  0  0  0
  186.5490  177.1010  137.6680 C   0  0  0  0  0  1  0  0  0  0  0  0
  187.4430  176.1260  136.8840 C   0  0  1  0  0  0  0  0  0  0  0  0
  187.7380  176.6210  135.5790 O   0  0  0  0  0  0  0  0  0  0  0  0
  187.0250  177.8160  135.3350 C   0  0  0  0  0  1  0  0  0  0  0  0
  186.5360  174.5060  136.8760 S   0  0  0  0  0  0  0  0  0  0  0  0
  181.3870  174.1290  137.3940 C   0  0  0  0  0  2  0  0  0  0  0  0
  182.7460  176.2810  137.2360 C   0  0  0  0  0  2  0  0  0  0  0  0
  184.7430  174.8760  136.5890 C   0  0  1  0  0  0  0  0  0  0  0  0
  183.9300  175.4010  137.6960 C   0  0  2  0  0  3  0  0  0  0  0  0
  180.4510  176.1800  136.6370 O   0  0  0  0  0  1  0  0  0  0  0  0
  184.3770  175.2260  135.1370 C   0  0  0  0  0  1  0  0  0  0  0  0
  183.8230  173.9570  137.3070 N   0  0  1  0  0  0  0  0  0  0  0  0
  181.3730  175.6610  137.5530 C   0  0  1  0  0  0  0  0  0  0  0  0
  182.5810  173.6630  136.5750 C   0  0  0  0  0  2  0  0  0  0  0  0
  180.9330  176.0420  138.9790 C   0  0  0  0  0  0  0  0  0  0  0  0
  179.6180  175.6380  139.1850 F   0  0  0  0  0  0  0  0  0  0  0  0
  181.7570  175.3890  139.8840 F   0  0  0  0  0  0  0  0  0  0  0  0
  181.0430  177.4360  139.1470 O   0  0  0  0  0  0  0  0  0  0  0  0
  182.0640  178.4490  141.0550 C   0  0  0  0  0  1  0  0  0  0  0  0
  180.8570  177.7270  140.5040 C   0  0  0  0  0  2  0  0  0  0  0  0
  1 33  1  1  0  0  0
  1  2  1  0  0  0  0
  1  3  1  0  0  0  0
  3  4  1  0  0  0  0
  4 37  1  6  0  0  0
  5  2  1  1  0  0  0
  5  4  1  0  0  0  0
  5  9  1  0  0  0  0
  6  8  1  6  0  0  0
  6 13  1  0  0  0  0
  7  8  1  0  0  0  0
  9 10  1  1  0  0  0
  9 11  1  0  0  0  0
 10  7  1  0  0  0  0
 11  6  1  0  0  0  0
 12 15  1  1  0  0  0
 13 14  1  6  0  0  0
 13 12  1  0  0  0  0
 14 12  1  0  0  0  0
 15 16  1  0  0  0  0
 16 17  1  0  0  0  0
 17 22  1  0  0  0  0
 17 20  1  0  0  0  0
 17 18  1  1  0  0  0
 20 19  1  1  0  0  0
 21 20  1  0  0  0  0
 22 23  1  0  0  0  0
 24 29  1  0  0  0  0
 24 25  2  0  0  0  0
 25 27  1  0  0  0  0
 26 28  1  0  0  0  0
 27 28  1  0  0  0  0
 27 23  1  6  0  0  0
 29 31  1  6  0  0  0
 29 26  1  0  0  0  0
 31 30  1  0  0  0  0
 32 31  2  0  0  0  0
 33 34  1  0  0  0  0
 35 33  2  0  0  0  0
 37 36  1  1  0  0  0
 38 37  1  0  0  0  0
 39 38  1  0  0  0  0
 40 37  1  0  0  0  0
 41 48  1  0  0  0  0
 42 48  1  0  0  0  0
 43 46  1  6  0  0  0
 43 40  1  0  0  0  0
 43 47  1  0  0  0  0
 43 44  1  0  0  0  0
 44 42  1  6  0  0  0
 47 49  1  6  0  0  0
 47 44  1  0  0  0  0
 48 45  1  6  0  0  0
 48 50  1  0  0  0  0
 49 41  1  0  0  0  0
 50 53  1  0  0  0  0
 50 51  1  0  0  0  0
 50 52  1  0  0  0  0
 53 55  1  0  0  0  0
 55 54  1  0  0  0  0
M  END
>  <MODEL>
1

>  <REMARK>
 VINA RESULT:      -8.3      0.000      0.000
  Name = 
  18 active torsions:
  status: ('A' for Active; 'I' for Inactive)
    1  A    between atoms: C_1  and  C_29
    2  A    between atoms: O_2  and  C_11
    3  A    between atoms: O_2  and  C_51
    4  A    between atoms: C_7  and  S_12
    5  A    between atoms: C_11  and  O_13
    6  A    between atoms: C_11  and  C_35
    7  A    between atoms: S_12  and  C_28
    8  A    between atoms: O_13  and  C_34
    9  A    between atoms: C_15  and  O_38
   10  A    between atoms: C_17  and  C_26
   11  A    between atoms: C_20  and  C_34
   12  A    between atoms: C_21  and  C_27
   13  A    between atoms: O_22  and  C_28
   14  A    between atoms: C_27  and  O_38
   15  A    between atoms: C_28  and  C_46
   16  A    between atoms: C_32  and  C_51
   17  A    between atoms: C_44  and  C_52
   18  A    between atoms: C_45  and  C_49
                            x       y       z     vdW  Elec       q    Type
                         _______ _______ _______ _____ _____    ______ ____

>  <TORSDO>
F 18

$$$$
=
 OpenBabel11062415113D

 55 60  0  0  1  0  0  0  0  0999 V2000
  190.9780  177.0440  146.2700 C   0  0  2  0  0  3  0  0  0  0  0  0
  189.7500  177.7770  146.7400 C   0  0  0  0  0  2  0  0  0  0  0  0
  190.6470  176.3060  145.1200 O   0  0  0  0  0  0  0  0  0  0  0  0
  189.5860  176.9870  144.4980 C   0  0  1  0  0  3  0  0  0  0  0  0
  188.9340  177.9360  145.5010 C   0  0  1  0  0  3  0  0  0  0  0  0
  185.3500  178.4360  145.7830 C   0  0  2  0  0  3  0  0  0  0  0  0
  186.8760  178.5880  147.6290 O   0  0  0  0  0  0  0  0  0  0  0  0
  185.5170  178.7320  147.2880 C   0  0  0  0  0  2  0  0  0  0  0  0
  187.4820  177.5400  145.7660 C   0  0  1  0  0  3  0  0  0  0  0  0
  187.2450  177.4000  147.1640 O   0  0  0  0  0  0  0  0  0  0  0  0
  186.6070  178.4730  145.1450 O   0  0  0  0  0  0  0  0  0  0  0  0
  183.6260  178.6270  143.9900 C   0  0  2  0  0  3  0  0  0  0  0  0
  184.3670  179.3600  145.0440 C   0  0  2  0  0  3  0  0  0  0  0  0
  184.6880  179.4960  143.6770 O   0  0  0  0  0  0  0  0  0  0  0  0
  182.3090  179.3190  143.7070 C   0  0  0  0  0  2  0  0  0  0  0  0
  181.6910  178.7250  142.5890 O   0  0  0  0  0  0  0  0  0  0  0  0
  180.4660  179.3870  142.3050 C   0  0  2  0  0  0  0  0  0  0  0  0
  180.5100  180.6670  142.8840 O   0  0  0  0  0  1  0  0  0  0  0  0
  178.9310  179.1550  144.3180 C   0  0  0  0  0  1  0  0  0  0  0  0
  179.2860  178.6210  142.9370 C   0  0  2  0  0  3  0  0  0  0  0  0
  179.5790  177.2580  143.0270 O   0  0  0  0  0  1  0  0  0  0  0  0
  180.2460  179.4980  140.9070 O   0  0  0  0  0  0  0  0  0  0  0  0
  181.4540  179.2600  140.2270 C   0  0  0  0  0  2  0  0  0  0  0  0
  182.2110  175.8190  139.1630 C   0  0  0  0  0  3  0  0  0  0  0  0
  181.6320  176.8070  139.8600 C   0  0  0  0  0  3  0  0  0  0  0  0
  181.9840  177.1920  137.0480 C   0  0  0  0  0  2  0  0  0  0  0  0
  181.2660  178.1310  139.2330 C   0  0  2  0  0  3  0  0  0  0  0  0
  182.0690  178.4060  137.9640 C   0  0  0  0  0  2  0  0  0  0  0  0
  182.6460  175.9950  137.7270 C   0  0  2  0  0  3  0  0  0  0  0  0
  181.2470  174.4490  136.5690 O   0  0  0  0  0  0  0  0  0  0  0  0
  182.4150  174.7460  136.9420 C   0  0  0  0  0  0  0  0  0  0  0  0
  183.4780  173.9010  136.6280 O   0  0  0  0  0  1  0  0  0  0  0  0
  191.4940  176.1280  147.3350 C   0  0  0  0  0  0  0  0  0  0  0  0
  191.0810  174.9350  147.3970 O   0  0  0  0  0  0  0  0  0  0  0  0
  192.4410  176.5810  148.2520 O   0  0  0  0  0  1  0  0  0  0  0  0
  188.7400  177.7810  142.3270 C   0  0  0  0  0  1  0  0  0  0  0  0
  190.0140  177.6910  143.1840 C   0  0  1  0  0  0  0  0  0  0  0  0
  190.5380  178.9840  143.4800 O   0  0  0  0  0  0  0  0  0  0  0  0
  191.9440  178.9240  143.6090 C   0  0  0  0  0  1  0  0  0  0  0  0
  191.1870  176.6140  142.2300 S   0  0  0  0  0  0  0  0  0  0  0  0
  189.7190  176.0330  137.2870 C   0  0  0  0  0  2  0  0  0  0  0  0
  189.5680  178.1650  138.6780 C   0  0  0  0  0  2  0  0  0  0  0  0
  190.9790  177.0220  140.4350 C   0  0  1  0  0  0  0  0  0  0  0  0
  189.6250  177.2100  139.8910 C   0  0  2  0  0  3  0  0  0  0  0  0
  189.6750  178.1990  136.3060 O   0  0  0  0  0  1  0  0  0  0  0  0
  192.1700  177.7530  139.7930 C   0  0  0  0  0  1  0  0  0  0  0  0
  190.3600  175.9280  139.6430 N   0  0  1  0  0  0  0  0  0  0  0  0
  189.1500  177.4610  137.3740 C   0  0  1  0  0  0  0  0  0  0  0  0
  190.8670  175.8280  138.2650 C   0  0  0  0  0  2  0  0  0  0  0  0
  187.6150  177.4280  137.2550 C   0  0  0  0  0  0  0  0  0  0  0  0
  187.2520  177.3820  135.9130 F   0  0  0  0  0  0  0  0  0  0  0  0
  187.1480  176.2880  137.8920 F   0  0  0  0  0  0  0  0  0  0  0  0
  187.0730  178.5760  137.8640 O   0  0  0  0  0  0  0  0  0  0  0  0
  185.3790  178.5210  139.5490 C   0  0  0  0  0  1  0  0  0  0  0  0
  185.7090  178.3490  138.0850 C   0  0  0  0  0  2  0  0  0  0  0  0
  1  2  1  0  0  0  0
  1 33  1  1  0  0  0
  3  1  1  0  0  0  0
  4 37  1  6  0  0  0
  4  3  1  0  0  0  0
  4  5  1  0  0  0  0
  5  9  1  0  0  0  0
  5  2  1  1  0  0  0
  6  8  1  1  0  0  0
  8  7  1  0  0  0  0
  9 11  1  1  0  0  0
  9 10  1  0  0  0  0
 10  7  1  0  0  0  0
 11  6  1  0  0  0  0
 12 15  1  6  0  0  0
 12 13  1  0  0  0  0
 13 14  1  6  0  0  0
 13  6  1  0  0  0  0
 14 12  1  0  0  0  0
 16 15  1  0  0  0  0
 17 16  1  0  0  0  0
 17 18  1  1  0  0  0
 17 20  1  0  0  0  0
 20 21  1  0  0  0  0
 20 19  1  1  0  0  0
 22 17  1  0  0  0  0
 23 22  1  0  0  0  0
 24 25  2  0  0  0  0
 26 29  1  0  0  0  0
 26 28  1  0  0  0  0
 27 25  1  0  0  0  0
 27 23  1  1  0  0  0
 28 27  1  0  0  0  0
 29 31  1  6  0  0  0
 29 24  1  0  0  0  0
 30 31  2  0  0  0  0
 32 31  1  0  0  0  0
 33 34  2  0  0  0  0
 33 35  1  0  0  0  0
 37 36  1  6  0  0  0
 37 38  1  0  0  0  0
 38 39  1  0  0  0  0
 40 37  1  0  0  0  0
 41 48  1  0  0  0  0
 41 49  1  0  0  0  0
 43 46  1  6  0  0  0
 43 40  1  0  0  0  0
 44 42  1  6  0  0  0
 44 43  1  0  0  0  0
 47 49  1  6  0  0  0
 47 44  1  0  0  0  0
 47 43  1  0  0  0  0
 48 45  1  6  0  0  0
 48 42  1  0  0  0  0
 50 48  1  0  0  0  0
 50 53  1  0  0  0  0
 50 52  1  0  0  0  0
 51 50  1  0  0  0  0
 53 55  1  0  0  0  0
 55 54  1  0  0  0  0
M  END
>  <MODEL>
2

>  <REMARK>
 VINA RESULT:      -8.0      2.745      8.997
  Name = 
  18 active torsions:
  status: ('A' for Active; 'I' for Inactive)
    1  A    between atoms: C_1  and  C_29
    2  A    between atoms: O_2  and  C_11
    3  A    between atoms: O_2  and  C_51
    4  A    between atoms: C_7  and  S_12
    5  A    between atoms: C_11  and  O_13
    6  A    between atoms: C_11  and  C_35
    7  A    between atoms: S_12  and  C_28
    8  A    between atoms: O_13  and  C_34
    9  A    between atoms: C_15  and  O_38
   10  A    between atoms: C_17  and  C_26
   11  A    between atoms: C_20  and  C_34
   12  A    between atoms: C_21  and  C_27
   13  A    between atoms: O_22  and  C_28
   14  A    between atoms: C_27  and  O_38
   15  A    between atoms: C_28  and  C_46
   16  A    between atoms: C_32  and  C_51
   17  A    between atoms: C_44  and  C_52
   18  A    between atoms: C_45  and  C_49
                            x       y       z     vdW  Elec       q    Type
                         _______ _______ _______ _____ _____    ______ ____

>  <TORSDO>
F 18

$$$$
=
 OpenBabel11062415113D

 55 60  0  0  1  0  0  0  0  0999 V2000
  189.7410  175.5080  135.0900 C   0  0  2  0  0  3  0  0  0  0  0  0
  189.7300  176.9900  135.3570 C   0  0  0  0  0  2  0  0  0  0  0  0
  189.1300  174.8520  136.1720 O   0  0  0  0  0  0  0  0  0  0  0  0
  188.2180  175.7630  136.7310 C   0  0  1  0  0  3  0  0  0  0  0  0
  188.5670  177.1780  136.2730 C   0  0  1  0  0  3  0  0  0  0  0  0
  189.3810  177.9310  139.7280 C   0  0  2  0  0  3  0  0  0  0  0  0
  187.1830  178.1460  138.7900 O   0  0  0  0  0  0  0  0  0  0  0  0
  187.9020  178.2780  139.9940 C   0  0  0  0  0  2  0  0  0  0  0  0
  188.9590  178.0580  137.4580 C   0  0  1  0  0  3  0  0  0  0  0  0
  187.8540  178.8490  137.8860 O   0  0  0  0  0  0  0  0  0  0  0  0
  189.5010  177.2540  138.4970 O   0  0  0  0  0  0  0  0  0  0  0  0
  191.4710  177.5490  141.0360 C   0  0  2  0  0  3  0  0  0  0  0  0
  190.0680  177.1160  140.8370 C   0  0  2  0  0  3  0  0  0  0  0  0
  191.1550  176.3620  140.3490 O   0  0  0  0  0  0  0  0  0  0  0  0
  191.9220  177.2120  142.4430 C   0  0  0  0  0  2  0  0  0  0  0  0
  190.8080  176.8480  143.2240 O   0  0  0  0  0  0  0  0  0  0  0  0
  190.7060  177.7090  144.3500 C   0  0  2  0  0  0  0  0  0  0  0  0
  191.2610  178.9530  144.0090 O   0  0  0  0  0  1  0  0  0  0  0  0
  191.8670  175.6700  145.3280 C   0  0  0  0  0  1  0  0  0  0  0  0
  191.5140  177.1370  145.5330 C   0  0  2  0  0  3  0  0  0  0  0  0
  190.8040  177.2820  146.7270 O   0  0  0  0  0  1  0  0  0  0  0  0
  189.3560  177.8790  144.7560 O   0  0  0  0  0  0  0  0  0  0  0  0
  188.5870  176.8050  144.2700 C   0  0  0  0  0  2  0  0  0  0  0  0
  185.4490  178.4570  143.2860 C   0  0  0  0  0  3  0  0  0  0  0  0
  186.4360  177.5510  143.2680 C   0  0  0  0  0  3  0  0  0  0  0  0
  185.4840  178.4320  145.8180 C   0  0  0  0  0  2  0  0  0  0  0  0
  187.1170  177.0740  144.5290 C   0  0  2  0  0  3  0  0  0  0  0  0
  186.9560  178.0650  145.6780 C   0  0  0  0  0  2  0  0  0  0  0  0
  185.0190  179.1550  144.5550 C   0  0  2  0  0  3  0  0  0  0  0  0
  182.8700  178.9670  145.5720 O   0  0  0  0  0  1  0  0  0  0  0  0
  183.5400  179.3600  144.5780 C   0  0  0  0  0  0  0  0  0  0  0  0
  182.8940  179.9710  143.5050 O   0  0  0  0  0  0  0  0  0  0  0  0
  191.1400  175.0080  134.9100 C   0  0  0  0  0  0  0  0  0  0  0  0
  191.3810  173.7700  134.9790 O   0  0  0  0  0  1  0  0  0  0  0  0
  192.1770  175.9020  134.6500 O   0  0  0  0  0  0  0  0  0  0  0  0
  186.7720  174.4850  135.2030 C   0  0  0  0  0  1  0  0  0  0  0  0
  186.7410  175.3800  136.4520 C   0  0  1  0  0  0  0  0  0  0  0  0
  186.2040  174.6880  137.5790 O   0  0  0  0  0  0  0  0  0  0  0  0
  185.9410  173.3410  137.2460 C   0  0  0  0  0  1  0  0  0  0  0  0
  185.7660  176.8850  135.9710 S   0  0  0  0  0  0  0  0  0  0  0  0
  181.9340  176.5560  139.4540 C   0  0  0  0  0  2  0  0  0  0  0  0
  181.8530  177.7710  137.2130 C   0  0  0  0  0  2  0  0  0  0  0  0
  184.0480  176.6650  136.6260 C   0  0  1  0  0  0  0  0  0  0  0  0
  183.3940  177.7830  137.3240 C   0  0  2  0  0  3  0  0  0  0  0  0
  179.8970  176.9780  138.3020 O   0  0  0  0  0  1  0  0  0  0  0  0
  183.1950  175.6270  135.8780 C   0  0  0  0  0  1  0  0  0  0  0  0
  183.9730  176.6460  138.1100 N   0  0  1  0  0  0  0  0  0  0  0  0
  181.1530  177.5390  138.5640 C   0  0  1  0  0  0  0  0  0  0  0  0
  182.9380  175.7470  138.6440 C   0  0  0  0  0  2  0  0  0  0  0  0
  180.9590  178.8800  139.2990 C   0  0  0  0  0  0  0  0  0  0  0  0
  182.0750  179.1440  140.0870 F   0  0  0  0  0  0  0  0  0  0  0  0
  180.8210  179.8850  138.3530 F   0  0  0  0  0  0  0  0  0  0  0  0
  179.8050  178.8120  140.1020 O   0  0  0  0  0  0  0  0  0  0  0  0
  179.9140  178.2130  142.4130 C   0  0  0  0  0  1  0  0  0  0  0  0
  180.1320  179.2900  141.3770 C   0  0  0  0  0  2  0  0  0  0  0  0
  1 33  1  1  0  0  0
  1  2  1  0  0  0  0
  1  3  1  0  0  0  0
  3  4  1  0  0  0  0
  4 37  1  6  0  0  0
  5  2  1  6  0  0  0
  5  4  1  0  0  0  0
  5  9  1  0  0  0  0
  6  8  1  1  0  0  0
  6 13  1  0  0  0  0
  7  8  1  0  0  0  0
  9 10  1  1  0  0  0
  9 11  1  0  0  0  0
 10  7  1  0  0  0  0
 11  6  1  0  0  0  0
 12 15  1  1  0  0  0
 13 14  1  6  0  0  0
 13 12  1  0  0  0  0
 14 12  1  0  0  0  0
 15 16  1  0  0  0  0
 16 17  1  0  0  0  0
 17 18  1  6  0  0  0
 17 22  1  0  0  0  0
 17 20  1  0  0  0  0
 20 19  1  6  0  0  0
 20 21  1  0  0  0  0
 23 22  1  0  0  0  0
 24 29  1  0  0  0  0
 25 24  2  0  0  0  0
 25 27  1  0  0  0  0
 27 23  1  6  0  0  0
 27 28  1  0  0  0  0
 28 26  1  0  0  0  0
 29 31  1  1  0  0  0
 29 26  1  0  0  0  0
 31 30  1  0  0  0  0
 32 31  2  0  0  0  0
 33 34  1  0  0  0  0
 35 33  2  0  0  0  0
 37 36  1  6  0  0  0
 37 38  1  0  0  0  0
 39 38  1  0  0  0  0
 40 37  1  0  0  0  0
 40 43  1  0  0  0  0
 42 48  1  0  0  0  0
 43 46  1  6  0  0  0
 43 44  1  0  0  0  0
 43 47  1  0  0  0  0
 44 42  1  6  0  0  0
 44 47  1  0  0  0  0
 47 49  1  6  0  0  0
 48 45  1  6  0  0  0
 48 50  1  0  0  0  0
 48 41  1  0  0  0  0
 49 41  1  0  0  0  0
 50 51  1  0  0  0  0
 50 53  1  0  0  0  0
 52 50  1  0  0  0  0
 53 55  1  0  0  0  0
 55 54  1  0  0  0  0
M  END
>  <MODEL>
3

>  <REMARK>
 VINA RESULT:      -7.7      1.930      2.506
  Name = 
  18 active torsions:
  status: ('A' for Active; 'I' for Inactive)
    1  A    between atoms: C_1  and  C_29
    2  A    between atoms: O_2  and  C_11
    3  A    between atoms: O_2  and  C_51
    4  A    between atoms: C_7  and  S_12
    5  A    between atoms: C_11  and  O_13
    6  A    between atoms: C_11  and  C_35
    7  A    between atoms: S_12  and  C_28
    8  A    between atoms: O_13  and  C_34
    9  A    between atoms: C_15  and  O_38
   10  A    between atoms: C_17  and  C_26
   11  A    between atoms: C_20  and  C_34
   12  A    between atoms: C_21  and  C_27
   13  A    between atoms: O_22  and  C_28
   14  A    between atoms: C_27  and  O_38
   15  A    between atoms: C_28  and  C_46
   16  A    between atoms: C_32  and  C_51
   17  A    between atoms: C_44  and  C_52
   18  A    between atoms: C_45  and  C_49
                            x       y       z     vdW  Elec       q    Type
                         _______ _______ _______ _____ _____    ______ ____

>  <TORSDO>
F 18

$$$$
=
 OpenBabel11062415113D

 55 60  0  0  1  0  0  0  0  0999 V2000
  190.9090  177.2340  145.4050 C   0  0  2  0  0  3  0  0  0  0  0  0
  189.6600  177.9080  145.9080 C   0  0  0  0  0  2  0  0  0  0  0  0
  190.5750  176.4450  144.2900 O   0  0  0  0  0  0  0  0  0  0  0  0
  189.4510  177.0440  143.6980 C   0  0  1  0  0  3  0  0  0  0  0  0
  188.7850  177.9810  144.7020 C   0  0  1  0  0  3  0  0  0  0  0  0
  185.2190  178.3160  145.2920 C   0  0  2  0  0  3  0  0  0  0  0  0
  186.8780  178.3770  147.0240 O   0  0  0  0  0  0  0  0  0  0  0  0
  185.4920  178.4940  146.7990 C   0  0  0  0  0  2  0  0  0  0  0  0
  187.3710  177.5090  145.0400 C   0  0  1  0  0  3  0  0  0  0  0  0
  187.2480  177.2460  146.4350 O   0  0  0  0  0  0  0  0  0  0  0  0
  186.4210  178.4540  144.5660 O   0  0  0  0  0  0  0  0  0  0  0  0
  183.4020  178.6080  143.6060 C   0  0  2  0  0  3  0  0  0  0  0  0
  184.1520  179.2570  144.7070 C   0  0  2  0  0  3  0  0  0  0  0  0
  184.3980  179.5700  143.3540 O   0  0  0  0  0  0  0  0  0  0  0  0
  182.0360  179.2470  143.4620 C   0  0  0  0  0  2  0  0  0  0  0  0
  181.5100  178.9590  142.1880 O   0  0  0  0  0  0  0  0  0  0  0  0
  180.2040  179.5050  142.0700 C   0  0  2  0  0  0  0  0  0  0  0  0
  180.1950  180.7690  142.6820 O   0  0  0  0  0  1  0  0  0  0  0  0
  179.1830  178.8690  144.3090 C   0  0  0  0  0  1  0  0  0  0  0  0
  179.1840  178.6130  142.8090 C   0  0  2  0  0  3  0  0  0  0  0  0
  179.4490  177.2630  142.5670 O   0  0  0  0  0  1  0  0  0  0  0  0
  179.8090  179.6250  140.7120 O   0  0  0  0  0  0  0  0  0  0  0  0
  180.8750  179.2310  139.8830 C   0  0  0  0  0  2  0  0  0  0  0  0
  181.9090  182.3290  138.1860 C   0  0  0  0  0  3  0  0  0  0  0  0
  182.0190  181.0960  138.6990 C   0  0  0  0  0  3  0  0  0  0  0  0
  179.6280  181.7310  137.2630 C   0  0  0  0  0  2  0  0  0  0  0  0
  180.8940  180.0900  138.6330 C   0  0  2  0  0  3  0  0  0  0  0  0
  179.5370  180.7600  138.4340 C   0  0  0  0  0  2  0  0  0  0  0  0
  180.6140  182.8460  137.6040 C   0  0  2  0  0  3  0  0  0  0  0  0
  181.0520  183.1750  135.2820 O   0  0  0  0  0  0  0  0  0  0  0  0
  180.8700  183.7080  136.4110 C   0  0  0  0  0  0  0  0  0  0  0  0
  180.9220  185.0940  136.5390 O   0  0  0  0  0  1  0  0  0  0  0  0
  191.5230  176.3820  146.4710 C   0  0  0  0  0  0  0  0  0  0  0  0
  191.3180  176.6500  147.6890 O   0  0  0  0  0  1  0  0  0  0  0  0
  192.3090  175.2840  146.1270 O   0  0  0  0  0  0  0  0  0  0  0  0
  190.6340  178.9600  142.7040 C   0  0  0  0  0  1  0  0  0  0  0  0
  189.7800  177.7320  142.3470 C   0  0  1  0  0  0  0  0  0  0  0  0
  190.4910  176.8260  141.5070 O   0  0  0  0  0  0  0  0  0  0  0  0
  191.7370  177.3780  141.1340 C   0  0  0  0  0  1  0  0  0  0  0  0
  188.2310  178.4030  141.5730 S   0  0  0  0  0  0  0  0  0  0  0  0
  188.3410  175.9330  137.0120 C   0  0  0  0  0  2  0  0  0  0  0  0
  187.1990  178.1580  137.5100 C   0  0  0  0  0  2  0  0  0  0  0  0
  188.3830  178.1730  139.7420 C   0  0  1  0  0  0  0  0  0  0  0  0
  187.2250  177.6820  138.9790 C   0  0  2  0  0  3  0  0  0  0  0  0
  187.9030  177.5500  135.3240 O   0  0  0  0  0  1  0  0  0  0  0  0
  189.4220  179.0770  139.0580 C   0  0  0  0  0  1  0  0  0  0  0  0
  188.3500  176.7510  139.3140 N   0  0  1  0  0  0  0  0  0  0  0  0
  187.3660  177.0090  136.4990 C   0  0  1  0  0  0  0  0  0  0  0  0
  189.2030  176.4570  138.1510 C   0  0  0  0  0  2  0  0  0  0  0  0
  185.9980  176.3770  136.1810 C   0  0  0  0  0  0  0  0  0  0  0  0
  185.9840  175.9350  134.8620 F   0  0  0  0  0  0  0  0  0  0  0  0
  185.8060  175.2940  137.0260 F   0  0  0  0  0  0  0  0  0  0  0  0
  184.9820  177.3310  136.3820 O   0  0  0  0  0  0  0  0  0  0  0  0
  182.7200  176.8440  135.7860 C   0  0  0  0  0  1  0  0  0  0  0  0
  183.8270  176.6560  136.7960 C   0  0  0  0  0  2  0  0  0  0  0  0
  1  2  1  0  0  0  0
  1 33  1  1  0  0  0
  3  1  1  0  0  0  0
  4 37  1  6  0  0  0
  4  3  1  0  0  0  0
  4  5  1  0  0  0  0
  5  9  1  0  0  0  0
  5  2  1  1  0  0  0
  6  8  1  1  0  0  0
  8  7  1  0  0  0  0
  9 11  1  1  0  0  0
  9 10  1  0  0  0  0
 10  7  1  0  0  0  0
 11  6  1  0  0  0  0
 12 15  1  1  0  0  0
 12 13  1  0  0  0  0
 13 14  1  6  0  0  0
 13  6  1  0  0  0  0
 14 12  1  0  0  0  0
 16 15  1  0  0  0  0
 17 16  1  0  0  0  0
 17 18  1  1  0  0  0
 17 20  1  0  0  0  0
 20 19  1  1  0  0  0
 21 20  1  0  0  0  0
 22 17  1  0  0  0  0
 23 22  1  0  0  0  0
 24 25  2  0  0  0  0
 26 29  1  0  0  0  0
 26 28  1  0  0  0  0
 27 25  1  0  0  0  0
 27 23  1  1  0  0  0
 28 27  1  0  0  0  0
 29 31  1  6  0  0  0
 29 24  1  0  0  0  0
 30 31  2  0  0  0  0
 31 32  1  0  0  0  0
 33 34  1  0  0  0  0
 35 33  2  0  0  0  0
 37 36  1  1  0  0  0
 38 37  1  0  0  0  0
 39 38  1  0  0  0  0
 40 37  1  0  0  0  0
 41 49  1  0  0  0  0
 43 46  1  6  0  0  0
 43 40  1  0  0  0  0
 44 42  1  6  0  0  0
 44 47  1  0  0  0  0
 44 43  1  0  0  0  0
 47 49  1  6  0  0  0
 47 43  1  0  0  0  0
 48 45  1  6  0  0  0
 48 41  1  0  0  0  0
 48 42  1  0  0  0  0
 50 53  1  0  0  0  0
 50 48  1  0  0  0  0
 50 52  1  0  0  0  0
 51 50  1  0  0  0  0
 53 55  1  0  0  0  0
 54 55  1  0  0  0  0
M  END
>  <MODEL>
4

>  <REMARK>
 VINA RESULT:      -7.5      3.315      8.746
  Name = 
  18 active torsions:
  status: ('A' for Active; 'I' for Inactive)
    1  A    between atoms: C_1  and  C_29
    2  A    between atoms: O_2  and  C_11
    3  A    between atoms: O_2  and  C_51
    4  A    between atoms: C_7  and  S_12
    5  A    between atoms: C_11  and  O_13
    6  A    between atoms: C_11  and  C_35
    7  A    between atoms: S_12  and  C_28
    8  A    between atoms: O_13  and  C_34
    9  A    between atoms: C_15  and  O_38
   10  A    between atoms: C_17  and  C_26
   11  A    between atoms: C_20  and  C_34
   12  A    between atoms: C_21  and  C_27
   13  A    between atoms: O_22  and  C_28
   14  A    between atoms: C_27  and  O_38
   15  A    between atoms: C_28  and  C_46
   16  A    between atoms: C_32  and  C_51
   17  A    between atoms: C_44  and  C_52
   18  A    between atoms: C_45  and  C_49
                            x       y       z     vdW  Elec       q    Type
                         _______ _______ _______ _____ _____    ______ ____

>  <TORSDO>
F 18

$$$$
=
 OpenBabel11062415113D

 55 60  0  0  1  0  0  0  0  0999 V2000
  187.0090  174.2500  135.1460 C   0  0  2  0  0  3  0  0  0  0  0  0
  188.4900  174.3770  135.3890 C   0  0  0  0  0  2  0  0  0  0  0  0
  186.3250  174.8590  136.2110 O   0  0  0  0  0  0  0  0  0  0  0  0
  187.1760  175.8570  136.7160 C   0  0  1  0  0  3  0  0  0  0  0  0
  188.6050  175.5900  136.2510 C   0  0  1  0  0  3  0  0  0  0  0  0
  190.4260  176.3560  139.2950 C   0  0  2  0  0  3  0  0  0  0  0  0
  191.3700  176.5040  137.0940 O   0  0  0  0  0  0  0  0  0  0  0  0
  191.6650  176.7230  138.4530 C   0  0  0  0  0  2  0  0  0  0  0  0
  189.5260  175.3130  137.4380 C   0  0  1  0  0  3  0  0  0  0  0  0
  190.8870  175.2690  137.0210 O   0  0  0  0  0  0  0  0  0  0  0  0
  189.2900  176.2680  138.4640 O   0  0  0  0  0  0  0  0  0  0  0  0
  189.7000  176.5540  141.6740 C   0  0  2  0  0  3  0  0  0  0  0  0
  190.1350  177.3030  140.4720 C   0  0  2  0  0  3  0  0  0  0  0  0
  188.7830  177.2570  140.8720 O   0  0  0  0  0  0  0  0  0  0  0  0
  189.9990  177.3600  142.9220 C   0  0  0  0  0  2  0  0  0  0  0  0
  190.1580  176.4920  144.0200 O   0  0  0  0  0  0  0  0  0  0  0  0
  190.0380  177.2220  145.2340 C   0  0  2  0  0  0  0  0  0  0  0  0
  190.0690  178.5930  144.9310 O   0  0  0  0  0  1  0  0  0  0  0  0
  191.9530  175.6350  145.7580 C   0  0  0  0  0  1  0  0  0  0  0  0
  191.2320  176.9140  146.1610 C   0  0  2  0  0  3  0  0  0  0  0  0
  190.8070  176.8100  147.4880 O   0  0  0  0  0  1  0  0  0  0  0  0
  188.8340  176.9060  145.9150 O   0  0  0  0  0  0  0  0  0  0  0  0
  188.0870  178.0830  146.1050 C   0  0  0  0  0  2  0  0  0  0  0  0
  185.5460  178.4830  143.4730 C   0  0  0  0  0  3  0  0  0  0  0  0
  186.6010  177.9620  144.1140 C   0  0  0  0  0  3  0  0  0  0  0  0
  184.3350  178.7260  145.6830 C   0  0  0  0  0  2  0  0  0  0  0  0
  186.6660  177.8690  145.6200 C   0  0  2  0  0  3  0  0  0  0  0  0
  185.7230  178.8600  146.2960 C   0  0  0  0  0  2  0  0  0  0  0  0
  184.3900  179.1200  144.2080 C   0  0  2  0  0  3  0  0  0  0  0  0
  182.0460  178.6800  144.2200 O   0  0  0  0  0  1  0  0  0  0  0  0
  183.0940  178.8200  143.5310 C   0  0  0  0  0  0  0  0  0  0  0  0
  183.0350  178.6830  142.1460 O   0  0  0  0  0  0  0  0  0  0  0  0
  186.6080  172.8120  135.0340 C   0  0  0  0  0  0  0  0  0  0  0  0
  187.4820  171.9040  135.1280 O   0  0  0  0  0  1  0  0  0  0  0  0
  185.2710  172.4690  134.8410 O   0  0  0  0  0  0  0  0  0  0  0  0
  186.1660  177.8730  137.7060 C   0  0  0  0  0  1  0  0  0  0  0  0
  186.6840  177.2890  136.3810 C   0  0  1  0  0  0  0  0  0  0  0  0
  187.7670  178.0580  135.8580 O   0  0  0  0  0  0  0  0  0  0  0  0
  188.2690  178.9330  136.8480 C   0  0  0  0  0  1  0  0  0  0  0  0
  185.2120  177.2170  135.2520 S   0  0  0  0  0  0  0  0  0  0  0  0
  182.1990  176.5920  139.4290 C   0  0  0  0  0  2  0  0  0  0  0  0
  181.4270  177.1780  137.0700 C   0  0  0  0  0  2  0  0  0  0  0  0
  183.7640  176.6600  136.2640 C   0  0  1  0  0  0  0  0  0  0  0  0
  182.8790  177.6670  136.8680 C   0  0  2  0  0  3  0  0  0  0  0  0
  180.0030  176.1200  138.6490 O   0  0  0  0  0  1  0  0  0  0  0  0
  183.2090  175.2740  135.8950 C   0  0  0  0  0  1  0  0  0  0  0  0
  183.8980  176.9630  137.7120 N   0  0  1  0  0  0  0  0  0  0  0  0
  181.0270  177.0700  138.5530 C   0  0  1  0  0  0  0  0  0  0  0  0
  183.2960  175.9490  138.5920 C   0  0  0  0  0  2  0  0  0  0  0  0
  180.5030  178.4260  139.0630 C   0  0  0  0  0  0  0  0  0  0  0  0
  179.5780  178.2150  140.0800 F   0  0  0  0  0  0  0  0  0  0  0  0
  181.5730  179.1510  139.5650 F   0  0  0  0  0  0  0  0  0  0  0  0
  179.9020  179.1270  138.0000 O   0  0  0  0  0  0  0  0  0  0  0  0
  179.8980  181.3360  137.0880 C   0  0  0  0  0  1  0  0  0  0  0  0
  179.8710  180.4860  138.3360 C   0  0  0  0  0  2  0  0  0  0  0  0
  1 33  1  1  0  0  0
  1  2  1  0  0  0  0
  1  3  1  0  0  0  0
  3  4  1  0  0  0  0
  4 37  1  6  0  0  0
  5  2  1  6  0  0  0
  5  4  1  0  0  0  0
  5  9  1  0  0  0  0
  6  8  1  6  0  0  0
  6 13  1  0  0  0  0
  7  8  1  0  0  0  0
  9 10  1  6  0  0  0
  9 11  1  0  0  0  0
 10  7  1  0  0  0  0
 11  6  1  0  0  0  0
 12 15  1  1  0  0  0
 13 14  1  6  0  0  0
 13 12  1  0  0  0  0
 14 12  1  0  0  0  0
 15 16  1  0  0  0  0
 16 17  1  0  0  0  0
 17 18  1  6  0  0  0
 17 22  1  0  0  0  0
 17 20  1  0  0  0  0
 20 19  1  6  0  0  0
 20 21  1  0  0  0  0
 22 23  1  0  0  0  0
 24 25  2  0  0  0  0
 24 29  1  0  0  0  0
 25 27  1  0  0  0  0
 26 28  1  0  0  0  0
 27 23  1  1  0  0  0
 27 28  1  0  0  0  0
 29 31  1  6  0  0  0
 29 26  1  0  0  0  0
 31 30  1  0  0  0  0
 32 31  2  0  0  0  0
 33 34  1  0  0  0  0
 35 33  2  0  0  0  0
 37 36  1  1  0  0  0
 38 37  1  0  0  0  0
 38 39  1  0  0  0  0
 40 43  1  0  0  0  0
 40 37  1  0  0  0  0
 42 48  1  0  0  0  0
 43 46  1  6  0  0  0
 43 44  1  0  0  0  0
 43 47  1  0  0  0  0
 44 42  1  1  0  0  0
 44 47  1  0  0  0  0
 47 49  1  1  0  0  0
 48 45  1  1  0  0  0
 48 50  1  0  0  0  0
 48 41  1  0  0  0  0
 49 41  1  0  0  0  0
 50 52  1  0  0  0  0
 50 51  1  0  0  0  0
 53 55  1  0  0  0  0
 53 50  1  0  0  0  0
 54 55  1  0  0  0  0
M  END
>  <MODEL>
5

>  <REMARK>
 VINA RESULT:      -7.4      2.112      3.009
  Name = 
  18 active torsions:
  status: ('A' for Active; 'I' for Inactive)
    1  A    between atoms: C_1  and  C_29
    2  A    between atoms: O_2  and  C_11
    3  A    between atoms: O_2  and  C_51
    4  A    between atoms: C_7  and  S_12
    5  A    between atoms: C_11  and  O_13
    6  A    between atoms: C_11  and  C_35
    7  A    between atoms: S_12  and  C_28
    8  A    between atoms: O_13  and  C_34
    9  A    between atoms: C_15  and  O_38
   10  A    between atoms: C_17  and  C_26
   11  A    between atoms: C_20  and  C_34
   12  A    between atoms: C_21  and  C_27
   13  A    between atoms: O_22  and  C_28
   14  A    between atoms: C_27  and  O_38
   15  A    between atoms: C_28  and  C_46
   16  A    between atoms: C_32  and  C_51
   17  A    between atoms: C_44  and  C_52
   18  A    between atoms: C_45  and  C_49
                            x       y       z     vdW  Elec       q    Type
                         _______ _______ _______ _____ _____    ______ ____

>  <TORSDO>
F 18

$$$$
=
 OpenBabel11062415113D

 55 60  0  0  1  0  0  0  0  0999 V2000
  190.5150  177.2270  146.0820 C   0  0  2  0  0  3  0  0  0  0  0  0
  189.2360  177.9190  146.4730 C   0  0  0  0  0  2  0  0  0  0  0  0
  190.2520  176.3800  144.9920 O   0  0  0  0  0  0  0  0  0  0  0  0
  189.1650  176.9410  144.3010 C   0  0  1  0  0  3  0  0  0  0  0  0
  188.4360  177.9250  145.2130 C   0  0  1  0  0  3  0  0  0  0  0  0
  184.8210  178.2070  145.3550 C   0  0  2  0  0  3  0  0  0  0  0  0
  186.2760  178.6700  147.2050 O   0  0  0  0  0  0  0  0  0  0  0  0
  184.9220  178.6800  146.8190 C   0  0  0  0  0  2  0  0  0  0  0  0
  187.0060  177.4630  145.4890 C   0  0  1  0  0  3  0  0  0  0  0  0
  186.7360  177.4650  146.8870 O   0  0  0  0  0  0  0  0  0  0  0  0
  186.0920  178.2580  144.7450 O   0  0  0  0  0  0  0  0  0  0  0  0
  184.1670  178.9260  143.0560 C   0  0  2  0  0  3  0  0  0  0  0  0
  183.8020  178.9720  144.4920 C   0  0  2  0  0  3  0  0  0  0  0  0
  184.3820  180.0770  143.8360 O   0  0  0  0  0  0  0  0  0  0  0  0
  182.9310  179.1190  142.2020 C   0  0  0  0  0  2  0  0  0  0  0  0
  182.4940  177.8730  141.7120 O   0  0  0  0  0  0  0  0  0  0  0  0
  181.3360  178.0500  140.9080 C   0  0  2  0  0  0  0  0  0  0  0  0
  180.2270  177.5550  141.6140 O   0  0  0  0  0  1  0  0  0  0  0  0
  181.6150  175.7490  139.8640 C   0  0  0  0  0  1  0  0  0  0  0  0
  181.4650  177.2410  139.6010 C   0  0  2  0  0  3  0  0  0  0  0  0
  182.5540  177.6930  138.8510 O   0  0  0  0  0  1  0  0  0  0  0  0
  181.1300  179.4160  140.5830 O   0  0  0  0  0  0  0  0  0  0  0  0
  179.7550  179.6430  140.3830 C   0  0  0  0  0  2  0  0  0  0  0  0
  181.1970  181.6650  137.6670 C   0  0  0  0  0  3  0  0  0  0  0  0
  180.7440  180.5740  138.2990 C   0  0  0  0  0  3  0  0  0  0  0  0
  179.2650  183.0020  138.6110 C   0  0  0  0  0  2  0  0  0  0  0  0
  179.5610  180.6160  139.2370 C   0  0  2  0  0  3  0  0  0  0  0  0
  179.3070  182.0210  139.7760 C   0  0  0  0  0  2  0  0  0  0  0  0
  180.6330  183.0410  137.9310 C   0  0  2  0  0  3  0  0  0  0  0  0
  179.6300  183.6640  135.8580 O   0  0  0  0  0  0  0  0  0  0  0  0
  180.5760  183.8460  136.6740 C   0  0  0  0  0  0  0  0  0  0  0  0
  181.5640  184.7860  136.3910 O   0  0  0  0  0  1  0  0  0  0  0  0
  191.0650  176.4340  147.2270 C   0  0  0  0  0  0  0  0  0  0  0  0
  192.0360  176.8850  147.8980 O   0  0  0  0  0  1  0  0  0  0  0  0
  190.4990  175.2070  147.5660 O   0  0  0  0  0  0  0  0  0  0  0  0
  188.2670  177.7240  142.1470 C   0  0  0  0  0  1  0  0  0  0  0  0
  189.5740  177.5610  142.9400 C   0  0  1  0  0  0  0  0  0  0  0  0
  190.2150  178.8160  143.1580 O   0  0  0  0  0  0  0  0  0  0  0  0
  191.6160  178.6460  143.2290 C   0  0  0  0  0  1  0  0  0  0  0  0
  190.6050  176.3590  141.9700 S   0  0  0  0  0  0  0  0  0  0  0  0
  189.4350  176.3030  136.9160 C   0  0  0  0  0  2  0  0  0  0  0  0
  189.4530  178.3390  138.4500 C   0  0  0  0  0  2  0  0  0  0  0  0
  190.5790  176.9090  140.2010 C   0  0  1  0  0  0  0  0  0  0  0  0
  189.3030  177.3070  139.5890 C   0  0  2  0  0  3  0  0  0  0  0  0
  189.7340  178.5160  136.0990 O   0  0  0  0  0  1  0  0  0  0  0  0
  191.8960  177.5190  139.6910 C   0  0  0  0  0  1  0  0  0  0  0  0
  189.8870  175.9590  139.2920 N   0  0  1  0  0  0  0  0  0  0  0  0
  189.0450  177.7840  137.0730 C   0  0  1  0  0  0  0  0  0  0  0  0
  190.4750  175.8860  137.9450 C   0  0  0  0  0  2  0  0  0  0  0  0
  187.5300  177.9600  136.8560 C   0  0  0  0  0  0  0  0  0  0  0  0
  187.2370  179.3100  136.6920 F   0  0  0  0  0  0  0  0  0  0  0  0
  187.1670  177.2720  135.7070 F   0  0  0  0  0  0  0  0  0  0  0  0
  186.8340  177.4440  137.9660 O   0  0  0  0  0  0  0  0  0  0  0  0
  185.6590  178.6740  139.6450 C   0  0  0  0  0  1  0  0  0  0  0  0
  185.7160  178.2560  138.1940 C   0  0  0  0  0  2  0  0  0  0  0  0
  1  2  1  0  0  0  0
  1 33  1  1  0  0  0
  3  1  1  0  0  0  0
  4 37  1  6  0  0  0
  4  3  1  0  0  0  0
  4  5  1  0  0  0  0
  5  9  1  0  0  0  0
  5  2  1  1  0  0  0
  6  8  1  1  0  0  0
  8  7  1  0  0  0  0
  9 11  1  6  0  0  0
  9 10  1  0  0  0  0
 10  7  1  0  0  0  0
 11  6  1  0  0  0  0
 12 15  1  6  0  0  0
 12 14  1  0  0  0  0
 12 13  1  0  0  0  0
 13 14  1  1  0  0  0
 13  6  1  0  0  0  0
 16 15  1  0  0  0  0
 17 18  1  1  0  0  0
 17 16  1  0  0  0  0
 20 19  1  1  0  0  0
 20 17  1  0  0  0  0
 21 20  1  0  0  0  0
 22 17  1  0  0  0  0
 23 22  1  0  0  0  0
 24 29  1  0  0  0  0
 24 25  2  0  0  0  0
 25 27  1  0  0  0  0
 26 28  1  0  0  0  0
 27 28  1  0  0  0  0
 27 23  1  1  0  0  0
 29 31  1  6  0  0  0
 29 26  1  0  0  0  0
 30 31  2  0  0  0  0
 32 31  1  0  0  0  0
 33 35  2  0  0  0  0
 33 34  1  0  0  0  0
 37 36  1  6  0  0  0
 37 38  1  0  0  0  0
 38 39  1  0  0  0  0
 40 37  1  0  0  0  0
 41 48  1  0  0  0  0
 41 49  1  0  0  0  0
 43 46  1  6  0  0  0
 43 40  1  0  0  0  0
 44 42  1  6  0  0  0
 44 43  1  0  0  0  0
 47 49  1  6  0  0  0
 47 44  1  0  0  0  0
 47 43  1  0  0  0  0
 48 45  1  6  0  0  0
 48 42  1  0  0  0  0
 50 48  1  0  0  0  0
 50 53  1  0  0  0  0
 51 50  1  0  0  0  0
 52 50  1  0  0  0  0
 53 55  1  0  0  0  0
 55 54  1  0  0  0  0
M  END
>  <MODEL>
6

>  <REMARK>
 VINA RESULT:      -6.9      3.387      9.067
  Name = 
  18 active torsions:
  status: ('A' for Active; 'I' for Inactive)
    1  A    between atoms: C_1  and  C_29
    2  A    between atoms: O_2  and  C_11
    3  A    between atoms: O_2  and  C_51
    4  A    between atoms: C_7  and  S_12
    5  A    between atoms: C_11  and  O_13
    6  A    between atoms: C_11  and  C_35
    7  A    between atoms: S_12  and  C_28
    8  A    between atoms: O_13  and  C_34
    9  A    between atoms: C_15  and  O_38
   10  A    between atoms: C_17  and  C_26
   11  A    between atoms: C_20  and  C_34
   12  A    between atoms: C_21  and  C_27
   13  A    between atoms: O_22  and  C_28
   14  A    between atoms: C_27  and  O_38
   15  A    between atoms: C_28  and  C_46
   16  A    between atoms: C_32  and  C_51
   17  A    between atoms: C_44  and  C_52
   18  A    between atoms: C_45  and  C_49
                            x       y       z     vdW  Elec       q    Type
                         _______ _______ _______ _____ _____    ______ ____

>  <TORSDO>
F 18

$$$$
=
 OpenBabel11062415113D

 55 60  0  0  1  0  0  0  0  0999 V2000
  189.2820  175.3210  135.2400 C   0  0  2  0  0  3  0  0  0  0  0  0
  189.4930  176.7890  135.5030 C   0  0  0  0  0  2  0  0  0  0  0  0
  188.3760  174.8210  136.1910 O   0  0  0  0  0  0  0  0  0  0  0  0
  187.5590  175.8990  136.5720 C   0  0  1  0  0  3  0  0  0  0  0  0
  188.2370  177.2120  136.1880 C   0  0  1  0  0  3  0  0  0  0  0  0
  188.7020  177.8650  139.7270 C   0  0  2  0  0  3  0  0  0  0  0  0
  186.6550  178.2760  138.5440 O   0  0  0  0  0  0  0  0  0  0  0  0
  187.2360  178.3360  139.8250 C   0  0  0  0  0  2  0  0  0  0  0  0
  188.5610  178.0460  137.4260 C   0  0  1  0  0  3  0  0  0  0  0  0
  187.4850  178.9260  137.7370 O   0  0  0  0  0  0  0  0  0  0  0  0
  188.9080  177.1900  138.5060 O   0  0  0  0  0  0  0  0  0  0  0  0
  189.8760  177.7890  141.9280 C   0  0  2  0  0  3  0  0  0  0  0  0
  189.1820  176.9850  140.8930 C   0  0  2  0  0  3  0  0  0  0  0  0
  190.5870  176.9850  141.0180 O   0  0  0  0  0  0  0  0  0  0  0  0
  189.7980  177.0870  143.2680 C   0  0  0  0  0  2  0  0  0  0  0  0
  190.2290  177.9590  144.2860 O   0  0  0  0  0  0  0  0  0  0  0  0
  189.5260  177.6820  145.4890 C   0  0  2  0  0  0  0  0  0  0  0  0
  189.4310  178.8710  146.2310 O   0  0  0  0  0  1  0  0  0  0  0  0
  189.6710  176.4480  147.7060 C   0  0  0  0  0  1  0  0  0  0  0  0
  190.3030  176.6540  146.3370 C   0  0  2  0  0  3  0  0  0  0  0  0
  191.6320  177.0550  146.4940 O   0  0  0  0  0  1  0  0  0  0  0  0
  188.2270  177.1720  145.2280 O   0  0  0  0  0  0  0  0  0  0  0  0
  187.2760  177.9580  145.9060 C   0  0  0  0  0  2  0  0  0  0  0  0
  183.8430  178.7230  144.8220 C   0  0  0  0  0  3  0  0  0  0  0  0
  184.9800  178.8340  145.5230 C   0  0  0  0  0  3  0  0  0  0  0  0
  185.1920  178.3320  142.7150 C   0  0  0  0  0  2  0  0  0  0  0  0
  186.3370  178.6000  144.9030 C   0  0  2  0  0  3  0  0  0  0  0  0
  186.2510  177.7480  143.6400 C   0  0  0  0  0  2  0  0  0  0  0  0
  183.8240  178.2440  143.3890 C   0  0  2  0  0  3  0  0  0  0  0  0
  182.7990  178.8920  141.3350 O   0  0  0  0  0  0  0  0  0  0  0  0
  182.7940  178.9770  142.5940 C   0  0  0  0  0  0  0  0  0  0  0  0
  181.8360  179.7630  143.2310 O   0  0  0  0  0  1  0  0  0  0  0  0
  190.5760  174.5730  135.3210 C   0  0  0  0  0  0  0  0  0  0  0  0
  191.5940  175.0040  134.7080 O   0  0  0  0  0  0  0  0  0  0  0  0
  190.6680  173.4100  136.0840 O   0  0  0  0  0  1  0  0  0  0  0  0
  185.7650  177.1640  135.4580 C   0  0  0  0  0  1  0  0  0  0  0  0
  186.1130  175.7770  136.0250 C   0  0  1  0  0  0  0  0  0  0  0  0
  186.0640  174.7710  135.0150 O   0  0  0  0  0  0  0  0  0  0  0  0
  185.6270  173.5450  135.5650 C   0  0  0  0  0  1  0  0  0  0  0  0
  184.9200  175.4890  137.4190 S   0  0  0  0  0  0  0  0  0  0  0  0
  180.1240  177.4110  137.8930 C   0  0  0  0  0  2  0  0  0  0  0  0
  181.9520  178.2510  136.3250 C   0  0  0  0  0  2  0  0  0  0  0  0
  183.2830  176.1820  136.9000 C   0  0  1  0  0  0  0  0  0  0  0  0
  182.9190  177.5490  137.3040 C   0  0  2  0  0  3  0  0  0  0  0  0
  179.6440  178.6050  135.8930 O   0  0  0  0  0  1  0  0  0  0  0  0
  182.7080  175.5890  135.6030 C   0  0  0  0  0  1  0  0  0  0  0  0
  182.3330  176.3730  138.0260 N   0  0  1  0  0  0  0  0  0  0  0  0
  180.5700  178.5360  136.9410 C   0  0  1  0  0  0  0  0  0  0  0  0
  180.9250  176.1370  137.6660 C   0  0  0  0  0  2  0  0  0  0  0  0
  180.5870  179.8850  137.6850 C   0  0  0  0  0  0  0  0  0  0  0  0
  179.8200  179.7880  138.8420 F   0  0  0  0  0  0  0  0  0  0  0  0
  181.8980  180.1790  138.0330 F   0  0  0  0  0  0  0  0  0  0  0  0
  180.0740  180.8910  136.8460 O   0  0  0  0  0  0  0  0  0  0  0  0
  179.9890  183.1160  137.7110 C   0  0  0  0  0  1  0  0  0  0  0  0
  180.8290  182.0530  137.0450 C   0  0  0  0  0  2  0  0  0  0  0  0
  1 33  1  1  0  0  0
  1  2  1  0  0  0  0
  1  3  1  0  0  0  0
  3  4  1  0  0  0  0
  4 37  1  6  0  0  0
  5  2  1  1  0  0  0
  5  4  1  0  0  0  0
  5  9  1  0  0  0  0
  6  8  1  1  0  0  0
  6 13  1  0  0  0  0
  7  8  1  0  0  0  0
  9 10  1  1  0  0  0
  9 11  1  0  0  0  0
 10  7  1  0  0  0  0
 11  6  1  0  0  0  0
 12 15  1  1  0  0  0
 13 14  1  6  0  0  0
 13 12  1  0  0  0  0
 14 12  1  0  0  0  0
 15 16  1  0  0  0  0
 16 17  1  0  0  0  0
 17 18  1  1  0  0  0
 17 20  1  0  0  0  0
 20 21  1  0  0  0  0
 20 19  1  1  0  0  0
 22 17  1  0  0  0  0
 22 23  1  0  0  0  0
 24 25  2  0  0  0  0
 26 29  1  0  0  0  0
 26 28  1  0  0  0  0
 27 25  1  0  0  0  0
 27 23  1  1  0  0  0
 28 27  1  0  0  0  0
 29 31  1  6  0  0  0
 29 24  1  0  0  0  0
 30 31  2  0  0  0  0
 31 32  1  0  0  0  0
 33 35  1  0  0  0  0
 34 33  2  0  0  0  0
 37 36  1  6  0  0  0
 37 40  1  0  0  0  0
 38 39  1  0  0  0  0
 38 37  1  0  0  0  0
 42 48  1  0  0  0  0
 43 46  1  6  0  0  0
 43 44  1  0  0  0  0
 43 40  1  0  0  0  0
 43 47  1  0  0  0  0
 44 42  1  6  0  0  0
 44 47  1  0  0  0  0
 47 49  1  6  0  0  0
 48 45  1  6  0  0  0
 48 50  1  0  0  0  0
 48 41  1  0  0  0  0
 49 41  1  0  0  0  0
 50 52  1  0  0  0  0
 50 51  1  0  0  0  0
 53 55  1  0  0  0  0
 53 50  1  0  0  0  0
 55 54  1  0  0  0  0
M  END
>  <MODEL>
7

>  <REMARK>
 VINA RESULT:      -6.9      2.320      2.919
  Name = 
  18 active torsions:
  status: ('A' for Active; 'I' for Inactive)
    1  A    between atoms: C_1  and  C_29
    2  A    between atoms: O_2  and  C_11
    3  A    between atoms: O_2  and  C_51
    4  A    between atoms: C_7  and  S_12
    5  A    between atoms: C_11  and  O_13
    6  A    between atoms: C_11  and  C_35
    7  A    between atoms: S_12  and  C_28
    8  A    between atoms: O_13  and  C_34
    9  A    between atoms: C_15  and  O_38
   10  A    between atoms: C_17  and  C_26
   11  A    between atoms: C_20  and  C_34
   12  A    between atoms: C_21  and  C_27
   13  A    between atoms: O_22  and  C_28
   14  A    between atoms: C_27  and  O_38
   15  A    between atoms: C_28  and  C_46
   16  A    between atoms: C_32  and  C_51
   17  A    between atoms: C_44  and  C_52
   18  A    between atoms: C_45  and  C_49
                            x       y       z     vdW  Elec       q    Type
                         _______ _______ _______ _____ _____    ______ ____

>  <TORSDO>
F 18

$$$$
=
 OpenBabel11062415113D

 55 60  0  0  1  0  0  0  0  0999 V2000
  190.5380  176.7000  140.2870 C   0  0  2  0  0  3  0  0  0  0  0  0
  190.3530  178.0990  139.7630 C   0  0  0  0  0  2  0  0  0  0  0  0
  189.8920  175.8050  139.4160 O   0  0  0  0  0  0  0  0  0  0  0  0
  189.8930  176.4090  138.1480 C   0  0  1  0  0  3  0  0  0  0  0  0
  190.1520  177.9070  138.2970 C   0  0  1  0  0  3  0  0  0  0  0  0
  186.6690  178.5500  137.5070 C   0  0  2  0  0  3  0  0  0  0  0  0
  188.2890  177.7900  135.9090 O   0  0  0  0  0  0  0  0  0  0  0  0
  186.9250  178.1100  136.0510 C   0  0  0  0  0  2  0  0  0  0  0  0
  188.9540  178.7220  137.8120 C   0  0  1  0  0  3  0  0  0  0  0  0
  188.9590  178.8300  136.3920 O   0  0  0  0  0  0  0  0  0  0  0  0
  187.7520  178.1630  138.3230 O   0  0  0  0  0  0  0  0  0  0  0  0
  184.5260  179.1610  138.6310 C   0  0  2  0  0  3  0  0  0  0  0  0
  185.3520  178.0420  138.1190 C   0  0  2  0  0  3  0  0  0  0  0  0
  185.2580  178.3280  139.4970 O   0  0  0  0  0  0  0  0  0  0  0  0
  183.0660  178.7580  138.6570 C   0  0  0  0  0  2  0  0  0  0  0  0
  182.3250  179.7080  139.3860 O   0  0  0  0  0  0  0  0  0  0  0  0
  181.5830  179.0590  140.4100 C   0  0  2  0  0  0  0  0  0  0  0  0
  181.7170  177.6710  140.2420 O   0  0  0  0  0  1  0  0  0  0  0  0
  179.5130  179.0090  138.9360 C   0  0  0  0  0  1  0  0  0  0  0  0
  180.0860  179.4100  140.2880 C   0  0  2  0  0  3  0  0  0  0  0  0
  179.8860  180.7770  140.4910 O   0  0  0  0  0  1  0  0  0  0  0  0
  182.0380  179.4340  141.7010 O   0  0  0  0  0  0  0  0  0  0  0  0
  182.9070  178.4420  142.1920 C   0  0  0  0  0  2  0  0  0  0  0  0
  185.8440  178.2620  144.4030 C   0  0  0  0  0  3  0  0  0  0  0  0
  185.1280  178.5470  143.3070 C   0  0  0  0  0  3  0  0  0  0  0  0
  183.8980  178.9900  145.8510 C   0  0  0  0  0  2  0  0  0  0  0  0
  183.6840  178.9850  143.3760 C   0  0  2  0  0  3  0  0  0  0  0  0
  183.0190  178.5620  144.6820 C   0  0  0  0  0  2  0  0  0  0  0  0
  185.2300  178.2460  145.7840 C   0  0  2  0  0  3  0  0  0  0  0  0
  186.0030  179.9280  147.2870 O   0  0  0  0  0  1  0  0  0  0  0  0
  186.1850  178.7780  146.8000 C   0  0  0  0  0  0  0  0  0  0  0  0
  187.2810  178.0200  147.2060 O   0  0  0  0  0  0  0  0  0  0  0  0
  189.9770  176.5670  141.6680 C   0  0  0  0  0  0  0  0  0  0  0  0
  190.6090  175.9140  142.5460 O   0  0  0  0  0  1  0  0  0  0  0  0
  188.7650  177.1740  141.9940 O   0  0  0  0  0  0  0  0  0  0  0  0
  191.1800  174.3450  137.7690 C   0  0  0  0  0  1  0  0  0  0  0  0
  190.8660  175.7200  137.1560 C   0  0  1  0  0  0  0  0  0  0  0  0
  190.2400  175.5930  135.8800 O   0  0  0  0  0  0  0  0  0  0  0  0
  189.3190  174.5220  135.8900 C   0  0  0  0  0  1  0  0  0  0  0  0
  192.4830  176.6300  137.1030 S   0  0  0  0  0  0  0  0  0  0  0  0
  197.1040  174.6180  135.8710 C   0  0  0  0  0  2  0  0  0  0  0  0
  194.9540  173.3240  136.3250 C   0  0  0  0  0  2  0  0  0  0  0  0
  193.7140  175.5250  136.2700 C   0  0  1  0  0  0  0  0  0  0  0  0
  194.5150  174.5970  137.0830 C   0  0  2  0  0  3  0  0  0  0  0  0
  196.7140  172.4400  134.9980 O   0  0  0  0  0  1  0  0  0  0  0  0
  193.3890  175.1770  134.8080 C   0  0  0  0  0  1  0  0  0  0  0  0
  195.1270  175.8680  136.5770 N   0  0  1  0  0  0  0  0  0  0  0  0
  196.4780  173.2350  136.1270 C   0  0  1  0  0  0  0  0  0  0  0  0
  196.0540  175.6390  135.4580 C   0  0  0  0  0  2  0  0  0  0  0  0
  197.1360  172.5730  137.3530 C   0  0  0  0  0  0  0  0  0  0  0  0
  198.3140  171.9430  136.9650 F   0  0  0  0  0  0  0  0  0  0  0  0
  197.4330  173.5620  138.2800 F   0  0  0  0  0  0  0  0  0  0  0  0
  196.2480  171.6370  137.9140 O   0  0  0  0  0  0  0  0  0  0  0  0
  195.4220  169.6570  136.8610 C   0  0  0  0  0  1  0  0  0  0  0  0
  196.6140  170.3630  137.4620 C   0  0  0  0  0  2  0  0  0  0  0  0
  1 33  1  1  0  0  0
  2  1  1  0  0  0  0
  3  1  1  0  0  0  0
  4 37  1  6  0  0  0
  4  5  1  0  0  0  0
  4  3  1  0  0  0  0
  5  2  1  1  0  0  0
  6  8  1  6  0  0  0
  6 13  1  0  0  0  0
  6 11  1  0  0  0  0
  7  8  1  0  0  0  0
  7 10  1  0  0  0  0
  9 10  1  6  0  0  0
  9  5  1  0  0  0  0
  9 11  1  0  0  0  0
 12 15  1  1  0  0  0
 12 14  1  0  0  0  0
 13 12  1  0  0  0  0
 13 14  1  1  0  0  0
 15 16  1  0  0  0  0
 16 17  1  0  0  0  0
 17 18  1  6  0  0  0
 17 22  1  0  0  0  0
 20 19  1  6  0  0  0
 20 17  1  0  0  0  0
 20 21  1  0  0  0  0
 22 23  1  0  0  0  0
 24 29  1  0  0  0  0
 25 27  1  0  0  0  0
 25 24  2  0  0  0  0
 27 23  1  6  0  0  0
 27 28  1  0  0  0  0
 28 26  1  0  0  0  0
 29 26  1  0  0  0  0
 29 31  1  1  0  0  0
 31 32  2  0  0  0  0
 31 30  1  0  0  0  0
 33 35  2  0  0  0  0
 33 34  1  0  0  0  0
 37 36  1  1  0  0  0
 38 39  1  0  0  0  0
 38 37  1  0  0  0  0
 40 37  1  0  0  0  0
 41 48  1  0  0  0  0
 43 46  1  6  0  0  0
 43 47  1  0  0  0  0
 43 44  1  0  0  0  0
 43 40  1  0  0  0  0
 44 42  1  6  0  0  0
 47 49  1  6  0  0  0
 47 44  1  0  0  0  0
 48 45  1  6  0  0  0
 48 42  1  0  0  0  0
 48 50  1  0  0  0  0
 49 41  1  0  0  0  0
 50 53  1  0  0  0  0
 50 52  1  0  0  0  0
 51 50  1  0  0  0  0
 54 55  1  0  0  0  0
 55 53  1  0  0  0  0
M  END
>  <MODEL>
8

>  <REMARK>
 VINA RESULT:      -6.8      4.615      9.752
  Name = 
  18 active torsions:
  status: ('A' for Active; 'I' for Inactive)
    1  A    between atoms: C_1  and  C_29
    2  A    between atoms: O_2  and  C_11
    3  A    between atoms: O_2  and  C_51
    4  A    between atoms: C_7  and  S_12
    5  A    between atoms: C_11  and  O_13
    6  A    between atoms: C_11  and  C_35
    7  A    between atoms: S_12  and  C_28
    8  A    between atoms: O_13  and  C_34
    9  A    between atoms: C_15  and  O_38
   10  A    between atoms: C_17  and  C_26
   11  A    between atoms: C_20  and  C_34
   12  A    between atoms: C_21  and  C_27
   13  A    between atoms: O_22  and  C_28
   14  A    between atoms: C_27  and  O_38
   15  A    between atoms: C_28  and  C_46
   16  A    between atoms: C_32  and  C_51
   17  A    between atoms: C_44  and  C_52
   18  A    between atoms: C_45  and  C_49
                            x       y       z     vdW  Elec       q    Type
                         _______ _______ _______ _____ _____    ______ ____

>  <TORSDO>
F 18

$$$$
=
 OpenBabel11062415113D

 55 60  0  0  1  0  0  0  0  0999 V2000
  190.8700  177.2030  145.5050 C   0  0  2  0  0  3  0  0  0  0  0  0
  189.5880  177.8520  145.9530 C   0  0  0  0  0  2  0  0  0  0  0  0
  190.6080  176.4410  144.3520 O   0  0  0  0  0  0  0  0  0  0  0  0
  189.5140  177.0470  143.7120 C   0  0  1  0  0  3  0  0  0  0  0  0
  188.7830  177.9520  144.7010 C   0  0  1  0  0  3  0  0  0  0  0  0
  185.1580  178.1430  144.7290 C   0  0  2  0  0  3  0  0  0  0  0  0
  186.5460  178.6850  146.6100 O   0  0  0  0  0  0  0  0  0  0  0  0
  185.2040  178.6510  146.1840 C   0  0  0  0  0  2  0  0  0  0  0  0
  187.3570  177.4590  144.9440 C   0  0  1  0  0  3  0  0  0  0  0  0
  187.0450  177.4850  146.3340 O   0  0  0  0  0  0  0  0  0  0  0  0
  186.4450  178.2130  144.1560 O   0  0  0  0  0  0  0  0  0  0  0  0
  184.1040  178.2500  142.4700 C   0  0  2  0  0  3  0  0  0  0  0  0
  184.1470  178.8620  143.8190 C   0  0  2  0  0  3  0  0  0  0  0  0
  184.7670  179.4680  142.7070 O   0  0  0  0  0  0  0  0  0  0  0  0
  182.7630  178.5240  141.8200 C   0  0  0  0  0  2  0  0  0  0  0  0
  182.9480  179.2990  140.6590 O   0  0  0  0  0  0  0  0  0  0  0  0
  182.1340  178.7970  139.6080 C   0  0  2  0  0  0  0  0  0  0  0  0
  182.8480  178.9090  138.4030 O   0  0  0  0  0  1  0  0  0  0  0  0
  180.8950  180.5710  138.2750 C   0  0  0  0  0  1  0  0  0  0  0  0
  180.8490  179.6410  139.4790 C   0  0  2  0  0  3  0  0  0  0  0  0
  180.6380  180.3910  140.6380 O   0  0  0  0  0  1  0  0  0  0  0  0
  181.7730  177.4430  139.8300 O   0  0  0  0  0  0  0  0  0  0  0  0
  181.3530  176.8700  138.6150 C   0  0  0  0  0  2  0  0  0  0  0  0
  184.0140  174.5440  137.5870 C   0  0  0  0  0  3  0  0  0  0  0  0
  183.3780  175.4510  138.3410 C   0  0  0  0  0  3  0  0  0  0  0  0
  181.8190  173.3410  137.2010 C   0  0  0  0  0  2  0  0  0  0  0  0
  181.8770  175.4510  138.5130 C   0  0  2  0  0  3  0  0  0  0  0  0
  181.1720  174.7080  137.3810 C   0  0  0  0  0  2  0  0  0  0  0  0
  183.2710  173.5210  136.7610 C   0  0  2  0  0  3  0  0  0  0  0  0
  183.3330  171.1390  136.8690 O   0  0  0  0  0  1  0  0  0  0  0  0
  183.9890  172.2110  136.7590 C   0  0  0  0  0  0  0  0  0  0  0  0
  185.3770  172.1660  136.6470 O   0  0  0  0  0  0  0  0  0  0  0  0
  191.4300  176.3270  146.5810 C   0  0  0  0  0  0  0  0  0  0  0  0
  191.0800  176.5030  147.7830 O   0  0  0  0  0  1  0  0  0  0  0  0
  192.3250  175.3070  146.2630 O   0  0  0  0  0  0  0  0  0  0  0  0
  190.9570  178.8270  142.8110 C   0  0  0  0  0  1  0  0  0  0  0  0
  189.9130  177.7740  142.4020 C   0  0  1  0  0  0  0  0  0  0  0  0
  190.4550  176.8330  141.4760 O   0  0  0  0  0  0  0  0  0  0  0  0
  191.8120  177.1280  141.2150 C   0  0  0  0  0  1  0  0  0  0  0  0
  188.4700  178.7300  141.7310 S   0  0  0  0  0  0  0  0  0  0  0  0
  189.4310  178.0130  136.6830 C   0  0  0  0  0  2  0  0  0  0  0  0
  188.4560  176.3020  138.3030 C   0  0  0  0  0  2  0  0  0  0  0  0
  188.1950  178.1680  139.9870 C   0  0  1  0  0  0  0  0  0  0  0  0
  189.1080  177.1770  139.3980 C   0  0  2  0  0  3  0  0  0  0  0  0
  188.0830  176.1920  135.9610 O   0  0  0  0  0  1  0  0  0  0  0  0
  186.7390  178.2520  139.5000 C   0  0  0  0  0  1  0  0  0  0  0  0
  189.2440  178.6260  139.0410 N   0  0  1  0  0  0  0  0  0  0  0  0
  189.0570  176.5360  136.9060 C   0  0  1  0  0  0  0  0  0  0  0  0
  188.7420  178.9220  137.6900 C   0  0  0  0  0  2  0  0  0  0  0  0
  190.2940  175.6390  136.7020 C   0  0  0  0  0  0  0  0  0  0  0  0
  190.2440  174.5690  137.5890 F   0  0  0  0  0  0  0  0  0  0  0  0
  190.2760  175.1540  135.4020 F   0  0  0  0  0  0  0  0  0  0  0  0
  191.4620  176.3940  136.9180 O   0  0  0  0  0  0  0  0  0  0  0  0
  193.7520  175.7730  136.6350 C   0  0  0  0  0  1  0  0  0  0  0  0
  192.4150  176.0030  135.9700 C   0  0  0  0  0  2  0  0  0  0  0  0
  1  2  1  0  0  0  0
  1 33  1  1  0  0  0
  3  1  1  0  0  0  0
  4 37  1  6  0  0  0
  4  3  1  0  0  0  0
  4  5  1  0  0  0  0
  5  9  1  0  0  0  0
  5  2  1  1  0  0  0
  6  8  1  1  0  0  0
  8  7  1  0  0  0  0
  9 11  1  6  0  0  0
  9 10  1  0  0  0  0
 10  7  1  0  0  0  0
 11  6  1  0  0  0  0
 12 15  1  6  0  0  0
 12 14  1  0  0  0  0
 12 13  1  0  0  0  0
 13 14  1  6  0  0  0
 13  6  1  0  0  0  0
 16 15  1  0  0  0  0
 17 18  1  6  0  0  0
 17 22  1  0  0  0  0
 17 16  1  0  0  0  0
 20 19  1  6  0  0  0
 20 17  1  0  0  0  0
 20 21  1  0  0  0  0
 23 22  1  0  0  0  0
 24 25  2  0  0  0  0
 25 27  1  0  0  0  0
 26 28  1  0  0  0  0
 27 23  1  6  0  0  0
 28 27  1  0  0  0  0
 29 31  1  1  0  0  0
 29 26  1  0  0  0  0
 29 24  1  0  0  0  0
 31 30  1  0  0  0  0
 32 31  2  0  0  0  0
 33 34  1  0  0  0  0
 35 33  2  0  0  0  0
 37 36  1  1  0  0  0
 38 37  1  0  0  0  0
 39 38  1  0  0  0  0
 40 37  1  0  0  0  0
 41 48  1  0  0  0  0
 41 49  1  0  0  0  0
 43 46  1  6  0  0  0
 43 40  1  0  0  0  0
 44 42  1  6  0  0  0
 44 43  1  0  0  0  0
 47 49  1  6  0  0  0
 47 44  1  0  0  0  0
 47 43  1  0  0  0  0
 48 45  1  6  0  0  0
 48 42  1  0  0  0  0
 50 48  1  0  0  0  0
 50 53  1  0  0  0  0
 50 51  1  0  0  0  0
 52 50  1  0  0  0  0
 55 54  1  0  0  0  0
 55 53  1  0  0  0  0
M  END
>  <MODEL>
9

>  <REMARK>
 VINA RESULT:      -6.8      2.953      9.375
  Name = 
  18 active torsions:
  status: ('A' for Active; 'I' for Inactive)
    1  A    between atoms: C_1  and  C_29
    2  A    between atoms: O_2  and  C_11
    3  A    between atoms: O_2  and  C_51
    4  A    between atoms: C_7  and  S_12
    5  A    between atoms: C_11  and  O_13
    6  A    between atoms: C_11  and  C_35
    7  A    between atoms: S_12  and  C_28
    8  A    between atoms: O_13  and  C_34
    9  A    between atoms: C_15  and  O_38
   10  A    between atoms: C_17  and  C_26
   11  A    between atoms: C_20  and  C_34
   12  A    between atoms: C_21  and  C_27
   13  A    between atoms: O_22  and  C_28
   14  A    between atoms: C_27  and  O_38
   15  A    between atoms: C_28  and  C_46
   16  A    between atoms: C_32  and  C_51
   17  A    between atoms: C_44  and  C_52
   18  A    between atoms: C_45  and  C_49
                            x       y       z     vdW  Elec       q    Type
                         _______ _______ _______ _____ _____    ______ ____

>  <TORSDO>
F 18

$$$$
