=
 OpenBabel11062415143D

 52 58  0  0  1  0  0  0  0  0999 V2000
  184.8050  178.3580  142.1910 C   0  0  0  0  0  0  0  0  0  0  0  0
  184.0260  179.0480  139.1690 C   0  0  2  0  0  3  0  0  0  0  0  0
  179.4760  180.2960  143.0870 C   0  0  2  0  0  3  0  0  0  0  0  0
  185.1320  179.4190  139.9860 O   0  0  0  0  0  0  0  0  0  0  0  0
  178.9310  179.7660  141.7440 C   0  0  0  0  0  2  0  0  0  0  0  0
  180.2640  178.8340  139.7530 O   0  0  0  0  0  0  0  0  0  0  0  0
  185.2920  177.7400  143.1770 O   0  0  0  0  0  0  0  0  0  0  0  0
  182.5750  179.1740  141.3470 C   0  0  0  0  0  0  0  0  0  0  0  0
  182.7360  178.6520  139.9200 C   0  0  1  0  0  3  0  0  0  0  0  0
  185.6260  178.6020  140.9990 C   0  0  0  0  0  0  0  0  0  0  0  0
  181.2290  179.5830  141.7750 C   0  0  0  0  0  0  0  0  0  0  0  0
  183.4580  178.9300  142.3250 C   0  0  0  0  0  3  0  0  0  0  0  0
  180.1750  179.3800  141.0320 C   0  0  0  0  0  0  0  0  0  0  0  0
  181.4890  178.9210  139.0180 C   0  0  2  0  0  3  0  0  0  0  0  0
  186.8530  178.0980  140.8990 C   0  0  0  0  0  3  0  0  0  0  0  0
  180.8870  180.1180  143.0020 O   0  0  0  0  0  0  0  0  0  0  0  0
  184.4120  178.0150  138.1490 C   0  0  0  0  0  0  0  0  0  0  0  0
  183.9220  176.7030  138.2590 C   0  0  0  0  0  0  0  0  0  0  0  0
  185.2890  178.3460  137.1080 C   0  0  0  0  0  3  0  0  0  0  0  0
  185.2460  176.0600  136.3120 C   0  0  0  0  0  0  0  0  0  0  0  0
  185.7000  177.3750  136.1930 C   0  0  0  0  0  3  0  0  0  0  0  0
  184.3470  175.7320  137.3400 C   0  0  0  0  0  3  0  0  0  0  0  0
  185.4490  173.7090  135.5700 C   0  0  0  0  0  1  0  0  0  0  0  0
  185.7080  175.0980  135.4100 O   0  0  0  0  0  0  0  0  0  0  0  0
  183.0320  176.3830  139.2910 O   0  0  0  0  0  0  0  0  0  0  0  0
  182.2330  175.2090  139.2840 C   0  0  0  0  0  3  0  0  0  0  0  0
  180.9620  175.4750  138.5050 C   0  0  0  0  0  2  0  0  0  0  0  0
  180.9380  175.4840  140.0190 C   0  0  0  0  0  2  0  0  0  0  0  0
  187.9100  178.4450  138.3890 O   0  0  0  0  0  0  0  0  0  0  0  0
  188.9830  178.4890  139.1280 C   0  0  1  0  0  3  0  0  0  0  0  0
  187.6690  178.3950  139.7700 N   0  0  0  0  0  0  0  0  0  0  0  0
  189.6320  177.1830  139.1120 N   0  0  0  0  0  0  0  0  0  0  0  0
  190.9540  177.3480  139.6940 C   0  0  0  0  0  1  0  0  0  0  0  0
  188.7230  175.8430  137.0120 O   0  0  0  0  0  0  0  0  0  0  0  0
  189.8500  176.7400  137.4440 S   0  0  0  0  0  0  0  0  0  0  0  0
  189.8530  177.9650  136.5750 O   0  0  0  0  0  0  0  0  0  0  0  0
  192.9030  174.3150  137.2670 N   0  0  0  0  0  0  0  0  0  0  0  0
  191.3680  175.8860  137.2320 C   0  0  0  0  0  0  0  0  0  0  0  0
  192.4350  176.3990  136.6750 O   0  0  0  0  0  0  0  0  0  0  0  0
  191.6270  174.5880  137.6110 C   0  0  0  0  0  3  0  0  0  0  0  0
  194.7190  175.6230  136.1560 C   0  0  0  0  0  1  0  0  0  0  0  0
  193.3460  175.4550  136.7000 C   0  0  0  0  0  0  0  0  0  0  0  0
  181.5570  180.2640  138.3430 C   0  0  0  0  0  3  0  0  0  0  0  0
  181.0430  180.5130  137.1330 C   0  0  0  0  0  0  0  0  0  0  0  0
  181.1650  181.9130  136.6030 C   0  0  0  0  0  2  0  0  0  0  0  0
  180.1150  183.9630  136.2270 C   0  0  0  0  0  1  0  0  0  0  0  0
  179.8650  182.5500  136.4530 N   0  0  0  0  0  2  0  0  0  0  0  0
  180.3690  179.4320  136.3330 C   0  0  0  0  0  2  0  0  0  0  0  0
  181.2060  179.0450  135.1280 C   0  0  0  0  0  2  0  0  0  0  0  0
  181.9870  177.9270  135.4230 O   0  0  0  0  0  1  0  0  0  0  0  0
  178.9310  179.4710  144.2440 C   0  0  0  0  0  2  0  0  0  0  0  0
  179.6730  178.1560  144.3560 C   0  0  0  0  0  1  0  0  0  0  0  0
  1 12  1  0  0  0  0
  1  7  2  0  0  0  0
  2 17  1  1  0  0  0
  2  9  1  0  0  0  0
  2  4  1  0  0  0  0
  3 51  1  1  0  0  0
  4 10  1  0  0  0  0
  5  3  1  0  0  0  0
  6 13  1  0  0  0  0
  8 11  1  0  0  0  0
  8 12  2  0  0  0  0
  9  8  1  1  0  0  0
 10  1  1  0  0  0  0
 11 16  1  0  0  0  0
 13  5  1  0  0  0  0
 13 11  2  0  0  0  0
 14 43  1  1  0  0  0
 14  6  1  0  0  0  0
 14  9  1  0  0  0  0
 15 10  2  0  0  0  0
 16  3  1  0  0  0  0
 17 18  1  0  0  0  0
 18 25  1  0  0  0  0
 19 17  2  0  0  0  0
 20 22  1  0  0  0  0
 21 20  2  0  0  0  0
 21 19  1  0  0  0  0
 22 18  2  0  0  0  0
 24 23  1  0  0  0  0
 24 20  1  0  0  0  0
 26 25  1  0  0  0  0
 26 28  1  0  0  0  0
 27 26  1  0  0  0  0
 27 28  1  0  0  0  0
 29 30  1  0  0  0  0
 29 31  1  0  0  0  0
 30 32  1  6  0  0  0
 30 31  1  0  0  0  0
 31 15  1  0  0  0  0
 32 33  1  0  0  0  0
 34 35  2  0  0  0  0
 35 32  1  0  0  0  0
 36 35  2  0  0  0  0
 37 40  1  0  0  0  0
 38 35  1  0  0  0  0
 38 40  2  0  0  0  0
 39 42  1  0  0  0  0
 39 38  1  0  0  0  0
 41 42  1  0  0  0  0
 42 37  2  0  0  0  0
 44 43  2  0  0  0  0
 45 44  1  0  0  0  0
 46 47  1  0  0  0  0
 47 45  1  0  0  0  0
 48 44  1  0  0  0  0
 49 50  1  0  0  0  0
 49 48  1  0  0  0  0
 51 52  1  0  0  0  0
M  END
>  <MODEL>
1

>  <REMARK>
 VINA RESULT:      -5.9      0.000      0.000
  Name = 
  14 active torsions:
  status: ('A' for Active; 'I' for Inactive)
    1  A    between atoms: C_2  and  C_11
    2  A    between atoms: C_3  and  C_26
    3  A    between atoms: O_9  and  C_14
    4  A    between atoms: O_9  and  C_17
    5  A    between atoms: N_12  and  C_36
    6  A    between atoms: N_15  and  S_21
    7  A    between atoms: N_15  and  C_40
    8  A    between atoms: C_16  and  S_21
    9  A    between atoms: C_18  and  C_39
   10  A    between atoms: C_23  and  C_42
   11  A    between atoms: C_27  and  O_46
   12  A    between atoms: C_36  and  C_51
   13  A    between atoms: C_39  and  C_51
   14  A    between atoms: N_43  and  C_47
                            x       y       z     vdW  Elec       q    Type
                         _______ _______ _______ _____ _____    ______ ____

>  <TORSDO>
F 14

$$$$
=
 OpenBabel11062415143D

 52 58  0  0  1  0  0  0  0  0999 V2000
  185.0590  178.3690  141.6120 C   0  0  0  0  0  0  0  0  0  0  0  0
  184.2250  178.9790  138.5870 C   0  0  2  0  0  3  0  0  0  0  0  0
  179.6080  179.9280  142.5100 C   0  0  2  0  0  3  0  0  0  0  0  0
  185.3040  179.4350  139.3970 O   0  0  0  0  0  0  0  0  0  0  0  0
  179.0980  179.3510  141.1730 C   0  0  0  0  0  2  0  0  0  0  0  0
  180.4890  178.5020  139.1850 O   0  0  0  0  0  0  0  0  0  0  0  0
  185.5920  177.7950  142.6000 O   0  0  0  0  0  0  0  0  0  0  0  0
  182.7740  179.0180  140.7680 C   0  0  0  0  0  0  0  0  0  0  0  0
  182.9690  178.4980  139.3450 C   0  0  1  0  0  3  0  0  0  0  0  0
  185.8570  178.6620  140.4150 C   0  0  0  0  0  0  0  0  0  0  0  0
  181.4040  179.3320  141.1980 C   0  0  0  0  0  0  0  0  0  0  0  0
  183.6760  178.8450  141.7450 C   0  0  0  0  0  3  0  0  0  0  0  0
  180.3650  179.0500  140.4590 C   0  0  0  0  0  0  0  0  0  0  0  0
  181.7030  178.6710  138.4450 C   0  0  2  0  0  3  0  0  0  0  0  0
  187.1170  178.2470  140.3150 C   0  0  0  0  0  3  0  0  0  0  0  0
  181.0280  179.8520  142.4220 O   0  0  0  0  0  0  0  0  0  0  0  0
  184.6810  177.9690  137.5730 C   0  0  0  0  0  0  0  0  0  0  0  0
  184.2890  176.6260  137.6960 C   0  0  0  0  0  0  0  0  0  0  0  0
  185.5270  178.3540  136.5250 C   0  0  0  0  0  3  0  0  0  0  0  0
  185.6480  176.0650  135.7480 C   0  0  0  0  0  0  0  0  0  0  0  0
  186.0040  177.4090  135.6160 C   0  0  0  0  0  3  0  0  0  0  0  0
  184.7790  175.6810  136.7820 C   0  0  0  0  0  3  0  0  0  0  0  0
  185.7590  173.7730  134.8250 C   0  0  0  0  0  1  0  0  0  0  0  0
  186.1750  175.1320  134.8510 O   0  0  0  0  0  0  0  0  0  0  0  0
  183.4290  176.2500  138.7340 O   0  0  0  0  0  0  0  0  0  0  0  0
  182.7190  175.0200  138.7410 C   0  0  0  0  0  3  0  0  0  0  0  0
  181.3660  175.2210  138.0910 C   0  0  0  0  0  2  0  0  0  0  0  0
  181.4810  175.1650  139.6000 C   0  0  0  0  0  2  0  0  0  0  0  0
  188.0560  179.0180  137.8530 O   0  0  0  0  0  0  0  0  0  0  0  0
  189.1010  178.4170  138.3500 C   0  0  1  0  0  3  0  0  0  0  0  0
  187.9070  178.5930  139.1810 N   0  0  0  0  0  0  0  0  0  0  0  0
  189.1610  177.0540  137.8340 N   0  0  0  0  0  0  0  0  0  0  0  0
  188.0610  176.3140  138.4330 C   0  0  0  0  0  1  0  0  0  0  0  0
  190.5900  174.8570  138.2360 O   0  0  0  0  0  0  0  0  0  0  0  0
  190.6390  176.3490  138.4190 S   0  0  0  0  0  0  0  0  0  0  0  0
  191.8140  176.8910  137.6540 O   0  0  0  0  0  0  0  0  0  0  0  0
  191.6640  177.5040  142.0030 N   0  0  0  0  0  0  0  0  0  0  0  0
  190.8550  176.7060  140.1230 C   0  0  0  0  0  0  0  0  0  0  0  0
  190.0690  176.2760  141.0750 O   0  0  0  0  0  0  0  0  0  0  0  0
  191.8590  177.4740  140.6680 C   0  0  0  0  0  3  0  0  0  0  0  0
  189.9540  176.5100  143.5290 C   0  0  0  0  0  1  0  0  0  0  0  0
  190.5580  176.7570  142.1930 C   0  0  0  0  0  0  0  0  0  0  0  0
  181.6730  180.0100  137.7600 C   0  0  0  0  0  3  0  0  0  0  0  0
  180.8720  180.2980  136.7270 C   0  0  0  0  0  0  0  0  0  0  0  0
  180.9360  181.6900  136.1670 C   0  0  0  0  0  2  0  0  0  0  0  0
  181.0300  183.6700  137.3990 C   0  0  0  0  0  1  0  0  0  0  0  0
  180.1320  182.6220  136.9430 N   0  0  0  0  0  2  0  0  0  0  0  0
  179.9420  179.2660  136.1500 C   0  0  0  0  0  2  0  0  0  0  0  0
  180.5350  178.6370  134.9020 C   0  0  0  0  0  2  0  0  0  0  0  0
  180.5180  177.2470  135.0080 O   0  0  0  0  0  1  0  0  0  0  0  0
  179.1260  179.0760  143.6750 C   0  0  0  0  0  2  0  0  0  0  0  0
  180.2720  178.2750  144.2580 C   0  0  0  0  0  1  0  0  0  0  0  0
  1 12  1  0  0  0  0
  1  7  2  0  0  0  0
  2 17  1  1  0  0  0
  2  9  1  0  0  0  0
  2  4  1  0  0  0  0
  3 51  1  1  0  0  0
  4 10  1  0  0  0  0
  5  3  1  0  0  0  0
  6 13  1  0  0  0  0
  8 11  1  0  0  0  0
  8 12  2  0  0  0  0
  9  8  1  1  0  0  0
 10  1  1  0  0  0  0
 11 16  1  0  0  0  0
 13  5  1  0  0  0  0
 13 11  2  0  0  0  0
 14 43  1  1  0  0  0
 14  6  1  0  0  0  0
 14  9  1  0  0  0  0
 15 10  2  0  0  0  0
 16  3  1  0  0  0  0
 17 18  1  0  0  0  0
 18 25  1  0  0  0  0
 19 17  2  0  0  0  0
 20 22  1  0  0  0  0
 21 20  2  0  0  0  0
 21 19  1  0  0  0  0
 22 18  2  0  0  0  0
 23 24  1  0  0  0  0
 24 20  1  0  0  0  0
 25 26  1  0  0  0  0
 26 28  1  0  0  0  0
 27 26  1  0  0  0  0
 27 28  1  0  0  0  0
 29 30  1  0  0  0  0
 29 31  1  0  0  0  0
 30 32  1  6  0  0  0
 30 31  1  0  0  0  0
 31 15  1  0  0  0  0
 32 35  1  0  0  0  0
 32 33  1  0  0  0  0
 34 35  2  0  0  0  0
 35 38  1  0  0  0  0
 36 35  2  0  0  0  0
 37 42  2  0  0  0  0
 38 40  2  0  0  0  0
 38 39  1  0  0  0  0
 39 42  1  0  0  0  0
 40 37  1  0  0  0  0
 42 41  1  0  0  0  0
 44 43  2  0  0  0  0
 45 44  1  0  0  0  0
 45 47  1  0  0  0  0
 47 46  1  0  0  0  0
 48 44  1  0  0  0  0
 49 50  1  0  0  0  0
 49 48  1  0  0  0  0
 51 52  1  0  0  0  0
M  END
>  <MODEL>
2

>  <REMARK>
 VINA RESULT:      -5.3      1.606      2.206
  Name = 
  14 active torsions:
  status: ('A' for Active; 'I' for Inactive)
    1  A    between atoms: C_2  and  C_11
    2  A    between atoms: C_3  and  C_26
    3  A    between atoms: O_9  and  C_14
    4  A    between atoms: O_9  and  C_17
    5  A    between atoms: N_12  and  C_36
    6  A    between atoms: N_15  and  S_21
    7  A    between atoms: N_15  and  C_40
    8  A    between atoms: C_16  and  S_21
    9  A    between atoms: C_18  and  C_39
   10  A    between atoms: C_23  and  C_42
   11  A    between atoms: C_27  and  O_46
   12  A    between atoms: C_36  and  C_51
   13  A    between atoms: C_39  and  C_51
   14  A    between atoms: N_43  and  C_47
                            x       y       z     vdW  Elec       q    Type
                         _______ _______ _______ _____ _____    ______ ____

>  <TORSDO>
F 14

$$$$
=
 OpenBabel11062415143D

 52 58  0  0  1  0  0  0  0  0999 V2000
  187.9240  177.4130  137.8610 C   0  0  0  0  0  0  0  0  0  0  0  0
  185.1900  175.8870  137.2200 C   0  0  2  0  0  3  0  0  0  0  0  0
  190.1180  172.5600  135.7200 C   0  0  2  0  0  3  0  0  0  0  0  0
  185.6910  176.5090  138.3990 O   0  0  0  0  0  0  0  0  0  0  0  0
  188.9680  172.3450  134.7140 C   0  0  0  0  0  2  0  0  0  0  0  0
  186.7190  173.5840  134.5940 O   0  0  0  0  0  0  0  0  0  0  0  0
  188.7630  178.3510  137.9560 O   0  0  0  0  0  0  0  0  0  0  0  0
  187.6630  175.1750  136.7320 C   0  0  0  0  0  0  0  0  0  0  0  0
  186.2520  175.4200  136.2010 C   0  0  1  0  0  3  0  0  0  0  0  0
  186.5580  177.5970  138.3650 C   0  0  0  0  0  0  0  0  0  0  0  0
  188.4140  174.0410  136.1740 C   0  0  0  0  0  0  0  0  0  0  0  0
  188.3880  176.1120  137.3600 C   0  0  0  0  0  3  0  0  0  0  0  0
  187.9680  173.3460  135.1630 C   0  0  0  0  0  0  0  0  0  0  0  0
  185.6940  174.2310  135.3560 C   0  0  2  0  0  3  0  0  0  0  0  0
  186.1570  178.7740  138.8390 C   0  0  0  0  0  3  0  0  0  0  0  0
  189.6790  173.6300  136.5510 O   0  0  0  0  0  0  0  0  0  0  0  0
  184.1230  176.7180  136.5660 C   0  0  0  0  0  0  0  0  0  0  0  0
  182.8890  176.9080  137.2080 C   0  0  0  0  0  0  0  0  0  0  0  0
  184.3420  177.2760  135.2990 C   0  0  0  0  0  3  0  0  0  0  0  0
  182.0900  178.1640  135.2740 C   0  0  0  0  0  0  0  0  0  0  0  0
  183.3320  177.9970  134.6600 C   0  0  0  0  0  3  0  0  0  0  0  0
  181.8770  177.6280  136.5550 C   0  0  0  0  0  3  0  0  0  0  0  0
  179.7070  178.5100  134.7080 C   0  0  0  0  0  1  0  0  0  0  0  0
  181.0820  178.8520  134.5940 O   0  0  0  0  0  0  0  0  0  0  0  0
  182.6820  176.3640  138.4820 O   0  0  0  0  0  0  0  0  0  0  0  0
  181.4500  176.4760  139.1780 C   0  0  0  0  0  3  0  0  0  0  0  0
  181.3680  175.3850  140.2260 C   0  0  0  0  0  2  0  0  0  0  0  0
  180.6180  175.2370  138.9190 C   0  0  0  0  0  2  0  0  0  0  0  0
  183.6300  179.6050  139.5220 O   0  0  0  0  0  0  0  0  0  0  0  0
  183.9020  178.7810  140.4950 C   0  0  1  0  0  3  0  0  0  0  0  0
  184.8510  178.9280  139.3890 N   0  0  0  0  0  0  0  0  0  0  0  0
  184.3570  179.5400  141.6540 N   0  0  0  0  0  0  0  0  0  0  0  0
  185.7560  179.2050  141.8710 C   0  0  0  0  0  1  0  0  0  0  0  0
  182.4770  180.0060  143.4650 O   0  0  0  0  0  0  0  0  0  0  0  0
  183.4650  178.9590  143.0300 S   0  0  0  0  0  0  0  0  0  0  0  0
  182.7160  177.7060  142.6740 O   0  0  0  0  0  0  0  0  0  0  0  0
  185.4260  178.5310  146.3770 N   0  0  0  0  0  0  0  0  0  0  0  0
  184.5520  178.6140  144.3630 C   0  0  0  0  0  0  0  0  0  0  0  0
  185.6680  177.9410  144.2540 O   0  0  0  0  0  0  0  0  0  0  0  0
  184.3720  178.9960  145.6740 C   0  0  0  0  0  3  0  0  0  0  0  0
  187.4620  177.2110  145.7830 C   0  0  0  0  0  1  0  0  0  0  0  0
  186.1830  177.8950  145.4600 C   0  0  0  0  0  0  0  0  0  0  0  0
  185.0020  173.2040  136.2090 C   0  0  0  0  0  3  0  0  0  0  0  0
  183.7980  172.6920  135.9260 C   0  0  0  0  0  0  0  0  0  0  0  0
  183.2490  171.6530  136.8610 C   0  0  0  0  0  2  0  0  0  0  0  0
  184.4550  169.9510  135.8130 C   0  0  0  0  0  1  0  0  0  0  0  0
  183.1170  170.3570  136.2120 N   0  0  0  0  0  2  0  0  0  0  0  0
  183.0250  173.1400  134.7160 C   0  0  0  0  0  2  0  0  0  0  0  0
  181.8780  174.0540  135.1110 C   0  0  0  0  0  2  0  0  0  0  0  0
  180.9580  173.3600  135.8960 O   0  0  0  0  0  1  0  0  0  0  0  0
  191.3900  172.9720  134.9930 C   0  0  0  0  0  2  0  0  0  0  0  0
  192.6030  172.3370  135.6420 C   0  0  0  0  0  1  0  0  0  0  0  0
  1  7  2  0  0  0  0
  1 10  1  0  0  0  0
  2 17  1  6  0  0  0
  2  4  1  0  0  0  0
  3 51  1  6  0  0  0
  3 16  1  0  0  0  0
  5 13  1  0  0  0  0
  5  3  1  0  0  0  0
  6 13  1  0  0  0  0
  6 14  1  0  0  0  0
  8 12  2  0  0  0  0
  9  8  1  1  0  0  0
  9  2  1  0  0  0  0
 10  4  1  0  0  0  0
 10 15  2  0  0  0  0
 11 16  1  0  0  0  0
 11  8  1  0  0  0  0
 12  1  1  0  0  0  0
 13 11  2  0  0  0  0
 14  9  1  0  0  0  0
 14 43  1  1  0  0  0
 15 31  1  0  0  0  0
 17 18  1  0  0  0  0
 18 25  1  0  0  0  0
 19 17  2  0  0  0  0
 20 22  1  0  0  0  0
 21 20  2  0  0  0  0
 21 19  1  0  0  0  0
 22 18  2  0  0  0  0
 24 23  1  0  0  0  0
 24 20  1  0  0  0  0
 25 26  1  0  0  0  0
 26 27  1  0  0  0  0
 28 26  1  0  0  0  0
 28 27  1  0  0  0  0
 29 30  1  0  0  0  0
 30 32  1  1  0  0  0
 31 29  1  0  0  0  0
 31 30  1  0  0  0  0
 32 33  1  0  0  0  0
 32 35  1  0  0  0  0
 35 34  2  0  0  0  0
 35 38  1  0  0  0  0
 36 35  2  0  0  0  0
 38 40  2  0  0  0  0
 39 38  1  0  0  0  0
 39 42  1  0  0  0  0
 40 37  1  0  0  0  0
 42 41  1  0  0  0  0
 42 37  2  0  0  0  0
 44 43  2  0  0  0  0
 44 45  1  0  0  0  0
 46 47  1  0  0  0  0
 47 45  1  0  0  0  0
 48 49  1  0  0  0  0
 48 44  1  0  0  0  0
 49 50  1  0  0  0  0
 51 52  1  0  0  0  0
M  END
>  <MODEL>
3

>  <REMARK>
 VINA RESULT:      -3.9      3.413      8.615
  Name = 
  14 active torsions:
  status: ('A' for Active; 'I' for Inactive)
    1  A    between atoms: C_2  and  C_11
    2  A    between atoms: C_3  and  C_26
    3  A    between atoms: O_9  and  C_14
    4  A    between atoms: O_9  and  C_17
    5  A    between atoms: N_12  and  C_36
    6  A    between atoms: N_15  and  S_21
    7  A    between atoms: N_15  and  C_40
    8  A    between atoms: C_16  and  S_21
    9  A    between atoms: C_18  and  C_39
   10  A    between atoms: C_23  and  C_42
   11  A    between atoms: C_27  and  O_46
   12  A    between atoms: C_36  and  C_51
   13  A    between atoms: C_39  and  C_51
   14  A    between atoms: N_43  and  C_47
                            x       y       z     vdW  Elec       q    Type
                         _______ _______ _______ _____ _____    ______ ____

>  <TORSDO>
F 14

$$$$
=
 OpenBabel11062415143D

 52 58  0  0  1  0  0  0  0  0999 V2000
  188.1460  177.5770  138.0030 C   0  0  0  0  0  0  0  0  0  0  0  0
  185.5340  175.8720  137.3040 C   0  0  2  0  0  3  0  0  0  0  0  0
  190.6980  172.9860  135.6860 C   0  0  2  0  0  3  0  0  0  0  0  0
  185.9890  176.4860  138.5060 O   0  0  0  0  0  0  0  0  0  0  0  0
  189.5660  172.7210  134.6720 C   0  0  0  0  0  2  0  0  0  0  0  0
  187.2290  173.7900  134.5960 O   0  0  0  0  0  0  0  0  0  0  0  0
  188.9120  178.5710  138.1330 O   0  0  0  0  0  0  0  0  0  0  0  0
  188.0540  175.3680  136.7920 C   0  0  0  0  0  0  0  0  0  0  0  0
  186.6260  175.5250  136.2690 C   0  0  1  0  0  3  0  0  0  0  0  0
  186.7710  177.6380  138.5120 C   0  0  0  0  0  0  0  0  0  0  0  0
  188.8880  174.3150  136.1930 C   0  0  0  0  0  0  0  0  0  0  0  0
  188.7060  176.3340  137.4550 C   0  0  0  0  0  3  0  0  0  0  0  0
  188.4930  173.6270  135.1570 C   0  0  0  0  0  0  0  0  0  0  0  0
  186.1590  174.3280  135.3800 C   0  0  2  0  0  3  0  0  0  0  0  0
  186.2820  178.7620  139.0290 C   0  0  0  0  0  3  0  0  0  0  0  0
  190.1800  173.9890  136.5560 O   0  0  0  0  0  0  0  0  0  0  0  0
  184.4060  176.6430  136.6800 C   0  0  0  0  0  0  0  0  0  0  0  0
  183.1240  176.5960  137.2510 C   0  0  0  0  0  0  0  0  0  0  0  0
  184.6200  177.3810  135.5090 C   0  0  0  0  0  3  0  0  0  0  0  0
  182.2760  177.9820  135.4300 C   0  0  0  0  0  0  0  0  0  0  0  0
  183.5620  178.0490  134.8900 C   0  0  0  0  0  3  0  0  0  0  0  0
  182.0650  177.2640  136.6180 C   0  0  0  0  0  3  0  0  0  0  0  0
  180.2050  179.3330  135.4540 C   0  0  0  0  0  1  0  0  0  0  0  0
  181.2270  178.6230  134.7670 O   0  0  0  0  0  0  0  0  0  0  0  0
  182.9200  175.8720  138.4320 O   0  0  0  0  0  0  0  0  0  0  0  0
  181.9280  176.2180  139.3880 C   0  0  0  0  0  3  0  0  0  0  0  0
  181.5970  175.0000  140.2250 C   0  0  0  0  0  2  0  0  0  0  0  0
  180.6690  175.4250  139.1070 C   0  0  0  0  0  2  0  0  0  0  0  0
  183.6770  179.3290  139.6850 O   0  0  0  0  0  0  0  0  0  0  0  0
  184.0500  178.6130  140.7080 C   0  0  1  0  0  3  0  0  0  0  0  0
  184.9700  178.7960  139.5830 N   0  0  0  0  0  0  0  0  0  0  0  0
  184.4150  179.4990  141.8080 N   0  0  0  0  0  0  0  0  0  0  0  0
  185.7380  179.1030  142.2640 C   0  0  0  0  0  1  0  0  0  0  0  0
  183.5430  177.8060  143.6540 O   0  0  0  0  0  0  0  0  0  0  0  0
  183.3030  179.1870  143.1080 S   0  0  0  0  0  0  0  0  0  0  0  0
  183.5020  180.1840  144.2150 O   0  0  0  0  0  0  0  0  0  0  0  0
  179.4780  178.9990  142.3590 N   0  0  0  0  0  0  0  0  0  0  0  0
  181.6480  179.2920  142.5370 C   0  0  0  0  0  0  0  0  0  0  0  0
  181.2610  180.0060  141.5120 O   0  0  0  0  0  0  0  0  0  0  0  0
  180.5590  178.6520  143.0870 C   0  0  0  0  0  3  0  0  0  0  0  0
  179.1240  180.4700  140.3710 C   0  0  0  0  0  1  0  0  0  0  0  0
  179.9660  179.8260  141.4120 C   0  0  0  0  0  0  0  0  0  0  0  0
  185.5480  173.2210  136.1950 C   0  0  0  0  0  3  0  0  0  0  0  0
  184.2760  172.8220  136.0720 C   0  0  0  0  0  0  0  0  0  0  0  0
  183.8200  171.6830  136.9370 C   0  0  0  0  0  2  0  0  0  0  0  0
  183.1750  169.9840  135.4730 C   0  0  0  0  0  1  0  0  0  0  0  0
  184.2230  170.3950  136.3920 N   0  0  0  0  0  2  0  0  0  0  0  0
  183.3400  173.4900  135.1020 C   0  0  0  0  0  2  0  0  0  0  0  0
  181.9130  173.4620  135.6180 C   0  0  0  0  0  2  0  0  0  0  0  0
  181.0740  174.1610  134.7510 O   0  0  0  0  0  1  0  0  0  0  0  0
  191.9330  173.5200  134.9760 C   0  0  0  0  0  2  0  0  0  0  0  0
  192.5580  174.6470  135.7730 C   0  0  0  0  0  1  0  0  0  0  0  0
  1  7  2  0  0  0  0
  1 10  1  0  0  0  0
  2 17  1  6  0  0  0
  2  4  1  0  0  0  0
  3 51  1  6  0  0  0
  3 16  1  0  0  0  0
  4 10  1  0  0  0  0
  5 13  1  0  0  0  0
  5  3  1  0  0  0  0
  6 13  1  0  0  0  0
  6 14  1  0  0  0  0
  8 12  2  0  0  0  0
  9  8  1  1  0  0  0
  9  2  1  0  0  0  0
 10 15  2  0  0  0  0
 11 16  1  0  0  0  0
 11  8  1  0  0  0  0
 12  1  1  0  0  0  0
 13 11  2  0  0  0  0
 14 43  1  1  0  0  0
 14  9  1  0  0  0  0
 15 31  1  0  0  0  0
 17 18  1  0  0  0  0
 18 25  1  0  0  0  0
 19 17  2  0  0  0  0
 20 22  1  0  0  0  0
 21 20  2  0  0  0  0
 21 19  1  0  0  0  0
 22 18  2  0  0  0  0
 24 20  1  0  0  0  0
 24 23  1  0  0  0  0
 25 26  1  0  0  0  0
 26 27  1  0  0  0  0
 28 26  1  0  0  0  0
 28 27  1  0  0  0  0
 29 30  1  0  0  0  0
 30 32  1  1  0  0  0
 31 29  1  0  0  0  0
 31 30  1  0  0  0  0
 32 33  1  0  0  0  0
 32 35  1  0  0  0  0
 35 34  2  0  0  0  0
 35 36  2  0  0  0  0
 37 40  1  0  0  0  0
 38 40  2  0  0  0  0
 38 35  1  0  0  0  0
 39 38  1  0  0  0  0
 41 42  1  0  0  0  0
 42 39  1  0  0  0  0
 42 37  2  0  0  0  0
 44 43  2  0  0  0  0
 44 45  1  0  0  0  0
 46 47  1  0  0  0  0
 47 45  1  0  0  0  0
 48 49  1  0  0  0  0
 48 44  1  0  0  0  0
 50 49  1  0  0  0  0
 51 52  1  0  0  0  0
M  END
>  <MODEL>
4

>  <REMARK>
 VINA RESULT:      -3.4      2.953      9.071
  Name = 
  14 active torsions:
  status: ('A' for Active; 'I' for Inactive)
    1  A    between atoms: C_2  and  C_11
    2  A    between atoms: C_3  and  C_26
    3  A    between atoms: O_9  and  C_14
    4  A    between atoms: O_9  and  C_17
    5  A    between atoms: N_12  and  C_36
    6  A    between atoms: N_15  and  S_21
    7  A    between atoms: N_15  and  C_40
    8  A    between atoms: C_16  and  S_21
    9  A    between atoms: C_18  and  C_39
   10  A    between atoms: C_23  and  C_42
   11  A    between atoms: C_27  and  O_46
   12  A    between atoms: C_36  and  C_51
   13  A    between atoms: C_39  and  C_51
   14  A    between atoms: N_43  and  C_47
                            x       y       z     vdW  Elec       q    Type
                         _______ _______ _______ _____ _____    ______ ____

>  <TORSDO>
F 14

$$$$
