=
 OpenBabel11062414123D

 32 34  0  0  1  0  0  0  0  0999 V2000
  185.9100  177.9210  145.6780 C   0  0  0  0  0  0  0  0  0  0  0  0
  187.0380  177.3750  146.3700 N   0  0  0  0  0  2  0  0  0  0  0  0
  188.6450  177.5030  145.7420 S   0  0  0  0  0  0  0  0  0  0  0  0
  183.8200  179.0590  145.8280 N   0  0  0  0  0  0  0  0  0  0  0  0
  185.8930  178.0770  144.2750 C   0  0  0  0  0  0  0  0  0  0  0  0
  187.1910  177.3140  143.2720 S   0  0  0  0  0  0  0  0  0  0  0  0
  189.4600  178.3960  146.6340 O   0  0  0  0  0  0  0  0  0  0  0  0
  189.2690  176.1380  145.6730 O   0  0  0  0  0  0  0  0  0  0  0  0
  188.5310  178.2070  144.1050 C   0  0  2  0  0  3  0  0  0  0  0  0
  183.7930  179.2800  144.4890 C   0  0  0  0  0  0  0  0  0  0  0  0
  182.6740  179.9600  143.9270 N   0  0  0  0  0  1  0  0  0  0  0  0
  184.8310  178.7900  143.6690 C   0  0  0  0  0  0  0  0  0  0  0  0
  184.8440  178.4080  146.4300 C   0  0  0  0  0  3  0  0  0  0  0  0
  184.7780  179.0040  142.2040 C   0  0  0  0  0  0  0  0  0  0  0  0
  182.3780  178.0130  141.3120 O   0  0  0  0  0  0  0  0  0  0  0  0
  183.6960  178.4780  141.4410 N   0  0  0  0  0  0  0  0  0  0  0  0
  185.6930  179.6410  141.6170 O   0  0  0  0  0  0  0  0  0  0  0  0
  182.8830  178.5240  140.2260 C   0  0  1  0  0  3  0  0  0  0  0  0
  182.5540  177.5250  138.1020 F   0  0  0  0  0  0  0  0  0  0  0  0
  183.3230  177.4360  139.2460 C   0  0  0  0  0  0  0  0  0  0  0  0
  184.6610  177.5530  138.9010 F   0  0  0  0  0  0  0  0  0  0  0  0
  183.1180  176.1990  139.8280 F   0  0  0  0  0  0  0  0  0  0  0  0
  189.8470  178.0540  143.3200 C   0  0  2  0  0  3  0  0  0  0  0  0
  191.0190  178.7560  143.9450 C   0  0  0  0  0  0  0  0  0  0  0  0
  191.0790  180.0140  143.9670 O   0  0  0  0  0  0  0  0  0  0  0  0
  192.0590  178.0080  144.4780 O   0  0  0  0  0  1  0  0  0  0  0  0
  189.7040  178.4020  141.9000 N   0  0  0  0  0  2  0  0  0  0  0  0
  190.1190  177.2910  141.0380 C   0  0  0  0  0  3  0  0  0  0  0  0
  188.2840  178.2990  139.5970 C   0  0  0  0  0  1  0  0  0  0  0  0
  189.1430  177.0760  139.8800 C   0  0  0  0  0  2  0  0  0  0  0  0
  191.5740  177.4270  140.5880 C   0  0  0  0  0  2  0  0  0  0  0  0
  191.8180  176.8670  139.1960 C   0  0  0  0  0  1  0  0  0  0  0  0
  1  2  1  0  0  0  0
  1 13  1  0  0  0  0
  3  2  1  0  0  0  0
  3  7  2  0  0  0  0
  4 13  2  0  0  0  0
  5  1  2  0  0  0  0
  6  9  1  0  0  0  0
  6  5  1  0  0  0  0
  8  3  2  0  0  0  0
  9 23  1  6  0  0  0
  9  3  1  0  0  0  0
 10  4  1  0  0  0  0
 11 10  1  0  0  0  0
 12  5  1  0  0  0  0
 12 10  2  0  0  0  0
 14 12  1  0  0  0  0
 15 16  1  0  0  0  0
 16 14  1  0  0  0  0
 17 14  2  0  0  0  0
 18 20  1  6  0  0  0
 18 15  1  0  0  0  0
 18 16  1  0  0  0  0
 19 20  1  0  0  0  0
 20 22  1  0  0  0  0
 21 20  1  0  0  0  0
 23 27  1  6  0  0  0
 23 24  1  0  0  0  0
 24 25  2  0  0  0  0
 24 26  1  0  0  0  0
 28 27  1  0  0  0  0
 29 30  1  0  0  0  0
 30 28  1  0  0  0  0
 31 28  1  0  0  0  0
 32 31  1  0  0  0  0
M  END
>  <MODEL>
1

>  <REMARK>
 VINA RESULT:      -6.6      0.000      0.000
  Name = 
  8 active torsions:
  status: ('A' for Active; 'I' for Inactive)
    1  A    between atoms: C_2  and  N_8
    2  A    between atoms: C_2  and  C_26
    3  A    between atoms: C_2  and  C_27
    4  A    between atoms: C_4  and  C_29
    5  A    between atoms: N_8  and  CA_19
    6  A    between atoms: C_9  and  C_32
    7  A    between atoms: C_11  and  CA_19
    8  A    between atoms: CA_19  and  C_22
                            x       y       z     vdW  Elec       q    Type
                         _______ _______ _______ _____ _____    ______ ____

>  <TORSDO>
F 8

$$$$
=
 OpenBabel11062414123D

 32 34  0  0  1  0  0  0  0  0999 V2000
  185.1640  178.1250  142.8300 C   0  0  0  0  0  0  0  0  0  0  0  0
  185.1150  177.8510  144.2340 N   0  0  0  0  0  2  0  0  0  0  0  0
  186.5110  178.0080  145.2450 S   0  0  0  0  0  0  0  0  0  0  0  0
  184.0680  179.0520  140.9260 N   0  0  0  0  0  0  0  0  0  0  0  0
  186.3500  177.9830  142.0780 C   0  0  0  0  0  0  0  0  0  0  0  0
  187.7860  177.1630  142.8120 S   0  0  0  0  0  0  0  0  0  0  0  0
  186.3080  179.1440  146.2060 O   0  0  0  0  0  0  0  0  0  0  0  0
  186.7320  176.7280  146.0010 O   0  0  0  0  0  0  0  0  0  0  0  0
  187.9100  178.3410  144.1860 C   0  0  2  0  0  3  0  0  0  0  0  0
  185.2040  178.9860  140.1850 C   0  0  0  0  0  0  0  0  0  0  0  0
  185.1650  179.4180  138.8270 N   0  0  0  0  0  1  0  0  0  0  0  0
  186.3820  178.4440  140.7390 C   0  0  0  0  0  0  0  0  0  0  0  0
  184.0270  178.6470  142.2180 C   0  0  0  0  0  3  0  0  0  0  0  0
  187.6080  178.3420  139.9140 C   0  0  0  0  0  0  0  0  0  0  0  0
  186.9830  176.8610  137.6880 O   0  0  0  0  0  0  0  0  0  0  0  0
  187.6220  177.5240  138.7490 N   0  0  0  0  0  0  0  0  0  0  0  0
  188.6520  178.9670  140.2400 O   0  0  0  0  0  0  0  0  0  0  0  0
  188.2170  177.2040  137.4510 C   0  0  1  0  0  3  0  0  0  0  0  0
  190.0620  176.0380  136.5270 F   0  0  0  0  0  0  0  0  0  0  0  0
  189.1640  176.0110  137.5760 C   0  0  0  0  0  0  0  0  0  0  0  0
  189.8670  176.0240  138.7720 F   0  0  0  0  0  0  0  0  0  0  0  0
  188.4270  174.8440  137.5040 F   0  0  0  0  0  0  0  0  0  0  0  0
  189.2480  178.1610  144.9260 C   0  0  2  0  0  3  0  0  0  0  0  0
  190.4520  178.5570  144.1190 C   0  0  0  0  0  0  0  0  0  0  0  0
  190.7910  179.7650  144.0180 O   0  0  0  0  0  1  0  0  0  0  0  0
  191.1800  177.5800  143.4540 O   0  0  0  0  0  0  0  0  0  0  0  0
  189.4020  176.8200  145.5030 N   0  0  0  0  0  2  0  0  0  0  0  0
  189.9800  176.8850  146.8490 C   0  0  0  0  0  3  0  0  0  0  0  0
  191.9790  175.5230  147.6290 C   0  0  0  0  0  1  0  0  0  0  0  0
  191.5010  176.7210  146.8230 C   0  0  0  0  0  2  0  0  0  0  0  0
  189.5170  178.1270  147.6120 C   0  0  0  0  0  2  0  0  0  0  0  0
  188.4660  177.8170  148.6660 C   0  0  0  0  0  1  0  0  0  0  0  0
  1  2  1  0  0  0  0
  2  3  1  0  0  0  0
  3  8  2  0  0  0  0
  3  7  2  0  0  0  0
  4 13  2  0  0  0  0
  5  6  1  0  0  0  0
  5  1  2  0  0  0  0
  6  9  1  0  0  0  0
  9 23  1  1  0  0  0
  9  3  1  0  0  0  0
 10 12  2  0  0  0  0
 10  4  1  0  0  0  0
 11 10  1  0  0  0  0
 12  5  1  0  0  0  0
 13  1  1  0  0  0  0
 14 17  2  0  0  0  0
 14 12  1  0  0  0  0
 15 16  1  0  0  0  0
 16 14  1  0  0  0  0
 18 20  1  1  0  0  0
 18 15  1  0  0  0  0
 18 16  1  0  0  0  0
 19 20  1  0  0  0  0
 20 21  1  0  0  0  0
 22 20  1  0  0  0  0
 23 24  1  6  0  0  0
 23 27  1  0  0  0  0
 25 24  1  0  0  0  0
 26 24  2  0  0  0  0
 27 28  1  0  0  0  0
 28 31  1  0  0  0  0
 30 28  1  0  0  0  0
 30 29  1  0  0  0  0
 31 32  1  0  0  0  0
M  END
>  <MODEL>
2

>  <REMARK>
 VINA RESULT:      -6.5      3.043      4.969
  Name = 
  8 active torsions:
  status: ('A' for Active; 'I' for Inactive)
    1  A    between atoms: C_2  and  N_8
    2  A    between atoms: C_2  and  C_26
    3  A    between atoms: C_2  and  C_27
    4  A    between atoms: C_4  and  C_29
    5  A    between atoms: N_8  and  CA_19
    6  A    between atoms: C_9  and  C_32
    7  A    between atoms: C_11  and  CA_19
    8  A    between atoms: CA_19  and  C_22
                            x       y       z     vdW  Elec       q    Type
                         _______ _______ _______ _____ _____    ______ ____

>  <TORSDO>
F 8

$$$$
=
 OpenBabel11062414123D

 32 34  0  0  1  0  0  0  0  0999 V2000
  186.2990  178.2340  138.3260 C   0  0  0  0  0  0  0  0  0  0  0  0
  186.4730  177.8730  136.9520 N   0  0  0  0  0  2  0  0  0  0  0  0
  187.7240  176.7910  136.4430 S   0  0  0  0  0  0  0  0  0  0  0  0
  184.7800  178.6980  140.1040 N   0  0  0  0  0  0  0  0  0  0  0  0
  187.3730  178.2350  139.2440 C   0  0  0  0  0  0  0  0  0  0  0  0
  189.0690  178.0600  138.6410 S   0  0  0  0  0  0  0  0  0  0  0  0
  187.1080  175.5180  135.9370 O   0  0  0  0  0  0  0  0  0  0  0  0
  188.5360  177.4360  135.3560 O   0  0  0  0  0  0  0  0  0  0  0  0
  188.7570  176.4540  137.8590 C   0  0  2  0  0  3  0  0  0  0  0  0
  185.7750  178.6500  141.0270 C   0  0  0  0  0  0  0  0  0  0  0  0
  185.4560  178.8940  142.3950 N   0  0  0  0  0  1  0  0  0  0  0  0
  187.1070  178.4200  140.6220 C   0  0  0  0  0  0  0  0  0  0  0  0
  185.0100  178.4900  138.7850 C   0  0  0  0  0  3  0  0  0  0  0  0
  188.1920  178.4050  141.6290 C   0  0  0  0  0  0  0  0  0  0  0  0
  187.9240  176.0990  143.0960 O   0  0  0  0  0  0  0  0  0  0  0  0
  188.2360  177.3820  142.6200 N   0  0  0  0  0  0  0  0  0  0  0  0
  189.0780  179.3000  141.6290 O   0  0  0  0  0  0  0  0  0  0  0  0
  189.0160  176.6110  143.5870 C   0  0  1  0  0  3  0  0  0  0  0  0
  189.5480  176.3990  145.8880 F   0  0  0  0  0  0  0  0  0  0  0  0
  188.7960  177.1470  145.0020 C   0  0  0  0  0  0  0  0  0  0  0  0
  189.1580  178.4810  145.1180 F   0  0  0  0  0  0  0  0  0  0  0  0
  187.4600  177.0160  145.3290 F   0  0  0  0  0  0  0  0  0  0  0  0
  190.0850  175.7870  137.4580 C   0  0  2  0  0  3  0  0  0  0  0  0
  189.9220  174.4460  136.7970 C   0  0  0  0  0  0  0  0  0  0  0  0
  189.5250  173.4480  137.4550 O   0  0  0  0  0  1  0  0  0  0  0  0
  190.2400  174.3030  135.4540 O   0  0  0  0  0  0  0  0  0  0  0  0
  191.0490  175.7290  138.5640 N   0  0  0  0  0  2  0  0  0  0  0  0
  192.2360  176.5390  138.2750 C   0  0  0  0  0  3  0  0  0  0  0  0
  192.0100  177.4610  140.6330 C   0  0  0  0  0  1  0  0  0  0  0  0
  192.9600  176.9620  139.5550 C   0  0  0  0  0  2  0  0  0  0  0  0
  193.1540  175.8670  137.2530 C   0  0  0  0  0  2  0  0  0  0  0  0
  194.0460  174.8010  137.8690 C   0  0  0  0  0  1  0  0  0  0  0  0
  1 13  2  0  0  0  0
  1  5  1  0  0  0  0
  2  1  1  0  0  0  0
  3  2  1  0  0  0  0
  3  9  1  0  0  0  0
  4 10  2  0  0  0  0
  5 12  2  0  0  0  0
  6  5  1  0  0  0  0
  7  3  2  0  0  0  0
  8  3  2  0  0  0  0
  9 23  1  6  0  0  0
  9  6  1  0  0  0  0
 10 11  1  0  0  0  0
 12 10  1  0  0  0  0
 12 14  1  0  0  0  0
 13  4  1  0  0  0  0
 14 16  1  0  0  0  0
 15 18  1  0  0  0  0
 16 15  1  0  0  0  0
 16 18  1  0  0  0  0
 17 14  2  0  0  0  0
 18 20  1  1  0  0  0
 20 21  1  0  0  0  0
 20 22  1  0  0  0  0
 20 19  1  0  0  0  0
 23 24  1  1  0  0  0
 23 27  1  0  0  0  0
 24 25  1  0  0  0  0
 26 24  2  0  0  0  0
 28 27  1  0  0  0  0
 28 30  1  0  0  0  0
 30 29  1  0  0  0  0
 31 32  1  0  0  0  0
 31 28  1  0  0  0  0
M  END
>  <MODEL>
3

>  <REMARK>
 VINA RESULT:      -6.5      4.564      6.860
  Name = 
  8 active torsions:
  status: ('A' for Active; 'I' for Inactive)
    1  A    between atoms: C_2  and  N_8
    2  A    between atoms: C_2  and  C_26
    3  A    between atoms: C_2  and  C_27
    4  A    between atoms: C_4  and  C_29
    5  A    between atoms: N_8  and  CA_19
    6  A    between atoms: C_9  and  C_32
    7  A    between atoms: C_11  and  CA_19
    8  A    between atoms: CA_19  and  C_22
                            x       y       z     vdW  Elec       q    Type
                         _______ _______ _______ _____ _____    ______ ____

>  <TORSDO>
F 8

$$$$
=
 OpenBabel11062414123D

 32 34  0  0  1  0  0  0  0  0999 V2000
  186.8350  178.5930  140.1860 C   0  0  0  0  0  0  0  0  0  0  0  0
  186.9300  178.8910  138.7900 N   0  0  0  0  0  2  0  0  0  0  0  0
  187.8340  177.8930  137.7020 S   0  0  0  0  0  0  0  0  0  0  0  0
  185.4690  178.5410  142.1400 N   0  0  0  0  0  0  0  0  0  0  0  0
  187.8430  177.8810  140.8730 C   0  0  0  0  0  0  0  0  0  0  0  0
  189.4330  177.5760  140.0670 S   0  0  0  0  0  0  0  0  0  0  0  0
  186.8930  177.2190  136.7440 O   0  0  0  0  0  0  0  0  0  0  0  0
  188.8200  178.7370  136.9460 O   0  0  0  0  0  0  0  0  0  0  0  0
  188.6960  176.6720  138.6780 C   0  0  2  0  0  3  0  0  0  0  0  0
  186.3880  177.8070  142.8180 C   0  0  0  0  0  0  0  0  0  0  0  0
  186.1200  177.4510  144.1720 N   0  0  0  0  0  1  0  0  0  0  0  0
  187.6090  177.4570  142.2030 C   0  0  0  0  0  0  0  0  0  0  0  0
  185.6610  178.9280  140.8560 C   0  0  0  0  0  3  0  0  0  0  0  0
  188.6210  176.6860  142.9600 C   0  0  0  0  0  0  0  0  0  0  0  0
  189.4170  178.2320  145.0850 O   0  0  0  0  0  0  0  0  0  0  0  0
  189.3100  177.2850  144.0540 N   0  0  0  0  0  0  0  0  0  0  0  0
  188.8940  175.4990  142.6380 O   0  0  0  0  0  0  0  0  0  0  0  0
  190.0710  177.1250  145.2920 C   0  0  1  0  0  3  0  0  0  0  0  0
  192.2720  176.8860  146.1400 F   0  0  0  0  0  0  0  0  0  0  0  0
  191.5670  177.3000  145.0260 C   0  0  0  0  0  0  0  0  0  0  0  0
  191.9920  176.5710  143.9260 F   0  0  0  0  0  0  0  0  0  0  0  0
  191.8290  178.6390  144.8040 F   0  0  0  0  0  0  0  0  0  0  0  0
  189.7890  175.9530  137.8670 C   0  0  2  0  0  3  0  0  0  0  0  0
  189.3010  174.7440  137.1190 C   0  0  0  0  0  0  0  0  0  0  0  0
  189.4200  173.5910  137.6110 O   0  0  0  0  0  1  0  0  0  0  0  0
  188.7380  174.9000  135.8600 O   0  0  0  0  0  0  0  0  0  0  0  0
  190.9810  175.6470  138.6670 N   0  0  0  0  0  2  0  0  0  0  0  0
  192.1990  175.7270  137.8550 C   0  0  0  0  0  3  0  0  0  0  0  0
  193.0860  177.0280  139.8500 C   0  0  0  0  0  1  0  0  0  0  0  0
  193.1350  176.8340  138.3420 C   0  0  0  0  0  2  0  0  0  0  0  0
  192.8870  174.3680  137.7170 C   0  0  0  0  0  2  0  0  0  0  0  0
  194.3590  174.4830  137.3550 C   0  0  0  0  0  1  0  0  0  0  0  0
  1 13  2  0  0  0  0
  1  5  1  0  0  0  0
  2  1  1  0  0  0  0
  3  9  1  0  0  0  0
  3  2  1  0  0  0  0
  4 10  2  0  0  0  0
  5 12  2  0  0  0  0
  6  5  1  0  0  0  0
  7  3  2  0  0  0  0
  8  3  2  0  0  0  0
  9 23  1  6  0  0  0
  9  6  1  0  0  0  0
 10 11  1  0  0  0  0
 12 10  1  0  0  0  0
 12 14  1  0  0  0  0
 13  4  1  0  0  0  0
 14 16  1  0  0  0  0
 15 18  1  0  0  0  0
 16 15  1  0  0  0  0
 16 18  1  0  0  0  0
 17 14  2  0  0  0  0
 18 20  1  6  0  0  0
 20 19  1  0  0  0  0
 21 20  1  0  0  0  0
 22 20  1  0  0  0  0
 23 24  1  1  0  0  0
 23 27  1  0  0  0  0
 24 25  1  0  0  0  0
 26 24  2  0  0  0  0
 28 30  1  0  0  0  0
 28 27  1  0  0  0  0
 30 29  1  0  0  0  0
 31 28  1  0  0  0  0
 32 31  1  0  0  0  0
M  END
>  <MODEL>
4

>  <REMARK>
 VINA RESULT:      -6.5      4.559      7.008
  Name = 
  8 active torsions:
  status: ('A' for Active; 'I' for Inactive)
    1  A    between atoms: C_2  and  N_8
    2  A    between atoms: C_2  and  C_26
    3  A    between atoms: C_2  and  C_27
    4  A    between atoms: C_4  and  C_29
    5  A    between atoms: N_8  and  CA_19
    6  A    between atoms: C_9  and  C_32
    7  A    between atoms: C_11  and  CA_19
    8  A    between atoms: CA_19  and  C_22
                            x       y       z     vdW  Elec       q    Type
                         _______ _______ _______ _____ _____    ______ ____

>  <TORSDO>
F 8

$$$$
=
 OpenBabel11062414123D

 32 34  0  0  1  0  0  0  0  0999 V2000
  190.6320  177.2320  139.9870 C   0  0  0  0  0  0  0  0  0  0  0  0
  190.8870  177.2080  141.3950 N   0  0  0  0  0  2  0  0  0  0  0  0
  189.6040  177.2020  142.5570 S   0  0  0  0  0  0  0  0  0  0  0  0
  191.2530  176.4540  137.8200 N   0  0  0  0  0  0  0  0  0  0  0  0
  189.4580  177.8000  139.4460 C   0  0  0  0  0  0  0  0  0  0  0  0
  188.3680  178.7850  140.5020 S   0  0  0  0  0  0  0  0  0  0  0  0
  189.5920  175.8860  143.2810 O   0  0  0  0  0  0  0  0  0  0  0  0
  189.8040  178.3250  143.5340 O   0  0  0  0  0  0  0  0  0  0  0  0
  188.0710  177.4300  141.6700 C   0  0  2  0  0  3  0  0  0  0  0  0
  190.1090  176.9360  137.2710 C   0  0  0  0  0  0  0  0  0  0  0  0
  189.9010  176.7790  135.8690 N   0  0  0  0  0  1  0  0  0  0  0  0
  189.1760  177.6290  138.0690 C   0  0  0  0  0  0  0  0  0  0  0  0
  191.5250  176.5790  139.1420 C   0  0  0  0  0  3  0  0  0  0  0  0
  187.9470  178.1830  137.4560 C   0  0  0  0  0  0  0  0  0  0  0  0
  185.9960  176.2580  137.6340 O   0  0  0  0  0  0  0  0  0  0  0  0
  186.7940  177.3620  137.2920 N   0  0  0  0  0  0  0  0  0  0  0  0
  187.9110  179.3790  137.0620 O   0  0  0  0  0  0  0  0  0  0  0  0
  185.3460  177.2600  137.1130 C   0  0  1  0  0  3  0  0  0  0  0  0
  183.6440  177.1600  135.4670 F   0  0  0  0  0  0  0  0  0  0  0  0
  185.0050  177.0040  135.6450 C   0  0  0  0  0  0  0  0  0  0  0  0
  185.6730  177.8720  134.7940 F   0  0  0  0  0  0  0  0  0  0  0  0
  185.3520  175.7060  135.3230 F   0  0  0  0  0  0  0  0  0  0  0  0
  186.9070  177.7810  142.6130 C   0  0  2  0  0  3  0  0  0  0  0  0
  185.7940  178.5460  141.9540 C   0  0  0  0  0  0  0  0  0  0  0  0
  185.6480  179.7790  142.1640 O   0  0  0  0  0  1  0  0  0  0  0  0
  184.9010  177.8780  141.1270 O   0  0  0  0  0  0  0  0  0  0  0  0
  187.3540  178.4370  143.8480 N   0  0  0  0  0  2  0  0  0  0  0  0
  186.6550  177.8970  145.0190 C   0  0  0  0  0  3  0  0  0  0  0  0
  187.5530  177.8720  147.3960 C   0  0  0  0  0  1  0  0  0  0  0  0
  187.6240  177.2500  146.0100 C   0  0  0  0  0  2  0  0  0  0  0  0
  185.7310  178.9320  145.6620 C   0  0  0  0  0  2  0  0  0  0  0  0
  184.2590  178.6510  145.4070 C   0  0  0  0  0  1  0  0  0  0  0  0
  1  2  1  0  0  0  0
  2  3  1  0  0  0  0
  3  7  2  0  0  0  0
  3  8  2  0  0  0  0
  4 13  1  0  0  0  0
  5  1  1  0  0  0  0
  5  6  1  0  0  0  0
  6  9  1  0  0  0  0
  9  3  1  0  0  0  0
  9 23  1  1  0  0  0
 10  4  2  0  0  0  0
 10 12  1  0  0  0  0
 11 10  1  0  0  0  0
 12  5  2  0  0  0  0
 13  1  2  0  0  0  0
 14 12  1  0  0  0  0
 16 14  1  0  0  0  0
 16 15  1  0  0  0  0
 17 14  2  0  0  0  0
 18 20  1  6  0  0  0
 18 16  1  0  0  0  0
 18 15  1  0  0  0  0
 19 20  1  0  0  0  0
 21 20  1  0  0  0  0
 22 20  1  0  0  0  0
 23 24  1  6  0  0  0
 23 27  1  0  0  0  0
 24 25  1  0  0  0  0
 26 24  2  0  0  0  0
 27 28  1  0  0  0  0
 28 31  1  0  0  0  0
 28 30  1  0  0  0  0
 30 29  1  0  0  0  0
 32 31  1  0  0  0  0
M  END
>  <MODEL>
5

>  <REMARK>
 VINA RESULT:      -6.3      3.027      6.443
  Name = 
  8 active torsions:
  status: ('A' for Active; 'I' for Inactive)
    1  A    between atoms: C_2  and  N_8
    2  A    between atoms: C_2  and  C_26
    3  A    between atoms: C_2  and  C_27
    4  A    between atoms: C_4  and  C_29
    5  A    between atoms: N_8  and  CA_19
    6  A    between atoms: C_9  and  C_32
    7  A    between atoms: C_11  and  CA_19
    8  A    between atoms: CA_19  and  C_22
                            x       y       z     vdW  Elec       q    Type
                         _______ _______ _______ _____ _____    ______ ____

>  <TORSDO>
F 8

$$$$
=
 OpenBabel11062414123D

 32 34  0  0  1  0  0  0  0  0999 V2000
  185.6970  178.8340  140.7580 C   0  0  0  0  0  0  0  0  0  0  0  0
  185.4850  179.1700  139.3830 N   0  0  0  0  0  2  0  0  0  0  0  0
  186.2840  178.3250  138.1020 S   0  0  0  0  0  0  0  0  0  0  0  0
  184.7490  178.5600  142.9290 N   0  0  0  0  0  0  0  0  0  0  0  0
  186.9010  178.2520  141.2110 C   0  0  0  0  0  0  0  0  0  0  0  0
  188.3340  178.1800  140.1100 S   0  0  0  0  0  0  0  0  0  0  0  0
  185.2730  177.5490  137.3070 O   0  0  0  0  0  0  0  0  0  0  0  0
  186.9910  179.3090  137.2140 O   0  0  0  0  0  0  0  0  0  0  0  0
  187.4680  177.2130  138.8440 C   0  0  2  0  0  3  0  0  0  0  0  0
  185.8680  177.9430  143.3890 C   0  0  0  0  0  0  0  0  0  0  0  0
  185.9120  177.5280  144.7520 N   0  0  0  0  0  1  0  0  0  0  0  0
  186.9830  177.7740  142.5420 C   0  0  0  0  0  0  0  0  0  0  0  0
  184.6400  178.9940  141.6500 C   0  0  0  0  0  3  0  0  0  0  0  0
  188.2130  177.1320  143.0600 C   0  0  0  0  0  0  0  0  0  0  0  0
  189.5390  178.9960  144.5790 O   0  0  0  0  0  0  0  0  0  0  0  0
  189.1700  177.8970  143.7860 N   0  0  0  0  0  0  0  0  0  0  0  0
  188.4310  175.9080  142.8550 O   0  0  0  0  0  0  0  0  0  0  0  0
  190.2770  177.9350  144.7410 C   0  0  1  0  0  3  0  0  0  0  0  0
  192.4290  178.9290  144.7100 F   0  0  0  0  0  0  0  0  0  0  0  0
  191.6120  178.0640  144.0070 C   0  0  0  0  0  0  0  0  0  0  0  0
  192.2560  176.8430  143.8760 F   0  0  0  0  0  0  0  0  0  0  0  0
  191.3840  178.5870  142.7490 F   0  0  0  0  0  0  0  0  0  0  0  0
  188.4680  176.6640  137.8110 C   0  0  2  0  0  3  0  0  0  0  0  0
  187.8560  175.7400  136.7960 C   0  0  0  0  0  0  0  0  0  0  0  0
  187.8210  176.0540  135.5770 O   0  0  0  0  0  0  0  0  0  0  0  0
  187.2980  174.5390  137.2140 O   0  0  0  0  0  1  0  0  0  0  0  0
  189.6580  176.0700  138.4330 N   0  0  0  0  0  2  0  0  0  0  0  0
  190.8410  176.2390  137.5840 C   0  0  0  0  0  3  0  0  0  0  0  0
  191.6860  177.1280  139.8110 C   0  0  0  0  0  1  0  0  0  0  0  0
  192.0420  176.7540  138.3800 C   0  0  0  0  0  2  0  0  0  0  0  0
  191.1470  174.9820  136.7690 C   0  0  0  0  0  2  0  0  0  0  0  0
  192.3810  174.2430  137.2610 C   0  0  0  0  0  1  0  0  0  0  0  0
  1  5  2  0  0  0  0
  1 13  1  0  0  0  0
  2  1  1  0  0  0  0
  3  9  1  0  0  0  0
  3  2  1  0  0  0  0
  4 10  1  0  0  0  0
  5 12  1  0  0  0  0
  6  5  1  0  0  0  0
  7  3  2  0  0  0  0
  8  3  2  0  0  0  0
  9 23  1  6  0  0  0
  9  6  1  0  0  0  0
 10 11  1  0  0  0  0
 12 14  1  0  0  0  0
 12 10  2  0  0  0  0
 13  4  2  0  0  0  0
 14 16  1  0  0  0  0
 15 18  1  0  0  0  0
 16 15  1  0  0  0  0
 16 18  1  0  0  0  0
 17 14  2  0  0  0  0
 18 20  1  6  0  0  0
 20 19  1  0  0  0  0
 21 20  1  0  0  0  0
 22 20  1  0  0  0  0
 23 24  1  1  0  0  0
 23 27  1  0  0  0  0
 24 26  1  0  0  0  0
 25 24  2  0  0  0  0
 28 30  1  0  0  0  0
 28 27  1  0  0  0  0
 30 29  1  0  0  0  0
 31 32  1  0  0  0  0
 31 28  1  0  0  0  0
M  END
>  <MODEL>
6

>  <REMARK>
 VINA RESULT:      -6.2      4.108      6.711
  Name = 
  8 active torsions:
  status: ('A' for Active; 'I' for Inactive)
    1  A    between atoms: C_2  and  N_8
    2  A    between atoms: C_2  and  C_26
    3  A    between atoms: C_2  and  C_27
    4  A    between atoms: C_4  and  C_29
    5  A    between atoms: N_8  and  CA_19
    6  A    between atoms: C_9  and  C_32
    7  A    between atoms: C_11  and  CA_19
    8  A    between atoms: CA_19  and  C_22
                            x       y       z     vdW  Elec       q    Type
                         _______ _______ _______ _____ _____    ______ ____

>  <TORSDO>
F 8

$$$$
=
 OpenBabel11062414123D

 32 34  0  0  1  0  0  0  0  0999 V2000
  188.3880  177.6710  139.7590 C   0  0  0  0  0  0  0  0  0  0  0  0
  189.4000  177.4530  140.7470 N   0  0  0  0  0  2  0  0  0  0  0  0
  189.0120  177.2320  142.4190 S   0  0  0  0  0  0  0  0  0  0  0  0
  187.6170  177.2390  137.5440 N   0  0  0  0  0  0  0  0  0  0  0  0
  187.1480  178.2700  140.0730 C   0  0  0  0  0  0  0  0  0  0  0  0
  186.9120  179.0510  141.6870 S   0  0  0  0  0  0  0  0  0  0  0  0
  189.3460  175.8250  142.8270 O   0  0  0  0  0  0  0  0  0  0  0  0
  189.7960  178.2070  143.2510 O   0  0  0  0  0  0  0  0  0  0  0  0
  187.2630  177.5300  142.6120 C   0  0  2  0  0  3  0  0  0  0  0  0
  186.3910  177.7540  137.8230 C   0  0  0  0  0  0  0  0  0  0  0  0
  185.4120  177.7950  136.7880 N   0  0  0  0  0  1  0  0  0  0  0  0
  186.1210  178.2900  139.0990 C   0  0  0  0  0  0  0  0  0  0  0  0
  188.6010  177.1810  138.4730 C   0  0  0  0  0  3  0  0  0  0  0  0
  184.7940  178.8820  139.3850 C   0  0  0  0  0  0  0  0  0  0  0  0
  183.2490  176.9280  140.5390 O   0  0  0  0  0  0  0  0  0  0  0  0
  183.7350  178.0660  139.8760 N   0  0  0  0  0  0  0  0  0  0  0  0
  184.5840  180.1080  139.1840 O   0  0  0  0  0  0  0  0  0  0  0  0
  182.4620  177.9640  140.5890 C   0  0  1  0  0  3  0  0  0  0  0  0
  181.3550  178.8910  138.7080 F   0  0  0  0  0  0  0  0  0  0  0  0
  181.3030  177.8360  139.5990 C   0  0  0  0  0  0  0  0  0  0  0  0
  181.3500  176.6440  138.8920 F   0  0  0  0  0  0  0  0  0  0  0  0
  180.1110  177.8970  140.2950 F   0  0  0  0  0  0  0  0  0  0  0  0
  186.8670  177.6980  144.0900 C   0  0  2  0  0  3  0  0  0  0  0  0
  185.5450  178.3830  144.2960 C   0  0  0  0  0  0  0  0  0  0  0  0
  184.5240  178.0170  143.6560 O   0  0  0  0  0  0  0  0  0  0  0  0
  185.4580  179.4490  145.1810 O   0  0  0  0  0  1  0  0  0  0  0  0
  187.9270  178.3190  144.8950 N   0  0  0  0  0  2  0  0  0  0  0  0
  188.3040  177.4650  146.0250 C   0  0  0  0  0  3  0  0  0  0  0  0
  190.6450  176.4980  146.2350 C   0  0  0  0  0  1  0  0  0  0  0  0
  189.7500  177.7070  146.4620 C   0  0  0  0  0  2  0  0  0  0  0  0
  187.2990  177.5580  147.1740 C   0  0  0  0  0  2  0  0  0  0  0  0
  187.9270  178.0400  148.4720 C   0  0  0  0  0  1  0  0  0  0  0  0
  1  5  1  0  0  0  0
  1  2  1  0  0  0  0
  2  3  1  0  0  0  0
  3  9  1  0  0  0  0
  3  7  2  0  0  0  0
  3  8  2  0  0  0  0
  4 10  2  0  0  0  0
  4 13  1  0  0  0  0
  5  6  1  0  0  0  0
  6  9  1  0  0  0  0
  9 23  1  1  0  0  0
 10 12  1  0  0  0  0
 11 10  1  0  0  0  0
 12 14  1  0  0  0  0
 12  5  2  0  0  0  0
 13  1  2  0  0  0  0
 14 16  1  0  0  0  0
 15 18  1  0  0  0  0
 16 15  1  0  0  0  0
 16 18  1  0  0  0  0
 17 14  2  0  0  0  0
 18 20  1  6  0  0  0
 19 20  1  0  0  0  0
 20 22  1  0  0  0  0
 21 20  1  0  0  0  0
 23 24  1  6  0  0  0
 23 27  1  0  0  0  0
 24 26  1  0  0  0  0
 25 24  2  0  0  0  0
 27 28  1  0  0  0  0
 28 30  1  0  0  0  0
 28 31  1  0  0  0  0
 29 30  1  0  0  0  0
 31 32  1  0  0  0  0
M  END
>  <MODEL>
7

>  <REMARK>
 VINA RESULT:      -6.2      2.490      5.428
  Name = 
  8 active torsions:
  status: ('A' for Active; 'I' for Inactive)
    1  A    between atoms: C_2  and  N_8
    2  A    between atoms: C_2  and  C_26
    3  A    between atoms: C_2  and  C_27
    4  A    between atoms: C_4  and  C_29
    5  A    between atoms: N_8  and  CA_19
    6  A    between atoms: C_9  and  C_32
    7  A    between atoms: C_11  and  CA_19
    8  A    between atoms: CA_19  and  C_22
                            x       y       z     vdW  Elec       q    Type
                         _______ _______ _______ _____ _____    ______ ____

>  <TORSDO>
F 8

$$$$
=
 OpenBabel11062414123D

 32 34  0  0  1  0  0  0  0  0999 V2000
  186.8100  178.2010  138.1060 C   0  0  0  0  0  0  0  0  0  0  0  0
  186.9650  177.8460  136.7280 N   0  0  0  0  0  2  0  0  0  0  0  0
  188.0640  176.6090  136.2210 S   0  0  0  0  0  0  0  0  0  0  0  0
  185.3260  178.8390  139.8600 N   0  0  0  0  0  0  0  0  0  0  0  0
  187.8500  178.0320  139.0460 C   0  0  0  0  0  0  0  0  0  0  0  0
  189.5190  177.6330  138.4770 S   0  0  0  0  0  0  0  0  0  0  0  0
  187.2880  175.4460  135.6720 O   0  0  0  0  0  0  0  0  0  0  0  0
  188.9850  177.1550  135.1670 O   0  0  0  0  0  0  0  0  0  0  0  0
  189.0040  176.1020  137.6510 C   0  0  2  0  0  3  0  0  0  0  0  0
  186.2820  178.6330  140.8030 C   0  0  0  0  0  0  0  0  0  0  0  0
  185.9670  178.8920  142.1690 N   0  0  0  0  0  1  0  0  0  0  0  0
  187.5780  178.2260  140.4220 C   0  0  0  0  0  0  0  0  0  0  0  0
  185.5580  178.6270  138.5420 C   0  0  0  0  0  3  0  0  0  0  0  0
  188.6250  178.0380  141.4520 C   0  0  0  0  0  0  0  0  0  0  0  0
  187.7130  176.1440  143.2190 O   0  0  0  0  0  0  0  0  0  0  0  0
  188.3810  177.1990  142.5780 N   0  0  0  0  0  0  0  0  0  0  0  0
  189.7340  178.6260  141.3520 O   0  0  0  0  0  0  0  0  0  0  0  0
  188.9140  176.3790  143.6650 C   0  0  1  0  0  3  0  0  0  0  0  0
  187.5660  177.3230  145.3710 F   0  0  0  0  0  0  0  0  0  0  0  0
  188.8810  177.1520  144.9840 C   0  0  0  0  0  0  0  0  0  0  0  0
  189.5660  176.4920  145.9930 F   0  0  0  0  0  0  0  0  0  0  0  0
  189.4550  178.3940  144.7910 F   0  0  0  0  0  0  0  0  0  0  0  0
  190.2350  175.2620  137.2640 C   0  0  2  0  0  3  0  0  0  0  0  0
  189.9010  173.9050  136.7130 C   0  0  0  0  0  0  0  0  0  0  0  0
  189.2340  173.0800  137.3930 O   0  0  0  0  0  1  0  0  0  0  0  0
  190.3590  173.5460  135.4530 O   0  0  0  0  0  0  0  0  0  0  0  0
  191.2270  175.1780  138.3430 N   0  0  0  0  0  2  0  0  0  0  0  0
  192.5800  175.4370  137.8400 C   0  0  0  0  0  3  0  0  0  0  0  0
  194.6880  174.1000  138.3200 C   0  0  0  0  0  1  0  0  0  0  0  0
  193.3520  174.1400  137.5930 C   0  0  0  0  0  2  0  0  0  0  0  0
  192.5730  176.3780  136.6340 C   0  0  0  0  0  2  0  0  0  0  0  0
  193.5860  175.9840  135.5700 C   0  0  0  0  0  1  0  0  0  0  0  0
  1 13  2  0  0  0  0
  1  5  1  0  0  0  0
  2  1  1  0  0  0  0
  3  2  1  0  0  0  0
  3  9  1  0  0  0  0
  4 10  2  0  0  0  0
  5 12  2  0  0  0  0
  6  5  1  0  0  0  0
  7  3  2  0  0  0  0
  8  3  2  0  0  0  0
  9 23  1  6  0  0  0
  9  6  1  0  0  0  0
 10 11  1  0  0  0  0
 12 10  1  0  0  0  0
 12 14  1  0  0  0  0
 13  4  1  0  0  0  0
 14 16  1  0  0  0  0
 15 18  1  0  0  0  0
 16 15  1  0  0  0  0
 16 18  1  0  0  0  0
 17 14  2  0  0  0  0
 18 20  1  1  0  0  0
 20 19  1  0  0  0  0
 20 21  1  0  0  0  0
 22 20  1  0  0  0  0
 23 24  1  1  0  0  0
 23 27  1  0  0  0  0
 24 25  1  0  0  0  0
 26 24  2  0  0  0  0
 28 27  1  0  0  0  0
 30 28  1  0  0  0  0
 30 29  1  0  0  0  0
 31 28  1  0  0  0  0
 32 31  1  0  0  0  0
M  END
>  <MODEL>
8

>  <REMARK>
 VINA RESULT:      -6.0      4.867      7.235
  Name = 
  8 active torsions:
  status: ('A' for Active; 'I' for Inactive)
    1  A    between atoms: C_2  and  N_8
    2  A    between atoms: C_2  and  C_26
    3  A    between atoms: C_2  and  C_27
    4  A    between atoms: C_4  and  C_29
    5  A    between atoms: N_8  and  CA_19
    6  A    between atoms: C_9  and  C_32
    7  A    between atoms: C_11  and  CA_19
    8  A    between atoms: CA_19  and  C_22
                            x       y       z     vdW  Elec       q    Type
                         _______ _______ _______ _____ _____    ______ ____

>  <TORSDO>
F 8

$$$$
=
 OpenBabel11062414123D

 32 34  0  0  1  0  0  0  0  0999 V2000
  182.9670  178.7640  141.8130 C   0  0  0  0  0  0  0  0  0  0  0  0
  181.9450  178.7630  140.8110 N   0  0  0  0  0  2  0  0  0  0  0  0
  182.1480  177.9470  139.2980 S   0  0  0  0  0  0  0  0  0  0  0  0
  183.5060  178.6510  144.1330 N   0  0  0  0  0  0  0  0  0  0  0  0
  184.3350  178.6340  141.4890 C   0  0  0  0  0  0  0  0  0  0  0  0
  184.8650  178.7570  139.7640 S   0  0  0  0  0  0  0  0  0  0  0  0
  181.1970  176.7870  139.2240 O   0  0  0  0  0  0  0  0  0  0  0  0
  181.8800  178.9040  138.1710 O   0  0  0  0  0  0  0  0  0  0  0  0
  183.8350  177.3670  139.2200 C   0  0  2  0  0  3  0  0  0  0  0  0
  184.8240  178.4660  143.8630 C   0  0  0  0  0  0  0  0  0  0  0  0
  185.7370  178.3430  144.9510 N   0  0  0  0  0  1  0  0  0  0  0  0
  185.2800  178.4560  142.5290 C   0  0  0  0  0  0  0  0  0  0  0  0
  182.5830  178.7890  143.1510 C   0  0  0  0  0  3  0  0  0  0  0  0
  186.7240  178.2900  142.2440 C   0  0  0  0  0  0  0  0  0  0  0  0
  187.5620  176.0140  143.5300 O   0  0  0  0  0  0  0  0  0  0  0  0
  187.4660  177.2560  142.8820 N   0  0  0  0  0  0  0  0  0  0  0  0
  187.3120  179.0670  141.4450 O   0  0  0  0  0  0  0  0  0  0  0  0
  188.6360  176.3780  142.8890 C   0  0  1  0  0  3  0  0  0  0  0  0
  190.8670  176.1920  143.6690 F   0  0  0  0  0  0  0  0  0  0  0  0
  189.7030  176.9160  143.8430 C   0  0  0  0  0  0  0  0  0  0  0  0
  189.9700  178.2590  143.6240 F   0  0  0  0  0  0  0  0  0  0  0  0
  189.2650  176.7530  145.1440 F   0  0  0  0  0  0  0  0  0  0  0  0
  184.2290  176.9330  137.7970 C   0  0  2  0  0  3  0  0  0  0  0  0
  183.5760  175.6580  137.3420 C   0  0  0  0  0  0  0  0  0  0  0  0
  182.7150  175.6670  136.4230 O   0  0  0  0  0  0  0  0  0  0  0  0
  183.9070  174.4620  137.9640 O   0  0  0  0  0  1  0  0  0  0  0  0
  185.6830  176.8950  137.5970 N   0  0  0  0  0  2  0  0  0  0  0  0
  186.0590  177.5200  136.3250 C   0  0  0  0  0  3  0  0  0  0  0  0
  188.0670  178.2460  137.7050 C   0  0  0  0  0  1  0  0  0  0  0  0
  187.1800  178.5450  136.5050 C   0  0  0  0  0  2  0  0  0  0  0  0
  186.3560  176.4810  135.2420 C   0  0  0  0  0  2  0  0  0  0  0  0
  187.0140  175.2250  135.7900 C   0  0  0  0  0  1  0  0  0  0  0  0
  1 13  1  0  0  0  0
  2  1  1  0  0  0  0
  3  2  1  0  0  0  0
  5  1  2  0  0  0  0
  5 12  1  0  0  0  0
  6  5  1  0  0  0  0
  7  3  2  0  0  0  0
  8  3  2  0  0  0  0
  9 23  1  6  0  0  0
  9  3  1  0  0  0  0
  9  6  1  0  0  0  0
 10  4  1  0  0  0  0
 10 11  1  0  0  0  0
 12 10  2  0  0  0  0
 13  4  2  0  0  0  0
 14 12  1  0  0  0  0
 14 16  1  0  0  0  0
 16 18  1  0  0  0  0
 16 15  1  0  0  0  0
 17 14  2  0  0  0  0
 18 15  1  0  0  0  0
 18 20  1  1  0  0  0
 19 20  1  0  0  0  0
 20 22  1  0  0  0  0
 21 20  1  0  0  0  0
 23 24  1  1  0  0  0
 24 26  1  0  0  0  0
 25 24  2  0  0  0  0
 27 23  1  0  0  0  0
 28 30  1  0  0  0  0
 28 27  1  0  0  0  0
 30 29  1  0  0  0  0
 31 32  1  0  0  0  0
 31 28  1  0  0  0  0
M  END
>  <MODEL>
9

>  <REMARK>
 VINA RESULT:      -6.0      3.830      6.940
  Name = 
  8 active torsions:
  status: ('A' for Active; 'I' for Inactive)
    1  A    between atoms: C_2  and  N_8
    2  A    between atoms: C_2  and  C_26
    3  A    between atoms: C_2  and  C_27
    4  A    between atoms: C_4  and  C_29
    5  A    between atoms: N_8  and  CA_19
    6  A    between atoms: C_9  and  C_32
    7  A    between atoms: C_11  and  CA_19
    8  A    between atoms: CA_19  and  C_22
                            x       y       z     vdW  Elec       q    Type
                         _______ _______ _______ _____ _____    ______ ____

>  <TORSDO>
F 8

$$$$
