=
 OpenBabel11062412143D

 55 60  0  0  1  0  0  0  0  0999 V2000
  185.8600  177.6460  138.1060 C   0  0  0  0  0  3  0  0  0  0  0  0
  188.3220  176.4770  137.4270 C   0  0  0  0  0  3  0  0  0  0  0  0
  187.0370  178.0540  138.7440 C   0  0  0  0  0  3  0  0  0  0  0  0
  184.6790  175.9820  136.5690 C   0  0  0  0  0  0  0  0  0  0  0  0
  187.2240  174.9670  135.7690 C   0  0  0  0  0  2  0  0  0  0  0  0
  185.9070  176.6320  137.1190 C   0  0  0  0  0  0  0  0  0  0  0  0
  183.4620  174.2100  135.8910 N   0  0  0  0  0  0  0  0  0  0  0  0
  186.0330  174.0080  135.8480 C   0  0  0  0  0  2  0  0  0  0  0  0
  183.3060  176.3890  136.6930 N   0  0  0  0  0  0  0  0  0  0  0  0
  188.2780  177.4820  138.3970 C   0  0  0  0  0  0  0  0  0  0  0  0
  187.1450  176.0360  136.8240 C   0  0  0  0  0  0  0  0  0  0  0  0
  182.5050  175.2240  136.3100 C   0  0  0  0  0  3  0  0  0  0  0  0
  184.7520  174.7700  136.0590 C   0  0  0  0  0  0  0  0  0  0  0  0
  182.7820  177.3640  137.6840 C   0  0  1  0  0  3  0  0  0  0  0  0
  181.5350  178.0340  137.1850 C   0  0  0  0  0  3  0  0  0  0  0  0
  181.4700  179.3100  137.0580 N   0  0  0  0  0  0  0  0  0  0  0  0
  180.2790  179.9660  136.5450 C   0  0  2  0  0  3  0  0  0  0  0  0
  180.3140  180.1170  135.0040 C   0  0  0  0  0  2  0  0  0  0  0  0
  181.2470  181.0730  134.5970 O   0  0  0  0  0  1  0  0  0  0  0  0
  180.2430  181.3810  137.1560 C   0  0  2  0  0  3  0  0  0  0  0  0
  179.5880  180.8070  139.5520 C   0  0  0  0  0  1  0  0  0  0  0  0
  180.5910  181.5220  138.6570 C   0  0  0  0  0  2  0  0  0  0  0  0
  179.2820  182.2590  136.5750 O   0  0  0  0  0  0  0  0  0  0  0  0
  180.7690  184.3030  135.1840 N   0  0  0  0  0  2  0  0  0  0  0  0
  179.4750  183.5270  137.0120 N   0  0  0  0  0  2  0  0  0  0  0  0
  180.4440  184.4270  136.4260 C   0  0  0  0  0  0  0  0  0  0  0  0
  181.4660  185.0280  137.3330 C   0  0  0  0  0  1  0  0  0  0  0  0
  182.4890  176.6860  138.9390 N   0  0  0  0  0  2  0  0  0  0  0  0
  179.6990  177.3140  141.3870 C   0  0  0  0  0  3  0  0  0  0  0  0
  181.5280  178.8170  141.9310 C   0  0  0  0  0  3  0  0  0  0  0  0
  180.4420  176.7960  140.3160 C   0  0  0  0  0  3  0  0  0  0  0  0
  182.2770  178.2870  140.8570 C   0  0  0  0  0  3  0  0  0  0  0  0
  181.7370  177.2780  140.0270 C   0  0  0  0  0  0  0  0  0  0  0  0
  180.2480  178.3140  142.2000 C   0  0  0  0  0  3  0  0  0  0  0  0
  189.5420  177.8560  139.1220 C   0  0  0  0  0  2  0  0  0  0  0  0
  189.8660  176.8200  140.2120 C   0  0  0  0  0  2  0  0  0  0  0  0
  188.8790  178.1080  142.1220 C   0  0  0  0  0  2  0  0  0  0  0  0
  190.1870  177.4520  141.5930 C   0  0  1  0  0  0  0  0  0  0  0  0
  190.7210  176.3010  142.5150 C   0  0  2  0  0  3  0  0  0  0  0  0
  191.1580  178.4460  141.4340 O   0  0  0  0  0  1  0  0  0  0  0  0
  188.2890  176.0320  143.1820 C   0  0  0  0  0  2  0  0  0  0  0  0
  188.3950  177.4770  143.3620 N   0  0  2  0  0  0  0  0  0  0  0  0
  189.6770  175.4160  143.2150 C   0  0  0  0  0  2  0  0  0  0  0  0
  184.4430  178.8960  145.1030 C   0  0  0  0  0  2  0  0  0  0  0  0
  185.1800  179.1970  142.6230 C   0  0  0  0  0  2  0  0  0  0  0  0
  186.6160  177.5030  145.1960 C   0  0  2  0  0  3  0  0  0  0  0  0
  184.7820  179.8730  143.9540 C   0  0  0  0  0  2  0  0  0  0  0  0
  185.7000  178.5130  145.9060 C   0  0  0  0  0  2  0  0  0  0  0  0
  187.6690  177.1970  146.0280 F   0  0  0  0  0  0  0  0  0  0  0  0
  187.1310  178.0600  143.8280 C   0  0  2  0  0  3  0  0  0  0  0  0
  186.0670  177.9410  142.7340 C   0  0  0  0  0  2  0  0  0  0  0  0
  191.7980  176.6540  143.3850 O   0  0  0  0  0  0  0  0  0  0  0  0
  191.6500  177.3550  144.6000 C   0  0  0  0  0  0  0  0  0  0  0  0
  191.5550  176.5770  145.8750 C   0  0  0  0  0  1  0  0  0  0  0  0
  191.4880  178.6070  144.6050 O   0  0  0  0  0  0  0  0  0  0  0  0
  1  3  1  0  0  0  0
  2 10  1  0  0  0  0
  4  9  1  0  0  0  0
  4  6  1  0  0  0  0
  5  8  1  0  0  0  0
  5 11  1  0  0  0  0
  6  1  2  0  0  0  0
  7 13  1  0  0  0  0
  7 12  2  0  0  0  0
  8 13  1  0  0  0  0
  9 14  1  0  0  0  0
 10  3  2  0  0  0  0
 10 35  1  0  0  0  0
 11  6  1  0  0  0  0
 11  2  2  0  0  0  0
 12  9  1  0  0  0  0
 13  4  2  0  0  0  0
 14 15  1  6  0  0  0
 14 28  1  0  0  0  0
 16 15  2  0  0  0  0
 17 18  1  6  0  0  0
 17 16  1  0  0  0  0
 17 20  1  0  0  0  0
 19 18  1  0  0  0  0
 20 22  1  1  0  0  0
 22 21  1  0  0  0  0
 23 25  1  0  0  0  0
 23 20  1  0  0  0  0
 24 26  2  0  0  0  0
 26 25  1  0  0  0  0
 26 27  1  0  0  0  0
 28 33  1  0  0  0  0
 29 34  1  0  0  0  0
 30 34  2  0  0  0  0
 31 29  2  0  0  0  0
 32 30  1  0  0  0  0
 33 31  1  0  0  0  0
 33 32  2  0  0  0  0
 35 36  1  0  0  0  0
 36 38  1  0  0  0  0
 38 40  1  6  0  0  0
 38 37  1  0  0  0  0
 38 39  1  0  0  0  0
 39 43  1  0  0  0  0
 39 52  1  1  0  0  0
 41 43  1  0  0  0  0
 41 42  1  0  0  0  0
 42 37  1  6  0  0  0
 42 50  1  0  0  0  0
 44 48  1  0  0  0  0
 45 51  1  0  0  0  0
 45 47  1  0  0  0  0
 46 48  1  0  0  0  0
 46 49  1  1  0  0  0
 47 44  1  0  0  0  0
 50 51  1  6  0  0  0
 50 46  1  0  0  0  0
 52 53  1  0  0  0  0
 53 55  2  0  0  0  0
 53 54  1  0  0  0  0
M  END
>  <MODEL>
1

>  <REMARK>
 VINA RESULT:      -7.8      0.000      0.000
  Name = 
  16 active torsions:
  status: ('A' for Active; 'I' for Inactive)
    1  A    between atoms: C_4  and  O_27
    2  A    between atoms: C_5  and  C_18
    3  A    between atoms: C_8  and  O_27
    4  A    between atoms: N_10  and  O_55
    5  A    between atoms: C_11  and  CA_20
    6  A    between atoms: N_14  and  C_39
    7  A    between atoms: N_14  and  C_43
    8  A    between atoms: C_18  and  C_37
    9  A    between atoms: CA_20  and  C_45
   10  A    between atoms: CA_20  and  N_51
   11  A    between atoms: C_26  and  C_43
   12  A    between atoms: N_35  and  C_52
   13  A    between atoms: C_37  and  C_44
   14  A    between atoms: N_41  and  C_43
   15  A    between atoms: C_45  and  C_48
   16  A    between atoms: C_45  and  O_55
                            x       y       z     vdW  Elec       q    Type
                         _______ _______ _______ _____ _____    ______ ____

>  <TORSDO>
F 16

$$$$
=
 OpenBabel11062412143D

 55 60  0  0  1  0  0  0  0  0999 V2000
  183.4210  179.0970  139.9710 C   0  0  0  0  0  3  0  0  0  0  0  0
  184.3460  178.6080  142.5780 C   0  0  0  0  0  3  0  0  0  0  0  0
  184.7930  179.0140  140.2310 C   0  0  0  0  0  3  0  0  0  0  0  0
  181.0370  179.2520  140.8780 C   0  0  0  0  0  0  0  0  0  0  0  0
  182.0140  178.5580  143.4680 C   0  0  0  0  0  2  0  0  0  0  0  0
  182.4910  178.9440  141.0290 C   0  0  0  0  0  0  0  0  0  0  0  0
  179.0760  180.1300  141.5610 N   0  0  0  0  0  0  0  0  0  0  0  0
  180.8240  179.5150  143.3550 C   0  0  0  0  0  2  0  0  0  0  0  0
  180.2790  179.4790  139.6770 N   0  0  0  0  0  0  0  0  0  0  0  0
  185.2640  178.7530  141.5350 C   0  0  0  0  0  0  0  0  0  0  0  0
  182.9800  178.7370  142.3300 C   0  0  0  0  0  0  0  0  0  0  0  0
  179.0250  180.1040  140.1050 C   0  0  0  0  0  3  0  0  0  0  0  0
  180.3210  179.5700  141.9370 C   0  0  0  0  0  0  0  0  0  0  0  0
  180.8530  179.7890  138.3420 C   0  0  1  0  0  3  0  0  0  0  0  0
  181.1200  178.5360  137.5590 C   0  0  0  0  0  3  0  0  0  0  0  0
  182.0140  178.5060  136.6370 N   0  0  0  0  0  0  0  0  0  0  0  0
  182.3030  177.2910  135.8940 C   0  0  2  0  0  3  0  0  0  0  0  0
  181.0370  176.4300  135.6680 C   0  0  0  0  0  2  0  0  0  0  0  0
  180.1270  177.0590  134.8160 O   0  0  0  0  0  1  0  0  0  0  0  0
  183.2890  176.4650  136.7450 C   0  0  2  0  0  3  0  0  0  0  0  0
  182.6600  175.5870  139.0550 C   0  0  0  0  0  1  0  0  0  0  0  0
  182.7130  175.2840  137.5630 C   0  0  0  0  0  2  0  0  0  0  0  0
  184.3940  177.2010  137.2620 O   0  0  0  0  0  0  0  0  0  0  0  0
  186.8200  178.7620  137.2280 N   0  0  0  0  0  2  0  0  0  0  0  0
  185.5300  176.8770  136.5970 N   0  0  0  0  0  2  0  0  0  0  0  0
  186.6160  177.8080  136.3840 C   0  0  0  0  0  0  0  0  0  0  0  0
  187.0540  178.0480  134.9780 C   0  0  0  0  0  1  0  0  0  0  0  0
  179.9330  180.6330  137.5920 N   0  0  0  0  0  2  0  0  0  0  0  0
  181.4150  184.0740  137.2250 C   0  0  0  0  0  3  0  0  0  0  0  0
  180.4050  183.4610  135.1020 C   0  0  0  0  0  3  0  0  0  0  0  0
  181.0110  182.8470  137.7720 C   0  0  0  0  0  3  0  0  0  0  0  0
  180.0060  182.2220  135.6550 C   0  0  0  0  0  3  0  0  0  0  0  0
  180.2940  181.9070  137.0020 C   0  0  0  0  0  0  0  0  0  0  0  0
  181.1220  184.3730  135.8880 C   0  0  0  0  0  3  0  0  0  0  0  0
  186.7350  178.7310  141.8450 C   0  0  0  0  0  2  0  0  0  0  0  0
  186.9730  178.3220  143.3090 C   0  0  0  0  0  2  0  0  0  0  0  0
  188.5620  176.8430  142.0570 C   0  0  0  0  0  2  0  0  0  0  0  0
  188.0240  177.1920  143.4740 C   0  0  1  0  0  0  0  0  0  0  0  0
  189.1340  177.7330  144.4430 C   0  0  2  0  0  3  0  0  0  0  0  0
  187.4070  176.0590  144.0150 O   0  0  0  0  0  1  0  0  0  0  0  0
  190.2750  178.5090  142.3160 C   0  0  0  0  0  2  0  0  0  0  0  0
  189.9980  177.1330  141.9130 N   0  0  2  0  0  0  0  0  0  0  0  0
  190.2400  178.6080  143.8320 C   0  0  0  0  0  2  0  0  0  0  0  0
  191.8600  176.6170  137.7980 C   0  0  0  0  0  2  0  0  0  0  0  0
  189.3150  176.4290  138.3230 C   0  0  0  0  0  2  0  0  0  0  0  0
  191.9410  177.3630  140.2690 C   0  0  2  0  0  3  0  0  0  0  0  0
  190.5950  175.7300  137.8120 C   0  0  0  0  0  2  0  0  0  0  0  0
  192.6070  176.5560  139.1430 C   0  0  0  0  0  2  0  0  0  0  0  0
  192.7240  177.2770  141.3980 F   0  0  0  0  0  0  0  0  0  0  0  0
  190.4910  176.8560  140.5580 C   0  0  2  0  0  3  0  0  0  0  0  0
  189.4930  177.3820  139.5230 C   0  0  0  0  0  2  0  0  0  0  0  0
  189.6530  176.7860  145.3790 O   0  0  0  0  0  0  0  0  0  0  0  0
  190.0540  177.0970  146.6950 C   0  0  0  0  0  0  0  0  0  0  0  0
  191.2910  176.4590  147.2420 C   0  0  0  0  0  1  0  0  0  0  0  0
  189.3250  177.8110  147.4390 O   0  0  0  0  0  0  0  0  0  0  0  0
  1  3  2  0  0  0  0
  1  6  1  0  0  0  0
  3 10  1  0  0  0  0
  4  6  1  0  0  0  0
  4 13  2  0  0  0  0
  6 11  2  0  0  0  0
  7 13  1  0  0  0  0
  8  5  1  0  0  0  0
  9 12  1  0  0  0  0
  9  4  1  0  0  0  0
 10 35  1  0  0  0  0
 10  2  2  0  0  0  0
 11  2  1  0  0  0  0
 11  5  1  0  0  0  0
 12  7  2  0  0  0  0
 13  8  1  0  0  0  0
 14 15  1  6  0  0  0
 14  9  1  0  0  0  0
 16 15  2  0  0  0  0
 17 18  1  1  0  0  0
 17 16  1  0  0  0  0
 17 20  1  0  0  0  0
 19 18  1  0  0  0  0
 20 23  1  0  0  0  0
 20 22  1  1  0  0  0
 22 21  1  0  0  0  0
 25 23  1  0  0  0  0
 26 25  1  0  0  0  0
 26 24  2  0  0  0  0
 27 26  1  0  0  0  0
 28 14  1  0  0  0  0
 29 31  1  0  0  0  0
 30 32  2  0  0  0  0
 30 34  1  0  0  0  0
 32 33  1  0  0  0  0
 33 28  1  0  0  0  0
 33 31  2  0  0  0  0
 34 29  2  0  0  0  0
 35 36  1  0  0  0  0
 36 38  1  0  0  0  0
 37 38  1  0  0  0  0
 38 40  1  1  0  0  0
 38 39  1  0  0  0  0
 39 52  1  6  0  0  0
 41 43  1  0  0  0  0
 42 37  1  6  0  0  0
 42 41  1  0  0  0  0
 43 39  1  0  0  0  0
 44 47  1  0  0  0  0
 44 48  1  0  0  0  0
 45 51  1  0  0  0  0
 46 50  1  0  0  0  0
 46 49  1  1  0  0  0
 47 45  1  0  0  0  0
 48 46  1  0  0  0  0
 50 51  1  6  0  0  0
 50 42  1  0  0  0  0
 52 53  1  0  0  0  0
 53 54  1  0  0  0  0
 53 55  2  0  0  0  0
M  END
>  <MODEL>
2

>  <REMARK>
 VINA RESULT:      -7.7      2.442      6.326
  Name = 
  16 active torsions:
  status: ('A' for Active; 'I' for Inactive)
    1  A    between atoms: C_4  and  O_27
    2  A    between atoms: C_5  and  C_18
    3  A    between atoms: C_8  and  O_27
    4  A    between atoms: N_10  and  O_55
    5  A    between atoms: C_11  and  CA_20
    6  A    between atoms: N_14  and  C_39
    7  A    between atoms: N_14  and  C_43
    8  A    between atoms: C_18  and  C_37
    9  A    between atoms: CA_20  and  C_45
   10  A    between atoms: CA_20  and  N_51
   11  A    between atoms: C_26  and  C_43
   12  A    between atoms: N_35  and  C_52
   13  A    between atoms: C_37  and  C_44
   14  A    between atoms: N_41  and  C_43
   15  A    between atoms: C_45  and  C_48
   16  A    between atoms: C_45  and  O_55
                            x       y       z     vdW  Elec       q    Type
                         _______ _______ _______ _____ _____    ______ ____

>  <TORSDO>
F 16

$$$$
=
 OpenBabel11062412143D

 55 60  0  0  1  0  0  0  0  0999 V2000
  184.3410  178.7510  140.6420 C   0  0  0  0  0  3  0  0  0  0  0  0
  186.0960  178.5270  142.8240 C   0  0  0  0  0  3  0  0  0  0  0  0
  185.7250  178.8270  140.4480 C   0  0  0  0  0  3  0  0  0  0  0  0
  182.3670  178.7160  142.2630 C   0  0  0  0  0  0  0  0  0  0  0  0
  184.1890  178.2910  144.4190 C   0  0  0  0  0  2  0  0  0  0  0  0
  183.8200  178.5700  141.9470 C   0  0  0  0  0  0  0  0  0  0  0  0
  180.6340  179.4270  143.5170 N   0  0  0  0  0  0  0  0  0  0  0  0
  182.9200  179.1110  144.6690 C   0  0  0  0  0  2  0  0  0  0  0  0
  181.2470  178.7860  141.3650 N   0  0  0  0  0  0  0  0  0  0  0  0
  186.6120  178.6990  141.5380 C   0  0  0  0  0  0  0  0  0  0  0  0
  184.7160  178.4980  143.0260 C   0  0  0  0  0  0  0  0  0  0  0  0
  180.1280  179.3040  142.1570 C   0  0  0  0  0  3  0  0  0  0  0  0
  181.9910  179.0240  143.4870 C   0  0  0  0  0  0  0  0  0  0  0  0
  181.3260  179.0690  139.9080 C   0  0  1  0  0  3  0  0  0  0  0  0
  181.4890  177.8040  139.1150 C   0  0  0  0  0  3  0  0  0  0  0  0
  182.1650  177.7850  138.0230 N   0  0  0  0  0  0  0  0  0  0  0  0
  182.3560  176.5610  137.2650 C   0  0  2  0  0  3  0  0  0  0  0  0
  181.5850  175.3670  137.8800 C   0  0  0  0  0  2  0  0  0  0  0  0
  181.1020  174.5000  136.8980 O   0  0  0  0  0  1  0  0  0  0  0  0
  183.8600  176.2270  137.3150 C   0  0  2  0  0  3  0  0  0  0  0  0
  184.2180  177.1370  134.9610 C   0  0  0  0  0  1  0  0  0  0  0  0
  184.7980  177.0040  136.3620 C   0  0  0  0  0  2  0  0  0  0  0  0
  184.1610  174.8730  137.6430 O   0  0  0  0  0  0  0  0  0  0  0  0
  184.6390  172.1230  136.9140 N   0  0  0  0  0  2  0  0  0  0  0  0
  185.1990  174.4250  136.8950 N   0  0  0  0  0  2  0  0  0  0  0  0
  185.5500  173.0270  136.7840 C   0  0  0  0  0  0  0  0  0  0  0  0
  186.9450  172.6340  137.1420 C   0  0  0  0  0  1  0  0  0  0  0  0
  180.1190  179.7540  139.4690 N   0  0  0  0  0  2  0  0  0  0  0  0
  181.2020  182.8100  137.5550 C   0  0  0  0  0  3  0  0  0  0  0  0
  179.1240  182.0110  136.5820 C   0  0  0  0  0  3  0  0  0  0  0  0
  181.1600  181.7720  138.4980 C   0  0  0  0  0  3  0  0  0  0  0  0
  179.0900  180.9620  137.5290 C   0  0  0  0  0  3  0  0  0  0  0  0
  180.1030  180.8380  138.5070 C   0  0  0  0  0  0  0  0  0  0  0  0
  180.1910  182.9190  136.5920 C   0  0  0  0  0  3  0  0  0  0  0  0
  188.0970  178.8500  141.3580 C   0  0  0  0  0  2  0  0  0  0  0  0
  188.8500  178.2550  142.5610 C   0  0  0  0  0  2  0  0  0  0  0  0
  189.2840  176.5600  140.7670 C   0  0  0  0  0  2  0  0  0  0  0  0
  189.4420  176.8460  142.2880 C   0  0  1  0  0  0  0  0  0  0  0  0
  190.9370  176.8740  142.7620 C   0  0  2  0  0  3  0  0  0  0  0  0
  188.7150  175.8900  143.0050 O   0  0  0  0  0  1  0  0  0  0  0  0
  191.4320  177.5660  140.3730 C   0  0  0  0  0  2  0  0  0  0  0  0
  190.5810  176.4150  140.0840 N   0  0  2  0  0  0  0  0  0  0  0  0
  191.9770  177.4480  141.7870 C   0  0  0  0  0  2  0  0  0  0  0  0
  190.5320  176.0000  135.5580 C   0  0  0  0  0  2  0  0  0  0  0  0
  188.4230  176.3180  137.0540 C   0  0  0  0  0  2  0  0  0  0  0  0
  191.7370  176.4050  137.8050 C   0  0  2  0  0  3  0  0  0  0  0  0
  189.1890  175.4200  136.0570 C   0  0  0  0  0  2  0  0  0  0  0  0
  191.6950  175.6120  136.4890 C   0  0  0  0  0  2  0  0  0  0  0  0
  192.8440  176.0120  138.5250 F   0  0  0  0  0  0  0  0  0  0  0  0
  190.4300  176.2010  138.6400 C   0  0  2  0  0  3  0  0  0  0  0  0
  189.2800  177.0560  138.1030 C   0  0  0  0  0  2  0  0  0  0  0  0
  191.4030  175.6880  143.4090 O   0  0  0  0  0  0  0  0  0  0  0  0
  191.7870  175.6120  144.7640 C   0  0  0  0  0  0  0  0  0  0  0  0
  191.5560  176.7960  145.6470 C   0  0  0  0  0  1  0  0  0  0  0  0
  192.4160  174.6060  145.1990 O   0  0  0  0  0  0  0  0  0  0  0  0
  1  6  1  0  0  0  0
  2 11  1  0  0  0  0
  3  1  2  0  0  0  0
  3 10  1  0  0  0  0
  4 13  2  0  0  0  0
  5  8  1  0  0  0  0
  6  4  1  0  0  0  0
  6 11  2  0  0  0  0
  9 12  1  0  0  0  0
  9  4  1  0  0  0  0
 10  2  2  0  0  0  0
 11  5  1  0  0  0  0
 12  7  2  0  0  0  0
 13  7  1  0  0  0  0
 13  8  1  0  0  0  0
 14 15  1  6  0  0  0
 14  9  1  0  0  0  0
 16 15  2  0  0  0  0
 17 20  1  0  0  0  0
 17 18  1  1  0  0  0
 17 16  1  0  0  0  0
 19 18  1  0  0  0  0
 20 22  1  6  0  0  0
 20 23  1  0  0  0  0
 21 22  1  0  0  0  0
 25 23  1  0  0  0  0
 26 25  1  0  0  0  0
 26 24  2  0  0  0  0
 26 27  1  0  0  0  0
 28 14  1  0  0  0  0
 29 31  1  0  0  0  0
 30 34  1  0  0  0  0
 30 32  2  0  0  0  0
 31 33  2  0  0  0  0
 32 33  1  0  0  0  0
 33 28  1  0  0  0  0
 34 29  2  0  0  0  0
 35 10  1  0  0  0  0
 35 36  1  0  0  0  0
 37 38  1  0  0  0  0
 38 36  1  0  0  0  0
 38 39  1  0  0  0  0
 38 40  1  1  0  0  0
 39 52  1  6  0  0  0
 41 43  1  0  0  0  0
 42 41  1  6  0  0  0
 42 37  1  0  0  0  0
 43 39  1  0  0  0  0
 44 47  1  0  0  0  0
 44 48  1  0  0  0  0
 45 51  1  0  0  0  0
 46 49  1  1  0  0  0
 46 50  1  0  0  0  0
 47 45  1  0  0  0  0
 48 46  1  0  0  0  0
 50 51  1  6  0  0  0
 50 42  1  0  0  0  0
 52 53  1  0  0  0  0
 53 55  2  0  0  0  0
 53 54  1  0  0  0  0
M  END
>  <MODEL>
3

>  <REMARK>
 VINA RESULT:      -7.4      2.729      6.908
  Name = 
  16 active torsions:
  status: ('A' for Active; 'I' for Inactive)
    1  A    between atoms: C_4  and  O_27
    2  A    between atoms: C_5  and  C_18
    3  A    between atoms: C_8  and  O_27
    4  A    between atoms: N_10  and  O_55
    5  A    between atoms: C_11  and  CA_20
    6  A    between atoms: N_14  and  C_39
    7  A    between atoms: N_14  and  C_43
    8  A    between atoms: C_18  and  C_37
    9  A    between atoms: CA_20  and  C_45
   10  A    between atoms: CA_20  and  N_51
   11  A    between atoms: C_26  and  C_43
   12  A    between atoms: N_35  and  C_52
   13  A    between atoms: C_37  and  C_44
   14  A    between atoms: N_41  and  C_43
   15  A    between atoms: C_45  and  C_48
   16  A    between atoms: C_45  and  O_55
                            x       y       z     vdW  Elec       q    Type
                         _______ _______ _______ _____ _____    ______ ____

>  <TORSDO>
F 16

$$$$
=
 OpenBabel11062412143D

 55 60  0  0  1  0  0  0  0  0999 V2000
  186.1840  178.4720  139.4750 C   0  0  0  0  0  3  0  0  0  0  0  0
  188.3820  177.0960  138.3940 C   0  0  0  0  0  3  0  0  0  0  0  0
  187.3890  178.3950  140.1830 C   0  0  0  0  0  3  0  0  0  0  0  0
  184.7590  177.6800  137.5070 C   0  0  0  0  0  0  0  0  0  0  0  0
  187.0760  176.4680  136.3610 C   0  0  0  0  0  2  0  0  0  0  0  0
  186.0680  177.8440  138.2100 C   0  0  0  0  0  0  0  0  0  0  0  0
  183.2370  176.5190  136.3180 N   0  0  0  0  0  0  0  0  0  0  0  0
  185.7100  175.8070  136.1520 C   0  0  0  0  0  2  0  0  0  0  0  0
  183.4950  178.3040  137.7890 N   0  0  0  0  0  0  0  0  0  0  0  0
  188.5010  177.7190  139.6390 C   0  0  0  0  0  0  0  0  0  0  0  0
  187.1690  177.1310  137.7080 C   0  0  0  0  0  0  0  0  0  0  0  0
  182.4900  177.5200  137.0670 C   0  0  0  0  0  3  0  0  0  0  0  0
  184.6050  176.7110  136.6290 C   0  0  0  0  0  0  0  0  0  0  0  0
  183.1380  178.9930  139.0560 C   0  0  1  0  0  3  0  0  0  0  0  0
  181.9410  179.8820  138.8750 C   0  0  0  0  0  3  0  0  0  0  0  0
  181.9280  180.8070  137.9850 N   0  0  0  0  0  0  0  0  0  0  0  0
  180.7630  181.6520  137.7790 C   0  0  2  0  0  3  0  0  0  0  0  0
  179.5310  181.1490  138.5710 C   0  0  0  0  0  2  0  0  0  0  0  0
  179.2540  181.9630  139.6710 O   0  0  0  0  0  1  0  0  0  0  0  0
  180.4180  181.5870  136.2780 C   0  0  2  0  0  3  0  0  0  0  0  0
  179.0850  179.6880  135.2230 C   0  0  0  0  0  1  0  0  0  0  0  0
  180.4700  180.2030  135.5900 C   0  0  0  0  0  2  0  0  0  0  0  0
  180.7660  182.7520  135.5340 O   0  0  0  0  0  0  0  0  0  0  0  0
  181.5280  185.2100  136.8400 N   0  0  0  0  0  2  0  0  0  0  0  0
  179.9300  183.7740  135.8380 N   0  0  0  0  0  2  0  0  0  0  0  0
  180.2920  184.8570  136.7260 C   0  0  0  0  0  0  0  0  0  0  0  0
  179.4090  185.1110  137.9020 C   0  0  0  0  0  1  0  0  0  0  0  0
  182.8490  178.0100  140.0910 N   0  0  0  0  0  2  0  0  0  0  0  0
  184.0720  178.6360  143.5970 C   0  0  0  0  0  3  0  0  0  0  0  0
  181.6640  178.9580  143.5710 C   0  0  0  0  0  3  0  0  0  0  0  0
  184.0430  178.3150  142.2310 C   0  0  0  0  0  3  0  0  0  0  0  0
  181.6410  178.6430  142.1940 C   0  0  0  0  0  3  0  0  0  0  0  0
  182.8300  178.3040  141.5100 C   0  0  0  0  0  0  0  0  0  0  0  0
  182.8850  178.9690  144.2600 C   0  0  0  0  0  3  0  0  0  0  0  0
  189.7790  177.5650  140.4160 C   0  0  0  0  0  2  0  0  0  0  0  0
  189.8110  178.5440  141.6030 C   0  0  0  0  0  2  0  0  0  0  0  0
  189.7470  178.4530  144.1070 C   0  0  0  0  0  2  0  0  0  0  0  0
  190.5380  177.9800  142.8530 C   0  0  1  0  0  0  0  0  0  0  0  0
  190.5780  176.4190  142.6980 C   0  0  2  0  0  3  0  0  0  0  0  0
  191.8330  178.5030  142.9130 O   0  0  0  0  0  1  0  0  0  0  0  0
  188.3870  176.4740  143.9730 C   0  0  0  0  0  2  0  0  0  0  0  0
  189.1670  177.3300  144.8630 N   0  0  2  0  0  0  0  0  0  0  0  0
  189.3290  175.6340  143.1280 C   0  0  0  0  0  2  0  0  0  0  0  0
  186.9170  178.3640  148.6750 C   0  0  0  0  0  2  0  0  0  0  0  0
  185.9540  178.5780  146.2640 C   0  0  0  0  0  2  0  0  0  0  0  0
  188.8750  177.2640  147.4010 C   0  0  2  0  0  3  0  0  0  0  0  0
  186.3500  179.2910  147.5760 C   0  0  0  0  0  2  0  0  0  0  0  0
  188.4420  178.1990  148.5410 C   0  0  0  0  0  2  0  0  0  0  0  0
  190.2470  177.1520  147.4160 F   0  0  0  0  0  0  0  0  0  0  0  0
  188.3750  177.7820  146.0130 C   0  0  2  0  0  3  0  0  0  0  0  0
  186.8970  177.4540  145.7880 C   0  0  0  0  0  2  0  0  0  0  0  0
  191.7860  175.7860  143.1270 O   0  0  0  0  0  0  0  0  0  0  0  0
  191.9800  175.2080  144.3990 C   0  0  0  0  0  0  0  0  0  0  0  0
  191.9660  176.0940  145.6040 C   0  0  0  0  0  1  0  0  0  0  0  0
  192.2740  173.9850  144.5120 O   0  0  0  0  0  0  0  0  0  0  0  0
  1  3  1  0  0  0  0
  2 10  1  0  0  0  0
  4  9  1  0  0  0  0
  4  6  1  0  0  0  0
  5 11  1  0  0  0  0
  6  1  2  0  0  0  0
  7 13  1  0  0  0  0
  7 12  2  0  0  0  0
  8  5  1  0  0  0  0
  8 13  1  0  0  0  0
  9 14  1  0  0  0  0
 10  3  2  0  0  0  0
 10 35  1  0  0  0  0
 11  6  1  0  0  0  0
 11  2  2  0  0  0  0
 12  9  1  0  0  0  0
 13  4  2  0  0  0  0
 14 15  1  6  0  0  0
 14 28  1  0  0  0  0
 16 15  2  0  0  0  0
 17 16  1  0  0  0  0
 17 18  1  1  0  0  0
 18 19  1  0  0  0  0
 20 22  1  6  0  0  0
 20 17  1  0  0  0  0
 21 22  1  0  0  0  0
 23 25  1  0  0  0  0
 23 20  1  0  0  0  0
 25 26  1  0  0  0  0
 26 24  2  0  0  0  0
 26 27  1  0  0  0  0
 28 33  1  0  0  0  0
 29 34  1  0  0  0  0
 30 34  2  0  0  0  0
 31 29  2  0  0  0  0
 32 30  1  0  0  0  0
 33 32  2  0  0  0  0
 33 31  1  0  0  0  0
 35 36  1  0  0  0  0
 36 38  1  0  0  0  0
 37 42  1  0  0  0  0
 38 40  1  1  0  0  0
 38 37  1  0  0  0  0
 39 38  1  0  0  0  0
 39 52  1  1  0  0  0
 39 43  1  0  0  0  0
 42 41  1  6  0  0  0
 42 50  1  0  0  0  0
 43 41  1  0  0  0  0
 45 47  1  0  0  0  0
 46 49  1  6  0  0  0
 46 48  1  0  0  0  0
 47 44  1  0  0  0  0
 48 44  1  0  0  0  0
 50 51  1  6  0  0  0
 50 46  1  0  0  0  0
 51 45  1  0  0  0  0
 52 53  1  0  0  0  0
 53 55  2  0  0  0  0
 53 54  1  0  0  0  0
M  END
>  <MODEL>
4

>  <REMARK>
 VINA RESULT:      -7.3      1.656      2.592
  Name = 
  16 active torsions:
  status: ('A' for Active; 'I' for Inactive)
    1  A    between atoms: C_4  and  O_27
    2  A    between atoms: C_5  and  C_18
    3  A    between atoms: C_8  and  O_27
    4  A    between atoms: N_10  and  O_55
    5  A    between atoms: C_11  and  CA_20
    6  A    between atoms: N_14  and  C_39
    7  A    between atoms: N_14  and  C_43
    8  A    between atoms: C_18  and  C_37
    9  A    between atoms: CA_20  and  C_45
   10  A    between atoms: CA_20  and  N_51
   11  A    between atoms: C_26  and  C_43
   12  A    between atoms: N_35  and  C_52
   13  A    between atoms: C_37  and  C_44
   14  A    between atoms: N_41  and  C_43
   15  A    between atoms: C_45  and  C_48
   16  A    between atoms: C_45  and  O_55
                            x       y       z     vdW  Elec       q    Type
                         _______ _______ _______ _____ _____    ______ ____

>  <TORSDO>
F 16

$$$$
=
 OpenBabel11062412143D

 55 60  0  0  1  0  0  0  0  0999 V2000
  186.7440  175.7070  136.8570 C   0  0  0  0  0  3  0  0  0  0  0  0
  184.1770  174.7140  137.4150 C   0  0  0  0  0  3  0  0  0  0  0  0
  185.6880  176.5860  137.1240 C   0  0  0  0  0  3  0  0  0  0  0  0
  187.5250  173.3270  136.3560 C   0  0  0  0  0  0  0  0  0  0  0  0
  184.9520  172.3580  137.1250 C   0  0  0  0  0  2  0  0  0  0  0  0
  186.5170  174.3090  136.8590 C   0  0  0  0  0  0  0  0  0  0  0  0
  188.1630  171.4980  135.2020 N   0  0  0  0  0  0  0  0  0  0  0  0
  185.7190  171.6330  136.0150 C   0  0  0  0  0  2  0  0  0  0  0  0
  188.9150  173.5300  136.0520 N   0  0  0  0  0  0  0  0  0  0  0  0
  184.4000  176.0920  137.4200 C   0  0  0  0  0  0  0  0  0  0  0  0
  185.2170  173.8380  137.1040 C   0  0  0  0  0  0  0  0  0  0  0  0
  189.3250  172.3740  135.2510 C   0  0  0  0  0  3  0  0  0  0  0  0
  187.1300  172.1480  135.9200 C   0  0  0  0  0  0  0  0  0  0  0  0
  189.5690  174.8500  135.8510 C   0  0  1  0  0  3  0  0  0  0  0  0
  190.2180  175.3350  137.1160 C   0  0  0  0  0  3  0  0  0  0  0  0
  190.4110  176.5870  137.3260 N   0  0  0  0  0  0  0  0  0  0  0  0
  191.0080  177.0690  138.5600 C   0  0  2  0  0  3  0  0  0  0  0  0
  192.3450  176.3580  138.8790 C   0  0  0  0  0  2  0  0  0  0  0  0
  193.4020  176.8810  138.1310 O   0  0  0  0  0  1  0  0  0  0  0  0
  190.0190  176.7470  139.6980 C   0  0  2  0  0  3  0  0  0  0  0  0
  188.7180  178.7490  138.8040 C   0  0  0  0  0  1  0  0  0  0  0  0
  188.7060  177.5620  139.7590 C   0  0  0  0  0  2  0  0  0  0  0  0
  190.6250  176.3060  140.9100 O   0  0  0  0  0  0  0  0  0  0  0  0
  191.6630  176.1740  143.5990 N   0  0  0  0  0  2  0  0  0  0  0  0
  191.0110  177.3680  141.6590 N   0  0  0  0  0  2  0  0  0  0  0  0
  191.2630  177.2850  143.0800 C   0  0  0  0  0  0  0  0  0  0  0  0
  190.5030  178.2090  143.9730 C   0  0  0  0  0  1  0  0  0  0  0  0
  190.5790  174.7480  134.8070 N   0  0  0  0  0  2  0  0  0  0  0  0
  194.0690  173.8410  135.8880 C   0  0  0  0  0  3  0  0  0  0  0  0
  194.1580  176.0150  134.8080 C   0  0  0  0  0  3  0  0  0  0  0  0
  192.6820  173.7950  135.6810 C   0  0  0  0  0  3  0  0  0  0  0  0
  192.7620  175.9610  134.5940 C   0  0  0  0  0  3  0  0  0  0  0  0
  192.0050  174.8540  135.0410 C   0  0  0  0  0  0  0  0  0  0  0  0
  194.8050  174.9440  135.4400 C   0  0  0  0  0  3  0  0  0  0  0  0
  183.2380  177.0220  137.6380 C   0  0  0  0  0  2  0  0  0  0  0  0
  182.5870  176.7610  139.0070 C   0  0  0  0  0  2  0  0  0  0  0  0
  183.0340  177.8450  141.2220 C   0  0  0  0  0  2  0  0  0  0  0  0
  182.3520  178.0500  139.8390 C   0  0  1  0  0  0  0  0  0  0  0  0
  182.9570  179.2440  139.0200 C   0  0  2  0  0  3  0  0  0  0  0  0
  180.9790  178.2330  140.0350 O   0  0  0  0  0  1  0  0  0  0  0  0
  185.0720  178.7600  140.3320 C   0  0  0  0  0  2  0  0  0  0  0  0
  184.1350  178.7940  141.4530 N   0  0  2  0  0  0  0  0  0  0  0  0
  184.4680  179.4940  139.1470 C   0  0  0  0  0  2  0  0  0  0  0  0
  186.0950  178.5250  145.5460 C   0  0  0  0  0  2  0  0  0  0  0  0
  187.0490  177.4800  143.3580 C   0  0  0  0  0  2  0  0  0  0  0  0
  184.3880  179.5280  143.8880 C   0  0  2  0  0  3  0  0  0  0  0  0
  186.5080  177.2440  144.7860 C   0  0  0  0  0  2  0  0  0  0  0  0
  184.6270  178.8950  145.2680 C   0  0  0  0  0  2  0  0  0  0  0  0
  183.0570  179.8650  143.7780 F   0  0  0  0  0  0  0  0  0  0  0  0
  184.8140  178.5620  142.7340 C   0  0  2  0  0  3  0  0  0  0  0  0
  186.3300  178.5640  142.5280 C   0  0  0  0  0  2  0  0  0  0  0  0
  182.2060  180.4590  139.0520 O   0  0  0  0  0  0  0  0  0  0  0  0
  181.5010  180.9950  137.9540 C   0  0  0  0  0  0  0  0  0  0  0  0
  181.1350  182.4460  137.9700 C   0  0  0  0  0  1  0  0  0  0  0  0
  181.0860  180.2450  137.0270 O   0  0  0  0  0  0  0  0  0  0  0  0
  1  6  2  0  0  0  0
  1  3  1  0  0  0  0
  2 10  1  0  0  0  0
  3 10  2  0  0  0  0
  4  6  1  0  0  0  0
  6 11  1  0  0  0  0
  7 12  2  0  0  0  0
  7 13  1  0  0  0  0
  8  5  1  0  0  0  0
  9  4  1  0  0  0  0
 10 35  1  0  0  0  0
 11  5  1  0  0  0  0
 11  2  2  0  0  0  0
 12  9  1  0  0  0  0
 13  8  1  0  0  0  0
 13  4  2  0  0  0  0
 14  9  1  0  0  0  0
 14 15  1  1  0  0  0
 15 16  2  0  0  0  0
 16 17  1  0  0  0  0
 17 18  1  1  0  0  0
 17 20  1  0  0  0  0
 19 18  1  0  0  0  0
 20 22  1  1  0  0  0
 20 23  1  0  0  0  0
 21 22  1  0  0  0  0
 23 25  1  0  0  0  0
 25 26  1  0  0  0  0
 26 24  2  0  0  0  0
 26 27  1  0  0  0  0
 28 33  1  0  0  0  0
 28 14  1  0  0  0  0
 30 34  1  0  0  0  0
 31 29  1  0  0  0  0
 32 30  2  0  0  0  0
 32 33  1  0  0  0  0
 33 31  2  0  0  0  0
 34 29  2  0  0  0  0
 35 36  1  0  0  0  0
 36 38  1  0  0  0  0
 37 42  1  0  0  0  0
 38 40  1  1  0  0  0
 38 37  1  0  0  0  0
 39 52  1  1  0  0  0
 39 43  1  0  0  0  0
 39 38  1  0  0  0  0
 42 41  1  6  0  0  0
 42 50  1  0  0  0  0
 43 41  1  0  0  0  0
 45 47  1  0  0  0  0
 46 49  1  6  0  0  0
 46 48  1  0  0  0  0
 47 44  1  0  0  0  0
 48 44  1  0  0  0  0
 50 51  1  6  0  0  0
 50 46  1  0  0  0  0
 51 45  1  0  0  0  0
 53 54  1  0  0  0  0
 53 52  1  0  0  0  0
 55 53  2  0  0  0  0
M  END
>  <MODEL>
5

>  <REMARK>
 VINA RESULT:      -7.3      3.317      9.316
  Name = 
  16 active torsions:
  status: ('A' for Active; 'I' for Inactive)
    1  A    between atoms: C_4  and  O_27
    2  A    between atoms: C_5  and  C_18
    3  A    between atoms: C_8  and  O_27
    4  A    between atoms: N_10  and  O_55
    5  A    between atoms: C_11  and  CA_20
    6  A    between atoms: N_14  and  C_39
    7  A    between atoms: N_14  and  C_43
    8  A    between atoms: C_18  and  C_37
    9  A    between atoms: CA_20  and  C_45
   10  A    between atoms: CA_20  and  N_51
   11  A    between atoms: C_26  and  C_43
   12  A    between atoms: N_35  and  C_52
   13  A    between atoms: C_37  and  C_44
   14  A    between atoms: N_41  and  C_43
   15  A    between atoms: C_45  and  C_48
   16  A    between atoms: C_45  and  O_55
                            x       y       z     vdW  Elec       q    Type
                         _______ _______ _______ _____ _____    ______ ____

>  <TORSDO>
F 16

$$$$
=
 OpenBabel11062412143D

 55 60  0  0  1  0  0  0  0  0999 V2000
  183.1960  178.5520  139.9230 C   0  0  0  0  0  3  0  0  0  0  0  0
  185.2710  178.5750  141.8160 C   0  0  0  0  0  3  0  0  0  0  0  0
  184.5320  178.5490  139.5080 C   0  0  0  0  0  3  0  0  0  0  0  0
  181.5040  178.8180  141.8190 C   0  0  0  0  0  0  0  0  0  0  0  0
  183.6390  178.6370  143.7040 C   0  0  0  0  0  2  0  0  0  0  0  0
  182.8860  178.5760  141.3050 C   0  0  0  0  0  0  0  0  0  0  0  0
  180.0010  179.7620  143.2090 N   0  0  0  0  0  0  0  0  0  0  0  0
  182.4370  179.5300  144.0260 C   0  0  0  0  0  2  0  0  0  0  0  0
  180.2560  178.8010  141.1050 N   0  0  0  0  0  0  0  0  0  0  0  0
  185.5790  178.5450  140.4530 C   0  0  0  0  0  0  0  0  0  0  0  0
  183.9410  178.6250  142.2310 C   0  0  0  0  0  0  0  0  0  0  0  0
  179.2840  179.4660  141.9770 C   0  0  0  0  0  3  0  0  0  0  0  0
  181.3310  179.3100  143.0280 C   0  0  0  0  0  0  0  0  0  0  0  0
  180.1070  178.8710  139.6280 C   0  0  1  0  0  3  0  0  0  0  0  0
  179.4290  177.6450  139.0890 C   0  0  0  0  0  3  0  0  0  0  0  0
  180.0170  176.5040  139.0920 N   0  0  0  0  0  0  0  0  0  0  0  0
  179.3580  175.3040  138.6020 C   0  0  2  0  0  3  0  0  0  0  0  0
  178.9870  174.3340  139.7490 C   0  0  0  0  0  2  0  0  0  0  0  0
  179.0800  174.9490  141.0000 O   0  0  0  0  0  1  0  0  0  0  0  0
  180.3600  174.5820  137.6800 C   0  0  2  0  0  3  0  0  0  0  0  0
  179.6090  172.2920  136.8460 C   0  0  0  0  0  1  0  0  0  0  0  0
  179.7850  173.7650  136.4990 C   0  0  0  0  0  2  0  0  0  0  0  0
  181.5520  174.1380  138.3230 O   0  0  0  0  0  0  0  0  0  0  0  0
  183.1790  172.0900  137.1050 N   0  0  0  0  0  2  0  0  0  0  0  0
  182.6270  174.3560  137.5270 N   0  0  0  0  0  2  0  0  0  0  0  0
  183.5680  173.3180  137.1650 C   0  0  0  0  0  0  0  0  0  0  0  0
  185.0090  173.5530  137.4740 C   0  0  0  0  0  1  0  0  0  0  0  0
  179.3270  180.0460  139.2640 N   0  0  0  0  0  2  0  0  0  0  0  0
  180.2600  183.3230  137.6630 C   0  0  0  0  0  3  0  0  0  0  0  0
  180.4890  181.5770  135.9890 C   0  0  0  0  0  3  0  0  0  0  0  0
  179.8370  182.3700  138.6000 C   0  0  0  0  0  3  0  0  0  0  0  0
  180.0700  180.6180  136.9390 C   0  0  0  0  0  3  0  0  0  0  0  0
  179.7260  181.0060  138.2540 C   0  0  0  0  0  0  0  0  0  0  0  0
  180.5970  182.9230  136.3640 C   0  0  0  0  0  3  0  0  0  0  0  0
  187.0190  178.6150  140.0260 C   0  0  0  0  0  2  0  0  0  0  0  0
  187.8430  177.5190  140.7220 C   0  0  0  0  0  2  0  0  0  0  0  0
  188.5550  178.3580  142.9740 C   0  0  0  0  0  2  0  0  0  0  0  0
  189.0510  178.0680  141.5280 C   0  0  1  0  0  0  0  0  0  0  0  0
  190.1800  176.9800  141.4660 C   0  0  2  0  0  3  0  0  0  0  0  0
  189.4880  179.2640  140.9510 O   0  0  0  0  0  1  0  0  0  0  0  0
  189.1270  176.1090  143.6020 C   0  0  0  0  0  2  0  0  0  0  0  0
  189.2270  177.5170  143.9780 N   0  0  2  0  0  0  0  0  0  0  0  0
  190.0980  175.8190  142.4710 C   0  0  0  0  0  2  0  0  0  0  0  0
  187.9330  177.8780  148.3210 C   0  0  0  0  0  2  0  0  0  0  0  0
  186.3880  178.2760  146.2610 C   0  0  0  0  0  2  0  0  0  0  0  0
  189.5800  177.1280  146.4790 C   0  0  2  0  0  3  0  0  0  0  0  0
  187.0500  178.8670  147.5260 C   0  0  0  0  0  2  0  0  0  0  0  0
  189.3840  177.8780  147.8070 C   0  0  0  0  0  2  0  0  0  0  0  0
  190.9170  177.1490  146.1510 F   0  0  0  0  0  0  0  0  0  0  0  0
  188.7170  177.7530  145.3350 C   0  0  2  0  0  3  0  0  0  0  0  0
  187.2540  177.3110  145.4260 C   0  0  0  0  0  2  0  0  0  0  0  0
  191.5120  177.4780  141.3270 O   0  0  0  0  0  0  0  0  0  0  0  0
  192.3150  177.3090  140.1790 C   0  0  0  0  0  0  0  0  0  0  0  0
  191.6950  176.7440  138.9410 C   0  0  0  0  0  1  0  0  0  0  0  0
  193.5590  177.5240  140.2270 O   0  0  0  0  0  0  0  0  0  0  0  0
  1  6  1  0  0  0  0
  2 11  1  0  0  0  0
  3  1  2  0  0  0  0
  3 10  1  0  0  0  0
  4 13  2  0  0  0  0
  5  8  1  0  0  0  0
  6  4  1  0  0  0  0
  6 11  2  0  0  0  0
  9  4  1  0  0  0  0
  9 12  1  0  0  0  0
 10  2  2  0  0  0  0
 11  5  1  0  0  0  0
 12  7  2  0  0  0  0
 13  7  1  0  0  0  0
 13  8  1  0  0  0  0
 14 15  1  1  0  0  0
 14  9  1  0  0  0  0
 15 16  2  0  0  0  0
 17 16  1  0  0  0  0
 17 18  1  1  0  0  0
 18 19  1  0  0  0  0
 20 22  1  1  0  0  0
 20 23  1  0  0  0  0
 20 17  1  0  0  0  0
 22 21  1  0  0  0  0
 24 26  2  0  0  0  0
 25 23  1  0  0  0  0
 26 27  1  0  0  0  0
 26 25  1  0  0  0  0
 28 14  1  0  0  0  0
 29 31  1  0  0  0  0
 30 34  1  0  0  0  0
 30 32  2  0  0  0  0
 32 33  1  0  0  0  0
 33 31  2  0  0  0  0
 33 28  1  0  0  0  0
 34 29  2  0  0  0  0
 35 10  1  0  0  0  0
 35 36  1  0  0  0  0
 36 38  1  0  0  0  0
 38 40  1  6  0  0  0
 38 37  1  0  0  0  0
 39 52  1  1  0  0  0
 39 38  1  0  0  0  0
 39 43  1  0  0  0  0
 41 42  1  0  0  0  0
 42 37  1  6  0  0  0
 42 50  1  0  0  0  0
 43 41  1  0  0  0  0
 45 47  1  0  0  0  0
 46 49  1  6  0  0  0
 46 48  1  0  0  0  0
 47 44  1  0  0  0  0
 48 44  1  0  0  0  0
 50 51  1  6  0  0  0
 50 46  1  0  0  0  0
 51 45  1  0  0  0  0
 53 55  2  0  0  0  0
 53 52  1  0  0  0  0
 54 53  1  0  0  0  0
M  END
>  <MODEL>
6

>  <REMARK>
 VINA RESULT:      -7.0      2.690      6.241
  Name = 
  16 active torsions:
  status: ('A' for Active; 'I' for Inactive)
    1  A    between atoms: C_4  and  O_27
    2  A    between atoms: C_5  and  C_18
    3  A    between atoms: C_8  and  O_27
    4  A    between atoms: N_10  and  O_55
    5  A    between atoms: C_11  and  CA_20
    6  A    between atoms: N_14  and  C_39
    7  A    between atoms: N_14  and  C_43
    8  A    between atoms: C_18  and  C_37
    9  A    between atoms: CA_20  and  C_45
   10  A    between atoms: CA_20  and  N_51
   11  A    between atoms: C_26  and  C_43
   12  A    between atoms: N_35  and  C_52
   13  A    between atoms: C_37  and  C_44
   14  A    between atoms: N_41  and  C_43
   15  A    between atoms: C_45  and  C_48
   16  A    between atoms: C_45  and  O_55
                            x       y       z     vdW  Elec       q    Type
                         _______ _______ _______ _____ _____    ______ ____

>  <TORSDO>
F 16

$$$$
=
 OpenBabel11062412143D

 55 60  0  0  1  0  0  0  0  0999 V2000
  185.7840  178.5940  139.7270 C   0  0  0  0  0  3  0  0  0  0  0  0
  184.2780  178.1100  137.4050 C   0  0  0  0  0  3  0  0  0  0  0  0
  184.4610  179.0410  139.6350 C   0  0  0  0  0  3  0  0  0  0  0  0
  187.8340  177.6030  138.5680 C   0  0  0  0  0  0  0  0  0  0  0  0
  186.2050  176.9590  136.3130 C   0  0  0  0  0  2  0  0  0  0  0  0
  186.3710  177.9010  138.6400 C   0  0  0  0  0  0  0  0  0  0  0  0
  189.8190  177.4710  137.5080 N   0  0  0  0  0  0  0  0  0  0  0  0
  187.6700  177.3460  136.0870 C   0  0  0  0  0  2  0  0  0  0  0  0
  188.8280  177.6900  139.6030 N   0  0  0  0  0  0  0  0  0  0  0  0
  183.6950  178.7880  138.4780 C   0  0  0  0  0  0  0  0  0  0  0  0
  185.6100  177.7040  137.4760 C   0  0  0  0  0  0  0  0  0  0  0  0
  190.1230  177.6650  138.9180 C   0  0  0  0  0  3  0  0  0  0  0  0
  188.4080  177.4210  137.3970 C   0  0  0  0  0  0  0  0  0  0  0  0
  188.6740  178.4230  140.8860 C   0  0  1  0  0  3  0  0  0  0  0  0
  187.8010  177.6650  141.8450 C   0  0  0  0  0  3  0  0  0  0  0  0
  187.1050  178.2750  142.7350 N   0  0  0  0  0  0  0  0  0  0  0  0
  186.2320  177.5550  143.6470 C   0  0  2  0  0  3  0  0  0  0  0  0
  184.7680  178.0510  143.5670 C   0  0  0  0  0  2  0  0  0  0  0  0
  184.6920  179.3770  143.1370 O   0  0  0  0  0  1  0  0  0  0  0  0
  186.7450  177.8270  145.0750 C   0  0  2  0  0  3  0  0  0  0  0  0
  185.1460  178.2880  147.0060 C   0  0  0  0  0  1  0  0  0  0  0  0
  186.0060  178.9010  145.9090 C   0  0  0  0  0  2  0  0  0  0  0  0
  188.1480  177.6490  145.2500 O   0  0  0  0  0  0  0  0  0  0  0  0
  189.5080  176.3810  147.4560 N   0  0  0  0  0  2  0  0  0  0  0  0
  188.5670  178.2710  146.3790 N   0  0  0  0  0  2  0  0  0  0  0  0
  188.9920  177.5580  147.5640 C   0  0  0  0  0  0  0  0  0  0  0  0
  188.2980  177.8740  148.8470 C   0  0  0  0  0  1  0  0  0  0  0  0
  189.9790  178.6350  141.4960 N   0  0  0  0  0  2  0  0  0  0  0  0
  191.0340  175.6730  143.5660 C   0  0  0  0  0  3  0  0  0  0  0  0
  191.5630  177.6900  144.8150 C   0  0  0  0  0  3  0  0  0  0  0  0
  190.5080  176.4540  142.5270 C   0  0  0  0  0  3  0  0  0  0  0  0
  191.0390  178.4730  143.7620 C   0  0  0  0  0  3  0  0  0  0  0  0
  190.4920  177.8630  142.6100 C   0  0  0  0  0  0  0  0  0  0  0  0
  191.5720  176.2920  144.7020 C   0  0  0  0  0  3  0  0  0  0  0  0
  182.2970  179.3240  138.3340 C   0  0  0  0  0  2  0  0  0  0  0  0
  181.4950  178.4780  137.3290 C   0  0  0  0  0  2  0  0  0  0  0  0
  180.2660  176.3020  137.1320 C   0  0  0  0  0  2  0  0  0  0  0  0
  180.4080  177.5910  137.9930 C   0  0  1  0  0  0  0  0  0  0  0  0
  180.8790  177.3060  139.4620 C   0  0  2  0  0  3  0  0  0  0  0  0
  179.1870  178.2720  137.9900 O   0  0  0  0  0  1  0  0  0  0  0  0
  181.9720  175.2500  138.4590 C   0  0  0  0  0  2  0  0  0  0  0  0
  180.6450  175.0870  137.8710 N   0  0  2  0  0  0  0  0  0  0  0  0
  181.8790  176.1580  139.6730 C   0  0  0  0  0  2  0  0  0  0  0  0
  180.5300  171.0990  135.6940 C   0  0  0  0  0  2  0  0  0  0  0  0
  181.2930  173.3570  134.6420 C   0  0  0  0  0  2  0  0  0  0  0  0
  180.4730  172.5380  137.8370 C   0  0  2  0  0  3  0  0  0  0  0  0
  180.2890  172.1830  134.6190 C   0  0  0  0  0  2  0  0  0  0  0  0
  179.7990  171.4340  137.0060 C   0  0  0  0  0  2  0  0  0  0  0  0
  179.7640  172.7090  139.0050 F   0  0  0  0  0  0  0  0  0  0  0  0
  180.5650  173.8800  137.0400 C   0  0  2  0  0  3  0  0  0  0  0  0
  181.7190  173.8610  136.0350 C   0  0  0  0  0  2  0  0  0  0  0  0
  179.8500  177.3130  140.4540 O   0  0  0  0  0  0  0  0  0  0  0  0
  179.8720  178.0980  141.6260 C   0  0  0  0  0  0  0  0  0  0  0  0
  180.3220  179.5220  141.5330 C   0  0  0  0  0  1  0  0  0  0  0  0
  179.6240  177.5820  142.7510 O   0  0  0  0  0  0  0  0  0  0  0  0
  2 11  2  0  0  0  0
  2 10  1  0  0  0  0
  3  1  1  0  0  0  0
  4  6  1  0  0  0  0
  4  9  1  0  0  0  0
  5 11  1  0  0  0  0
  6  1  2  0  0  0  0
  7 12  2  0  0  0  0
  8  5  1  0  0  0  0
  8 13  1  0  0  0  0
  9 14  1  0  0  0  0
 10  3  2  0  0  0  0
 11  6  1  0  0  0  0
 12  9  1  0  0  0  0
 13  7  1  0  0  0  0
 13  4  2  0  0  0  0
 14 28  1  0  0  0  0
 14 15  1  1  0  0  0
 15 16  2  0  0  0  0
 16 17  1  0  0  0  0
 17 18  1  1  0  0  0
 17 20  1  0  0  0  0
 19 18  1  0  0  0  0
 20 23  1  0  0  0  0
 20 22  1  6  0  0  0
 22 21  1  0  0  0  0
 23 25  1  0  0  0  0
 24 26  2  0  0  0  0
 25 26  1  0  0  0  0
 26 27  1  0  0  0  0
 28 33  1  0  0  0  0
 29 34  1  0  0  0  0
 31 33  1  0  0  0  0
 31 29  2  0  0  0  0
 32 30  1  0  0  0  0
 33 32  2  0  0  0  0
 34 30  2  0  0  0  0
 35 10  1  0  0  0  0
 36 38  1  0  0  0  0
 36 35  1  0  0  0  0
 37 38  1  0  0  0  0
 38 40  1  1  0  0  0
 38 39  1  0  0  0  0
 39 43  1  0  0  0  0
 39 52  1  1  0  0  0
 41 43  1  0  0  0  0
 42 37  1  6  0  0  0
 42 41  1  0  0  0  0
 44 48  1  0  0  0  0
 45 51  1  0  0  0  0
 46 49  1  1  0  0  0
 47 45  1  0  0  0  0
 47 44  1  0  0  0  0
 48 46  1  0  0  0  0
 50 51  1  1  0  0  0
 50 46  1  0  0  0  0
 50 42  1  0  0  0  0
 52 53  1  0  0  0  0
 53 55  2  0  0  0  0
 54 53  1  0  0  0  0
M  END
>  <MODEL>
7

>  <REMARK>
 VINA RESULT:      -6.7      3.361      9.894
  Name = 
  16 active torsions:
  status: ('A' for Active; 'I' for Inactive)
    1  A    between atoms: C_4  and  O_27
    2  A    between atoms: C_5  and  C_18
    3  A    between atoms: C_8  and  O_27
    4  A    between atoms: N_10  and  O_55
    5  A    between atoms: C_11  and  CA_20
    6  A    between atoms: N_14  and  C_39
    7  A    between atoms: N_14  and  C_43
    8  A    between atoms: C_18  and  C_37
    9  A    between atoms: CA_20  and  C_45
   10  A    between atoms: CA_20  and  N_51
   11  A    between atoms: C_26  and  C_43
   12  A    between atoms: N_35  and  C_52
   13  A    between atoms: C_37  and  C_44
   14  A    between atoms: N_41  and  C_43
   15  A    between atoms: C_45  and  C_48
   16  A    between atoms: C_45  and  O_55
                            x       y       z     vdW  Elec       q    Type
                         _______ _______ _______ _____ _____    ______ ____

>  <TORSDO>
F 16

$$$$
=
 OpenBabel11062412143D

 55 60  0  0  1  0  0  0  0  0999 V2000
  186.6200  178.4740  140.7190 C   0  0  0  0  0  3  0  0  0  0  0  0
  184.8950  178.4560  142.9360 C   0  0  0  0  0  3  0  0  0  0  0  0
  185.2550  178.7370  140.5560 C   0  0  0  0  0  3  0  0  0  0  0  0
  188.5190  177.6680  142.2260 C   0  0  0  0  0  0  0  0  0  0  0  0
  186.7690  177.8590  144.4740 C   0  0  0  0  0  2  0  0  0  0  0  0
  187.1350  178.1870  142.0070 C   0  0  0  0  0  0  0  0  0  0  0  0
  190.0370  176.3070  143.1870 N   0  0  0  0  0  0  0  0  0  0  0  0
  187.8370  176.7610  144.4530 C   0  0  0  0  0  2  0  0  0  0  0  0
  189.6220  177.6150  141.3060 N   0  0  0  0  0  0  0  0  0  0  0  0
  184.3870  178.7450  141.6680 C   0  0  0  0  0  0  0  0  0  0  0  0
  186.2460  178.1470  143.0940 C   0  0  0  0  0  0  0  0  0  0  0  0
  190.5910  176.6860  141.8940 C   0  0  0  0  0  3  0  0  0  0  0  0
  188.7930  176.9710  143.3100 C   0  0  0  0  0  0  0  0  0  0  0  0
  189.5220  177.7570  139.8310 C   0  0  1  0  0  3  0  0  0  0  0  0
  190.7750  177.2850  139.1510 C   0  0  0  0  0  3  0  0  0  0  0  0
  190.8900  176.0760  138.7340 N   0  0  0  0  0  0  0  0  0  0  0  0
  192.0850  175.6160  138.0460 C   0  0  2  0  0  3  0  0  0  0  0  0
  193.1140  176.7540  137.8410 C   0  0  0  0  0  2  0  0  0  0  0  0
  194.2270  176.3230  137.1160 O   0  0  0  0  0  1  0  0  0  0  0  0
  191.6440  175.1230  136.6540 C   0  0  2  0  0  3  0  0  0  0  0  0
  189.6220  175.1890  135.1030 C   0  0  0  0  0  1  0  0  0  0  0  0
  190.6580  176.0100  135.8580 C   0  0  0  0  0  2  0  0  0  0  0  0
  191.5780  173.7060  136.5150 O   0  0  0  0  0  0  0  0  0  0  0  0
  194.2370  172.6770  136.9570 N   0  0  0  0  0  2  0  0  0  0  0  0
  192.4300  173.2850  135.5490 N   0  0  0  0  0  2  0  0  0  0  0  0
  193.8350  173.0370  135.7850 C   0  0  0  0  0  0  0  0  0  0  0  0
  194.8190  173.7670  134.9320 C   0  0  0  0  0  1  0  0  0  0  0  0
  188.3910  176.9870  139.3340 N   0  0  0  0  0  2  0  0  0  0  0  0
  187.5010  178.5940  136.0480 C   0  0  0  0  0  3  0  0  0  0  0  0
  186.3760  176.4440  136.1620 C   0  0  0  0  0  3  0  0  0  0  0  0
  188.0490  178.3750  137.3200 C   0  0  0  0  0  3  0  0  0  0  0  0
  186.9360  176.2240  137.4410 C   0  0  0  0  0  3  0  0  0  0  0  0
  187.7700  177.1940  138.0410 C   0  0  0  0  0  0  0  0  0  0  0  0
  186.6770  177.6230  135.4660 C   0  0  0  0  0  3  0  0  0  0  0  0
  182.9070  178.9550  141.5020 C   0  0  0  0  0  2  0  0  0  0  0  0
  182.5740  179.3300  140.0480 C   0  0  0  0  0  2  0  0  0  0  0  0
  180.8590  180.9890  139.2810 C   0  0  0  0  0  2  0  0  0  0  0  0
  181.0560  179.5320  139.7910 C   0  0  1  0  0  0  0  0  0  0  0  0
  180.6160  178.4460  138.7480 C   0  0  2  0  0  3  0  0  0  0  0  0
  180.3570  179.3750  140.9920 O   0  0  0  0  0  1  0  0  0  0  0  0
  181.1640  180.2220  137.0240 C   0  0  0  0  0  2  0  0  0  0  0  0
  180.3350  181.0380  137.9060 N   0  0  2  0  0  0  0  0  0  0  0  0
  180.8600  178.7520  137.2620 C   0  0  0  0  0  2  0  0  0  0  0  0
  179.4820  185.2970  136.5640 C   0  0  0  0  0  2  0  0  0  0  0  0
  180.8330  183.5390  135.1960 C   0  0  0  0  0  2  0  0  0  0  0  0
  179.0780  183.2550  138.0930 C   0  0  2  0  0  3  0  0  0  0  0  0
  180.8300  184.9040  135.9190 C   0  0  0  0  0  2  0  0  0  0  0  0
  179.3690  184.7620  138.0030 C   0  0  0  0  0  2  0  0  0  0  0  0
  178.9450  182.9080  139.4190 F   0  0  0  0  0  0  0  0  0  0  0  0
  180.2030  182.4130  137.4080 C   0  0  2  0  0  3  0  0  0  0  0  0
  180.0500  182.4020  135.8850 C   0  0  0  0  0  2  0  0  0  0  0  0
  179.3330  177.8580  138.9730 O   0  0  0  0  0  0  0  0  0  0  0  0
  179.1060  176.4800  139.1760 C   0  0  0  0  0  0  0  0  0  0  0  0
  179.2080  175.9290  140.5620 C   0  0  0  0  0  1  0  0  0  0  0  0
  178.9320  175.7050  138.1940 O   0  0  0  0  0  0  0  0  0  0  0  0
  1  6  1  0  0  0  0
  2 11  1  0  0  0  0
  3  1  2  0  0  0  0
  3 10  1  0  0  0  0
  4 13  2  0  0  0  0
  6  4  1  0  0  0  0
  6 11  2  0  0  0  0
  7 13  1  0  0  0  0
  8  5  1  0  0  0  0
  9 12  1  0  0  0  0
  9  4  1  0  0  0  0
 10  2  2  0  0  0  0
 11  5  1  0  0  0  0
 12  7  2  0  0  0  0
 13  8  1  0  0  0  0
 14 15  1  6  0  0  0
 14  9  1  0  0  0  0
 16 15  2  0  0  0  0
 17 18  1  6  0  0  0
 17 16  1  0  0  0  0
 19 18  1  0  0  0  0
 20 22  1  1  0  0  0
 20 17  1  0  0  0  0
 21 22  1  0  0  0  0
 23 20  1  0  0  0  0
 25 26  1  0  0  0  0
 25 23  1  0  0  0  0
 26 24  2  0  0  0  0
 27 26  1  0  0  0  0
 28 14  1  0  0  0  0
 29 31  1  0  0  0  0
 30 32  2  0  0  0  0
 31 33  2  0  0  0  0
 32 33  1  0  0  0  0
 33 28  1  0  0  0  0
 34 29  2  0  0  0  0
 34 30  1  0  0  0  0
 35 10  1  0  0  0  0
 36 35  1  0  0  0  0
 37 38  1  0  0  0  0
 38 36  1  0  0  0  0
 38 40  1  1  0  0  0
 39 52  1  6  0  0  0
 39 38  1  0  0  0  0
 41 43  1  0  0  0  0
 42 41  1  6  0  0  0
 42 37  1  0  0  0  0
 43 39  1  0  0  0  0
 44 48  1  0  0  0  0
 45 51  1  0  0  0  0
 45 47  1  0  0  0  0
 46 49  1  1  0  0  0
 47 44  1  0  0  0  0
 48 46  1  0  0  0  0
 50 51  1  6  0  0  0
 50 42  1  0  0  0  0
 50 46  1  0  0  0  0
 52 53  1  0  0  0  0
 53 54  1  0  0  0  0
 55 53  2  0  0  0  0
M  END
>  <MODEL>
8

>  <REMARK>
 VINA RESULT:      -6.4      3.814     10.800
  Name = 
  16 active torsions:
  status: ('A' for Active; 'I' for Inactive)
    1  A    between atoms: C_4  and  O_27
    2  A    between atoms: C_5  and  C_18
    3  A    between atoms: C_8  and  O_27
    4  A    between atoms: N_10  and  O_55
    5  A    between atoms: C_11  and  CA_20
    6  A    between atoms: N_14  and  C_39
    7  A    between atoms: N_14  and  C_43
    8  A    between atoms: C_18  and  C_37
    9  A    between atoms: CA_20  and  C_45
   10  A    between atoms: CA_20  and  N_51
   11  A    between atoms: C_26  and  C_43
   12  A    between atoms: N_35  and  C_52
   13  A    between atoms: C_37  and  C_44
   14  A    between atoms: N_41  and  C_43
   15  A    between atoms: C_45  and  C_48
   16  A    between atoms: C_45  and  O_55
                            x       y       z     vdW  Elec       q    Type
                         _______ _______ _______ _____ _____    ______ ____

>  <TORSDO>
F 16

$$$$
=
 OpenBabel11062412143D

 55 60  0  0  1  0  0  0  0  0999 V2000
  186.9630  178.1770  141.4590 C   0  0  0  0  0  3  0  0  0  0  0  0
  189.4930  177.1630  142.1380 C   0  0  0  0  0  3  0  0  0  0  0  0
  187.9920  178.1510  140.5120 C   0  0  0  0  0  3  0  0  0  0  0  0
  186.2350  177.9090  143.8940 C   0  0  0  0  0  0  0  0  0  0  0  0
  188.7550  176.7040  144.4790 C   0  0  0  0  0  2  0  0  0  0  0  0
  187.1990  177.6980  142.7720 C   0  0  0  0  0  0  0  0  0  0  0  0
  185.6900  178.4300  146.0180 N   0  0  0  0  0  0  0  0  0  0  0  0
  188.0720  177.5560  145.5520 C   0  0  0  0  0  2  0  0  0  0  0  0
  184.8670  178.3490  143.8420 N   0  0  0  0  0  0  0  0  0  0  0  0
  189.2600  177.6290  140.8420 C   0  0  0  0  0  0  0  0  0  0  0  0
  188.4830  177.2310  143.0970 C   0  0  0  0  0  0  0  0  0  0  0  0
  184.5210  178.7460  145.2100 C   0  0  0  0  0  3  0  0  0  0  0  0
  186.6670  177.9040  145.1380 C   0  0  0  0  0  0  0  0  0  0  0  0
  184.2190  179.0160  142.6830 C   0  0  1  0  0  3  0  0  0  0  0  0
  183.6780  178.0100  141.7080 C   0  0  0  0  0  3  0  0  0  0  0  0
  183.5870  178.2800  140.4560 N   0  0  0  0  0  0  0  0  0  0  0  0
  183.0960  177.3030  139.4980 C   0  0  2  0  0  3  0  0  0  0  0  0
  184.1480  176.9680  138.4140 C   0  0  0  0  0  2  0  0  0  0  0  0
  185.1630  177.9260  138.3620 O   0  0  0  0  0  1  0  0  0  0  0  0
  181.8770  177.9320  138.7950 C   0  0  2  0  0  3  0  0  0  0  0  0
  181.2530  180.1110  137.6270 C   0  0  0  0  0  1  0  0  0  0  0  0
  181.6780  179.4600  138.9360 C   0  0  0  0  0  2  0  0  0  0  0  0
  180.7350  177.0840  138.7050 O   0  0  0  0  0  0  0  0  0  0  0  0
  179.9420  174.3110  138.6260 N   0  0  0  0  0  2  0  0  0  0  0  0
  180.6800  176.2500  139.7710 N   0  0  0  0  0  2  0  0  0  0  0  0
  180.0230  174.9610  139.7360 C   0  0  0  0  0  0  0  0  0  0  0  0
  178.9570  174.7010  140.7480 C   0  0  0  0  0  1  0  0  0  0  0  0
  183.1300  179.8650  143.1440 N   0  0  0  0  0  2  0  0  0  0  0  0
  179.5560  179.3950  142.0580 C   0  0  0  0  0  3  0  0  0  0  0  0
  179.8460  178.2740  144.1940 C   0  0  0  0  0  3  0  0  0  0  0  0
  180.8980  179.8020  142.0900 C   0  0  0  0  0  3  0  0  0  0  0  0
  181.2000  178.6800  144.2180 C   0  0  0  0  0  3  0  0  0  0  0  0
  181.7390  179.4620  143.1710 C   0  0  0  0  0  0  0  0  0  0  0  0
  179.0370  178.6210  143.1040 C   0  0  0  0  0  3  0  0  0  0  0  0
  190.3980  177.6590  139.8590 C   0  0  0  0  0  2  0  0  0  0  0  0
  190.5370  176.3000  139.1510 C   0  0  0  0  0  2  0  0  0  0  0  0
  192.2840  176.4030  137.3570 C   0  0  0  0  0  2  0  0  0  0  0  0
  190.7500  176.4170  137.6180 C   0  0  1  0  0  0  0  0  0  0  0  0
  189.9960  175.2120  136.9540 C   0  0  2  0  0  3  0  0  0  0  0  0
  190.2270  177.6340  137.1690 O   0  0  0  0  0  1  0  0  0  0  0  0
  192.2140  174.0050  137.1880 C   0  0  0  0  0  2  0  0  0  0  0  0
  192.7100  175.2330  136.5710 N   0  0  2  0  0  0  0  0  0  0  0  0
  190.7280  173.8620  136.9040 C   0  0  0  0  0  2  0  0  0  0  0  0
  197.1230  175.1650  135.4850 C   0  0  0  0  0  2  0  0  0  0  0  0
  196.0210  173.7310  137.3610 C   0  0  0  0  0  2  0  0  0  0  0  0
  194.6590  175.7730  135.0100 C   0  0  2  0  0  3  0  0  0  0  0  0
  197.0460  174.8270  136.9920 C   0  0  0  0  0  2  0  0  0  0  0  0
  196.1140  176.2620  135.1000 C   0  0  0  0  0  2  0  0  0  0  0  0
  193.8640  176.8230  134.6070 F   0  0  0  0  0  0  0  0  0  0  0  0
  194.1640  175.1910  136.3740 C   0  0  2  0  0  3  0  0  0  0  0  0
  194.6800  173.7680  136.6000 C   0  0  0  0  0  2  0  0  0  0  0  0
  189.3230  175.5050  135.7280 O   0  0  0  0  0  0  0  0  0  0  0  0
  187.9210  175.5710  135.5790 C   0  0  0  0  0  0  0  0  0  0  0  0
  187.2600  176.9120  135.5680 C   0  0  0  0  0  1  0  0  0  0  0  0
  187.2240  174.5180  135.5680 O   0  0  0  0  0  0  0  0  0  0  0  0
  1  6  1  0  0  0  0
  2 11  1  0  0  0  0
  3 10  1  0  0  0  0
  3  1  2  0  0  0  0
  4 13  2  0  0  0  0
  5  8  1  0  0  0  0
  6 11  2  0  0  0  0
  6  4  1  0  0  0  0
  9  4  1  0  0  0  0
  9 12  1  0  0  0  0
 10  2  2  0  0  0  0
 11  5  1  0  0  0  0
 12  7  2  0  0  0  0
 13  8  1  0  0  0  0
 13  7  1  0  0  0  0
 14 15  1  6  0  0  0
 14 28  1  0  0  0  0
 14  9  1  0  0  0  0
 16 15  2  0  0  0  0
 17 18  1  6  0  0  0
 17 16  1  0  0  0  0
 19 18  1  0  0  0  0
 20 22  1  1  0  0  0
 20 17  1  0  0  0  0
 21 22  1  0  0  0  0
 23 20  1  0  0  0  0
 23 25  1  0  0  0  0
 24 26  2  0  0  0  0
 26 25  1  0  0  0  0
 26 27  1  0  0  0  0
 28 33  1  0  0  0  0
 29 31  2  0  0  0  0
 29 34  1  0  0  0  0
 30 32  1  0  0  0  0
 31 33  1  0  0  0  0
 33 32  2  0  0  0  0
 34 30  2  0  0  0  0
 35 10  1  0  0  0  0
 36 35  1  0  0  0  0
 37 38  1  0  0  0  0
 38 40  1  6  0  0  0
 38 36  1  0  0  0  0
 39 52  1  6  0  0  0
 39 38  1  0  0  0  0
 42 41  1  1  0  0  0
 42 37  1  0  0  0  0
 43 39  1  0  0  0  0
 43 41  1  0  0  0  0
 44 47  1  0  0  0  0
 46 49  1  1  0  0  0
 46 48  1  0  0  0  0
 46 50  1  0  0  0  0
 47 45  1  0  0  0  0
 48 44  1  0  0  0  0
 50 42  1  0  0  0  0
 50 51  1  6  0  0  0
 51 45  1  0  0  0  0
 53 52  1  0  0  0  0
 54 53  1  0  0  0  0
 55 53  2  0  0  0  0
M  END
>  <MODEL>
9

>  <REMARK>
 VINA RESULT:      -6.4      4.336      8.127
  Name = 
  16 active torsions:
  status: ('A' for Active; 'I' for Inactive)
    1  A    between atoms: C_4  and  O_27
    2  A    between atoms: C_5  and  C_18
    3  A    between atoms: C_8  and  O_27
    4  A    between atoms: N_10  and  O_55
    5  A    between atoms: C_11  and  CA_20
    6  A    between atoms: N_14  and  C_39
    7  A    between atoms: N_14  and  C_43
    8  A    between atoms: C_18  and  C_37
    9  A    between atoms: CA_20  and  C_45
   10  A    between atoms: CA_20  and  N_51
   11  A    between atoms: C_26  and  C_43
   12  A    between atoms: N_35  and  C_52
   13  A    between atoms: C_37  and  C_44
   14  A    between atoms: N_41  and  C_43
   15  A    between atoms: C_45  and  C_48
   16  A    between atoms: C_45  and  O_55
                            x       y       z     vdW  Elec       q    Type
                         _______ _______ _______ _____ _____    ______ ____

>  <TORSDO>
F 16

$$$$
