=
 OpenBabel11062415263D

 48 53  0  0  1  0  0  0  0  0999 V2000
  191.0020  177.0620  138.2550 C   0  0  2  0  0  3  0  0  0  0  0  0
  188.3930  177.2750  134.6520 C   0  0  0  0  0  3  0  0  0  0  0  0
  189.3590  176.1850  136.5190 N   0  0  0  0  0  0  0  0  0  0  0  0
  187.9340  175.8220  134.6590 C   0  0  1  0  0  3  0  0  0  0  0  0
  189.6040  174.1020  135.2730 C   0  0  0  0  0  1  0  0  0  0  0  0
  189.2100  177.4910  135.9100 C   0  0  0  0  0  3  0  0  0  0  0  0
  188.6330  175.1370  135.8220 C   0  0  1  0  0  3  0  0  0  0  0  0
  190.1050  174.8420  138.2750 O   0  0  0  0  0  0  0  0  0  0  0  0
  190.1210  175.9700  137.7160 C   0  0  0  0  0  0  0  0  0  0  0  0
  186.4270  175.7650  134.8390 C   0  0  0  0  0  2  0  0  0  0  0  0
  186.0890  175.4910  136.3010 C   0  0  2  0  0  3  0  0  0  0  0  0
  185.3270  173.3830  137.5640 C   0  0  0  0  0  3  0  0  0  0  0  0
  185.3320  174.2100  136.4610 C   0  0  0  0  0  0  0  0  0  0  0  0
  184.5310  173.6480  135.4920 C   0  0  0  0  0  3  0  0  0  0  0  0
  184.0510  172.4820  136.0610 C   0  0  0  0  0  3  0  0  0  0  0  0
  184.5330  172.3260  137.3080 N   0  0  0  0  0  2  0  0  0  0  0  0
  186.1590  177.4380  137.7740 O   0  0  0  0  0  0  0  0  0  0  0  0
  185.3680  176.6660  136.9590 C   0  0  0  0  0  0  0  0  0  0  0  0
  185.8230  177.8960  136.5530 O   0  0  0  0  0  0  0  0  0  0  0  0
  183.9140  176.6440  137.3230 C   0  0  0  0  0  0  0  0  0  0  0  0
  183.0690  176.8040  136.4570 O   0  0  0  0  0  0  0  0  0  0  0  0
  183.4880  176.4380  138.7400 C   0  0  0  0  0  2  0  0  0  0  0  0
  182.2500  175.5670  138.7940 C   0  0  0  0  0  2  0  0  0  0  0  0
  180.5540  177.2920  139.0200 N   0  0  0  0  0  1  0  0  0  0  0  0
  181.2070  176.1890  139.7020 C   0  0  0  0  0  2  0  0  0  0  0  0
  192.4510  176.5910  138.3770 C   0  0  0  0  0  2  0  0  0  0  0  0
  193.0790  176.2800  137.0270 C   0  0  0  0  0  2  0  0  0  0  0  0
  193.3760  174.9190  136.9630 O   0  0  0  0  0  1  0  0  0  0  0  0
  190.5210  177.5720  139.5320 N   0  0  0  0  0  2  0  0  0  0  0  0
  188.6440  177.5510  141.0860 C   0  0  0  0  0  0  0  0  0  0  0  0
  189.1290  177.6400  139.8390 C   0  0  0  0  0  3  0  0  0  0  0  0
  190.0730  178.5320  142.9680 C   0  0  0  0  0  3  0  0  0  0  0  0
  190.9430  176.8040  144.2520 C   0  0  0  0  0  0  0  0  0  0  0  0
  189.5080  177.4440  142.2990 C   0  0  0  0  0  0  0  0  0  0  0  0
  190.0350  176.0360  143.0700 S   0  0  0  0  0  0  0  0  0  0  0  0
  190.8820  178.1740  144.0580 C   0  0  0  0  0  3  0  0  0  0  0  0
  191.7720  176.1150  145.2780 C   0  0  0  0  0  2  0  0  0  0  0  0
  191.8330  176.9230  146.4810 N   0  0  0  0  0  2  0  0  0  0  0  0
  190.6730  176.5730  147.2790 C   0  0  0  0  0  1  0  0  0  0  0  0
  186.6890  178.7650  140.4590 O   0  0  0  0  0  0  0  0  0  0  0  0
  186.7950  179.0160  141.8420 C   0  0  2  0  0  3  0  0  0  0  0  0
  187.1580  177.6970  141.2510 C   0  0  2  0  0  3  0  0  0  0  0  0
  184.3020  178.8620  141.7050 C   0  0  0  0  0  3  0  0  0  0  0  0
  182.9240  178.7440  143.6910 C   0  0  0  0  0  3  0  0  0  0  0  0
  184.0710  178.7890  144.4910 C   0  0  0  0  0  3  0  0  0  0  0  0
  185.4540  178.9210  142.5000 C   0  0  0  0  0  0  0  0  0  0  0  0
  185.3320  178.8720  143.8980 C   0  0  0  0  0  3  0  0  0  0  0  0
  183.0410  178.7760  142.3000 C   0  0  0  0  0  3  0  0  0  0  0  0
  1 26  1  1  0  0  0
  1 29  1  0  0  0  0
  2  4  1  0  0  0  0
  2  6  2  0  0  0  0
  3  9  1  0  0  0  0
  4 10  1  1  0  0  0
  4  7  1  0  0  0  0
  6  3  1  0  0  0  0
  7  5  1  6  0  0  0
  7  3  1  0  0  0  0
  9  1  1  0  0  0  0
  9  8  2  0  0  0  0
 11 10  1  6  0  0  0
 11 13  1  0  0  0  0
 11 18  1  0  0  0  0
 13 12  2  0  0  0  0
 14 15  2  0  0  0  0
 14 13  1  0  0  0  0
 15 16  1  0  0  0  0
 16 12  1  0  0  0  0
 18 20  1  0  0  0  0
 18 17  1  0  0  0  0
 19 18  1  0  0  0  0
 19 17  1  0  0  0  0
 20 22  1  0  0  0  0
 21 20  2  0  0  0  0
 22 23  1  0  0  0  0
 23 25  1  0  0  0  0
 24 25  1  0  0  0  0
 27 26  1  0  0  0  0
 28 27  1  0  0  0  0
 29 31  1  0  0  0  0
 30 34  1  0  0  0  0
 31 30  2  0  0  0  0
 32 36  1  0  0  0  0
 33 37  1  0  0  0  0
 34 32  2  0  0  0  0
 34 35  1  0  0  0  0
 35 33  1  0  0  0  0
 36 33  2  0  0  0  0
 37 38  1  0  0  0  0
 38 39  1  0  0  0  0
 40 42  1  0  0  0  0
 40 41  1  0  0  0  0
 41 46  1  1  0  0  0
 42 30  1  6  0  0  0
 42 41  1  0  0  0  0
 43 48  2  0  0  0  0
 43 46  1  0  0  0  0
 44 45  2  0  0  0  0
 46 47  2  0  0  0  0
 47 45  1  0  0  0  0
 48 44  1  0  0  0  0
M  END
>  <MODEL>
1

>  <REMARK>
 VINA RESULT:      -6.4      0.000      0.000
  Name = 
  18 active torsions:
  status: ('A' for Active; 'I' for Inactive)
    1  A    between atoms: C_1  and  C_2
    2  A    between atoms: C_1  and  C_15
    3  A    between atoms: C_2  and  C_38
    4  A    between atoms: C_2  and  N_40
    5  A    between atoms: C_5  and  C_19
    6  A    between atoms: C_5  and  C_43
    7  A    between atoms: N_6  and  C_41
    8  A    between atoms: C_7  and  C_39
    9  A    between atoms: C_7  and  C_47
   10  A    between atoms: C_10  and  C_20
   11  A    between atoms: C_11  and  C_41
   12  A    between atoms: C_16  and  C_24
   13  A    between atoms: C_20  and  C_24
   14  A    between atoms: C_20  and  C_39
   15  A    between atoms: C_30  and  C_34
   16  A    between atoms: C_36  and  N_40
   17  A    between atoms: C_37  and  C_45
   18  A    between atoms: C_37  and  C_47
                            x       y       z     vdW  Elec       q    Type
                         _______ _______ _______ _____ _____    ______ ____

>  <TORSDO>
F 18

$$$$
=
 OpenBabel11062415263D

 48 53  0  0  1  0  0  0  0  0999 V2000
  189.1910  178.0500  141.8070 C   0  0  2  0  0  3  0  0  0  0  0  0
  189.2320  178.7140  137.4030 C   0  0  0  0  0  3  0  0  0  0  0  0
  189.6690  177.4740  139.3730 N   0  0  0  0  0  0  0  0  0  0  0  0
  189.9710  177.4370  137.0210 C   0  0  1  0  0  3  0  0  0  0  0  0
  191.8120  176.7000  138.5020 C   0  0  0  0  0  1  0  0  0  0  0  0
  188.9650  178.6460  138.8940 C   0  0  0  0  0  3  0  0  0  0  0  0
  190.3020  176.7070  138.3140 C   0  0  1  0  0  3  0  0  0  0  0  0
  190.2070  176.0000  141.1000 O   0  0  0  0  0  0  0  0  0  0  0  0
  189.6950  177.0990  140.7580 C   0  0  0  0  0  0  0  0  0  0  0  0
  189.0810  176.5770  136.1420 C   0  0  0  0  0  2  0  0  0  0  0  0
  187.8170  176.1900  136.9020 C   0  0  2  0  0  3  0  0  0  0  0  0
  186.4990  174.0190  137.3120 C   0  0  0  0  0  3  0  0  0  0  0  0
  187.6430  174.7050  136.9630 C   0  0  0  0  0  0  0  0  0  0  0  0
  188.6360  173.7890  136.6960 C   0  0  0  0  0  3  0  0  0  0  0  0
  188.0410  172.5550  136.8870 C   0  0  0  0  0  3  0  0  0  0  0  0
  186.7540  172.6980  137.2590 N   0  0  0  0  0  2  0  0  0  0  0  0
  186.7890  177.6260  135.2130 O   0  0  0  0  0  0  0  0  0  0  0  0
  186.5740  176.8880  136.3520 C   0  0  0  0  0  0  0  0  0  0  0  0
  186.1780  176.4300  135.1200 O   0  0  0  0  0  0  0  0  0  0  0  0
  185.4460  177.3680  137.2150 C   0  0  0  0  0  0  0  0  0  0  0  0
  185.6860  177.9030  138.2850 O   0  0  0  0  0  0  0  0  0  0  0  0
  184.0280  177.1890  136.7810 C   0  0  0  0  0  2  0  0  0  0  0  0
  183.5190  175.8250  137.1970 C   0  0  0  0  0  2  0  0  0  0  0  0
  181.5080  176.3310  138.4630 N   0  0  0  0  0  1  0  0  0  0  0  0
  182.8880  175.8960  138.5740 C   0  0  0  0  0  2  0  0  0  0  0  0
  190.2710  178.3450  142.8480 C   0  0  0  0  0  2  0  0  0  0  0  0
  190.3510  177.2740  143.9250 C   0  0  0  0  0  2  0  0  0  0  0  0
  191.6710  176.8390  144.0420 O   0  0  0  0  0  1  0  0  0  0  0  0
  187.9800  177.5610  142.4500 N   0  0  0  0  0  2  0  0  0  0  0  0
  185.7850  178.4310  143.0560 C   0  0  0  0  0  0  0  0  0  0  0  0
  186.6920  178.0870  142.1300 C   0  0  0  0  0  3  0  0  0  0  0  0
  185.4070  179.1720  145.4760 C   0  0  0  0  0  3  0  0  0  0  0  0
  186.8340  177.9850  146.8730 C   0  0  0  0  0  0  0  0  0  0  0  0
  186.0450  178.3720  144.5250 C   0  0  0  0  0  0  0  0  0  0  0  0
  187.1760  177.4120  145.3350 S   0  0  0  0  0  0  0  0  0  0  0  0
  185.8520  178.9600  146.7900 C   0  0  0  0  0  3  0  0  0  0  0  0
  187.5520  177.5890  148.1140 C   0  0  0  0  0  2  0  0  0  0  0  0
  188.8190  178.2910  148.1920 N   0  0  0  0  0  2  0  0  0  0  0  0
  189.8410  177.3610  147.7500 C   0  0  0  0  0  1  0  0  0  0  0  0
  183.4040  178.2870  143.0600 O   0  0  0  0  0  0  0  0  0  0  0  0
  183.7390  178.0640  141.7090 C   0  0  2  0  0  3  0  0  0  0  0  0
  184.4970  179.0240  142.5590 C   0  0  2  0  0  3  0  0  0  0  0  0
  181.4620  178.9360  141.1530 C   0  0  0  0  0  3  0  0  0  0  0  0
  181.0450  180.2100  139.1370 C   0  0  0  0  0  3  0  0  0  0  0  0
  182.3960  180.1040  138.7890 C   0  0  0  0  0  3  0  0  0  0  0  0
  182.8130  178.8150  140.8040 C   0  0  0  0  0  0  0  0  0  0  0  0
  183.2780  179.4140  139.6220 C   0  0  0  0  0  3  0  0  0  0  0  0
  180.5800  179.6310  140.3200 C   0  0  0  0  0  3  0  0  0  0  0  0
  1 29  1  0  0  0  0
  1 26  1  1  0  0  0
  2  6  2  0  0  0  0
  3  9  1  0  0  0  0
  4 10  1  6  0  0  0
  4  2  1  0  0  0  0
  4  7  1  0  0  0  0
  6  3  1  0  0  0  0
  7  5  1  1  0  0  0
  7  3  1  0  0  0  0
  9  8  2  0  0  0  0
  9  1  1  0  0  0  0
 11 10  1  6  0  0  0
 11 13  1  0  0  0  0
 13 12  2  0  0  0  0
 14 15  2  0  0  0  0
 14 13  1  0  0  0  0
 15 16  1  0  0  0  0
 16 12  1  0  0  0  0
 17 18  1  0  0  0  0
 18 11  1  0  0  0  0
 18 20  1  0  0  0  0
 19 17  1  0  0  0  0
 19 18  1  0  0  0  0
 20 21  2  0  0  0  0
 22 23  1  0  0  0  0
 22 20  1  0  0  0  0
 23 25  1  0  0  0  0
 24 25  1  0  0  0  0
 26 27  1  0  0  0  0
 27 28  1  0  0  0  0
 30 34  1  0  0  0  0
 31 29  1  0  0  0  0
 31 30  2  0  0  0  0
 32 36  1  0  0  0  0
 33 37  1  0  0  0  0
 34 35  1  0  0  0  0
 34 32  2  0  0  0  0
 35 33  1  0  0  0  0
 36 33  2  0  0  0  0
 37 38  1  0  0  0  0
 39 38  1  0  0  0  0
 41 46  1  6  0  0  0
 41 42  1  0  0  0  0
 41 40  1  0  0  0  0
 42 30  1  1  0  0  0
 42 40  1  0  0  0  0
 44 48  1  0  0  0  0
 45 44  2  0  0  0  0
 45 47  1  0  0  0  0
 46 43  1  0  0  0  0
 47 46  2  0  0  0  0
 48 43  2  0  0  0  0
M  END
>  <MODEL>
2

>  <REMARK>
 VINA RESULT:      -6.2      2.298      3.857
  Name = 
  18 active torsions:
  status: ('A' for Active; 'I' for Inactive)
    1  A    between atoms: C_1  and  C_2
    2  A    between atoms: C_1  and  C_15
    3  A    between atoms: C_2  and  C_38
    4  A    between atoms: C_2  and  N_40
    5  A    between atoms: C_5  and  C_19
    6  A    between atoms: C_5  and  C_43
    7  A    between atoms: N_6  and  C_41
    8  A    between atoms: C_7  and  C_39
    9  A    between atoms: C_7  and  C_47
   10  A    between atoms: C_10  and  C_20
   11  A    between atoms: C_11  and  C_41
   12  A    between atoms: C_16  and  C_24
   13  A    between atoms: C_20  and  C_24
   14  A    between atoms: C_20  and  C_39
   15  A    between atoms: C_30  and  C_34
   16  A    between atoms: C_36  and  N_40
   17  A    between atoms: C_37  and  C_45
   18  A    between atoms: C_37  and  C_47
                            x       y       z     vdW  Elec       q    Type
                         _______ _______ _______ _____ _____    ______ ____

>  <TORSDO>
F 18

$$$$
=
 OpenBabel11062415263D

 48 53  0  0  1  0  0  0  0  0999 V2000
  184.6260  178.3830  141.6530 C   0  0  2  0  0  3  0  0  0  0  0  0
  181.6900  176.2720  139.0520 C   0  0  0  0  0  3  0  0  0  0  0  0
  183.1560  178.0500  139.6000 N   0  0  0  0  0  0  0  0  0  0  0  0
  181.5910  177.3370  137.9670 C   0  0  1  0  0  3  0  0  0  0  0  0
  181.6130  179.7050  138.6880 C   0  0  0  0  0  1  0  0  0  0  0  0
  182.7740  176.7160  140.0150 C   0  0  0  0  0  3  0  0  0  0  0  0
  182.4840  178.4930  138.3910 C   0  0  1  0  0  3  0  0  0  0  0  0
  184.5240  179.9260  139.8250 O   0  0  0  0  0  0  0  0  0  0  0  0
  184.1320  178.8300  140.3050 C   0  0  0  0  0  0  0  0  0  0  0  0
  182.0640  176.7620  136.6440 C   0  0  0  0  0  2  0  0  0  0  0  0
  183.2790  175.8690  136.8700 C   0  0  2  0  0  3  0  0  0  0  0  0
  185.4820  177.1960  136.9380 C   0  0  0  0  0  3  0  0  0  0  0  0
  184.5190  176.4630  136.2790 C   0  0  2  0  0  3  0  0  0  0  0  0
  184.8690  176.3800  134.9490 C   0  0  0  0  0  3  0  0  0  0  0  0
  186.0630  177.0720  134.8530 C   0  0  0  0  0  3  0  0  0  0  0  0
  186.4280  177.5620  136.0530 N   0  0  0  0  0  0  0  0  0  0  0  0
  181.7480  174.0010  136.5010 O   0  0  0  0  0  0  0  0  0  0  0  0
  183.0460  174.4390  136.3870 C   0  0  0  0  0  0  0  0  0  0  0  0
  182.2240  174.3490  135.2900 O   0  0  0  0  0  0  0  0  0  0  0  0
  184.0860  173.3620  136.4580 C   0  0  0  0  0  0  0  0  0  0  0  0
  184.2490  172.6120  135.5090 O   0  0  0  0  0  0  0  0  0  0  0  0
  184.9220  173.1920  137.6840 C   0  0  0  0  0  2  0  0  0  0  0  0
  186.3010  172.6850  137.3140 C   0  0  0  0  0  2  0  0  0  0  0  0
  188.4910  173.6990  137.0340 N   0  0  0  0  0  1  0  0  0  0  0  0
  187.0990  173.7790  136.6310 C   0  0  0  0  0  2  0  0  0  0  0  0
  183.6930  178.8590  142.7660 C   0  0  0  0  0  2  0  0  0  0  0  0
  184.4490  179.4370  143.9530 C   0  0  0  0  0  2  0  0  0  0  0  0
  183.6870  179.2650  145.1090 O   0  0  0  0  0  1  0  0  0  0  0  0
  185.9910  178.8200  141.9070 N   0  0  0  0  0  2  0  0  0  0  0  0
  188.3010  178.4330  141.2300 C   0  0  0  0  0  0  0  0  0  0  0  0
  187.0190  178.6870  140.9260 C   0  0  0  0  0  3  0  0  0  0  0  0
  190.0770  178.4580  143.0710 C   0  0  0  0  0  3  0  0  0  0  0  0
  189.1790  177.5610  145.0160 C   0  0  0  0  0  0  0  0  0  0  0  0
  188.7830  178.1880  142.6220 C   0  0  0  0  0  0  0  0  0  0  0  0
  187.9290  177.4900  143.9020 S   0  0  0  0  0  0  0  0  0  0  0  0
  190.3020  178.1020  144.4100 C   0  0  0  0  0  3  0  0  0  0  0  0
  189.1230  177.0240  146.4030 C   0  0  0  0  0  2  0  0  0  0  0  0
  188.0290  177.6460  147.1240 N   0  0  0  0  0  2  0  0  0  0  0  0
  188.2950  177.4500  148.5370 C   0  0  0  0  0  1  0  0  0  0  0  0
  188.6900  178.8070  138.9070 O   0  0  0  0  0  0  0  0  0  0  0  0
  188.6800  177.4010  139.0100 C   0  0  2  0  0  3  0  0  0  0  0  0
  189.2530  178.2650  140.0800 C   0  0  2  0  0  3  0  0  0  0  0  0
  190.7430  175.9990  138.8320 C   0  0  0  0  0  3  0  0  0  0  0  0
  191.8780  175.6690  136.7200 C   0  0  0  0  0  3  0  0  0  0  0  0
  190.9200  176.4610  136.0790 C   0  0  0  0  0  3  0  0  0  0  0  0
  189.7880  176.8040  138.1990 C   0  0  0  0  0  0  0  0  0  0  0  0
  189.8750  177.0230  136.8150 C   0  0  0  0  0  3  0  0  0  0  0  0
  191.7870  175.4340  138.0940 C   0  0  0  0  0  3  0  0  0  0  0  0
  1 29  1  0  0  0  0
  1 26  1  1  0  0  0
  2  6  2  0  0  0  0
  3  6  1  0  0  0  0
  3  9  1  0  0  0  0
  4 10  1  6  0  0  0
  4  7  1  0  0  0  0
  4  2  1  0  0  0  0
  7  5  1  1  0  0  0
  7  3  1  0  0  0  0
  8  9  2  0  0  0  0
  9  1  1  0  0  0  0
 11 10  1  6  0  0  0
 13 11  1  6  0  0  0
 13 12  1  0  0  0  0
 14 13  1  0  0  0  0
 15 14  2  0  0  0  0
 15 16  1  0  0  0  0
 16 12  2  0  0  0  0
 18 20  1  0  0  0  0
 18 17  1  0  0  0  0
 18 11  1  0  0  0  0
 19 18  1  0  0  0  0
 19 17  1  0  0  0  0
 20 22  1  0  0  0  0
 21 20  2  0  0  0  0
 23 22  1  0  0  0  0
 25 24  1  0  0  0  0
 25 23  1  0  0  0  0
 26 27  1  0  0  0  0
 27 28  1  0  0  0  0
 30 34  1  0  0  0  0
 31 30  2  0  0  0  0
 31 29  1  0  0  0  0
 32 36  1  0  0  0  0
 33 37  1  0  0  0  0
 34 32  2  0  0  0  0
 34 35  1  0  0  0  0
 35 33  1  0  0  0  0
 36 33  2  0  0  0  0
 37 38  1  0  0  0  0
 38 39  1  0  0  0  0
 40 41  1  0  0  0  0
 40 42  1  0  0  0  0
 41 46  1  6  0  0  0
 41 42  1  0  0  0  0
 42 30  1  1  0  0  0
 44 48  1  0  0  0  0
 45 44  2  0  0  0  0
 45 47  1  0  0  0  0
 46 43  1  0  0  0  0
 47 46  2  0  0  0  0
 48 43  2  0  0  0  0
M  END
>  <MODEL>
3

>  <REMARK>
 VINA RESULT:      -6.0      2.274      6.469
  Name = 
  18 active torsions:
  status: ('A' for Active; 'I' for Inactive)
    1  A    between atoms: C_1  and  C_2
    2  A    between atoms: C_1  and  C_15
    3  A    between atoms: C_2  and  C_38
    4  A    between atoms: C_2  and  N_40
    5  A    between atoms: C_5  and  C_19
    6  A    between atoms: C_5  and  C_43
    7  A    between atoms: N_6  and  C_41
    8  A    between atoms: C_7  and  C_39
    9  A    between atoms: C_7  and  C_47
   10  A    between atoms: C_10  and  C_20
   11  A    between atoms: C_11  and  C_41
   12  A    between atoms: C_16  and  C_24
   13  A    between atoms: C_20  and  C_24
   14  A    between atoms: C_20  and  C_39
   15  A    between atoms: C_30  and  C_34
   16  A    between atoms: C_36  and  N_40
   17  A    between atoms: C_37  and  C_45
   18  A    between atoms: C_37  and  C_47
                            x       y       z     vdW  Elec       q    Type
                         _______ _______ _______ _____ _____    ______ ____

>  <TORSDO>
F 18

$$$$
=
 OpenBabel11062415263D

 48 53  0  0  1  0  0  0  0  0999 V2000
  182.4440  178.7380  138.9040 C   0  0  2  0  0  3  0  0  0  0  0  0
  185.8340  179.3920  141.7180 C   0  0  0  0  0  3  0  0  0  0  0  0
  183.7160  178.5310  141.1000 N   0  0  0  0  0  0  0  0  0  0  0  0
  185.2210  178.6920  142.9250 C   0  0  1  0  0  3  0  0  0  0  0  0
  182.7950  178.9990  143.3110 C   0  0  0  0  0  1  0  0  0  0  0  0
  184.8920  179.1730  140.5500 C   0  0  0  0  0  3  0  0  0  0  0  0
  183.8340  178.2220  142.5150 C   0  0  1  0  0  3  0  0  0  0  0  0
  181.6300  177.5280  140.8030 O   0  0  0  0  0  0  0  0  0  0  0  0
  182.5680  178.2050  140.3030 C   0  0  0  0  0  0  0  0  0  0  0  0
  186.0850  177.5080  143.3210 C   0  0  0  0  0  2  0  0  0  0  0  0
  187.4540  177.9950  143.7840 C   0  0  2  0  0  3  0  0  0  0  0  0
  189.2330  177.8150  141.9350 C   0  0  0  0  0  3  0  0  0  0  0  0
  188.5620  177.3250  143.0340 C   0  0  2  0  0  3  0  0  0  0  0  0
  189.0640  176.0770  143.3300 C   0  0  0  0  0  3  0  0  0  0  0  0
  190.0500  175.8580  142.3840 C   0  0  0  0  0  3  0  0  0  0  0  0
  190.1480  176.9070  141.5460 N   0  0  0  0  0  0  0  0  0  0  0  0
  186.6110  178.4130  146.0390 O   0  0  0  0  0  0  0  0  0  0  0  0
  187.6320  177.8700  145.2960 C   0  0  0  0  0  0  0  0  0  0  0  0
  186.6910  177.0760  145.9030 O   0  0  0  0  0  0  0  0  0  0  0  0
  188.9690  177.8560  145.9730 C   0  0  0  0  0  0  0  0  0  0  0  0
  189.8530  178.6040  145.5860 O   0  0  0  0  0  0  0  0  0  0  0  0
  189.2350  176.9280  147.1130 C   0  0  0  0  0  2  0  0  0  0  0  0
  190.6330  177.1450  147.6520 C   0  0  0  0  0  2  0  0  0  0  0  0
  192.0150  175.9870  146.0220 N   0  0  0  0  0  1  0  0  0  0  0  0
  191.4980  175.9300  147.3770 C   0  0  0  0  0  2  0  0  0  0  0  0
  181.0880  179.4090  138.6880 C   0  0  0  0  0  2  0  0  0  0  0  0
  181.1730  180.9270  138.7420 C   0  0  0  0  0  2  0  0  0  0  0  0
  182.5040  181.3170  138.5950 O   0  0  0  0  0  1  0  0  0  0  0  0
  182.6680  177.7040  137.9030 N   0  0  0  0  0  2  0  0  0  0  0  0
  184.3030  176.2470  136.8350 C   0  0  0  0  0  0  0  0  0  0  0  0
  183.9690  177.4210  137.3910 C   0  0  0  0  0  3  0  0  0  0  0  0
  182.7270  174.4030  137.6510 C   0  0  0  0  0  3  0  0  0  0  0  0
  181.8240  173.3000  135.8180 C   0  0  0  0  0  0  0  0  0  0  0  0
  183.3340  175.1300  136.6240 C   0  0  0  0  0  0  0  0  0  0  0  0
  182.8240  174.4710  135.1550 S   0  0  0  0  0  0  0  0  0  0  0  0
  181.8850  173.3740  137.2000 C   0  0  0  0  0  3  0  0  0  0  0  0
  181.0770  172.2730  135.0430 C   0  0  0  0  0  2  0  0  0  0  0  0
  181.9890  171.2370  134.5970 N   0  0  0  0  0  2  0  0  0  0  0  0
  181.4410  169.9730  135.0530 C   0  0  0  0  0  1  0  0  0  0  0  0
  186.0180  174.7660  136.0880 O   0  0  0  0  0  0  0  0  0  0  0  0
  186.5910  175.3770  137.2220 C   0  0  2  0  0  3  0  0  0  0  0  0
  185.6990  176.1240  136.2910 C   0  0  2  0  0  3  0  0  0  0  0  0
  188.7910  174.9400  136.1160 C   0  0  0  0  0  3  0  0  0  0  0  0
  190.6910  176.4040  136.4400 C   0  0  0  0  0  3  0  0  0  0  0  0
  189.9200  177.2230  137.2720 C   0  0  0  0  0  3  0  0  0  0  0  0
  188.0170  175.7480  136.9580 C   0  0  0  0  0  0  0  0  0  0  0  0
  188.5860  176.8990  137.5260 C   0  0  0  0  0  3  0  0  0  0  0  0
  190.1250  175.2670  135.8590 C   0  0  0  0  0  3  0  0  0  0  0  0
  1 26  1  1  0  0  0
  1  9  1  0  0  0  0
  2  4  1  0  0  0  0
  3  7  1  0  0  0  0
  4 10  1  6  0  0  0
  6  3  1  0  0  0  0
  6  2  2  0  0  0  0
  7  4  1  0  0  0  0
  7  5  1  1  0  0  0
  9  8  2  0  0  0  0
  9  3  1  0  0  0  0
 11 10  1  6  0  0  0
 11 18  1  0  0  0  0
 12 13  1  0  0  0  0
 13 14  1  0  0  0  0
 13 11  1  6  0  0  0
 15 14  2  0  0  0  0
 16 12  2  0  0  0  0
 16 15  1  0  0  0  0
 18 19  1  0  0  0  0
 18 20  1  0  0  0  0
 18 17  1  0  0  0  0
 19 17  1  0  0  0  0
 20 22  1  0  0  0  0
 21 20  2  0  0  0  0
 22 23  1  0  0  0  0
 24 25  1  0  0  0  0
 25 23  1  0  0  0  0
 26 27  1  0  0  0  0
 28 27  1  0  0  0  0
 29  1  1  0  0  0  0
 30 31  2  0  0  0  0
 31 29  1  0  0  0  0
 33 36  2  0  0  0  0
 34 30  1  0  0  0  0
 34 32  2  0  0  0  0
 35 33  1  0  0  0  0
 35 34  1  0  0  0  0
 36 32  1  0  0  0  0
 37 33  1  0  0  0  0
 38 37  1  0  0  0  0
 38 39  1  0  0  0  0
 40 42  1  0  0  0  0
 40 41  1  0  0  0  0
 41 46  1  6  0  0  0
 42 30  1  1  0  0  0
 42 41  1  0  0  0  0
 43 46  1  0  0  0  0
 44 45  2  0  0  0  0
 45 47  1  0  0  0  0
 46 47  2  0  0  0  0
 48 43  2  0  0  0  0
 48 44  1  0  0  0  0
M  END
>  <MODEL>
4

>  <REMARK>
 VINA RESULT:      -5.7      3.077     10.036
  Name = 
  18 active torsions:
  status: ('A' for Active; 'I' for Inactive)
    1  A    between atoms: C_1  and  C_2
    2  A    between atoms: C_1  and  C_15
    3  A    between atoms: C_2  and  C_38
    4  A    between atoms: C_2  and  N_40
    5  A    between atoms: C_5  and  C_19
    6  A    between atoms: C_5  and  C_43
    7  A    between atoms: N_6  and  C_41
    8  A    between atoms: C_7  and  C_39
    9  A    between atoms: C_7  and  C_47
   10  A    between atoms: C_10  and  C_20
   11  A    between atoms: C_11  and  C_41
   12  A    between atoms: C_16  and  C_24
   13  A    between atoms: C_20  and  C_24
   14  A    between atoms: C_20  and  C_39
   15  A    between atoms: C_30  and  C_34
   16  A    between atoms: C_36  and  N_40
   17  A    between atoms: C_37  and  C_45
   18  A    between atoms: C_37  and  C_47
                            x       y       z     vdW  Elec       q    Type
                         _______ _______ _______ _____ _____    ______ ____

>  <TORSDO>
F 18

$$$$
=
 OpenBabel11062415263D

 48 53  0  0  1  0  0  0  0  0999 V2000
  189.6330  178.2470  141.9770 C   0  0  2  0  0  3  0  0  0  0  0  0
  188.9580  178.6100  137.5900 C   0  0  0  0  0  3  0  0  0  0  0  0
  189.4750  177.4230  139.5730 N   0  0  0  0  0  0  0  0  0  0  0  0
  189.2910  177.1690  137.2230 C   0  0  1  0  0  3  0  0  0  0  0  0
  191.1650  176.0900  138.4260 C   0  0  0  0  0  1  0  0  0  0  0  0
  188.9820  178.7010  139.1030 C   0  0  0  0  0  3  0  0  0  0  0  0
  189.6920  176.4600  138.5070 C   0  0  1  0  0  3  0  0  0  0  0  0
  189.9860  175.9700  141.3260 O   0  0  0  0  0  0  0  0  0  0  0  0
  189.6870  177.1390  140.9640 C   0  0  0  0  0  0  0  0  0  0  0  0
  188.0710  176.5040  136.6110 C   0  0  0  0  0  2  0  0  0  0  0  0
  188.0620  175.0180  136.9520 C   0  0  2  0  0  3  0  0  0  0  0  0
  189.4390  174.3810  134.8740 C   0  0  0  0  0  3  0  0  0  0  0  0
  189.1320  174.2760  136.2130 C   0  0  2  0  0  3  0  0  0  0  0  0
  189.9660  173.3380  136.7790 C   0  0  0  0  0  3  0  0  0  0  0  0
  190.7730  172.9090  135.7400 C   0  0  0  0  0  3  0  0  0  0  0  0
  190.4510  173.5390  134.5950 N   0  0  0  0  0  0  0  0  0  0  0  0
  186.7070  173.0310  136.5240 O   0  0  0  0  0  0  0  0  0  0  0  0
  186.6870  174.3860  136.7510 C   0  0  0  0  0  0  0  0  0  0  0  0
  186.3370  173.4920  137.7340 O   0  0  0  0  0  0  0  0  0  0  0  0
  185.5230  175.1110  136.1460 C   0  0  0  0  0  0  0  0  0  0  0  0
  185.4610  175.2560  134.9360 O   0  0  0  0  0  0  0  0  0  0  0  0
  184.4400  175.6680  137.0120 C   0  0  0  0  0  2  0  0  0  0  0  0
  184.4460  177.1810  136.9520 C   0  0  0  0  0  2  0  0  0  0  0  0
  185.3910  178.9300  138.3500 N   0  0  0  0  0  1  0  0  0  0  0  0
  184.5280  177.7630  138.3500 C   0  0  0  0  0  2  0  0  0  0  0  0
  190.9700  178.3930  142.7040 C   0  0  0  0  0  2  0  0  0  0  0  0
  190.8000  178.6140  144.1990 C   0  0  0  0  0  2  0  0  0  0  0  0
  191.9500  179.2210  144.7060 O   0  0  0  0  0  1  0  0  0  0  0  0
  188.5490  178.0630  142.9320 N   0  0  0  0  0  2  0  0  0  0  0  0
  186.1550  177.9190  143.3630 C   0  0  0  0  0  0  0  0  0  0  0  0
  187.1910  177.9300  142.5120 C   0  0  0  0  0  3  0  0  0  0  0  0
  185.4620  178.9260  145.6110 C   0  0  0  0  0  3  0  0  0  0  0  0
  186.9370  178.2140  147.2580 C   0  0  0  0  0  0  0  0  0  0  0  0
  186.2970  178.1180  144.8360 C   0  0  0  0  0  0  0  0  0  0  0  0
  187.4930  177.4900  145.8510 S   0  0  0  0  0  0  0  0  0  0  0  0
  185.8240  178.9850  146.9660 C   0  0  0  0  0  3  0  0  0  0  0  0
  187.6020  178.1280  148.5860 C   0  0  0  0  0  2  0  0  0  0  0  0
  188.7750  177.2800  148.4920 N   0  0  0  0  0  2  0  0  0  0  0  0
  189.9000  178.1510  148.2090 C   0  0  0  0  0  1  0  0  0  0  0  0
  184.6930  178.6710  141.6350 O   0  0  0  0  0  0  0  0  0  0  0  0
  184.0690  179.1360  142.8100 C   0  0  2  0  0  3  0  0  0  0  0  0
  184.7810  177.8280  142.7610 C   0  0  2  0  0  3  0  0  0  0  0  0
  181.8730  178.7470  143.9420 C   0  0  0  0  0  3  0  0  0  0  0  0
  179.8240  178.4720  142.6830 C   0  0  0  0  0  3  0  0  0  0  0  0
  180.5320  178.6440  141.4900 C   0  0  0  0  0  3  0  0  0  0  0  0
  182.5910  178.9060  142.7500 C   0  0  0  0  0  0  0  0  0  0  0  0
  181.9100  178.8650  141.5220 C   0  0  0  0  0  3  0  0  0  0  0  0
  180.4930  178.5290  143.9080 C   0  0  0  0  0  3  0  0  0  0  0  0
  1 26  1  1  0  0  0
  1 29  1  0  0  0  0
  2  6  2  0  0  0  0
  3  9  1  0  0  0  0
  4 10  1  1  0  0  0
  4  2  1  0  0  0  0
  4  7  1  0  0  0  0
  6  3  1  0  0  0  0
  7  5  1  6  0  0  0
  7  3  1  0  0  0  0
  9  8  2  0  0  0  0
  9  1  1  0  0  0  0
 11 10  1  6  0  0  0
 12 13  1  0  0  0  0
 13 14  1  0  0  0  0
 13 11  1  6  0  0  0
 15 14  2  0  0  0  0
 16 12  2  0  0  0  0
 16 15  1  0  0  0  0
 17 18  1  0  0  0  0
 17 19  1  0  0  0  0
 18 11  1  0  0  0  0
 18 19  1  0  0  0  0
 20 18  1  0  0  0  0
 20 22  1  0  0  0  0
 21 20  2  0  0  0  0
 23 22  1  0  0  0  0
 23 25  1  0  0  0  0
 24 25  1  0  0  0  0
 26 27  1  0  0  0  0
 27 28  1  0  0  0  0
 30 34  1  0  0  0  0
 31 29  1  0  0  0  0
 31 30  2  0  0  0  0
 32 36  1  0  0  0  0
 33 37  1  0  0  0  0
 34 32  2  0  0  0  0
 34 35  1  0  0  0  0
 35 33  1  0  0  0  0
 36 33  2  0  0  0  0
 38 37  1  0  0  0  0
 39 38  1  0  0  0  0
 40 42  1  0  0  0  0
 40 41  1  0  0  0  0
 41 46  1  6  0  0  0
 42 41  1  0  0  0  0
 42 30  1  1  0  0  0
 44 48  2  0  0  0  0
 45 47  2  0  0  0  0
 45 44  1  0  0  0  0
 46 43  2  0  0  0  0
 47 46  1  0  0  0  0
 48 43  1  0  0  0  0
M  END
>  <MODEL>
5

>  <REMARK>
 VINA RESULT:      -5.7      2.507      4.287
  Name = 
  18 active torsions:
  status: ('A' for Active; 'I' for Inactive)
    1  A    between atoms: C_1  and  C_2
    2  A    between atoms: C_1  and  C_15
    3  A    between atoms: C_2  and  C_38
    4  A    between atoms: C_2  and  N_40
    5  A    between atoms: C_5  and  C_19
    6  A    between atoms: C_5  and  C_43
    7  A    between atoms: N_6  and  C_41
    8  A    between atoms: C_7  and  C_39
    9  A    between atoms: C_7  and  C_47
   10  A    between atoms: C_10  and  C_20
   11  A    between atoms: C_11  and  C_41
   12  A    between atoms: C_16  and  C_24
   13  A    between atoms: C_20  and  C_24
   14  A    between atoms: C_20  and  C_39
   15  A    between atoms: C_30  and  C_34
   16  A    between atoms: C_36  and  N_40
   17  A    between atoms: C_37  and  C_45
   18  A    between atoms: C_37  and  C_47
                            x       y       z     vdW  Elec       q    Type
                         _______ _______ _______ _____ _____    ______ ____

>  <TORSDO>
F 18

$$$$
=
 OpenBabel11062415263D

 48 53  0  0  1  0  0  0  0  0999 V2000
  190.1840  176.7360  139.5410 C   0  0  2  0  0  3  0  0  0  0  0  0
  188.2290  176.6450  143.5420 C   0  0  0  0  0  3  0  0  0  0  0  0
  190.0450  177.0190  142.0680 N   0  0  0  0  0  0  0  0  0  0  0  0
  189.4490  177.0440  144.3630 C   0  0  1  0  0  3  0  0  0  0  0  0
  191.6380  176.1130  143.6770 C   0  0  0  0  0  1  0  0  0  0  0  0
  188.6220  176.7470  142.0810 C   0  0  0  0  0  3  0  0  0  0  0  0
  190.6110  177.1990  143.3940 C   0  0  1  0  0  3  0  0  0  0  0  0
  192.0030  177.5060  140.8950 O   0  0  0  0  0  0  0  0  0  0  0  0
  190.8000  177.1350  140.8530 C   0  0  0  0  0  0  0  0  0  0  0  0
  189.1770  178.3560  145.0760 C   0  0  0  0  0  2  0  0  0  0  0  0
  189.3390  178.1720  146.5810 C   0  0  2  0  0  3  0  0  0  0  0  0
  191.7210  177.3150  147.0430 C   0  0  0  0  0  3  0  0  0  0  0  0
  190.3630  177.1280  146.9030 C   0  0  0  0  0  0  0  0  0  0  0  0
  190.0860  175.7910  147.0850 C   0  0  0  0  0  3  0  0  0  0  0  0
  191.3120  175.2070  147.3450 C   0  0  0  0  0  3  0  0  0  0  0  0
  192.2940  176.1280  147.3180 N   0  0  0  0  0  2  0  0  0  0  0  0
  188.1040  177.1320  148.4140 O   0  0  0  0  0  0  0  0  0  0  0  0
  188.0080  177.9000  147.2790 C   0  0  0  0  0  0  0  0  0  0  0  0
  187.9110  178.4590  148.5290 O   0  0  0  0  0  0  0  0  0  0  0  0
  186.7000  177.7990  146.5540 C   0  0  0  0  0  0  0  0  0  0  0  0
  186.3520  176.7310  146.0760 O   0  0  0  0  0  0  0  0  0  0  0  0
  185.8210  178.9970  146.4020 C   0  0  0  0  0  2  0  0  0  0  0  0
  185.2470  179.0530  145.0010 C   0  0  0  0  0  2  0  0  0  0  0  0
  183.2030  178.6900  143.7380 N   0  0  0  0  0  1  0  0  0  0  0  0
  183.7320  179.0130  145.0500 C   0  0  0  0  0  2  0  0  0  0  0  0
  191.1080  175.8010  138.7610 C   0  0  0  0  0  2  0  0  0  0  0  0
  191.6010  176.4170  137.4610 C   0  0  0  0  0  2  0  0  0  0  0  0
  191.0540  175.7170  136.3860 O   0  0  0  0  0  1  0  0  0  0  0  0
  189.8250  177.8920  138.7320 N   0  0  0  0  0  2  0  0  0  0  0  0
  187.5490  178.2510  137.9380 C   0  0  0  0  0  0  0  0  0  0  0  0
  188.5350  178.4970  138.8130 C   0  0  0  0  0  3  0  0  0  0  0  0
  187.9430  177.5970  135.4960 C   0  0  0  0  0  3  0  0  0  0  0  0
  187.7040  175.2980  135.2700 C   0  0  0  0  0  0  0  0  0  0  0  0
  187.6650  177.2640  136.8230 C   0  0  0  0  0  0  0  0  0  0  0  0
  187.4270  175.5930  136.8970 S   0  0  0  0  0  0  0  0  0  0  0  0
  187.9590  176.4960  134.6240 C   0  0  0  0  0  3  0  0  0  0  0  0
  187.5840  173.9710  134.6070 C   0  0  0  0  0  2  0  0  0  0  0  0
  187.7500  172.9160  135.5900 N   0  0  0  0  0  2  0  0  0  0  0  0
  189.1770  172.7110  135.7470 C   0  0  0  0  0  1  0  0  0  0  0  0
  185.8530  178.7480  139.5400 O   0  0  0  0  0  0  0  0  0  0  0  0
  185.1810  177.9450  138.5970 C   0  0  2  0  0  3  0  0  0  0  0  0
  186.2300  178.9230  138.1930 C   0  0  2  0  0  3  0  0  0  0  0  0
  183.4010  179.6640  138.9570 C   0  0  0  0  0  3  0  0  0  0  0  0
  181.2980  179.5880  137.7610 C   0  0  0  0  0  3  0  0  0  0  0  0
  181.7220  178.4400  137.0860 C   0  0  0  0  0  3  0  0  0  0  0  0
  183.8260  178.5060  138.2940 C   0  0  0  0  0  0  0  0  0  0  0  0
  182.9840  177.9030  137.3470 C   0  0  0  0  0  3  0  0  0  0  0  0
  182.1390  180.2030  138.6930 C   0  0  0  0  0  3  0  0  0  0  0  0
  1 26  1  6  0  0  0
  1  9  1  0  0  0  0
  2  4  1  0  0  0  0
  3  6  1  0  0  0  0
  3  7  1  0  0  0  0
  4 10  1  6  0  0  0
  6  2  2  0  0  0  0
  7  5  1  1  0  0  0
  7  4  1  0  0  0  0
  9  8  2  0  0  0  0
  9  3  1  0  0  0  0
 11 10  1  6  0  0  0
 11 13  1  0  0  0  0
 11 18  1  0  0  0  0
 12 16  1  0  0  0  0
 13 12  2  0  0  0  0
 13 14  1  0  0  0  0
 14 15  2  0  0  0  0
 16 15  1  0  0  0  0
 17 19  1  0  0  0  0
 18 17  1  0  0  0  0
 18 19  1  0  0  0  0
 20 18  1  0  0  0  0
 21 20  2  0  0  0  0
 22 20  1  0  0  0  0
 23 25  1  0  0  0  0
 23 22  1  0  0  0  0
 24 25  1  0  0  0  0
 27 26  1  0  0  0  0
 28 27  1  0  0  0  0
 29 31  1  0  0  0  0
 29  1  1  0  0  0  0
 30 31  2  0  0  0  0
 32 34  2  0  0  0  0
 33 35  1  0  0  0  0
 34 35  1  0  0  0  0
 34 30  1  0  0  0  0
 36 33  2  0  0  0  0
 36 32  1  0  0  0  0
 37 33  1  0  0  0  0
 37 38  1  0  0  0  0
 38 39  1  0  0  0  0
 41 46  1  6  0  0  0
 41 40  1  0  0  0  0
 42 30  1  1  0  0  0
 42 41  1  0  0  0  0
 42 40  1  0  0  0  0
 44 48  2  0  0  0  0
 45 47  2  0  0  0  0
 45 44  1  0  0  0  0
 46 43  2  0  0  0  0
 47 46  1  0  0  0  0
 48 43  1  0  0  0  0
M  END
>  <MODEL>
6

>  <REMARK>
 VINA RESULT:      -5.6      3.033      8.278
  Name = 
  18 active torsions:
  status: ('A' for Active; 'I' for Inactive)
    1  A    between atoms: C_1  and  C_2
    2  A    between atoms: C_1  and  C_15
    3  A    between atoms: C_2  and  C_38
    4  A    between atoms: C_2  and  N_40
    5  A    between atoms: C_5  and  C_19
    6  A    between atoms: C_5  and  C_43
    7  A    between atoms: N_6  and  C_41
    8  A    between atoms: C_7  and  C_39
    9  A    between atoms: C_7  and  C_47
   10  A    between atoms: C_10  and  C_20
   11  A    between atoms: C_11  and  C_41
   12  A    between atoms: C_16  and  C_24
   13  A    between atoms: C_20  and  C_24
   14  A    between atoms: C_20  and  C_39
   15  A    between atoms: C_30  and  C_34
   16  A    between atoms: C_36  and  N_40
   17  A    between atoms: C_37  and  C_45
   18  A    between atoms: C_37  and  C_47
                            x       y       z     vdW  Elec       q    Type
                         _______ _______ _______ _____ _____    ______ ____

>  <TORSDO>
F 18

$$$$
=
 OpenBabel11062415263D

 48 53  0  0  1  0  0  0  0  0999 V2000
  183.9500  179.0210  142.7420 C   0  0  2  0  0  3  0  0  0  0  0  0
  186.6210  178.1400  146.1950 C   0  0  0  0  0  3  0  0  0  0  0  0
  186.0340  178.1270  143.9010 N   0  0  0  0  0  0  0  0  0  0  0  0
  187.7030  177.3980  145.4190 C   0  0  1  0  0  3  0  0  0  0  0  0
  186.9690  175.8950  143.5940 C   0  0  0  0  0  1  0  0  0  0  0  0
  185.6350  178.6800  145.1790 C   0  0  0  0  0  3  0  0  0  0  0  0
  187.2550  177.3430  143.9670 C   0  0  1  0  0  3  0  0  0  0  0  0
  185.7710  177.9810  141.5870 O   0  0  0  0  0  0  0  0  0  0  0  0
  185.3040  178.3730  142.6890 C   0  0  0  0  0  0  0  0  0  0  0  0
  189.0190  178.1460  145.5380 C   0  0  0  0  0  2  0  0  0  0  0  0
  190.1560  177.2860  144.9970 C   0  0  2  0  0  3  0  0  0  0  0  0
  192.0550  175.8560  145.9820 C   0  0  0  0  0  3  0  0  0  0  0  0
  191.0320  176.7720  146.0970 C   0  0  0  0  0  0  0  0  0  0  0  0
  190.9180  177.1340  147.4210 C   0  0  0  0  0  3  0  0  0  0  0  0
  191.9060  176.4160  148.0710 C   0  0  0  0  0  3  0  0  0  0  0  0
  192.5880  175.6480  147.2010 N   0  0  0  0  0  2  0  0  0  0  0  0
  190.8780  179.3740  143.9550 O   0  0  0  0  0  0  0  0  0  0  0  0
  190.9610  178.0030  143.9160 C   0  0  0  0  0  0  0  0  0  0  0  0
  191.9930  178.7670  144.4040 O   0  0  0  0  0  0  0  0  0  0  0  0
  191.2220  177.4240  142.5580 C   0  0  0  0  0  0  0  0  0  0  0  0
  192.3350  177.5130  142.0640 O   0  0  0  0  0  0  0  0  0  0  0  0
  190.1300  176.7450  141.7980 C   0  0  0  0  0  2  0  0  0  0  0  0
  189.3710  177.7500  140.9580 C   0  0  0  0  0  2  0  0  0  0  0  0
  190.3950  176.5230  139.1280 N   0  0  0  0  0  1  0  0  0  0  0  0
  189.1990  177.2330  139.5430 C   0  0  0  0  0  2  0  0  0  0  0  0
  183.2560  178.7390  144.0750 C   0  0  0  0  0  2  0  0  0  0  0  0
  181.8640  179.3460  144.1480 C   0  0  0  0  0  2  0  0  0  0  0  0
  180.9150  178.3260  144.0720 O   0  0  0  0  0  1  0  0  0  0  0  0
  183.1050  178.6130  141.6290 N   0  0  0  0  0  2  0  0  0  0  0  0
  181.3790  179.2790  140.0420 C   0  0  0  0  0  0  0  0  0  0  0  0
  182.4570  179.5660  140.7870 C   0  0  0  0  0  3  0  0  0  0  0  0
  179.6140  177.6350  140.8940 C   0  0  0  0  0  3  0  0  0  0  0  0
  179.8870  175.5930  139.8220 C   0  0  0  0  0  0  0  0  0  0  0  0
  180.6920  177.9540  140.0650 C   0  0  0  0  0  0  0  0  0  0  0  0
  181.0880  176.5700  139.1800 S   0  0  0  0  0  0  0  0  0  0  0  0
  179.1660  176.3110  140.7620 C   0  0  0  0  0  3  0  0  0  0  0  0
  179.6980  174.1500  139.5100 C   0  0  0  0  0  2  0  0  0  0  0  0
  179.9880  173.9110  138.1090 N   0  0  0  0  0  2  0  0  0  0  0  0
  180.1210  172.4750  137.9480 C   0  0  0  0  0  1  0  0  0  0  0  0
  179.9660  179.8920  138.2210 O   0  0  0  0  0  0  0  0  0  0  0  0
  181.2270  180.3850  137.8300 C   0  0  2  0  0  3  0  0  0  0  0  0
  180.7790  180.4070  139.2510 C   0  0  2  0  0  3  0  0  0  0  0  0
  180.4420  181.9160  136.0150 C   0  0  0  0  0  3  0  0  0  0  0  0
  180.8410  184.3010  136.1020 C   0  0  0  0  0  3  0  0  0  0  0  0
  181.4870  184.1500  137.3330 C   0  0  0  0  0  3  0  0  0  0  0  0
  181.0990  181.7550  137.2410 C   0  0  0  0  0  0  0  0  0  0  0  0
  181.6120  182.8820  137.9040 C   0  0  0  0  0  3  0  0  0  0  0  0
  180.3160  183.1860  135.4460 C   0  0  0  0  0  3  0  0  0  0  0  0
  1 26  1  1  0  0  0
  3  7  1  0  0  0  0
  3  6  1  0  0  0  0
  4 10  1  6  0  0  0
  4  2  1  0  0  0  0
  6  2  2  0  0  0  0
  7  5  1  1  0  0  0
  7  4  1  0  0  0  0
  8  9  2  0  0  0  0
  9  1  1  0  0  0  0
  9  3  1  0  0  0  0
 11 10  1  1  0  0  0
 11 13  1  0  0  0  0
 12 13  2  0  0  0  0
 12 16  1  0  0  0  0
 13 14  1  0  0  0  0
 14 15  2  0  0  0  0
 16 15  1  0  0  0  0
 17 19  1  0  0  0  0
 18 17  1  0  0  0  0
 18 19  1  0  0  0  0
 18 11  1  0  0  0  0
 20 18  1  0  0  0  0
 21 20  2  0  0  0  0
 22 20  1  0  0  0  0
 23 22  1  0  0  0  0
 24 25  1  0  0  0  0
 25 23  1  0  0  0  0
 26 27  1  0  0  0  0
 28 27  1  0  0  0  0
 29  1  1  0  0  0  0
 30 34  1  0  0  0  0
 30 31  2  0  0  0  0
 31 29  1  0  0  0  0
 33 36  2  0  0  0  0
 34 32  2  0  0  0  0
 35 33  1  0  0  0  0
 35 34  1  0  0  0  0
 36 32  1  0  0  0  0
 37 33  1  0  0  0  0
 38 37  1  0  0  0  0
 39 38  1  0  0  0  0
 40 42  1  0  0  0  0
 41 46  1  6  0  0  0
 41 40  1  0  0  0  0
 41 42  1  0  0  0  0
 42 30  1  1  0  0  0
 43 46  1  0  0  0  0
 44 45  2  0  0  0  0
 45 47  1  0  0  0  0
 46 47  2  0  0  0  0
 48 43  2  0  0  0  0
 48 44  1  0  0  0  0
M  END
>  <MODEL>
7

>  <REMARK>
 VINA RESULT:      -5.6      4.025     10.219
  Name = 
  18 active torsions:
  status: ('A' for Active; 'I' for Inactive)
    1  A    between atoms: C_1  and  C_2
    2  A    between atoms: C_1  and  C_15
    3  A    between atoms: C_2  and  C_38
    4  A    between atoms: C_2  and  N_40
    5  A    between atoms: C_5  and  C_19
    6  A    between atoms: C_5  and  C_43
    7  A    between atoms: N_6  and  C_41
    8  A    between atoms: C_7  and  C_39
    9  A    between atoms: C_7  and  C_47
   10  A    between atoms: C_10  and  C_20
   11  A    between atoms: C_11  and  C_41
   12  A    between atoms: C_16  and  C_24
   13  A    between atoms: C_20  and  C_24
   14  A    between atoms: C_20  and  C_39
   15  A    between atoms: C_30  and  C_34
   16  A    between atoms: C_36  and  N_40
   17  A    between atoms: C_37  and  C_45
   18  A    between atoms: C_37  and  C_47
                            x       y       z     vdW  Elec       q    Type
                         _______ _______ _______ _____ _____    ______ ____

>  <TORSDO>
F 18

$$$$
=
 OpenBabel11062415263D

 48 53  0  0  1  0  0  0  0  0999 V2000
  188.1420  176.0930  135.4850 C   0  0  2  0  0  3  0  0  0  0  0  0
  183.9480  177.5640  135.1950 C   0  0  0  0  0  3  0  0  0  0  0  0
  185.7470  176.4580  136.2680 N   0  0  0  0  0  0  0  0  0  0  0  0
  183.4440  176.9710  136.5050 C   0  0  1  0  0  3  0  0  0  0  0  0
  184.2660  174.7210  137.1290 C   0  0  0  0  0  1  0  0  0  0  0  0
  185.4410  177.3070  135.1350 C   0  0  0  0  0  3  0  0  0  0  0  0
  184.6020  176.2050  137.1260 C   0  0  1  0  0  3  0  0  0  0  0  0
  187.3020  175.3340  137.5950 O   0  0  0  0  0  0  0  0  0  0  0  0
  187.0660  175.9540  136.5250 C   0  0  0  0  0  0  0  0  0  0  0  0
  182.9920  178.0880  137.4290 C   0  0  0  0  0  2  0  0  0  0  0  0
  183.0340  177.6120  138.8780 C   0  0  2  0  0  3  0  0  0  0  0  0
  180.4890  177.4370  139.2130 C   0  0  0  0  0  3  0  0  0  0  0  0
  181.7650  176.9200  139.2680 C   0  0  0  0  0  0  0  0  0  0  0  0
  181.6970  175.6410  139.7750 C   0  0  0  0  0  3  0  0  0  0  0  0
  180.3500  175.4230  140.0040 C   0  0  0  0  0  3  0  0  0  0  0  0
  179.6260  176.5060  139.6640 N   0  0  0  0  0  2  0  0  0  0  0  0
  184.4380  179.5300  139.4430 O   0  0  0  0  0  0  0  0  0  0  0  0
  183.3900  178.7380  139.8470 C   0  0  0  0  0  0  0  0  0  0  0  0
  183.1790  179.9960  139.3400 O   0  0  0  0  0  0  0  0  0  0  0  0
  183.2060  178.6400  141.3310 C   0  0  0  0  0  0  0  0  0  0  0  0
  182.1520  178.9900  141.8360 O   0  0  0  0  0  0  0  0  0  0  0  0
  184.3060  178.1260  142.2020 C   0  0  0  0  0  2  0  0  0  0  0  0
  184.8530  179.2400  143.0700 C   0  0  0  0  0  2  0  0  0  0  0  0
  183.4700  179.0320  145.0580 N   0  0  0  0  0  1  0  0  0  0  0  0
  184.8090  178.8390  144.5320 C   0  0  0  0  0  2  0  0  0  0  0  0
  188.3390  174.7850  134.7190 C   0  0  0  0  0  2  0  0  0  0  0  0
  189.5290  173.9850  135.2240 C   0  0  0  0  0  2  0  0  0  0  0  0
  189.0680  172.8660  135.9160 O   0  0  0  0  0  1  0  0  0  0  0  0
  189.4020  176.5440  136.0600 N   0  0  0  0  0  2  0  0  0  0  0  0
  190.4890  176.7290  138.2330 C   0  0  0  0  0  0  0  0  0  0  0  0
  189.4860  177.0360  137.3970 C   0  0  0  0  0  3  0  0  0  0  0  0
  191.6570  174.5040  137.7510 C   0  0  0  0  0  3  0  0  0  0  0  0
  193.8770  174.9060  137.2020 C   0  0  0  0  0  0  0  0  0  0  0  0
  191.6650  175.8970  137.8390 C   0  0  0  0  0  0  0  0  0  0  0  0
  193.2310  176.4260  137.4890 S   0  0  0  0  0  0  0  0  0  0  0  0
  192.8970  173.9470  137.4000 C   0  0  0  0  0  3  0  0  0  0  0  0
  195.3060  174.6270  136.8930 C   0  0  0  0  0  2  0  0  0  0  0  0
  195.7850  173.5430  137.7300 N   0  0  0  0  0  2  0  0  0  0  0  0
  196.1850  174.1340  138.9920 C   0  0  0  0  0  1  0  0  0  0  0  0
  191.6950  177.1630  140.2450 O   0  0  0  0  0  0  0  0  0  0  0  0
  190.6160  176.3690  140.6810 C   0  0  2  0  0  3  0  0  0  0  0  0
  190.4640  177.3730  139.5910 C   0  0  2  0  0  3  0  0  0  0  0  0
  190.8870  177.5160  142.8870 C   0  0  0  0  0  3  0  0  0  0  0  0
  188.9990  177.9430  144.3390 C   0  0  0  0  0  3  0  0  0  0  0  0
  188.1430  177.3540  143.4030 C   0  0  0  0  0  3  0  0  0  0  0  0
  190.0380  176.9130  141.9500 C   0  0  0  0  0  0  0  0  0  0  0  0
  188.6600  176.8460  142.2100 C   0  0  0  0  0  3  0  0  0  0  0  0
  190.3690  178.0270  144.0800 C   0  0  0  0  0  3  0  0  0  0  0  0
  1 26  1  1  0  0  0
  1 29  1  0  0  0  0
  1  9  1  0  0  0  0
  2  4  1  0  0  0  0
  3  9  1  0  0  0  0
  3  7  1  0  0  0  0
  4  7  1  0  0  0  0
  4 10  1  1  0  0  0
  6  2  2  0  0  0  0
  6  3  1  0  0  0  0
  7  5  1  6  0  0  0
  9  8  2  0  0  0  0
 11 10  1  6  0  0  0
 11 13  1  0  0  0  0
 11 18  1  0  0  0  0
 12 13  2  0  0  0  0
 12 16  1  0  0  0  0
 13 14  1  0  0  0  0
 14 15  2  0  0  0  0
 16 15  1  0  0  0  0
 17 18  1  0  0  0  0
 18 20  1  0  0  0  0
 19 17  1  0  0  0  0
 19 18  1  0  0  0  0
 20 21  2  0  0  0  0
 20 22  1  0  0  0  0
 22 23  1  0  0  0  0
 23 25  1  0  0  0  0
 25 24  1  0  0  0  0
 26 27  1  0  0  0  0
 27 28  1  0  0  0  0
 29 31  1  0  0  0  0
 31 30  2  0  0  0  0
 32 34  2  0  0  0  0
 33 36  2  0  0  0  0
 33 35  1  0  0  0  0
 34 30  1  0  0  0  0
 35 34  1  0  0  0  0
 36 32  1  0  0  0  0
 37 33  1  0  0  0  0
 37 38  1  0  0  0  0
 38 39  1  0  0  0  0
 40 41  1  0  0  0  0
 41 46  1  1  0  0  0
 42 30  1  6  0  0  0
 42 40  1  0  0  0  0
 42 41  1  0  0  0  0
 43 48  1  0  0  0  0
 45 44  1  0  0  0  0
 46 47  1  0  0  0  0
 46 43  2  0  0  0  0
 47 45  2  0  0  0  0
 48 44  2  0  0  0  0
M  END
>  <MODEL>
8

>  <REMARK>
 VINA RESULT:      -5.5      2.566      5.691
  Name = 
  18 active torsions:
  status: ('A' for Active; 'I' for Inactive)
    1  A    between atoms: C_1  and  C_2
    2  A    between atoms: C_1  and  C_15
    3  A    between atoms: C_2  and  C_38
    4  A    between atoms: C_2  and  N_40
    5  A    between atoms: C_5  and  C_19
    6  A    between atoms: C_5  and  C_43
    7  A    between atoms: N_6  and  C_41
    8  A    between atoms: C_7  and  C_39
    9  A    between atoms: C_7  and  C_47
   10  A    between atoms: C_10  and  C_20
   11  A    between atoms: C_11  and  C_41
   12  A    between atoms: C_16  and  C_24
   13  A    between atoms: C_20  and  C_24
   14  A    between atoms: C_20  and  C_39
   15  A    between atoms: C_30  and  C_34
   16  A    between atoms: C_36  and  N_40
   17  A    between atoms: C_37  and  C_45
   18  A    between atoms: C_37  and  C_47
                            x       y       z     vdW  Elec       q    Type
                         _______ _______ _______ _____ _____    ______ ____

>  <TORSDO>
F 18

$$$$
=
 OpenBabel11062415263D

 48 53  0  0  1  0  0  0  0  0999 V2000
  185.6930  178.4380  142.8740 C   0  0  2  0  0  3  0  0  0  0  0  0
  188.8160  178.5410  139.7000 C   0  0  0  0  0  3  0  0  0  0  0  0
  187.8990  177.8210  141.7620 N   0  0  0  0  0  0  0  0  0  0  0  0
  189.8260  177.6340  140.3930 C   0  0  1  0  0  3  0  0  0  0  0  0
  190.0860  177.8780  142.8420 C   0  0  0  0  0  1  0  0  0  0  0  0
  187.5630  178.5470  140.5550 C   0  0  0  0  0  3  0  0  0  0  0  0
  189.2370  177.2560  141.7430 C   0  0  1  0  0  3  0  0  0  0  0  0
  187.2720  176.9020  143.8130 O   0  0  0  0  0  0  0  0  0  0  0  0
  186.9750  177.6540  142.8480 C   0  0  0  0  0  0  0  0  0  0  0  0
  190.0570  176.3920  139.5500 C   0  0  0  0  0  2  0  0  0  0  0  0
  190.5200  176.7910  138.1530 C   0  0  2  0  0  3  0  0  0  0  0  0
  188.1760  176.2050  137.2690 C   0  0  0  0  0  3  0  0  0  0  0  0
  189.3720  176.8860  137.1970 C   0  0  2  0  0  3  0  0  0  0  0  0
  189.3590  177.6720  136.0660 C   0  0  0  0  0  3  0  0  0  0  0  0
  188.1240  177.4390  135.4870 C   0  0  0  0  0  3  0  0  0  0  0  0
  187.4150  176.5550  136.2140 N   0  0  0  0  0  0  0  0  0  0  0  0
  191.4930  174.5570  137.9770 O   0  0  0  0  0  0  0  0  0  0  0  0
  191.6260  175.8790  137.6270 C   0  0  0  0  0  0  0  0  0  0  0  0
  191.1910  174.9420  136.7220 O   0  0  0  0  0  0  0  0  0  0  0  0
  193.0360  176.3350  137.4010 C   0  0  0  0  0  0  0  0  0  0  0  0
  193.7130  176.7060  138.3460 O   0  0  0  0  0  0  0  0  0  0  0  0
  193.6190  176.3490  136.0250 C   0  0  0  0  0  2  0  0  0  0  0  0
  194.6780  175.2740  135.8930 C   0  0  0  0  0  2  0  0  0  0  0  0
  195.9020  177.3010  135.3470 N   0  0  0  0  0  1  0  0  0  0  0  0
  196.0460  175.9020  135.7050 C   0  0  0  0  0  2  0  0  0  0  0  0
  184.9770  178.2770  144.2160 C   0  0  0  0  0  2  0  0  0  0  0  0
  185.3100  179.3930  145.1930 C   0  0  0  0  0  2  0  0  0  0  0  0
  184.9020  179.0190  146.4730 O   0  0  0  0  0  1  0  0  0  0  0  0
  184.8080  178.0760  141.7760 N   0  0  0  0  0  2  0  0  0  0  0  0
  182.9230  178.6410  140.3380 C   0  0  0  0  0  0  0  0  0  0  0  0
  183.6930  178.8870  141.4080 C   0  0  0  0  0  3  0  0  0  0  0  0
  182.4550  176.2250  139.6360 C   0  0  0  0  0  3  0  0  0  0  0  0
  183.7370  175.7070  137.7700 C   0  0  0  0  0  0  0  0  0  0  0  0
  183.1000  177.4510  139.4530 C   0  0  0  0  0  0  0  0  0  0  0  0
  184.1310  177.2980  138.1240 S   0  0  0  0  0  0  0  0  0  0  0  0
  182.8160  175.2460  138.6970 C   0  0  0  0  0  3  0  0  0  0  0  0
  184.3640  174.8870  136.6980 C   0  0  0  0  0  2  0  0  0  0  0  0
  184.1460  173.4790  136.9680 N   0  0  0  0  0  2  0  0  0  0  0  0
  185.3050  173.0090  137.7030 C   0  0  0  0  0  1  0  0  0  0  0  0
  180.8000  178.9270  139.2900 O   0  0  0  0  0  0  0  0  0  0  0  0
  181.5970  179.9170  138.6800 C   0  0  2  0  0  3  0  0  0  0  0  0
  181.7520  179.5560  140.1170 C   0  0  2  0  0  3  0  0  0  0  0  0
  179.6530  181.3700  139.2840 C   0  0  0  0  0  3  0  0  0  0  0  0
  179.3980  183.5970  138.3710 C   0  0  0  0  0  3  0  0  0  0  0  0
  180.5920  183.4440  137.6590 C   0  0  0  0  0  3  0  0  0  0  0  0
  180.8430  181.2050  138.5630 C   0  0  0  0  0  0  0  0  0  0  0  0
  181.3150  182.2540  137.7580 C   0  0  0  0  0  3  0  0  0  0  0  0
  178.9320  182.5640  139.1860 C   0  0  0  0  0  3  0  0  0  0  0  0
  1 26  1  1  0  0  0
  2  4  1  0  0  0  0
  2  6  2  0  0  0  0
  3  9  1  0  0  0  0
  4 10  1  6  0  0  0
  4  7  1  0  0  0  0
  6  3  1  0  0  0  0
  7  3  1  0  0  0  0
  7  5  1  1  0  0  0
  9  1  1  0  0  0  0
  9  8  2  0  0  0  0
 11 10  1  1  0  0  0
 13 12  1  0  0  0  0
 13 11  1  6  0  0  0
 14 13  1  0  0  0  0
 15 14  2  0  0  0  0
 15 16  1  0  0  0  0
 16 12  2  0  0  0  0
 18 17  1  0  0  0  0
 18 11  1  0  0  0  0
 19 18  1  0  0  0  0
 19 17  1  0  0  0  0
 20 18  1  0  0  0  0
 20 21  2  0  0  0  0
 22 20  1  0  0  0  0
 23 22  1  0  0  0  0
 24 25  1  0  0  0  0
 25 23  1  0  0  0  0
 26 27  1  0  0  0  0
 27 28  1  0  0  0  0
 29  1  1  0  0  0  0
 30 31  2  0  0  0  0
 31 29  1  0  0  0  0
 33 35  1  0  0  0  0
 33 36  2  0  0  0  0
 34 32  2  0  0  0  0
 34 30  1  0  0  0  0
 35 34  1  0  0  0  0
 36 32  1  0  0  0  0
 37 38  1  0  0  0  0
 37 33  1  0  0  0  0
 38 39  1  0  0  0  0
 40 42  1  0  0  0  0
 41 46  1  1  0  0  0
 41 40  1  0  0  0  0
 41 42  1  0  0  0  0
 42 30  1  6  0  0  0
 44 48  2  0  0  0  0
 45 47  2  0  0  0  0
 45 44  1  0  0  0  0
 46 43  2  0  0  0  0
 47 46  1  0  0  0  0
 48 43  1  0  0  0  0
M  END
>  <MODEL>
9

>  <REMARK>
 VINA RESULT:      -5.4      3.331      8.426
  Name = 
  18 active torsions:
  status: ('A' for Active; 'I' for Inactive)
    1  A    between atoms: C_1  and  C_2
    2  A    between atoms: C_1  and  C_15
    3  A    between atoms: C_2  and  C_38
    4  A    between atoms: C_2  and  N_40
    5  A    between atoms: C_5  and  C_19
    6  A    between atoms: C_5  and  C_43
    7  A    between atoms: N_6  and  C_41
    8  A    between atoms: C_7  and  C_39
    9  A    between atoms: C_7  and  C_47
   10  A    between atoms: C_10  and  C_20
   11  A    between atoms: C_11  and  C_41
   12  A    between atoms: C_16  and  C_24
   13  A    between atoms: C_20  and  C_24
   14  A    between atoms: C_20  and  C_39
   15  A    between atoms: C_30  and  C_34
   16  A    between atoms: C_36  and  N_40
   17  A    between atoms: C_37  and  C_45
   18  A    between atoms: C_37  and  C_47
                            x       y       z     vdW  Elec       q    Type
                         _______ _______ _______ _____ _____    ______ ____

>  <TORSDO>
F 18

$$$$
