=
 OpenBabel11062416303D

 46 52  0  0  1  0  0  0  0  0999 V2000
  181.3490  181.0210  139.0060 C   0  0  2  0  0  3  0  0  0  0  0  0
  180.6530  179.8290  141.6610 C   0  0  0  0  0  2  0  0  0  0  0  0
  179.7680  178.5160  139.7240 C   0  0  2  0  0  3  0  0  0  0  0  0
  184.7400  179.0740  142.8590 C   0  0  1  0  0  3  0  0  0  0  0  0
  184.9170  179.7280  144.2170 C   0  0  0  0  0  1  0  0  0  0  0  0
  183.0680  177.9080  141.3920 C   0  0  0  0  0  2  0  0  0  0  0  0
  186.6130  178.6280  140.3300 C   0  0  0  0  0  0  0  0  0  0  0  0
  179.4610  178.9330  137.2030 C   0  0  0  0  0  3  0  0  0  0  0  0
  186.2080  178.5450  138.8940 C   0  0  1  0  0  3  0  0  0  0  0  0
  182.4810  178.8460  138.3390 C   0  0  0  0  0  2  0  0  0  0  0  0
  178.9320  176.7260  138.1130 C   0  0  0  0  0  2  0  0  0  0  0  0
  181.2180  178.6990  142.4960 C   0  0  1  0  0  3  0  0  0  0  0  0
  187.4220  179.5220  140.6990 O   0  0  0  0  0  0  0  0  0  0  0  0
  179.3000  179.4900  138.5890 C   0  0  2  0  0  3  0  0  0  0  0  0
  185.9100  178.1190  142.6400 C   0  0  0  0  0  2  0  0  0  0  0  0
  181.0480  178.9810  140.4610 C   0  0  2  0  0  0  0  0  0  0  0  0
  183.4000  178.3300  142.7940 C   0  0  2  0  0  3  0  0  0  0  0  0
  184.4640  177.1470  138.3040 C   0  0  0  0  0  0  0  0  0  0  0  0
  181.6170  177.9170  141.3220 N   0  0  1  0  0  0  0  0  0  0  0  0
  183.8170  176.1240  137.9580 O   0  0  0  0  0  0  0  0  0  0  0  0
  179.2610  177.6370  136.9730 C   0  0  0  0  0  0  0  0  0  0  0  0
  183.9170  178.4690  138.4720 C   0  0  0  0  0  0  0  0  0  0  0  0
  182.0220  179.7290  139.5100 C   0  0  2  0  0  3  0  0  0  0  0  0
  185.8570  177.1640  138.5500 N   0  0  0  0  0  0  0  0  0  0  0  0
  186.0150  177.7780  141.2650 O   0  0  0  0  0  0  0  0  0  0  0  0
  182.3480  179.1530  143.2040 O   0  0  0  0  0  0  0  0  0  0  0  0
  179.8630  177.0390  139.2800 C   0  0  0  0  0  2  0  0  0  0  0  0
  179.8490  180.9230  138.6660 C   0  0  1  0  0  3  0  0  0  0  0  0
  184.9120  179.3030  138.7480 C   0  0  0  0  0  3  0  0  0  0  0  0
  179.6180  176.6670  134.5950 N   0  0  0  0  0  0  0  0  0  0  0  0
  179.4590  177.1010  135.6560 C   0  0  0  0  0  0  0  0  0  0  0  0
  182.1520  181.8230  137.9830 C   0  0  0  0  0  2  0  0  0  0  0  0
  182.9260  182.7990  138.6130 O   0  0  0  0  0  1  0  0  0  0  0  0
  179.1090  181.6630  139.5890 O   0  0  0  0  0  0  0  0  0  0  0  0
  179.1340  182.9710  139.1010 C   0  0  0  0  0  2  0  0  0  0  0  0
  178.9410  182.9530  137.5980 C   0  0  0  0  0  1  0  0  0  0  0  0
  186.7790  176.1890  137.9800 C   0  0  0  0  0  2  0  0  0  0  0  0
  188.9850  176.5760  139.0820 C   0  0  0  0  0  2  0  0  0  0  0  0
  190.4320  176.9550  138.8990 C   0  0  0  0  0  3  0  0  0  0  0  0
  191.0100  177.0490  137.6910 C   0  0  0  0  0  3  0  0  0  0  0  0
  188.1680  176.7860  137.8060 C   0  0  1  0  0  3  0  0  0  0  0  0
  188.8970  176.1780  136.5990 C   0  0  1  0  0  3  0  0  0  0  0  0
  190.2380  176.8880  136.4040 C   0  0  0  0  0  2  0  0  0  0  0  0
  189.0990  174.8030  136.7680 O   0  0  0  0  0  0  0  0  0  0  0  0
  189.2060  174.2960  135.4720 C   0  0  0  0  0  2  0  0  0  0  0  0
  190.4130  173.3850  135.3840 C   0  0  0  0  0  1  0  0  0  0  0  0
  1 32  1  6  0  0  0
  1 23  1  0  0  0  0
  3 27  1  6  0  0  0
  3 16  1  0  0  0  0
  4  5  1  1  0  0  0
  7 13  2  0  0  0  0
  7 25  1  0  0  0  0
  9 29  1  1  0  0  0
  9  7  1  0  0  0  0
 10 22  1  0  0  0  0
 11 27  1  0  0  0  0
 12  2  1  6  0  0  0
 12 26  1  0  0  0  0
 14  8  1  6  0  0  0
 14 28  1  0  0  0  0
 14  3  1  0  0  0  0
 15  4  1  0  0  0  0
 16 19  1  0  0  0  0
 16  2  1  1  0  0  0
 17  6  1  6  0  0  0
 17  4  1  0  0  0  0
 17 26  1  0  0  0  0
 18 22  1  0  0  0  0
 18 24  1  0  0  0  0
 19  6  1  6  0  0  0
 19 12  1  0  0  0  0
 20 18  2  0  0  0  0
 21  8  2  0  0  0  0
 21 11  1  0  0  0  0
 22 29  2  0  0  0  0
 23 10  1  6  0  0  0
 23 16  1  0  0  0  0
 24  9  1  0  0  0  0
 25 15  1  0  0  0  0
 28  1  1  0  0  0  0
 28 34  1  1  0  0  0
 30 31  3  0  0  0  0
 31 21  1  0  0  0  0
 32 33  1  0  0  0  0
 35 34  1  0  0  0  0
 36 35  1  0  0  0  0
 37 24  1  0  0  0  0
 39 38  1  0  0  0  0
 40 39  2  0  0  0  0
 41 37  1  1  0  0  0
 41 38  1  0  0  0  0
 42 44  1  1  0  0  0
 42 41  1  0  0  0  0
 43 42  1  0  0  0  0
 43 40  1  0  0  0  0
 45 44  1  0  0  0  0
 46 45  1  0  0  0  0
M  END
>  <MODEL>
1

>  <REMARK>
 VINA RESULT:      -3.4      0.000      0.000
  Name = 
  8 active torsions:
  status: ('A' for Active; 'I' for Inactive)
    1  A    between atoms: C_2  and  C_21
    2  A    between atoms: C_6  and  O_15
    3  A    between atoms: O_15  and  C_43
    4  A    between atoms: C_20  and  C_28
    5  A    between atoms: C_28  and  N_36
    6  A    between atoms: C_29  and  O_45
    7  A    between atoms: C_33  and  C_38
    8  A    between atoms: C_40  and  O_45
                            x       y       z     vdW  Elec       q    Type
                         _______ _______ _______ _____ _____    ______ ____

>  <TORSDO>
F 8

$$$$
=
 OpenBabel11062416303D

 46 52  0  0  1  0  0  0  0  0999 V2000
  181.1650  180.9140  138.4520 C   0  0  2  0  0  3  0  0  0  0  0  0
  178.9760  179.2930  139.6910 C   0  0  0  0  0  2  0  0  0  0  0  0
  180.1860  178.0890  137.8610 C   0  0  2  0  0  3  0  0  0  0  0  0
  180.7360  179.1700  143.6400 C   0  0  1  0  0  3  0  0  0  0  0  0
  179.6720  179.6720  144.6000 C   0  0  0  0  0  1  0  0  0  0  0  0
  181.0740  177.9050  141.4980 C   0  0  0  0  0  2  0  0  0  0  0  0
  183.9020  179.4000  143.4920 C   0  0  0  0  0  0  0  0  0  0  0  0
  181.8240  178.7510  135.9900 C   0  0  0  0  0  3  0  0  0  0  0  0
  184.7630  179.4210  142.2710 C   0  0  1  0  0  3  0  0  0  0  0  0
  182.8320  179.0890  139.0370 C   0  0  0  0  0  2  0  0  0  0  0  0
  181.2810  176.3880  136.3090 C   0  0  0  0  0  2  0  0  0  0  0  0
  178.9310  178.1930  140.7310 C   0  0  1  0  0  3  0  0  0  0  0  0
  183.9270  180.3750  144.2890 O   0  0  0  0  0  0  0  0  0  0  0  0
  180.5520  179.0920  136.7140 C   0  0  2  0  0  3  0  0  0  0  0  0
  181.8250  178.4850  144.4600 C   0  0  0  0  0  2  0  0  0  0  0  0
  180.3110  178.6890  139.2830 C   0  0  2  0  0  0  0  0  0  0  0  0
  180.1220  178.2040  142.6190 C   0  0  2  0  0  3  0  0  0  0  0  0
  184.4400  177.8070  140.6480 C   0  0  0  0  0  0  0  0  0  0  0  0
  180.2350  177.6520  140.3390 N   0  0  1  0  0  0  0  0  0  0  0  0
  184.5260  176.7320  139.9970 O   0  0  0  0  0  0  0  0  0  0  0  0
  182.1540  177.4790  135.7750 C   0  0  0  0  0  0  0  0  0  0  0  0
  183.6940  178.9720  140.2480 C   0  0  0  0  0  0  0  0  0  0  0  0
  181.4720  179.7180  139.3740 C   0  0  2  0  0  3  0  0  0  0  0  0
  185.1040  178.0530  141.8720 N   0  0  0  0  0  0  0  0  0  0  0  0
  183.0070  178.3440  143.6850 O   0  0  0  0  0  0  0  0  0  0  0  0
  178.9890  178.7590  142.0200 O   0  0  0  0  0  0  0  0  0  0  0  0
  180.8980  176.7220  137.7480 C   0  0  0  0  0  2  0  0  0  0  0  0
  180.5240  180.5810  137.0910 C   0  0  1  0  0  3  0  0  0  0  0  0
  183.9160  179.9370  141.1330 C   0  0  0  0  0  3  0  0  0  0  0  0
  184.3880  176.8960  134.5950 N   0  0  0  0  0  0  0  0  0  0  0  0
  183.3900  177.1570  135.1210 C   0  0  0  0  0  0  0  0  0  0  0  0
  182.2630  181.9720  138.3630 C   0  0  0  0  0  2  0  0  0  0  0  0
  181.7180  183.2380  138.1390 O   0  0  0  0  0  1  0  0  0  0  0  0
  179.2090  181.0500  137.0640 O   0  0  0  0  0  0  0  0  0  0  0  0
  179.2490  182.1780  136.2430 C   0  0  0  0  0  2  0  0  0  0  0  0
  180.2740  181.9700  135.1460 C   0  0  0  0  0  1  0  0  0  0  0  0
  186.3120  177.3450  142.2790 C   0  0  0  0  0  2  0  0  0  0  0  0
  186.0520  177.2410  144.7590 C   0  0  0  0  0  2  0  0  0  0  0  0
  186.6590  177.5600  146.1010 C   0  0  0  0  0  3  0  0  0  0  0  0
  187.9290  177.9700  146.2440 C   0  0  0  0  0  3  0  0  0  0  0  0
  186.8350  177.8730  143.6080 C   0  0  1  0  0  3  0  0  0  0  0  0
  188.3370  177.6050  143.7710 C   0  0  1  0  0  3  0  0  0  0  0  0
  188.8320  178.2500  145.0680 C   0  0  0  0  0  2  0  0  0  0  0  0
  188.6090  176.2310  143.7820 O   0  0  0  0  0  0  0  0  0  0  0  0
  189.8840  176.1140  143.2290 C   0  0  0  0  0  2  0  0  0  0  0  0
  189.8610  176.6060  141.7970 C   0  0  0  0  0  1  0  0  0  0  0  0
  1 32  1  6  0  0  0
  1 23  1  0  0  0  0
  3 27  1  1  0  0  0
  3 16  1  0  0  0  0
  4 15  1  0  0  0  0
  4  5  1  1  0  0  0
  7 25  1  0  0  0  0
  7 13  2  0  0  0  0
  9 29  1  6  0  0  0
  9  7  1  0  0  0  0
 10 22  1  0  0  0  0
 11 27  1  0  0  0  0
 12  2  1  6  0  0  0
 12 26  1  0  0  0  0
 14  8  1  1  0  0  0
 14 28  1  0  0  0  0
 14  3  1  0  0  0  0
 16 23  1  0  0  0  0
 16  2  1  1  0  0  0
 16 19  1  0  0  0  0
 17  6  1  6  0  0  0
 17  4  1  0  0  0  0
 18 24  1  0  0  0  0
 19 12  1  0  0  0  0
 19  6  1  1  0  0  0
 20 18  2  0  0  0  0
 21  8  2  0  0  0  0
 21 11  1  0  0  0  0
 22 18  1  0  0  0  0
 22 29  2  0  0  0  0
 23 10  1  6  0  0  0
 24  9  1  0  0  0  0
 24 37  1  0  0  0  0
 25 15  1  0  0  0  0
 26 17  1  0  0  0  0
 28 34  1  1  0  0  0
 28  1  1  0  0  0  0
 30 31  3  0  0  0  0
 31 21  1  0  0  0  0
 33 32  1  0  0  0  0
 35 34  1  0  0  0  0
 36 35  1  0  0  0  0
 38 39  1  0  0  0  0
 39 40  2  0  0  0  0
 41 37  1  6  0  0  0
 41 42  1  0  0  0  0
 41 38  1  0  0  0  0
 42 44  1  1  0  0  0
 42 43  1  0  0  0  0
 43 40  1  0  0  0  0
 45 44  1  0  0  0  0
 46 45  1  0  0  0  0
M  END
>  <MODEL>
2

>  <REMARK>
 VINA RESULT:      -2.8      2.947      4.362
  Name = 
  8 active torsions:
  status: ('A' for Active; 'I' for Inactive)
    1  A    between atoms: C_2  and  C_21
    2  A    between atoms: C_6  and  O_15
    3  A    between atoms: O_15  and  C_43
    4  A    between atoms: C_20  and  C_28
    5  A    between atoms: C_28  and  N_36
    6  A    between atoms: C_29  and  O_45
    7  A    between atoms: C_33  and  C_38
    8  A    between atoms: C_40  and  O_45
                            x       y       z     vdW  Elec       q    Type
                         _______ _______ _______ _____ _____    ______ ____

>  <TORSDO>
F 8

$$$$
=
 OpenBabel11062416303D

 46 52  0  0  1  0  0  0  0  0999 V2000
  182.2000  180.3880  139.2330 C   0  0  2  0  0  3  0  0  0  0  0  0
  182.9640  179.2530  141.8950 C   0  0  0  0  0  2  0  0  0  0  0  0
  181.3690  177.8050  140.6220 C   0  0  2  0  0  3  0  0  0  0  0  0
  187.1700  178.8430  140.9780 C   0  0  1  0  0  3  0  0  0  0  0  0
  187.9230  179.5620  142.0840 C   0  0  0  0  0  1  0  0  0  0  0  0
  185.1020  177.5030  140.4960 C   0  0  0  0  0  2  0  0  0  0  0  0
  187.6300  178.4360  137.8600 C   0  0  0  0  0  0  0  0  0  0  0  0
  179.8580  178.0990  138.5600 C   0  0  0  0  0  3  0  0  0  0  0  0
  186.5950  178.2670  136.7950 C   0  0  1  0  0  3  0  0  0  0  0  0
  183.0470  178.2760  138.1030 C   0  0  0  0  0  2  0  0  0  0  0  0
  180.0130  175.8960  139.6110 C   0  0  0  0  0  2  0  0  0  0  0  0
  183.9500  178.2010  142.3540 C   0  0  1  0  0  3  0  0  0  0  0  0
  188.4400  179.4000  137.7940 O   0  0  0  0  0  0  0  0  0  0  0  0
  180.3350  178.6970  139.8530 C   0  0  2  0  0  3  0  0  0  0  0  0
  188.1660  177.9680  140.2220 C   0  0  0  0  0  2  0  0  0  0  0  0
  182.8020  178.3900  140.6530 C   0  0  2  0  0  0  0  0  0  0  0  0
  186.0300  178.0030  141.5660 C   0  0  2  0  0  3  0  0  0  0  0  0
  184.9030  176.7250  137.1170 C   0  0  0  0  0  0  0  0  0  0  0  0
  183.8000  177.4040  141.1330 N   0  0  1  0  0  0  0  0  0  0  0  0
  184.2560  175.6450  137.1240 O   0  0  0  0  0  0  0  0  0  0  0  0
  179.6790  176.7840  138.4540 C   0  0  0  0  0  0  0  0  0  0  0  0
  184.3970  178.0090  137.5280 C   0  0  0  0  0  0  0  0  0  0  0  0
  183.1350  179.1680  139.3500 C   0  0  2  0  0  3  0  0  0  0  0  0
  186.2370  176.8520  136.6620 N   0  0  0  0  0  0  0  0  0  0  0  0
  187.6260  177.5820  138.9660 O   0  0  0  0  0  0  0  0  0  0  0  0
  185.2400  178.7630  142.4310 O   0  0  0  0  0  0  0  0  0  0  0  0
  181.3610  176.3220  140.1870 C   0  0  0  0  0  2  0  0  0  0  0  0
  180.7340  180.1680  139.6570 C   0  0  1  0  0  3  0  0  0  0  0  0
  185.3300  178.9230  137.2910 C   0  0  0  0  0  3  0  0  0  0  0  0
  178.9310  175.7510  136.1960 N   0  0  0  0  0  0  0  0  0  0  0  0
  179.2640  176.2120  137.2050 C   0  0  0  0  0  0  0  0  0  0  0  0
  182.3440  181.2040  137.9510 C   0  0  0  0  0  2  0  0  0  0  0  0
  181.0940  181.5930  137.4650 O   0  0  0  0  0  1  0  0  0  0  0  0
  180.4700  180.8880  140.8230 O   0  0  0  0  0  0  0  0  0  0  0  0
  179.2970  180.3280  141.3320 C   0  0  0  0  0  2  0  0  0  0  0  0
  179.2820  180.4710  142.8400 C   0  0  0  0  0  1  0  0  0  0  0  0
  186.8490  175.9250  135.7190 C   0  0  0  0  0  2  0  0  0  0  0  0
  186.4410  173.4640  135.6390 C   0  0  0  0  0  2  0  0  0  0  0  0
  186.8730  172.1020  136.1180 C   0  0  0  0  0  3  0  0  0  0  0  0
  188.0210  171.8980  136.7840 C   0  0  0  0  0  3  0  0  0  0  0  0
  187.1580  174.5910  136.3830 C   0  0  1  0  0  3  0  0  0  0  0  0
  188.6680  174.3210  136.4350 C   0  0  1  0  0  3  0  0  0  0  0  0
  188.9280  173.0270  137.2080 C   0  0  0  0  0  2  0  0  0  0  0  0
  189.2110  174.2320  135.1470 O   0  0  0  0  0  0  0  0  0  0  0  0
  190.5420  174.6260  135.2930 C   0  0  0  0  0  2  0  0  0  0  0  0
  190.5940  176.0380  135.8370 C   0  0  0  0  0  1  0  0  0  0  0  0
  1 32  1  6  0  0  0
  1 23  1  0  0  0  0
  1 28  1  0  0  0  0
  3 27  1  6  0  0  0
  3 16  1  0  0  0  0
  4 17  1  0  0  0  0
  4  5  1  1  0  0  0
  7 25  1  0  0  0  0
  9 29  1  1  0  0  0
  9  7  1  0  0  0  0
 11 27  1  0  0  0  0
 12  2  1  6  0  0  0
 12 26  1  0  0  0  0
 13  7  2  0  0  0  0
 14  8  1  6  0  0  0
 14  3  1  0  0  0  0
 15  4  1  0  0  0  0
 16 19  1  0  0  0  0
 16  2  1  1  0  0  0
 17  6  1  6  0  0  0
 17 26  1  0  0  0  0
 18 20  2  0  0  0  0
 18 22  1  0  0  0  0
 19  6  1  6  0  0  0
 19 12  1  0  0  0  0
 21  8  2  0  0  0  0
 21 11  1  0  0  0  0
 22 10  1  0  0  0  0
 23 10  1  6  0  0  0
 23 16  1  0  0  0  0
 24  9  1  0  0  0  0
 24 18  1  0  0  0  0
 25 15  1  0  0  0  0
 28 14  1  0  0  0  0
 28 34  1  1  0  0  0
 29 22  2  0  0  0  0
 30 31  3  0  0  0  0
 31 21  1  0  0  0  0
 33 32  1  0  0  0  0
 34 35  1  0  0  0  0
 35 36  1  0  0  0  0
 37 24  1  0  0  0  0
 38 39  1  0  0  0  0
 38 41  1  0  0  0  0
 39 40  2  0  0  0  0
 40 43  1  0  0  0  0
 41 37  1  6  0  0  0
 41 42  1  0  0  0  0
 42 44  1  6  0  0  0
 42 43  1  0  0  0  0
 44 45  1  0  0  0  0
 45 46  1  0  0  0  0
M  END
>  <MODEL>
3

>  <REMARK>
 VINA RESULT:      -2.5      1.784      2.807
  Name = 
  8 active torsions:
  status: ('A' for Active; 'I' for Inactive)
    1  A    between atoms: C_2  and  C_21
    2  A    between atoms: C_6  and  O_15
    3  A    between atoms: O_15  and  C_43
    4  A    between atoms: C_20  and  C_28
    5  A    between atoms: C_28  and  N_36
    6  A    between atoms: C_29  and  O_45
    7  A    between atoms: C_33  and  C_38
    8  A    between atoms: C_40  and  O_45
                            x       y       z     vdW  Elec       q    Type
                         _______ _______ _______ _____ _____    ______ ____

>  <TORSDO>
F 8

$$$$
=
 OpenBabel11062416303D

 46 52  0  0  1  0  0  0  0  0999 V2000
  187.8190  173.6380  136.7300 C   0  0  2  0  0  3  0  0  0  0  0  0
  189.6860  174.7310  134.6620 C   0  0  0  0  0  2  0  0  0  0  0  0
  187.4750  175.9010  134.7170 C   0  0  2  0  0  3  0  0  0  0  0  0
  192.6930  176.0510  137.4770 C   0  0  1  0  0  3  0  0  0  0  0  0
  194.0040  175.4320  137.0270 C   0  0  0  0  0  1  0  0  0  0  0  0
  190.5110  176.9680  136.6390 C   0  0  0  0  0  2  0  0  0  0  0  0
  191.3990  176.7450  140.2960 C   0  0  0  0  0  0  0  0  0  0  0  0
  185.1710  175.4380  135.7650 C   0  0  0  0  0  3  0  0  0  0  0  0
  189.9500  176.7670  140.6580 C   0  0  1  0  0  3  0  0  0  0  0  0
  187.6450  175.9470  137.7750 C   0  0  0  0  0  2  0  0  0  0  0  0
  185.5370  177.5530  134.5940 C   0  0  0  0  0  2  0  0  0  0  0  0
  190.6070  175.9310  134.5940 C   0  0  1  0  0  3  0  0  0  0  0  0
  192.1840  175.9740  140.9110 O   0  0  0  0  0  0  0  0  0  0  0  0
  186.3320  174.8680  134.9990 C   0  0  2  0  0  3  0  0  0  0  0  0
  193.0140  177.1580  138.4770 C   0  0  0  0  0  2  0  0  0  0  0  0
  188.7810  175.6210  135.5000 C   0  0  2  0  0  0  0  0  0  0  0  0
  191.9190  176.6010  136.2720 C   0  0  2  0  0  3  0  0  0  0  0  0
  188.4740  177.9060  139.2910 C   0  0  0  0  0  0  0  0  0  0  0  0
  189.7320  176.7570  135.4310 N   0  0  1  0  0  0  0  0  0  0  0  0
  187.7790  178.8280  138.7880 O   0  0  0  0  0  0  0  0  0  0  0  0
  184.7800  176.6930  135.5550 C   0  0  0  0  0  0  0  0  0  0  0  0
  188.4440  176.5210  138.8960 C   0  0  0  0  0  0  0  0  0  0  0  0
  188.4940  175.0140  136.9010 C   0  0  2  0  0  3  0  0  0  0  0  0
  189.3780  178.0840  140.3640 N   0  0  0  0  0  0  0  0  0  0  0  0
  191.8500  177.5060  139.2140 O   0  0  0  0  0  0  0  0  0  0  0  0
  191.8120  175.6400  135.2630 O   0  0  0  0  0  0  0  0  0  0  0  0
  187.0320  177.3760  134.8450 C   0  0  0  0  0  2  0  0  0  0  0  0
  186.7740  173.5260  135.6020 C   0  0  1  0  0  3  0  0  0  0  0  0
  189.2360  175.8350  139.7100 C   0  0  0  0  0  3  0  0  0  0  0  0
  182.8280  177.6950  136.9360 N   0  0  0  0  0  0  0  0  0  0  0  0
  183.6990  177.2470  136.3190 C   0  0  0  0  0  0  0  0  0  0  0  0
  187.3890  172.9530  138.0250 C   0  0  0  0  0  2  0  0  0  0  0  0
  186.0080  172.7450  138.0430 O   0  0  0  0  0  1  0  0  0  0  0  0
  187.2610  172.6920  134.5940 O   0  0  0  0  0  0  0  0  0  0  0  0
  186.5380  171.5060  134.7300 C   0  0  0  0  0  2  0  0  0  0  0  0
  187.4930  170.3300  134.7340 C   0  0  0  0  0  1  0  0  0  0  0  0
  189.2710  179.1760  141.3240 C   0  0  0  0  0  2  0  0  0  0  0  0
  187.5960  177.5550  142.2180 C   0  0  0  0  0  2  0  0  0  0  0  0
  186.9630  176.9500  143.4450 C   0  0  0  0  0  3  0  0  0  0  0  0
  187.4470  177.1450  144.6820 C   0  0  0  0  0  3  0  0  0  0  0  0
  188.4940  178.7440  142.5610 C   0  0  1  0  0  3  0  0  0  0  0  0
  189.4330  178.3890  143.7220 C   0  0  1  0  0  3  0  0  0  0  0  0
  188.6040  178.0700  144.9680 C   0  0  0  0  0  2  0  0  0  0  0  0
  190.2530  177.3010  143.3970 O   0  0  0  0  0  0  0  0  0  0  0  0
  191.4080  177.4840  144.1580 C   0  0  0  0  0  2  0  0  0  0  0  0
  191.8360  178.9350  144.0850 C   0  0  0  0  0  1  0  0  0  0  0  0
  1 23  1  0  0  0  0
  1 32  1  1  0  0  0
  3 27  1  1  0  0  0
  3 14  1  0  0  0  0
  3 16  1  0  0  0  0
  4  5  1  6  0  0  0
  4 15  1  0  0  0  0
  7  9  1  0  0  0  0
  7 13  2  0  0  0  0
  9 29  1  6  0  0  0
 10 22  1  0  0  0  0
 11 27  1  0  0  0  0
 11 21  1  0  0  0  0
 12  2  1  1  0  0  0
 12 26  1  0  0  0  0
 12 19  1  0  0  0  0
 14 28  1  0  0  0  0
 14  8  1  1  0  0  0
 15 25  1  0  0  0  0
 16  2  1  6  0  0  0
 16 23  1  0  0  0  0
 17  6  1  1  0  0  0
 17  4  1  0  0  0  0
 18 24  1  0  0  0  0
 19 16  1  0  0  0  0
 19  6  1  1  0  0  0
 20 18  2  0  0  0  0
 21  8  2  0  0  0  0
 21 31  1  0  0  0  0
 22 18  1  0  0  0  0
 22 29  2  0  0  0  0
 23 10  1  1  0  0  0
 24  9  1  0  0  0  0
 24 37  1  0  0  0  0
 25  7  1  0  0  0  0
 26 17  1  0  0  0  0
 28 34  1  6  0  0  0
 28  1  1  0  0  0  0
 31 30  3  0  0  0  0
 32 33  1  0  0  0  0
 34 35  1  0  0  0  0
 35 36  1  0  0  0  0
 38 41  1  0  0  0  0
 38 39  1  0  0  0  0
 39 40  2  0  0  0  0
 40 43  1  0  0  0  0
 41 37  1  6  0  0  0
 41 42  1  0  0  0  0
 42 44  1  6  0  0  0
 42 43  1  0  0  0  0
 44 45  1  0  0  0  0
 46 45  1  0  0  0  0
M  END
>  <MODEL>
4

>  <REMARK>
 VINA RESULT:      -1.4      4.369      8.783
  Name = 
  8 active torsions:
  status: ('A' for Active; 'I' for Inactive)
    1  A    between atoms: C_2  and  C_21
    2  A    between atoms: C_6  and  O_15
    3  A    between atoms: O_15  and  C_43
    4  A    between atoms: C_20  and  C_28
    5  A    between atoms: C_28  and  N_36
    6  A    between atoms: C_29  and  O_45
    7  A    between atoms: C_33  and  C_38
    8  A    between atoms: C_40  and  O_45
                            x       y       z     vdW  Elec       q    Type
                         _______ _______ _______ _____ _____    ______ ____

>  <TORSDO>
F 8

$$$$
=
 OpenBabel11062416303D

 46 52  0  0  1  0  0  0  0  0999 V2000
  181.6350  175.9660  135.6440 C   0  0  2  0  0  3  0  0  0  0  0  0
  180.3490  175.0290  138.1790 C   0  0  0  0  0  2  0  0  0  0  0  0
  182.0960  173.4590  137.3170 C   0  0  2  0  0  3  0  0  0  0  0  0
  181.6990  178.3620  140.5830 C   0  0  1  0  0  3  0  0  0  0  0  0
  180.4610  178.9480  141.2380 C   0  0  0  0  0  1  0  0  0  0  0  0
  182.7220  176.2140  139.7790 C   0  0  0  0  0  2  0  0  0  0  0  0
  184.4140  179.5670  139.4520 C   0  0  0  0  0  0  0  0  0  0  0  0
  183.3740  173.1620  135.1030 C   0  0  0  0  0  3  0  0  0  0  0  0
  185.2500  179.0450  138.3290 C   0  0  1  0  0  3  0  0  0  0  0  0
  183.9080  175.8700  136.7760 C   0  0  0  0  0  2  0  0  0  0  0  0
  183.9490  171.7360  137.0040 C   0  0  0  0  0  2  0  0  0  0  0  0
  180.7410  175.0650  139.6420 C   0  0  1  0  0  3  0  0  0  0  0  0
  183.9360  180.7320  139.3840 O   0  0  0  0  0  0  0  0  0  0  0  0
  182.0410  173.4080  135.7510 C   0  0  2  0  0  3  0  0  0  0  0  0
  182.9230  178.9170  141.3070 C   0  0  0  0  0  2  0  0  0  0  0  0
  181.8370  174.8670  137.9070 C   0  0  2  0  0  0  0  0  0  0  0  0
  181.6650  176.8300  140.6500 C   0  0  2  0  0  3  0  0  0  0  0  0
  185.8100  176.8020  138.3030 C   0  0  0  0  0  0  0  0  0  0  0  0
  182.1720  174.9400  139.3500 N   0  0  1  0  0  0  0  0  0  0  0  0
  186.4210  175.7200  138.5090 O   0  0  0  0  0  0  0  0  0  0  0  0
  184.2620  172.3530  135.6780 C   0  0  0  0  0  0  0  0  0  0  0  0
  184.6440  176.9630  137.4750 C   0  0  0  0  0  0  0  0  0  0  0  0
  182.3920  175.9890  136.9880 C   0  0  2  0  0  3  0  0  0  0  0  0
  186.2050  178.0530  138.8330 N   0  0  0  0  0  0  0  0  0  0  0  0
  184.0880  178.7240  140.5180 O   0  0  0  0  0  0  0  0  0  0  0  0
  180.4470  176.3340  140.1780 O   0  0  0  0  0  0  0  0  0  0  0  0
  183.3600  172.8050  137.9200 C   0  0  0  0  0  2  0  0  0  0  0  0
  181.3100  174.5740  135.0670 C   0  0  1  0  0  3  0  0  0  0  0  0
  184.3410  178.2540  137.4220 C   0  0  0  0  0  3  0  0  0  0  0  0
  186.5900  171.9960  134.5940 N   0  0  0  0  0  0  0  0  0  0  0  0
  185.5500  172.1560  135.0770 C   0  0  0  0  0  0  0  0  0  0  0  0
  182.1330  176.9560  134.5940 C   0  0  0  0  0  2  0  0  0  0  0  0
  181.8590  178.2700  134.9800 O   0  0  0  0  0  1  0  0  0  0  0  0
  179.9320  174.3580  135.1100 O   0  0  0  0  0  0  0  0  0  0  0  0
  179.7890  173.0520  135.5830 C   0  0  0  0  0  2  0  0  0  0  0  0
  178.9320  172.2570  134.6200 C   0  0  0  0  0  1  0  0  0  0  0  0
  187.5720  178.3490  139.2440 C   0  0  0  0  0  2  0  0  0  0  0  0
  186.5320  177.7650  141.4360 C   0  0  0  0  0  2  0  0  0  0  0  0
  186.6900  177.7350  142.9350 C   0  0  0  0  0  3  0  0  0  0  0  0
  187.8630  177.9710  143.5450 C   0  0  0  0  0  3  0  0  0  0  0  0
  187.6620  178.5340  140.7520 C   0  0  1  0  0  3  0  0  0  0  0  0
  189.0240  178.0810  141.2970 C   0  0  1  0  0  3  0  0  0  0  0  0
  189.1020  178.3900  142.7940 C   0  0  0  0  0  2  0  0  0  0  0  0
  189.2280  176.7140  141.0750 O   0  0  0  0  0  0  0  0  0  0  0  0
  190.5440  176.6190  140.6180 C   0  0  0  0  0  2  0  0  0  0  0  0
  190.5560  176.6490  139.1040 C   0  0  0  0  0  1  0  0  0  0  0  0
  1 32  1  6  0  0  0
  1 23  1  0  0  0  0
  3 16  1  0  0  0  0
  3 27  1  6  0  0  0
  4 17  1  0  0  0  0
  4  5  1  1  0  0  0
  4 15  1  0  0  0  0
  7 25  1  0  0  0  0
  8 21  2  0  0  0  0
  9 29  1  6  0  0  0
  9 24  1  0  0  0  0
  9  7  1  0  0  0  0
 10 22  1  0  0  0  0
 11 27  1  0  0  0  0
 12  2  1  6  0  0  0
 12 26  1  0  0  0  0
 13  7  2  0  0  0  0
 14  8  1  6  0  0  0
 14  3  1  0  0  0  0
 16  2  1  6  0  0  0
 16 19  1  0  0  0  0
 17  6  1  6  0  0  0
 18 20  2  0  0  0  0
 18 24  1  0  0  0  0
 19 12  1  0  0  0  0
 19  6  1  6  0  0  0
 21 11  1  0  0  0  0
 22 18  1  0  0  0  0
 23 10  1  6  0  0  0
 23 16  1  0  0  0  0
 24 37  1  0  0  0  0
 25 15  1  0  0  0  0
 26 17  1  0  0  0  0
 28 34  1  1  0  0  0
 28  1  1  0  0  0  0
 28 14  1  0  0  0  0
 29 22  2  0  0  0  0
 30 31  3  0  0  0  0
 31 21  1  0  0  0  0
 32 33  1  0  0  0  0
 34 35  1  0  0  0  0
 36 35  1  0  0  0  0
 38 39  1  0  0  0  0
 39 40  2  0  0  0  0
 41 37  1  6  0  0  0
 41 42  1  0  0  0  0
 41 38  1  0  0  0  0
 42 44  1  1  0  0  0
 42 43  1  0  0  0  0
 43 40  1  0  0  0  0
 45 44  1  0  0  0  0
 46 45  1  0  0  0  0
M  END
>  <MODEL>
5

>  <REMARK>
 VINA RESULT:      -1.2      3.140      5.531
  Name = 
  8 active torsions:
  status: ('A' for Active; 'I' for Inactive)
    1  A    between atoms: C_2  and  C_21
    2  A    between atoms: C_6  and  O_15
    3  A    between atoms: O_15  and  C_43
    4  A    between atoms: C_20  and  C_28
    5  A    between atoms: C_28  and  N_36
    6  A    between atoms: C_29  and  O_45
    7  A    between atoms: C_33  and  C_38
    8  A    between atoms: C_40  and  O_45
                            x       y       z     vdW  Elec       q    Type
                         _______ _______ _______ _____ _____    ______ ____

>  <TORSDO>
F 8

$$$$
