=
 OpenBabel11062412293D

 33 38  0  0  1  0  0  0  0  0999 V2000
  189.5150  176.3930  135.7020 N   0  0  0  0  0  0  0  0  0  0  0  0
  187.3370  177.4220  137.1570 C   0  0  2  0  0  3  0  0  0  0  0  0
  184.5030  178.8080  140.2060 C   0  0  0  0  0  0  0  0  0  0  0  0
  183.7190  178.3980  141.3750 N   0  0  0  0  0  0  0  0  0  0  0  0
  188.3470  178.5130  139.5630 C   0  0  2  0  0  3  0  0  0  0  0  0
  187.6580  175.9210  137.1890 C   0  0  1  0  0  3  0  0  0  0  0  0
  182.7020  177.6460  138.9070 N   0  0  0  0  0  2  0  0  0  0  0  0
  184.9490  177.6320  138.0720 C   0  0  0  0  0  3  0  0  0  0  0  0
  188.6440  178.2660  137.1140 C   0  0  2  0  0  3  0  0  0  0  0  0
  190.9300  177.1560  137.5140 C   0  0  0  0  0  1  0  0  0  0  0  0
  186.4090  175.0640  137.0890 C   0  0  0  0  0  1  0  0  0  0  0  0
  181.9760  177.6130  139.9560 N   0  0  0  0  0  0  0  0  0  0  0  0
  186.8620  178.3650  139.3970 C   0  0  0  0  0  0  0  0  0  0  0  0
  182.5230  177.9000  141.2570 C   0  0  0  0  0  3  0  0  0  0  0  0
  189.8780  177.5550  136.4900 C   0  0  1  0  0  3  0  0  0  0  0  0
  188.9780  179.0250  138.3380 N   0  0  0  0  0  2  0  0  0  0  0  0
  184.0780  178.0170  138.9990 C   0  0  0  0  0  0  0  0  0  0  0  0
  186.3900  177.8620  138.2450 C   0  0  0  0  0  0  0  0  0  0  0  0
  188.5310  175.6190  136.0110 C   0  0  0  0  0  3  0  0  0  0  0  0
  185.9570  178.7530  140.4570 N   0  0  0  0  0  0  0  0  0  0  0  0
  189.4620  176.2790  140.3810 N   0  0  0  0  0  0  0  0  0  0  0  0
  188.9690  177.2620  140.0220 C   0  0  0  0  0  0  0  0  0  0  0  0
  186.5290  179.1900  141.7370 C   0  0  0  0  0  2  0  0  0  0  0  0
  186.0230  177.9990  143.9230 C   0  0  2  0  0  3  0  0  0  0  0  0
  185.2590  179.0510  144.6160 C   0  0  0  0  0  0  0  0  0  0  0  0
  185.5400  179.2760  145.9050 C   0  0  0  0  0  3  0  0  0  0  0  0
  186.6480  176.8950  144.7120 C   0  0  2  0  0  3  0  0  0  0  0  0
  186.6350  178.0860  142.7490 C   0  0  2  0  0  3  0  0  0  0  0  0
  187.1610  177.4240  146.0280 C   0  0  0  0  0  3  0  0  0  0  0  0
  187.7280  176.4360  143.8500 N   0  0  0  0  0  0  0  0  0  0  0  0
  187.7010  177.0960  142.7380 C   0  0  0  0  0  3  0  0  0  0  0  0
  183.9690  179.9450  143.8400 Cl  0  0  0  0  0  0  0  0  0  0  0  0
  186.6040  178.5040  146.5980 C   0  0  0  0  0  3  0  0  0  0  0  0
  1 19  2  0  0  0  0
  1 15  1  0  0  0  0
  2  6  1  0  0  0  0
  2 18  1  1  0  0  0
  3 20  1  0  0  0  0
  3  4  2  0  0  0  0
  5 22  1  6  0  0  0
  6 11  1  6  0  0  0
  7 17  1  0  0  0  0
  7 12  1  0  0  0  0
  8 18  1  0  0  0  0
  8 17  2  0  0  0  0
  9  2  1  0  0  0  0
  9 16  1  1  0  0  0
 12 14  2  0  0  0  0
 13  5  1  0  0  0  0
 13 20  1  0  0  0  0
 14  4  1  0  0  0  0
 15  9  1  0  0  0  0
 15 10  1  1  0  0  0
 16  5  1  0  0  0  0
 17  3  1  0  0  0  0
 18 13  2  0  0  0  0
 19  6  1  0  0  0  0
 20 23  1  0  0  0  0
 22 21  3  0  0  0  0
 24 25  1  1  0  0  0
 24 27  1  0  0  0  0
 25 26  2  0  0  0  0
 26 33  1  0  0  0  0
 27 29  1  1  0  0  0
 28 23  1  1  0  0  0
 28 24  1  0  0  0  0
 29 33  2  0  0  0  0
 30 27  1  0  0  0  0
 31 28  1  0  0  0  0
 31 30  2  0  0  0  0
 32 25  1  0  0  0  0
M  END
>  <MODEL>
1

>  <REMARK>
 VINA RESULT:      -8.0      0.000      0.000
  Name = 
  3 active torsions:
  status: ('A' for Active; 'I' for Inactive)
    1  A    between atoms: C_7  and  C_12
    2  A    between atoms: C_21  and  C_25
    3  A    between atoms: C_25  and  N_30
                            x       y       z     vdW  Elec       q    Type
                         _______ _______ _______ _____ _____    ______ ____

>  <TORSDO>
F 3

$$$$
=
 OpenBabel11062412293D

 33 38  0  0  1  0  0  0  0  0999 V2000
  189.7280  176.7270  147.1810 N   0  0  0  0  0  0  0  0  0  0  0  0
  188.2260  176.9710  144.8140 C   0  0  2  0  0  3  0  0  0  0  0  0
  186.5640  178.0250  140.8940 C   0  0  2  0  0  3  0  0  0  0  0  0
  186.0270  179.1240  140.0860 N   0  0  0  0  0  0  0  0  0  0  0  0
  189.9940  177.7480  142.7480 C   0  0  2  0  0  3  0  0  0  0  0  0
  188.2390  178.1040  145.8510 C   0  0  1  0  0  3  0  0  0  0  0  0
  184.3050  178.0540  141.9770 N   0  0  0  0  0  0  0  0  0  0  0  0
  186.2270  177.4670  143.2830 C   0  0  0  0  0  3  0  0  0  0  0  0
  189.6230  176.2920  144.7200 C   0  0  2  0  0  3  0  0  0  0  0  0
  191.6690  177.3460  145.8690 C   0  0  0  0  0  1  0  0  0  0  0  0
  186.8600  178.6970  146.0730 C   0  0  0  0  0  1  0  0  0  0  0  0
  183.8680  178.7910  141.0310 N   0  0  0  0  0  0  0  0  0  0  0  0
  188.5140  177.7730  142.4900 C   0  0  0  0  0  0  0  0  0  0  0  0
  184.7640  179.4370  140.1080 C   0  0  0  0  0  3  0  0  0  0  0  0
  190.4980  176.3830  146.0010 C   0  0  1  0  0  3  0  0  0  0  0  0
  190.3920  176.5380  143.4820 N   0  0  0  0  0  2  0  0  0  0  0  0
  185.7060  177.8150  142.1120 C   0  0  0  0  0  0  0  0  0  0  0  0
  187.6830  177.3870  143.4700 C   0  0  0  0  0  0  0  0  0  0  0  0
  188.7170  177.5270  147.1470 C   0  0  0  0  0  3  0  0  0  0  0  0
  187.9940  178.2080  141.2110 N   0  0  0  0  0  0  0  0  0  0  0  0
  190.8090  179.9390  143.9470 N   0  0  0  0  0  0  0  0  0  0  0  0
  190.4470  178.9750  143.4200 C   0  0  0  0  0  0  0  0  0  0  0  0
  188.9390  178.7270  140.2150 C   0  0  0  0  0  2  0  0  0  0  0  0
  189.1960  177.3220  138.1140 C   0  0  2  0  0  3  0  0  0  0  0  0
  188.0100  177.7680  137.3610 C   0  0  0  0  0  0  0  0  0  0  0  0
  187.2740  176.8320  136.7510 C   0  0  0  0  0  3  0  0  0  0  0  0
  189.8500  176.0240  137.7650 C   0  0  2  0  0  3  0  0  0  0  0  0
  189.5410  177.6570  139.3510 C   0  0  2  0  0  3  0  0  0  0  0  0
  188.8090  175.0070  137.3730 C   0  0  0  0  0  3  0  0  0  0  0  0
  190.5380  175.6550  138.9940 N   0  0  0  0  0  0  0  0  0  0  0  0
  190.3780  176.5880  139.8750 C   0  0  0  0  0  3  0  0  0  0  0  0
  187.5900  179.4580  137.1820 Cl  0  0  0  0  0  0  0  0  0  0  0  0
  187.6320  175.3940  136.8550 C   0  0  0  0  0  3  0  0  0  0  0  0
  2 18  1  6  0  0  0
  2  6  1  0  0  0  0
  3  4  1  1  0  0  0
  3 20  1  0  0  0  0
  3 17  1  0  0  0  0
  4 14  2  0  0  0  0
  5 22  1  1  0  0  0
  5 16  1  0  0  0  0
  6 11  1  1  0  0  0
  6 19  1  0  0  0  0
  7 17  1  0  0  0  0
  8 18  1  0  0  0  0
  9 16  1  6  0  0  0
  9  2  1  0  0  0  0
  9 15  1  0  0  0  0
 12  7  2  0  0  0  0
 13  5  1  0  0  0  0
 13 18  2  0  0  0  0
 14 12  1  0  0  0  0
 15 10  1  6  0  0  0
 15  1  1  0  0  0  0
 17  8  2  0  0  0  0
 19  1  2  0  0  0  0
 20 13  1  0  0  0  0
 22 21  3  0  0  0  0
 23 20  1  0  0  0  0
 24 25  1  1  0  0  0
 24 28  1  0  0  0  0
 26 33  1  0  0  0  0
 26 25  2  0  0  0  0
 27 29  1  1  0  0  0
 27 24  1  0  0  0  0
 27 30  1  0  0  0  0
 28 31  1  0  0  0  0
 28 23  1  1  0  0  0
 30 31  2  0  0  0  0
 32 25  1  0  0  0  0
 33 29  2  0  0  0  0
M  END
>  <MODEL>
2

>  <REMARK>
 VINA RESULT:      -7.8      2.444      6.788
  Name = 
  3 active torsions:
  status: ('A' for Active; 'I' for Inactive)
    1  A    between atoms: C_7  and  C_12
    2  A    between atoms: C_21  and  C_25
    3  A    between atoms: C_25  and  N_30
                            x       y       z     vdW  Elec       q    Type
                         _______ _______ _______ _____ _____    ______ ____

>  <TORSDO>
F 3

$$$$
=
 OpenBabel11062412293D

 33 38  0  0  1  0  0  0  0  0999 V2000
  189.7280  176.9410  147.7220 N   0  0  0  0  0  0  0  0  0  0  0  0
  188.1930  177.0870  145.3680 C   0  0  2  0  0  3  0  0  0  0  0  0
  186.5250  177.9060  141.3950 C   0  0  2  0  0  3  0  0  0  0  0  0
  186.0550  178.9660  140.4970 N   0  0  0  0  0  0  0  0  0  0  0  0
  189.9650  177.5280  143.2080 C   0  0  2  0  0  3  0  0  0  0  0  0
  188.3190  178.3040  146.2940 C   0  0  1  0  0  3  0  0  0  0  0  0
  184.3010  178.2140  142.5090 N   0  0  0  0  0  0  0  0  0  0  0  0
  186.2030  177.5980  143.8310 C   0  0  0  0  0  3  0  0  0  0  0  0
  189.5300  176.2920  145.3140 C   0  0  2  0  0  3  0  0  0  0  0  0
  191.6790  177.2800  146.3260 C   0  0  0  0  0  1  0  0  0  0  0  0
  186.9960  179.0240  146.4830 C   0  0  0  0  0  1  0  0  0  0  0  0
  183.9000  178.8950  141.5060 N   0  0  0  0  0  0  0  0  0  0  0  0
  188.4870  177.6470  142.9740 C   0  0  0  0  0  0  0  0  0  0  0  0
  184.8210  179.3790  140.5110 C   0  0  0  0  0  3  0  0  0  0  0  0
  190.4400  176.4300  146.5660 C   0  0  1  0  0  3  0  0  0  0  0  0
  190.2860  176.3620  144.0460 N   0  0  0  0  0  2  0  0  0  0  0  0
  185.6820  177.8780  142.6410 C   0  0  0  0  0  0  0  0  0  0  0  0
  187.6520  177.4190  144.0000 C   0  0  0  0  0  0  0  0  0  0  0  0
  188.7820  177.8130  147.6300 C   0  0  0  0  0  3  0  0  0  0  0  0
  187.9710  178.0030  141.6700 N   0  0  0  0  0  0  0  0  0  0  0  0
  190.9720  179.7510  144.1820 N   0  0  0  0  0  0  0  0  0  0  0  0
  190.5290  178.7710  143.7560 C   0  0  0  0  0  0  0  0  0  0  0  0
  188.9300  178.3520  140.6130 C   0  0  0  0  0  2  0  0  0  0  0  0
  190.1790  176.6240  139.2310 C   0  0  2  0  0  3  0  0  0  0  0  0
  191.5630  176.9190  139.6440 C   0  0  0  0  0  0  0  0  0  0  0  0
  192.4990  176.9660  138.6890 C   0  0  0  0  0  3  0  0  0  0  0  0
  189.9270  175.8840  137.9580 C   0  0  2  0  0  3  0  0  0  0  0  0
  189.0780  177.2840  139.5690 C   0  0  2  0  0  3  0  0  0  0  0  0
  190.9290  176.2970  136.9100 C   0  0  0  0  0  3  0  0  0  0  0  0
  188.5720  176.2800  137.6020 N   0  0  0  0  0  0  0  0  0  0  0  0
  188.0920  177.0500  138.5240 C   0  0  0  0  0  3  0  0  0  0  0  0
  192.0200  177.1280  141.3200 Cl  0  0  0  0  0  0  0  0  0  0  0  0
  192.1420  176.7530  137.2620 C   0  0  0  0  0  3  0  0  0  0  0  0
  2 18  1  6  0  0  0
  2  6  1  0  0  0  0
  3  4  1  6  0  0  0
  3 20  1  0  0  0  0
  3 17  1  0  0  0  0
  4 14  2  0  0  0  0
  5 22  1  1  0  0  0
  5 16  1  0  0  0  0
  6 11  1  1  0  0  0
  6 19  1  0  0  0  0
  7 17  1  0  0  0  0
  8 18  1  0  0  0  0
  9 16  1  6  0  0  0
  9  2  1  0  0  0  0
  9 15  1  0  0  0  0
 12  7  2  0  0  0  0
 13  5  1  0  0  0  0
 13 18  2  0  0  0  0
 14 12  1  0  0  0  0
 15 10  1  6  0  0  0
 15  1  1  0  0  0  0
 17  8  2  0  0  0  0
 19  1  2  0  0  0  0
 20 13  1  0  0  0  0
 22 21  3  0  0  0  0
 23 20  1  0  0  0  0
 24 28  1  0  0  0  0
 24 25  1  6  0  0  0
 25 32  1  0  0  0  0
 26 25  2  0  0  0  0
 27 29  1  6  0  0  0
 27 24  1  0  0  0  0
 28 23  1  6  0  0  0
 29 33  2  0  0  0  0
 30 27  1  0  0  0  0
 30 31  2  0  0  0  0
 31 28  1  0  0  0  0
 33 26  1  0  0  0  0
M  END
>  <MODEL>
3

>  <REMARK>
 VINA RESULT:      -7.5      2.660      7.201
  Name = 
  3 active torsions:
  status: ('A' for Active; 'I' for Inactive)
    1  A    between atoms: C_7  and  C_12
    2  A    between atoms: C_21  and  C_25
    3  A    between atoms: C_25  and  N_30
                            x       y       z     vdW  Elec       q    Type
                         _______ _______ _______ _____ _____    ______ ____

>  <TORSDO>
F 3

$$$$
=
 OpenBabel11062412293D

 33 38  0  0  1  0  0  0  0  0999 V2000
  180.5130  176.5300  136.5650 N   0  0  0  0  0  0  0  0  0  0  0  0
  183.2120  176.7030  137.3450 C   0  0  2  0  0  3  0  0  0  0  0  0
  187.1160  177.7840  139.0280 C   0  0  0  0  0  0  0  0  0  0  0  0
  188.1430  178.8290  139.0760 N   0  0  0  0  0  0  0  0  0  0  0  0
  183.3030  178.0040  139.8540 C   0  0  2  0  0  3  0  0  0  0  0  0
  182.6210  177.7110  136.3500 C   0  0  1  0  0  3  0  0  0  0  0  0
  188.1070  177.2670  136.7850 N   0  0  0  0  0  2  0  0  0  0  0  0
  185.7580  176.9440  137.1340 C   0  0  0  0  0  3  0  0  0  0  0  0
  182.1660  176.3210  138.4320 C   0  0  2  0  0  3  0  0  0  0  0  0
  179.9670  177.6380  138.6500 C   0  0  0  0  0  1  0  0  0  0  0  0
  183.5630  178.0000  135.1950 C   0  0  0  0  0  1  0  0  0  0  0  0
  189.1180  177.9930  137.0710 N   0  0  0  0  0  0  0  0  0  0  0  0
  184.5850  177.7650  139.1100 C   0  0  0  0  0  0  0  0  0  0  0  0
  189.1040  178.8860  138.2000 C   0  0  0  0  0  3  0  0  0  0  0  0
  180.6770  176.4580  138.0040 C   0  0  1  0  0  3  0  0  0  0  0  0
  182.4190  176.8300  139.7960 N   0  0  0  0  0  2  0  0  0  0  0  0
  186.9460  177.2950  137.6150 C   0  0  0  0  0  0  0  0  0  0  0  0
  184.5350  177.1320  137.9280 C   0  0  0  0  0  0  0  0  0  0  0  0
  181.3640  177.1170  135.7940 C   0  0  0  0  0  3  0  0  0  0  0  0
  185.8500  178.2100  139.6540 N   0  0  0  0  0  0  0  0  0  0  0  0
  182.0920  180.1840  139.0270 N   0  0  0  0  0  0  0  0  0  0  0  0
  182.6270  179.2260  139.3920 C   0  0  0  0  0  0  0  0  0  0  0  0
  185.8360  178.9970  140.8940 C   0  0  0  0  0  2  0  0  0  0  0  0
  185.6540  178.0330  143.2380 C   0  0  2  0  0  3  0  0  0  0  0  0
  184.4230  178.7010  143.6950 C   0  0  0  0  0  0  0  0  0  0  0  0
  184.4160  179.2120  144.9310 C   0  0  0  0  0  3  0  0  0  0  0  0
  186.6060  177.4670  144.2410 C   0  0  2  0  0  3  0  0  0  0  0  0
  186.3000  178.2230  142.0940 C   0  0  2  0  0  3  0  0  0  0  0  0
  186.6660  178.3550  145.4590 C   0  0  0  0  0  3  0  0  0  0  0  0
  187.8720  177.4400  143.5240 N   0  0  0  0  0  0  0  0  0  0  0  0
  187.6890  177.8450  142.3100 C   0  0  0  0  0  3  0  0  0  0  0  0
  182.9750  178.7780  142.7140 Cl  0  0  0  0  0  0  0  0  0  0  0  0
  185.6200  179.1250  145.7980 C   0  0  0  0  0  3  0  0  0  0  0  0
  1 15  1  0  0  0  0
  2 18  1  1  0  0  0
  2  9  1  0  0  0  0
  3  4  2  0  0  0  0
  3 20  1  0  0  0  0
  5 22  1  6  0  0  0
  6 11  1  6  0  0  0
  6  2  1  0  0  0  0
  7 12  1  0  0  0  0
  7 17  1  0  0  0  0
  8 17  2  0  0  0  0
  8 18  1  0  0  0  0
  9 16  1  1  0  0  0
 12 14  2  0  0  0  0
 13 20  1  0  0  0  0
 13  5  1  0  0  0  0
 14  4  1  0  0  0  0
 15  9  1  0  0  0  0
 15 10  1  1  0  0  0
 16  5  1  0  0  0  0
 17  3  1  0  0  0  0
 18 13  2  0  0  0  0
 19  6  1  0  0  0  0
 19  1  2  0  0  0  0
 20 23  1  0  0  0  0
 21 22  3  0  0  0  0
 24 25  1  1  0  0  0
 24 27  1  0  0  0  0
 25 26  2  0  0  0  0
 26 33  1  0  0  0  0
 27 29  1  1  0  0  0
 28 23  1  1  0  0  0
 28 31  1  0  0  0  0
 28 24  1  0  0  0  0
 29 33  2  0  0  0  0
 30 27  1  0  0  0  0
 31 30  2  0  0  0  0
 32 25  1  0  0  0  0
M  END
>  <MODEL>
4

>  <REMARK>
 VINA RESULT:      -7.5      1.966      5.140
  Name = 
  3 active torsions:
  status: ('A' for Active; 'I' for Inactive)
    1  A    between atoms: C_7  and  C_12
    2  A    between atoms: C_21  and  C_25
    3  A    between atoms: C_25  and  N_30
                            x       y       z     vdW  Elec       q    Type
                         _______ _______ _______ _____ _____    ______ ____

>  <TORSDO>
F 3

$$$$
=
 OpenBabel11062412293D

 33 38  0  0  1  0  0  0  0  0999 V2000
  190.9390  175.4480  135.7320 N   0  0  0  0  0  0  0  0  0  0  0  0
  190.5080  175.9560  138.4670 C   0  0  2  0  0  3  0  0  0  0  0  0
  189.4200  177.5770  142.3950 C   0  0  2  0  0  3  0  0  0  0  0  0
  189.6020  178.7120  143.3050 N   0  0  0  0  0  0  0  0  0  0  0  0
  188.1720  177.5360  138.6920 C   0  0  2  0  0  3  0  0  0  0  0  0
  191.5230  176.7870  137.6690 C   0  0  1  0  0  3  0  0  0  0  0  0
  191.7010  176.9040  143.1850 N   0  0  0  0  0  0  0  0  0  0  0  0
  191.0430  176.4070  140.9350 C   0  0  0  0  0  3  0  0  0  0  0  0
  189.2700  175.6050  137.5900 C   0  0  2  0  0  3  0  0  0  0  0  0
  188.9280  176.7290  135.3010 C   0  0  0  0  0  1  0  0  0  0  0  0
  192.8050  177.0290  138.4440 C   0  0  0  0  0  1  0  0  0  0  0  0
  191.6120  177.7480  144.1400 N   0  0  0  0  0  0  0  0  0  0  0  0
  189.0360  177.3340  139.9040 C   0  0  0  0  0  0  0  0  0  0  0  0
  190.5860  178.7580  144.1540 C   0  0  0  0  0  3  0  0  0  0  0  0
  189.5300  175.5540  136.0580 C   0  0  1  0  0  3  0  0  0  0  0  0
  188.0050  176.2860  137.9350 N   0  0  0  0  0  2  0  0  0  0  0  0
  190.7450  176.9180  142.1250 C   0  0  0  0  0  0  0  0  0  0  0  0
  190.1330  176.5690  139.7920 C   0  0  0  0  0  0  0  0  0  0  0  0
  191.8620  176.0200  136.4280 C   0  0  0  0  0  3  0  0  0  0  0  0
  188.6940  177.9530  141.1660 N   0  0  0  0  0  0  0  0  0  0  0  0
  189.0660  179.4930  137.1830 N   0  0  0  0  0  0  0  0  0  0  0  0
  188.6740  178.6290  137.8450 C   0  0  0  0  0  0  0  0  0  0  0  0
  187.5480  178.8710  141.2040 C   0  0  0  0  0  2  0  0  0  0  0  0
  185.1470  178.1440  141.6050 C   0  0  2  0  0  3  0  0  0  0  0  0
  184.5340  178.5750  140.3360 C   0  0  0  0  0  0  0  0  0  0  0  0
  183.3520  179.2000  140.3980 C   0  0  0  0  0  3  0  0  0  0  0  0
  184.2840  177.9060  142.8020 C   0  0  2  0  0  3  0  0  0  0  0  0
  186.3940  178.3470  142.0100 C   0  0  2  0  0  3  0  0  0  0  0  0
  183.1590  178.9090  142.8380 C   0  0  0  0  0  3  0  0  0  0  0  0
  185.2030  178.0770  143.9170 N   0  0  0  0  0  0  0  0  0  0  0  0
  186.3930  178.3030  143.4640 C   0  0  0  0  0  3  0  0  0  0  0  0
  185.2550  178.2320  138.7780 Cl  0  0  0  0  0  0  0  0  0  0  0  0
  182.7000  179.4670  141.7060 C   0  0  0  0  0  3  0  0  0  0  0  0
  1 15  1  0  0  0  0
  1 19  2  0  0  0  0
  2 18  1  1  0  0  0
  3 17  1  6  0  0  0
  3  4  1  0  0  0  0
  4 14  2  0  0  0  0
  5 22  1  6  0  0  0
  5 13  1  0  0  0  0
  6 11  1  1  0  0  0
  6  2  1  0  0  0  0
  7 12  2  0  0  0  0
  8 17  2  0  0  0  0
  9 16  1  6  0  0  0
  9  2  1  0  0  0  0
 12 14  1  0  0  0  0
 13 20  1  0  0  0  0
 15 10  1  6  0  0  0
 15  9  1  0  0  0  0
 16  5  1  0  0  0  0
 17  7  1  0  0  0  0
 18 13  2  0  0  0  0
 18  8  1  0  0  0  0
 19  6  1  0  0  0  0
 20 23  1  0  0  0  0
 20  3  1  0  0  0  0
 21 22  3  0  0  0  0
 24 25  1  1  0  0  0
 24 28  1  0  0  0  0
 24 27  1  0  0  0  0
 25 26  2  0  0  0  0
 26 33  1  0  0  0  0
 27 29  1  1  0  0  0
 27 30  1  0  0  0  0
 28 23  1  1  0  0  0
 28 31  1  0  0  0  0
 31 30  2  0  0  0  0
 32 25  1  0  0  0  0
 33 29  2  0  0  0  0
M  END
>  <MODEL>
5

>  <REMARK>
 VINA RESULT:      -7.5      2.456      4.991
  Name = 
  3 active torsions:
  status: ('A' for Active; 'I' for Inactive)
    1  A    between atoms: C_7  and  C_12
    2  A    between atoms: C_21  and  C_25
    3  A    between atoms: C_25  and  N_30
                            x       y       z     vdW  Elec       q    Type
                         _______ _______ _______ _____ _____    ______ ____

>  <TORSDO>
F 3

$$$$
=
 OpenBabel11062412293D

 33 38  0  0  1  0  0  0  0  0999 V2000
  188.0270  176.7960  135.1550 N   0  0  0  0  0  0  0  0  0  0  0  0
  186.8080  177.9450  137.4170 C   0  0  2  0  0  3  0  0  0  0  0  0
  185.6650  179.3230  141.4210 C   0  0  0  0  0  0  0  0  0  0  0  0
  185.3100  178.8840  142.7740 N   0  0  0  0  0  0  0  0  0  0  0  0
  188.8440  178.5120  139.2970 C   0  0  2  0  0  3  0  0  0  0  0  0
  186.8080  176.4230  137.2180 C   0  0  1  0  0  3  0  0  0  0  0  0
  183.3140  178.6570  140.8630 N   0  0  0  0  0  2  0  0  0  0  0  0
  185.0320  178.4030  139.2110 C   0  0  0  0  0  3  0  0  0  0  0  0
  188.1450  178.5670  136.9190 C   0  0  2  0  0  3  0  0  0  0  0  0
  190.1410  177.0610  136.3100 C   0  0  0  0  0  1  0  0  0  0  0  0
  185.4680  175.7980  137.5620 C   0  0  0  0  0  1  0  0  0  0  0  0
  183.0430  178.5940  142.1090 N   0  0  0  0  0  0  0  0  0  0  0  0
  187.4070  178.6280  139.7200 C   0  0  0  0  0  0  0  0  0  0  0  0
  184.0830  178.6040  143.1040 C   0  0  0  0  0  3  0  0  0  0  0  0
  188.8850  177.7630  135.8130 C   0  0  1  0  0  3  0  0  0  0  0  0
  189.0590  179.0840  137.9590 N   0  0  0  0  0  2  0  0  0  0  0  0
  184.6680  178.7870  140.4290 C   0  0  0  0  0  0  0  0  0  0  0  0
  186.4480  178.3730  138.8170 C   0  0  0  0  0  0  0  0  0  0  0  0
  187.0960  176.1530  135.7740 C   0  0  0  0  0  3  0  0  0  0  0  0
  187.0630  179.0030  141.0750 N   0  0  0  0  0  0  0  0  0  0  0  0
  189.7090  176.0370  139.4610 N   0  0  0  0  0  0  0  0  0  0  0  0
  189.3260  177.1260  139.3890 C   0  0  0  0  0  0  0  0  0  0  0  0
  188.1490  179.1590  142.0510 C   0  0  0  0  0  2  0  0  0  0  0  0
  189.4980  177.6320  143.5690 C   0  0  2  0  0  3  0  0  0  0  0  0
  190.7640  178.3840  143.6280 C   0  0  0  0  0  0  0  0  0  0  0  0
  191.9030  177.6920  143.5060 C   0  0  0  0  0  3  0  0  0  0  0  0
  189.4820  176.1790  143.9160 C   0  0  2  0  0  3  0  0  0  0  0  0
  188.4270  177.9090  142.8360 C   0  0  2  0  0  3  0  0  0  0  0  0
  190.7480  175.5160  143.4340 C   0  0  0  0  0  3  0  0  0  0  0  0
  188.3060  175.6800  143.2190 N   0  0  0  0  0  0  0  0  0  0  0  0
  187.7040  176.6630  142.6310 C   0  0  0  0  0  3  0  0  0  0  0  0
  190.8220  180.1080  143.9230 Cl  0  0  0  0  0  0  0  0  0  0  0  0
  191.8810  176.2210  143.2940 C   0  0  0  0  0  3  0  0  0  0  0  0
  1 19  2  0  0  0  0
  1 15  1  0  0  0  0
  2 18  1  1  0  0  0
  3  4  2  0  0  0  0
  4 14  1  0  0  0  0
  5 22  1  6  0  0  0
  5 13  1  0  0  0  0
  6  2  1  0  0  0  0
  6 11  1  6  0  0  0
  7 12  1  0  0  0  0
  8 17  2  0  0  0  0
  9  2  1  0  0  0  0
  9 16  1  1  0  0  0
 12 14  2  0  0  0  0
 13 20  1  0  0  0  0
 15 10  1  1  0  0  0
 15  9  1  0  0  0  0
 16  5  1  0  0  0  0
 17  7  1  0  0  0  0
 17  3  1  0  0  0  0
 18  8  1  0  0  0  0
 18 13  2  0  0  0  0
 19  6  1  0  0  0  0
 20  3  1  0  0  0  0
 20 23  1  0  0  0  0
 22 21  3  0  0  0  0
 24 25  1  6  0  0  0
 24 27  1  0  0  0  0
 25 32  1  0  0  0  0
 26 25  2  0  0  0  0
 27 29  1  6  0  0  0
 28 23  1  6  0  0  0
 28 24  1  0  0  0  0
 30 27  1  0  0  0  0
 31 28  1  0  0  0  0
 31 30  2  0  0  0  0
 33 29  2  0  0  0  0
 33 26  1  0  0  0  0
M  END
>  <MODEL>
6

>  <REMARK>
 VINA RESULT:      -7.5      2.136      2.869
  Name = 
  3 active torsions:
  status: ('A' for Active; 'I' for Inactive)
    1  A    between atoms: C_7  and  C_12
    2  A    between atoms: C_21  and  C_25
    3  A    between atoms: C_25  and  N_30
                            x       y       z     vdW  Elec       q    Type
                         _______ _______ _______ _____ _____    ______ ____

>  <TORSDO>
F 3

$$$$
=
 OpenBabel11062412293D

 33 38  0  0  1  0  0  0  0  0999 V2000
  179.6740  175.2490  138.3830 N   0  0  0  0  0  0  0  0  0  0  0  0
  182.4380  174.7820  138.1310 C   0  0  2  0  0  3  0  0  0  0  0  0
  186.7040  174.8120  137.1120 C   0  0  0  0  0  0  0  0  0  0  0  0
  187.6650  174.6940  136.0110 N   0  0  0  0  0  0  0  0  0  0  0  0
  183.6760  177.2500  137.5180 C   0  0  2  0  0  3  0  0  0  0  0  0
  181.4840  174.4700  136.9690 C   0  0  1  0  0  3  0  0  0  0  0  0
  186.5680  172.3170  136.9250 N   0  0  0  0  0  2  0  0  0  0  0  0
  184.6210  173.5540  137.5750 C   0  0  0  0  0  3  0  0  0  0  0  0
  181.9840  176.0640  138.8890 C   0  0  2  0  0  3  0  0  0  0  0  0
  180.1480  177.5780  137.9140 C   0  0  0  0  0  1  0  0  0  0  0  0
  181.8120  173.1500  136.2940 C   0  0  0  0  0  1  0  0  0  0  0  0
  187.6150  172.3210  136.1950 N   0  0  0  0  0  0  0  0  0  0  0  0
  184.4810  175.9850  137.4200 C   0  0  0  0  0  0  0  0  0  0  0  0
  188.1300  173.5400  135.6290 C   0  0  0  0  0  3  0  0  0  0  0  0
  180.4660  176.3880  138.8060 C   0  0  1  0  0  3  0  0  0  0  0  0
  182.8360  177.2610  138.7240 N   0  0  0  0  0  2  0  0  0  0  0  0
  185.9060  173.5430  137.2360 C   0  0  0  0  0  0  0  0  0  0  0  0
  183.8900  174.8210  137.7290 C   0  0  0  0  0  0  0  0  0  0  0  0
  180.0990  174.3800  137.5300 C   0  0  0  0  0  3  0  0  0  0  0  0
  185.8650  176.0210  136.9980 N   0  0  0  0  0  0  0  0  0  0  0  0
  182.2770  177.6800  135.3360 N   0  0  0  0  0  0  0  0  0  0  0  0
  182.8920  177.4890  136.2970 C   0  0  0  0  0  0  0  0  0  0  0  0
  186.4280  177.3050  136.5630 C   0  0  0  0  0  2  0  0  0  0  0  0
  188.6340  178.0710  137.5640 C   0  0  2  0  0  3  0  0  0  0  0  0
  189.5750  177.4340  136.6260 C   0  0  0  0  0  0  0  0  0  0  0  0
  190.6460  176.8190  137.1430 C   0  0  0  0  0  3  0  0  0  0  0  0
  189.1080  178.4960  138.9150 C   0  0  2  0  0  3  0  0  0  0  0  0
  187.3130  177.9460  137.5930 C   0  0  2  0  0  3  0  0  0  0  0  0
  190.1110  177.5040  139.4490 C   0  0  0  0  0  3  0  0  0  0  0  0
  187.8870  178.5160  139.7080 N   0  0  0  0  0  0  0  0  0  0  0  0
  186.8780  178.2280  138.9520 C   0  0  0  0  0  3  0  0  0  0  0  0
  189.3770  177.5210  134.8890 Cl  0  0  0  0  0  0  0  0  0  0  0  0
  190.8560  176.7650  138.6130 C   0  0  0  0  0  3  0  0  0  0  0  0
  1 15  1  0  0  0  0
  2 18  1  6  0  0  0
  2  9  1  0  0  0  0
  3 17  1  0  0  0  0
  4  3  2  0  0  0  0
  5 22  1  6  0  0  0
  5 16  1  0  0  0  0
  6 11  1  1  0  0  0
  6 19  1  0  0  0  0
  6  2  1  0  0  0  0
  7 17  1  0  0  0  0
  8 18  1  0  0  0  0
  9 16  1  6  0  0  0
 12  7  1  0  0  0  0
 13  5  1  0  0  0  0
 13 18  2  0  0  0  0
 14  4  1  0  0  0  0
 14 12  2  0  0  0  0
 15 10  1  6  0  0  0
 15  9  1  0  0  0  0
 17  8  2  0  0  0  0
 19  1  2  0  0  0  0
 20  3  1  0  0  0  0
 20 13  1  0  0  0  0
 21 22  3  0  0  0  0
 23 20  1  0  0  0  0
 24 25  1  1  0  0  0
 24 28  1  0  0  0  0
 24 27  1  0  0  0  0
 25 26  2  0  0  0  0
 26 33  1  0  0  0  0
 27 29  1  1  0  0  0
 27 30  1  0  0  0  0
 28 23  1  1  0  0  0
 28 31  1  0  0  0  0
 31 30  2  0  0  0  0
 32 25  1  0  0  0  0
 33 29  2  0  0  0  0
M  END
>  <MODEL>
7

>  <REMARK>
 VINA RESULT:      -7.2      3.893      7.297
  Name = 
  3 active torsions:
  status: ('A' for Active; 'I' for Inactive)
    1  A    between atoms: C_7  and  C_12
    2  A    between atoms: C_21  and  C_25
    3  A    between atoms: C_25  and  N_30
                            x       y       z     vdW  Elec       q    Type
                         _______ _______ _______ _____ _____    ______ ____

>  <TORSDO>
F 3

$$$$
=
 OpenBabel11062412293D

 33 38  0  0  1  0  0  0  0  0999 V2000
  191.4260  176.1150  146.8050 N   0  0  0  0  0  0  0  0  0  0  0  0
  188.9310  176.7520  145.6690 C   0  0  2  0  0  3  0  0  0  0  0  0
  185.5580  178.4440  143.4320 C   0  0  2  0  0  3  0  0  0  0  0  0
  184.7800  179.6640  143.1950 N   0  0  0  0  0  0  0  0  0  0  0  0
  189.4060  177.8470  143.1040 C   0  0  2  0  0  3  0  0  0  0  0  0
  189.5940  177.7000  146.6790 C   0  0  1  0  0  3  0  0  0  0  0  0
  184.2240  178.3080  145.5490 N   0  0  0  0  0  0  0  0  0  0  0  0
  186.4820  177.5040  145.5290 C   0  0  0  0  0  3  0  0  0  0  0  0
  189.9990  176.0890  144.7500 C   0  0  2  0  0  3  0  0  0  0  0  0
  192.4300  176.9290  144.7550 C   0  0  0  0  0  1  0  0  0  0  0  0
  188.6010  178.2570  147.6820 C   0  0  0  0  0  1  0  0  0  0  0  0
  183.4240  179.1930  145.0940 N   0  0  0  0  0  0  0  0  0  0  0  0
  188.0230  177.9230  143.6850 C   0  0  0  0  0  0  0  0  0  0  0  0
  183.7540  179.9760  143.9320 C   0  0  0  0  0  3  0  0  0  0  0  0
  191.4220  175.9640  145.3620 C   0  0  1  0  0  3  0  0  0  0  0  0
  190.0180  176.5310  143.3390 N   0  0  0  0  0  2  0  0  0  0  0  0
  185.4560  178.0420  144.8780 C   0  0  0  0  0  0  0  0  0  0  0  0
  187.8030  177.3860  144.8950 C   0  0  0  0  0  0  0  0  0  0  0  0
  190.6280  176.9160  147.4260 C   0  0  0  0  0  3  0  0  0  0  0  0
  186.9500  178.5640  142.9560 N   0  0  0  0  0  0  0  0  0  0  0  0
  190.9310  179.8050  143.9690 N   0  0  0  0  0  0  0  0  0  0  0  0
  190.2570  178.9450  143.5870 C   0  0  0  0  0  0  0  0  0  0  0  0
  187.2710  179.2340  141.6890 C   0  0  0  0  0  2  0  0  0  0  0  0
  187.2590  178.0770  139.4270 C   0  0  2  0  0  3  0  0  0  0  0  0
  188.6760  178.2320  139.0530 C   0  0  0  0  0  0  0  0  0  0  0  0
  188.9490  178.6050  137.7970 C   0  0  0  0  0  3  0  0  0  0  0  0
  186.2400  177.8000  138.3700 C   0  0  2  0  0  3  0  0  0  0  0  0
  186.6460  178.5760  140.4930 C   0  0  2  0  0  3  0  0  0  0  0  0
  186.5840  178.5480  137.1070 C   0  0  0  0  0  3  0  0  0  0  0  0
  185.0000  178.2770  138.9660 N   0  0  0  0  0  0  0  0  0  0  0  0
  185.2320  178.6910  140.1690 C   0  0  0  0  0  3  0  0  0  0  0  0
  189.9850  177.8780  140.1590 Cl  0  0  0  0  0  0  0  0  0  0  0  0
  187.8560  178.8740  136.8280 C   0  0  0  0  0  3  0  0  0  0  0  0
  1 19  2  0  0  0  0
  2 18  1  6  0  0  0
  2  6  1  0  0  0  0
  3  4  1  1  0  0  0
  3 17  1  0  0  0  0
  4 14  2  0  0  0  0
  5 16  1  0  0  0  0
  5 22  1  1  0  0  0
  5 13  1  0  0  0  0
  6 19  1  0  0  0  0
  6 11  1  1  0  0  0
  9 16  1  6  0  0  0
  9 15  1  0  0  0  0
  9  2  1  0  0  0  0
 12  7  2  0  0  0  0
 13 18  2  0  0  0  0
 14 12  1  0  0  0  0
 15 10  1  6  0  0  0
 15  1  1  0  0  0  0
 17  8  2  0  0  0  0
 17  7  1  0  0  0  0
 18  8  1  0  0  0  0
 20  3  1  0  0  0  0
 20 13  1  0  0  0  0
 22 21  3  0  0  0  0
 23 20  1  0  0  0  0
 24 25  1  6  0  0  0
 24 28  1  0  0  0  0
 25 32  1  0  0  0  0
 26 25  2  0  0  0  0
 27 29  1  6  0  0  0
 27 30  1  0  0  0  0
 27 24  1  0  0  0  0
 28 23  1  6  0  0  0
 30 31  2  0  0  0  0
 31 28  1  0  0  0  0
 33 29  2  0  0  0  0
 33 26  1  0  0  0  0
M  END
>  <MODEL>
8

>  <REMARK>
 VINA RESULT:      -7.1      2.853      6.976
  Name = 
  3 active torsions:
  status: ('A' for Active; 'I' for Inactive)
    1  A    between atoms: C_7  and  C_12
    2  A    between atoms: C_21  and  C_25
    3  A    between atoms: C_25  and  N_30
                            x       y       z     vdW  Elec       q    Type
                         _______ _______ _______ _____ _____    ______ ____

>  <TORSDO>
F 3

$$$$
=
 OpenBabel11062412293D

 33 38  0  0  1  0  0  0  0  0999 V2000
  180.5660  179.4690  140.6690 N   0  0  0  0  0  0  0  0  0  0  0  0
  183.2110  179.1450  139.7620 C   0  0  2  0  0  3  0  0  0  0  0  0
  187.0030  177.7640  138.0440 C   0  0  2  0  0  3  0  0  0  0  0  0
  188.0260  176.7160  138.1080 N   0  0  0  0  0  0  0  0  0  0  0  0
  183.1450  177.4420  137.5050 C   0  0  2  0  0  3  0  0  0  0  0  0
  182.6850  178.3220  140.9470 C   0  0  1  0  0  3  0  0  0  0  0  0
  188.1320  178.6390  140.1020 N   0  0  0  0  0  0  0  0  0  0  0  0
  185.7650  178.9200  139.8510 C   0  0  0  0  0  3  0  0  0  0  0  0
  182.0970  179.3490  138.6940 C   0  0  2  0  0  3  0  0  0  0  0  0
  179.8910  178.0340  138.8370 C   0  0  0  0  0  1  0  0  0  0  0  0
  183.6980  178.2220  142.0730 C   0  0  0  0  0  1  0  0  0  0  0  0
  189.1240  177.8670  139.8790 N   0  0  0  0  0  0  0  0  0  0  0  0
  184.4710  177.7910  138.1170 C   0  0  0  0  0  0  0  0  0  0  0  0
  189.0400  176.7980  138.9190 C   0  0  0  0  0  3  0  0  0  0  0  0
  180.6390  179.2990  139.2300 C   0  0  1  0  0  3  0  0  0  0  0  0
  182.2650  178.6170  137.4210 N   0  0  0  0  0  2  0  0  0  0  0  0
  186.9210  178.4830  139.3620 C   0  0  0  0  0  0  0  0  0  0  0  0
  184.4950  178.6130  139.1780 C   0  0  0  0  0  0  0  0  0  0  0  0
  181.4640  179.0120  141.4730 C   0  0  0  0  0  3  0  0  0  0  0  0
  185.7000  177.2500  137.5780 N   0  0  0  0  0  0  0  0  0  0  0  0
  181.9920  175.4410  138.7570 N   0  0  0  0  0  0  0  0  0  0  0  0
  182.5020  176.3210  138.2070 C   0  0  0  0  0  0  0  0  0  0  0  0
  185.6100  176.2670  136.4900 C   0  0  0  0  0  2  0  0  0  0  0  0
  186.8090  174.0290  136.6000 C   0  0  2  0  0  3  0  0  0  0  0  0
  187.8020  174.2190  135.5280 C   0  0  0  0  0  0  0  0  0  0  0  0
  187.9970  173.2060  134.6760 C   0  0  0  0  0  3  0  0  0  0  0  0
  186.4630  172.6490  137.0530 C   0  0  2  0  0  3  0  0  0  0  0  0
  185.8280  174.8530  136.9470 C   0  0  2  0  0  3  0  0  0  0  0  0
  186.4600  171.7020  135.8800 C   0  0  0  0  0  3  0  0  0  0  0  0
  185.1350  172.8080  137.6280 N   0  0  0  0  0  0  0  0  0  0  0  0
  184.7930  174.0540  137.5860 C   0  0  0  0  0  3  0  0  0  0  0  0
  188.7680  175.6720  135.3860 Cl  0  0  0  0  0  0  0  0  0  0  0  0
  187.2170  171.9470  134.7990 C   0  0  0  0  0  3  0  0  0  0  0  0
  1 19  2  0  0  0  0
  2 18  1  6  0  0  0
  2  6  1  0  0  0  0
  3  4  1  1  0  0  0
  3 17  1  0  0  0  0
  4 14  2  0  0  0  0
  5 13  1  0  0  0  0
  5 22  1  1  0  0  0
  6 19  1  0  0  0  0
  6 11  1  1  0  0  0
  9 16  1  6  0  0  0
  9 15  1  0  0  0  0
  9  2  1  0  0  0  0
 12  7  2  0  0  0  0
 13 18  2  0  0  0  0
 14 12  1  0  0  0  0
 15 10  1  1  0  0  0
 15  1  1  0  0  0  0
 16  5  1  0  0  0  0
 17  8  2  0  0  0  0
 17  7  1  0  0  0  0
 18  8  1  0  0  0  0
 20  3  1  0  0  0  0
 20 13  1  0  0  0  0
 22 21  3  0  0  0  0
 23 20  1  0  0  0  0
 24 25  1  6  0  0  0
 24 28  1  0  0  0  0
 24 27  1  0  0  0  0
 26 33  1  0  0  0  0
 26 25  2  0  0  0  0
 27 29  1  6  0  0  0
 27 30  1  0  0  0  0
 28 23  1  6  0  0  0
 28 31  1  0  0  0  0
 31 30  2  0  0  0  0
 32 25  1  0  0  0  0
 33 29  2  0  0  0  0
M  END
>  <MODEL>
9

>  <REMARK>
 VINA RESULT:      -6.4      3.226      7.838
  Name = 
  3 active torsions:
  status: ('A' for Active; 'I' for Inactive)
    1  A    between atoms: C_7  and  C_12
    2  A    between atoms: C_21  and  C_25
    3  A    between atoms: C_25  and  N_30
                            x       y       z     vdW  Elec       q    Type
                         _______ _______ _______ _____ _____    ______ ____

>  <TORSDO>
F 3

$$$$
