=
 OpenBabel11062417133D

 36 39  0  0  1  0  0  0  0  0999 V2000
  189.8780  177.5420  147.5150 C   0  0  0  0  0  0  0  0  0  0  0  0
  187.5310  177.8950  146.0350 C   0  0  0  0  0  0  0  0  0  0  0  0
  187.5140  177.8230  147.4350 C   0  0  0  0  0  3  0  0  0  0  0  0
  188.6720  177.6450  148.1340 N   0  0  0  0  0  0  0  0  0  0  0  0
  191.0590  177.3910  148.3000 N   0  0  0  0  0  1  0  0  0  0  0  0
  188.7680  177.7870  145.3890 C   0  0  0  0  0  3  0  0  0  0  0  0
  189.9540  177.6160  146.1160 C   0  0  0  0  0  0  0  0  0  0  0  0
  185.2920  179.0200  145.7800 C   0  0  0  0  0  0  0  0  0  0  0  0
  182.3090  178.7580  143.7730 C   0  0  0  0  0  0  0  0  0  0  0  0
  183.8480  178.6250  145.6870 C   0  0  0  0  0  2  0  0  0  0  0  0
  184.1750  178.5480  142.2270 C   0  0  0  0  0  0  0  0  0  0  0  0
  185.4360  178.7980  141.9760 C   0  0  0  0  0  0  0  0  0  0  0  0
  185.7540  179.5940  140.8810 O   0  0  0  0  0  1  0  0  0  0  0  0
  185.6000  180.1150  146.3180 O   0  0  0  0  0  0  0  0  0  0  0  0
  181.1360  178.3980  144.0650 O   0  0  0  0  0  0  0  0  0  0  0  0
  186.5510  178.2680  142.8410 C   0  0  0  0  0  2  0  0  0  0  0  0
  186.3180  178.1410  145.2860 N   0  0  0  0  0  0  0  0  0  0  0  0
  182.9150  178.3090  142.5100 C   0  0  0  0  0  3  0  0  0  0  0  0
  183.0940  179.5610  144.7590 C   0  0  0  0  0  2  0  0  0  0  0  0
  186.0790  177.4260  144.0340 C   0  0  0  0  0  2  0  0  0  0  0  0
  191.1800  177.9940  143.9830 C   0  0  0  0  0  0  0  0  0  0  0  0
  191.6850  175.8190  143.9800 C   0  0  0  0  0  0  0  0  0  0  0  0
  190.7780  179.3740  143.5790 C   0  0  0  0  0  1  0  0  0  0  0  0
  191.2760  177.5040  145.3990 C   0  0  2  0  0  3  0  0  0  0  0  0
  191.9710  174.5830  143.5040 F   0  0  0  0  0  0  0  0  0  0  0  0
  191.6440  176.0960  145.2410 N   0  0  0  0  0  0  0  0  0  0  0  0
  191.4010  176.9840  143.1620 C   0  0  0  0  0  0  0  0  0  0  0  0
  189.0880  176.0660  141.8950 O   0  0  0  0  0  1  0  0  0  0  0  0
  192.2960  177.6710  140.9520 C   0  0  0  0  0  2  0  0  0  0  0  0
  192.5020  176.9320  139.6310 C   0  0  0  0  0  2  0  0  0  0  0  0
  191.1860  176.7740  138.8640 C   0  0  1  0  0  3  0  0  0  0  0  0
  190.1410  176.0780  139.7480 C   0  0  0  0  0  2  0  0  0  0  0  0
  189.9580  176.8050  141.0850 C   0  0  2  0  0  3  0  0  0  0  0  0
  191.2590  177.0010  141.7340 N   0  0  0  0  0  0  0  0  0  0  0  0
  189.5860  178.1540  137.7490 C   0  0  0  0  0  2  0  0  0  0  0  0
  190.6890  178.0580  138.4080 N   0  0  0  0  0  0  0  0  0  0  0  0
  1  4  1  0  0  0  0
  1  5  1  0  0  0  0
  2  3  1  0  0  0  0
  3  4  2  0  0  0  0
  6  2  2  0  0  0  0
  6  7  1  0  0  0  0
  7  1  2  0  0  0  0
  8 14  2  0  0  0  0
  9 15  2  0  0  0  0
  9 19  1  0  0  0  0
 10  8  1  0  0  0  0
 11 18  2  0  0  0  0
 12 11  2  0  0  0  0
 12 16  1  0  0  0  0
 13 12  1  0  0  0  0
 16 20  1  0  0  0  0
 17  8  1  0  0  0  0
 17  2  1  0  0  0  0
 18  9  1  0  0  0  0
 19 10  1  0  0  0  0
 20 17  1  0  0  0  0
 21 24  1  0  0  0  0
 22 26  2  0  0  0  0
 23 21  1  0  0  0  0
 24  7  1  6  0  0  0
 25 22  1  0  0  0  0
 26 24  1  0  0  0  0
 27 22  1  0  0  0  0
 27 21  2  0  0  0  0
 29 34  1  0  0  0  0
 30 29  1  0  0  0  0
 31 36  1  1  0  0  0
 31 30  1  0  0  0  0
 31 32  1  0  0  0  0
 32 33  1  0  0  0  0
 33 34  1  0  0  0  0
 33 28  1  1  0  0  0
 34 27  1  0  0  0  0
 35 36  2  0  0  0  0
M  END
>  <MODEL>
1

>  <REMARK>
 VINA RESULT:      -8.8      0.000      0.000
  Name = 
  4 active torsions:
  status: ('A' for Active; 'I' for Inactive)
    1  A    between atoms: C_11  and  N_36
    2  A    between atoms: C_19  and  N_25
    3  A    between atoms: C_21  and  C_35
    4  A    between atoms: C_31  and  N_34
                            x       y       z     vdW  Elec       q    Type
                         _______ _______ _______ _____ _____    ______ ____

>  <TORSDO>
F 4

$$$$
=
 OpenBabel11062417133D

 36 39  0  0  1  0  0  0  0  0999 V2000
  183.1360  178.6360  141.8050 C   0  0  0  0  0  0  0  0  0  0  0  0
  185.8790  178.2790  142.2230 C   0  0  0  0  0  0  0  0  0  0  0  0
  185.0010  178.5410  143.2840 C   0  0  0  0  0  3  0  0  0  0  0  0
  183.6680  178.7160  143.0540 N   0  0  0  0  0  0  0  0  0  0  0  0
  181.7290  178.7940  141.6300 N   0  0  0  0  0  1  0  0  0  0  0  0
  185.3400  178.1980  140.9330 C   0  0  0  0  0  3  0  0  0  0  0  0
  183.9680  178.3670  140.7070 C   0  0  0  0  0  0  0  0  0  0  0  0
  187.7370  177.2980  143.6100 C   0  0  0  0  0  0  0  0  0  0  0  0
  191.3190  177.5340  143.9490 C   0  0  0  0  0  0  0  0  0  0  0  0
  188.9140  177.7820  144.4040 C   0  0  0  0  0  2  0  0  0  0  0  0
  190.8800  177.4220  141.5590 C   0  0  0  0  0  0  0  0  0  0  0  0
  190.0670  177.0520  140.6000 C   0  0  0  0  0  0  0  0  0  0  0  0
  190.5070  176.1100  139.6770 O   0  0  0  0  0  1  0  0  0  0  0  0
  187.1340  176.2550  143.9730 O   0  0  0  0  0  0  0  0  0  0  0  0
  192.0400  178.0100  144.8670 O   0  0  0  0  0  0  0  0  0  0  0  0
  188.6680  177.5990  140.4740 C   0  0  0  0  0  2  0  0  0  0  0  0
  187.2840  178.0340  142.4600 N   0  0  0  0  0  0  0  0  0  0  0  0
  191.6710  177.7840  142.5420 C   0  0  0  0  0  3  0  0  0  0  0  0
  190.0680  176.7990  144.3090 C   0  0  0  0  0  2  0  0  0  0  0  0
  188.2840  178.6100  141.5640 C   0  0  0  0  0  2  0  0  0  0  0  0
  183.1330  176.8500  138.9200 C   0  0  0  0  0  0  0  0  0  0  0  0
  184.7080  177.6920  137.5790 C   0  0  0  0  0  0  0  0  0  0  0  0
  182.2030  175.9290  139.6380 C   0  0  0  0  0  1  0  0  0  0  0  0
  183.4080  178.2740  139.3100 C   0  0  2  0  0  3  0  0  0  0  0  0
  185.6320  177.7560  136.5910 F   0  0  0  0  0  0  0  0  0  0  0  0
  184.4150  178.6980  138.3360 N   0  0  0  0  0  0  0  0  0  0  0  0
  183.9230  176.5190  137.9150 C   0  0  0  0  0  0  0  0  0  0  0  0
  182.0340  175.4430  136.1620 O   0  0  0  0  0  1  0  0  0  0  0  0
  185.3330  174.5050  137.5750 C   0  0  0  0  0  2  0  0  0  0  0  0
  185.0680  173.0070  137.7090 C   0  0  0  0  0  2  0  0  0  0  0  0
  184.2900  172.4630  136.5070 C   0  0  1  0  0  3  0  0  0  0  0  0
  182.9890  173.2570  136.3180 C   0  0  0  0  0  2  0  0  0  0  0  0
  183.2560  174.7620  136.2120 C   0  0  2  0  0  3  0  0  0  0  0  0
  184.0730  175.2090  137.3460 N   0  0  0  0  0  0  0  0  0  0  0  0
  186.0880  171.7110  135.1240 C   0  0  0  0  0  2  0  0  0  0  0  0
  185.0930  172.5120  135.3000 N   0  0  0  0  0  0  0  0  0  0  0  0
  1  4  1  0  0  0  0
  2 17  1  0  0  0  0
  2  3  1  0  0  0  0
  4  3  2  0  0  0  0
  5  1  1  0  0  0  0
  6  2  2  0  0  0  0
  7  6  1  0  0  0  0
  7  1  2  0  0  0  0
  8 14  2  0  0  0  0
  8 10  1  0  0  0  0
  9 19  1  0  0  0  0
  9 15  2  0  0  0  0
 11 18  2  0  0  0  0
 12 11  2  0  0  0  0
 13 12  1  0  0  0  0
 16 12  1  0  0  0  0
 16 20  1  0  0  0  0
 17  8  1  0  0  0  0
 18  9  1  0  0  0  0
 19 10  1  0  0  0  0
 20 17  1  0  0  0  0
 21 24  1  0  0  0  0
 21 23  1  0  0  0  0
 22 27  1  0  0  0  0
 22 26  2  0  0  0  0
 24  7  1  1  0  0  0
 25 22  1  0  0  0  0
 26 24  1  0  0  0  0
 27 21  2  0  0  0  0
 29 30  1  0  0  0  0
 31 36  1  6  0  0  0
 31 30  1  0  0  0  0
 32 31  1  0  0  0  0
 33 28  1  1  0  0  0
 33 32  1  0  0  0  0
 33 34  1  0  0  0  0
 34 29  1  0  0  0  0
 34 27  1  0  0  0  0
 35 36  2  0  0  0  0
M  END
>  <MODEL>
2

>  <REMARK>
 VINA RESULT:      -8.3      4.756      7.937
  Name = 
  4 active torsions:
  status: ('A' for Active; 'I' for Inactive)
    1  A    between atoms: C_11  and  N_36
    2  A    between atoms: C_19  and  N_25
    3  A    between atoms: C_21  and  C_35
    4  A    between atoms: C_31  and  N_34
                            x       y       z     vdW  Elec       q    Type
                         _______ _______ _______ _____ _____    ______ ____

>  <TORSDO>
F 4

$$$$
=
 OpenBabel11062417133D

 36 39  0  0  1  0  0  0  0  0999 V2000
  192.6150  177.0710  139.2030 C   0  0  0  0  0  0  0  0  0  0  0  0
  191.0090  177.2050  141.4900 C   0  0  0  0  0  0  0  0  0  0  0  0
  192.4060  177.3020  141.5650 C   0  0  0  0  0  3  0  0  0  0  0  0
  193.1670  177.2290  140.4350 N   0  0  0  0  0  0  0  0  0  0  0  0
  193.4590  177.0350  138.0540 N   0  0  0  0  0  1  0  0  0  0  0  0
  190.4320  177.0390  140.2260 C   0  0  0  0  0  3  0  0  0  0  0  0
  191.2210  176.9760  139.0690 C   0  0  0  0  0  0  0  0  0  0  0  0
  188.8800  176.7470  142.7530 C   0  0  0  0  0  0  0  0  0  0  0  0
  187.1230  177.9180  145.6750 C   0  0  0  0  0  0  0  0  0  0  0  0
  187.7310  177.5240  143.3250 C   0  0  0  0  0  2  0  0  0  0  0  0
  189.4520  177.6970  146.3400 C   0  0  0  0  0  0  0  0  0  0  0  0
  190.6140  177.1280  146.1290 C   0  0  0  0  0  0  0  0  0  0  0  0
  191.1620  176.3360  147.1320 O   0  0  0  0  0  1  0  0  0  0  0  0
  188.6830  175.5810  142.3210 O   0  0  0  0  0  0  0  0  0  0  0  0
  186.0490  178.5670  145.7990 O   0  0  0  0  0  0  0  0  0  0  0  0
  191.3650  177.2870  144.8320 C   0  0  0  0  0  2  0  0  0  0  0  0
  190.1880  177.3390  142.6730 N   0  0  0  0  0  0  0  0  0  0  0  0
  188.2770  178.2540  146.5240 C   0  0  0  0  0  3  0  0  0  0  0  0
  187.2320  176.8790  144.6060 C   0  0  0  0  0  2  0  0  0  0  0  0
  190.6510  178.1590  143.7900 C   0  0  0  0  0  2  0  0  0  0  0  0
  189.2690  177.5310  137.6290 C   0  0  0  0  0  0  0  0  0  0  0  0
  188.9060  175.3390  137.4120 C   0  0  0  0  0  0  0  0  0  0  0  0
  189.0960  179.0030  137.8120 C   0  0  0  0  0  1  0  0  0  0  0  0
  190.5770  176.7990  137.7170 C   0  0  2  0  0  3  0  0  0  0  0  0
  188.2340  174.1740  137.2500 F   0  0  0  0  0  0  0  0  0  0  0  0
  190.1910  175.4010  137.5230 N   0  0  0  0  0  0  0  0  0  0  0  0
  188.2950  176.6540  137.4720 C   0  0  0  0  0  0  0  0  0  0  0  0
  186.6150  175.9080  135.3700 O   0  0  0  0  0  1  0  0  0  0  0  0
  186.3130  177.4760  138.7180 C   0  0  0  0  0  2  0  0  0  0  0  0
  185.1920  178.4550  138.3740 C   0  0  0  0  0  2  0  0  0  0  0  0
  184.1450  177.8120  137.4590 C   0  0  1  0  0  3  0  0  0  0  0  0
  184.8190  177.2530  136.1980 C   0  0  0  0  0  2  0  0  0  0  0  0
  185.9620  176.2930  136.5470 C   0  0  2  0  0  3  0  0  0  0  0  0
  186.8870  176.9330  137.4890 N   0  0  0  0  0  0  0  0  0  0  0  0
  182.6310  177.0350  139.1360 C   0  0  0  0  0  2  0  0  0  0  0  0
  183.4180  176.7660  138.1510 N   0  0  0  0  0  0  0  0  0  0  0  0
  1  4  1  0  0  0  0
  2  3  1  0  0  0  0
  2 17  1  0  0  0  0
  4  3  2  0  0  0  0
  5  1  1  0  0  0  0
  6  2  2  0  0  0  0
  7  1  2  0  0  0  0
  7  6  1  0  0  0  0
  8 10  1  0  0  0  0
  9 15  2  0  0  0  0
  9 18  1  0  0  0  0
 10 19  1  0  0  0  0
 11 18  2  0  0  0  0
 12 11  2  0  0  0  0
 12 13  1  0  0  0  0
 14  8  2  0  0  0  0
 16 12  1  0  0  0  0
 17  8  1  0  0  0  0
 17 20  1  0  0  0  0
 19  9  1  0  0  0  0
 20 16  1  0  0  0  0
 21 24  1  0  0  0  0
 21 23  1  0  0  0  0
 22 27  1  0  0  0  0
 22 26  2  0  0  0  0
 24  7  1  1  0  0  0
 25 22  1  0  0  0  0
 26 24  1  0  0  0  0
 27 34  1  0  0  0  0
 27 21  2  0  0  0  0
 30 29  1  0  0  0  0
 31 36  1  1  0  0  0
 31 30  1  0  0  0  0
 32 33  1  0  0  0  0
 32 31  1  0  0  0  0
 33 28  1  6  0  0  0
 33 34  1  0  0  0  0
 34 29  1  0  0  0  0
 36 35  2  0  0  0  0
M  END
>  <MODEL>
3

>  <REMARK>
 VINA RESULT:      -7.7      3.176      6.819
  Name = 
  4 active torsions:
  status: ('A' for Active; 'I' for Inactive)
    1  A    between atoms: C_11  and  N_36
    2  A    between atoms: C_19  and  N_25
    3  A    between atoms: C_21  and  C_35
    4  A    between atoms: C_31  and  N_34
                            x       y       z     vdW  Elec       q    Type
                         _______ _______ _______ _____ _____    ______ ____

>  <TORSDO>
F 4

$$$$
=
 OpenBabel11062417133D

 36 39  0  0  1  0  0  0  0  0999 V2000
  184.1930  178.3190  138.7550 C   0  0  0  0  0  0  0  0  0  0  0  0
  185.7580  178.1780  141.0700 C   0  0  0  0  0  0  0  0  0  0  0  0
  184.3630  178.3070  141.1310 C   0  0  0  0  0  3  0  0  0  0  0  0
  183.6220  178.3780  139.9880 N   0  0  0  0  0  0  0  0  0  0  0  0
  183.3640  178.3650  137.5950 N   0  0  0  0  0  1  0  0  0  0  0  0
  186.3540  178.1200  139.8040 C   0  0  0  0  0  3  0  0  0  0  0  0
  185.5850  178.1830  138.6350 C   0  0  0  0  0  0  0  0  0  0  0  0
  187.9330  178.4290  142.3130 C   0  0  0  0  0  0  0  0  0  0  0  0
  189.4840  177.3130  145.3690 C   0  0  0  0  0  0  0  0  0  0  0  0
  188.9460  177.5480  142.9810 C   0  0  0  0  0  2  0  0  0  0  0  0
  187.2190  177.9620  145.9690 C   0  0  0  0  0  0  0  0  0  0  0  0
  186.1610  178.6800  145.6810 C   0  0  0  0  0  0  0  0  0  0  0  0
  185.7430  179.6480  146.5870 O   0  0  0  0  0  1  0  0  0  0  0  0
  188.3090  179.4980  141.7650 O   0  0  0  0  0  0  0  0  0  0  0  0
  190.4440  176.5220  145.5770 O   0  0  0  0  0  0  0  0  0  0  0  0
  185.3940  178.5040  144.3950 C   0  0  0  0  0  2  0  0  0  0  0  0
  186.5480  178.0430  142.2730 N   0  0  0  0  0  0  0  0  0  0  0  0
  188.2920  177.2510  146.2290 C   0  0  0  0  0  3  0  0  0  0  0  0
  189.5400  178.2380  144.1970 C   0  0  0  0  0  2  0  0  0  0  0  0
  185.9630  177.4270  143.4620 C   0  0  0  0  0  2  0  0  0  0  0  0
  187.1630  176.9300  137.1750 C   0  0  0  0  0  0  0  0  0  0  0  0
  188.3600  178.8060  136.9930 C   0  0  0  0  0  0  0  0  0  0  0  0
  186.7430  175.5060  137.3320 C   0  0  0  0  0  1  0  0  0  0  0  0
  186.2480  178.1160  137.2820 C   0  0  2  0  0  3  0  0  0  0  0  0
  189.4360  179.6160  136.8470 F   0  0  0  0  0  0  0  0  0  0  0  0
  187.1540  179.2530  137.1100 N   0  0  0  0  0  0  0  0  0  0  0  0
  188.4040  177.3560  137.0280 C   0  0  0  0  0  0  0  0  0  0  0  0
  189.7650  176.7400  139.3870 O   0  0  0  0  0  1  0  0  0  0  0  0
  189.9810  175.9020  135.7800 C   0  0  0  0  0  2  0  0  0  0  0  0
  191.5040  175.8510  135.6830 C   0  0  0  0  0  2  0  0  0  0  0  0
  192.1250  175.1860  136.9160 C   0  0  1  0  0  3  0  0  0  0  0  0
  191.6590  175.9030  138.1920 C   0  0  0  0  0  2  0  0  0  0  0  0
  190.1300  175.9770  138.2710 C   0  0  2  0  0  3  0  0  0  0  0  0
  189.5880  176.5450  137.0320 N   0  0  0  0  0  0  0  0  0  0  0  0
  192.2960  172.9310  136.1450 C   0  0  0  0  0  2  0  0  0  0  0  0
  191.7880  173.7770  136.9750 N   0  0  0  0  0  0  0  0  0  0  0  0
  1  4  1  0  0  0  0
  2  3  1  0  0  0  0
  2 17  1  0  0  0  0
  4  3  2  0  0  0  0
  5  1  1  0  0  0  0
  6  2  2  0  0  0  0
  7  1  2  0  0  0  0
  7  6  1  0  0  0  0
  8 10  1  0  0  0  0
  9 15  2  0  0  0  0
  9 18  1  0  0  0  0
 10 19  1  0  0  0  0
 11 18  2  0  0  0  0
 12 11  2  0  0  0  0
 12 13  1  0  0  0  0
 14  8  2  0  0  0  0
 16 12  1  0  0  0  0
 17  8  1  0  0  0  0
 17 20  1  0  0  0  0
 19  9  1  0  0  0  0
 20 16  1  0  0  0  0
 21 24  1  0  0  0  0
 21 23  1  0  0  0  0
 22 27  1  0  0  0  0
 22 26  2  0  0  0  0
 24  7  1  1  0  0  0
 25 22  1  0  0  0  0
 26 24  1  0  0  0  0
 27 34  1  0  0  0  0
 27 21  2  0  0  0  0
 29 34  1  0  0  0  0
 30 29  1  0  0  0  0
 30 31  1  0  0  0  0
 31 36  1  1  0  0  0
 31 32  1  0  0  0  0
 32 33  1  0  0  0  0
 33 28  1  1  0  0  0
 34 33  1  0  0  0  0
 35 36  2  0  0  0  0
M  END
>  <MODEL>
4

>  <REMARK>
 VINA RESULT:      -7.7      3.285      6.764
  Name = 
  4 active torsions:
  status: ('A' for Active; 'I' for Inactive)
    1  A    between atoms: C_11  and  N_36
    2  A    between atoms: C_19  and  N_25
    3  A    between atoms: C_21  and  C_35
    4  A    between atoms: C_31  and  N_34
                            x       y       z     vdW  Elec       q    Type
                         _______ _______ _______ _____ _____    ______ ____

>  <TORSDO>
F 4

$$$$
=
 OpenBabel11062417133D

 36 39  0  0  1  0  0  0  0  0999 V2000
  188.9720  177.4630  138.2420 C   0  0  0  0  0  0  0  0  0  0  0  0
  188.6730  177.4290  141.0230 C   0  0  0  0  0  0  0  0  0  0  0  0
  189.8190  176.9160  140.4000 C   0  0  0  0  0  3  0  0  0  0  0  0
  189.9390  176.9400  139.0410 N   0  0  0  0  0  0  0  0  0  0  0  0
  189.1680  177.4910  136.8290 N   0  0  0  0  0  1  0  0  0  0  0  0
  187.6700  177.9670  140.2070 C   0  0  0  0  0  3  0  0  0  0  0  0
  187.8070  177.9980  138.8130 C   0  0  0  0  0  0  0  0  0  0  0  0
  189.6220  177.9640  143.2930 C   0  0  0  0  0  0  0  0  0  0  0  0
  188.9840  177.2430  146.7670 C   0  0  0  0  0  0  0  0  0  0  0  0
  190.0230  177.2290  144.5380 C   0  0  0  0  0  2  0  0  0  0  0  0
  186.8190  177.7520  145.7820 C   0  0  0  0  0  0  0  0  0  0  0  0
  186.1520  178.3530  144.8270 C   0  0  0  0  0  0  0  0  0  0  0  0
  185.2530  179.3580  145.1700 O   0  0  0  0  0  1  0  0  0  0  0  0
  190.2420  179.0100  142.9660 O   0  0  0  0  0  0  0  0  0  0  0  0
  189.6230  176.5550  147.6070 O   0  0  0  0  0  0  0  0  0  0  0  0
  186.3390  178.0060  143.3720 C   0  0  0  0  0  2  0  0  0  0  0  0
  188.5590  177.4630  142.4640 N   0  0  0  0  0  0  0  0  0  0  0  0
  187.5150  177.1570  146.7230 C   0  0  0  0  0  3  0  0  0  0  0  0
  189.7360  178.0660  145.7720 C   0  0  0  0  0  2  0  0  0  0  0  0
  187.3750  176.9040  143.1130 C   0  0  0  0  0  2  0  0  0  0  0  0
  185.3700  178.4610  138.6100 C   0  0  0  0  0  0  0  0  0  0  0  0
  185.3820  177.2710  136.7210 C   0  0  0  0  0  0  0  0  0  0  0  0
  185.0060  179.0460  139.9340 C   0  0  0  0  0  1  0  0  0  0  0  0
  186.7150  178.5840  137.9530 C   0  0  2  0  0  3  0  0  0  0  0  0
  184.9420  176.4610  135.7280 F   0  0  0  0  0  0  0  0  0  0  0  0
  186.5620  177.7970  136.7290 N   0  0  0  0  0  0  0  0  0  0  0  0
  184.6070  177.6670  137.8820 C   0  0  0  0  0  0  0  0  0  0  0  0
  182.3190  179.2480  137.6300 O   0  0  0  0  0  1  0  0  0  0  0  0
  183.1730  175.7660  138.5790 C   0  0  0  0  0  2  0  0  0  0  0  0
  182.1150  175.5960  139.6680 C   0  0  0  0  0  2  0  0  0  0  0  0
  180.7840  176.2380  139.2650 C   0  0  1  0  0  3  0  0  0  0  0  0
  180.9990  177.7160  138.9050 C   0  0  0  0  0  2  0  0  0  0  0  0
  182.0810  177.8840  137.8330 C   0  0  2  0  0  3  0  0  0  0  0  0
  183.3040  177.1800  138.2360 N   0  0  0  0  0  0  0  0  0  0  0  0
  178.9670  175.0910  138.2200 C   0  0  0  0  0  2  0  0  0  0  0  0
  180.1780  175.5300  138.1550 N   0  0  0  0  0  0  0  0  0  0  0  0
  1  7  2  0  0  0  0
  1  4  1  0  0  0  0
  2 17  1  0  0  0  0
  3  2  1  0  0  0  0
  4  3  2  0  0  0  0
  5  1  1  0  0  0  0
  6  2  2  0  0  0  0
  7  6  1  0  0  0  0
  8 10  1  0  0  0  0
  9 15  2  0  0  0  0
 10 19  1  0  0  0  0
 11 18  2  0  0  0  0
 12 13  1  0  0  0  0
 12 11  2  0  0  0  0
 14  8  2  0  0  0  0
 16 12  1  0  0  0  0
 17 20  1  0  0  0  0
 17  8  1  0  0  0  0
 18  9  1  0  0  0  0
 19  9  1  0  0  0  0
 20 16  1  0  0  0  0
 21 23  1  0  0  0  0
 22 26  2  0  0  0  0
 22 27  1  0  0  0  0
 24 21  1  0  0  0  0
 24  7  1  1  0  0  0
 25 22  1  0  0  0  0
 26 24  1  0  0  0  0
 27 34  1  0  0  0  0
 27 21  2  0  0  0  0
 29 30  1  0  0  0  0
 31 36  1  6  0  0  0
 31 30  1  0  0  0  0
 32 31  1  0  0  0  0
 33 28  1  1  0  0  0
 33 34  1  0  0  0  0
 33 32  1  0  0  0  0
 34 29  1  0  0  0  0
 36 35  2  0  0  0  0
M  END
>  <MODEL>
5

>  <REMARK>
 VINA RESULT:      -7.7      4.076      7.999
  Name = 
  4 active torsions:
  status: ('A' for Active; 'I' for Inactive)
    1  A    between atoms: C_11  and  N_36
    2  A    between atoms: C_19  and  N_25
    3  A    between atoms: C_21  and  C_35
    4  A    between atoms: C_31  and  N_34
                            x       y       z     vdW  Elec       q    Type
                         _______ _______ _______ _____ _____    ______ ____

>  <TORSDO>
F 4

$$$$
=
 OpenBabel11062417133D

 36 39  0  0  1  0  0  0  0  0999 V2000
  188.3340  177.8700  146.7750 C   0  0  0  0  0  0  0  0  0  0  0  0
  186.1660  178.0830  145.0200 C   0  0  0  0  0  0  0  0  0  0  0  0
  185.9900  178.0900  146.4110 C   0  0  0  0  0  3  0  0  0  0  0  0
  187.0630  177.9800  147.2460 N   0  0  0  0  0  0  0  0  0  0  0  0
  189.4200  177.7930  147.6970 N   0  0  0  0  0  1  0  0  0  0  0  0
  187.4710  177.9680  144.5260 C   0  0  0  0  0  3  0  0  0  0  0  0
  188.5680  177.8670  145.3910 C   0  0  0  0  0  0  0  0  0  0  0  0
  183.8950  179.0400  144.5000 C   0  0  0  0  0  0  0  0  0  0  0  0
  181.2230  178.6090  142.1180 C   0  0  0  0  0  0  0  0  0  0  0  0
  182.5110  178.5380  144.2130 C   0  0  0  0  0  2  0  0  0  0  0  0
  183.2820  178.5890  140.8240 C   0  0  0  0  0  0  0  0  0  0  0  0
  184.5410  178.9430  140.7420 C   0  0  0  0  0  0  0  0  0  0  0  0
  184.9310  179.7930  139.7130 O   0  0  0  0  0  1  0  0  0  0  0  0
  184.0430  180.1390  145.0940 O   0  0  0  0  0  0  0  0  0  0  0  0
  180.0550  178.1520  142.2490 O   0  0  0  0  0  0  0  0  0  0  0  0
  185.5750  178.4740  141.7340 C   0  0  0  0  0  2  0  0  0  0  0  0
  185.0430  178.2580  144.1260 N   0  0  0  0  0  0  0  0  0  0  0  0
  182.0190  178.2450  140.9360 C   0  0  0  0  0  3  0  0  0  0  0  0
  181.8090  179.4410  143.2130 C   0  0  0  0  0  2  0  0  0  0  0  0
  185.0230  177.5640  142.8400 C   0  0  0  0  0  2  0  0  0  0  0  0
  190.0230  178.1480  143.3920 C   0  0  0  0  0  0  0  0  0  0  0  0
  190.5650  175.9900  143.5810 C   0  0  0  0  0  0  0  0  0  0  0  0
  189.6440  179.4910  142.8600 C   0  0  0  0  0  1  0  0  0  0  0  0
  189.9660  177.7460  144.8380 C   0  0  2  0  0  3  0  0  0  0  0  0
  190.9260  174.7360  143.2180 F   0  0  0  0  0  0  0  0  0  0  0  0
  190.3750  176.3410  144.8090 N   0  0  0  0  0  0  0  0  0  0  0  0
  190.3550  177.0970  142.6650 C   0  0  0  0  0  0  0  0  0  0  0  0
  192.7440  177.1350  141.2200 O   0  0  0  0  0  1  0  0  0  0  0  0
  189.1170  176.7610  140.5420 C   0  0  0  0  0  2  0  0  0  0  0  0
  189.0880  177.5190  139.2150 C   0  0  0  0  0  2  0  0  0  0  0  0
  190.3160  177.2000  138.3580 C   0  0  1  0  0  3  0  0  0  0  0  0
  191.6010  177.4860  139.1500 C   0  0  0  0  0  2  0  0  0  0  0  0
  191.6130  176.7460  140.4920 C   0  0  2  0  0  3  0  0  0  0  0  0
  190.3770  177.0250  141.2320 N   0  0  0  0  0  0  0  0  0  0  0  0
  189.3900  175.3950  137.0960 C   0  0  0  0  0  2  0  0  0  0  0  0
  190.2950  175.8210  137.9090 N   0  0  0  0  0  0  0  0  0  0  0  0
  1  4  1  0  0  0  0
  1  5  1  0  0  0  0
  2  3  1  0  0  0  0
  3  4  2  0  0  0  0
  6  2  2  0  0  0  0
  6  7  1  0  0  0  0
  7  1  2  0  0  0  0
  8 14  2  0  0  0  0
  9 15  2  0  0  0  0
  9 19  1  0  0  0  0
 10  8  1  0  0  0  0
 11 18  2  0  0  0  0
 12 11  2  0  0  0  0
 12 16  1  0  0  0  0
 13 12  1  0  0  0  0
 16 20  1  0  0  0  0
 17  8  1  0  0  0  0
 17  2  1  0  0  0  0
 18  9  1  0  0  0  0
 19 10  1  0  0  0  0
 20 17  1  0  0  0  0
 21 24  1  0  0  0  0
 22 26  2  0  0  0  0
 23 21  1  0  0  0  0
 24  7  1  6  0  0  0
 25 22  1  0  0  0  0
 26 24  1  0  0  0  0
 27 21  2  0  0  0  0
 27 22  1  0  0  0  0
 29 34  1  0  0  0  0
 30 29  1  0  0  0  0
 31 36  1  1  0  0  0
 31 32  1  0  0  0  0
 31 30  1  0  0  0  0
 32 33  1  0  0  0  0
 33 28  1  1  0  0  0
 33 34  1  0  0  0  0
 34 27  1  0  0  0  0
 35 36  2  0  0  0  0
M  END
>  <MODEL>
6

>  <REMARK>
 VINA RESULT:      -7.7      1.565      1.946
  Name = 
  4 active torsions:
  status: ('A' for Active; 'I' for Inactive)
    1  A    between atoms: C_11  and  N_36
    2  A    between atoms: C_19  and  N_25
    3  A    between atoms: C_21  and  C_35
    4  A    between atoms: C_31  and  N_34
                            x       y       z     vdW  Elec       q    Type
                         _______ _______ _______ _____ _____    ______ ____

>  <TORSDO>
F 4

$$$$
=
 OpenBabel11062417133D

 36 39  0  0  1  0  0  0  0  0999 V2000
  183.1300  178.6740  141.7080 C   0  0  0  0  0  0  0  0  0  0  0  0
  185.6990  178.1240  142.6700 C   0  0  0  0  0  0  0  0  0  0  0  0
  184.6030  178.2610  143.5350 C   0  0  0  0  0  3  0  0  0  0  0  0
  183.3610  178.5340  143.0410 N   0  0  0  0  0  0  0  0  0  0  0  0
  181.8030  178.9250  141.2480 N   0  0  0  0  0  1  0  0  0  0  0  0
  185.4710  178.2700  141.2970 C   0  0  0  0  0  3  0  0  0  0  0  0
  184.1890  178.5390  140.7980 C   0  0  0  0  0  0  0  0  0  0  0  0
  188.2090  178.1420  142.4720 C   0  0  0  0  0  0  0  0  0  0  0  0
  191.0810  176.5050  143.9090 C   0  0  0  0  0  0  0  0  0  0  0  0
  189.3240  177.1520  142.3140 C   0  0  0  0  0  2  0  0  0  0  0  0
  189.6230  177.0580  145.7760 C   0  0  0  0  0  0  0  0  0  0  0  0
  188.6680  177.8220  146.2440 C   0  0  0  0  0  0  0  0  0  0  0  0
  188.9330  178.6230  147.3500 O   0  0  0  0  0  1  0  0  0  0  0  0
  188.3220  179.2870  141.9600 O   0  0  0  0  0  0  0  0  0  0  0  0
  191.9030  175.6830  143.4210 O   0  0  0  0  0  0  0  0  0  0  0  0
  187.2980  177.8750  145.6160 C   0  0  0  0  0  2  0  0  0  0  0  0
  187.0080  177.7780  143.1760 N   0  0  0  0  0  0  0  0  0  0  0  0
  190.5770  176.3050  145.2770 C   0  0  0  0  0  3  0  0  0  0  0  0
  190.5650  177.6180  143.0550 C   0  0  0  0  0  2  0  0  0  0  0  0
  187.1300  176.9710  144.3880 C   0  0  0  0  0  2  0  0  0  0  0  0
  183.8670  177.3550  138.6330 C   0  0  0  0  0  0  0  0  0  0  0  0
  185.6530  178.4480  137.8590 C   0  0  0  0  0  0  0  0  0  0  0  0
  182.8520  176.3050  138.9460 C   0  0  0  0  0  1  0  0  0  0  0  0
  183.9660  178.6890  139.3140 C   0  0  2  0  0  3  0  0  0  0  0  0
  186.7710  178.7030  137.1380 F   0  0  0  0  0  0  0  0  0  0  0  0
  185.1410  179.2970  138.6880 N   0  0  0  0  0  0  0  0  0  0  0  0
  184.8800  177.2210  137.7970 C   0  0  0  0  0  0  0  0  0  0  0  0
  183.4830  176.4370  135.5100 O   0  0  0  0  0  1  0  0  0  0  0  0
  186.4480  175.3310  137.4450 C   0  0  0  0  0  2  0  0  0  0  0  0
  186.2510  173.8280  137.2600 C   0  0  0  0  0  2  0  0  0  0  0  0
  185.7860  173.4910  135.8400 C   0  0  1  0  0  3  0  0  0  0  0  0
  184.5110  174.2780  135.5020 C   0  0  0  0  0  2  0  0  0  0  0  0
  184.7040  175.7830  135.7160 C   0  0  2  0  0  3  0  0  0  0  0  0
  185.2280  176.0380  137.0630 N   0  0  0  0  0  0  0  0  0  0  0  0
  187.9950  173.2350  134.9650 C   0  0  0  0  0  2  0  0  0  0  0  0
  186.8260  173.7720  134.8700 N   0  0  0  0  0  0  0  0  0  0  0  0
  1  4  1  0  0  0  0
  2 17  1  0  0  0  0
  2  3  1  0  0  0  0
  4  3  2  0  0  0  0
  5  1  1  0  0  0  0
  6  2  2  0  0  0  0
  7  6  1  0  0  0  0
  7  1  2  0  0  0  0
  8 17  1  0  0  0  0
  9 18  1  0  0  0  0
 10  8  1  0  0  0  0
 10 19  1  0  0  0  0
 11 12  2  0  0  0  0
 12 13  1  0  0  0  0
 14  8  2  0  0  0  0
 15  9  2  0  0  0  0
 16 12  1  0  0  0  0
 17 20  1  0  0  0  0
 18 11  2  0  0  0  0
 19  9  1  0  0  0  0
 20 16  1  0  0  0  0
 21 23  1  0  0  0  0
 21 24  1  0  0  0  0
 22 26  2  0  0  0  0
 24  7  1  1  0  0  0
 25 22  1  0  0  0  0
 26 24  1  0  0  0  0
 27 22  1  0  0  0  0
 27 21  2  0  0  0  0
 30 29  1  0  0  0  0
 31 36  1  6  0  0  0
 31 30  1  0  0  0  0
 32 33  1  0  0  0  0
 32 31  1  0  0  0  0
 33 28  1  1  0  0  0
 33 34  1  0  0  0  0
 34 29  1  0  0  0  0
 34 27  1  0  0  0  0
 36 35  2  0  0  0  0
M  END
>  <MODEL>
7

>  <REMARK>
 VINA RESULT:      -7.6      4.160      7.548
  Name = 
  4 active torsions:
  status: ('A' for Active; 'I' for Inactive)
    1  A    between atoms: C_11  and  N_36
    2  A    between atoms: C_19  and  N_25
    3  A    between atoms: C_21  and  C_35
    4  A    between atoms: C_31  and  N_34
                            x       y       z     vdW  Elec       q    Type
                         _______ _______ _______ _____ _____    ______ ____

>  <TORSDO>
F 4

$$$$
=
 OpenBabel11062417133D

 36 39  0  0  1  0  0  0  0  0999 V2000
  190.7710  176.8760  138.4510 C   0  0  0  0  0  0  0  0  0  0  0  0
  189.5430  177.1380  140.9510 C   0  0  0  0  0  0  0  0  0  0  0  0
  190.9370  177.1790  140.8080 C   0  0  0  0  0  3  0  0  0  0  0  0
  191.5120  177.0440  139.5780 N   0  0  0  0  0  0  0  0  0  0  0  0
  191.4260  176.7740  137.1880 N   0  0  0  0  0  1  0  0  0  0  0  0
  188.7720  176.9610  139.7950 C   0  0  0  0  0  3  0  0  0  0  0  0
  189.3700  176.8350  138.5350 C   0  0  0  0  0  0  0  0  0  0  0  0
  189.6530  177.8660  143.3590 C   0  0  0  0  0  0  0  0  0  0  0  0
  187.7360  177.5730  146.3980 C   0  0  0  0  0  0  0  0  0  0  0  0
  189.5050  177.2510  144.7190 C   0  0  0  0  0  2  0  0  0  0  0  0
  186.1330  178.0940  144.6440 C   0  0  0  0  0  0  0  0  0  0  0  0
  185.9160  178.6220  143.4650 C   0  0  0  0  0  0  0  0  0  0  0  0
  185.0530  179.7090  143.3680 O   0  0  0  0  0  1  0  0  0  0  0  0
  190.4440  178.8310  143.1990 O   0  0  0  0  0  0  0  0  0  0  0  0
  187.9600  176.9460  147.4680 O   0  0  0  0  0  0  0  0  0  0  0  0
  186.5830  178.1050  142.2160 C   0  0  0  0  0  2  0  0  0  0  0  0
  188.9190  177.3370  142.2400 N   0  0  0  0  0  0  0  0  0  0  0  0
  186.3820  177.5680  145.8220 C   0  0  0  0  0  3  0  0  0  0  0  0
  188.8710  178.2360  145.6870 C   0  0  0  0  0  2  0  0  0  0  0  0
  187.5330  176.9240  142.4490 C   0  0  0  0  0  2  0  0  0  0  0  0
  187.3130  177.5410  137.3260 C   0  0  0  0  0  0  0  0  0  0  0  0
  186.6560  175.4070  137.3600 C   0  0  0  0  0  0  0  0  0  0  0  0
  187.3490  179.0320  137.3970 C   0  0  0  0  0  1  0  0  0  0  0  0
  188.5200  176.6490  137.3030 C   0  0  2  0  0  3  0  0  0  0  0  0
  185.8310  174.3340  137.3970 F   0  0  0  0  0  0  0  0  0  0  0  0
  187.9420  175.3040  137.2910 N   0  0  0  0  0  0  0  0  0  0  0  0
  186.2260  176.7930  137.3830 C   0  0  0  0  0  0  0  0  0  0  0  0
  184.2470  176.3800  135.4570 O   0  0  0  0  0  1  0  0  0  0  0  0
  184.5200  177.8160  138.8660 C   0  0  0  0  0  2  0  0  0  0  0  0
  183.5160  178.9520  138.6790 C   0  0  0  0  0  2  0  0  0  0  0  0
  182.2990  178.5010  137.8650 C   0  0  1  0  0  3  0  0  0  0  0  0
  182.7530  177.9140  136.5200 C   0  0  0  0  0  2  0  0  0  0  0  0
  183.7810  176.7940  136.7110 C   0  0  2  0  0  3  0  0  0  0  0  0
  184.8810  177.2590  137.5640 N   0  0  0  0  0  0  0  0  0  0  0  0
  180.3270  177.1990  138.2130 C   0  0  0  0  0  2  0  0  0  0  0  0
  181.5110  177.5310  138.6000 N   0  0  0  0  0  0  0  0  0  0  0  0
  1  7  2  0  0  0  0
  1  4  1  0  0  0  0
  2 17  1  0  0  0  0
  3  2  1  0  0  0  0
  4  3  2  0  0  0  0
  5  1  1  0  0  0  0
  6  2  2  0  0  0  0
  7  6  1  0  0  0  0
  8 10  1  0  0  0  0
  9 15  2  0  0  0  0
 10 19  1  0  0  0  0
 11 18  2  0  0  0  0
 12 11  2  0  0  0  0
 13 12  1  0  0  0  0
 14  8  2  0  0  0  0
 16 20  1  0  0  0  0
 16 12  1  0  0  0  0
 17 20  1  0  0  0  0
 17  8  1  0  0  0  0
 18  9  1  0  0  0  0
 19  9  1  0  0  0  0
 21 27  2  0  0  0  0
 21 23  1  0  0  0  0
 22 27  1  0  0  0  0
 22 25  1  0  0  0  0
 24 21  1  0  0  0  0
 24  7  1  1  0  0  0
 26 24  1  0  0  0  0
 26 22  2  0  0  0  0
 27 34  1  0  0  0  0
 30 29  1  0  0  0  0
 31 36  1  1  0  0  0
 31 30  1  0  0  0  0
 32 33  1  0  0  0  0
 32 31  1  0  0  0  0
 33 28  1  6  0  0  0
 33 34  1  0  0  0  0
 34 29  1  0  0  0  0
 35 36  2  0  0  0  0
M  END
>  <MODEL>
8

>  <REMARK>
 VINA RESULT:      -7.5      3.684      7.226
  Name = 
  4 active torsions:
  status: ('A' for Active; 'I' for Inactive)
    1  A    between atoms: C_11  and  N_36
    2  A    between atoms: C_19  and  N_25
    3  A    between atoms: C_21  and  C_35
    4  A    between atoms: C_31  and  N_34
                            x       y       z     vdW  Elec       q    Type
                         _______ _______ _______ _____ _____    ______ ____

>  <TORSDO>
F 4

$$$$
=
 OpenBabel11062417133D

 36 39  0  0  1  0  0  0  0  0999 V2000
  190.5810  177.0950  139.1330 C   0  0  0  0  0  0  0  0  0  0  0  0
  189.3700  177.2800  141.6480 C   0  0  0  0  0  0  0  0  0  0  0  0
  190.5940  176.6190  141.4670 C   0  0  0  0  0  3  0  0  0  0  0  0
  191.1610  176.5390  140.2290 N   0  0  0  0  0  0  0  0  0  0  0  0
  191.2380  177.0090  137.8700 N   0  0  0  0  0  1  0  0  0  0  0  0
  188.7630  177.8530  140.5240 C   0  0  0  0  0  3  0  0  0  0  0  0
  189.3600  177.7750  139.2590 C   0  0  0  0  0  0  0  0  0  0  0  0
  189.5340  177.9680  144.0650 C   0  0  0  0  0  0  0  0  0  0  0  0
  187.7550  177.5170  147.1670 C   0  0  0  0  0  0  0  0  0  0  0  0
  189.4720  177.3220  145.4170 C   0  0  0  0  0  2  0  0  0  0  0  0
  186.0590  177.9810  145.4860 C   0  0  0  0  0  0  0  0  0  0  0  0
  185.7690  178.5190  144.3270 C   0  0  0  0  0  0  0  0  0  0  0  0
  184.8460  179.5590  144.2850 O   0  0  0  0  0  1  0  0  0  0  0  0
  190.2660  178.9780  143.8950 O   0  0  0  0  0  0  0  0  0  0  0  0
  188.0540  176.8840  148.2160 O   0  0  0  0  0  0  0  0  0  0  0  0
  186.4140  178.0620  143.0430 C   0  0  0  0  0  2  0  0  0  0  0  0
  188.7870  177.4220  142.9640 N   0  0  0  0  0  0  0  0  0  0  0  0
  186.3820  177.4480  146.6430 C   0  0  0  0  0  3  0  0  0  0  0  0
  188.8250  178.2530  146.4280 C   0  0  0  0  0  2  0  0  0  0  0  0
  187.4350  176.9290  143.2170 C   0  0  0  0  0  2  0  0  0  0  0  0
  187.2520  177.9830  137.9530 C   0  0  0  0  0  0  0  0  0  0  0  0
  188.3740  177.2420  136.1710 C   0  0  0  0  0  0  0  0  0  0  0  0
  186.2080  178.2210  138.9930 C   0  0  0  0  0  1  0  0  0  0  0  0
  188.6890  178.4020  138.0620 C   0  0  2  0  0  3  0  0  0  0  0  0
  188.6170  176.6190  134.9930 F   0  0  0  0  0  0  0  0  0  0  0  0
  189.2820  177.8870  136.8260 N   0  0  0  0  0  0  0  0  0  0  0  0
  187.0900  177.2830  136.8460 C   0  0  0  0  0  0  0  0  0  0  0  0
  186.8060  174.5290  137.2110 O   0  0  0  0  0  1  0  0  0  0  0  0
  184.7630  177.3740  135.9910 C   0  0  0  0  0  2  0  0  0  0  0  0
  184.0230  176.6220  134.8850 C   0  0  0  0  0  2  0  0  0  0  0  0
  183.6290  175.2100  135.3310 C   0  0  1  0  0  3  0  0  0  0  0  0
  184.8700  174.4430  135.8100 C   0  0  0  0  0  2  0  0  0  0  0  0
  185.6250  175.2130  136.8980 C   0  0  2  0  0  3  0  0  0  0  0  0
  185.9030  176.5820  136.4470 N   0  0  0  0  0  0  0  0  0  0  0  0
  181.4550  174.7450  136.2040 C   0  0  0  0  0  2  0  0  0  0  0  0
  182.6260  175.2540  136.3770 N   0  0  0  0  0  0  0  0  0  0  0  0
  1  7  2  0  0  0  0
  1  4  1  0  0  0  0
  2 17  1  0  0  0  0
  3  2  1  0  0  0  0
  4  3  2  0  0  0  0
  5  1  1  0  0  0  0
  6  2  2  0  0  0  0
  7  6  1  0  0  0  0
  8 10  1  0  0  0  0
  9 15  2  0  0  0  0
 10 19  1  0  0  0  0
 11 18  2  0  0  0  0
 12 11  2  0  0  0  0
 13 12  1  0  0  0  0
 14  8  2  0  0  0  0
 16 20  1  0  0  0  0
 16 12  1  0  0  0  0
 17 20  1  0  0  0  0
 17  8  1  0  0  0  0
 18  9  1  0  0  0  0
 19  9  1  0  0  0  0
 21 24  1  0  0  0  0
 21 23  1  0  0  0  0
 22 26  2  0  0  0  0
 22 27  1  0  0  0  0
 24  7  1  1  0  0  0
 25 22  1  0  0  0  0
 26 24  1  0  0  0  0
 27 21  2  0  0  0  0
 29 34  1  0  0  0  0
 30 31  1  0  0  0  0
 30 29  1  0  0  0  0
 31 32  1  0  0  0  0
 31 36  1  1  0  0  0
 32 33  1  0  0  0  0
 33 28  1  6  0  0  0
 34 27  1  0  0  0  0
 34 33  1  0  0  0  0
 35 36  2  0  0  0  0
M  END
>  <MODEL>
9

>  <REMARK>
 VINA RESULT:      -7.3      3.962      6.937
  Name = 
  4 active torsions:
  status: ('A' for Active; 'I' for Inactive)
    1  A    between atoms: C_11  and  N_36
    2  A    between atoms: C_19  and  N_25
    3  A    between atoms: C_21  and  C_35
    4  A    between atoms: C_31  and  N_34
                            x       y       z     vdW  Elec       q    Type
                         _______ _______ _______ _____ _____    ______ ____

>  <TORSDO>
F 4

$$$$
