=
 OpenBabel11062412333D

 33 35  0  0  1  0  0  0  0  0999 V2000
  186.2230  178.0420  145.2620 C   0  0  0  0  0  0  0  0  0  0  0  0
  183.9830  178.9520  145.5280 C   0  0  0  0  0  3  0  0  0  0  0  0
  185.1960  178.5470  146.0720 C   0  0  0  0  0  3  0  0  0  0  0  0
  187.4580  177.6120  145.8190 C   0  0  0  0  0  0  0  0  0  0  0  0
  187.0150  177.4110  143.0480 C   0  0  0  0  0  3  0  0  0  0  0  0
  188.4380  177.0880  144.9660 C   0  0  0  0  0  3  0  0  0  0  0  0
  188.2240  176.9920  143.5940 C   0  0  0  0  0  0  0  0  0  0  0  0
  186.0040  177.9500  143.8560 C   0  0  0  0  0  0  0  0  0  0  0  0
  183.7720  178.8650  144.1550 C   0  0  0  0  0  3  0  0  0  0  0  0
  184.7670  178.3750  143.2960 C   0  0  0  0  0  0  0  0  0  0  0  0
  184.4660  178.3300  141.8380 C   0  0  0  0  0  0  0  0  0  0  0  0
  183.9160  177.5020  138.9820 C   0  0  1  0  0  3  0  0  0  0  0  0
  184.9200  178.9760  139.2770 P   0  0  2  0  0  0  0  0  0  0  0  0
  185.2630  178.9200  140.9930 N   0  0  0  0  0  0  0  0  0  0  0  0
  184.1290  180.2250  138.9530 O   0  0  0  0  0  0  0  0  0  0  0  0
  183.2140  177.6620  141.3810 C   0  0  0  0  0  3  0  0  0  0  0  0
  182.9450  177.3260  140.1110 C   0  0  0  0  0  3  0  0  0  0  0  0
  182.6140  177.6890  136.6580 C   0  0  0  0  0  0  0  0  0  0  0  0
  183.2040  177.6040  137.7060 C   0  0  0  0  0  0  0  0  0  0  0  0
  181.2130  179.0040  135.1080 C   0  0  0  0  0  1  0  0  0  0  0  0
  181.9290  177.7880  135.4420 N   0  0  0  0  0  2  0  0  0  0  0  0
  186.3490  178.9180  138.3640 O   0  0  0  0  0  0  0  0  0  0  0  0
  188.2330  178.6450  139.6180 O   0  0  0  0  0  1  0  0  0  0  0  0
  187.7050  176.9980  137.9900 C   0  0  0  0  0  1  0  0  0  0  0  0
  187.1680  177.9860  139.0060 C   0  0  2  0  0  3  0  0  0  0  0  0
  187.5150  178.8150  148.0260 O   0  0  0  0  0  1  0  0  0  0  0  0
  188.3030  176.6860  147.8440 O   0  0  0  0  0  0  0  0  0  0  0  0
  187.7770  177.6770  147.2710 C   0  0  0  0  0  0  0  0  0  0  0  0
  189.2710  176.4010  142.7180 C   0  0  0  0  0  2  0  0  0  0  0  0
  190.4580  176.2540  143.4380 O   0  0  0  0  0  0  0  0  0  0  0  0
  191.4490  177.5070  142.8860 P   0  0  0  0  0  0  0  0  0  0  0  0
  192.0750  177.4250  141.5120 O   0  0  0  0  0  0  0  0  0  0  0  0
  191.7060  178.7120  143.7620 O   0  0  0  0  0  0  0  0  0  0  0  0
  1  4  1  0  0  0  0
  1  3  2  0  0  0  0
  2  3  1  0  0  0  0
  4 28  1  0  0  0  0
  5  7  2  0  0  0  0
  5  8  1  0  0  0  0
  6  4  2  0  0  0  0
  7  6  1  0  0  0  0
  8  1  1  0  0  0  0
  9  2  2  0  0  0  0
 10  8  2  0  0  0  0
 10  9  1  0  0  0  0
 11 10  1  0  0  0  0
 12 19  1  6  0  0  0
 12 13  1  0  0  0  0
 12 17  1  0  0  0  0
 13 15  2  6  0  0  0
 13 14  1  0  0  0  0
 14 11  2  0  0  0  0
 16 11  1  0  0  0  0
 17 16  2  0  0  0  0
 18 19  3  0  0  0  0
 20 21  1  0  0  0  0
 21 18  1  0  0  0  0
 22 25  1  0  0  0  0
 22 13  1  0  0  0  0
 25 24  1  6  0  0  0
 25 23  1  0  0  0  0
 28 27  2  0  0  0  0
 28 26  1  0  0  0  0
 29 30  1  0  0  0  0
 29  7  1  0  0  0  0
 31 30  1  0  0  0  0
 31 33  2  0  0  0  0
 32 31  2  0  0  0  0
M  END
>  <MODEL>
1

>  <REMARK>
 VINA RESULT:      -9.1      0.000      0.000
  Name = 
  9 active torsions:
  status: ('A' for Active; 'I' for Inactive)
    1  A    between atoms: O_4  and  P_14
    2  A    between atoms: O_4  and  C_29
    3  A    between atoms: P_7  and  O_17
    4  A    between atoms: C_9  and  O_17
    5  A    between atoms: C_9  and  C_24
    6  A    between atoms: C_10  and  C_28
    7  A    between atoms: C_11  and  C_25
    8  A    between atoms: C_12  and  C_32
    9  A    between atoms: N_21  and  C_23
                            x       y       z     vdW  Elec       q    Type
                         _______ _______ _______ _____ _____    ______ ____

>  <TORSDO>
F 9

$$$$
=
 OpenBabel11062412333D

 33 35  0  0  1  0  0  0  0  0999 V2000
  189.3880  177.1950  146.5750 C   0  0  0  0  0  0  0  0  0  0  0  0
  188.0150  177.9580  148.4320 C   0  0  0  0  0  3  0  0  0  0  0  0
  189.2150  177.4540  147.9420 C   0  0  0  0  0  3  0  0  0  0  0  0
  190.6080  176.6640  146.0750 C   0  0  0  0  0  0  0  0  0  0  0  0
  188.4640  177.1660  144.3220 C   0  0  0  0  0  3  0  0  0  0  0  0
  190.7160  176.3960  144.7040 C   0  0  0  0  0  3  0  0  0  0  0  0
  189.6590  176.6480  143.8330 C   0  0  0  0  0  0  0  0  0  0  0  0
  188.3060  177.4600  145.6840 C   0  0  0  0  0  0  0  0  0  0  0  0
  186.9620  178.2190  147.5610 C   0  0  0  0  0  3  0  0  0  0  0  0
  187.0820  177.9860  146.1840 C   0  0  0  0  0  0  0  0  0  0  0  0
  185.9120  178.3080  145.3190 C   0  0  0  0  0  0  0  0  0  0  0  0
  183.2160  178.4110  143.9550 C   0  0  1  0  0  3  0  0  0  0  0  0
  184.7030  178.6410  142.9510 P   0  0  2  0  0  0  0  0  0  0  0  0
  186.0120  178.1970  144.0250 N   0  0  0  0  0  0  0  0  0  0  0  0
  184.8430  180.0920  142.5440 O   0  0  0  0  0  0  0  0  0  0  0  0
  184.6650  178.8170  145.9570 C   0  0  0  0  0  3  0  0  0  0  0  0
  183.4740  178.9020  145.3480 C   0  0  0  0  0  3  0  0  0  0  0  0
  181.1360  179.6990  142.8850 C   0  0  0  0  0  0  0  0  0  0  0  0
  182.0760  179.1160  143.3650 C   0  0  0  0  0  0  0  0  0  0  0  0
  179.8750  180.4160  140.8870 C   0  0  0  0  0  1  0  0  0  0  0  0
  180.0450  180.3740  142.3270 N   0  0  0  0  0  2  0  0  0  0  0  0
  184.6630  177.6360  141.5850 O   0  0  0  0  0  0  0  0  0  0  0  0
  182.7880  177.5770  140.2880 O   0  0  0  0  0  1  0  0  0  0  0  0
  184.7560  178.5630  139.3950 C   0  0  0  0  0  1  0  0  0  0  0  0
  183.9120  178.3280  140.6310 C   0  0  2  0  0  3  0  0  0  0  0  0
  192.1480  177.1810  147.9930 O   0  0  0  0  0  1  0  0  0  0  0  0
  192.4980  175.3500  146.6840 O   0  0  0  0  0  0  0  0  0  0  0  0
  191.7910  176.3640  146.9260 C   0  0  0  0  0  0  0  0  0  0  0  0
  189.7930  176.3230  142.3880 C   0  0  0  0  0  2  0  0  0  0  0  0
  190.2270  177.4510  141.6900 O   0  0  0  0  0  0  0  0  0  0  0  0
  189.0070  177.7460  140.5570 P   0  0  0  0  0  0  0  0  0  0  0  0
  189.1170  177.1710  139.1630 O   0  0  0  0  0  0  0  0  0  0  0  0
  187.8050  178.5800  140.9380 O   0  0  0  0  0  0  0  0  0  0  0  0
  1  3  2  0  0  0  0
  3  2  1  0  0  0  0
  4  1  1  0  0  0  0
  4 28  1  0  0  0  0
  5  8  1  0  0  0  0
  6  4  2  0  0  0  0
  7  5  2  0  0  0  0
  7  6  1  0  0  0  0
  8 10  2  0  0  0  0
  8  1  1  0  0  0  0
  9  2  2  0  0  0  0
 10  9  1  0  0  0  0
 11 16  1  0  0  0  0
 11 10  1  0  0  0  0
 12 19  1  6  0  0  0
 12 17  1  0  0  0  0
 13 15  2  6  0  0  0
 13 12  1  0  0  0  0
 13 14  1  0  0  0  0
 14 11  2  0  0  0  0
 17 16  2  0  0  0  0
 18 19  3  0  0  0  0
 20 21  1  0  0  0  0
 21 18  1  0  0  0  0
 22 13  1  0  0  0  0
 23 25  1  0  0  0  0
 25 24  1  6  0  0  0
 25 22  1  0  0  0  0
 27 28  2  0  0  0  0
 28 26  1  0  0  0  0
 29  7  1  0  0  0  0
 30 29  1  0  0  0  0
 31 33  2  0  0  0  0
 31 30  1  0  0  0  0
 32 31  2  0  0  0  0
M  END
>  <MODEL>
2

>  <REMARK>
 VINA RESULT:      -8.9      2.806      4.347
  Name = 
  9 active torsions:
  status: ('A' for Active; 'I' for Inactive)
    1  A    between atoms: O_4  and  P_14
    2  A    between atoms: O_4  and  C_29
    3  A    between atoms: P_7  and  O_17
    4  A    between atoms: C_9  and  O_17
    5  A    between atoms: C_9  and  C_24
    6  A    between atoms: C_10  and  C_28
    7  A    between atoms: C_11  and  C_25
    8  A    between atoms: C_12  and  C_32
    9  A    between atoms: N_21  and  C_23
                            x       y       z     vdW  Elec       q    Type
                         _______ _______ _______ _____ _____    ______ ____

>  <TORSDO>
F 9

$$$$
=
 OpenBabel11062412333D

 33 35  0  0  1  0  0  0  0  0999 V2000
  182.5730  178.8360  142.1120 C   0  0  0  0  0  0  0  0  0  0  0  0
  182.2820  178.9120  144.5250 C   0  0  0  0  0  3  0  0  0  0  0  0
  181.7620  179.0200  143.2410 C   0  0  0  0  0  3  0  0  0  0  0  0
  182.0460  178.9620  140.7980 C   0  0  0  0  0  0  0  0  0  0  0  0
  184.7740  178.3820  141.1740 C   0  0  0  0  0  3  0  0  0  0  0  0
  182.9080  178.7970  139.7050 C   0  0  0  0  0  3  0  0  0  0  0  0
  184.2580  178.5050  139.8880 C   0  0  0  0  0  0  0  0  0  0  0  0
  183.9530  178.5300  142.3010 C   0  0  0  0  0  0  0  0  0  0  0  0
  183.6280  178.6100  144.7080 C   0  0  0  0  0  3  0  0  0  0  0  0
  184.4840  178.4090  143.6160 C   0  0  0  0  0  0  0  0  0  0  0  0
  185.9070  178.0730  143.9000 C   0  0  0  0  0  0  0  0  0  0  0  0
  188.7890  178.0590  144.8150 C   0  0  1  0  0  3  0  0  0  0  0  0
  188.3970  177.3900  143.1820 P   0  0  2  0  0  0  0  0  0  0  0  0
  186.7350  177.8700  142.9140 N   0  0  0  0  0  0  0  0  0  0  0  0
  188.4990  175.8800  143.1940 O   0  0  0  0  0  0  0  0  0  0  0  0
  186.3400  177.9120  145.3170 C   0  0  0  0  0  3  0  0  0  0  0  0
  187.6150  177.8660  145.7280 C   0  0  0  0  0  3  0  0  0  0  0  0
  190.9640  176.8830  145.8230 C   0  0  0  0  0  0  0  0  0  0  0  0
  189.9810  177.4130  145.3700 C   0  0  0  0  0  0  0  0  0  0  0  0
  192.1080  175.7880  147.7180 C   0  0  0  0  0  1  0  0  0  0  0  0
  192.1050  176.2660  146.3480 N   0  0  0  0  0  2  0  0  0  0  0  0
  189.4230  178.0510  142.0030 O   0  0  0  0  0  0  0  0  0  0  0  0
  191.5690  177.2980  142.1680 O   0  0  0  0  0  1  0  0  0  0  0  0
  190.3860  176.9230  140.1420 C   0  0  0  0  0  1  0  0  0  0  0  0
  190.3030  177.0240  141.6520 C   0  0  2  0  0  3  0  0  0  0  0  0
  179.6610  178.2690  140.4140 O   0  0  0  0  0  1  0  0  0  0  0  0
  180.2600  180.4650  140.3250 O   0  0  0  0  0  0  0  0  0  0  0  0
  180.6210  179.2710  140.5040 C   0  0  0  0  0  0  0  0  0  0  0  0
  185.1540  178.3670  138.7090 C   0  0  0  0  0  2  0  0  0  0  0  0
  186.4750  178.6050  139.0920 O   0  0  0  0  0  0  0  0  0  0  0  0
  187.3960  178.1530  137.7480 P   0  0  0  0  0  0  0  0  0  0  0  0
  188.0270  179.2140  136.8740 O   0  0  0  0  0  0  0  0  0  0  0  0
  187.5930  176.6910  137.4220 O   0  0  0  0  0  0  0  0  0  0  0  0
  1  8  1  0  0  0  0
  1  3  1  0  0  0  0
  2  9  1  0  0  0  0
  3  2  2  0  0  0  0
  4  1  2  0  0  0  0
  5  8  2  0  0  0  0
  6  7  2  0  0  0  0
  6  4  1  0  0  0  0
  7  5  1  0  0  0  0
  8 10  1  0  0  0  0
 10 11  1  0  0  0  0
 10  9  2  0  0  0  0
 11 16  1  0  0  0  0
 12 19  1  1  0  0  0
 12 17  1  0  0  0  0
 13 15  2  1  0  0  0
 13 12  1  0  0  0  0
 14 13  1  0  0  0  0
 14 11  2  0  0  0  0
 16 17  2  0  0  0  0
 18 21  1  0  0  0  0
 19 18  3  0  0  0  0
 21 20  1  0  0  0  0
 22 13  1  0  0  0  0
 25 24  1  6  0  0  0
 25 22  1  0  0  0  0
 25 23  1  0  0  0  0
 26 28  1  0  0  0  0
 27 28  2  0  0  0  0
 28  4  1  0  0  0  0
 29 30  1  0  0  0  0
 29  7  1  0  0  0  0
 31 30  1  0  0  0  0
 32 31  2  0  0  0  0
 33 31  2  0  0  0  0
M  END
>  <MODEL>
3

>  <REMARK>
 VINA RESULT:      -8.7      2.789      7.532
  Name = 
  9 active torsions:
  status: ('A' for Active; 'I' for Inactive)
    1  A    between atoms: O_4  and  P_14
    2  A    between atoms: O_4  and  C_29
    3  A    between atoms: P_7  and  O_17
    4  A    between atoms: C_9  and  O_17
    5  A    between atoms: C_9  and  C_24
    6  A    between atoms: C_10  and  C_28
    7  A    between atoms: C_11  and  C_25
    8  A    between atoms: C_12  and  C_32
    9  A    between atoms: N_21  and  C_23
                            x       y       z     vdW  Elec       q    Type
                         _______ _______ _______ _____ _____    ______ ____

>  <TORSDO>
F 9

$$$$
=
 OpenBabel11062412333D

 33 35  0  0  1  0  0  0  0  0999 V2000
  186.5670  177.9670  145.5020 C   0  0  0  0  0  0  0  0  0  0  0  0
  184.3780  178.9000  146.0070 C   0  0  0  0  0  3  0  0  0  0  0  0
  185.6320  178.4630  146.4210 C   0  0  0  0  0  3  0  0  0  0  0  0
  187.8430  177.5040  145.9260 C   0  0  0  0  0  0  0  0  0  0  0  0
  187.1330  177.3860  143.2060 C   0  0  0  0  0  3  0  0  0  0  0  0
  188.7280  176.9910  144.9690 C   0  0  0  0  0  3  0  0  0  0  0  0
  188.3810  176.9350  143.6210 C   0  0  0  0  0  0  0  0  0  0  0  0
  186.2130  177.9160  144.1210 C   0  0  0  0  0  0  0  0  0  0  0  0
  184.0360  178.8530  144.6590 C   0  0  0  0  0  3  0  0  0  0  0  0
  184.9350  178.3730  143.6960 C   0  0  0  0  0  0  0  0  0  0  0  0
  184.4940  178.3730  142.2720 C   0  0  0  0  0  0  0  0  0  0  0  0
  183.3110  177.7090  139.5700 C   0  0  1  0  0  3  0  0  0  0  0  0
  184.9240  178.5250  139.6310 P   0  0  2  0  0  0  0  0  0  0  0  0
  185.3800  178.4360  141.3190 N   0  0  0  0  0  0  0  0  0  0  0  0
  184.7970  179.9730  139.2100 O   0  0  0  0  0  0  0  0  0  0  0  0
  183.0340  178.3680  141.9700 C   0  0  0  0  0  3  0  0  0  0  0  0
  182.5020  178.1120  140.7670 C   0  0  0  0  0  3  0  0  0  0  0  0
  182.0210  178.3340  137.3170 C   0  0  0  0  0  0  0  0  0  0  0  0
  182.6020  178.0500  138.3350 C   0  0  0  0  0  0  0  0  0  0  0  0
  179.9100  178.8630  136.1520 C   0  0  0  0  0  1  0  0  0  0  0  0
  181.3470  178.6650  136.1370 N   0  0  0  0  0  2  0  0  0  0  0  0
  186.0430  177.7110  138.6500 O   0  0  0  0  0  0  0  0  0  0  0  0
  185.4130  177.5010  136.4680 O   0  0  0  0  0  1  0  0  0  0  0  0
  187.3950  178.7120  136.9660 C   0  0  0  0  0  1  0  0  0  0  0  0
  185.9910  178.3520  137.4090 C   0  0  2  0  0  3  0  0  0  0  0  0
  188.1530  176.4200  148.1720 O   0  0  0  0  0  1  0  0  0  0  0  0
  188.8360  178.5630  147.8140 O   0  0  0  0  0  0  0  0  0  0  0  0
  188.3020  177.5250  147.3420 C   0  0  0  0  0  0  0  0  0  0  0  0
  189.3300  176.3540  142.6340 C   0  0  0  0  0  2  0  0  0  0  0  0
  190.3500  177.2690  142.3680 O   0  0  0  0  0  0  0  0  0  0  0  0
  190.5610  177.1960  140.6920 P   0  0  0  0  0  0  0  0  0  0  0  0
  191.9450  177.3340  140.0980 O   0  0  0  0  0  0  0  0  0  0  0  0
  189.3680  176.9890  139.7880 O   0  0  0  0  0  0  0  0  0  0  0  0
  1  4  1  0  0  0  0
  1  3  2  0  0  0  0
  2  3  1  0  0  0  0
  4 28  1  0  0  0  0
  5  7  2  0  0  0  0
  5  8  1  0  0  0  0
  6  4  2  0  0  0  0
  7  6  1  0  0  0  0
  8  1  1  0  0  0  0
  9  2  2  0  0  0  0
 10  8  2  0  0  0  0
 10  9  1  0  0  0  0
 11 10  1  0  0  0  0
 12 19  1  6  0  0  0
 12 13  1  0  0  0  0
 12 17  1  0  0  0  0
 13 15  2  6  0  0  0
 13 14  1  0  0  0  0
 14 11  2  0  0  0  0
 16 11  1  0  0  0  0
 17 16  2  0  0  0  0
 18 19  3  0  0  0  0
 21 20  1  0  0  0  0
 21 18  1  0  0  0  0
 22 13  1  0  0  0  0
 23 25  1  0  0  0  0
 25 24  1  6  0  0  0
 25 22  1  0  0  0  0
 28 27  2  0  0  0  0
 28 26  1  0  0  0  0
 29  7  1  0  0  0  0
 30 29  1  0  0  0  0
 31 30  1  0  0  0  0
 32 31  2  0  0  0  0
 33 31  2  0  0  0  0
M  END
>  <MODEL>
4

>  <REMARK>
 VINA RESULT:      -8.3      1.168      1.616
  Name = 
  9 active torsions:
  status: ('A' for Active; 'I' for Inactive)
    1  A    between atoms: O_4  and  P_14
    2  A    between atoms: O_4  and  C_29
    3  A    between atoms: P_7  and  O_17
    4  A    between atoms: C_9  and  O_17
    5  A    between atoms: C_9  and  C_24
    6  A    between atoms: C_10  and  C_28
    7  A    between atoms: C_11  and  C_25
    8  A    between atoms: C_12  and  C_32
    9  A    between atoms: N_21  and  C_23
                            x       y       z     vdW  Elec       q    Type
                         _______ _______ _______ _____ _____    ______ ____

>  <TORSDO>
F 9

$$$$
=
 OpenBabel11062412333D

 33 35  0  0  1  0  0  0  0  0999 V2000
  186.2420  178.5040  144.3370 C   0  0  0  0  0  0  0  0  0  0  0  0
  184.7360  179.1420  142.5370 C   0  0  0  0  0  3  0  0  0  0  0  0
  185.0180  179.0220  143.8930 C   0  0  0  0  0  3  0  0  0  0  0  0
  186.5250  178.3650  145.7230 C   0  0  0  0  0  0  0  0  0  0  0  0
  188.4180  177.5460  143.8090 C   0  0  0  0  0  3  0  0  0  0  0  0
  187.7540  177.8140  146.1100 C   0  0  0  0  0  3  0  0  0  0  0  0
  188.6950  177.4120  145.1660 C   0  0  0  0  0  0  0  0  0  0  0  0
  187.2080  178.0990  143.3680 C   0  0  0  0  0  0  0  0  0  0  0  0
  185.6800  178.7490  141.5930 C   0  0  0  0  0  3  0  0  0  0  0  0
  186.9250  178.2320  141.9800 C   0  0  0  0  0  0  0  0  0  0  0  0
  187.8840  177.8510  140.9060 C   0  0  0  0  0  0  0  0  0  0  0  0
  190.2620  177.5970  139.0550 C   0  0  1  0  0  3  0  0  0  0  0  0
  188.6000  177.4970  138.3480 P   0  0  2  0  0  0  0  0  0  0  0  0
  187.5520  178.0040  139.6550 N   0  0  0  0  0  0  0  0  0  0  0  0
  188.2800  176.0710  137.9560 O   0  0  0  0  0  0  0  0  0  0  0  0
  189.1880  177.2400  141.2890 C   0  0  0  0  0  3  0  0  0  0  0  0
  190.2350  177.0880  140.4650 C   0  0  0  0  0  3  0  0  0  0  0  0
  192.0020  176.2010  137.5880 C   0  0  0  0  0  0  0  0  0  0  0  0
  191.2160  176.8290  138.2510 C   0  0  0  0  0  0  0  0  0  0  0  0
  193.9590  176.1610  136.0820 C   0  0  0  0  0  1  0  0  0  0  0  0
  192.9140  175.4720  136.8160 N   0  0  0  0  0  2  0  0  0  0  0  0
  188.4570  178.5330  137.0110 O   0  0  0  0  0  0  0  0  0  0  0  0
  189.3450  177.7820  135.0500 O   0  0  0  0  0  1  0  0  0  0  0  0
  186.9990  178.1330  135.1730 C   0  0  0  0  0  1  0  0  0  0  0  0
  188.2500  177.6990  135.9090 C   0  0  2  0  0  3  0  0  0  0  0  0
  185.8640  179.8260  147.6590 O   0  0  0  0  0  1  0  0  0  0  0  0
  184.5040  178.1360  146.9620 O   0  0  0  0  0  0  0  0  0  0  0  0
  185.5840  178.7660  146.8030 C   0  0  0  0  0  0  0  0  0  0  0  0
  189.9770  176.8010  145.6080 C   0  0  0  0  0  2  0  0  0  0  0  0
  190.0220  176.7590  147.0020 O   0  0  0  0  0  0  0  0  0  0  0  0
  191.6220  176.3530  147.3640 P   0  0  0  0  0  0  0  0  0  0  0  0
  192.3500  177.0710  148.4790 O   0  0  0  0  0  0  0  0  0  0  0  0
  192.3250  175.2690  146.5790 O   0  0  0  0  0  0  0  0  0  0  0  0
  1  4  1  0  0  0  0
  2  3  1  0  0  0  0
  3  1  2  0  0  0  0
  4  6  2  0  0  0  0
  4 28  1  0  0  0  0
  5  7  2  0  0  0  0
  7 29  1  0  0  0  0
  7  6  1  0  0  0  0
  8  5  1  0  0  0  0
  8  1  1  0  0  0  0
  9 10  1  0  0  0  0
  9  2  2  0  0  0  0
 10  8  2  0  0  0  0
 11 16  1  0  0  0  0
 11 10  1  0  0  0  0
 12 19  1  6  0  0  0
 12 17  1  0  0  0  0
 13 15  2  6  0  0  0
 13 12  1  0  0  0  0
 13 14  1  0  0  0  0
 14 11  2  0  0  0  0
 17 16  2  0  0  0  0
 18 19  3  0  0  0  0
 20 21  1  0  0  0  0
 21 18  1  0  0  0  0
 22 13  1  0  0  0  0
 23 25  1  0  0  0  0
 25 24  1  6  0  0  0
 25 22  1  0  0  0  0
 28 27  2  0  0  0  0
 28 26  1  0  0  0  0
 29 30  1  0  0  0  0
 30 31  1  0  0  0  0
 31 32  2  0  0  0  0
 33 31  2  0  0  0  0
M  END
>  <MODEL>
5

>  <REMARK>
 VINA RESULT:      -8.2      3.225      5.196
  Name = 
  9 active torsions:
  status: ('A' for Active; 'I' for Inactive)
    1  A    between atoms: O_4  and  P_14
    2  A    between atoms: O_4  and  C_29
    3  A    between atoms: P_7  and  O_17
    4  A    between atoms: C_9  and  O_17
    5  A    between atoms: C_9  and  C_24
    6  A    between atoms: C_10  and  C_28
    7  A    between atoms: C_11  and  C_25
    8  A    between atoms: C_12  and  C_32
    9  A    between atoms: N_21  and  C_23
                            x       y       z     vdW  Elec       q    Type
                         _______ _______ _______ _____ _____    ______ ____

>  <TORSDO>
F 9

$$$$
=
 OpenBabel11062412333D

 33 35  0  0  1  0  0  0  0  0999 V2000
  188.6790  177.3520  144.7540 C   0  0  0  0  0  0  0  0  0  0  0  0
  187.1750  177.5290  146.6570 C   0  0  0  0  0  3  0  0  0  0  0  0
  188.4400  177.2890  146.1340 C   0  0  0  0  0  3  0  0  0  0  0  0
  189.9690  177.0900  144.2170 C   0  0  0  0  0  0  0  0  0  0  0  0
  187.8230  177.6980  142.5010 C   0  0  0  0  0  3  0  0  0  0  0  0
  190.1440  177.1390  142.8270 C   0  0  0  0  0  3  0  0  0  0  0  0
  189.0850  177.4440  141.9760 C   0  0  0  0  0  0  0  0  0  0  0  0
  187.5950  177.6710  143.8840 C   0  0  0  0  0  0  0  0  0  0  0  0
  186.1190  177.8440  145.8070 C   0  0  0  0  0  3  0  0  0  0  0  0
  186.3020  177.9280  144.4200 C   0  0  0  0  0  0  0  0  0  0  0  0
  185.1220  178.2870  143.5830 C   0  0  0  0  0  0  0  0  0  0  0  0
  182.3580  178.6240  142.4050 C   0  0  1  0  0  3  0  0  0  0  0  0
  183.7510  178.3640  141.2820 P   0  0  2  0  0  0  0  0  0  0  0  0
  185.0680  177.9030  142.3400 N   0  0  0  0  0  0  0  0  0  0  0  0
  184.0970  179.6510  140.5640 O   0  0  0  0  0  0  0  0  0  0  0  0
  184.0530  179.1400  144.1750 C   0  0  0  0  0  3  0  0  0  0  0  0
  182.8380  179.3260  143.6400 C   0  0  0  0  0  3  0  0  0  0  0  0
  180.4340  180.0450  141.2170 C   0  0  0  0  0  0  0  0  0  0  0  0
  181.3020  179.4010  141.7520 C   0  0  0  0  0  0  0  0  0  0  0  0
  179.6610  181.3880  139.2950 C   0  0  0  0  0  1  0  0  0  0  0  0
  179.4270  180.7910  140.5960 N   0  0  0  0  0  2  0  0  0  0  0  0
  183.4000  177.1330  140.1690 O   0  0  0  0  0  0  0  0  0  0  0  0
  181.8590  177.7710  138.6140 O   0  0  0  0  0  1  0  0  0  0  0  0
  183.9950  177.0490  137.8660 C   0  0  0  0  0  1  0  0  0  0  0  0
  183.2140  177.7760  138.9420 C   0  0  2  0  0  3  0  0  0  0  0  0
  191.7640  175.5080  144.9830 O   0  0  0  0  0  0  0  0  0  0  0  0
  191.6370  177.6180  145.8320 O   0  0  0  0  0  1  0  0  0  0  0  0
  191.1580  176.7570  145.0460 C   0  0  0  0  0  0  0  0  0  0  0  0
  189.2960  177.4550  140.5040 C   0  0  0  0  0  2  0  0  0  0  0  0
  188.4940  178.4370  139.9210 O   0  0  0  0  0  0  0  0  0  0  0  0
  188.6980  178.2230  138.2570 P   0  0  0  0  0  0  0  0  0  0  0  0
  188.4320  179.3710  137.3090 O   0  0  0  0  0  0  0  0  0  0  0  0
  189.1530  176.8870  137.7160 O   0  0  0  0  0  0  0  0  0  0  0  0
  1  3  2  0  0  0  0
  3  2  1  0  0  0  0
  4  1  1  0  0  0  0
  4 28  1  0  0  0  0
  5  8  1  0  0  0  0
  6  4  2  0  0  0  0
  7  5  2  0  0  0  0
  7  6  1  0  0  0  0
  8 10  2  0  0  0  0
  8  1  1  0  0  0  0
  9  2  2  0  0  0  0
 10  9  1  0  0  0  0
 11 16  1  0  0  0  0
 11 10  1  0  0  0  0
 12 19  1  6  0  0  0
 12 17  1  0  0  0  0
 13 15  2  6  0  0  0
 13 14  1  0  0  0  0
 13 12  1  0  0  0  0
 14 11  2  0  0  0  0
 17 16  2  0  0  0  0
 18 19  3  0  0  0  0
 20 21  1  0  0  0  0
 21 18  1  0  0  0  0
 22 13  1  0  0  0  0
 23 25  1  0  0  0  0
 25 24  1  6  0  0  0
 25 22  1  0  0  0  0
 26 28  2  0  0  0  0
 28 27  1  0  0  0  0
 29  7  1  0  0  0  0
 30 29  1  0  0  0  0
 31 30  1  0  0  0  0
 32 31  2  0  0  0  0
 33 31  2  0  0  0  0
M  END
>  <MODEL>
6

>  <REMARK>
 VINA RESULT:      -8.1      2.534      4.063
  Name = 
  9 active torsions:
  status: ('A' for Active; 'I' for Inactive)
    1  A    between atoms: O_4  and  P_14
    2  A    between atoms: O_4  and  C_29
    3  A    between atoms: P_7  and  O_17
    4  A    between atoms: C_9  and  O_17
    5  A    between atoms: C_9  and  C_24
    6  A    between atoms: C_10  and  C_28
    7  A    between atoms: C_11  and  C_25
    8  A    between atoms: C_12  and  C_32
    9  A    between atoms: N_21  and  C_23
                            x       y       z     vdW  Elec       q    Type
                         _______ _______ _______ _____ _____    ______ ____

>  <TORSDO>
F 9

$$$$
=
 OpenBabel11062412333D

 33 35  0  0  1  0  0  0  0  0999 V2000
  182.9710  178.8960  143.2370 C   0  0  0  0  0  0  0  0  0  0  0  0
  183.9120  178.9640  145.4790 C   0  0  0  0  0  3  0  0  0  0  0  0
  182.8230  179.0620  144.6210 C   0  0  0  0  0  3  0  0  0  0  0  0
  181.8610  179.0130  142.3570 C   0  0  0  0  0  0  0  0  0  0  0  0
  184.4270  178.4900  141.3280 C   0  0  0  0  0  3  0  0  0  0  0  0
  182.0720  178.8660  140.9800 C   0  0  0  0  0  3  0  0  0  0  0  0
  183.3400  178.6020  140.4670 C   0  0  0  0  0  0  0  0  0  0  0  0
  184.2700  178.6200  142.7150 C   0  0  0  0  0  0  0  0  0  0  0  0
  185.1770  178.6910  144.9680 C   0  0  0  0  0  3  0  0  0  0  0  0
  185.3830  178.5080  143.5930 C   0  0  0  0  0  0  0  0  0  0  0  0
  186.7670  178.2020  143.1320 C   0  0  0  0  0  0  0  0  0  0  0  0
  189.2180  177.0990  141.7470 C   0  0  1  0  0  3  0  0  0  0  0  0
  189.3110  177.4550  143.5180 P   0  0  2  0  0  0  0  0  0  0  0  0
  187.6480  177.7520  143.9780 N   0  0  0  0  0  0  0  0  0  0  0  0
  190.1410  178.6980  143.7610 O   0  0  0  0  0  0  0  0  0  0  0  0
  187.1300  178.4820  141.7130 C   0  0  0  0  0  3  0  0  0  0  0  0
  188.2340  178.0290  141.1020 C   0  0  0  0  0  3  0  0  0  0  0  0
  191.6200  177.3410  140.6070 C   0  0  0  0  0  0  0  0  0  0  0  0
  190.5340  177.2310  141.1200 C   0  0  0  0  0  0  0  0  0  0  0  0
  193.1830  176.7520  138.7880 C   0  0  0  0  0  1  0  0  0  0  0  0
  192.8800  177.4700  140.0120 N   0  0  0  0  0  2  0  0  0  0  0  0
  189.9540  176.1310  144.3610 O   0  0  0  0  0  0  0  0  0  0  0  0
  192.0550  175.3370  143.9690 O   0  0  0  0  0  1  0  0  0  0  0  0
  191.6590  176.5650  145.9630 C   0  0  0  0  0  1  0  0  0  0  0  0
  191.3180  176.3970  144.4960 C   0  0  2  0  0  3  0  0  0  0  0  0
  179.6160  178.2710  143.2110 O   0  0  0  0  0  1  0  0  0  0  0  0
  180.0440  180.4760  142.8340 O   0  0  0  0  0  0  0  0  0  0  0  0
  180.4720  179.2910  142.8110 C   0  0  0  0  0  0  0  0  0  0  0  0
  183.5380  178.4840  138.9980 C   0  0  0  0  0  2  0  0  0  0  0  0
  184.8810  178.6980  138.6850 O   0  0  0  0  0  0  0  0  0  0  0  0
  185.2510  177.4980  137.5530 P   0  0  0  0  0  0  0  0  0  0  0  0
  184.1460  176.8570  136.7440 O   0  0  0  0  0  0  0  0  0  0  0  0
  186.6850  177.0690  137.3460 O   0  0  0  0  0  0  0  0  0  0  0  0
  1  3  1  0  0  0  0
  3  2  2  0  0  0  0
  4 28  1  0  0  0  0
  4  1  2  0  0  0  0
  5  8  2  0  0  0  0
  6  4  1  0  0  0  0
  7  6  2  0  0  0  0
  7  5  1  0  0  0  0
  8  1  1  0  0  0  0
  8 10  1  0  0  0  0
  9  2  1  0  0  0  0
 10  9  2  0  0  0  0
 11 10  1  0  0  0  0
 11 14  2  0  0  0  0
 12 19  1  6  0  0  0
 12 13  1  0  0  0  0
 13 15  2  1  0  0  0
 13 14  1  0  0  0  0
 13 22  1  0  0  0  0
 16 11  1  0  0  0  0
 17 16  2  0  0  0  0
 17 12  1  0  0  0  0
 18 19  3  0  0  0  0
 20 21  1  0  0  0  0
 21 18  1  0  0  0  0
 22 25  1  0  0  0  0
 23 25  1  0  0  0  0
 25 24  1  1  0  0  0
 28 27  2  0  0  0  0
 28 26  1  0  0  0  0
 29  7  1  0  0  0  0
 30 29  1  0  0  0  0
 31 30  1  0  0  0  0
 32 31  2  0  0  0  0
 33 31  2  0  0  0  0
M  END
>  <MODEL>
7

>  <REMARK>
 VINA RESULT:      -8.0      2.975      7.149
  Name = 
  9 active torsions:
  status: ('A' for Active; 'I' for Inactive)
    1  A    between atoms: O_4  and  P_14
    2  A    between atoms: O_4  and  C_29
    3  A    between atoms: P_7  and  O_17
    4  A    between atoms: C_9  and  O_17
    5  A    between atoms: C_9  and  C_24
    6  A    between atoms: C_10  and  C_28
    7  A    between atoms: C_11  and  C_25
    8  A    between atoms: C_12  and  C_32
    9  A    between atoms: N_21  and  C_23
                            x       y       z     vdW  Elec       q    Type
                         _______ _______ _______ _____ _____    ______ ____

>  <TORSDO>
F 9

$$$$
=
 OpenBabel11062412333D

 33 35  0  0  1  0  0  0  0  0999 V2000
  189.3250  177.2840  145.3650 C   0  0  0  0  0  0  0  0  0  0  0  0
  191.6380  176.7410  144.8460 C   0  0  0  0  0  3  0  0  0  0  0  0
  190.6350  176.9960  145.7730 C   0  0  0  0  0  3  0  0  0  0  0  0
  188.3010  177.5610  146.3110 C   0  0  0  0  0  0  0  0  0  0  0  0
  187.7320  177.6330  143.5560 C   0  0  0  0  0  3  0  0  0  0  0  0
  187.0170  177.8710  145.8450 C   0  0  0  0  0  3  0  0  0  0  0  0
  186.7300  177.9030  144.4830 C   0  0  0  0  0  0  0  0  0  0  0  0
  189.0320  177.3090  143.9690 C   0  0  0  0  0  0  0  0  0  0  0  0
  191.3500  176.7620  143.4850 C   0  0  0  0  0  3  0  0  0  0  0  0
  190.0560  177.0370  143.0190 C   0  0  0  0  0  0  0  0  0  0  0  0
  189.8300  177.0240  141.5470 C   0  0  0  0  0  0  0  0  0  0  0  0
  188.7180  176.6870  138.7550 C   0  0  1  0  0  3  0  0  0  0  0  0
  190.4780  176.3780  139.0280 P   0  0  2  0  0  0  0  0  0  0  0  0
  190.6410  176.3620  140.7720 N   0  0  0  0  0  0  0  0  0  0  0  0
  191.3070  177.5020  138.4460 O   0  0  0  0  0  0  0  0  0  0  0  0
  188.7080  177.8290  140.9840 C   0  0  0  0  0  3  0  0  0  0  0  0
  188.2340  177.7130  139.7360 C   0  0  0  0  0  3  0  0  0  0  0  0
  188.2730  177.5100  136.2550 C   0  0  0  0  0  0  0  0  0  0  0  0
  188.4750  177.1360  137.3830 C   0  0  0  0  0  0  0  0  0  0  0  0
  186.7610  178.5350  134.5940 C   0  0  0  0  0  1  0  0  0  0  0  0
  188.0380  177.9430  134.9450 N   0  0  0  0  0  2  0  0  0  0  0  0
  190.9340  174.8880  138.3570 O   0  0  0  0  0  0  0  0  0  0  0  0
  191.2030  175.1240  136.1050 O   0  0  0  0  0  1  0  0  0  0  0  0
  192.9890  174.2040  137.3710 C   0  0  0  0  0  1  0  0  0  0  0  0
  191.8430  175.1950  137.3420 C   0  0  2  0  0  3  0  0  0  0  0  0
  189.0580  178.6410  148.4510 O   0  0  0  0  0  0  0  0  0  0  0  0
  188.1950  176.5330  148.4570 O   0  0  0  0  0  1  0  0  0  0  0  0
  188.5120  177.5510  147.7840 C   0  0  0  0  0  0  0  0  0  0  0  0
  185.3650  178.2670  144.0190 C   0  0  0  0  0  2  0  0  0  0  0  0
  185.0280  177.5030  142.9020 O   0  0  0  0  0  0  0  0  0  0  0  0
  184.6570  178.6380  141.7050 P   0  0  0  0  0  0  0  0  0  0  0  0
  185.6300  179.7530  141.3940 O   0  0  0  0  0  0  0  0  0  0  0  0
  183.3570  178.5350  140.9410 O   0  0  0  0  0  0  0  0  0  0  0  0
  1  3  2  0  0  0  0
  1  4  1  0  0  0  0
  2  3  1  0  0  0  0
  4 28  1  0  0  0  0
  5  8  1  0  0  0  0
  5  7  2  0  0  0  0
  6  4  2  0  0  0  0
  7  6  1  0  0  0  0
  8  1  1  0  0  0  0
  9  2  2  0  0  0  0
 10  9  1  0  0  0  0
 10  8  2  0  0  0  0
 11 10  1  0  0  0  0
 12 19  1  6  0  0  0
 12 13  1  0  0  0  0
 12 17  1  0  0  0  0
 13 15  2  6  0  0  0
 13 14  1  0  0  0  0
 14 11  2  0  0  0  0
 16 11  1  0  0  0  0
 17 16  2  0  0  0  0
 18 19  3  0  0  0  0
 20 21  1  0  0  0  0
 21 18  1  0  0  0  0
 22 13  1  0  0  0  0
 23 25  1  0  0  0  0
 25 24  1  6  0  0  0
 25 22  1  0  0  0  0
 28 26  2  0  0  0  0
 28 27  1  0  0  0  0
 29  7  1  0  0  0  0
 30 29  1  0  0  0  0
 31 30  1  0  0  0  0
 32 31  2  0  0  0  0
 33 31  2  0  0  0  0
M  END
>  <MODEL>
8

>  <REMARK>
 VINA RESULT:      -7.8      3.261      5.394
  Name = 
  9 active torsions:
  status: ('A' for Active; 'I' for Inactive)
    1  A    between atoms: O_4  and  P_14
    2  A    between atoms: O_4  and  C_29
    3  A    between atoms: P_7  and  O_17
    4  A    between atoms: C_9  and  O_17
    5  A    between atoms: C_9  and  C_24
    6  A    between atoms: C_10  and  C_28
    7  A    between atoms: C_11  and  C_25
    8  A    between atoms: C_12  and  C_32
    9  A    between atoms: N_21  and  C_23
                            x       y       z     vdW  Elec       q    Type
                         _______ _______ _______ _____ _____    ______ ____

>  <TORSDO>
F 9

$$$$
=
 OpenBabel11062412333D

 33 35  0  0  1  0  0  0  0  0999 V2000
  187.1170  178.0880  144.9750 C   0  0  0  0  0  0  0  0  0  0  0  0
  189.3300  177.5090  145.8010 C   0  0  0  0  0  3  0  0  0  0  0  0
  188.0050  177.8600  146.0350 C   0  0  0  0  0  3  0  0  0  0  0  0
  185.7670  178.4630  145.2130 C   0  0  0  0  0  0  0  0  0  0  0  0
  186.7170  178.2150  142.5760 C   0  0  0  0  0  3  0  0  0  0  0  0
  184.9300  178.7070  144.1150 C   0  0  0  0  0  3  0  0  0  0  0  0
  185.3960  178.5810  142.8090 C   0  0  0  0  0  0  0  0  0  0  0  0
  187.5950  177.9520  143.6380 C   0  0  0  0  0  0  0  0  0  0  0  0
  189.7940  177.3730  144.4960 C   0  0  0  0  0  3  0  0  0  0  0  0
  188.9470  177.5820  143.3970 C   0  0  0  0  0  0  0  0  0  0  0  0
  189.5190  177.3990  142.0340 C   0  0  0  0  0  0  0  0  0  0  0  0
  191.2080  177.4900  139.5270 C   0  0  1  0  0  3  0  0  0  0  0  0
  189.4070  177.4820  139.3580 P   0  0  2  0  0  0  0  0  0  0  0  0
  188.8270  177.7490  140.9880 N   0  0  0  0  0  0  0  0  0  0  0  0
  188.9320  176.1340  138.8580 O   0  0  0  0  0  0  0  0  0  0  0  0
  190.8560  176.7530  141.8950 C   0  0  0  0  0  3  0  0  0  0  0  0
  191.5940  176.7550  140.7760 C   0  0  0  0  0  3  0  0  0  0  0  0
  192.3700  176.3770  137.3970 C   0  0  0  0  0  0  0  0  0  0  0  0
  191.8430  176.8800  138.3570 C   0  0  0  0  0  0  0  0  0  0  0  0
  194.3630  175.3540  136.3570 C   0  0  0  0  0  1  0  0  0  0  0  0
  192.9820  175.7920  136.2820 N   0  0  0  0  0  2  0  0  0  0  0  0
  188.9000  178.7200  138.3150 O   0  0  0  0  0  0  0  0  0  0  0  0
  189.4150  178.2150  136.1530 O   0  0  0  0  0  1  0  0  0  0  0  0
  187.1550  178.7040  136.6960 C   0  0  0  0  0  1  0  0  0  0  0  0
  188.4570  178.0790  137.1560 C   0  0  2  0  0  3  0  0  0  0  0  0
  185.6760  179.5530  147.4760 O   0  0  0  0  0  1  0  0  0  0  0  0
  184.2090  177.9000  146.9240 O   0  0  0  0  0  0  0  0  0  0  0  0
  185.1790  178.6220  146.5700 C   0  0  0  0  0  0  0  0  0  0  0  0
  184.4930  178.8780  141.6660 C   0  0  0  0  0  2  0  0  0  0  0  0
  185.2360  179.3780  140.5960 O   0  0  0  0  0  0  0  0  0  0  0  0
  184.1870  179.2960  139.2730 P   0  0  0  0  0  0  0  0  0  0  0  0
  183.3560  180.5010  138.8930 O   0  0  0  0  0  0  0  0  0  0  0  0
  184.0840  178.0220  138.4670 O   0  0  0  0  0  0  0  0  0  0  0  0
  1  4  1  0  0  0  0
  1  3  2  0  0  0  0
  2  3  1  0  0  0  0
  4 28  1  0  0  0  0
  5  7  2  0  0  0  0
  5  8  1  0  0  0  0
  6  4  2  0  0  0  0
  7  6  1  0  0  0  0
  8  1  1  0  0  0  0
  9  2  2  0  0  0  0
 10  8  2  0  0  0  0
 10  9  1  0  0  0  0
 11 10  1  0  0  0  0
 12 19  1  6  0  0  0
 12 17  1  0  0  0  0
 13 15  2  6  0  0  0
 13 12  1  0  0  0  0
 13 14  1  0  0  0  0
 14 11  2  0  0  0  0
 16 11  1  0  0  0  0
 17 16  2  0  0  0  0
 18 19  3  0  0  0  0
 21 20  1  0  0  0  0
 21 18  1  0  0  0  0
 22 13  1  0  0  0  0
 23 25  1  0  0  0  0
 25 24  1  6  0  0  0
 25 22  1  0  0  0  0
 28 27  2  0  0  0  0
 28 26  1  0  0  0  0
 29  7  1  0  0  0  0
 30 29  1  0  0  0  0
 31 30  1  0  0  0  0
 32 31  2  0  0  0  0
 33 31  2  0  0  0  0
M  END
>  <MODEL>
9

>  <REMARK>
 VINA RESULT:      -7.8      3.194      6.264
  Name = 
  9 active torsions:
  status: ('A' for Active; 'I' for Inactive)
    1  A    between atoms: O_4  and  P_14
    2  A    between atoms: O_4  and  C_29
    3  A    between atoms: P_7  and  O_17
    4  A    between atoms: C_9  and  O_17
    5  A    between atoms: C_9  and  C_24
    6  A    between atoms: C_10  and  C_28
    7  A    between atoms: C_11  and  C_25
    8  A    between atoms: C_12  and  C_32
    9  A    between atoms: N_21  and  C_23
                            x       y       z     vdW  Elec       q    Type
                         _______ _______ _______ _____ _____    ______ ____

>  <TORSDO>
F 9

$$$$
