=
 OpenBabel11062417443D

 39 44  0  0  1  0  0  0  0  0999 V2000
  181.5740  178.3250  141.5710 C   0  0  0  0  0  0  0  0  0  0  0  0
  184.9950  178.5700  144.6390 C   0  0  0  0  0  2  0  0  0  0  0  0
  181.8180  178.9870  143.8790 C   0  0  0  0  0  0  0  0  0  0  0  0
  182.7080  179.4180  144.7050 N   0  0  0  0  0  0  0  0  0  0  0  0
  184.7080  178.8930  141.5690 C   0  0  0  0  0  2  0  0  0  0  0  0
  182.3360  178.7880  142.5730 C   0  0  0  0  0  0  0  0  0  0  0  0
  180.4510  178.7420  144.1960 N   0  0  0  0  0  0  0  0  0  0  0  0
  186.5660  177.6890  142.8600 C   0  0  2  0  0  3  0  0  0  0  0  0
  180.1340  177.9380  141.8660 C   0  0  0  0  0  2  0  0  0  0  0  0
  179.6570  178.2700  143.2760 C   0  0  0  0  0  3  0  0  0  0  0  0
  183.9950  179.5270  143.9960 C   0  0  2  0  0  3  0  0  0  0  0  0
  185.4090  177.5690  141.8410 C   0  0  0  0  0  2  0  0  0  0  0  0
  183.7100  179.1470  142.6010 N   0  0  0  0  0  0  0  0  0  0  0  0
  186.3610  178.7090  143.9870 C   0  0  0  0  0  2  0  0  0  0  0  0
  182.0830  178.1570  140.2010 C   0  0  0  0  0  0  0  0  0  0  0  0
  183.2360  176.7880  138.5590 C   0  0  0  0  0  3  0  0  0  0  0  0
  182.4740  179.0020  137.9580 C   0  0  0  0  0  3  0  0  0  0  0  0
  182.7290  176.9630  139.8480 C   0  0  0  0  0  3  0  0  0  0  0  0
  183.1070  177.8060  137.6140 C   0  0  0  0  0  3  0  0  0  0  0  0
  181.9600  179.1910  139.2530 C   0  0  0  0  0  0  0  0  0  0  0  0
  181.3170  180.3850  139.6080 O   0  0  0  0  0  0  0  0  0  0  0  0
  180.5670  181.1730  138.6910 C   0  0  0  0  0  2  0  0  0  0  0  0
  181.4240  182.3070  138.1590 C   0  0  0  0  0  2  0  0  0  0  0  0
  180.4730  184.4030  135.2410 N   0  0  0  0  0  1  0  0  0  0  0  0
  181.8530  184.9280  137.2090 N   0  0  0  0  0  1  0  0  0  0  0  0
  181.0600  183.9990  136.4730 C   0  0  0  0  0  0  0  0  0  0  0  0
  180.8610  182.7950  136.9090 N   0  0  0  0  0  0  0  0  0  0  0  0
  187.8890  177.8540  142.2420 N   0  0  1  0  0  0  0  0  0  0  0  0
  188.7320  176.7170  142.6200 C   0  0  0  0  0  2  0  0  0  0  0  0
  189.1730  178.0630  140.1650 C   0  0  0  0  0  2  0  0  0  0  0  0
  187.7800  177.9290  140.7790 C   0  0  0  0  0  2  0  0  0  0  0  0
  189.9840  176.9030  140.5290 N   0  0  0  0  0  0  0  0  0  0  0  0
  190.1130  176.8640  141.9850 C   0  0  0  0  0  2  0  0  0  0  0  0
  191.3140  177.1350  139.9870 C   0  0  0  0  0  2  0  0  0  0  0  0
  191.7730  174.6090  137.7540 C   0  0  0  0  0  3  0  0  0  0  0  0
  192.9130  175.2430  137.5730 C   0  0  0  0  0  3  0  0  0  0  0  0
  192.7970  176.6580  138.0290 C   0  0  0  0  0  2  0  0  0  0  0  0
  190.7850  175.4520  138.3190 N   0  0  0  0  0  2  0  0  0  0  0  0
  191.3510  176.7740  138.5110 C   0  0  1  0  0  3  0  0  0  0  0  0
  1  9  1  0  0  0  0
  1  6  2  0  0  0  0
  3  7  1  0  0  0  0
  3  4  2  0  0  0  0
  5 12  1  0  0  0  0
  5 13  1  0  0  0  0
  6 13  1  0  0  0  0
  6  3  1  0  0  0  0
  8 12  1  6  0  0  0
  8 14  1  0  0  0  0
  9 10  1  0  0  0  0
 10  7  2  0  0  0  0
 11  2  1  1  0  0  0
 11  4  1  0  0  0  0
 13 11  1  0  0  0  0
 14  2  1  0  0  0  0
 15  1  1  0  0  0  0
 16 18  2  0  0  0  0
 17 20  1  0  0  0  0
 18 15  1  0  0  0  0
 19 17  2  0  0  0  0
 19 16  1  0  0  0  0
 20 21  1  0  0  0  0
 20 15  2  0  0  0  0
 22 21  1  0  0  0  0
 23 22  1  0  0  0  0
 24 26  1  0  0  0  0
 26 27  2  0  0  0  0
 26 25  1  0  0  0  0
 27 23  1  0  0  0  0
 28 31  1  6  0  0  0
 28 29  1  0  0  0  0
 28  8  1  0  0  0  0
 30 32  1  0  0  0  0
 30 31  1  0  0  0  0
 32 33  1  0  0  0  0
 33 29  1  0  0  0  0
 34 32  1  0  0  0  0
 35 38  1  0  0  0  0
 36 35  2  0  0  0  0
 36 37  1  0  0  0  0
 37 39  1  0  0  0  0
 38 39  1  0  0  0  0
 39 34  1  1  0  0  0
M  END
>  <MODEL>
1

>  <REMARK>
 VINA RESULT:      -7.1      0.000      0.000
  Name = 
  8 active torsions:
  status: ('A' for Active; 'I' for Inactive)
    1  A    between atoms: C_2  and  C_4
    2  A    between atoms: C_3  and  C_30
    3  A    between atoms: C_3  and  N_31
    4  A    between atoms: N_8  and  C_21
    5  A    between atoms: C_14  and  C_32
    6  A    between atoms: C_14  and  N_36
    7  A    between atoms: O_20  and  C_30
    8  A    between atoms: O_20  and  C_34
                            x       y       z     vdW  Elec       q    Type
                         _______ _______ _______ _____ _____    ______ ____

>  <TORSDO>
F 8

$$$$
=
 OpenBabel11062417443D

 39 44  0  0  1  0  0  0  0  0999 V2000
  181.1870  177.1710  137.1970 C   0  0  0  0  0  0  0  0  0  0  0  0
  185.5830  176.6120  135.9570 C   0  0  0  0  0  2  0  0  0  0  0  0
  182.3920  175.9310  135.5130 C   0  0  0  0  0  0  0  0  0  0  0  0
  183.5570  175.4300  135.2840 N   0  0  0  0  0  0  0  0  0  0  0  0
  184.0470  177.1290  138.5990 C   0  0  0  0  0  2  0  0  0  0  0  0
  182.3100  176.5710  136.7770 C   0  0  0  0  0  0  0  0  0  0  0  0
  181.2770  175.8580  134.6290 N   0  0  0  0  0  0  0  0  0  0  0  0
  186.2420  178.1960  137.8180 C   0  0  2  0  0  3  0  0  0  0  0  0
  179.9930  177.2270  136.2570 C   0  0  0  0  0  2  0  0  0  0  0  0
  180.1590  176.4390  134.9620 C   0  0  0  0  0  3  0  0  0  0  0  0
  184.4310  175.7300  136.4310 C   0  0  2  0  0  3  0  0  0  0  0  0
  184.7610  178.4150  138.2100 C   0  0  0  0  0  2  0  0  0  0  0  0
  183.5780  176.4390  137.4020 N   0  0  0  0  0  0  0  0  0  0  0  0
  186.5540  176.8800  137.0960 C   0  0  0  0  0  2  0  0  0  0  0  0
  181.0710  177.7980  138.5230 C   0  0  0  0  0  0  0  0  0  0  0  0
  180.5920  177.5830  140.8940 C   0  0  0  0  0  3  0  0  0  0  0  0
  181.1330  179.7490  139.9660 C   0  0  0  0  0  3  0  0  0  0  0  0
  180.7260  177.0080  139.6290 C   0  0  0  0  0  3  0  0  0  0  0  0
  180.7980  178.9530  141.0630 C   0  0  0  0  0  3  0  0  0  0  0  0
  181.2700  179.1820  138.6870 C   0  0  0  0  0  0  0  0  0  0  0  0
  181.6120  179.9700  137.5800 O   0  0  0  0  0  0  0  0  0  0  0  0
  180.6590  180.6960  136.8110 C   0  0  0  0  0  2  0  0  0  0  0  0
  180.5620  182.1240  137.3160 C   0  0  0  0  0  2  0  0  0  0  0  0
  180.8870  185.0130  135.0000 N   0  0  0  0  0  1  0  0  0  0  0  0
  181.8720  184.6190  137.2200 N   0  0  0  0  0  1  0  0  0  0  0  0
  181.0500  184.1780  136.1410 C   0  0  0  0  0  0  0  0  0  0  0  0
  180.4480  183.0310  136.1840 N   0  0  0  0  0  0  0  0  0  0  0  0
  187.1880  178.4240  138.9190 N   0  0  1  0  0  0  0  0  0  0  0  0
  186.4410  178.5050  140.1760 C   0  0  0  0  0  2  0  0  0  0  0  0
  189.1220  177.5850  140.1700 C   0  0  0  0  0  2  0  0  0  0  0  0
  188.1760  177.3390  138.9950 C   0  0  0  0  0  2  0  0  0  0  0  0
  188.3580  177.6300  141.4150 N   0  0  0  0  0  0  0  0  0  0  0  0
  187.4060  178.7370  141.3370 C   0  0  0  0  0  2  0  0  0  0  0  0
  189.3020  177.9510  142.4740 C   0  0  0  0  0  2  0  0  0  0  0  0
  187.0420  177.0560  144.8560 C   0  0  0  0  0  3  0  0  0  0  0  0
  187.8540  177.7680  145.6100 C   0  0  0  0  0  3  0  0  0  0  0  0
  189.1980  177.8700  144.9740 C   0  0  0  0  0  2  0  0  0  0  0  0
  187.6820  176.6000  143.6780 N   0  0  0  0  0  2  0  0  0  0  0  0
  189.0580  177.0620  143.6830 C   0  0  1  0  0  3  0  0  0  0  0  0
  1 15  1  0  0  0  0
  2 14  1  0  0  0  0
  3  6  1  0  0  0  0
  4  3  2  0  0  0  0
  4 11  1  0  0  0  0
  6  1  2  0  0  0  0
  6 13  1  0  0  0  0
  7 10  2  0  0  0  0
  7  3  1  0  0  0  0
  8 14  1  1  0  0  0
  8 12  1  0  0  0  0
  8 28  1  0  0  0  0
  9  1  1  0  0  0  0
 10  9  1  0  0  0  0
 11  2  1  6  0  0  0
 11 13  1  0  0  0  0
 12  5  1  0  0  0  0
 13  5  1  0  0  0  0
 15 20  2  0  0  0  0
 15 18  1  0  0  0  0
 16 19  1  0  0  0  0
 17 19  2  0  0  0  0
 18 16  2  0  0  0  0
 20 17  1  0  0  0  0
 21 20  1  0  0  0  0
 22 23  1  0  0  0  0
 22 21  1  0  0  0  0
 24 26  1  0  0  0  0
 26 27  2  0  0  0  0
 26 25  1  0  0  0  0
 27 23  1  0  0  0  0
 28 31  1  1  0  0  0
 28 29  1  0  0  0  0
 29 33  1  0  0  0  0
 30 32  1  0  0  0  0
 31 30  1  0  0  0  0
 32 34  1  0  0  0  0
 33 32  1  0  0  0  0
 35 36  2  0  0  0  0
 37 36  1  0  0  0  0
 38 39  1  0  0  0  0
 38 35  1  0  0  0  0
 39 34  1  6  0  0  0
 39 37  1  0  0  0  0
M  END
>  <MODEL>
2

>  <REMARK>
 VINA RESULT:      -7.0      2.823      5.460
  Name = 
  8 active torsions:
  status: ('A' for Active; 'I' for Inactive)
    1  A    between atoms: C_2  and  C_4
    2  A    between atoms: C_3  and  C_30
    3  A    between atoms: C_3  and  N_31
    4  A    between atoms: N_8  and  C_21
    5  A    between atoms: C_14  and  C_32
    6  A    between atoms: C_14  and  N_36
    7  A    between atoms: O_20  and  C_30
    8  A    between atoms: O_20  and  C_34
                            x       y       z     vdW  Elec       q    Type
                         _______ _______ _______ _____ _____    ______ ____

>  <TORSDO>
F 8

$$$$
=
 OpenBabel11062417443D

 39 44  0  0  1  0  0  0  0  0999 V2000
  187.5090  177.4330  143.3570 C   0  0  0  0  0  0  0  0  0  0  0  0
  186.2840  178.0460  138.9650 C   0  0  0  0  0  2  0  0  0  0  0  0
  188.6090  177.4110  141.2090 C   0  0  0  0  0  0  0  0  0  0  0  0
  188.4800  177.8820  140.0170 N   0  0  0  0  0  0  0  0  0  0  0  0
  185.3760  179.1390  141.7190 C   0  0  0  0  0  2  0  0  0  0  0  0
  187.5670  177.8300  142.0780 C   0  0  0  0  0  0  0  0  0  0  0  0
  189.6730  176.5740  141.6530 N   0  0  0  0  0  0  0  0  0  0  0  0
  183.9060  178.4190  139.7480 C   0  0  2  0  0  3  0  0  0  0  0  0
  188.5510  176.4510  143.8670 C   0  0  0  0  0  2  0  0  0  0  0  0
  189.6690  176.1320  142.8790 C   0  0  0  0  0  3  0  0  0  0  0  0
  187.2470  178.6870  139.9600 C   0  0  2  0  0  3  0  0  0  0  0  0
  184.3100  178.1730  141.2200 C   0  0  0  0  0  2  0  0  0  0  0  0
  186.6980  178.6650  141.3280 N   0  0  0  0  0  0  0  0  0  0  0  0
  185.0290  178.8910  138.8160 C   0  0  0  0  0  2  0  0  0  0  0  0
  186.4630  177.8950  144.2840 C   0  0  0  0  0  0  0  0  0  0  0  0
  184.1460  178.5150  144.6690 C   0  0  0  0  0  3  0  0  0  0  0  0
  185.7480  178.6580  146.4750 C   0  0  0  0  0  3  0  0  0  0  0  0
  185.1520  178.0600  143.8140 C   0  0  0  0  0  3  0  0  0  0  0  0
  184.4440  178.8110  146.0000 C   0  0  0  0  0  3  0  0  0  0  0  0
  186.7690  178.2030  145.6230 C   0  0  0  0  0  0  0  0  0  0  0  0
  188.0810  178.0390  146.0900 O   0  0  0  0  0  0  0  0  0  0  0  0
  188.3980  177.4320  147.3370 C   0  0  0  0  0  2  0  0  0  0  0  0
  189.8130  177.7960  147.7470 C   0  0  0  0  0  2  0  0  0  0  0  0
  192.3270  175.3640  146.4920 N   0  0  0  0  0  1  0  0  0  0  0  0
  191.6290  177.5500  145.6040 N   0  0  0  0  0  1  0  0  0  0  0  0
  191.5140  176.5280  146.5930 C   0  0  0  0  0  0  0  0  0  0  0  0
  190.6800  176.6400  147.5780 N   0  0  0  0  0  0  0  0  0  0  0  0
  182.7110  179.2590  139.5900 N   0  0  1  0  0  0  0  0  0  0  0  0
  183.0510  180.4120  138.7540 C   0  0  0  0  0  2  0  0  0  0  0  0
  180.3990  179.4110  138.7900 C   0  0  0  0  0  2  0  0  0  0  0  0
  181.6130  178.5020  138.9740 C   0  0  0  0  0  2  0  0  0  0  0  0
  180.7530  180.5350  137.9270 N   0  0  0  0  0  0  0  0  0  0  0  0
  181.8200  181.2990  138.5720 C   0  0  0  0  0  2  0  0  0  0  0  0
  179.5860  181.4000  137.8650 C   0  0  0  0  0  2  0  0  0  0  0  0
  180.8110  182.0360  134.7550 C   0  0  0  0  0  3  0  0  0  0  0  0
  180.3710  183.2430  135.0450 C   0  0  0  0  0  3  0  0  0  0  0  0
  179.3380  183.1750  136.1170 C   0  0  0  0  0  2  0  0  0  0  0  0
  180.1750  181.0420  135.5360 N   0  0  0  0  0  2  0  0  0  0  0  0
  179.2140  181.6800  136.4170 C   0  0  1  0  0  3  0  0  0  0  0  0
  1  9  1  0  0  0  0
  1 15  1  0  0  0  0
  3  7  1  0  0  0  0
  3  6  1  0  0  0  0
  4  3  2  0  0  0  0
  6  1  2  0  0  0  0
  7 10  2  0  0  0  0
  8 14  1  6  0  0  0
  8 12  1  0  0  0  0
 10  9  1  0  0  0  0
 11  2  1  6  0  0  0
 11  4  1  0  0  0  0
 11 13  1  0  0  0  0
 12  5  1  0  0  0  0
 13  5  1  0  0  0  0
 13  6  1  0  0  0  0
 14  2  1  0  0  0  0
 15 20  1  0  0  0  0
 16 19  2  0  0  0  0
 18 15  2  0  0  0  0
 18 16  1  0  0  0  0
 19 17  1  0  0  0  0
 20 21  1  0  0  0  0
 20 17  2  0  0  0  0
 21 22  1  0  0  0  0
 22 23  1  0  0  0  0
 24 26  1  0  0  0  0
 25 26  1  0  0  0  0
 26 27  2  0  0  0  0
 27 23  1  0  0  0  0
 28 29  1  6  0  0  0
 28  8  1  0  0  0  0
 30 31  1  0  0  0  0
 31 28  1  0  0  0  0
 32 33  1  0  0  0  0
 32 30  1  0  0  0  0
 33 29  1  0  0  0  0
 34 32  1  0  0  0  0
 35 36  2  0  0  0  0
 35 38  1  0  0  0  0
 36 37  1  0  0  0  0
 37 39  1  0  0  0  0
 38 39  1  0  0  0  0
 39 34  1  1  0  0  0
M  END
>  <MODEL>
3

>  <REMARK>
 VINA RESULT:      -6.9      3.274     10.081
  Name = 
  8 active torsions:
  status: ('A' for Active; 'I' for Inactive)
    1  A    between atoms: C_2  and  C_4
    2  A    between atoms: C_3  and  C_30
    3  A    between atoms: C_3  and  N_31
    4  A    between atoms: N_8  and  C_21
    5  A    between atoms: C_14  and  C_32
    6  A    between atoms: C_14  and  N_36
    7  A    between atoms: O_20  and  C_30
    8  A    between atoms: O_20  and  C_34
                            x       y       z     vdW  Elec       q    Type
                         _______ _______ _______ _____ _____    ______ ____

>  <TORSDO>
F 8

$$$$
=
 OpenBabel11062417443D

 39 44  0  0  1  0  0  0  0  0999 V2000
  190.4890  177.3580  140.2980 C   0  0  0  0  0  0  0  0  0  0  0  0
  187.3020  178.0000  143.5550 C   0  0  0  0  0  2  0  0  0  0  0  0
  190.2440  176.8370  142.6410 C   0  0  0  0  0  0  0  0  0  0  0  0
  189.3320  176.6470  143.5330 N   0  0  0  0  0  0  0  0  0  0  0  0
  187.3140  177.5330  140.4900 C   0  0  0  0  0  2  0  0  0  0  0  0
  189.7050  177.1130  141.3580 C   0  0  0  0  0  0  0  0  0  0  0  0
  191.6490  176.7670  142.8730 N   0  0  0  0  0  0  0  0  0  0  0  0
  185.8670  179.1700  141.8280 C   0  0  2  0  0  3  0  0  0  0  0  0
  191.9950  177.4090  140.4980 C   0  0  0  0  0  2  0  0  0  0  0  0
  192.4700  177.0160  141.8930 C   0  0  0  0  0  3  0  0  0  0  0  0
  188.0140  176.8190  142.8990 C   0  0  2  0  0  3  0  0  0  0  0  0
  186.9550  178.9900  140.7430 C   0  0  0  0  0  2  0  0  0  0  0  0
  188.2910  177.0830  141.4760 N   0  0  0  0  0  0  0  0  0  0  0  0
  185.9020  178.1630  142.9840 C   0  0  0  0  0  2  0  0  0  0  0  0
  189.9470  177.6010  138.9510 C   0  0  0  0  0  0  0  0  0  0  0  0
  188.9000  179.1160  137.3680 C   0  0  0  0  0  3  0  0  0  0  0  0
  189.3660  176.8320  136.7230 C   0  0  0  0  0  3  0  0  0  0  0  0
  189.4360  178.8670  138.6330 C   0  0  0  0  0  3  0  0  0  0  0  0
  188.8670  178.0990  136.4130 C   0  0  0  0  0  3  0  0  0  0  0  0
  189.9060  176.5700  137.9930 C   0  0  0  0  0  0  0  0  0  0  0  0
  190.4160  175.3040  138.3140 O   0  0  0  0  0  0  0  0  0  0  0  0
  190.6720  174.2940  137.3450 C   0  0  0  0  0  2  0  0  0  0  0  0
  191.9600  174.6010  136.6030 C   0  0  0  0  0  2  0  0  0  0  0  0
  194.9830  175.1030  138.7050 N   0  0  0  0  0  1  0  0  0  0  0  0
  193.7070  176.6920  137.3260 N   0  0  0  0  0  1  0  0  0  0  0  0
  193.8940  175.3700  137.8280 C   0  0  0  0  0  0  0  0  0  0  0  0
  193.0920  174.4080  137.4960 N   0  0  0  0  0  0  0  0  0  0  0  0
  184.5060  179.2990  141.2910 N   0  0  1  0  0  0  0  0  0  0  0  0
  184.5430  179.0570  139.8460 C   0  0  0  0  0  2  0  0  0  0  0  0
  182.1970  178.4770  141.3280 C   0  0  0  0  0  2  0  0  0  0  0  0
  183.5940  178.3430  141.9330 C   0  0  0  0  0  2  0  0  0  0  0  0
  182.2550  178.1990  139.8940 N   0  0  0  0  0  0  0  0  0  0  0  0
  183.1360  179.1820  139.2650 C   0  0  0  0  0  2  0  0  0  0  0  0
  180.9170  178.4270  139.3700 C   0  0  0  0  0  2  0  0  0  0  0  0
  179.1770  175.5950  140.1010 C   0  0  0  0  0  3  0  0  0  0  0  0
  180.3740  175.0630  139.9690 C   0  0  0  0  0  3  0  0  0  0  0  0
  181.2520  175.9550  139.1580 C   0  0  0  0  0  2  0  0  0  0  0  0
  179.0780  176.8420  139.4380 N   0  0  0  0  0  2  0  0  0  0  0  0
  180.3490  177.1360  138.8010 C   0  0  1  0  0  3  0  0  0  0  0  0
  1  9  1  0  0  0  0
  1  6  2  0  0  0  0
  3  7  1  0  0  0  0
  3  4  2  0  0  0  0
  5 12  1  0  0  0  0
  5 13  1  0  0  0  0
  6 13  1  0  0  0  0
  6  3  1  0  0  0  0
  8 12  1  6  0  0  0
  8 14  1  0  0  0  0
  9 10  1  0  0  0  0
 10  7  2  0  0  0  0
 11  4  1  0  0  0  0
 11  2  1  1  0  0  0
 13 11  1  0  0  0  0
 14  2  1  0  0  0  0
 15  1  1  0  0  0  0
 16 18  2  0  0  0  0
 17 20  1  0  0  0  0
 18 15  1  0  0  0  0
 19 17  2  0  0  0  0
 19 16  1  0  0  0  0
 20 21  1  0  0  0  0
 20 15  2  0  0  0  0
 22 21  1  0  0  0  0
 23 22  1  0  0  0  0
 23 27  1  0  0  0  0
 25 26  1  0  0  0  0
 26 24  1  0  0  0  0
 27 26  2  0  0  0  0
 28 29  1  6  0  0  0
 28  8  1  0  0  0  0
 28 31  1  0  0  0  0
 30 31  1  0  0  0  0
 32 30  1  0  0  0  0
 33 29  1  0  0  0  0
 33 32  1  0  0  0  0
 34 32  1  0  0  0  0
 36 35  2  0  0  0  0
 37 36  1  0  0  0  0
 38 35  1  0  0  0  0
 39 37  1  0  0  0  0
 39 34  1  1  0  0  0
 39 38  1  0  0  0  0
M  END
>  <MODEL>
4

>  <REMARK>
 VINA RESULT:      -6.8      3.347      9.593
  Name = 
  8 active torsions:
  status: ('A' for Active; 'I' for Inactive)
    1  A    between atoms: C_2  and  C_4
    2  A    between atoms: C_3  and  C_30
    3  A    between atoms: C_3  and  N_31
    4  A    between atoms: N_8  and  C_21
    5  A    between atoms: C_14  and  C_32
    6  A    between atoms: C_14  and  N_36
    7  A    between atoms: O_20  and  C_30
    8  A    between atoms: O_20  and  C_34
                            x       y       z     vdW  Elec       q    Type
                         _______ _______ _______ _____ _____    ______ ____

>  <TORSDO>
F 8

$$$$
=
 OpenBabel11062417443D

 39 44  0  0  1  0  0  0  0  0999 V2000
  188.1780  177.9030  140.6890 C   0  0  0  0  0  0  0  0  0  0  0  0
  188.5960  176.9890  136.1990 C   0  0  0  0  0  2  0  0  0  0  0  0
  186.7160  177.8220  138.7710 C   0  0  0  0  0  0  0  0  0  0  0  0
  186.6240  177.2750  137.6070 N   0  0  0  0  0  0  0  0  0  0  0  0
  189.9610  176.0440  138.8170 C   0  0  0  0  0  2  0  0  0  0  0  0
  187.8880  177.4300  139.4680 C   0  0  0  0  0  0  0  0  0  0  0  0
  185.7590  178.7130  139.3390 N   0  0  0  0  0  0  0  0  0  0  0  0
  191.0700  176.6020  136.5750 C   0  0  2  0  0  3  0  0  0  0  0  0
  187.2570  178.9430  141.3080 C   0  0  0  0  0  2  0  0  0  0  0  0
  185.9870  179.2290  140.5130 C   0  0  0  0  0  3  0  0  0  0  0  0
  187.8150  176.4360  137.3880 C   0  0  2  0  0  3  0  0  0  0  0  0
  190.9360  176.9490  138.0760 C   0  0  0  0  0  2  0  0  0  0  0  0
  188.5980  176.5280  138.6330 N   0  0  0  0  0  0  0  0  0  0  0  0
  189.7920  176.1040  135.8880 C   0  0  0  0  0  2  0  0  0  0  0  0
  189.3640  177.4720  141.4450 C   0  0  0  0  0  0  0  0  0  0  0  0
  191.7760  177.4980  141.7310 C   0  0  0  0  0  3  0  0  0  0  0  0
  190.3980  176.1970  143.2340 C   0  0  0  0  0  3  0  0  0  0  0  0
  190.6340  177.9080  141.0410 C   0  0  0  0  0  3  0  0  0  0  0  0
  191.6570  176.6440  142.8290 C   0  0  0  0  0  3  0  0  0  0  0  0
  189.2420  176.6030  142.5450 C   0  0  0  0  0  0  0  0  0  0  0  0
  187.9720  176.1650  142.9460 O   0  0  0  0  0  0  0  0  0  0  0  0
  187.4590  176.3470  144.2610 C   0  0  0  0  0  2  0  0  0  0  0  0
  187.3580  177.8280  144.5790 C   0  0  0  0  0  2  0  0  0  0  0  0
  184.0230  178.9570  145.7690 N   0  0  0  0  0  1  0  0  0  0  0  0
  186.1460  178.6720  146.9810 N   0  0  0  0  0  1  0  0  0  0  0  0
  185.4010  178.6000  145.7670 C   0  0  0  0  0  0  0  0  0  0  0  0
  185.9570  178.2120  144.6620 N   0  0  0  0  0  0  0  0  0  0  0  0
  192.2050  175.7230  136.2650 N   0  0  1  0  0  0  0  0  0  0  0  0
  193.4160  176.2840  136.8700 C   0  0  0  0  0  2  0  0  0  0  0  0
  193.1860  173.4860  136.4730 C   0  0  0  0  0  2  0  0  0  0  0  0
  191.9740  174.3660  136.7780 C   0  0  0  0  0  2  0  0  0  0  0  0
  194.3740  174.0480  137.1130 N   0  0  0  0  0  0  0  0  0  0  0  0
  194.6110  175.3820  136.5650 C   0  0  0  0  0  2  0  0  0  0  0  0
  195.4970  173.2150  136.7130 C   0  0  0  0  0  2  0  0  0  0  0  0
  196.7150  174.5640  139.5910 C   0  0  0  0  0  3  0  0  0  0  0  0
  197.7850  174.7060  138.8370 C   0  0  0  0  0  3  0  0  0  0  0  0
  197.7390  173.7590  137.6860 C   0  0  0  0  0  2  0  0  0  0  0  0
  195.8480  173.5620  139.0910 N   0  0  0  0  0  2  0  0  0  0  0  0
  196.4320  172.9920  137.8920 C   0  0  1  0  0  3  0  0  0  0  0  0
  1  9  1  0  0  0  0
  1 15  1  0  0  0  0
  3  7  1  0  0  0  0
  3  6  1  0  0  0  0
  4  3  2  0  0  0  0
  6  1  2  0  0  0  0
  7 10  2  0  0  0  0
  8 14  1  1  0  0  0
  8 12  1  0  0  0  0
 10  9  1  0  0  0  0
 11  2  1  6  0  0  0
 11  4  1  0  0  0  0
 11 13  1  0  0  0  0
 12  5  1  0  0  0  0
 13  5  1  0  0  0  0
 13  6  1  0  0  0  0
 14  2  1  0  0  0  0
 15 20  1  0  0  0  0
 16 19  2  0  0  0  0
 18 15  2  0  0  0  0
 18 16  1  0  0  0  0
 19 17  1  0  0  0  0
 20 21  1  0  0  0  0
 20 17  2  0  0  0  0
 21 22  1  0  0  0  0
 22 23  1  0  0  0  0
 23 27  1  0  0  0  0
 26 24  1  0  0  0  0
 26 25  1  0  0  0  0
 27 26  2  0  0  0  0
 28  8  1  0  0  0  0
 28 31  1  1  0  0  0
 28 29  1  0  0  0  0
 30 31  1  0  0  0  0
 30 32  1  0  0  0  0
 33 29  1  0  0  0  0
 33 32  1  0  0  0  0
 34 32  1  0  0  0  0
 36 35  2  0  0  0  0
 37 39  1  0  0  0  0
 37 36  1  0  0  0  0
 38 35  1  0  0  0  0
 39 34  1  6  0  0  0
 39 38  1  0  0  0  0
M  END
>  <MODEL>
5

>  <REMARK>
 VINA RESULT:      -6.7      4.242      8.151
  Name = 
  8 active torsions:
  status: ('A' for Active; 'I' for Inactive)
    1  A    between atoms: C_2  and  C_4
    2  A    between atoms: C_3  and  C_30
    3  A    between atoms: C_3  and  N_31
    4  A    between atoms: N_8  and  C_21
    5  A    between atoms: C_14  and  C_32
    6  A    between atoms: C_14  and  N_36
    7  A    between atoms: O_20  and  C_30
    8  A    between atoms: O_20  and  C_34
                            x       y       z     vdW  Elec       q    Type
                         _______ _______ _______ _____ _____    ______ ____

>  <TORSDO>
F 8

$$$$
=
 OpenBabel11062417443D

 39 44  0  0  1  0  0  0  0  0999 V2000
  183.2400  177.2170  136.1330 C   0  0  0  0  0  0  0  0  0  0  0  0
  180.9780  178.9460  139.7470 C   0  0  0  0  0  2  0  0  0  0  0  0
  181.1100  178.2810  136.5250 C   0  0  0  0  0  0  0  0  0  0  0  0
  180.5310  179.0820  137.3520 N   0  0  0  0  0  0  0  0  0  0  0  0
  183.9410  178.6750  138.8770 C   0  0  0  0  0  2  0  0  0  0  0  0
  182.4680  178.0370  136.8590 C   0  0  0  0  0  0  0  0  0  0  0  0
  180.4970  177.6980  135.3780 N   0  0  0  0  0  0  0  0  0  0  0  0
  182.9420  178.2940  141.2060 C   0  0  2  0  0  3  0  0  0  0  0  0
  182.6200  176.4750  134.9600 C   0  0  0  0  0  2  0  0  0  0  0  0
  181.1830  176.8730  134.6390 C   0  0  0  0  0  3  0  0  0  0  0  0
  181.4960  179.4500  138.4030 C   0  0  2  0  0  3  0  0  0  0  0  0
  183.6850  177.6770  139.9980 C   0  0  0  0  0  2  0  0  0  0  0  0
  182.7580  178.7850  138.0310 N   0  0  0  0  0  0  0  0  0  0  0  0
  181.9060  179.3750  140.8720 C   0  0  0  0  0  2  0  0  0  0  0  0
  184.6620  176.9890  136.4390 C   0  0  0  0  0  0  0  0  0  0  0  0
  186.9800  177.6720  136.1990 C   0  0  0  0  0  3  0  0  0  0  0  0
  186.4360  175.6800  137.4550 C   0  0  0  0  0  3  0  0  0  0  0  0
  185.6240  177.8780  135.9370 C   0  0  0  0  0  3  0  0  0  0  0  0
  187.3850  176.5750  136.9590 C   0  0  0  0  0  3  0  0  0  0  0  0
  185.0680  175.8760  137.1980 C   0  0  0  0  0  0  0  0  0  0  0  0
  184.1040  174.9870  137.6960 O   0  0  0  0  0  0  0  0  0  0  0  0
  183.7740  173.7550  137.0640 C   0  0  0  0  0  2  0  0  0  0  0  0
  182.2670  173.6110  136.9620 C   0  0  0  0  0  2  0  0  0  0  0  0
  179.9690  175.5360  139.1590 N   0  0  0  0  0  1  0  0  0  0  0  0
  179.9020  173.1850  138.4380 N   0  0  0  0  0  1  0  0  0  0  0  0
  180.5390  174.4610  138.4210 C   0  0  0  0  0  0  0  0  0  0  0  0
  181.6260  174.6570  137.7430 N   0  0  0  0  0  0  0  0  0  0  0  0
  183.8310  178.7410  142.2870 N   0  0  1  0  0  0  0  0  0  0  0  0
  183.0770  178.7540  143.5430 C   0  0  0  0  0  2  0  0  0  0  0  0
  185.8780  178.3200  143.5680 C   0  0  0  0  0  2  0  0  0  0  0  0
  184.9930  177.8520  142.4130 C   0  0  0  0  0  2  0  0  0  0  0  0
  185.1140  178.2930  144.8140 N   0  0  0  0  0  0  0  0  0  0  0  0
  183.9830  179.2110  144.6850 C   0  0  0  0  0  2  0  0  0  0  0  0
  185.9840  178.8290  145.8490 C   0  0  0  0  0  2  0  0  0  0  0  0
  188.3550  178.0900  148.1750 C   0  0  0  0  0  3  0  0  0  0  0  0
  189.0700  177.8800  147.0900 C   0  0  0  0  0  3  0  0  0  0  0  0
  188.1790  177.6280  145.9220 C   0  0  0  0  0  2  0  0  0  0  0  0
  186.9650  178.0110  147.9140 N   0  0  0  0  0  2  0  0  0  0  0  0
  186.7690  177.7060  146.5090 C   0  0  1  0  0  3  0  0  0  0  0  0
  1 15  1  0  0  0  0
  1  6  2  0  0  0  0
  2 14  1  0  0  0  0
  3  6  1  0  0  0  0
  3  4  2  0  0  0  0
  4 11  1  0  0  0  0
  5 12  1  0  0  0  0
  6 13  1  0  0  0  0
  7  3  1  0  0  0  0
  8 12  1  6  0  0  0
  8 28  1  0  0  0  0
  9  1  1  0  0  0  0
 10  9  1  0  0  0  0
 10  7  2  0  0  0  0
 11  2  1  1  0  0  0
 13 11  1  0  0  0  0
 13  5  1  0  0  0  0
 14  8  1  0  0  0  0
 15 20  1  0  0  0  0
 16 19  2  0  0  0  0
 18 16  1  0  0  0  0
 18 15  2  0  0  0  0
 19 17  1  0  0  0  0
 20 17  2  0  0  0  0
 20 21  1  0  0  0  0
 22 21  1  0  0  0  0
 23 22  1  0  0  0  0
 23 27  1  0  0  0  0
 26 25  1  0  0  0  0
 26 24  1  0  0  0  0
 27 26  2  0  0  0  0
 28 31  1  1  0  0  0
 28 29  1  0  0  0  0
 29 33  1  0  0  0  0
 30 32  1  0  0  0  0
 31 30  1  0  0  0  0
 32 34  1  0  0  0  0
 33 32  1  0  0  0  0
 36 35  2  0  0  0  0
 37 39  1  0  0  0  0
 37 36  1  0  0  0  0
 38 35  1  0  0  0  0
 39 34  1  6  0  0  0
 39 38  1  0  0  0  0
M  END
>  <MODEL>
6

>  <REMARK>
 VINA RESULT:      -6.5      3.730      7.260
  Name = 
  8 active torsions:
  status: ('A' for Active; 'I' for Inactive)
    1  A    between atoms: C_2  and  C_4
    2  A    between atoms: C_3  and  C_30
    3  A    between atoms: C_3  and  N_31
    4  A    between atoms: N_8  and  C_21
    5  A    between atoms: C_14  and  C_32
    6  A    between atoms: C_14  and  N_36
    7  A    between atoms: O_20  and  C_30
    8  A    between atoms: O_20  and  C_34
                            x       y       z     vdW  Elec       q    Type
                         _______ _______ _______ _____ _____    ______ ____

>  <TORSDO>
F 8

$$$$
=
 OpenBabel11062417443D

 39 44  0  0  1  0  0  0  0  0999 V2000
  180.6850  177.0310  137.9880 C   0  0  0  0  0  0  0  0  0  0  0  0
  184.5600  179.1740  139.2400 C   0  0  0  0  0  2  0  0  0  0  0  0
  182.5130  178.1460  136.8730 C   0  0  0  0  0  0  0  0  0  0  0  0
  183.7510  178.4560  137.0520 N   0  0  0  0  0  0  0  0  0  0  0  0
  182.8520  176.8200  140.3120 C   0  0  0  0  0  2  0  0  0  0  0  0
  181.9650  177.4300  137.9700 C   0  0  0  0  0  0  0  0  0  0  0  0
  181.7470  178.4530  135.7120 N   0  0  0  0  0  0  0  0  0  0  0  0
  183.9670  178.6980  141.6540 C   0  0  2  0  0  3  0  0  0  0  0  0
  179.7820  177.4210  136.8290 C   0  0  0  0  0  2  0  0  0  0  0  0
  180.4890  178.1150  135.6690 C   0  0  0  0  0  3  0  0  0  0  0  0
  184.1690  177.9750  138.3800 C   0  0  2  0  0  3  0  0  0  0  0  0
  182.6440  178.0130  141.2350 C   0  0  0  0  0  2  0  0  0  0  0  0
  182.9960  177.2770  138.9350 N   0  0  0  0  0  0  0  0  0  0  0  0
  185.0750  178.7150  140.5940 C   0  0  0  0  0  2  0  0  0  0  0  0
  180.1140  176.2480  139.0950 C   0  0  0  0  0  0  0  0  0  0  0  0
  178.9340  176.1940  141.2170 C   0  0  0  0  0  3  0  0  0  0  0  0
  179.6970  174.1320  140.2100 C   0  0  0  0  0  3  0  0  0  0  0  0
  179.4680  176.9140  140.1460 C   0  0  0  0  0  3  0  0  0  0  0  0
  179.0470  174.8030  141.2470 C   0  0  0  0  0  3  0  0  0  0  0  0
  180.2390  174.8470  139.1270 C   0  0  0  0  0  0  0  0  0  0  0  0
  180.8890  174.1830  138.0770 O   0  0  0  0  0  0  0  0  0  0  0  0
  180.2810  173.1530  137.3060 C   0  0  0  0  0  2  0  0  0  0  0  0
  181.2810  172.0410  137.0440 C   0  0  0  0  0  2  0  0  0  0  0  0
  184.9640  172.4830  136.8270 N   0  0  0  0  0  1  0  0  0  0  0  0
  183.5590  170.5080  136.4060 N   0  0  0  0  0  1  0  0  0  0  0  0
  183.6760  171.8800  136.7760 C   0  0  0  0  0  0  0  0  0  0  0  0
  182.6290  172.5860  137.0700 N   0  0  0  0  0  0  0  0  0  0  0  0
  184.4900  178.2410  142.9480 N   0  0  1  0  0  0  0  0  0  0  0  0
  185.9000  177.8770  142.7860 C   0  0  0  0  0  2  0  0  0  0  0  0
  184.9460  178.7990  145.2910 C   0  0  0  0  0  2  0  0  0  0  0  0
  184.3600  179.2900  143.9680 C   0  0  0  0  0  2  0  0  0  0  0  0
  186.3590  178.4730  145.1120 N   0  0  0  0  0  0  0  0  0  0  0  0
  186.4680  177.4030  144.1220 C   0  0  0  0  0  2  0  0  0  0  0  0
  186.8280  177.9340  146.3790 C   0  0  0  0  0  2  0  0  0  0  0  0
  190.0890  177.0250  146.0320 C   0  0  0  0  0  3  0  0  0  0  0  0
  189.9710  176.8490  147.3320 C   0  0  0  0  0  3  0  0  0  0  0  0
  188.8240  177.6400  147.8610 C   0  0  0  0  0  2  0  0  0  0  0  0
  189.1030  177.9080  145.5290 N   0  0  0  0  0  2  0  0  0  0  0  0
  188.2680  178.3550  146.6280 C   0  0  1  0  0  3  0  0  0  0  0  0
  1 15  1  0  0  0  0
  2 14  1  0  0  0  0
  3  4  2  0  0  0  0
  3  6  1  0  0  0  0
  4 11  1  0  0  0  0
  5 12  1  0  0  0  0
  6  1  2  0  0  0  0
  6 13  1  0  0  0  0
  7  3  1  0  0  0  0
  8 14  1  6  0  0  0
  8 28  1  0  0  0  0
  9  1  1  0  0  0  0
 10  7  2  0  0  0  0
 10  9  1  0  0  0  0
 11 13  1  0  0  0  0
 11  2  1  1  0  0  0
 12  8  1  0  0  0  0
 13  5  1  0  0  0  0
 15 20  2  0  0  0  0
 15 18  1  0  0  0  0
 16 19  1  0  0  0  0
 17 19  2  0  0  0  0
 18 16  2  0  0  0  0
 20 17  1  0  0  0  0
 21 20  1  0  0  0  0
 22 21  1  0  0  0  0
 23 27  1  0  0  0  0
 23 22  1  0  0  0  0
 25 26  1  0  0  0  0
 26 24  1  0  0  0  0
 26 27  2  0  0  0  0
 28 29  1  6  0  0  0
 28 31  1  0  0  0  0
 29 33  1  0  0  0  0
 31 30  1  0  0  0  0
 32 30  1  0  0  0  0
 32 34  1  0  0  0  0
 33 32  1  0  0  0  0
 35 36  2  0  0  0  0
 36 37  1  0  0  0  0
 38 35  1  0  0  0  0
 38 39  1  0  0  0  0
 39 34  1  6  0  0  0
 39 37  1  0  0  0  0
M  END
>  <MODEL>
7

>  <REMARK>
 VINA RESULT:      -6.4      4.305      7.276
  Name = 
  8 active torsions:
  status: ('A' for Active; 'I' for Inactive)
    1  A    between atoms: C_2  and  C_4
    2  A    between atoms: C_3  and  C_30
    3  A    between atoms: C_3  and  N_31
    4  A    between atoms: N_8  and  C_21
    5  A    between atoms: C_14  and  C_32
    6  A    between atoms: C_14  and  N_36
    7  A    between atoms: O_20  and  C_30
    8  A    between atoms: O_20  and  C_34
                            x       y       z     vdW  Elec       q    Type
                         _______ _______ _______ _____ _____    ______ ____

>  <TORSDO>
F 8

$$$$
=
 OpenBabel11062417443D

 39 44  0  0  1  0  0  0  0  0999 V2000
  188.1150  177.7510  145.3690 C   0  0  0  0  0  0  0  0  0  0  0  0
  183.8290  179.3040  144.7450 C   0  0  0  0  0  2  0  0  0  0  0  0
  186.2210  178.2820  146.7660 C   0  0  0  0  0  0  0  0  0  0  0  0
  184.9360  178.3770  146.7130 N   0  0  0  0  0  0  0  0  0  0  0  0
  185.8310  177.5460  143.1600 C   0  0  0  0  0  2  0  0  0  0  0  0
  186.7910  177.8890  145.5270 C   0  0  0  0  0  0  0  0  0  0  0  0
  187.0160  178.5180  147.9250 N   0  0  0  0  0  0  0  0  0  0  0  0
  184.2900  179.3840  142.2580 C   0  0  2  0  0  3  0  0  0  0  0  0
  189.0310  178.0940  146.5340 C   0  0  0  0  0  2  0  0  0  0  0  0
  188.3130  178.4240  147.8380 C   0  0  0  0  0  3  0  0  0  0  0  0
  184.4990  178.0680  145.3410 C   0  0  2  0  0  3  0  0  0  0  0  0
  185.7440  178.9000  142.4710 C   0  0  0  0  0  2  0  0  0  0  0  0
  185.7260  177.7160  144.6050 N   0  0  0  0  0  0  0  0  0  0  0  0
  183.2910  179.0020  143.3560 C   0  0  0  0  0  2  0  0  0  0  0  0
  188.7200  177.2990  144.1060 C   0  0  0  0  0  0  0  0  0  0  0  0
  188.9610  175.5780  142.4100 C   0  0  0  0  0  3  0  0  0  0  0  0
  190.2220  177.6330  142.2280 C   0  0  0  0  0  3  0  0  0  0  0  0
  188.3870  176.0360  143.5970 C   0  0  0  0  0  3  0  0  0  0  0  0
  189.8770  176.3780  141.7250 C   0  0  0  0  0  3  0  0  0  0  0  0
  189.6510  178.1040  143.4230 C   0  0  0  0  0  0  0  0  0  0  0  0
  189.9850  179.3660  143.9360 O   0  0  0  0  0  0  0  0  0  0  0  0
  191.3010  179.7210  144.3460 C   0  0  0  0  0  2  0  0  0  0  0  0
  192.1950  178.4950  144.3430 C   0  0  0  0  0  2  0  0  0  0  0  0
  191.8520  175.8820  146.9640 N   0  0  0  0  0  1  0  0  0  0  0  0
  192.0560  175.6840  144.5190 N   0  0  0  0  0  1  0  0  0  0  0  0
  191.9920  176.4990  145.6880 C   0  0  0  0  0  0  0  0  0  0  0  0
  192.0550  177.7900  145.6090 N   0  0  0  0  0  0  0  0  0  0  0  0
  183.7480  179.0730  140.9280 N   0  0  1  0  0  0  0  0  0  0  0  0
  184.8510  179.0350  139.9650 C   0  0  0  0  0  2  0  0  0  0  0  0
  182.5280  177.4680  139.5330 C   0  0  0  0  0  2  0  0  0  0  0  0
  183.0480  177.7810  140.9360 C   0  0  0  0  0  2  0  0  0  0  0  0
  183.6490  177.4040  138.5970 N   0  0  0  0  0  0  0  0  0  0  0  0
  184.3110  178.7070  138.5740 C   0  0  0  0  0  2  0  0  0  0  0  0
  183.0790  177.1900  137.2760 C   0  0  0  0  0  2  0  0  0  0  0  0
  186.1460  175.7830  136.8420 C   0  0  0  0  0  3  0  0  0  0  0  0
  186.0650  176.4370  135.7020 C   0  0  0  0  0  3  0  0  0  0  0  0
  184.6410  176.7350  135.3750 C   0  0  0  0  0  2  0  0  0  0  0  0
  184.8700  175.5560  137.4110 N   0  0  0  0  0  2  0  0  0  0  0  0
  183.8590  176.1170  136.5340 C   0  0  1  0  0  3  0  0  0  0  0  0
  1  6  2  0  0  0  0
  1  9  1  0  0  0  0
  3  7  1  0  0  0  0
  4  3  2  0  0  0  0
  5 13  1  0  0  0  0
  6  3  1  0  0  0  0
  8 12  1  1  0  0  0
  8 14  1  0  0  0  0
  9 10  1  0  0  0  0
 10  7  2  0  0  0  0
 11  2  1  6  0  0  0
 11  4  1  0  0  0  0
 12  5  1  0  0  0  0
 13 11  1  0  0  0  0
 13  6  1  0  0  0  0
 14  2  1  0  0  0  0
 15  1  1  0  0  0  0
 16 18  2  0  0  0  0
 17 20  1  0  0  0  0
 18 15  1  0  0  0  0
 19 17  2  0  0  0  0
 19 16  1  0  0  0  0
 20 21  1  0  0  0  0
 20 15  2  0  0  0  0
 21 22  1  0  0  0  0
 23 22  1  0  0  0  0
 23 27  1  0  0  0  0
 25 26  1  0  0  0  0
 26 24  1  0  0  0  0
 27 26  2  0  0  0  0
 28 29  1  6  0  0  0
 28 31  1  0  0  0  0
 28  8  1  0  0  0  0
 30 31  1  0  0  0  0
 32 30  1  0  0  0  0
 33 32  1  0  0  0  0
 33 29  1  0  0  0  0
 34 32  1  0  0  0  0
 35 38  1  0  0  0  0
 36 35  2  0  0  0  0
 37 36  1  0  0  0  0
 37 39  1  0  0  0  0
 39 34  1  1  0  0  0
 39 38  1  0  0  0  0
M  END
>  <MODEL>
8

>  <REMARK>
 VINA RESULT:      -6.2      3.905      8.505
  Name = 
  8 active torsions:
  status: ('A' for Active; 'I' for Inactive)
    1  A    between atoms: C_2  and  C_4
    2  A    between atoms: C_3  and  C_30
    3  A    between atoms: C_3  and  N_31
    4  A    between atoms: N_8  and  C_21
    5  A    between atoms: C_14  and  C_32
    6  A    between atoms: C_14  and  N_36
    7  A    between atoms: O_20  and  C_30
    8  A    between atoms: O_20  and  C_34
                            x       y       z     vdW  Elec       q    Type
                         _______ _______ _______ _____ _____    ______ ____

>  <TORSDO>
F 8

$$$$
=
 OpenBabel11062417443D

 39 44  0  0  1  0  0  0  0  0999 V2000
  190.4830  177.4300  140.3960 C   0  0  0  0  0  0  0  0  0  0  0  0
  187.2090  178.0080  143.5770 C   0  0  0  0  0  2  0  0  0  0  0  0
  190.1910  176.8960  142.7310 C   0  0  0  0  0  0  0  0  0  0  0  0
  189.2610  176.6880  143.5990 N   0  0  0  0  0  0  0  0  0  0  0  0
  187.3030  177.5520  140.5120 C   0  0  0  0  0  2  0  0  0  0  0  0
  189.6780  177.1690  141.4360 C   0  0  0  0  0  0  0  0  0  0  0  0
  191.5900  176.8480  142.9960 N   0  0  0  0  0  0  0  0  0  0  0  0
  185.7970  179.1610  141.8200 C   0  0  2  0  0  3  0  0  0  0  0  0
  191.9830  177.5050  140.6320 C   0  0  0  0  0  2  0  0  0  0  0  0
  192.4310  177.1140  142.0370 C   0  0  0  0  0  3  0  0  0  0  0  0
  187.9560  176.8410  142.9350 C   0  0  2  0  0  3  0  0  0  0  0  0
  186.9130  179.0020  140.7610 C   0  0  0  0  0  2  0  0  0  0  0  0
  188.2620  177.1150  141.5200 N   0  0  0  0  0  0  0  0  0  0  0  0
  185.8210  178.1500  142.9730 C   0  0  0  0  0  2  0  0  0  0  0  0
  189.9700  177.6690  139.0370 C   0  0  0  0  0  0  0  0  0  0  0  0
  188.9200  179.1660  137.4400 C   0  0  0  0  0  3  0  0  0  0  0  0
  189.4710  176.9040  136.7880 C   0  0  0  0  0  3  0  0  0  0  0  0
  189.4300  178.9220  138.7160 C   0  0  0  0  0  3  0  0  0  0  0  0
  188.9430  178.1580  136.4750 C   0  0  0  0  0  3  0  0  0  0  0  0
  189.9850  176.6460  138.0700 C   0  0  0  0  0  0  0  0  0  0  0  0
  190.5230  175.3920  138.3940 O   0  0  0  0  0  0  0  0  0  0  0  0
  191.4910  174.7250  137.5930 C   0  0  0  0  0  2  0  0  0  0  0  0
  190.8060  173.7490  136.6540 C   0  0  0  0  0  2  0  0  0  0  0  0
  187.3970  172.3570  137.1600 N   0  0  0  0  0  1  0  0  0  0  0  0
  188.8550  172.3450  135.1790 N   0  0  0  0  0  1  0  0  0  0  0  0
  188.6290  172.7070  136.5390 C   0  0  0  0  0  0  0  0  0  0  0  0
  189.5250  173.3520  137.2180 N   0  0  0  0  0  0  0  0  0  0  0  0
  184.4470  179.2700  141.2510 N   0  0  1  0  0  0  0  0  0  0  0  0
  184.5560  179.3760  139.7940 C   0  0  0  0  0  2  0  0  0  0  0  0
  182.2470  178.2250  140.9680 C   0  0  0  0  0  2  0  0  0  0  0  0
  183.6310  178.1010  141.6050 C   0  0  0  0  0  2  0  0  0  0  0  0
  182.3800  178.2980  139.5150 N   0  0  0  0  0  0  0  0  0  0  0  0
  183.1630  179.4860  139.1780 C   0  0  0  0  0  2  0  0  0  0  0  0
  181.0420  178.5010  138.9820 C   0  0  0  0  0  2  0  0  0  0  0  0
  180.3600  175.1700  139.1130 C   0  0  0  0  0  3  0  0  0  0  0  0
  181.5150  175.1110  138.4830 C   0  0  0  0  0  3  0  0  0  0  0  0
  181.8180  176.4180  137.8320 C   0  0  0  0  0  2  0  0  0  0  0  0
  179.7540  176.4430  138.9830 N   0  0  0  0  0  2  0  0  0  0  0  0
  180.6090  177.2890  138.1720 C   0  0  1  0  0  3  0  0  0  0  0  0
  1  9  1  0  0  0  0
  1  6  2  0  0  0  0
  3  7  1  0  0  0  0
  3  4  2  0  0  0  0
  5 12  1  0  0  0  0
  5 13  1  0  0  0  0
  6 13  1  0  0  0  0
  6  3  1  0  0  0  0
  8 12  1  6  0  0  0
  8 14  1  0  0  0  0
  9 10  1  0  0  0  0
 10  7  2  0  0  0  0
 11  2  1  1  0  0  0
 11  4  1  0  0  0  0
 13 11  1  0  0  0  0
 14  2  1  0  0  0  0
 15  1  1  0  0  0  0
 16 18  2  0  0  0  0
 17 20  1  0  0  0  0
 18 15  1  0  0  0  0
 19 17  2  0  0  0  0
 19 16  1  0  0  0  0
 20 21  1  0  0  0  0
 20 15  2  0  0  0  0
 22 21  1  0  0  0  0
 23 27  1  0  0  0  0
 23 22  1  0  0  0  0
 25 26  1  0  0  0  0
 26 24  1  0  0  0  0
 26 27  2  0  0  0  0
 28 29  1  6  0  0  0
 28 31  1  0  0  0  0
 28  8  1  0  0  0  0
 30 31  1  0  0  0  0
 32 30  1  0  0  0  0
 33 32  1  0  0  0  0
 33 29  1  0  0  0  0
 34 32  1  0  0  0  0
 36 35  2  0  0  0  0
 37 39  1  0  0  0  0
 37 36  1  0  0  0  0
 38 35  1  0  0  0  0
 39 34  1  1  0  0  0
 39 38  1  0  0  0  0
M  END
>  <MODEL>
9

>  <REMARK>
 VINA RESULT:      -6.2      3.318      9.142
  Name = 
  8 active torsions:
  status: ('A' for Active; 'I' for Inactive)
    1  A    between atoms: C_2  and  C_4
    2  A    between atoms: C_3  and  C_30
    3  A    between atoms: C_3  and  N_31
    4  A    between atoms: N_8  and  C_21
    5  A    between atoms: C_14  and  C_32
    6  A    between atoms: C_14  and  N_36
    7  A    between atoms: O_20  and  C_30
    8  A    between atoms: O_20  and  C_34
                            x       y       z     vdW  Elec       q    Type
                         _______ _______ _______ _____ _____    ______ ____

>  <TORSDO>
F 8

$$$$
