=
 OpenBabel11062412253D

 37 41  0  0  1  0  0  0  0  0999 V2000
  186.3620  178.0470  143.7210 C   0  0  0  0  0  2  0  0  0  0  0  0
  187.2490  178.8060  141.3970 C   0  0  0  0  0  2  0  0  0  0  0  0
  188.4390  177.3850  145.1540 C   0  0  0  0  0  2  0  0  0  0  0  0
  187.8350  178.2730  144.0710 C   0  0  1  0  0  3  0  0  0  0  0  0
  186.1130  178.1100  142.1870 C   0  0  2  0  0  3  0  0  0  0  0  0
  188.6690  177.5560  143.0470 C   0  0  1  0  0  0  0  0  0  0  0  0
  189.3130  176.6820  144.1140 C   0  0  2  0  0  0  0  0  0  0  0  0
  188.5370  176.0320  143.0030 C   0  0  0  0  0  2  0  0  0  0  0  0
  188.6490  178.1770  141.6330 C   0  0  1  0  0  3  0  0  0  0  0  0
  191.4890  176.0400  144.9060 O   0  0  0  0  0  0  0  0  0  0  0  0
  190.8270  176.8890  144.0820 C   0  0  2  0  0  0  0  0  0  0  0  0
  191.4890  178.2530  143.9920 C   0  0  0  0  0  1  0  0  0  0  0  0
  191.5940  175.7990  143.5420 N   0  0  0  0  0  2  0  0  0  0  0  0
  189.0830  177.2540  140.4710 C   0  0  1  0  0  3  0  0  0  0  0  0
  189.3970  178.5920  138.3190 C   0  0  0  0  0  2  0  0  0  0  0  0
  188.2110  178.3280  136.2410 O   0  0  0  0  0  0  0  0  0  0  0  0
  188.0860  176.4360  138.2970 C   0  0  0  0  0  2  0  0  0  0  0  0
  186.9090  178.0150  136.6440 C   0  0  0  0  0  2  0  0  0  0  0  0
  188.6540  179.2740  137.1750 C   0  0  0  0  0  2  0  0  0  0  0  0
  186.8720  176.6810  137.3950 C   0  0  0  0  0  2  0  0  0  0  0  0
  188.4720  177.6670  139.1190 C   0  0  1  0  0  3  0  0  0  0  0  0
  190.5750  177.0940  140.3980 C   0  0  0  0  0  0  0  0  0  0  0  0
  191.1150  176.0070  139.7250 O   0  0  0  0  0  0  0  0  0  0  0  0
  191.3420  177.9540  140.9080 O   0  0  0  0  0  1  0  0  0  0  0  0
  184.7870  178.7900  141.8940 C   0  0  0  0  0  2  0  0  0  0  0  0
  184.5080  178.8380  140.3980 C   0  0  0  0  0  2  0  0  0  0  0  0
  183.2950  177.5730  139.8980 S   0  0  0  0  0  0  0  0  0  0  0  0
  182.4840  178.6470  138.6700 C   0  0  0  0  0  2  0  0  0  0  0  0
  182.5840  180.1140  139.0680 C   0  0  0  0  0  2  0  0  0  0  0  0
  180.6770  181.6830  138.4890 C   0  0  0  0  0  0  0  0  0  0  0  0
  181.8550  180.9540  138.1290 N   0  0  0  0  0  2  0  0  0  0  0  0
  180.1920  181.5620  139.6440 O   0  0  0  0  0  0  0  0  0  0  0  0
  180.0330  182.5220  137.5700 O   0  0  0  0  0  0  0  0  0  0  0  0
  180.8730  183.1210  135.4870 O   0  0  0  0  0  0  0  0  0  0  0  0
  180.6790  183.4080  136.6990 C   0  0  0  0  0  0  0  0  0  0  0  0
  182.4610  184.6460  137.6140 O   0  0  0  0  0  1  0  0  0  0  0  0
  181.1290  184.7290  137.2120 C   0  0  0  0  0  2  0  0  0  0  0  0
  2  9  1  0  0  0  0
  2  5  1  0  0  0  0
  4  1  1  6  0  0  0
  4  3  1  0  0  0  0
  5 25  1  1  0  0  0
  5  1  1  0  0  0  0
  6  8  1  6  0  0  0
  6  4  1  0  0  0  0
  6  7  1  0  0  0  0
  7  8  1  6  0  0  0
  7  3  1  0  0  0  0
  9 14  1  6  0  0  0
  9  6  1  0  0  0  0
 11 12  1  6  0  0  0
 11  7  1  0  0  0  0
 11 10  1  0  0  0  0
 13 11  1  0  0  0  0
 13 10  1  0  0  0  0
 14 22  1  6  0  0  0
 15 21  1  0  0  0  0
 16 18  1  0  0  0  0
 16 19  1  0  0  0  0
 17 21  1  0  0  0  0
 18 20  1  0  0  0  0
 19 15  1  0  0  0  0
 20 17  1  0  0  0  0
 21 14  1  1  0  0  0
 22 24  1  0  0  0  0
 23 22  2  0  0  0  0
 26 25  1  0  0  0  0
 27 26  1  0  0  0  0
 28 29  1  0  0  0  0
 28 27  1  0  0  0  0
 30 32  2  0  0  0  0
 31 30  1  0  0  0  0
 31 29  1  0  0  0  0
 33 30  1  0  0  0  0
 34 35  2  0  0  0  0
 35 37  1  0  0  0  0
 35 33  1  0  0  0  0
 37 36  1  0  0  0  0
M  END
>  <MODEL>
1

>  <REMARK>
 VINA RESULT:      -7.2      0.000      0.000
  Name = 
  13 active torsions:
  status: ('A' for Active; 'I' for Inactive)
    1  A    between atoms: C_4  and  C_23
    2  A    between atoms: C_4  and  S_27
    3  A    between atoms: C_8  and  N_17
    4  A    between atoms: C_8  and  C_25
    5  A    between atoms: O_9  and  C_11
    6  A    between atoms: O_9  and  C_20
    7  A    between atoms: C_10  and  C_12
    8  A    between atoms: C_10  and  C_34
    9  A    between atoms: C_10  and  C_36
   10  A    between atoms: C_13  and  C_33
   11  A    between atoms: C_20  and  C_24
   12  A    between atoms: C_23  and  C_26
   13  A    between atoms: C_25  and  S_27
                            x       y       z     vdW  Elec       q    Type
                         _______ _______ _______ _____ _____    ______ ____

>  <TORSDO>
F 13

$$$$
=
 OpenBabel11062412253D

 37 41  0  0  1  0  0  0  0  0999 V2000
  185.8810  178.3960  139.2040 C   0  0  0  0  0  2  0  0  0  0  0  0
  186.1080  179.3070  141.6300 C   0  0  0  0  0  2  0  0  0  0  0  0
  183.3690  178.6190  138.5350 C   0  0  0  0  0  2  0  0  0  0  0  0
  184.5620  179.1650  139.3130 C   0  0  1  0  0  3  0  0  0  0  0  0
  186.6040  178.2830  140.5770 C   0  0  2  0  0  3  0  0  0  0  0  0
  183.8900  178.7540  140.5920 C   0  0  1  0  0  0  0  0  0  0  0  0
  182.6720  178.2340  139.8420 C   0  0  2  0  0  0  0  0  0  0  0  0
  183.4640  177.2880  140.7000 C   0  0  0  0  0  2  0  0  0  0  0  0
  184.5770  179.2500  141.8830 C   0  0  1  0  0  3  0  0  0  0  0  0
  180.2840  178.2940  140.1010 O   0  0  0  0  0  0  0  0  0  0  0  0
  181.4310  178.9810  140.3260 C   0  0  2  0  0  0  0  0  0  0  0  0
  181.2470  180.4840  140.1950 C   0  0  0  0  0  1  0  0  0  0  0  0
  180.7210  178.3700  141.4180 N   0  0  0  0  0  2  0  0  0  0  0  0
  184.2250  178.4930  143.1840 C   0  0  1  0  0  3  0  0  0  0  0  0
  184.9890  178.5470  145.6200 C   0  0  0  0  0  2  0  0  0  0  0  0
  187.0460  177.6920  146.5310 O   0  0  0  0  0  0  0  0  0  0  0  0
  186.1720  177.0750  143.9480 C   0  0  0  0  0  2  0  0  0  0  0  0
  187.9870  177.9680  145.5340 C   0  0  0  0  0  2  0  0  0  0  0  0
  186.1890  178.7990  146.5280 C   0  0  0  0  0  2  0  0  0  0  0  0
  187.6690  177.1980  144.2500 C   0  0  0  0  0  2  0  0  0  0  0  0
  185.4150  178.3870  144.1560 C   0  0  1  0  0  3  0  0  0  0  0  0
  182.9950  179.0440  143.8480 C   0  0  0  0  0  0  0  0  0  0  0  0
  182.7800  180.4150  143.8610 O   0  0  0  0  0  0  0  0  0  0  0  0
  182.1390  178.2750  144.3610 O   0  0  0  0  0  1  0  0  0  0  0  0
  188.1060  178.4120  140.3960 C   0  0  0  0  0  2  0  0  0  0  0  0
  188.6500  177.3170  139.4880 C   0  0  0  0  0  2  0  0  0  0  0  0
  190.3910  176.9320  139.8670 S   0  0  0  0  0  0  0  0  0  0  0  0
  190.2800  177.5080  141.5910 C   0  0  0  0  0  2  0  0  0  0  0  0
  191.6640  177.6560  142.2140 C   0  0  0  0  0  2  0  0  0  0  0  0
  191.6180  176.9920  144.6620 C   0  0  0  0  0  0  0  0  0  0  0  0
  191.5600  177.9810  143.6290 N   0  0  0  0  0  2  0  0  0  0  0  0
  191.6980  175.7730  144.3600 O   0  0  0  0  0  0  0  0  0  0  0  0
  191.5670  177.3510  146.0140 O   0  0  0  0  0  0  0  0  0  0  0  0
  190.0400  176.3120  147.4260 O   0  0  0  0  0  0  0  0  0  0  0  0
  191.2350  176.4860  147.0650 C   0  0  0  0  0  0  0  0  0  0  0  0
  192.9910  176.5910  148.6310 O   0  0  0  0  0  1  0  0  0  0  0  0
  192.3180  175.7390  147.7570 C   0  0  0  0  0  2  0  0  0  0  0  0
  1  4  1  0  0  0  0
  1  5  1  0  0  0  0
  2  9  1  0  0  0  0
  4  3  1  6  0  0  0
  4  6  1  0  0  0  0
  5 25  1  6  0  0  0
  5  2  1  0  0  0  0
  6  8  1  1  0  0  0
  6  9  1  0  0  0  0
  7  3  1  6  0  0  0
  7 11  1  0  0  0  0
  7  6  1  0  0  0  0
  7  8  1  0  0  0  0
  9 14  1  1  0  0  0
 10 11  1  0  0  0  0
 10 13  1  0  0  0  0
 11 12  1  6  0  0  0
 11 13  1  0  0  0  0
 14 22  1  1  0  0  0
 15 19  1  0  0  0  0
 17 21  1  0  0  0  0
 17 20  1  0  0  0  0
 18 16  1  0  0  0  0
 19 16  1  0  0  0  0
 20 18  1  0  0  0  0
 21 14  1  6  0  0  0
 21 15  1  0  0  0  0
 22 23  2  0  0  0  0
 22 24  1  0  0  0  0
 26 27  1  0  0  0  0
 26 25  1  0  0  0  0
 27 28  1  0  0  0  0
 28 29  1  0  0  0  0
 29 31  1  0  0  0  0
 30 33  1  0  0  0  0
 31 30  1  0  0  0  0
 32 30  2  0  0  0  0
 33 35  1  0  0  0  0
 35 34  2  0  0  0  0
 35 37  1  0  0  0  0
 37 36  1  0  0  0  0
M  END
>  <MODEL>
2

>  <REMARK>
 VINA RESULT:      -7.1      3.423     10.016
  Name = 
  13 active torsions:
  status: ('A' for Active; 'I' for Inactive)
    1  A    between atoms: C_4  and  C_23
    2  A    between atoms: C_4  and  S_27
    3  A    between atoms: C_8  and  N_17
    4  A    between atoms: C_8  and  C_25
    5  A    between atoms: O_9  and  C_11
    6  A    between atoms: O_9  and  C_20
    7  A    between atoms: C_10  and  C_12
    8  A    between atoms: C_10  and  C_34
    9  A    between atoms: C_10  and  C_36
   10  A    between atoms: C_13  and  C_33
   11  A    between atoms: C_20  and  C_24
   12  A    between atoms: C_23  and  C_26
   13  A    between atoms: C_25  and  S_27
                            x       y       z     vdW  Elec       q    Type
                         _______ _______ _______ _____ _____    ______ ____

>  <TORSDO>
F 13

$$$$
=
 OpenBabel11062412253D

 37 41  0  0  1  0  0  0  0  0999 V2000
  190.5240  176.8200  142.9930 C   0  0  0  0  0  2  0  0  0  0  0  0
  187.9360  176.6520  142.8060 C   0  0  0  0  0  2  0  0  0  0  0  0
  191.1050  176.8840  145.5360 C   0  0  0  0  0  2  0  0  0  0  0  0
  190.1930  176.3810  144.4230 C   0  0  1  0  0  3  0  0  0  0  0  0
  189.2480  177.2000  142.1910 C   0  0  2  0  0  3  0  0  0  0  0  0
  189.1020  177.2770  144.9400 C   0  0  1  0  0  0  0  0  0  0  0  0
  189.9800  177.7670  146.0820 C   0  0  2  0  0  0  0  0  0  0  0  0
  189.4470  178.7600  145.0870 C   0  0  0  0  0  2  0  0  0  0  0  0
  187.7180  177.0690  144.2860 C   0  0  1  0  0  3  0  0  0  0  0  0
  189.9820  177.9220  148.4790 O   0  0  0  0  0  0  0  0  0  0  0  0
  189.2970  177.4480  147.4100 C   0  0  2  0  0  0  0  0  0  0  0  0
  188.5950  176.1320  147.7020 C   0  0  0  0  0  1  0  0  0  0  0  0
  188.8050  178.5810  148.1470 N   0  0  0  0  0  2  0  0  0  0  0  0
  186.7110  178.2340  144.4250 C   0  0  1  0  0  3  0  0  0  0  0  0
  184.2760  178.6190  143.7600 C   0  0  0  0  0  2  0  0  0  0  0  0
  183.4170  179.1330  141.5710 O   0  0  0  0  0  0  0  0  0  0  0  0
  186.1410  179.2640  142.1890 C   0  0  0  0  0  2  0  0  0  0  0  0
  184.2280  178.3820  140.7150 C   0  0  0  0  0  2  0  0  0  0  0  0
  183.2290  178.3150  142.6920 C   0  0  0  0  0  2  0  0  0  0  0  0
  185.6840  178.8510  140.7860 C   0  0  0  0  0  2  0  0  0  0  0  0
  185.6910  178.2840  143.2730 C   0  0  1  0  0  3  0  0  0  0  0  0
  186.0490  178.2550  145.7740 C   0  0  0  0  0  0  0  0  0  0  0  0
  185.7720  179.4710  146.3820 O   0  0  0  0  0  1  0  0  0  0  0  0
  185.7100  177.1830  146.3430 O   0  0  0  0  0  0  0  0  0  0  0  0
  189.3740  176.7420  140.7480 C   0  0  0  0  0  2  0  0  0  0  0  0
  189.3020  177.9200  139.7850 C   0  0  0  0  0  2  0  0  0  0  0  0
  188.5130  177.4540  138.2100 S   0  0  0  0  0  0  0  0  0  0  0  0
  189.6690  176.0840  137.8850 C   0  0  0  0  0  2  0  0  0  0  0  0
  191.0280  176.6040  137.4320 C   0  0  0  0  0  2  0  0  0  0  0  0
  193.4780  176.1450  137.9040 C   0  0  0  0  0  0  0  0  0  0  0  0
  192.0940  176.0420  138.2510 N   0  0  0  0  0  2  0  0  0  0  0  0
  193.8150  176.6850  136.8180 O   0  0  0  0  0  0  0  0  0  0  0  0
  194.4770  175.6380  138.7440 O   0  0  0  0  0  0  0  0  0  0  0  0
  196.6170  174.7680  138.4810 O   0  0  0  0  0  0  0  0  0  0  0  0
  195.3690  174.6120  138.4070 C   0  0  0  0  0  0  0  0  0  0  0  0
  195.3080  172.2920  138.8090 O   0  0  0  0  0  1  0  0  0  0  0  0
  194.8260  173.2970  137.9710 C   0  0  0  0  0  2  0  0  0  0  0  0
  2  9  1  0  0  0  0
  3  7  1  0  0  0  0
  4  1  1  6  0  0  0
  4  6  1  0  0  0  0
  4  3  1  0  0  0  0
  5 25  1  6  0  0  0
  5  2  1  0  0  0  0
  5  1  1  0  0  0  0
  6  8  1  6  0  0  0
  6  7  1  0  0  0  0
  7  8  1  6  0  0  0
  7 11  1  0  0  0  0
  9 14  1  6  0  0  0
  9  6  1  0  0  0  0
 11 12  1  1  0  0  0
 11 13  1  0  0  0  0
 11 10  1  0  0  0  0
 13 10  1  0  0  0  0
 14 22  1  1  0  0  0
 16 19  1  0  0  0  0
 17 21  1  0  0  0  0
 18 20  1  0  0  0  0
 18 16  1  0  0  0  0
 19 15  1  0  0  0  0
 20 17  1  0  0  0  0
 21 15  1  0  0  0  0
 21 14  1  1  0  0  0
 22 24  2  0  0  0  0
 22 23  1  0  0  0  0
 26 25  1  0  0  0  0
 27 26  1  0  0  0  0
 28 27  1  0  0  0  0
 29 28  1  0  0  0  0
 29 31  1  0  0  0  0
 30 31  1  0  0  0  0
 30 33  1  0  0  0  0
 32 30  2  0  0  0  0
 35 34  2  0  0  0  0
 35 33  1  0  0  0  0
 37 35  1  0  0  0  0
 37 36  1  0  0  0  0
M  END
>  <MODEL>
3

>  <REMARK>
 VINA RESULT:      -7.1      4.207      8.926
  Name = 
  13 active torsions:
  status: ('A' for Active; 'I' for Inactive)
    1  A    between atoms: C_4  and  C_23
    2  A    between atoms: C_4  and  S_27
    3  A    between atoms: C_8  and  N_17
    4  A    between atoms: C_8  and  C_25
    5  A    between atoms: O_9  and  C_11
    6  A    between atoms: O_9  and  C_20
    7  A    between atoms: C_10  and  C_12
    8  A    between atoms: C_10  and  C_34
    9  A    between atoms: C_10  and  C_36
   10  A    between atoms: C_13  and  C_33
   11  A    between atoms: C_20  and  C_24
   12  A    between atoms: C_23  and  C_26
   13  A    between atoms: C_25  and  S_27
                            x       y       z     vdW  Elec       q    Type
                         _______ _______ _______ _____ _____    ______ ____

>  <TORSDO>
F 13

$$$$
=
 OpenBabel11062412253D

 37 41  0  0  1  0  0  0  0  0999 V2000
  186.3580  177.9280  143.9230 C   0  0  0  0  0  2  0  0  0  0  0  0
  187.1650  178.7860  141.6040 C   0  0  0  0  0  2  0  0  0  0  0  0
  188.4900  177.2950  145.2890 C   0  0  0  0  0  2  0  0  0  0  0  0
  187.8310  178.1940  144.2470 C   0  0  1  0  0  3  0  0  0  0  0  0
  186.0710  178.0280  142.3980 C   0  0  2  0  0  3  0  0  0  0  0  0
  188.6650  177.5370  143.1830 C   0  0  1  0  0  0  0  0  0  0  0  0
  189.3630  176.6540  144.2080 C   0  0  2  0  0  0  0  0  0  0  0  0
  188.5830  176.0110  143.0950 C   0  0  0  0  0  2  0  0  0  0  0  0
  188.5900  178.1990  141.7900 C   0  0  1  0  0  3  0  0  0  0  0  0
  191.5740  176.0830  144.9530 O   0  0  0  0  0  0  0  0  0  0  0  0
  190.8670  176.9130  144.1480 C   0  0  2  0  0  0  0  0  0  0  0  0
  191.4790  178.3010  144.0560 C   0  0  0  0  0  1  0  0  0  0  0  0
  191.6610  175.8550  143.5850 N   0  0  0  0  0  2  0  0  0  0  0  0
  189.0270  177.3260  140.5900 C   0  0  1  0  0  3  0  0  0  0  0  0
  189.5420  178.4860  138.3750 C   0  0  0  0  0  2  0  0  0  0  0  0
  188.2290  178.4470  136.3580 O   0  0  0  0  0  0  0  0  0  0  0  0
  187.7630  176.7010  138.4930 C   0  0  0  0  0  2  0  0  0  0  0  0
  186.9100  178.4620  136.8240 C   0  0  0  0  0  2  0  0  0  0  0  0
  188.9250  179.2890  137.2340 C   0  0  0  0  0  2  0  0  0  0  0  0
  186.5990  177.1980  137.6300 C   0  0  0  0  0  2  0  0  0  0  0  0
  188.4660  177.8300  139.2480 C   0  0  1  0  0  3  0  0  0  0  0  0
  190.5150  177.1240  140.5460 C   0  0  0  0  0  0  0  0  0  0  0  0
  191.0310  175.9490  140.0170 O   0  0  0  0  0  0  0  0  0  0  0  0
  191.3010  178.0220  140.9510 O   0  0  0  0  0  1  0  0  0  0  0  0
  184.7160  178.6710  142.1560 C   0  0  0  0  0  2  0  0  0  0  0  0
  184.5090  178.9870  140.6810 C   0  0  0  0  0  2  0  0  0  0  0  0
  183.3920  177.7870  139.8850 S   0  0  0  0  0  0  0  0  0  0  0  0
  182.6680  179.0140  138.7510 C   0  0  0  0  0  2  0  0  0  0  0  0
  181.1550  178.8530  138.6560 C   0  0  0  0  0  2  0  0  0  0  0  0
  179.6790  178.4130  140.6720 C   0  0  0  0  0  0  0  0  0  0  0  0
  180.5130  179.2760  139.8920 N   0  0  0  0  0  2  0  0  0  0  0  0
  179.4220  177.2510  140.2620 O   0  0  0  0  0  0  0  0  0  0  0  0
  179.1220  178.8400  141.8830 O   0  0  0  0  0  0  0  0  0  0  0  0
  180.0090  180.7800  142.8090 O   0  0  0  0  0  0  0  0  0  0  0  0
  179.8100  179.5380  142.8840 C   0  0  0  0  0  0  0  0  0  0  0  0
  179.7020  177.5370  144.1210 O   0  0  0  0  0  1  0  0  0  0  0  0
  180.2980  178.7960  144.0770 C   0  0  0  0  0  2  0  0  0  0  0  0
  2  9  1  0  0  0  0
  2  5  1  0  0  0  0
  4  1  1  6  0  0  0
  4  3  1  0  0  0  0
  5 25  1  1  0  0  0
  5  1  1  0  0  0  0
  6  8  1  6  0  0  0
  6  7  1  0  0  0  0
  6  4  1  0  0  0  0
  7  8  1  6  0  0  0
  7  3  1  0  0  0  0
  9 14  1  6  0  0  0
  9  6  1  0  0  0  0
 11 12  1  6  0  0  0
 11  7  1  0  0  0  0
 11 10  1  0  0  0  0
 13 11  1  0  0  0  0
 13 10  1  0  0  0  0
 14 22  1  6  0  0  0
 15 21  1  0  0  0  0
 16 18  1  0  0  0  0
 16 19  1  0  0  0  0
 17 21  1  0  0  0  0
 18 20  1  0  0  0  0
 19 15  1  0  0  0  0
 20 17  1  0  0  0  0
 21 14  1  1  0  0  0
 22 24  1  0  0  0  0
 23 22  2  0  0  0  0
 26 25  1  0  0  0  0
 27 26  1  0  0  0  0
 28 27  1  0  0  0  0
 29 28  1  0  0  0  0
 29 31  1  0  0  0  0
 30 33  1  0  0  0  0
 31 30  1  0  0  0  0
 32 30  2  0  0  0  0
 33 35  1  0  0  0  0
 34 35  2  0  0  0  0
 35 37  1  0  0  0  0
 37 36  1  0  0  0  0
M  END
>  <MODEL>
4

>  <REMARK>
 VINA RESULT:      -7.1      2.488      3.204
  Name = 
  13 active torsions:
  status: ('A' for Active; 'I' for Inactive)
    1  A    between atoms: C_4  and  C_23
    2  A    between atoms: C_4  and  S_27
    3  A    between atoms: C_8  and  N_17
    4  A    between atoms: C_8  and  C_25
    5  A    between atoms: O_9  and  C_11
    6  A    between atoms: O_9  and  C_20
    7  A    between atoms: C_10  and  C_12
    8  A    between atoms: C_10  and  C_34
    9  A    between atoms: C_10  and  C_36
   10  A    between atoms: C_13  and  C_33
   11  A    between atoms: C_20  and  C_24
   12  A    between atoms: C_23  and  C_26
   13  A    between atoms: C_25  and  S_27
                            x       y       z     vdW  Elec       q    Type
                         _______ _______ _______ _____ _____    ______ ____

>  <TORSDO>
F 13

$$$$
=
 OpenBabel11062412253D

 37 41  0  0  1  0  0  0  0  0999 V2000
  186.4460  178.0430  143.8240 C   0  0  0  0  0  2  0  0  0  0  0  0
  187.2820  178.8210  141.4870 C   0  0  0  0  0  2  0  0  0  0  0  0
  188.5510  177.3300  145.1910 C   0  0  0  0  0  2  0  0  0  0  0  0
  187.9320  178.2420  144.1370 C   0  0  1  0  0  3  0  0  0  0  0  0
  186.1560  178.1310  142.2990 C   0  0  2  0  0  3  0  0  0  0  0  0
  188.7270  177.5270  143.0810 C   0  0  1  0  0  0  0  0  0  0  0  0
  189.3870  176.6300  144.1170 C   0  0  2  0  0  0  0  0  0  0  0  0
  188.5710  176.0060  143.0190 C   0  0  0  0  0  2  0  0  0  0  0  0
  188.6780  178.1690  141.6770 C   0  0  1  0  0  3  0  0  0  0  0  0
  191.5720  175.9570  144.8550 O   0  0  0  0  0  0  0  0  0  0  0  0
  190.9020  176.8140  144.0470 C   0  0  2  0  0  0  0  0  0  0  0  0
  191.5810  178.1690  143.9400 C   0  0  0  0  0  1  0  0  0  0  0  0
  191.6400  175.7140  143.4880 N   0  0  0  0  0  2  0  0  0  0  0  0
  189.0660  177.2560  140.4900 C   0  0  1  0  0  3  0  0  0  0  0  0
  189.4030  178.5970  138.3440 C   0  0  0  0  0  2  0  0  0  0  0  0
  188.1590  178.4170  136.2910 O   0  0  0  0  0  0  0  0  0  0  0  0
  187.9800  176.5140  138.3330 C   0  0  0  0  0  2  0  0  0  0  0  0
  186.8510  178.1680  136.7200 C   0  0  0  0  0  2  0  0  0  0  0  0
  188.6720  179.3280  137.2220 C   0  0  0  0  0  2  0  0  0  0  0  0
  186.7610  176.8300  137.4600 C   0  0  0  0  0  2  0  0  0  0  0  0
  188.4480  177.7140  139.1560 C   0  0  1  0  0  3  0  0  0  0  0  0
  190.5510  177.0530  140.3910 C   0  0  0  0  0  0  0  0  0  0  0  0
  191.0460  175.9060  139.7860 O   0  0  0  0  0  0  0  0  0  0  0  0
  191.3520  177.9270  140.8190 O   0  0  0  0  0  1  0  0  0  0  0  0
  184.8330  178.8350  142.0520 C   0  0  0  0  0  2  0  0  0  0  0  0
  183.8310  177.9070  141.3770 C   0  0  0  0  0  2  0  0  0  0  0  0
  183.7890  178.1600  139.5720 S   0  0  0  0  0  0  0  0  0  0  0  0
  182.0400  177.6760  139.4140 C   0  0  0  0  0  2  0  0  0  0  0  0
  181.8790  176.1620  139.4700 C   0  0  0  0  0  2  0  0  0  0  0  0
  182.8590  174.7740  137.5870 C   0  0  0  0  0  0  0  0  0  0  0  0
  182.9960  175.5000  138.8130 N   0  0  0  0  0  2  0  0  0  0  0  0
  181.7230  174.6320  137.0640 O   0  0  0  0  0  0  0  0  0  0  0  0
  183.9690  174.1950  136.9580 O   0  0  0  0  0  0  0  0  0  0  0  0
  185.4370  172.9230  138.2340 O   0  0  0  0  0  0  0  0  0  0  0  0
  184.5630  172.9820  137.3280 C   0  0  0  0  0  0  0  0  0  0  0  0
  183.4810  172.0440  135.4590 O   0  0  0  0  0  1  0  0  0  0  0  0
  184.1360  171.7300  136.6490 C   0  0  0  0  0  2  0  0  0  0  0  0
  2  9  1  0  0  0  0
  2  5  1  0  0  0  0
  4  1  1  6  0  0  0
  4  3  1  0  0  0  0
  5 25  1  1  0  0  0
  5  1  1  0  0  0  0
  6  8  1  6  0  0  0
  6  7  1  0  0  0  0
  6  4  1  0  0  0  0
  7  8  1  6  0  0  0
  7  3  1  0  0  0  0
  9 14  1  6  0  0  0
  9  6  1  0  0  0  0
 11 12  1  6  0  0  0
 11  7  1  0  0  0  0
 11 10  1  0  0  0  0
 13 11  1  0  0  0  0
 13 10  1  0  0  0  0
 14 22  1  6  0  0  0
 15 21  1  0  0  0  0
 16 18  1  0  0  0  0
 16 19  1  0  0  0  0
 17 21  1  0  0  0  0
 18 20  1  0  0  0  0
 19 15  1  0  0  0  0
 20 17  1  0  0  0  0
 21 14  1  1  0  0  0
 22 24  1  0  0  0  0
 23 22  2  0  0  0  0
 26 25  1  0  0  0  0
 27 26  1  0  0  0  0
 28 29  1  0  0  0  0
 28 27  1  0  0  0  0
 30 31  1  0  0  0  0
 31 29  1  0  0  0  0
 32 30  2  0  0  0  0
 33 35  1  0  0  0  0
 33 30  1  0  0  0  0
 35 34  2  0  0  0  0
 36 37  1  0  0  0  0
 37 35  1  0  0  0  0
M  END
>  <MODEL>
5

>  <REMARK>
 VINA RESULT:      -6.9      3.408      4.787
  Name = 
  13 active torsions:
  status: ('A' for Active; 'I' for Inactive)
    1  A    between atoms: C_4  and  C_23
    2  A    between atoms: C_4  and  S_27
    3  A    between atoms: C_8  and  N_17
    4  A    between atoms: C_8  and  C_25
    5  A    between atoms: O_9  and  C_11
    6  A    between atoms: O_9  and  C_20
    7  A    between atoms: C_10  and  C_12
    8  A    between atoms: C_10  and  C_34
    9  A    between atoms: C_10  and  C_36
   10  A    between atoms: C_13  and  C_33
   11  A    between atoms: C_20  and  C_24
   12  A    between atoms: C_23  and  C_26
   13  A    between atoms: C_25  and  S_27
                            x       y       z     vdW  Elec       q    Type
                         _______ _______ _______ _____ _____    ______ ____

>  <TORSDO>
F 13

$$$$
=
 OpenBabel11062412253D

 37 41  0  0  1  0  0  0  0  0999 V2000
  190.3690  176.8060  142.4360 C   0  0  0  0  0  2  0  0  0  0  0  0
  187.9810  176.7160  143.4640 C   0  0  0  0  0  2  0  0  0  0  0  0
  192.0510  176.2890  144.3630 C   0  0  0  0  0  2  0  0  0  0  0  0
  190.6780  176.0610  143.7380 C   0  0  1  0  0  3  0  0  0  0  0  0
  188.9200  177.3720  142.4210 C   0  0  2  0  0  3  0  0  0  0  0  0
  190.0580  176.8300  144.8700 C   0  0  1  0  0  0  0  0  0  0  0  0
  191.4110  177.0400  145.5330 C   0  0  2  0  0  0  0  0  0  0  0  0
  190.6020  178.2380  145.1200 C   0  0  0  0  0  2  0  0  0  0  0  0
  188.5150  176.7920  144.9200 C   0  0  1  0  0  3  0  0  0  0  0  0
  192.4800  176.7470  147.6650 O   0  0  0  0  0  0  0  0  0  0  0  0
  191.3790  176.4390  146.9370 C   0  0  2  0  0  0  0  0  0  0  0  0
  190.8430  175.0510  147.2460 C   0  0  0  0  0  1  0  0  0  0  0  0
  191.2960  177.3830  148.0180 N   0  0  0  0  0  2  0  0  0  0  0  0
  187.8260  177.9080  145.7400 C   0  0  1  0  0  3  0  0  0  0  0  0
  185.5110  178.7050  146.4660 C   0  0  0  0  0  2  0  0  0  0  0  0
  183.6820  179.3790  145.0550 O   0  0  0  0  0  0  0  0  0  0  0  0
  186.2850  179.0420  144.0890 C   0  0  0  0  0  2  0  0  0  0  0  0
  183.7720  178.5110  143.9620 C   0  0  0  0  0  2  0  0  0  0  0  0
  184.0200  178.5930  146.1630 C   0  0  0  0  0  2  0  0  0  0  0  0
  185.0810  178.7260  143.1960 C   0  0  0  0  0  2  0  0  0  0  0  0
  186.3630  178.1420  145.3220 C   0  0  1  0  0  3  0  0  0  0  0  0
  187.9690  177.6970  147.2200 C   0  0  0  0  0  0  0  0  0  0  0  0
  188.1670  178.7910  148.0520 O   0  0  0  0  0  1  0  0  0  0  0  0
  187.8770  176.5440  147.7190 O   0  0  0  0  0  0  0  0  0  0  0  0
  188.3190  177.2490  141.0320 C   0  0  0  0  0  2  0  0  0  0  0  0
  188.6000  178.4910  140.1950 C   0  0  0  0  0  2  0  0  0  0  0  0
  189.1920  178.0580  138.5260 S   0  0  0  0  0  0  0  0  0  0  0  0
  187.6300  177.2580  138.0370 C   0  0  0  0  0  2  0  0  0  0  0  0
  186.6850  178.2510  137.3720 C   0  0  0  0  0  2  0  0  0  0  0  0
  184.4460  178.5750  138.5200 C   0  0  0  0  0  0  0  0  0  0  0  0
  185.2970  177.8780  137.6040 N   0  0  0  0  0  2  0  0  0  0  0  0
  184.9090  179.5170  139.2150 O   0  0  0  0  0  0  0  0  0  0  0  0
  183.1010  178.2180  138.6770 O   0  0  0  0  0  0  0  0  0  0  0  0
  182.9050  176.2200  139.8500 O   0  0  0  0  0  0  0  0  0  0  0  0
  182.5920  177.4340  139.7200 C   0  0  0  0  0  0  0  0  0  0  0  0
  181.5680  179.4230  140.4560 O   0  0  0  0  0  1  0  0  0  0  0  0
  181.6760  178.0570  140.7120 C   0  0  0  0  0  2  0  0  0  0  0  0
  2  9  1  0  0  0  0
  4  1  1  6  0  0  0
  4  3  1  0  0  0  0
  4  6  1  0  0  0  0
  5 25  1  6  0  0  0
  5  1  1  0  0  0  0
  5  2  1  0  0  0  0
  6  9  1  0  0  0  0
  6  8  1  6  0  0  0
  6  7  1  0  0  0  0
  7  3  1  6  0  0  0
  7 11  1  0  0  0  0
  8  7  1  0  0  0  0
  9 14  1  6  0  0  0
 10 13  1  0  0  0  0
 11 12  1  1  0  0  0
 11 10  1  0  0  0  0
 11 13  1  0  0  0  0
 14 22  1  1  0  0  0
 16 19  1  0  0  0  0
 17 21  1  0  0  0  0
 18 16  1  0  0  0  0
 19 15  1  0  0  0  0
 20 18  1  0  0  0  0
 20 17  1  0  0  0  0
 21 14  1  1  0  0  0
 21 15  1  0  0  0  0
 22 24  2  0  0  0  0
 22 23  1  0  0  0  0
 26 25  1  0  0  0  0
 27 26  1  0  0  0  0
 28 27  1  0  0  0  0
 29 31  1  0  0  0  0
 29 28  1  0  0  0  0
 30 33  1  0  0  0  0
 30 32  2  0  0  0  0
 31 30  1  0  0  0  0
 33 35  1  0  0  0  0
 35 34  2  0  0  0  0
 35 37  1  0  0  0  0
 36 37  1  0  0  0  0
M  END
>  <MODEL>
6

>  <REMARK>
 VINA RESULT:      -6.8      3.568      5.938
  Name = 
  13 active torsions:
  status: ('A' for Active; 'I' for Inactive)
    1  A    between atoms: C_4  and  C_23
    2  A    between atoms: C_4  and  S_27
    3  A    between atoms: C_8  and  N_17
    4  A    between atoms: C_8  and  C_25
    5  A    between atoms: O_9  and  C_11
    6  A    between atoms: O_9  and  C_20
    7  A    between atoms: C_10  and  C_12
    8  A    between atoms: C_10  and  C_34
    9  A    between atoms: C_10  and  C_36
   10  A    between atoms: C_13  and  C_33
   11  A    between atoms: C_20  and  C_24
   12  A    between atoms: C_23  and  C_26
   13  A    between atoms: C_25  and  S_27
                            x       y       z     vdW  Elec       q    Type
                         _______ _______ _______ _____ _____    ______ ____

>  <TORSDO>
F 13

$$$$
=
 OpenBabel11062412253D

 37 41  0  0  1  0  0  0  0  0999 V2000
  186.4450  177.9210  143.9020 C   0  0  0  0  0  2  0  0  0  0  0  0
  187.2310  178.7450  141.5640 C   0  0  0  0  0  2  0  0  0  0  0  0
  188.5870  177.2850  145.2490 C   0  0  0  0  0  2  0  0  0  0  0  0
  187.9240  178.1780  144.2050 C   0  0  1  0  0  3  0  0  0  0  0  0
  186.1400  178.0060  142.3790 C   0  0  2  0  0  3  0  0  0  0  0  0
  188.7390  177.5020  143.1390 C   0  0  1  0  0  0  0  0  0  0  0  0
  189.4420  176.6250  144.1650 C   0  0  2  0  0  0  0  0  0  0  0  0
  188.6430  175.9760  143.0690 C   0  0  0  0  0  2  0  0  0  0  0  0
  188.6530  178.1490  141.7390 C   0  0  1  0  0  3  0  0  0  0  0  0
  191.6570  176.0440  144.8910 O   0  0  0  0  0  0  0  0  0  0  0  0
  190.9470  176.8710  144.0850 C   0  0  2  0  0  0  0  0  0  0  0  0
  191.5700  178.2520  143.9680 C   0  0  0  0  0  1  0  0  0  0  0  0
  191.7260  175.7990  143.5250 N   0  0  0  0  0  2  0  0  0  0  0  0
  189.0680  177.2590  140.5440 C   0  0  1  0  0  3  0  0  0  0  0  0
  189.4640  178.5920  138.4020 C   0  0  0  0  0  2  0  0  0  0  0  0
  188.2300  178.4550  136.3410 O   0  0  0  0  0  0  0  0  0  0  0  0
  187.9750  176.5550  138.3770 C   0  0  0  0  0  2  0  0  0  0  0  0
  186.9120  178.2470  136.7590 C   0  0  0  0  0  2  0  0  0  0  0  0
  188.7640  179.3480  137.2770 C   0  0  0  0  0  2  0  0  0  0  0  0
  186.7730  176.9120  137.4960 C   0  0  0  0  0  2  0  0  0  0  0  0
  188.4760  177.7390  139.2070 C   0  0  1  0  0  3  0  0  0  0  0  0
  190.5560  177.0630  140.4710 C   0  0  0  0  0  0  0  0  0  0  0  0
  191.0670  175.9180  139.8770 O   0  0  0  0  0  0  0  0  0  0  0  0
  191.3450  177.9430  140.9090 O   0  0  0  0  0  1  0  0  0  0  0  0
  184.7880  178.6570  142.1460 C   0  0  0  0  0  2  0  0  0  0  0  0
  184.1870  179.1660  143.4500 C   0  0  0  0  0  2  0  0  0  0  0  0
  182.3720  178.9970  143.4650 S   0  0  0  0  0  0  0  0  0  0  0  0
  182.2570  178.6580  141.6790 C   0  0  0  0  0  2  0  0  0  0  0  0
  180.8230  178.3450  141.2680 C   0  0  0  0  0  2  0  0  0  0  0  0
  180.8410  177.3610  138.9300 C   0  0  0  0  0  0  0  0  0  0  0  0
  180.7840  177.2140  140.3520 N   0  0  0  0  0  2  0  0  0  0  0  0
  180.8630  178.5110  138.4180 O   0  0  0  0  0  0  0  0  0  0  0  0
  180.8540  176.2450  138.0840 O   0  0  0  0  0  0  0  0  0  0  0  0
  181.2930  176.0280  135.8120 O   0  0  0  0  0  0  0  0  0  0  0  0
  181.7200  176.0690  136.9970 C   0  0  0  0  0  0  0  0  0  0  0  0
  183.4040  175.0470  138.2870 O   0  0  0  0  0  1  0  0  0  0  0  0
  183.1800  175.9480  137.2470 C   0  0  0  0  0  2  0  0  0  0  0  0
  2  9  1  0  0  0  0
  2  5  1  0  0  0  0
  4  1  1  6  0  0  0
  4  3  1  0  0  0  0
  5 25  1  1  0  0  0
  5  1  1  0  0  0  0
  6  8  1  6  0  0  0
  6  7  1  0  0  0  0
  6  4  1  0  0  0  0
  7  8  1  6  0  0  0
  7  3  1  0  0  0  0
  9 14  1  6  0  0  0
  9  6  1  0  0  0  0
 11 12  1  6  0  0  0
 11  7  1  0  0  0  0
 11 10  1  0  0  0  0
 13 11  1  0  0  0  0
 13 10  1  0  0  0  0
 14 22  1  6  0  0  0
 15 21  1  0  0  0  0
 16 18  1  0  0  0  0
 16 19  1  0  0  0  0
 17 21  1  0  0  0  0
 18 20  1  0  0  0  0
 19 15  1  0  0  0  0
 20 17  1  0  0  0  0
 21 14  1  1  0  0  0
 22 24  1  0  0  0  0
 23 22  2  0  0  0  0
 25 26  1  0  0  0  0
 26 27  1  0  0  0  0
 28 27  1  0  0  0  0
 29 28  1  0  0  0  0
 30 31  1  0  0  0  0
 31 29  1  0  0  0  0
 32 30  2  0  0  0  0
 33 30  1  0  0  0  0
 34 35  2  0  0  0  0
 35 37  1  0  0  0  0
 35 33  1  0  0  0  0
 37 36  1  0  0  0  0
M  END
>  <MODEL>
7

>  <REMARK>
 VINA RESULT:      -6.7      2.703      3.357
  Name = 
  13 active torsions:
  status: ('A' for Active; 'I' for Inactive)
    1  A    between atoms: C_4  and  C_23
    2  A    between atoms: C_4  and  S_27
    3  A    between atoms: C_8  and  N_17
    4  A    between atoms: C_8  and  C_25
    5  A    between atoms: O_9  and  C_11
    6  A    between atoms: O_9  and  C_20
    7  A    between atoms: C_10  and  C_12
    8  A    between atoms: C_10  and  C_34
    9  A    between atoms: C_10  and  C_36
   10  A    between atoms: C_13  and  C_33
   11  A    between atoms: C_20  and  C_24
   12  A    between atoms: C_23  and  C_26
   13  A    between atoms: C_25  and  S_27
                            x       y       z     vdW  Elec       q    Type
                         _______ _______ _______ _____ _____    ______ ____

>  <TORSDO>
F 13

$$$$
=
 OpenBabel11062412253D

 37 41  0  0  1  0  0  0  0  0999 V2000
  190.5160  176.8290  143.2410 C   0  0  0  0  0  2  0  0  0  0  0  0
  187.9310  176.6880  142.9960 C   0  0  0  0  0  2  0  0  0  0  0  0
  191.0390  176.9080  145.7960 C   0  0  0  0  0  2  0  0  0  0  0  0
  190.1470  176.4060  144.6660 C   0  0  1  0  0  3  0  0  0  0  0  0
  189.2620  177.2170  142.4070 C   0  0  2  0  0  3  0  0  0  0  0  0
  189.0550  177.3170  145.1510 C   0  0  1  0  0  0  0  0  0  0  0  0
  189.9120  177.8070  146.3090 C   0  0  2  0  0  0  0  0  0  0  0  0
  189.4130  178.7980  145.2950 C   0  0  0  0  0  2  0  0  0  0  0  0
  187.6840  177.1200  144.4670 C   0  0  1  0  0  3  0  0  0  0  0  0
  189.7580  178.1370  148.6840 O   0  0  0  0  0  0  0  0  0  0  0  0
  189.1960  177.5060  147.6240 C   0  0  2  0  0  0  0  0  0  0  0  0
  188.6370  176.1400  147.9850 C   0  0  0  0  0  1  0  0  0  0  0  0
  188.5320  178.6220  148.2430 N   0  0  0  0  0  2  0  0  0  0  0  0
  186.6870  178.2970  144.5750 C   0  0  1  0  0  3  0  0  0  0  0  0
  184.2460  178.6250  143.9020 C   0  0  0  0  0  2  0  0  0  0  0  0
  183.3830  179.1280  141.7120 O   0  0  0  0  0  0  0  0  0  0  0  0
  186.1010  179.3230  142.3410 C   0  0  0  0  0  2  0  0  0  0  0  0
  184.2150  178.4020  140.8560 C   0  0  0  0  0  2  0  0  0  0  0  0
  183.2110  178.3000  142.8290 C   0  0  0  0  0  2  0  0  0  0  0  0
  185.6590  178.9060  140.9350 C   0  0  0  0  0  2  0  0  0  0  0  0
  185.6700  178.3270  143.4190 C   0  0  1  0  0  3  0  0  0  0  0  0
  186.0220  178.3570  145.9210 C   0  0  0  0  0  0  0  0  0  0  0  0
  185.6800  179.5890  146.4610 O   0  0  0  0  0  0  0  0  0  0  0  0
  185.7380  177.3020  146.5480 O   0  0  0  0  0  1  0  0  0  0  0  0
  189.4160  176.7460  140.9710 C   0  0  0  0  0  2  0  0  0  0  0  0
  189.6450  177.9180  140.0260 C   0  0  0  0  0  2  0  0  0  0  0  0
  189.4980  177.4140  138.2800 S   0  0  0  0  0  0  0  0  0  0  0  0
  191.1930  176.7500  138.1930 C   0  0  0  0  0  2  0  0  0  0  0  0
  191.3450  175.7770  137.0310 C   0  0  0  0  0  2  0  0  0  0  0  0
  189.3210  174.3250  136.5470 C   0  0  0  0  0  0  0  0  0  0  0  0
  190.0610  175.5390  136.3860 N   0  0  0  0  0  2  0  0  0  0  0  0
  189.8070  173.3780  137.2200 O   0  0  0  0  0  0  0  0  0  0  0  0
  188.0650  174.1550  135.9530 O   0  0  0  0  0  0  0  0  0  0  0  0
  186.8530  175.7320  134.7490 O   0  0  0  0  0  0  0  0  0  0  0  0
  187.0850  175.1490  135.8430 C   0  0  0  0  0  0  0  0  0  0  0  0
  185.4860  176.6180  136.7550 O   0  0  0  0  0  1  0  0  0  0  0  0
  186.2830  175.5100  137.0420 C   0  0  0  0  0  2  0  0  0  0  0  0
  2  9  1  0  0  0  0
  3  7  1  0  0  0  0
  4  1  1  6  0  0  0
  4  6  1  0  0  0  0
  4  3  1  0  0  0  0
  5 25  1  6  0  0  0
  5  2  1  0  0  0  0
  5  1  1  0  0  0  0
  6  8  1  6  0  0  0
  6  7  1  0  0  0  0
  7  8  1  6  0  0  0
  7 11  1  0  0  0  0
  9 14  1  6  0  0  0
  9  6  1  0  0  0  0
 11 12  1  1  0  0  0
 11 13  1  0  0  0  0
 11 10  1  0  0  0  0
 13 10  1  0  0  0  0
 14 22  1  1  0  0  0
 16 19  1  0  0  0  0
 17 21  1  0  0  0  0
 18 20  1  0  0  0  0
 18 16  1  0  0  0  0
 19 15  1  0  0  0  0
 20 17  1  0  0  0  0
 21 15  1  0  0  0  0
 21 14  1  1  0  0  0
 22 23  2  0  0  0  0
 22 24  1  0  0  0  0
 26 25  1  0  0  0  0
 27 26  1  0  0  0  0
 28 27  1  0  0  0  0
 29 28  1  0  0  0  0
 30 32  2  0  0  0  0
 31 30  1  0  0  0  0
 31 29  1  0  0  0  0
 33 30  1  0  0  0  0
 34 35  2  0  0  0  0
 35 33  1  0  0  0  0
 35 37  1  0  0  0  0
 36 37  1  0  0  0  0
M  END
>  <MODEL>
8

>  <REMARK>
 VINA RESULT:      -6.3      4.184      7.150
  Name = 
  13 active torsions:
  status: ('A' for Active; 'I' for Inactive)
    1  A    between atoms: C_4  and  C_23
    2  A    between atoms: C_4  and  S_27
    3  A    between atoms: C_8  and  N_17
    4  A    between atoms: C_8  and  C_25
    5  A    between atoms: O_9  and  C_11
    6  A    between atoms: O_9  and  C_20
    7  A    between atoms: C_10  and  C_12
    8  A    between atoms: C_10  and  C_34
    9  A    between atoms: C_10  and  C_36
   10  A    between atoms: C_13  and  C_33
   11  A    between atoms: C_20  and  C_24
   12  A    between atoms: C_23  and  C_26
   13  A    between atoms: C_25  and  S_27
                            x       y       z     vdW  Elec       q    Type
                         _______ _______ _______ _____ _____    ______ ____

>  <TORSDO>
F 13

$$$$
=
 OpenBabel11062412253D

 37 41  0  0  1  0  0  0  0  0999 V2000
  186.1790  177.9540  143.9100 C   0  0  0  0  0  2  0  0  0  0  0  0
  187.1110  178.7900  141.6300 C   0  0  0  0  0  2  0  0  0  0  0  0
  188.2310  177.2770  145.3730 C   0  0  0  0  0  2  0  0  0  0  0  0
  187.6410  178.1880  144.3010 C   0  0  1  0  0  3  0  0  0  0  0  0
  185.9650  178.0580  142.3730 C   0  0  2  0  0  3  0  0  0  0  0  0
  188.5080  177.5110  143.2780 C   0  0  1  0  0  0  0  0  0  0  0  0
  189.1390  176.6150  144.3340 C   0  0  2  0  0  0  0  0  0  0  0  0
  188.3970  175.9870  143.1870 C   0  0  0  0  0  2  0  0  0  0  0  0
  188.5130  178.1720  141.8820 C   0  0  1  0  0  3  0  0  0  0  0  0
  190.9850  178.1500  144.2330 O   0  0  0  0  0  0  0  0  0  0  0  0
  190.6500  176.8410  144.3430 C   0  0  2  0  0  0  0  0  0  0  0  0
  191.6430  175.9230  143.6520 C   0  0  0  0  0  1  0  0  0  0  0  0
  191.1660  177.5590  145.4780 N   0  0  0  0  0  2  0  0  0  0  0  0
  188.9850  177.2890  140.7040 C   0  0  1  0  0  3  0  0  0  0  0  0
  189.4360  178.6320  138.5800 C   0  0  0  0  0  2  0  0  0  0  0  0
  188.2850  178.4730  136.4720 O   0  0  0  0  0  0  0  0  0  0  0  0
  187.9890  176.5660  138.4960 C   0  0  0  0  0  2  0  0  0  0  0  0
  186.9560  178.2400  136.8400 C   0  0  0  0  0  2  0  0  0  0  0  0
  188.7660  179.3760  137.4290 C   0  0  0  0  0  2  0  0  0  0  0  0
  186.8150  176.9010  137.5700 C   0  0  0  0  0  2  0  0  0  0  0  0
  188.4350  177.7580  139.3450 C   0  0  1  0  0  3  0  0  0  0  0  0
  190.4770  177.1150  140.6860 C   0  0  0  0  0  0  0  0  0  0  0  0
  191.2880  178.0950  141.2410 O   0  0  0  0  0  1  0  0  0  0  0  0
  191.0000  176.0740  140.2040 O   0  0  0  0  0  0  0  0  0  0  0  0
  184.6370  178.7300  142.0690 C   0  0  0  0  0  2  0  0  0  0  0  0
  184.1010  179.4730  143.2860 C   0  0  0  0  0  2  0  0  0  0  0  0
  182.6600  178.6250  144.0110 S   0  0  0  0  0  0  0  0  0  0  0  0
  181.4490  179.5470  143.0100 C   0  0  0  0  0  2  0  0  0  0  0  0
  180.9780  178.7240  141.8170 C   0  0  0  0  0  2  0  0  0  0  0  0
  181.8690  179.0010  139.4590 C   0  0  0  0  0  0  0  0  0  0  0  0
  181.1210  179.4790  140.5810 N   0  0  0  0  0  2  0  0  0  0  0  0
  182.4940  177.9110  139.5380 O   0  0  0  0  0  0  0  0  0  0  0  0
  181.9400  179.7340  138.2670 O   0  0  0  0  0  0  0  0  0  0  0  0
  179.8320  180.1330  137.3720 O   0  0  0  0  0  0  0  0  0  0  0  0
  180.9360  180.5820  137.7820 C   0  0  0  0  0  0  0  0  0  0  0  0
  180.1040  182.6990  138.3910 O   0  0  0  0  0  1  0  0  0  0  0  0
  181.1710  182.0500  137.7720 C   0  0  0  0  0  2  0  0  0  0  0  0
  2  9  1  0  0  0  0
  2  5  1  0  0  0  0
  4  1  1  6  0  0  0
  4  3  1  0  0  0  0
  5 25  1  1  0  0  0
  5  1  1  0  0  0  0
  6  8  1  6  0  0  0
  6  4  1  0  0  0  0
  6  7  1  0  0  0  0
  7  8  1  6  0  0  0
  7 11  1  0  0  0  0
  7  3  1  0  0  0  0
  9 14  1  6  0  0  0
  9  6  1  0  0  0  0
 10 11  1  0  0  0  0
 10 13  1  0  0  0  0
 11 12  1  6  0  0  0
 11 13  1  0  0  0  0
 14 22  1  6  0  0  0
 15 21  1  0  0  0  0
 16 18  1  0  0  0  0
 16 19  1  0  0  0  0
 17 21  1  0  0  0  0
 18 20  1  0  0  0  0
 19 15  1  0  0  0  0
 20 17  1  0  0  0  0
 21 14  1  1  0  0  0
 22 23  1  0  0  0  0
 24 22  2  0  0  0  0
 25 26  1  0  0  0  0
 26 27  1  0  0  0  0
 28 27  1  0  0  0  0
 29 28  1  0  0  0  0
 30 32  2  0  0  0  0
 30 31  1  0  0  0  0
 31 29  1  0  0  0  0
 33 30  1  0  0  0  0
 34 35  2  0  0  0  0
 35 33  1  0  0  0  0
 37 35  1  0  0  0  0
 37 36  1  0  0  0  0
M  END
>  <MODEL>
9

>  <REMARK>
 VINA RESULT:      -6.1      1.710      2.202
  Name = 
  13 active torsions:
  status: ('A' for Active; 'I' for Inactive)
    1  A    between atoms: C_4  and  C_23
    2  A    between atoms: C_4  and  S_27
    3  A    between atoms: C_8  and  N_17
    4  A    between atoms: C_8  and  C_25
    5  A    between atoms: O_9  and  C_11
    6  A    between atoms: O_9  and  C_20
    7  A    between atoms: C_10  and  C_12
    8  A    between atoms: C_10  and  C_34
    9  A    between atoms: C_10  and  C_36
   10  A    between atoms: C_13  and  C_33
   11  A    between atoms: C_20  and  C_24
   12  A    between atoms: C_23  and  C_26
   13  A    between atoms: C_25  and  S_27
                            x       y       z     vdW  Elec       q    Type
                         _______ _______ _______ _____ _____    ______ ____

>  <TORSDO>
F 13

$$$$
