=
 OpenBabel11062416223D

 29 31  0  0  1  0  0  0  0  0999 V2000
  190.6620  178.4040  144.3690 N   0  0  0  0  0  2  0  0  0  0  0  0
  190.6920  176.3680  143.2160 C   0  0  0  0  0  0  0  0  0  0  0  0
  190.5490  176.9580  144.5600 C   0  0  1  0  0  3  0  0  0  0  0  0
  191.1760  178.6350  143.0150 C   0  0  0  0  0  2  0  0  0  0  0  0
  191.0110  177.3690  142.1870 C   0  0  2  0  0  3  0  0  0  0  0  0
  190.5580  175.1760  142.9810 O   0  0  0  0  0  0  0  0  0  0  0  0
  191.6680  176.4610  145.4680 C   0  0  0  0  0  2  0  0  0  0  0  0
  192.1090  176.7810  147.7630 O   0  0  0  0  0  0  0  0  0  0  0  0
  191.2700  176.5520  146.9060 C   0  0  0  0  0  0  0  0  0  0  0  0
  189.8350  176.3890  147.2810 C   0  0  0  0  0  2  0  0  0  0  0  0
  189.3090  177.6740  147.8980 C   0  0  0  0  0  2  0  0  0  0  0  0
  187.0670  178.7570  147.9780 C   0  0  0  0  0  2  0  0  0  0  0  0
  185.6730  178.7200  147.3360 C   0  0  0  0  0  2  0  0  0  0  0  0
  188.1810  178.2420  147.0560 C   0  0  0  0  0  3  0  0  0  0  0  0
  186.5600  177.7650  145.1730 C   0  0  0  0  0  2  0  0  0  0  0  0
  187.6520  177.1870  146.0840 C   0  0  0  0  0  2  0  0  0  0  0  0
  185.7550  178.8970  145.8220 C   0  0  0  0  0  2  0  0  0  0  0  0
  189.8400  177.5140  141.2230 C   0  0  0  0  0  2  0  0  0  0  0  0
  188.5070  177.4760  141.9590 C   0  0  0  0  0  2  0  0  0  0  0  0
  185.0220  178.9500  141.1180 C   0  0  0  0  0  0  0  0  0  0  0  0
  187.4550  178.2130  141.2050 C   0  0  0  0  0  0  0  0  0  0  0  0
  185.1570  179.5260  140.0050 O   0  0  0  0  0  0  0  0  0  0  0  0
  186.1370  178.3150  141.7540 N   0  0  0  0  0  2  0  0  0  0  0  0
  187.7320  178.7130  140.0820 O   0  0  0  0  0  0  0  0  0  0  0  0
  183.7090  178.9180  141.7700 C   0  0  0  0  0  0  0  0  0  0  0  0
  183.4830  179.0470  143.1250 C   0  0  0  0  0  3  0  0  0  0  0  0
  182.1080  178.9600  143.2620 C   0  0  0  0  0  3  0  0  0  0  0  0
  181.5930  178.7850  141.9890 C   0  0  0  0  0  3  0  0  0  0  0  0
  182.5800  178.7650  141.1270 O   0  0  0  0  0  0  0  0  0  0  0  0
  1  3  1  0  0  0  0
  2  3  1  0  0  0  0
  3  7  1  1  0  0  0
  4  1  1  0  0  0  0
  5 18  1  6  0  0  0
  5  4  1  0  0  0  0
  5  2  1  0  0  0  0
  6  2  2  0  0  0  0
  7  9  1  0  0  0  0
  9 10  1  0  0  0  0
  9  8  2  0  0  0  0
 10 11  1  0  0  0  0
 13 12  1  0  0  0  0
 14 11  1  0  0  0  0
 14 12  1  0  0  0  0
 15 17  1  0  0  0  0
 15 16  1  0  0  0  0
 16 14  1  0  0  0  0
 17 13  1  0  0  0  0
 18 19  1  0  0  0  0
 20 23  1  0  0  0  0
 20 25  1  0  0  0  0
 21 23  1  0  0  0  0
 21 19  1  0  0  0  0
 22 20  2  0  0  0  0
 24 21  2  0  0  0  0
 25 26  2  0  0  0  0
 26 27  1  0  0  0  0
 28 27  2  0  0  0  0
 29 25  1  0  0  0  0
 29 28  1  0  0  0  0
M  END
>  <MODEL>
1

>  <REMARK>
 VINA RESULT:      -8.6      0.000      0.000
  Name = 
  9 active torsions:
  status: ('A' for Active; 'I' for Inactive)
    1  A    between atoms: C_2  and  C_3
    2  A    between atoms: C_6  and  C_21
    3  A    between atoms: C_11  and  C_22
    4  A    between atoms: C_12  and  C_13
    5  A    between atoms: C_12  and  C_17
    6  A    between atoms: C_13  and  C_15
    7  A    between atoms: C_16  and  C_21
    8  A    between atoms: C_16  and  C_26
    9  A    between atoms: C_17  and  C_22
                            x       y       z     vdW  Elec       q    Type
                         _______ _______ _______ _____ _____    ______ ____

>  <TORSDO>
F 9

$$$$
=
 OpenBabel11062416223D

 29 31  0  0  1  0  0  0  0  0999 V2000
  190.4720  178.5890  144.2320 N   0  0  0  0  0  2  0  0  0  0  0  0
  189.2610  176.7100  143.5400 C   0  0  0  0  0  0  0  0  0  0  0  0
  189.2690  177.8090  144.5230 C   0  0  1  0  0  3  0  0  0  0  0  0
  191.3090  177.7940  143.3260 C   0  0  0  0  0  2  0  0  0  0  0  0
  190.4720  176.6840  142.7070 C   0  0  2  0  0  3  0  0  0  0  0  0
  188.3460  175.9080  143.4280 O   0  0  0  0  0  0  0  0  0  0  0  0
  189.3420  177.2430  145.9370 C   0  0  0  0  0  2  0  0  0  0  0  0
  188.1200  177.8040  147.8750 O   0  0  0  0  0  0  0  0  0  0  0  0
  188.0800  177.5160  146.6890 C   0  0  0  0  0  0  0  0  0  0  0  0
  186.7730  177.4640  145.9700 C   0  0  0  0  0  2  0  0  0  0  0  0
  186.0540  178.7960  146.0960 C   0  0  0  0  0  2  0  0  0  0  0  0
  183.7310  179.0180  145.2260 C   0  0  0  0  0  2  0  0  0  0  0  0
  182.8220  178.6070  144.0600 C   0  0  0  0  0  2  0  0  0  0  0  0
  185.2200  179.0680  144.8580 C   0  0  0  0  0  3  0  0  0  0  0  0
  184.7710  178.3640  142.4700 C   0  0  0  0  0  2  0  0  0  0  0  0
  185.5520  178.0610  143.7560 C   0  0  0  0  0  2  0  0  0  0  0  0
  183.4140  179.0350  142.7190 C   0  0  0  0  0  2  0  0  0  0  0  0
  190.1180  177.0270  141.2650 C   0  0  0  0  0  2  0  0  0  0  0  0
  189.1310  178.1850  141.1970 C   0  0  0  0  0  2  0  0  0  0  0  0
  186.2620  178.5710  138.6190 C   0  0  0  0  0  0  0  0  0  0  0  0
  188.4480  178.2330  139.8730 C   0  0  0  0  0  0  0  0  0  0  0  0
  186.7890  178.3690  137.4920 O   0  0  0  0  0  0  0  0  0  0  0  0
  187.0510  178.5400  139.8130 N   0  0  0  0  0  2  0  0  0  0  0  0
  189.1030  177.9740  138.8280 O   0  0  0  0  0  0  0  0  0  0  0  0
  184.8230  178.8350  138.7160 C   0  0  0  0  0  0  0  0  0  0  0  0
  183.8200  177.9250  138.4540 C   0  0  0  0  0  3  0  0  0  0  0  0
  182.6450  178.6190  138.6830 C   0  0  0  0  0  3  0  0  0  0  0  0
  183.0090  179.8990  139.0650 C   0  0  0  0  0  3  0  0  0  0  0  0
  184.3170  179.9880  139.0730 O   0  0  0  0  0  0  0  0  0  0  0  0
  1  3  1  0  0  0  0
  2  3  1  0  0  0  0
  3  7  1  1  0  0  0
  4  1  1  0  0  0  0
  5 18  1  6  0  0  0
  5  4  1  0  0  0  0
  5  2  1  0  0  0  0
  6  2  2  0  0  0  0
  7  9  1  0  0  0  0
  9  8  2  0  0  0  0
 10 11  1  0  0  0  0
 10  9  1  0  0  0  0
 13 12  1  0  0  0  0
 14 12  1  0  0  0  0
 14 11  1  0  0  0  0
 15 17  1  0  0  0  0
 15 16  1  0  0  0  0
 16 14  1  0  0  0  0
 17 13  1  0  0  0  0
 19 18  1  0  0  0  0
 20 25  1  0  0  0  0
 20 23  1  0  0  0  0
 21 19  1  0  0  0  0
 22 20  2  0  0  0  0
 23 21  1  0  0  0  0
 24 21  2  0  0  0  0
 25 29  1  0  0  0  0
 26 27  1  0  0  0  0
 26 25  2  0  0  0  0
 27 28  2  0  0  0  0
 28 29  1  0  0  0  0
M  END
>  <MODEL>
2

>  <REMARK>
 VINA RESULT:      -8.6      1.949      3.049
  Name = 
  9 active torsions:
  status: ('A' for Active; 'I' for Inactive)
    1  A    between atoms: C_2  and  C_3
    2  A    between atoms: C_6  and  C_21
    3  A    between atoms: C_11  and  C_22
    4  A    between atoms: C_12  and  C_13
    5  A    between atoms: C_12  and  C_17
    6  A    between atoms: C_13  and  C_15
    7  A    between atoms: C_16  and  C_21
    8  A    between atoms: C_16  and  C_26
    9  A    between atoms: C_17  and  C_22
                            x       y       z     vdW  Elec       q    Type
                         _______ _______ _______ _____ _____    ______ ____

>  <TORSDO>
F 9

$$$$
=
 OpenBabel11062416223D

 29 31  0  0  1  0  0  0  0  0999 V2000
  191.7010  177.3190  141.5120 N   0  0  0  0  0  2  0  0  0  0  0  0
  189.4160  176.9480  141.8550 C   0  0  0  0  0  0  0  0  0  0  0  0
  190.7170  177.0030  142.5470 C   0  0  1  0  0  3  0  0  0  0  0  0
  191.0510  177.1350  140.2100 C   0  0  0  0  0  2  0  0  0  0  0  0
  189.5410  177.0980  140.3980 C   0  0  2  0  0  3  0  0  0  0  0  0
  188.3480  176.7950  142.4300 O   0  0  0  0  0  0  0  0  0  0  0  0
  191.0320  175.6480  143.1720 C   0  0  0  0  0  2  0  0  0  0  0  0
  192.4220  174.9670  144.9510 O   0  0  0  0  0  0  0  0  0  0  0  0
  191.6530  175.8120  144.5220 C   0  0  0  0  0  0  0  0  0  0  0  0
  191.3460  177.0310  145.3260 C   0  0  0  0  0  2  0  0  0  0  0  0
  191.0640  176.6480  146.7680 C   0  0  0  0  0  2  0  0  0  0  0  0
  188.8260  177.1880  145.8160 C   0  0  0  0  0  2  0  0  0  0  0  0
  187.5930  178.0770  146.0310 C   0  0  0  0  0  2  0  0  0  0  0  0
  189.6050  176.8960  147.1060 C   0  0  0  0  0  3  0  0  0  0  0  0
  188.0110  178.2640  148.5160 C   0  0  0  0  0  2  0  0  0  0  0  0
  189.4740  178.0460  148.1050 C   0  0  0  0  0  2  0  0  0  0  0  0
  187.0030  177.8790  147.4250 C   0  0  0  0  0  2  0  0  0  0  0  0
  188.9180  178.4170  139.9560 C   0  0  0  0  0  2  0  0  0  0  0  0
  188.0800  178.2410  138.6970 C   0  0  0  0  0  2  0  0  0  0  0  0
  184.8110  178.8980  140.6760 C   0  0  0  0  0  0  0  0  0  0  0  0
  186.6530  178.5900  138.9490 C   0  0  0  0  0  0  0  0  0  0  0  0
  183.9420  179.1830  139.8090 O   0  0  0  0  0  0  0  0  0  0  0  0
  186.1640  178.6270  140.2940 N   0  0  0  0  0  2  0  0  0  0  0  0
  185.8900  178.8210  137.9740 O   0  0  0  0  0  0  0  0  0  0  0  0
  184.4380  178.8350  142.0920 C   0  0  0  0  0  0  0  0  0  0  0  0
  185.3050  178.6070  143.1410 C   0  0  0  0  0  3  0  0  0  0  0  0
  184.5070  178.6420  144.2720 C   0  0  0  0  0  3  0  0  0  0  0  0
  183.2150  178.8870  143.8380 C   0  0  0  0  0  3  0  0  0  0  0  0
  183.2160  178.9960  142.5310 O   0  0  0  0  0  0  0  0  0  0  0  0
  1  3  1  0  0  0  0
  2  6  2  0  0  0  0
  2  3  1  0  0  0  0
  3  7  1  6  0  0  0
  4  5  1  0  0  0  0
  4  1  1  0  0  0  0
  5 18  1  1  0  0  0
  5  2  1  0  0  0  0
  7  9  1  0  0  0  0
  9  8  2  0  0  0  0
  9 10  1  0  0  0  0
 10 11  1  0  0  0  0
 11 14  1  0  0  0  0
 12 13  1  0  0  0  0
 12 14  1  0  0  0  0
 13 17  1  0  0  0  0
 14 16  1  0  0  0  0
 16 15  1  0  0  0  0
 17 15  1  0  0  0  0
 19 21  1  0  0  0  0
 19 18  1  0  0  0  0
 20 25  1  0  0  0  0
 21 23  1  0  0  0  0
 22 20  2  0  0  0  0
 23 20  1  0  0  0  0
 24 21  2  0  0  0  0
 25 29  1  0  0  0  0
 25 26  2  0  0  0  0
 26 27  1  0  0  0  0
 28 27  2  0  0  0  0
 29 28  1  0  0  0  0
M  END
>  <MODEL>
3

>  <REMARK>
 VINA RESULT:      -8.5      1.621      2.466
  Name = 
  9 active torsions:
  status: ('A' for Active; 'I' for Inactive)
    1  A    between atoms: C_2  and  C_3
    2  A    between atoms: C_6  and  C_21
    3  A    between atoms: C_11  and  C_22
    4  A    between atoms: C_12  and  C_13
    5  A    between atoms: C_12  and  C_17
    6  A    between atoms: C_13  and  C_15
    7  A    between atoms: C_16  and  C_21
    8  A    between atoms: C_16  and  C_26
    9  A    between atoms: C_17  and  C_22
                            x       y       z     vdW  Elec       q    Type
                         _______ _______ _______ _____ _____    ______ ____

>  <TORSDO>
F 9

$$$$
=
 OpenBabel11062416223D

 29 31  0  0  1  0  0  0  0  0999 V2000
  189.7600  178.4680  144.6640 N   0  0  0  0  0  2  0  0  0  0  0  0
  191.2890  176.7140  144.4120 C   0  0  0  0  0  0  0  0  0  0  0  0
  190.0700  177.1200  145.1370 C   0  0  1  0  0  3  0  0  0  0  0  0
  190.9330  178.9640  143.9330 C   0  0  0  0  0  2  0  0  0  0  0  0
  191.8420  177.7940  143.5820 C   0  0  2  0  0  3  0  0  0  0  0  0
  191.7850  175.6010  144.4920 O   0  0  0  0  0  0  0  0  0  0  0  0
  190.3390  177.1410  146.6370 C   0  0  0  0  0  2  0  0  0  0  0  0
  189.2390  178.3570  148.3330 O   0  0  0  0  0  0  0  0  0  0  0  0
  189.1280  177.5860  147.3920 C   0  0  0  0  0  0  0  0  0  0  0  0
  187.7820  177.1030  146.9680 C   0  0  0  0  0  2  0  0  0  0  0  0
  186.7510  178.2030  147.1520 C   0  0  0  0  0  2  0  0  0  0  0  0
  184.6690  178.8840  145.9660 C   0  0  0  0  0  2  0  0  0  0  0  0
  183.8660  178.6460  144.6790 C   0  0  0  0  0  2  0  0  0  0  0  0
  186.1720  178.6160  145.8110 C   0  0  0  0  0  3  0  0  0  0  0  0
  185.9240  177.9720  143.3770 C   0  0  0  0  0  2  0  0  0  0  0  0
  186.4370  177.5400  144.7580 C   0  0  0  0  0  2  0  0  0  0  0  0
  184.7150  178.9150  143.4390 C   0  0  0  0  0  2  0  0  0  0  0  0
  191.7020  177.4390  142.1060 C   0  0  0  0  0  2  0  0  0  0  0  0
  190.2750  177.0280  141.7680 C   0  0  0  0  0  2  0  0  0  0  0  0
  188.0670  177.9410  138.7150 C   0  0  0  0  0  0  0  0  0  0  0  0
  189.9230  177.4100  140.3710 C   0  0  0  0  0  0  0  0  0  0  0  0
  188.8680  178.1150  137.7570 O   0  0  0  0  0  0  0  0  0  0  0  0
  188.5500  177.6200  140.0240 N   0  0  0  0  0  2  0  0  0  0  0  0
  190.8350  177.5160  139.5090 O   0  0  0  0  0  0  0  0  0  0  0  0
  186.6230  178.0610  138.4920 C   0  0  0  0  0  0  0  0  0  0  0  0
  185.9030  177.3960  137.5210 C   0  0  0  0  0  3  0  0  0  0  0  0
  184.5970  177.8180  137.6990 C   0  0  0  0  0  3  0  0  0  0  0  0
  184.6100  178.7080  138.7600 C   0  0  0  0  0  3  0  0  0  0  0  0
  185.8370  178.8250  139.2060 O   0  0  0  0  0  0  0  0  0  0  0  0
  1  3  1  0  0  0  0
  2  6  2  0  0  0  0
  2  3  1  0  0  0  0
  3  7  1  1  0  0  0
  4  1  1  0  0  0  0
  5 18  1  6  0  0  0
  5  4  1  0  0  0  0
  5  2  1  0  0  0  0
  7  9  1  0  0  0  0
  9  8  2  0  0  0  0
 10 11  1  0  0  0  0
 10  9  1  0  0  0  0
 13 12  1  0  0  0  0
 14 12  1  0  0  0  0
 14 11  1  0  0  0  0
 15 17  1  0  0  0  0
 15 16  1  0  0  0  0
 16 14  1  0  0  0  0
 17 13  1  0  0  0  0
 19 18  1  0  0  0  0
 20 23  1  0  0  0  0
 21 19  1  0  0  0  0
 22 20  2  0  0  0  0
 23 21  1  0  0  0  0
 24 21  2  0  0  0  0
 25 20  1  0  0  0  0
 25 29  1  0  0  0  0
 26 27  1  0  0  0  0
 26 25  2  0  0  0  0
 27 28  2  0  0  0  0
 28 29  1  0  0  0  0
M  END
>  <MODEL>
4

>  <REMARK>
 VINA RESULT:      -8.5      1.981      3.154
  Name = 
  9 active torsions:
  status: ('A' for Active; 'I' for Inactive)
    1  A    between atoms: C_2  and  C_3
    2  A    between atoms: C_6  and  C_21
    3  A    between atoms: C_11  and  C_22
    4  A    between atoms: C_12  and  C_13
    5  A    between atoms: C_12  and  C_17
    6  A    between atoms: C_13  and  C_15
    7  A    between atoms: C_16  and  C_21
    8  A    between atoms: C_16  and  C_26
    9  A    between atoms: C_17  and  C_22
                            x       y       z     vdW  Elec       q    Type
                         _______ _______ _______ _____ _____    ______ ____

>  <TORSDO>
F 9

$$$$
=
 OpenBabel11062416223D

 29 31  0  0  1  0  0  0  0  0999 V2000
  191.3230  176.7930  140.4470 N   0  0  0  0  0  2  0  0  0  0  0  0
  189.2010  177.6260  140.9750 C   0  0  0  0  0  0  0  0  0  0  0  0
  190.4960  177.2420  141.5670 C   0  0  1  0  0  3  0  0  0  0  0  0
  190.4420  176.6110  139.2880 C   0  0  0  0  0  2  0  0  0  0  0  0
  189.1230  177.3280  139.5370 C   0  0  2  0  0  3  0  0  0  0  0  0
  188.2910  178.1370  141.6100 O   0  0  0  0  0  0  0  0  0  0  0  0
  190.2970  176.1020  142.5600 C   0  0  0  0  0  2  0  0  0  0  0  0
  192.0590  175.3820  143.9530 O   0  0  0  0  0  0  0  0  0  0  0  0
  191.2220  176.2410  143.7260 C   0  0  0  0  0  0  0  0  0  0  0  0
  191.1330  177.4530  144.5920 C   0  0  0  0  0  2  0  0  0  0  0  0
  190.6020  177.0770  145.9640 C   0  0  0  0  0  2  0  0  0  0  0  0
  189.0470  177.8340  147.7570 C   0  0  0  0  0  2  0  0  0  0  0  0
  187.5610  177.8990  148.1330 C   0  0  0  0  0  2  0  0  0  0  0  0
  189.2970  177.8010  146.2430 C   0  0  0  0  0  3  0  0  0  0  0  0
  186.8240  177.8880  145.7160 C   0  0  0  0  0  2  0  0  0  0  0  0
  188.1400  177.1260  145.5050 C   0  0  0  0  0  2  0  0  0  0  0  0
  186.7490  178.6220  147.0610 C   0  0  0  0  0  2  0  0  0  0  0  0
  189.0660  178.6270  138.7410 C   0  0  0  0  0  2  0  0  0  0  0  0
  188.2900  178.4480  137.4430 C   0  0  0  0  0  2  0  0  0  0  0  0
  184.9540  178.5650  139.4160 C   0  0  0  0  0  0  0  0  0  0  0  0
  186.8220  178.4070  137.6960 C   0  0  0  0  0  0  0  0  0  0  0  0
  184.0490  178.3570  138.5630 O   0  0  0  0  0  0  0  0  0  0  0  0
  186.3300  178.6240  139.0230 N   0  0  0  0  0  2  0  0  0  0  0  0
  186.0350  178.1540  136.7440 O   0  0  0  0  0  0  0  0  0  0  0  0
  184.6030  178.7420  140.8270 C   0  0  0  0  0  0  0  0  0  0  0  0
  183.4600  178.2650  141.4370 C   0  0  0  0  0  3  0  0  0  0  0  0
  183.5690  178.6690  142.7560 C   0  0  0  0  0  3  0  0  0  0  0  0
  184.7640  179.3620  142.8610 C   0  0  0  0  0  3  0  0  0  0  0  0
  185.3510  179.3830  141.6890 O   0  0  0  0  0  0  0  0  0  0  0  0
  1  3  1  0  0  0  0
  2  3  1  0  0  0  0
  2  6  2  0  0  0  0
  3  7  1  1  0  0  0
  4  5  1  0  0  0  0
  4  1  1  0  0  0  0
  5 18  1  6  0  0  0
  5  2  1  0  0  0  0
  7  9  1  0  0  0  0
  9  8  2  0  0  0  0
  9 10  1  0  0  0  0
 10 11  1  0  0  0  0
 11 14  1  0  0  0  0
 12 13  1  0  0  0  0
 14 12  1  0  0  0  0
 15 17  1  0  0  0  0
 16 15  1  0  0  0  0
 16 14  1  0  0  0  0
 17 13  1  0  0  0  0
 19 21  1  0  0  0  0
 19 18  1  0  0  0  0
 20 25  1  0  0  0  0
 21 23  1  0  0  0  0
 22 20  2  0  0  0  0
 23 20  1  0  0  0  0
 24 21  2  0  0  0  0
 25 26  2  0  0  0  0
 25 29  1  0  0  0  0
 26 27  1  0  0  0  0
 27 28  2  0  0  0  0
 29 28  1  0  0  0  0
M  END
>  <MODEL>
5

>  <REMARK>
 VINA RESULT:      -8.3      1.972      2.927
  Name = 
  9 active torsions:
  status: ('A' for Active; 'I' for Inactive)
    1  A    between atoms: C_2  and  C_3
    2  A    between atoms: C_6  and  C_21
    3  A    between atoms: C_11  and  C_22
    4  A    between atoms: C_12  and  C_13
    5  A    between atoms: C_12  and  C_17
    6  A    between atoms: C_13  and  C_15
    7  A    between atoms: C_16  and  C_21
    8  A    between atoms: C_16  and  C_26
    9  A    between atoms: C_17  and  C_22
                            x       y       z     vdW  Elec       q    Type
                         _______ _______ _______ _____ _____    ______ ____

>  <TORSDO>
F 9

$$$$
=
 OpenBabel11062416223D

 29 31  0  0  1  0  0  0  0  0999 V2000
  183.1680  178.2170  141.2790 N   0  0  0  0  0  2  0  0  0  0  0  0
  185.4360  178.7810  141.1640 C   0  0  0  0  0  0  0  0  0  0  0  0
  184.3720  178.3640  142.0960 C   0  0  1  0  0  3  0  0  0  0  0  0
  183.4360  178.8370  139.9760 C   0  0  0  0  0  2  0  0  0  0  0  0
  184.9360  179.0230  139.8020 C   0  0  2  0  0  3  0  0  0  0  0  0
  186.6070  178.9110  141.4870 O   0  0  0  0  0  0  0  0  0  0  0  0
  184.1570  179.4400  143.1550 C   0  0  0  0  0  2  0  0  0  0  0  0
  183.4950  179.0030  145.3760 O   0  0  0  0  0  0  0  0  0  0  0  0
  184.3660  178.8880  144.5280 C   0  0  0  0  0  0  0  0  0  0  0  0
  185.6360  178.1710  144.8450 C   0  0  0  0  0  2  0  0  0  0  0  0
  185.9940  178.3640  146.3080 C   0  0  0  0  0  2  0  0  0  0  0  0
  187.7700  178.0600  148.0280 C   0  0  0  0  0  2  0  0  0  0  0  0
  189.2910  177.9480  148.2020 C   0  0  0  0  0  2  0  0  0  0  0  0
  187.2760  177.6240  146.6410 C   0  0  0  0  0  3  0  0  0  0  0  0
  189.6180  177.0800  145.8510 C   0  0  0  0  0  2  0  0  0  0  0  0
  188.3370  177.8790  145.5700 C   0  0  0  0  0  2  0  0  0  0  0  0
  189.8660  176.8240  147.3440 C   0  0  0  0  0  2  0  0  0  0  0  0
  185.4940  177.9720  138.8500 C   0  0  0  0  0  2  0  0  0  0  0  0
  186.2550  178.6150  137.6980 C   0  0  0  0  0  2  0  0  0  0  0  0
  189.7220  177.5230  139.0440 C   0  0  0  0  0  0  0  0  0  0  0  0
  187.6770  178.1700  137.6780 C   0  0  0  0  0  0  0  0  0  0  0  0
  190.4390  177.3370  138.0240 O   0  0  0  0  0  0  0  0  0  0  0  0
  188.3490  177.9070  138.9150 N   0  0  0  0  0  2  0  0  0  0  0  0
  188.2770  178.0590  136.5760 O   0  0  0  0  0  0  0  0  0  0  0  0
  190.2960  177.3520  140.3820 C   0  0  0  0  0  0  0  0  0  0  0  0
  189.5940  177.0110  141.5200 C   0  0  0  0  0  3  0  0  0  0  0  0
  190.5480  176.9630  142.5220 C   0  0  0  0  0  3  0  0  0  0  0  0
  191.7600  177.2770  141.9310 C   0  0  0  0  0  3  0  0  0  0  0  0
  191.5680  177.5020  140.6530 O   0  0  0  0  0  0  0  0  0  0  0  0
  1  3  1  0  0  0  0
  2  6  2  0  0  0  0
  2  3  1  0  0  0  0
  3  7  1  1  0  0  0
  4  1  1  0  0  0  0
  5 18  1  6  0  0  0
  5  4  1  0  0  0  0
  5  2  1  0  0  0  0
  7  9  1  0  0  0  0
  9 10  1  0  0  0  0
  9  8  2  0  0  0  0
 10 11  1  0  0  0  0
 11 14  1  0  0  0  0
 12 13  1  0  0  0  0
 14 12  1  0  0  0  0
 15 17  1  0  0  0  0
 16 15  1  0  0  0  0
 16 14  1  0  0  0  0
 17 13  1  0  0  0  0
 19 18  1  0  0  0  0
 20 25  1  0  0  0  0
 21 19  1  0  0  0  0
 21 23  1  0  0  0  0
 22 20  2  0  0  0  0
 23 20  1  0  0  0  0
 24 21  2  0  0  0  0
 25 29  1  0  0  0  0
 25 26  2  0  0  0  0
 26 27  1  0  0  0  0
 28 27  2  0  0  0  0
 29 28  1  0  0  0  0
M  END
>  <MODEL>
6

>  <REMARK>
 VINA RESULT:      -8.2      2.437      6.191
  Name = 
  9 active torsions:
  status: ('A' for Active; 'I' for Inactive)
    1  A    between atoms: C_2  and  C_3
    2  A    between atoms: C_6  and  C_21
    3  A    between atoms: C_11  and  C_22
    4  A    between atoms: C_12  and  C_13
    5  A    between atoms: C_12  and  C_17
    6  A    between atoms: C_13  and  C_15
    7  A    between atoms: C_16  and  C_21
    8  A    between atoms: C_16  and  C_26
    9  A    between atoms: C_17  and  C_22
                            x       y       z     vdW  Elec       q    Type
                         _______ _______ _______ _____ _____    ______ ____

>  <TORSDO>
F 9

$$$$
=
 OpenBabel11062416223D

 29 31  0  0  1  0  0  0  0  0999 V2000
  191.4870  178.2220  143.3000 N   0  0  0  0  0  2  0  0  0  0  0  0
  189.7790  176.6530  142.9840 C   0  0  0  0  0  0  0  0  0  0  0  0
  190.3770  177.5570  143.9830 C   0  0  1  0  0  3  0  0  0  0  0  0
  191.7350  177.4970  142.0480 C   0  0  0  0  0  2  0  0  0  0  0  0
  190.5340  176.6210  141.7230 C   0  0  2  0  0  3  0  0  0  0  0  0
  188.7650  176.0010  143.1820 O   0  0  0  0  0  0  0  0  0  0  0  0
  190.9000  176.7520  145.1680 C   0  0  0  0  0  2  0  0  0  0  0  0
  190.2330  176.3130  147.3880 O   0  0  0  0  0  0  0  0  0  0  0  0
  190.0710  176.9950  146.3880 C   0  0  0  0  0  0  0  0  0  0  0  0
  189.0660  178.0990  146.3830 C   0  0  0  0  0  2  0  0  0  0  0  0
  187.6750  177.5380  146.6270 C   0  0  0  0  0  2  0  0  0  0  0  0
  185.3680  178.4760  146.6870 C   0  0  0  0  0  2  0  0  0  0  0  0
  184.0900  178.6200  145.8500 C   0  0  0  0  0  2  0  0  0  0  0  0
  186.6420  178.3260  145.8440 C   0  0  0  0  0  3  0  0  0  0  0  0
  185.3560  178.4640  143.6690 C   0  0  0  0  0  2  0  0  0  0  0  0
  186.3450  177.6430  144.5090 C   0  0  0  0  0  2  0  0  0  0  0  0
  184.3780  179.2940  144.5110 C   0  0  0  0  0  2  0  0  0  0  0  0
  189.7060  177.2480  140.6070 C   0  0  0  0  0  2  0  0  0  0  0  0
  190.1670  176.7670  139.2370 C   0  0  0  0  0  2  0  0  0  0  0  0
  186.7670  177.8160  137.6980 C   0  0  0  0  0  0  0  0  0  0  0  0
  189.1420  177.0540  138.1940 C   0  0  0  0  0  0  0  0  0  0  0  0
  186.9010  177.6760  136.4530 O   0  0  0  0  0  0  0  0  0  0  0  0
  187.8570  177.5460  138.5870 N   0  0  0  0  0  2  0  0  0  0  0  0
  189.4120  176.8330  136.9830 O   0  0  0  0  0  0  0  0  0  0  0  0
  185.4820  178.2540  138.2510 C   0  0  0  0  0  0  0  0  0  0  0  0
  184.2390  177.8440  137.8140 C   0  0  0  0  0  3  0  0  0  0  0  0
  183.3410  178.5110  138.6300 C   0  0  0  0  0  3  0  0  0  0  0  0
  184.0930  179.2790  139.5030 C   0  0  0  0  0  3  0  0  0  0  0  0
  185.3660  179.0970  139.2440 O   0  0  0  0  0  0  0  0  0  0  0  0
  1  3  1  0  0  0  0
  2  6  2  0  0  0  0
  2  3  1  0  0  0  0
  3  7  1  1  0  0  0
  4  1  1  0  0  0  0
  5 18  1  6  0  0  0
  5  4  1  0  0  0  0
  5  2  1  0  0  0  0
  7  9  1  0  0  0  0
  9  8  2  0  0  0  0
 10  9  1  0  0  0  0
 10 11  1  0  0  0  0
 13 12  1  0  0  0  0
 14 11  1  0  0  0  0
 14 12  1  0  0  0  0
 15 16  1  0  0  0  0
 15 17  1  0  0  0  0
 16 14  1  0  0  0  0
 17 13  1  0  0  0  0
 19 18  1  0  0  0  0
 20 25  1  0  0  0  0
 20 23  1  0  0  0  0
 21 23  1  0  0  0  0
 21 19  1  0  0  0  0
 22 20  2  0  0  0  0
 24 21  2  0  0  0  0
 25 29  1  0  0  0  0
 26 25  2  0  0  0  0
 26 27  1  0  0  0  0
 27 28  2  0  0  0  0
 29 28  1  0  0  0  0
M  END
>  <MODEL>
7

>  <REMARK>
 VINA RESULT:      -8.2      2.162      2.842
  Name = 
  9 active torsions:
  status: ('A' for Active; 'I' for Inactive)
    1  A    between atoms: C_2  and  C_3
    2  A    between atoms: C_6  and  C_21
    3  A    between atoms: C_11  and  C_22
    4  A    between atoms: C_12  and  C_13
    5  A    between atoms: C_12  and  C_17
    6  A    between atoms: C_13  and  C_15
    7  A    between atoms: C_16  and  C_21
    8  A    between atoms: C_16  and  C_26
    9  A    between atoms: C_17  and  C_22
                            x       y       z     vdW  Elec       q    Type
                         _______ _______ _______ _____ _____    ______ ____

>  <TORSDO>
F 9

$$$$
=
 OpenBabel11062416223D

 29 31  0  0  1  0  0  0  0  0999 V2000
  188.8380  178.3360  140.0430 N   0  0  0  0  0  2  0  0  0  0  0  0
  189.6960  176.6020  138.7260 C   0  0  0  0  0  0  0  0  0  0  0  0
  189.3540  176.9690  140.1130 C   0  0  1  0  0  3  0  0  0  0  0  0
  189.1680  178.8680  138.7150 C   0  0  0  0  0  2  0  0  0  0  0  0
  189.5320  177.7200  137.7850 C   0  0  2  0  0  3  0  0  0  0  0  0
  190.0730  175.4880  138.3940 O   0  0  0  0  0  0  0  0  0  0  0  0
  190.6030  176.9260  140.9860 C   0  0  0  0  0  2  0  0  0  0  0  0
  190.3560  175.3740  142.7450 O   0  0  0  0  0  0  0  0  0  0  0  0
  190.2630  176.5380  142.3890 C   0  0  0  0  0  0  0  0  0  0  0  0
  189.8380  177.5910  143.3580 C   0  0  0  0  0  2  0  0  0  0  0  0
  188.3940  177.3660  143.7710 C   0  0  0  0  0  2  0  0  0  0  0  0
  187.0230  177.7820  145.8090 C   0  0  0  0  0  2  0  0  0  0  0  0
  187.1260  178.2080  147.2810 C   0  0  0  0  0  2  0  0  0  0  0  0
  188.3030  177.1300  145.2680 C   0  0  0  0  0  3  0  0  0  0  0  0
  189.5040  177.3800  147.4800 C   0  0  0  0  0  2  0  0  0  0  0  0
  189.5440  177.6750  145.9740 C   0  0  0  0  0  2  0  0  0  0  0  0
  188.0830  177.3040  148.0530 C   0  0  0  0  0  2  0  0  0  0  0  0
  188.3830  177.4280  136.8270 C   0  0  0  0  0  2  0  0  0  0  0  0
  187.3860  178.5780  136.7910 C   0  0  0  0  0  2  0  0  0  0  0  0
  184.6230  178.1690  139.4810 C   0  0  0  0  0  0  0  0  0  0  0  0
  186.0840  178.1800  137.3980 C   0  0  0  0  0  0  0  0  0  0  0  0
  183.6900  177.5380  138.9150 O   0  0  0  0  0  0  0  0  0  0  0  0
  185.8070  178.5280  138.7590 N   0  0  0  0  0  2  0  0  0  0  0  0
  185.2570  177.5190  136.7150 O   0  0  0  0  0  0  0  0  0  0  0  0
  184.5050  178.5360  140.8950 C   0  0  0  0  0  0  0  0  0  0  0  0
  185.5260  179.0200  141.6870 C   0  0  0  0  0  3  0  0  0  0  0  0
  184.9440  179.2250  142.9260 C   0  0  0  0  0  3  0  0  0  0  0  0
  183.6150  178.8540  142.8060 C   0  0  0  0  0  3  0  0  0  0  0  0
  183.3930  178.4490  141.5790 O   0  0  0  0  0  0  0  0  0  0  0  0
  1  3  1  0  0  0  0
  2  3  1  0  0  0  0
  3  7  1  1  0  0  0
  4  1  1  0  0  0  0
  5 18  1  6  0  0  0
  5  4  1  0  0  0  0
  5  2  1  0  0  0  0
  6  2  2  0  0  0  0
  7  9  1  0  0  0  0
  9  8  2  0  0  0  0
  9 10  1  0  0  0  0
 10 11  1  0  0  0  0
 11 14  1  0  0  0  0
 12 13  1  0  0  0  0
 13 17  1  0  0  0  0
 14 12  1  0  0  0  0
 14 16  1  0  0  0  0
 15 17  1  0  0  0  0
 16 15  1  0  0  0  0
 19 18  1  0  0  0  0
 19 21  1  0  0  0  0
 20 25  1  0  0  0  0
 21 23  1  0  0  0  0
 22 20  2  0  0  0  0
 23 20  1  0  0  0  0
 24 21  2  0  0  0  0
 25 29  1  0  0  0  0
 25 26  2  0  0  0  0
 26 27  1  0  0  0  0
 28 27  2  0  0  0  0
 29 28  1  0  0  0  0
M  END
>  <MODEL>
8

>  <REMARK>
 VINA RESULT:      -8.1      2.412      3.755
  Name = 
  9 active torsions:
  status: ('A' for Active; 'I' for Inactive)
    1  A    between atoms: C_2  and  C_3
    2  A    between atoms: C_6  and  C_21
    3  A    between atoms: C_11  and  C_22
    4  A    between atoms: C_12  and  C_13
    5  A    between atoms: C_12  and  C_17
    6  A    between atoms: C_13  and  C_15
    7  A    between atoms: C_16  and  C_21
    8  A    between atoms: C_16  and  C_26
    9  A    between atoms: C_17  and  C_22
                            x       y       z     vdW  Elec       q    Type
                         _______ _______ _______ _____ _____    ______ ____

>  <TORSDO>
F 9

$$$$
=
 OpenBabel11062416223D

 29 31  0  0  1  0  0  0  0  0999 V2000
  189.2290  176.9750  141.7860 N   0  0  0  0  0  2  0  0  0  0  0  0
  190.7000  177.2450  139.9860 C   0  0  0  0  0  0  0  0  0  0  0  0
  190.5910  176.6780  141.3430 C   0  0  1  0  0  3  0  0  0  0  0  0
  188.6650  177.9620  140.8580 C   0  0  0  0  0  2  0  0  0  0  0  0
  189.5010  177.9990  139.5880 C   0  0  2  0  0  3  0  0  0  0  0  0
  191.6790  177.1030  139.2690 O   0  0  0  0  0  0  0  0  0  0  0  0
  191.6010  177.3470  142.2690 C   0  0  0  0  0  2  0  0  0  0  0  0
  191.6640  175.7080  143.9640 O   0  0  0  0  0  0  0  0  0  0  0  0
  191.4340  176.8720  143.6760 C   0  0  0  0  0  0  0  0  0  0  0  0
  191.0110  177.8390  144.7310 C   0  0  0  0  0  2  0  0  0  0  0  0
  190.0800  177.1590  145.7200 C   0  0  0  0  0  2  0  0  0  0  0  0
  188.2360  177.9440  147.2000 C   0  0  0  0  0  2  0  0  0  0  0  0
  186.7070  177.9880  147.3220 C   0  0  0  0  0  2  0  0  0  0  0  0
  188.7350  177.8620  145.7500 C   0  0  0  0  0  3  0  0  0  0  0  0
  186.3830  177.8710  144.8190 C   0  0  0  0  0  2  0  0  0  0  0  0
  187.7290  177.1340  144.8590 C   0  0  0  0  0  2  0  0  0  0  0  0
  186.0720  178.6520  146.1020 C   0  0  0  0  0  2  0  0  0  0  0  0
  188.7820  177.2710  138.4570 C   0  0  0  0  0  2  0  0  0  0  0  0
  188.1390  178.2530  137.4870 C   0  0  0  0  0  2  0  0  0  0  0  0
  184.5600  178.2580  138.9760 C   0  0  0  0  0  0  0  0  0  0  0  0
  186.6520  178.1590  137.5340 C   0  0  0  0  0  0  0  0  0  0  0  0
  183.7900  178.0110  138.0090 O   0  0  0  0  0  0  0  0  0  0  0  0
  185.9740  178.3660  138.7770 N   0  0  0  0  0  2  0  0  0  0  0  0
  186.0160  177.8710  136.4860 O   0  0  0  0  0  0  0  0  0  0  0  0
  184.0090  178.4310  140.3240 C   0  0  0  0  0  0  0  0  0  0  0  0
  184.7470  178.5710  141.4810 C   0  0  0  0  0  3  0  0  0  0  0  0
  183.8040  178.7090  142.4860 C   0  0  0  0  0  3  0  0  0  0  0  0
  182.5630  178.6440  141.8760 C   0  0  0  0  0  3  0  0  0  0  0  0
  182.7280  178.4780  140.5860 O   0  0  0  0  0  0  0  0  0  0  0  0
  2  3  1  0  0  0  0
  3  1  1  0  0  0  0
  3  7  1  1  0  0  0
  4  1  1  0  0  0  0
  5 18  1  6  0  0  0
  5  2  1  0  0  0  0
  5  4  1  0  0  0  0
  6  2  2  0  0  0  0
  7  9  1  0  0  0  0
  9  8  2  0  0  0  0
  9 10  1  0  0  0  0
 10 11  1  0  0  0  0
 11 14  1  0  0  0  0
 12 13  1  0  0  0  0
 14 12  1  0  0  0  0
 15 16  1  0  0  0  0
 15 17  1  0  0  0  0
 16 14  1  0  0  0  0
 17 13  1  0  0  0  0
 19 21  1  0  0  0  0
 19 18  1  0  0  0  0
 20 25  1  0  0  0  0
 21 23  1  0  0  0  0
 22 20  2  0  0  0  0
 23 20  1  0  0  0  0
 24 21  2  0  0  0  0
 25 29  1  0  0  0  0
 25 26  2  0  0  0  0
 26 27  1  0  0  0  0
 28 27  2  0  0  0  0
 29 28  1  0  0  0  0
M  END
>  <MODEL>
9

>  <REMARK>
 VINA RESULT:      -8.1      2.106      2.802
  Name = 
  9 active torsions:
  status: ('A' for Active; 'I' for Inactive)
    1  A    between atoms: C_2  and  C_3
    2  A    between atoms: C_6  and  C_21
    3  A    between atoms: C_11  and  C_22
    4  A    between atoms: C_12  and  C_13
    5  A    between atoms: C_12  and  C_17
    6  A    between atoms: C_13  and  C_15
    7  A    between atoms: C_16  and  C_21
    8  A    between atoms: C_16  and  C_26
    9  A    between atoms: C_17  and  C_22
                            x       y       z     vdW  Elec       q    Type
                         _______ _______ _______ _____ _____    ______ ____

>  <TORSDO>
F 9

$$$$
