=
 OpenBabel11062414343D

 31 33  0  0  1  0  0  0  0  0999 V2000
  184.2900  179.1180  144.0650 C   0  0  0  0  0  3  0  0  0  0  0  0
  186.6320  177.4460  143.8710 C   0  0  0  0  0  2  0  0  0  0  0  0
  185.7810  177.7580  142.6220 C   0  0  0  0  0  2  0  0  0  0  0  0
  184.9840  178.8120  145.1660 C   0  0  0  0  0  3  0  0  0  0  0  0
  184.9770  179.0670  142.7260 C   0  0  1  0  0  3  0  0  0  0  0  0
  186.4300  178.4330  145.0340 C   0  0  1  0  0  3  0  0  0  0  0  0
  184.5040  178.5640  140.2660 C   0  0  1  0  0  3  0  0  0  0  0  0
  183.4250  178.3990  139.2880 N   0  0  0  0  0  0  0  0  0  0  0  0
  185.5560  179.3730  139.6750 N   0  0  0  0  0  1  0  0  0  0  0  0
  179.3220  177.6370  139.9680 O   0  0  0  0  0  0  0  0  0  0  0  0
  181.2140  177.9500  138.6130 N   0  0  0  0  0  2  0  0  0  0  0  0
  181.8440  178.1680  141.0650 C   0  0  0  0  0  3  0  0  0  0  0  0
  183.9790  179.2110  141.5660 C   0  0  1  0  0  3  0  0  0  0  0  0
  182.1950  178.1710  139.6340 C   0  0  0  0  0  0  0  0  0  0  0  0
  179.8190  177.6890  138.8120 C   0  0  0  0  0  0  0  0  0  0  0  0
  182.6910  178.6120  141.9430 N   0  0  0  0  0  0  0  0  0  0  0  0
  178.9350  177.5070  137.6260 C   0  0  0  0  0  2  0  0  0  0  0  0
  179.6870  177.8160  136.3400 C   0  0  1  0  0  3  0  0  0  0  0  0
  179.2410  176.9380  135.2700 N   0  0  0  0  0  1  0  0  0  0  0  0
  180.5950  179.7740  135.3050 F   0  0  0  0  0  0  0  0  0  0  0  0
  179.4730  179.2680  135.9410 C   0  0  0  0  0  2  0  0  0  0  0  0
  186.9280  177.8280  146.3420 C   0  0  0  0  0  2  0  0  0  0  0  0
  192.2200  175.9440  147.7440 O   0  0  0  0  0  0  0  0  0  0  0  0
  189.1110  177.8640  145.3010 C   0  0  0  0  0  3  0  0  0  0  0  0
  191.1930  178.4960  143.6220 Cl  0  0  0  0  0  0  0  0  0  0  0  0
  189.8710  176.1680  147.6890 C   0  0  0  0  0  2  0  0  0  0  0  0
  191.2290  176.4170  147.1320 C   0  0  0  0  0  0  0  0  0  0  0  0
  188.4230  177.7100  146.4360 C   0  0  0  0  0  0  0  0  0  0  0  0
  190.5740  177.7770  145.0940 C   0  0  0  0  0  0  0  0  0  0  0  0
  191.4650  177.1610  145.8820 C   0  0  0  0  0  3  0  0  0  0  0  0
  189.0970  177.4650  147.7490 C   0  0  0  0  0  2  0  0  0  0  0  0
  1  4  2  0  0  0  0
  2  6  1  0  0  0  0
  3  2  1  0  0  0  0
  5  3  1  6  0  0  0
  5  1  1  0  0  0  0
  6  4  1  0  0  0  0
  6 22  1  1  0  0  0
  7  9  1  6  0  0  0
  7 13  1  0  0  0  0
  8 14  2  0  0  0  0
  8  7  1  0  0  0  0
 11 15  1  0  0  0  0
 11 14  1  0  0  0  0
 12 16  2  0  0  0  0
 13 16  1  1  0  0  0
 13  5  1  0  0  0  0
 14 12  1  0  0  0  0
 15 10  2  0  0  0  0
 17 15  1  0  0  0  0
 18 19  1  6  0  0  0
 18 17  1  0  0  0  0
 20 21  1  0  0  0  0
 21 18  1  0  0  0  0
 22 28  1  0  0  0  0
 24 28  2  0  0  0  0
 25 29  1  0  0  0  0
 26 31  1  0  0  0  0
 27 26  1  0  0  0  0
 27 23  2  0  0  0  0
 28 31  1  0  0  0  0
 29 24  1  0  0  0  0
 29 30  2  0  0  0  0
 30 27  1  0  0  0  0
M  END
>  <MODEL>
1

>  <REMARK>
 VINA RESULT:      -7.8      0.000      0.000
  Name = 
  6 active torsions:
  status: ('A' for Active; 'I' for Inactive)
    1  A    between atoms: C_14  and  C_27
    2  A    between atoms: C_18  and  C_20
    3  A    between atoms: C_18  and  C_28
    4  A    between atoms: C_20  and  C_31
    5  A    between atoms: C_23  and  C_24
    6  A    between atoms: C_27  and  C_30
                            x       y       z     vdW  Elec       q    Type
                         _______ _______ _______ _____ _____    ______ ____

>  <TORSDO>
F 6

$$$$
=
 OpenBabel11062414343D

 31 33  0  0  1  0  0  0  0  0999 V2000
  188.4440  177.3700  141.0280 C   0  0  0  0  0  3  0  0  0  0  0  0
  191.2860  177.4200  140.5350 C   0  0  0  0  0  2  0  0  0  0  0  0
  190.2820  177.6720  139.3900 C   0  0  0  0  0  2  0  0  0  0  0  0
  189.2980  177.0960  142.0200 C   0  0  0  0  0  3  0  0  0  0  0  0
  188.9150  178.1990  139.8620 C   0  0  1  0  0  3  0  0  0  0  0  0
  190.6990  177.6270  141.9430 C   0  0  1  0  0  3  0  0  0  0  0  0
  187.7970  176.8410  138.0090 C   0  0  1  0  0  3  0  0  0  0  0  0
  186.5950  176.7610  137.1740 N   0  0  0  0  0  0  0  0  0  0  0  0
  188.9650  176.6120  137.1760 N   0  0  0  0  0  1  0  0  0  0  0  0
  182.8160  178.5570  137.7860 O   0  0  0  0  0  0  0  0  0  0  0  0
  184.3390  177.1810  136.6450 N   0  0  0  0  0  2  0  0  0  0  0  0
  185.4610  178.2540  138.6560 C   0  0  0  0  0  3  0  0  0  0  0  0
  187.8880  178.2090  138.7180 C   0  0  1  0  0  3  0  0  0  0  0  0
  185.4900  177.3710  137.4780 C   0  0  0  0  0  0  0  0  0  0  0  0
  183.0470  177.7750  136.8270 C   0  0  0  0  0  0  0  0  0  0  0  0
  186.5700  178.5970  139.2380 N   0  0  0  0  0  0  0  0  0  0  0  0
  181.9660  177.4830  135.8430 C   0  0  0  0  0  2  0  0  0  0  0  0
  180.7410  176.9110  136.5410 C   0  0  1  0  0  3  0  0  0  0  0  0
  179.6110  176.8710  135.6270 N   0  0  0  0  0  1  0  0  0  0  0  0
  181.2720  175.5330  138.4250 F   0  0  0  0  0  0  0  0  0  0  0  0
  181.0360  175.5120  137.0600 C   0  0  0  0  0  2  0  0  0  0  0  0
  191.5710  176.9440  142.9910 C   0  0  0  0  0  2  0  0  0  0  0  0
  188.2440  177.9290  147.6270 O   0  0  0  0  0  0  0  0  0  0  0  0
  191.6810  176.4080  145.3470 C   0  0  0  0  0  3  0  0  0  0  0  0
  192.6300  175.6280  147.8050 Cl  0  0  0  0  0  0  0  0  0  0  0  0
  188.9230  177.6530  145.3830 C   0  0  0  0  0  2  0  0  0  0  0  0
  189.1400  177.5130  146.8490 C   0  0  0  0  0  0  0  0  0  0  0  0
  191.1310  177.1830  144.4070 C   0  0  0  0  0  0  0  0  0  0  0  0
  191.4210  176.4040  146.8040 C   0  0  0  0  0  0  0  0  0  0  0  0
  190.3370  176.8810  147.4310 C   0  0  0  0  0  3  0  0  0  0  0  0
  190.1480  178.2610  144.7400 C   0  0  0  0  0  2  0  0  0  0  0  0
  1  4  2  0  0  0  0
  2  6  1  0  0  0  0
  3  2  1  0  0  0  0
  5  3  1  6  0  0  0
  5  1  1  0  0  0  0
  6  4  1  0  0  0  0
  6 22  1  1  0  0  0
  7  9  1  6  0  0  0
  7 13  1  0  0  0  0
  8 14  2  0  0  0  0
  8  7  1  0  0  0  0
 11 15  1  0  0  0  0
 11 14  1  0  0  0  0
 12 16  2  0  0  0  0
 13 16  1  1  0  0  0
 13  5  1  0  0  0  0
 14 12  1  0  0  0  0
 15 10  2  0  0  0  0
 17 18  1  0  0  0  0
 17 15  1  0  0  0  0
 18 19  1  6  0  0  0
 18 21  1  0  0  0  0
 21 20  1  0  0  0  0
 22 28  1  0  0  0  0
 24 29  1  0  0  0  0
 26 27  1  0  0  0  0
 27 30  1  0  0  0  0
 27 23  2  0  0  0  0
 28 31  1  0  0  0  0
 28 24  2  0  0  0  0
 29 30  2  0  0  0  0
 29 25  1  0  0  0  0
 31 26  1  0  0  0  0
M  END
>  <MODEL>
2

>  <REMARK>
 VINA RESULT:      -7.8      3.242      4.263
  Name = 
  6 active torsions:
  status: ('A' for Active; 'I' for Inactive)
    1  A    between atoms: C_14  and  C_27
    2  A    between atoms: C_18  and  C_20
    3  A    between atoms: C_18  and  C_28
    4  A    between atoms: C_20  and  C_31
    5  A    between atoms: C_23  and  C_24
    6  A    between atoms: C_27  and  C_30
                            x       y       z     vdW  Elec       q    Type
                         _______ _______ _______ _____ _____    ______ ____

>  <TORSDO>
F 6

$$$$
=
 OpenBabel11062414343D

 31 33  0  0  1  0  0  0  0  0999 V2000
  185.6020  178.7030  140.0330 C   0  0  0  0  0  3  0  0  0  0  0  0
  182.9350  177.6050  139.9810 C   0  0  0  0  0  2  0  0  0  0  0  0
  183.6490  177.8790  141.3220 C   0  0  0  0  0  2  0  0  0  0  0  0
  185.0200  178.4200  138.8640 C   0  0  0  0  0  3  0  0  0  0  0  0
  184.7380  178.9640  141.2390 C   0  0  1  0  0  3  0  0  0  0  0  0
  183.5220  178.3760  138.7870 C   0  0  1  0  0  3  0  0  0  0  0  0
  184.7420  178.6260  143.7720 C   0  0  1  0  0  3  0  0  0  0  0  0
  185.6140  178.3600  144.9190 N   0  0  0  0  0  0  0  0  0  0  0  0
  183.8010  179.6730  144.1300 N   0  0  0  0  0  1  0  0  0  0  0  0
  189.5350  176.7770  144.9610 O   0  0  0  0  0  0  0  0  0  0  0  0
  187.5700  177.5720  145.9690 N   0  0  0  0  0  2  0  0  0  0  0  0
  187.3550  177.6610  143.4390 C   0  0  0  0  0  3  0  0  0  0  0  0
  185.5680  179.0310  142.5310 C   0  0  1  0  0  3  0  0  0  0  0  0
  186.8100  177.8720  144.7910 C   0  0  0  0  0  0  0  0  0  0  0  0
  188.8980  177.0360  146.0150 C   0  0  0  0  0  0  0  0  0  0  0  0
  186.7490  178.1670  142.4080 N   0  0  0  0  0  0  0  0  0  0  0  0
  189.5470  176.8100  147.3370 C   0  0  0  0  0  2  0  0  0  0  0  0
  191.0620  176.7610  147.1930 C   0  0  1  0  0  3  0  0  0  0  0  0
  191.6910  177.6190  148.1830 N   0  0  0  0  0  1  0  0  0  0  0  0
  192.4420  175.0020  146.3380 F   0  0  0  0  0  0  0  0  0  0  0  0
  191.5600  175.3330  147.3540 C   0  0  0  0  0  2  0  0  0  0  0  0
  183.0890  177.7370  137.4720 C   0  0  0  0  0  2  0  0  0  0  0  0
  187.9090  175.6480  135.0380 O   0  0  0  0  0  0  0  0  0  0  0  0
  184.2970  175.6420  137.5420 C   0  0  0  0  0  3  0  0  0  0  0  0
  184.9160  173.0000  137.9680 Cl  0  0  0  0  0  0  0  0  0  0  0  0
  186.3010  177.1660  135.8640 C   0  0  0  0  0  2  0  0  0  0  0  0
  186.8810  175.8000  135.7460 C   0  0  0  0  0  0  0  0  0  0  0  0
  184.0970  176.7900  136.8870 C   0  0  0  0  0  0  0  0  0  0  0  0
  185.2350  174.5460  137.2130 C   0  0  0  0  0  0  0  0  0  0  0  0
  186.3300  174.6250  136.4440 C   0  0  0  0  0  3  0  0  0  0  0  0
  184.8130  177.1130  135.6130 C   0  0  0  0  0  2  0  0  0  0  0  0
  2  3  1  0  0  0  0
  4  1  2  0  0  0  0
  5  1  1  6  0  0  0
  5  3  1  0  0  0  0
  5 13  1  0  0  0  0
  6 22  1  6  0  0  0
  6  4  1  0  0  0  0
  6  2  1  0  0  0  0
  7  9  1  1  0  0  0
  7  8  1  0  0  0  0
 10 15  2  0  0  0  0
 11 15  1  0  0  0  0
 12 14  1  0  0  0  0
 13 16  1  6  0  0  0
 13  7  1  0  0  0  0
 14  8  2  0  0  0  0
 14 11  1  0  0  0  0
 15 17  1  0  0  0  0
 16 12  2  0  0  0  0
 18 17  1  0  0  0  0
 18 21  1  0  0  0  0
 18 19  1  1  0  0  0
 20 21  1  0  0  0  0
 23 27  2  0  0  0  0
 27 26  1  0  0  0  0
 27 30  1  0  0  0  0
 28 22  1  0  0  0  0
 28 24  2  0  0  0  0
 29 24  1  0  0  0  0
 29 25  1  0  0  0  0
 30 29  2  0  0  0  0
 31 26  1  0  0  0  0
 31 28  1  0  0  0  0
M  END
>  <MODEL>
3

>  <REMARK>
 VINA RESULT:      -7.7      5.339     10.316
  Name = 
  6 active torsions:
  status: ('A' for Active; 'I' for Inactive)
    1  A    between atoms: C_14  and  C_27
    2  A    between atoms: C_18  and  C_20
    3  A    between atoms: C_18  and  C_28
    4  A    between atoms: C_20  and  C_31
    5  A    between atoms: C_23  and  C_24
    6  A    between atoms: C_27  and  C_30
                            x       y       z     vdW  Elec       q    Type
                         _______ _______ _______ _____ _____    ______ ____

>  <TORSDO>
F 6

$$$$
=
 OpenBabel11062414343D

 31 33  0  0  1  0  0  0  0  0999 V2000
  183.1490  179.0780  144.0560 C   0  0  0  0  0  3  0  0  0  0  0  0
  183.1200  178.6120  141.2100 C   0  0  0  0  0  2  0  0  0  0  0  0
  184.4470  178.5880  142.0000 C   0  0  0  0  0  2  0  0  0  0  0  0
  181.9990  179.1570  143.3800 C   0  0  0  0  0  3  0  0  0  0  0  0
  184.2780  178.2560  143.4940 C   0  0  1  0  0  3  0  0  0  0  0  0
  181.8660  178.4180  142.0800 C   0  0  1  0  0  3  0  0  0  0  0  0
  185.5270  177.8560  145.6870 C   0  0  1  0  0  3  0  0  0  0  0  0
  186.8670  177.7630  146.2740 N   0  0  0  0  0  0  0  0  0  0  0  0
  184.6830  178.6500  146.5620 N   0  0  0  0  0  1  0  0  0  0  0  0
  190.5720  177.1140  144.3430 O   0  0  0  0  0  0  0  0  0  0  0  0
  189.1950  177.4120  146.2210 N   0  0  0  0  0  2  0  0  0  0  0  0
  187.8120  177.5210  144.0920 C   0  0  0  0  0  3  0  0  0  0  0  0
  185.5860  178.4740  144.2720 C   0  0  1  0  0  3  0  0  0  0  0  0
  187.9320  177.5640  145.5600 C   0  0  0  0  0  0  0  0  0  0  0  0
  190.4650  177.1920  145.5950 C   0  0  0  0  0  0  0  0  0  0  0  0
  186.7120  177.9050  143.5200 N   0  0  0  0  0  0  0  0  0  0  0  0
  191.6860  177.0810  146.4420 C   0  0  0  0  0  2  0  0  0  0  0  0
  191.8790  175.6520  146.9270 C   0  0  1  0  0  3  0  0  0  0  0  0
  192.4310  174.8280  145.8620 N   0  0  0  0  0  1  0  0  0  0  0  0
  192.7210  176.8100  148.8440 F   0  0  0  0  0  0  0  0  0  0  0  0
  192.8040  175.6250  148.1330 C   0  0  0  0  0  2  0  0  0  0  0  0
  180.6220  178.8930  141.3380 C   0  0  0  0  0  2  0  0  0  0  0  0
  180.9190  176.8910  135.9130 O   0  0  0  0  0  0  0  0  0  0  0  0
  180.0490  176.8250  140.2210 C   0  0  0  0  0  3  0  0  0  0  0  0
  178.9640  174.3560  139.6960 Cl  0  0  0  0  0  0  0  0  0  0  0  0
  181.3450  178.1780  137.8460 C   0  0  0  0  0  2  0  0  0  0  0  0
  180.7660  176.9920  137.1570 C   0  0  0  0  0  0  0  0  0  0  0  0
  180.3240  178.1250  140.0820 C   0  0  0  0  0  0  0  0  0  0  0  0
  179.7460  175.8310  139.1680 C   0  0  0  0  0  0  0  0  0  0  0  0
  180.0530  175.9150  137.8660 C   0  0  0  0  0  3  0  0  0  0  0  0
  180.3070  178.8030  138.7480 C   0  0  0  0  0  2  0  0  0  0  0  0
  2  3  1  0  0  0  0
  2  6  1  0  0  0  0
  4  1  2  0  0  0  0
  5  3  1  6  0  0  0
  5  1  1  0  0  0  0
  5 13  1  0  0  0  0
  6 22  1  6  0  0  0
  6  4  1  0  0  0  0
  7  8  1  0  0  0  0
  7  9  1  1  0  0  0
 10 15  2  0  0  0  0
 12 14  1  0  0  0  0
 13 16  1  6  0  0  0
 13  7  1  0  0  0  0
 14 11  1  0  0  0  0
 14  8  2  0  0  0  0
 15 11  1  0  0  0  0
 15 17  1  0  0  0  0
 16 12  2  0  0  0  0
 17 18  1  0  0  0  0
 18 19  1  6  0  0  0
 18 21  1  0  0  0  0
 21 20  1  0  0  0  0
 23 27  2  0  0  0  0
 26 31  1  0  0  0  0
 27 26  1  0  0  0  0
 27 30  1  0  0  0  0
 28 24  2  0  0  0  0
 28 22  1  0  0  0  0
 29 25  1  0  0  0  0
 29 24  1  0  0  0  0
 30 29  2  0  0  0  0
 31 28  1  0  0  0  0
M  END
>  <MODEL>
4

>  <REMARK>
 VINA RESULT:      -7.7      5.244     11.190
  Name = 
  6 active torsions:
  status: ('A' for Active; 'I' for Inactive)
    1  A    between atoms: C_14  and  C_27
    2  A    between atoms: C_18  and  C_20
    3  A    between atoms: C_18  and  C_28
    4  A    between atoms: C_20  and  C_31
    5  A    between atoms: C_23  and  C_24
    6  A    between atoms: C_27  and  C_30
                            x       y       z     vdW  Elec       q    Type
                         _______ _______ _______ _____ _____    ______ ____

>  <TORSDO>
F 6

$$$$
=
 OpenBabel11062414343D

 31 33  0  0  1  0  0  0  0  0999 V2000
  185.9050  178.2210  143.2520 C   0  0  0  0  0  3  0  0  0  0  0  0
  185.3070  178.8340  146.0070 C   0  0  0  0  0  2  0  0  0  0  0  0
  184.3600  179.2860  144.8750 C   0  0  0  0  0  2  0  0  0  0  0  0
  186.7640  177.8700  144.2150 C   0  0  0  0  0  3  0  0  0  0  0  0
  184.4540  178.4270  143.6010 C   0  0  1  0  0  3  0  0  0  0  0  0
  186.2540  177.6860  145.6140 C   0  0  1  0  0  3  0  0  0  0  0  0
  184.2700  178.6760  141.0640 C   0  0  1  0  0  3  0  0  0  0  0  0
  183.3330  178.9810  139.9800 N   0  0  0  0  0  0  0  0  0  0  0  0
  185.5130  179.3910  140.8280 N   0  0  0  0  0  1  0  0  0  0  0  0
  179.1060  178.8790  140.0190 O   0  0  0  0  0  0  0  0  0  0  0  0
  181.2010  179.1580  138.9960 N   0  0  0  0  0  2  0  0  0  0  0  0
  181.4940  178.6100  141.4600 C   0  0  0  0  0  3  0  0  0  0  0  0
  183.6710  179.0550  142.4370 C   0  0  1  0  0  3  0  0  0  0  0  0
  182.0450  178.9150  140.1280 C   0  0  0  0  0  0  0  0  0  0  0  0
  179.7680  179.1300  138.9780 C   0  0  0  0  0  0  0  0  0  0  0  0
  182.2640  178.6400  142.5040 N   0  0  0  0  0  0  0  0  0  0  0  0
  179.0490  179.4350  137.7090 C   0  0  0  0  0  2  0  0  0  0  0  0
  179.5720  180.7220  137.0880 C   0  0  1  0  0  3  0  0  0  0  0  0
  179.0200  180.8990  135.7540 N   0  0  0  0  0  1  0  0  0  0  0  0
  180.3440  182.6030  138.3500 F   0  0  0  0  0  0  0  0  0  0  0  0
  179.2080  181.9140  137.9600 C   0  0  0  0  0  2  0  0  0  0  0  0
  187.4260  177.6030  146.5860 C   0  0  0  0  0  2  0  0  0  0  0  0
  191.9770  177.4250  143.0110 O   0  0  0  0  0  0  0  0  0  0  0  0
  189.7510  176.9640  146.7730 C   0  0  0  0  0  3  0  0  0  0  0  0
  192.0910  175.8770  147.7180 Cl  0  0  0  0  0  0  0  0  0  0  0  0
  189.8850  178.0080  143.9360 C   0  0  0  0  0  2  0  0  0  0  0  0
  191.2350  177.3870  144.0260 C   0  0  0  0  0  0  0  0  0  0  0  0
  188.7260  177.2020  145.9500 C   0  0  0  0  0  0  0  0  0  0  0  0
  191.1380  176.5800  146.4280 C   0  0  0  0  0  0  0  0  0  0  0  0
  191.7570  176.7630  145.2540 C   0  0  0  0  0  3  0  0  0  0  0  0
  188.8450  177.0480  144.4660 C   0  0  0  0  0  2  0  0  0  0  0  0
  1  4  2  0  0  0  0
  3  2  1  0  0  0  0
  4  6  1  0  0  0  0
  5  1  1  6  0  0  0
  5  3  1  0  0  0  0
  6  2  1  0  0  0  0
  6 22  1  1  0  0  0
  7  9  1  6  0  0  0
  7 13  1  0  0  0  0
  8 14  2  0  0  0  0
  8  7  1  0  0  0  0
 11 14  1  0  0  0  0
 12 16  2  0  0  0  0
 13 16  1  6  0  0  0
 13  5  1  0  0  0  0
 14 12  1  0  0  0  0
 15 11  1  0  0  0  0
 15 10  2  0  0  0  0
 17 15  1  0  0  0  0
 18 19  1  6  0  0  0
 18 17  1  0  0  0  0
 18 21  1  0  0  0  0
 21 20  1  0  0  0  0
 23 27  2  0  0  0  0
 26 27  1  0  0  0  0
 26 31  1  0  0  0  0
 27 30  1  0  0  0  0
 28 22  1  0  0  0  0
 28 24  2  0  0  0  0
 29 24  1  0  0  0  0
 29 25  1  0  0  0  0
 30 29  2  0  0  0  0
 31 28  1  0  0  0  0
M  END
>  <MODEL>
5

>  <REMARK>
 VINA RESULT:      -7.6      1.998      2.500
  Name = 
  6 active torsions:
  status: ('A' for Active; 'I' for Inactive)
    1  A    between atoms: C_14  and  C_27
    2  A    between atoms: C_18  and  C_20
    3  A    between atoms: C_18  and  C_28
    4  A    between atoms: C_20  and  C_31
    5  A    between atoms: C_23  and  C_24
    6  A    between atoms: C_27  and  C_30
                            x       y       z     vdW  Elec       q    Type
                         _______ _______ _______ _____ _____    ______ ____

>  <TORSDO>
F 6

$$$$
=
 OpenBabel11062414343D

 31 33  0  0  1  0  0  0  0  0999 V2000
  183.9430  178.6260  144.8820 C   0  0  0  0  0  3  0  0  0  0  0  0
  186.5630  177.4980  144.4520 C   0  0  0  0  0  2  0  0  0  0  0  0
  185.5120  177.5070  143.3200 C   0  0  0  0  0  2  0  0  0  0  0  0
  184.8210  178.5760  145.8890 C   0  0  0  0  0  3  0  0  0  0  0  0
  184.4500  178.6120  143.4640 C   0  0  1  0  0  3  0  0  0  0  0  0
  186.2870  178.5130  145.5740 C   0  0  1  0  0  3  0  0  0  0  0  0
  182.0530  179.2430  142.8430 C   0  0  1  0  0  3  0  0  0  0  0  0
  181.1190  179.3420  141.7180 N   0  0  0  0  0  0  0  0  0  0  0  0
  181.3710  178.6290  143.9690 N   0  0  0  0  0  1  0  0  0  0  0  0
  181.9610  179.5020  137.5770 O   0  0  0  0  0  0  0  0  0  0  0  0
  180.5390  179.5500  139.4450 N   0  0  0  0  0  2  0  0  0  0  0  0
  182.9480  179.2210  140.1840 C   0  0  0  0  0  3  0  0  0  0  0  0
  183.3070  178.4310  142.4520 C   0  0  1  0  0  3  0  0  0  0  0  0
  181.5130  179.3780  140.4820 C   0  0  0  0  0  0  0  0  0  0  0  0
  180.7940  179.6080  138.0360 C   0  0  0  0  0  0  0  0  0  0  0  0
  183.7640  178.8240  141.1120 N   0  0  0  0  0  0  0  0  0  0  0  0
  179.6490  179.7660  137.0950 C   0  0  0  0  0  2  0  0  0  0  0  0
  179.5340  181.2090  136.6230 C   0  0  1  0  0  3  0  0  0  0  0  0
  179.9830  182.1180  137.6650 N   0  0  0  0  0  1  0  0  0  0  0  0
  181.1300  182.5650  135.4640 F   0  0  0  0  0  0  0  0  0  0  0  0
  180.3600  181.4180  135.3630 C   0  0  0  0  0  2  0  0  0  0  0  0
  187.0710  178.1480  146.8300 C   0  0  0  0  0  2  0  0  0  0  0  0
  192.4290  175.9630  147.0600 O   0  0  0  0  0  0  0  0  0  0  0  0
  188.9800  178.0810  145.3450 C   0  0  0  0  0  3  0  0  0  0  0  0
  190.6860  178.6250  143.2610 Cl  0  0  0  0  0  0  0  0  0  0  0  0
  190.1380  176.3140  147.5110 C   0  0  0  0  0  2  0  0  0  0  0  0
  191.3570  176.4970  146.6770 C   0  0  0  0  0  0  0  0  0  0  0  0
  188.5430  177.9490  146.6010 C   0  0  0  0  0  0  0  0  0  0  0  0
  190.3580  177.9190  144.8290 C   0  0  0  0  0  0  0  0  0  0  0  0
  191.3610  177.2450  145.4070 C   0  0  0  0  0  3  0  0  0  0  0  0
  189.4680  177.6490  147.7380 C   0  0  0  0  0  2  0  0  0  0  0  0
  1  4  2  0  0  0  0
  2  6  1  0  0  0  0
  3  2  1  0  0  0  0
  5  3  1  1  0  0  0
  5  1  1  0  0  0  0
  6  4  1  0  0  0  0
  6 22  1  1  0  0  0
  7  9  1  1  0  0  0
  8  7  1  0  0  0  0
 10 15  2  0  0  0  0
 11 14  1  0  0  0  0
 12 14  1  0  0  0  0
 12 16  2  0  0  0  0
 13 16  1  6  0  0  0
 13  7  1  0  0  0  0
 13  5  1  0  0  0  0
 14  8  2  0  0  0  0
 15 11  1  0  0  0  0
 17 15  1  0  0  0  0
 18 17  1  0  0  0  0
 18 19  1  1  0  0  0
 21 20  1  0  0  0  0
 21 18  1  0  0  0  0
 24 28  2  0  0  0  0
 25 29  1  0  0  0  0
 26 31  1  0  0  0  0
 27 23  2  0  0  0  0
 27 26  1  0  0  0  0
 28 22  1  0  0  0  0
 28 31  1  0  0  0  0
 29 24  1  0  0  0  0
 29 30  2  0  0  0  0
 30 27  1  0  0  0  0
M  END
>  <MODEL>
6

>  <REMARK>
 VINA RESULT:      -7.6      1.765      2.322
  Name = 
  6 active torsions:
  status: ('A' for Active; 'I' for Inactive)
    1  A    between atoms: C_14  and  C_27
    2  A    between atoms: C_18  and  C_20
    3  A    between atoms: C_18  and  C_28
    4  A    between atoms: C_20  and  C_31
    5  A    between atoms: C_23  and  C_24
    6  A    between atoms: C_27  and  C_30
                            x       y       z     vdW  Elec       q    Type
                         _______ _______ _______ _____ _____    ______ ____

>  <TORSDO>
F 6

$$$$
=
 OpenBabel11062414343D

 31 33  0  0  1  0  0  0  0  0999 V2000
  184.6860  179.0300  139.6010 C   0  0  0  0  0  3  0  0  0  0  0  0
  182.4020  177.2680  139.5930 C   0  0  0  0  0  2  0  0  0  0  0  0
  183.1780  177.5480  140.8990 C   0  0  0  0  0  2  0  0  0  0  0  0
  184.0600  178.7550  138.4530 C   0  0  0  0  0  3  0  0  0  0  0  0
  183.9360  178.8880  140.8990 C   0  0  1  0  0  3  0  0  0  0  0  0
  182.6250  178.3180  138.4910 C   0  0  1  0  0  3  0  0  0  0  0  0
  184.2180  178.4590  143.4020 C   0  0  1  0  0  3  0  0  0  0  0  0
  185.2200  178.2580  144.4530 N   0  0  0  0  0  0  0  0  0  0  0  0
  183.1960  179.3670  143.8930 N   0  0  0  0  0  1  0  0  0  0  0  0
  189.2880  177.1710  144.0690 O   0  0  0  0  0  0  0  0  0  0  0  0
  187.3450  177.6790  145.2860 N   0  0  0  0  0  2  0  0  0  0  0  0
  186.8850  177.8360  142.7910 C   0  0  0  0  0  3  0  0  0  0  0  0
  184.8700  179.0090  142.1140 C   0  0  1  0  0  3  0  0  0  0  0  0
  186.4480  177.9270  144.1960 C   0  0  0  0  0  0  0  0  0  0  0  0
  188.7260  177.3100  145.1870 C   0  0  0  0  0  0  0  0  0  0  0  0
  186.1290  178.3020  141.8450 N   0  0  0  0  0  0  0  0  0  0  0  0
  189.5200  177.1160  146.4330 C   0  0  0  0  0  2  0  0  0  0  0  0
  190.9550  176.7310  146.1050 C   0  0  1  0  0  3  0  0  0  0  0  0
  191.6770  177.8790  145.5780 N   0  0  0  0  0  1  0  0  0  0  0  0
  192.7750  175.4630  147.0030 F   0  0  0  0  0  0  0  0  0  0  0  0
  191.6570  176.2050  147.3460 C   0  0  0  0  0  2  0  0  0  0  0  0
  182.2160  177.7630  137.1320 C   0  0  0  0  0  2  0  0  0  0  0  0
  185.0900  172.7400  137.3230 O   0  0  0  0  0  0  0  0  0  0  0  0
  181.6170  175.4200  137.0500 C   0  0  0  0  0  3  0  0  0  0  0  0
  180.1910  173.1020  136.6730 Cl  0  0  0  0  0  0  0  0  0  0  0  0
  184.5680  175.0260  137.5930 C   0  0  0  0  0  2  0  0  0  0  0  0
  184.1890  173.6160  137.3030 C   0  0  0  0  0  0  0  0  0  0  0  0
  182.5920  176.3240  136.9160 C   0  0  0  0  0  0  0  0  0  0  0  0
  181.7030  173.9480  136.9210 C   0  0  0  0  0  0  0  0  0  0  0  0
  182.8050  173.1930  137.0270 C   0  0  0  0  0  3  0  0  0  0  0  0
  183.9880  175.9390  136.5380 C   0  0  0  0  0  2  0  0  0  0  0  0
  2  3  1  0  0  0  0
  3  5  1  0  0  0  0
  4  6  1  0  0  0  0
  4  1  2  0  0  0  0
  5  1  1  6  0  0  0
  5 13  1  0  0  0  0
  6 22  1  6  0  0  0
  6  2  1  0  0  0  0
  7  9  1  1  0  0  0
  7  8  1  0  0  0  0
 10 15  2  0  0  0  0
 12 14  1  0  0  0  0
 13 16  1  6  0  0  0
 13  7  1  0  0  0  0
 14  8  2  0  0  0  0
 14 11  1  0  0  0  0
 15 11  1  0  0  0  0
 15 17  1  0  0  0  0
 16 12  2  0  0  0  0
 18 19  1  1  0  0  0
 18 17  1  0  0  0  0
 18 21  1  0  0  0  0
 20 21  1  0  0  0  0
 25 29  1  0  0  0  0
 27 23  2  0  0  0  0
 27 26  1  0  0  0  0
 28 24  2  0  0  0  0
 28 22  1  0  0  0  0
 29 30  2  0  0  0  0
 29 24  1  0  0  0  0
 30 27  1  0  0  0  0
 31 28  1  0  0  0  0
 31 26  1  0  0  0  0
M  END
>  <MODEL>
7

>  <REMARK>
 VINA RESULT:      -7.5      5.337     10.478
  Name = 
  6 active torsions:
  status: ('A' for Active; 'I' for Inactive)
    1  A    between atoms: C_14  and  C_27
    2  A    between atoms: C_18  and  C_20
    3  A    between atoms: C_18  and  C_28
    4  A    between atoms: C_20  and  C_31
    5  A    between atoms: C_23  and  C_24
    6  A    between atoms: C_27  and  C_30
                            x       y       z     vdW  Elec       q    Type
                         _______ _______ _______ _____ _____    ______ ____

>  <TORSDO>
F 6

$$$$
=
 OpenBabel11062414343D

 31 33  0  0  1  0  0  0  0  0999 V2000
  182.8680  178.7340  141.7930 C   0  0  0  0  0  3  0  0  0  0  0  0
  180.6480  178.5570  143.6260 C   0  0  0  0  0  2  0  0  0  0  0  0
  182.0990  178.6290  144.1490 C   0  0  0  0  0  2  0  0  0  0  0  0
  181.6220  178.6170  141.3220 C   0  0  0  0  0  3  0  0  0  0  0  0
  183.0820  179.2990  143.1720 C   0  0  1  0  0  3  0  0  0  0  0  0
  180.4740  179.0580  142.1810 C   0  0  1  0  0  3  0  0  0  0  0  0
  184.6480  178.2690  144.9090 C   0  0  1  0  0  3  0  0  0  0  0  0
  186.0300  177.8380  145.1340 N   0  0  0  0  0  0  0  0  0  0  0  0
  184.1870  179.0020  146.0750 N   0  0  0  0  0  1  0  0  0  0  0  0
  189.0370  176.9760  142.2890 O   0  0  0  0  0  0  0  0  0  0  0  0
  188.1710  177.1200  144.4670 N   0  0  0  0  0  2  0  0  0  0  0  0
  186.4310  177.8800  142.7780 C   0  0  0  0  0  3  0  0  0  0  0  0
  184.5380  179.1360  143.6360 C   0  0  1  0  0  3  0  0  0  0  0  0
  186.8590  177.6100  144.1620 C   0  0  0  0  0  0  0  0  0  0  0  0
  189.2100  176.8200  143.5260 C   0  0  0  0  0  0  0  0  0  0  0  0
  185.3410  178.5490  142.5550 N   0  0  0  0  0  0  0  0  0  0  0  0
  190.5300  176.3410  144.0260 C   0  0  0  0  0  2  0  0  0  0  0  0
  191.0280  177.2210  145.1630 C   0  0  1  0  0  3  0  0  0  0  0  0
  191.9570  176.4830  146.0040 N   0  0  0  0  0  1  0  0  0  0  0  0
  192.0530  178.2840  143.2790 F   0  0  0  0  0  0  0  0  0  0  0  0
  191.7080  178.4630  144.6080 C   0  0  0  0  0  2  0  0  0  0  0  0
  179.1620  178.5510  141.5940 C   0  0  0  0  0  2  0  0  0  0  0  0
  180.8240  174.9360  137.3870 O   0  0  0  0  0  0  0  0  0  0  0  0
  179.4540  176.1590  141.3800 C   0  0  0  0  0  3  0  0  0  0  0  0
  179.3200  173.4590  141.8720 Cl  0  0  0  0  0  0  0  0  0  0  0  0
  180.5410  176.9060  138.6570 C   0  0  0  0  0  2  0  0  0  0  0  0
  180.4810  175.4270  138.4920 C   0  0  0  0  0  0  0  0  0  0  0  0
  179.3030  177.3220  140.7410 C   0  0  0  0  0  0  0  0  0  0  0  0
  179.6380  174.8080  140.8030 C   0  0  0  0  0  0  0  0  0  0  0  0
  180.0720  174.5100  139.5710 C   0  0  0  0  0  3  0  0  0  0  0  0
  179.2440  177.4070  139.2480 C   0  0  0  0  0  2  0  0  0  0  0  0
  2  3  1  0  0  0  0
  4  1  2  0  0  0  0
  4  6  1  0  0  0  0
  5  1  1  6  0  0  0
  5 13  1  0  0  0  0
  5  3  1  0  0  0  0
  6 22  1  6  0  0  0
  6  2  1  0  0  0  0
  7  8  1  0  0  0  0
  7  9  1  1  0  0  0
 10 15  2  0  0  0  0
 12 14  1  0  0  0  0
 13 16  1  6  0  0  0
 13  7  1  0  0  0  0
 14 11  1  0  0  0  0
 14  8  2  0  0  0  0
 15 17  1  0  0  0  0
 15 11  1  0  0  0  0
 16 12  2  0  0  0  0
 17 18  1  0  0  0  0
 18 19  1  6  0  0  0
 20 21  1  0  0  0  0
 21 18  1  0  0  0  0
 23 27  2  0  0  0  0
 26 31  1  0  0  0  0
 27 26  1  0  0  0  0
 27 30  1  0  0  0  0
 28 24  2  0  0  0  0
 28 22  1  0  0  0  0
 29 24  1  0  0  0  0
 29 25  1  0  0  0  0
 30 29  2  0  0  0  0
 31 28  1  0  0  0  0
M  END
>  <MODEL>
8

>  <REMARK>
 VINA RESULT:      -7.5      4.685     10.269
  Name = 
  6 active torsions:
  status: ('A' for Active; 'I' for Inactive)
    1  A    between atoms: C_14  and  C_27
    2  A    between atoms: C_18  and  C_20
    3  A    between atoms: C_18  and  C_28
    4  A    between atoms: C_20  and  C_31
    5  A    between atoms: C_23  and  C_24
    6  A    between atoms: C_27  and  C_30
                            x       y       z     vdW  Elec       q    Type
                         _______ _______ _______ _____ _____    ______ ____

>  <TORSDO>
F 6

$$$$
=
 OpenBabel11062414343D

 31 33  0  0  1  0  0  0  0  0999 V2000
  192.3320  176.1890  138.3870 C   0  0  0  0  0  3  0  0  0  0  0  0
  190.5970  174.7160  136.6150 C   0  0  0  0  0  2  0  0  0  0  0  0
  190.0130  175.5720  137.7590 C   0  0  0  0  0  2  0  0  0  0  0  0
  192.8570  175.4100  137.4360 C   0  0  0  0  0  3  0  0  0  0  0  0
  190.9330  176.7190  138.2140 C   0  0  1  0  0  3  0  0  0  0  0  0
  192.0370  175.0910  136.2210 C   0  0  1  0  0  3  0  0  0  0  0  0
  188.9390  177.8300  139.3620 C   0  0  1  0  0  3  0  0  0  0  0  0
  188.3610  178.1360  140.6740 N   0  0  0  0  0  0  0  0  0  0  0  0
  188.8280  179.0030  138.5130 N   0  0  0  0  0  1  0  0  0  0  0  0
  189.2230  176.3890  144.4270 O   0  0  0  0  0  0  0  0  0  0  0  0
  188.0540  177.8320  142.9880 N   0  0  0  0  0  2  0  0  0  0  0  0
  189.8200  176.5410  141.6940 C   0  0  0  0  0  3  0  0  0  0  0  0
  190.4130  177.3870  139.4970 C   0  0  1  0  0  3  0  0  0  0  0  0
  188.7220  177.5220  141.7590 C   0  0  0  0  0  0  0  0  0  0  0  0
  188.3240  177.2570  144.2730 C   0  0  0  0  0  0  0  0  0  0  0  0
  190.5610  176.4650  140.6310 N   0  0  0  0  0  0  0  0  0  0  0  0
  187.5430  177.7190  145.4560 C   0  0  0  0  0  2  0  0  0  0  0  0
  188.2530  177.3460  146.7500 C   0  0  1  0  0  3  0  0  0  0  0  0
  189.6070  177.8780  146.7540 N   0  0  0  0  0  1  0  0  0  0  0  0
  188.3020  177.9660  149.0610 F   0  0  0  0  0  0  0  0  0  0  0  0
  187.4840  177.8820  147.9470 C   0  0  0  0  0  2  0  0  0  0  0  0
  192.6890  173.9570  135.4380 C   0  0  0  0  0  2  0  0  0  0  0  0
  198.2180  175.6200  135.8730 O   0  0  0  0  0  0  0  0  0  0  0  0
  194.7080  173.0260  136.3900 C   0  0  0  0  0  3  0  0  0  0  0  0
  196.5080  171.2520  137.4700 Cl  0  0  0  0  0  0  0  0  0  0  0  0
  195.8740  175.7060  135.6090 C   0  0  0  0  0  2  0  0  0  0  0  0
  197.1290  175.0030  135.9910 C   0  0  0  0  0  0  0  0  0  0  0  0
  194.1870  173.9180  135.5440 C   0  0  0  0  0  0  0  0  0  0  0  0
  196.1330  172.7850  136.7120 C   0  0  0  0  0  0  0  0  0  0  0  0
  197.1540  173.6330  136.5340 C   0  0  0  0  0  3  0  0  0  0  0  0
  195.0440  174.8200  134.7110 C   0  0  0  0  0  2  0  0  0  0  0  0
  2  3  1  0  0  0  0
  4  1  2  0  0  0  0
  5  3  1  1  0  0  0
  5  1  1  0  0  0  0
  5 13  1  0  0  0  0
  6 22  1  1  0  0  0
  6  2  1  0  0  0  0
  6  4  1  0  0  0  0
  7  9  1  6  0  0  0
  7 13  1  0  0  0  0
  7  8  1  0  0  0  0
  8 14  2  0  0  0  0
 11 15  1  0  0  0  0
 12 14  1  0  0  0  0
 13 16  1  1  0  0  0
 14 11  1  0  0  0  0
 15 10  2  0  0  0  0
 15 17  1  0  0  0  0
 16 12  2  0  0  0  0
 17 18  1  0  0  0  0
 18 19  1  6  0  0  0
 18 21  1  0  0  0  0
 21 20  1  0  0  0  0
 22 28  1  0  0  0  0
 23 27  2  0  0  0  0
 24 29  1  0  0  0  0
 26 27  1  0  0  0  0
 27 30  1  0  0  0  0
 28 24  2  0  0  0  0
 29 25  1  0  0  0  0
 30 29  2  0  0  0  0
 31 28  1  0  0  0  0
 31 26  1  0  0  0  0
M  END
>  <MODEL>
9

>  <REMARK>
 VINA RESULT:      -7.4      8.333     10.951
  Name = 
  6 active torsions:
  status: ('A' for Active; 'I' for Inactive)
    1  A    between atoms: C_14  and  C_27
    2  A    between atoms: C_18  and  C_20
    3  A    between atoms: C_18  and  C_28
    4  A    between atoms: C_20  and  C_31
    5  A    between atoms: C_23  and  C_24
    6  A    between atoms: C_27  and  C_30
                            x       y       z     vdW  Elec       q    Type
                         _______ _______ _______ _____ _____    ______ ____

>  <TORSDO>
F 6

$$$$
