=
 OpenBabel11062414113D

 32 33  0  0  1  0  0  0  0  0999 V2000
  189.8260  178.0830  142.4540 C   0  0  1  0  0  3  0  0  0  0  0  0
  188.7890  177.0670  142.0470 C   0  0  0  0  0  0  0  0  0  0  0  0
  186.8900  177.3470  144.4910 C   0  0  1  0  0  3  0  0  0  0  0  0
  189.4230  177.6630  144.7890 C   0  0  2  0  0  3  0  0  0  0  0  0
  189.3650  178.7370  143.7650 C   0  0  1  0  0  3  0  0  0  0  0  0
  188.2300  176.2220  143.0190 O   0  0  0  0  0  0  0  0  0  0  0  0
  188.4090  176.9810  140.8160 N   0  0  0  0  0  2  0  0  0  0  0  0
  186.9620  176.3630  143.4580 O   0  0  0  0  0  0  0  0  0  0  0  0
  188.0650  177.6970  145.4620 C   0  0  2  0  0  3  0  0  0  0  0  0
  190.2390  178.8070  144.8680 O   0  0  0  0  0  0  0  0  0  0  0  0
  192.4620  178.4130  142.9930 O   0  0  0  0  0  0  0  0  0  0  0  0
  191.4920  177.4080  142.4370 S   0  0  0  0  0  0  0  0  0  0  0  0
  191.5410  176.1680  143.2850 O   0  0  0  0  0  0  0  0  0  0  0  0
  191.6180  175.8460  138.3700 O   0  0  0  0  0  0  0  0  0  0  0  0
  192.7550  176.3040  138.0720 C   0  0  0  0  0  0  0  0  0  0  0  0
  193.5070  177.0740  139.0180 N   0  0  0  0  0  2  0  0  0  0  0  0
  193.0960  177.3950  140.3520 C   0  0  0  0  0  3  0  0  0  0  0  0
  191.9530  177.0130  140.8200 N   0  0  0  0  0  0  0  0  0  0  0  0
  192.2780  176.1810  135.7740 F   0  0  0  0  0  0  0  0  0  0  0  0
  193.2990  176.0720  136.6980 C   0  0  0  0  0  0  0  0  0  0  0  0
  193.8490  174.8050  136.6220 F   0  0  0  0  0  0  0  0  0  0  0  0
  194.2790  177.0040  136.4030 F   0  0  0  0  0  0  0  0  0  0  0  0
  185.8610  178.4470  144.2510 C   0  0  0  0  0  2  0  0  0  0  0  0
  185.2390  178.3670  142.8660 C   0  0  2  0  0  3  0  0  0  0  0  0
  185.2220  179.4750  140.7250 O   0  0  0  0  0  1  0  0  0  0  0  0
  185.9320  179.3450  141.9210 C   0  0  0  0  0  2  0  0  0  0  0  0
  183.2490  179.0130  144.6440 S   0  0  0  0  0  1  0  0  0  0  0  0
  183.7430  178.6340  142.9370 C   0  0  0  0  0  2  0  0  0  0  0  0
  188.0580  176.8030  146.5480 O   0  0  0  0  0  0  0  0  0  0  0  0
  189.1680  178.1050  148.3110 C   0  0  0  0  0  1  0  0  0  0  0  0
  186.7670  178.5650  147.6700 C   0  0  0  0  0  1  0  0  0  0  0  0
  187.8750  177.5240  147.7510 C   0  0  0  0  0  3  0  0  0  0  0  0
  1 12  1  1  0  0  0
  1  5  1  0  0  0  0
  2  1  1  0  0  0  0
  2  6  1  0  0  0  0
  3 23  1  6  0  0  0
  3  9  1  0  0  0  0
  4 10  1  1  0  0  0
  4  9  1  0  0  0  0
  5  4  1  0  0  0  0
  5 10  1  1  0  0  0
  6  8  1  0  0  0  0
  7  2  2  0  0  0  0
  8  3  1  0  0  0  0
  9 29  1  1  0  0  0
 12 11  2  0  0  0  0
 12 13  2  0  0  0  0
 15 14  2  0  0  0  0
 15 16  1  0  0  0  0
 16 17  1  0  0  0  0
 17 18  2  0  0  0  0
 18 12  1  0  0  0  0
 19 20  1  0  0  0  0
 20 15  1  0  0  0  0
 21 20  1  0  0  0  0
 22 20  1  0  0  0  0
 24 26  1  6  0  0  0
 24 28  1  0  0  0  0
 24 23  1  0  0  0  0
 25 26  1  0  0  0  0
 28 27  1  0  0  0  0
 29 32  1  0  0  0  0
 31 32  1  0  0  0  0
 32 30  1  0  0  0  0
M  END
>  <MODEL>
1

>  <REMARK>
 VINA RESULT:      -6.7      0.000      0.000
  Name = 
  9 active torsions:
  status: ('A' for Active; 'I' for Inactive)
    1  A    between atoms: C_1  and  S_3
    2  A    between atoms: S_3  and  N_31
    3  A    between atoms: C_8  and  C_16
    4  A    between atoms: C_9  and  C_21
    5  A    between atoms: C_13  and  C_20
    6  A    between atoms: C_15  and  O_27
    7  A    between atoms: C_16  and  C_21
    8  A    between atoms: C_16  and  C_30
    9  A    between atoms: C_24  and  O_27
                            x       y       z     vdW  Elec       q    Type
                         _______ _______ _______ _____ _____    ______ ____

>  <TORSDO>
F 9

$$$$
=
 OpenBabel11062414113D

 32 33  0  0  1  0  0  0  0  0999 V2000
  189.8310  176.7030  142.0770 C   0  0  1  0  0  3  0  0  0  0  0  0
  190.7500  177.5660  142.9050 C   0  0  0  0  0  0  0  0  0  0  0  0
  189.0120  177.7540  145.4750 C   0  0  1  0  0  3  0  0  0  0  0  0
  187.8860  177.6060  143.1690 C   0  0  2  0  0  3  0  0  0  0  0  0
  188.6170  176.3330  142.9420 C   0  0  1  0  0  3  0  0  0  0  0  0
  190.2080  178.5810  143.7090 O   0  0  0  0  0  0  0  0  0  0  0  0
  192.0250  177.3670  142.8830 N   0  0  0  0  0  2  0  0  0  0  0  0
  190.1620  178.4910  145.0540 O   0  0  0  0  0  0  0  0  0  0  0  0
  187.6750  177.6690  144.6690 C   0  0  2  0  0  3  0  0  0  0  0  0
  187.3110  176.5390  142.4550 O   0  0  0  0  0  0  0  0  0  0  0  0
  188.2000  176.8550  139.9190 O   0  0  0  0  0  0  0  0  0  0  0  0
  189.4800  177.4200  140.4670 S   0  0  0  0  0  0  0  0  0  0  0  0
  189.3340  178.9100  140.6020 O   0  0  0  0  0  0  0  0  0  0  0  0
  193.3910  176.8220  138.6370 O   0  0  0  0  0  0  0  0  0  0  0  0
  192.9700  176.5080  137.4900 C   0  0  0  0  0  0  0  0  0  0  0  0
  191.5640  176.4520  137.2150 N   0  0  0  0  0  2  0  0  0  0  0  0
  190.5150  176.7400  138.1470 C   0  0  0  0  0  3  0  0  0  0  0  0
  190.7680  177.0700  139.3710 N   0  0  0  0  0  0  0  0  0  0  0  0
  194.9270  175.3250  136.9520 F   0  0  0  0  0  0  0  0  0  0  0  0
  193.9540  176.1510  136.4220 C   0  0  0  0  0  0  0  0  0  0  0  0
  194.5490  177.3000  135.9330 F   0  0  0  0  0  0  0  0  0  0  0  0
  193.3210  175.4970  135.3810 F   0  0  0  0  0  0  0  0  0  0  0  0
  189.3110  176.5900  146.4140 C   0  0  0  0  0  2  0  0  0  0  0  0
  189.7480  177.0560  147.7950 C   0  0  2  0  0  3  0  0  0  0  0  0
  187.9210  178.0500  149.0130 O   0  0  0  0  0  1  0  0  0  0  0  0
  189.0060  178.3320  148.1780 C   0  0  0  0  0  2  0  0  0  0  0  0
  192.1110  175.7440  147.3080 S   0  0  0  0  0  1  0  0  0  0  0  0
  191.2540  177.2580  147.8380 C   0  0  0  0  0  2  0  0  0  0  0  0
  186.8670  178.7770  144.9830 O   0  0  0  0  0  0  0  0  0  0  0  0
  185.2020  178.4470  146.7580 C   0  0  0  0  0  1  0  0  0  0  0  0
  184.4920  178.9570  144.3860 C   0  0  0  0  0  1  0  0  0  0  0  0
  185.5570  178.3360  145.2800 C   0  0  0  0  0  3  0  0  0  0  0  0
  1 12  1  6  0  0  0
  1  2  1  0  0  0  0
  1  5  1  0  0  0  0
  2  6  1  0  0  0  0
  3 23  1  6  0  0  0
  4 10  1  6  0  0  0
  4  9  1  0  0  0  0
  5 10  1  6  0  0  0
  5  4  1  0  0  0  0
  6  8  1  0  0  0  0
  7  2  2  0  0  0  0
  8  3  1  0  0  0  0
  9 29  1  6  0  0  0
  9  3  1  0  0  0  0
 11 12  2  0  0  0  0
 12 13  2  0  0  0  0
 15 14  2  0  0  0  0
 16 15  1  0  0  0  0
 16 17  1  0  0  0  0
 17 18  2  0  0  0  0
 18 12  1  0  0  0  0
 20 19  1  0  0  0  0
 20 15  1  0  0  0  0
 21 20  1  0  0  0  0
 22 20  1  0  0  0  0
 24 23  1  6  0  0  0
 24 28  1  0  0  0  0
 24 26  1  0  0  0  0
 26 25  1  0  0  0  0
 27 28  1  0  0  0  0
 29 32  1  0  0  0  0
 31 32  1  0  0  0  0
 32 30  1  0  0  0  0
M  END
>  <MODEL>
2

>  <REMARK>
 VINA RESULT:      -6.3      2.319      4.411
  Name = 
  9 active torsions:
  status: ('A' for Active; 'I' for Inactive)
    1  A    between atoms: C_1  and  S_3
    2  A    between atoms: S_3  and  N_31
    3  A    between atoms: C_8  and  C_16
    4  A    between atoms: C_9  and  C_21
    5  A    between atoms: C_13  and  C_20
    6  A    between atoms: C_15  and  O_27
    7  A    between atoms: C_16  and  C_21
    8  A    between atoms: C_16  and  C_30
    9  A    between atoms: C_24  and  O_27
                            x       y       z     vdW  Elec       q    Type
                         _______ _______ _______ _____ _____    ______ ____

>  <TORSDO>
F 9

$$$$
=
 OpenBabel11062414113D

 32 33  0  0  1  0  0  0  0  0999 V2000
  190.2720  177.1790  137.5680 C   0  0  1  0  0  3  0  0  0  0  0  0
  190.7580  175.9630  138.3150 C   0  0  0  0  0  0  0  0  0  0  0  0
  190.8320  173.9630  135.9370 C   0  0  1  0  0  3  0  0  0  0  0  0
  189.0520  175.8170  136.0040 C   0  0  2  0  0  3  0  0  0  0  0  0
  190.1530  176.8100  136.0820 C   0  0  1  0  0  3  0  0  0  0  0  0
  190.2180  174.7030  138.0120 O   0  0  0  0  0  0  0  0  0  0  0  0
  191.6720  176.0770  139.2200 N   0  0  0  0  0  2  0  0  0  0  0  0
  190.9150  173.7570  137.3490 O   0  0  0  0  0  0  0  0  0  0  0  0
  189.6320  174.6590  135.2150 C   0  0  2  0  0  3  0  0  0  0  0  0
  188.9610  177.0740  135.3790 O   0  0  0  0  0  0  0  0  0  0  0  0
  188.6620  179.3390  137.8660 O   0  0  0  0  0  0  0  0  0  0  0  0
  188.8210  177.9180  138.3290 S   0  0  0  0  0  0  0  0  0  0  0  0
  187.5960  177.1410  137.9360 O   0  0  0  0  0  0  0  0  0  0  0  0
  190.3160  177.5040  142.4030 O   0  0  0  0  0  0  0  0  0  0  0  0
  189.2460  177.8270  142.9850 C   0  0  0  0  0  0  0  0  0  0  0  0
  188.0770  178.1790  142.2330 N   0  0  0  0  0  2  0  0  0  0  0  0
  187.9740  178.1950  140.8040 C   0  0  0  0  0  3  0  0  0  0  0  0
  188.9810  177.8980  140.0490 N   0  0  0  0  0  0  0  0  0  0  0  0
  190.0780  178.8700  144.9200 F   0  0  0  0  0  0  0  0  0  0  0  0
  189.2150  177.8840  144.4800 C   0  0  0  0  0  0  0  0  0  0  0  0
  189.6110  176.6660  145.0010 F   0  0  0  0  0  0  0  0  0  0  0  0
  187.9370  178.1680  144.9270 F   0  0  0  0  0  0  0  0  0  0  0  0
  192.1780  174.0240  135.2240 C   0  0  0  0  0  2  0  0  0  0  0  0
  193.2870  174.5530  136.1200 C   0  0  2  0  0  3  0  0  0  0  0  0
  194.0670  176.7340  136.7890 O   0  0  0  0  0  1  0  0  0  0  0  0
  193.6840  175.9620  135.6890 C   0  0  0  0  0  2  0  0  0  0  0  0
  194.9420  173.1430  137.7970 S   0  0  0  0  0  1  0  0  0  0  0  0
  194.4820  173.6130  136.1020 C   0  0  0  0  0  2  0  0  0  0  0  0
  188.6230  173.7110  134.9640 O   0  0  0  0  0  0  0  0  0  0  0  0
  186.2400  174.1650  135.3470 C   0  0  0  0  0  1  0  0  0  0  0  0
  187.5450  172.6610  136.9040 C   0  0  0  0  0  1  0  0  0  0  0  0
  187.6050  173.8360  135.9380 C   0  0  0  0  0  3  0  0  0  0  0  0
  1  2  1  0  0  0  0
  1 12  1  1  0  0  0
  2  7  2  0  0  0  0
  3 23  1  1  0  0  0
  3  8  1  0  0  0  0
  4 10  1  6  0  0  0
  4  5  1  0  0  0  0
  5 10  1  6  0  0  0
  5  1  1  0  0  0  0
  6  2  1  0  0  0  0
  8  6  1  0  0  0  0
  9 29  1  1  0  0  0
  9  3  1  0  0  0  0
  9  4  1  0  0  0  0
 11 12  2  0  0  0  0
 12 18  1  0  0  0  0
 13 12  2  0  0  0  0
 14 15  2  0  0  0  0
 15 20  1  0  0  0  0
 16 15  1  0  0  0  0
 17 16  1  0  0  0  0
 18 17  2  0  0  0  0
 20 19  1  0  0  0  0
 20 22  1  0  0  0  0
 20 21  1  0  0  0  0
 24 23  1  6  0  0  0
 26 24  1  0  0  0  0
 26 25  1  0  0  0  0
 28 24  1  0  0  0  0
 28 27  1  0  0  0  0
 29 32  1  0  0  0  0
 30 32  1  0  0  0  0
 32 31  1  0  0  0  0
M  END
>  <MODEL>
3

>  <REMARK>
 VINA RESULT:      -6.0      4.697      9.285
  Name = 
  9 active torsions:
  status: ('A' for Active; 'I' for Inactive)
    1  A    between atoms: C_1  and  S_3
    2  A    between atoms: S_3  and  N_31
    3  A    between atoms: C_8  and  C_16
    4  A    between atoms: C_9  and  C_21
    5  A    between atoms: C_13  and  C_20
    6  A    between atoms: C_15  and  O_27
    7  A    between atoms: C_16  and  C_21
    8  A    between atoms: C_16  and  C_30
    9  A    between atoms: C_24  and  O_27
                            x       y       z     vdW  Elec       q    Type
                         _______ _______ _______ _____ _____    ______ ____

>  <TORSDO>
F 9

$$$$
=
 OpenBabel11062414113D

 32 33  0  0  1  0  0  0  0  0999 V2000
  185.0330  178.1830  144.6600 C   0  0  1  0  0  3  0  0  0  0  0  0
  184.6670  179.3980  143.8440 C   0  0  0  0  0  0  0  0  0  0  0  0
  186.3260  178.7560  141.2960 C   0  0  1  0  0  3  0  0  0  0  0  0
  187.1930  178.0420  143.6080 C   0  0  2  0  0  3  0  0  0  0  0  0
  185.9300  177.2830  143.7980 C   0  0  1  0  0  3  0  0  0  0  0  0
  185.6500  180.0320  143.0700 O   0  0  0  0  0  0  0  0  0  0  0  0
  183.4560  179.8450  143.8500 N   0  0  0  0  0  2  0  0  0  0  0  0
  185.6730  179.9540  141.7230 O   0  0  0  0  0  0  0  0  0  0  0  0
  187.4370  178.0180  142.1120 C   0  0  2  0  0  3  0  0  0  0  0  0
  187.1610  176.8180  144.3020 O   0  0  0  0  0  0  0  0  0  0  0  0
  185.6810  180.1060  146.4560 O   0  0  0  0  0  0  0  0  0  0  0  0
  185.6560  178.6120  146.2900 S   0  0  0  0  0  0  0  0  0  0  0  0
  184.7610  178.0230  147.3430 O   0  0  0  0  0  0  0  0  0  0  0  0
  189.7380  177.2300  145.6310 O   0  0  0  0  0  0  0  0  0  0  0  0
  189.9770  176.9060  146.8250 C   0  0  0  0  0  0  0  0  0  0  0  0
  188.9860  177.0800  147.8470 N   0  0  0  0  0  2  0  0  0  0  0  0
  187.6670  177.6040  147.6530 C   0  0  0  0  0  3  0  0  0  0  0  0
  187.2570  177.9950  146.4910 N   0  0  0  0  0  0  0  0  0  0  0  0
  191.9170  177.2000  148.1180 F   0  0  0  0  0  0  0  0  0  0  0  0
  191.3290  176.3720  147.1810 C   0  0  0  0  0  0  0  0  0  0  0  0
  192.1240  176.3250  146.0500 F   0  0  0  0  0  0  0  0  0  0  0  0
  191.2220  175.0970  147.7070 F   0  0  0  0  0  0  0  0  0  0  0  0
  185.5180  177.9010  140.3270 C   0  0  0  0  0  2  0  0  0  0  0  0
  185.2120  178.6280  139.0270 C   0  0  2  0  0  3  0  0  0  0  0  0
  183.6990  180.5040  139.0930 O   0  0  0  0  0  1  0  0  0  0  0  0
  183.7640  179.1100  139.0210 C   0  0  0  0  0  2  0  0  0  0  0  0
  187.0930  178.1770  137.0780 S   0  0  0  0  0  1  0  0  0  0  0  0
  185.5010  177.7310  137.8330 C   0  0  0  0  0  2  0  0  0  0  0  0
  188.6880  178.5970  141.8320 O   0  0  0  0  0  0  0  0  0  0  0  0
  189.8730  177.6770  139.8870 C   0  0  0  0  0  1  0  0  0  0  0  0
  190.8540  177.5020  142.2100 C   0  0  0  0  0  1  0  0  0  0  0  0
  189.5800  177.5970  141.3800 C   0  0  0  0  0  3  0  0  0  0  0  0
  1 12  1  1  0  0  0
  2  7  2  0  0  0  0
  2  1  1  0  0  0  0
  3 23  1  1  0  0  0
  3  8  1  0  0  0  0
  3  9  1  0  0  0  0
  4  5  1  0  0  0  0
  4 10  1  1  0  0  0
  5 10  1  1  0  0  0
  5  1  1  0  0  0  0
  6  2  1  0  0  0  0
  8  6  1  0  0  0  0
  9 29  1  1  0  0  0
  9  4  1  0  0  0  0
 12 11  2  0  0  0  0
 12 18  1  0  0  0  0
 12 13  2  0  0  0  0
 14 15  2  0  0  0  0
 15 20  1  0  0  0  0
 15 16  1  0  0  0  0
 17 16  1  0  0  0  0
 18 17  2  0  0  0  0
 20 22  1  0  0  0  0
 20 19  1  0  0  0  0
 21 20  1  0  0  0  0
 24 28  1  6  0  0  0
 24 23  1  0  0  0  0
 26 24  1  0  0  0  0
 26 25  1  0  0  0  0
 27 28  1  0  0  0  0
 30 32  1  0  0  0  0
 32 29  1  0  0  0  0
 32 31  1  0  0  0  0
M  END
>  <MODEL>
4

>  <REMARK>
 VINA RESULT:      -6.0      4.622      7.054
  Name = 
  9 active torsions:
  status: ('A' for Active; 'I' for Inactive)
    1  A    between atoms: C_1  and  S_3
    2  A    between atoms: S_3  and  N_31
    3  A    between atoms: C_8  and  C_16
    4  A    between atoms: C_9  and  C_21
    5  A    between atoms: C_13  and  C_20
    6  A    between atoms: C_15  and  O_27
    7  A    between atoms: C_16  and  C_21
    8  A    between atoms: C_16  and  C_30
    9  A    between atoms: C_24  and  O_27
                            x       y       z     vdW  Elec       q    Type
                         _______ _______ _______ _____ _____    ______ ____

>  <TORSDO>
F 9

$$$$
=
 OpenBabel11062414113D

 32 33  0  0  1  0  0  0  0  0999 V2000
  190.0550  176.5140  142.3080 C   0  0  1  0  0  3  0  0  0  0  0  0
  190.8780  177.4260  143.1830 C   0  0  0  0  0  0  0  0  0  0  0  0
  188.8820  177.7200  145.5460 C   0  0  1  0  0  3  0  0  0  0  0  0
  188.0030  177.4500  143.1460 C   0  0  2  0  0  3  0  0  0  0  0  0
  188.7590  176.1750  143.0590 C   0  0  1  0  0  3  0  0  0  0  0  0
  190.2510  178.4720  143.8760 O   0  0  0  0  0  0  0  0  0  0  0  0
  192.1500  177.2380  143.3020 N   0  0  0  0  0  2  0  0  0  0  0  0
  190.0660  178.4480  145.2120 O   0  0  0  0  0  0  0  0  0  0  0  0
  187.6360  177.5820  144.6120 C   0  0  2  0  0  3  0  0  0  0  0  0
  187.5100  176.3440  142.4300 O   0  0  0  0  0  0  0  0  0  0  0  0
  190.8400  178.2730  140.4010 O   0  0  0  0  0  0  0  0  0  0  0  0
  189.8700  177.1490  140.6370 S   0  0  0  0  0  0  0  0  0  0  0  0
  190.1500  176.0520  139.6480 O   0  0  0  0  0  0  0  0  0  0  0  0
  185.7880  178.5620  141.2220 O   0  0  0  0  0  0  0  0  0  0  0  0
  185.5010  178.6920  140.0010 C   0  0  0  0  0  0  0  0  0  0  0  0
  186.4650  178.3880  138.9840 N   0  0  0  0  0  2  0  0  0  0  0  0
  187.7980  177.9130  139.2080 C   0  0  0  0  0  3  0  0  0  0  0  0
  188.2610  177.7320  140.4010 N   0  0  0  0  0  0  0  0  0  0  0  0
  183.3920  179.3990  140.7560 F   0  0  0  0  0  0  0  0  0  0  0  0
  184.1510  179.2090  139.6180 C   0  0  0  0  0  0  0  0  0  0  0  0
  183.5180  178.2960  138.7940 F   0  0  0  0  0  0  0  0  0  0  0  0
  184.2680  180.4130  138.9450 F   0  0  0  0  0  0  0  0  0  0  0  0
  189.0870  176.6060  146.5670 C   0  0  0  0  0  2  0  0  0  0  0  0
  189.7060  177.1120  147.8620 C   0  0  2  0  0  3  0  0  0  0  0  0
  187.8770  178.0800  149.0980 O   0  0  0  0  0  1  0  0  0  0  0  0
  188.9980  178.3830  148.3210 C   0  0  0  0  0  2  0  0  0  0  0  0
  192.0130  175.8160  147.1280 S   0  0  0  0  0  1  0  0  0  0  0  0
  191.1990  177.3430  147.6850 C   0  0  0  0  0  2  0  0  0  0  0  0
  186.7950  178.6960  144.7850 O   0  0  0  0  0  0  0  0  0  0  0  0
  185.3190  178.4730  146.7360 C   0  0  0  0  0  1  0  0  0  0  0  0
  184.3690  178.8120  144.4180 C   0  0  0  0  0  1  0  0  0  0  0  0
  185.5280  178.2640  145.2410 C   0  0  0  0  0  3  0  0  0  0  0  0
  1 12  1  6  0  0  0
  1  5  1  0  0  0  0
  1  2  1  0  0  0  0
  2  7  2  0  0  0  0
  2  6  1  0  0  0  0
  3 23  1  6  0  0  0
  4 10  1  6  0  0  0
  4  9  1  0  0  0  0
  5 10  1  6  0  0  0
  5  4  1  0  0  0  0
  6  8  1  0  0  0  0
  8  3  1  0  0  0  0
  9 29  1  6  0  0  0
  9  3  1  0  0  0  0
 11 12  2  0  0  0  0
 13 12  2  0  0  0  0
 15 14  2  0  0  0  0
 16 17  1  0  0  0  0
 16 15  1  0  0  0  0
 17 18  2  0  0  0  0
 18 12  1  0  0  0  0
 20 15  1  0  0  0  0
 20 19  1  0  0  0  0
 21 20  1  0  0  0  0
 22 20  1  0  0  0  0
 24 23  1  6  0  0  0
 24 26  1  0  0  0  0
 26 25  1  0  0  0  0
 27 28  1  0  0  0  0
 28 24  1  0  0  0  0
 29 32  1  0  0  0  0
 31 32  1  0  0  0  0
 32 30  1  0  0  0  0
M  END
>  <MODEL>
5

>  <REMARK>
 VINA RESULT:      -5.9      4.193      6.155
  Name = 
  9 active torsions:
  status: ('A' for Active; 'I' for Inactive)
    1  A    between atoms: C_1  and  S_3
    2  A    between atoms: S_3  and  N_31
    3  A    between atoms: C_8  and  C_16
    4  A    between atoms: C_9  and  C_21
    5  A    between atoms: C_13  and  C_20
    6  A    between atoms: C_15  and  O_27
    7  A    between atoms: C_16  and  C_21
    8  A    between atoms: C_16  and  C_30
    9  A    between atoms: C_24  and  O_27
                            x       y       z     vdW  Elec       q    Type
                         _______ _______ _______ _____ _____    ______ ____

>  <TORSDO>
F 9

$$$$
=
 OpenBabel11062414113D

 32 33  0  0  1  0  0  0  0  0999 V2000
  185.4960  179.3170  141.7370 C   0  0  1  0  0  3  0  0  0  0  0  0
  184.8470  178.4040  142.7460 C   0  0  0  0  0  0  0  0  0  0  0  0
  187.4200  177.3520  144.1350 C   0  0  1  0  0  3  0  0  0  0  0  0
  187.4520  177.9200  141.6280 C   0  0  2  0  0  3  0  0  0  0  0  0
  187.0120  179.2940  141.9790 C   0  0  1  0  0  3  0  0  0  0  0  0
  185.4290  177.1590  143.0270 O   0  0  0  0  0  0  0  0  0  0  0  0
  183.7690  178.7700  143.3560 N   0  0  0  0  0  2  0  0  0  0  0  0
  186.0650  176.9020  144.1890 O   0  0  0  0  0  0  0  0  0  0  0  0
  188.2640  177.4570  142.8230 C   0  0  2  0  0  3  0  0  0  0  0  0
  187.8970  179.0460  140.9110 O   0  0  0  0  0  0  0  0  0  0  0  0
  183.9170  177.8910  140.0590 O   0  0  0  0  0  0  0  0  0  0  0  0
  184.9470  178.9850  140.0580 S   0  0  0  0  0  0  0  0  0  0  0  0
  184.3340  180.2270  139.4740 O   0  0  0  0  0  0  0  0  0  0  0  0
  188.8990  178.5420  138.2730 O   0  0  0  0  0  0  0  0  0  0  0  0
  188.5710  177.6970  137.3970 C   0  0  0  0  0  0  0  0  0  0  0  0
  187.2200  177.2280  137.3000 N   0  0  0  0  0  2  0  0  0  0  0  0
  186.1270  177.6430  138.1280 C   0  0  0  0  0  3  0  0  0  0  0  0
  186.2880  178.4980  139.0840 N   0  0  0  0  0  0  0  0  0  0  0  0
  189.2950  175.8520  136.1360 F   0  0  0  0  0  0  0  0  0  0  0  0
  189.6180  177.1500  136.4790 C   0  0  0  0  0  0  0  0  0  0  0  0
  190.8470  177.1610  137.1150 F   0  0  0  0  0  0  0  0  0  0  0  0
  189.7020  177.9160  135.3300 F   0  0  0  0  0  0  0  0  0  0  0  0
  187.8310  178.2730  145.2780 C   0  0  0  0  0  2  0  0  0  0  0  0
  187.0350  178.0130  146.5480 C   0  0  2  0  0  3  0  0  0  0  0  0
  184.7010  178.5690  146.7800 O   0  0  0  0  0  1  0  0  0  0  0  0
  185.9900  179.1070  146.7460 C   0  0  0  0  0  2  0  0  0  0  0  0
  189.5420  177.1530  147.2640 S   0  0  0  0  0  1  0  0  0  0  0  0
  187.9620  177.9110  147.7480 C   0  0  0  0  0  2  0  0  0  0  0  0
  188.8470  176.2090  142.5380 O   0  0  0  0  0  0  0  0  0  0  0  0
  190.5490  176.6780  140.8300 C   0  0  0  0  0  1  0  0  0  0  0  0
  190.8960  177.3660  143.2380 C   0  0  0  0  0  1  0  0  0  0  0  0
  190.2280  176.3790  142.2900 C   0  0  0  0  0  3  0  0  0  0  0  0
  1 12  1  6  0  0  0
  1  5  1  0  0  0  0
  1  2  1  0  0  0  0
  2  6  1  0  0  0  0
  2  7  2  0  0  0  0
  3  8  1  0  0  0  0
  3 23  1  6  0  0  0
  4 10  1  6  0  0  0
  4  5  1  0  0  0  0
  4  9  1  0  0  0  0
  5 10  1  6  0  0  0
  6  8  1  0  0  0  0
  9 29  1  6  0  0  0
  9  3  1  0  0  0  0
 12 11  2  0  0  0  0
 13 12  2  0  0  0  0
 15 14  2  0  0  0  0
 16 15  1  0  0  0  0
 16 17  1  0  0  0  0
 17 18  2  0  0  0  0
 18 12  1  0  0  0  0
 19 20  1  0  0  0  0
 20 21  1  0  0  0  0
 20 15  1  0  0  0  0
 22 20  1  0  0  0  0
 24 23  1  6  0  0  0
 24 26  1  0  0  0  0
 24 28  1  0  0  0  0
 26 25  1  0  0  0  0
 27 28  1  0  0  0  0
 30 32  1  0  0  0  0
 32 29  1  0  0  0  0
 32 31  1  0  0  0  0
M  END
>  <MODEL>
6

>  <REMARK>
 VINA RESULT:      -5.9      3.030      5.313
  Name = 
  9 active torsions:
  status: ('A' for Active; 'I' for Inactive)
    1  A    between atoms: C_1  and  S_3
    2  A    between atoms: S_3  and  N_31
    3  A    between atoms: C_8  and  C_16
    4  A    between atoms: C_9  and  C_21
    5  A    between atoms: C_13  and  C_20
    6  A    between atoms: C_15  and  O_27
    7  A    between atoms: C_16  and  C_21
    8  A    between atoms: C_16  and  C_30
    9  A    between atoms: C_24  and  O_27
                            x       y       z     vdW  Elec       q    Type
                         _______ _______ _______ _____ _____    ______ ____

>  <TORSDO>
F 9

$$$$
=
 OpenBabel11062414113D

 32 33  0  0  1  0  0  0  0  0999 V2000
  188.3440  176.8370  137.8330 C   0  0  1  0  0  3  0  0  0  0  0  0
  188.2580  177.2960  136.3990 C   0  0  0  0  0  0  0  0  0  0  0  0
  190.7320  175.7820  135.2830 C   0  0  1  0  0  3  0  0  0  0  0  0
  190.7400  176.6530  137.7020 C   0  0  2  0  0  3  0  0  0  0  0  0
  189.5150  175.8500  137.9480 C   0  0  1  0  0  3  0  0  0  0  0  0
  189.4330  177.6180  135.7030 O   0  0  0  0  0  0  0  0  0  0  0  0
  187.1110  177.3820  135.8110 N   0  0  0  0  0  2  0  0  0  0  0  0
  189.9360  176.8320  134.7290 O   0  0  0  0  0  0  0  0  0  0  0  0
  191.5010  175.8810  136.6410 C   0  0  2  0  0  3  0  0  0  0  0  0
  190.4990  176.0300  138.9400 O   0  0  0  0  0  0  0  0  0  0  0  0
  189.0010  179.4090  138.3810 O   0  0  0  0  0  0  0  0  0  0  0  0
  188.3350  178.2100  138.9940 S   0  0  0  0  0  0  0  0  0  0  0  0
  186.9170  178.5670  139.3390 O   0  0  0  0  0  0  0  0  0  0  0  0
  191.3550  176.9400  141.8700 O   0  0  0  0  0  0  0  0  0  0  0  0
  190.6130  176.9800  142.8890 C   0  0  0  0  0  0  0  0  0  0  0  0
  189.2400  177.3770  142.7820 N   0  0  0  0  0  2  0  0  0  0  0  0
  188.5660  177.7460  141.5730 C   0  0  0  0  0  3  0  0  0  0  0  0
  189.1790  177.7690  140.4350 N   0  0  0  0  0  0  0  0  0  0  0  0
  191.9730  175.5140  144.1230 F   0  0  0  0  0  0  0  0  0  0  0  0
  191.1920  176.6490  144.2280 C   0  0  0  0  0  0  0  0  0  0  0  0
  190.1710  176.4180  145.1320 F   0  0  0  0  0  0  0  0  0  0  0  0
  191.9710  177.6950  144.6900 F   0  0  0  0  0  0  0  0  0  0  0  0
  190.3460  174.3810  134.8260 C   0  0  0  0  0  2  0  0  0  0  0  0
  190.6960  173.3170  135.8550 C   0  0  2  0  0  3  0  0  0  0  0  0
  192.7490  172.0730  136.0790 O   0  0  0  0  0  1  0  0  0  0  0  0
  191.6470  172.2900  135.2470 C   0  0  0  0  0  2  0  0  0  0  0  0
  188.2370  172.4010  135.0440 S   0  0  0  0  0  1  0  0  0  0  0  0
  189.4350  172.6550  136.3880 C   0  0  0  0  0  2  0  0  0  0  0  0
  192.7530  176.4870  136.4290 O   0  0  0  0  0  0  0  0  0  0  0  0
  195.0160  175.9210  135.6610 C   0  0  0  0  0  1  0  0  0  0  0  0
  194.0800  174.9320  137.7900 C   0  0  0  0  0  1  0  0  0  0  0  0
  193.7600  175.4950  136.4120 C   0  0  0  0  0  3  0  0  0  0  0  0
  1  5  1  0  0  0  0
  1 12  1  1  0  0  0
  2  1  1  0  0  0  0
  3 23  1  1  0  0  0
  3  9  1  0  0  0  0
  4  5  1  0  0  0  0
  4 10  1  1  0  0  0
  5 10  1  1  0  0  0
  6  2  1  0  0  0  0
  7  2  2  0  0  0  0
  8  3  1  0  0  0  0
  8  6  1  0  0  0  0
  9 29  1  6  0  0  0
  9  4  1  0  0  0  0
 11 12  2  0  0  0  0
 12 13  2  0  0  0  0
 12 18  1  0  0  0  0
 14 15  2  0  0  0  0
 15 20  1  0  0  0  0
 16 15  1  0  0  0  0
 17 16  1  0  0  0  0
 18 17  2  0  0  0  0
 19 20  1  0  0  0  0
 20 22  1  0  0  0  0
 20 21  1  0  0  0  0
 24 23  1  6  0  0  0
 24 28  1  0  0  0  0
 26 24  1  0  0  0  0
 26 25  1  0  0  0  0
 27 28  1  0  0  0  0
 30 32  1  0  0  0  0
 32 29  1  0  0  0  0
 32 31  1  0  0  0  0
M  END
>  <MODEL>
7

>  <REMARK>
 VINA RESULT:      -5.8      4.390      8.795
  Name = 
  9 active torsions:
  status: ('A' for Active; 'I' for Inactive)
    1  A    between atoms: C_1  and  S_3
    2  A    between atoms: S_3  and  N_31
    3  A    between atoms: C_8  and  C_16
    4  A    between atoms: C_9  and  C_21
    5  A    between atoms: C_13  and  C_20
    6  A    between atoms: C_15  and  O_27
    7  A    between atoms: C_16  and  C_21
    8  A    between atoms: C_16  and  C_30
    9  A    between atoms: C_24  and  O_27
                            x       y       z     vdW  Elec       q    Type
                         _______ _______ _______ _____ _____    ______ ____

>  <TORSDO>
F 9

$$$$
=
 OpenBabel11062414113D

 32 33  0  0  1  0  0  0  0  0999 V2000
  187.5500  178.4740  142.7000 C   0  0  1  0  0  3  0  0  0  0  0  0
  187.7820  177.2030  143.4780 C   0  0  0  0  0  0  0  0  0  0  0  0
  190.4630  176.3410  142.1640 C   0  0  1  0  0  3  0  0  0  0  0  0
  188.6920  177.5840  140.7770 C   0  0  2  0  0  3  0  0  0  0  0  0
  188.7530  178.6880  141.7690 C   0  0  1  0  0  3  0  0  0  0  0  0
  188.2890  176.0720  142.8220 O   0  0  0  0  0  0  0  0  0  0  0  0
  187.5260  177.1600  144.7430 N   0  0  0  0  0  2  0  0  0  0  0  0
  189.5510  175.6320  143.0060 O   0  0  0  0  0  0  0  0  0  0  0  0
  190.0810  176.9770  140.7880 C   0  0  2  0  0  3  0  0  0  0  0  0
  188.5520  178.9310  140.3960 O   0  0  0  0  0  0  0  0  0  0  0  0
  185.0230  177.5030  142.5710 O   0  0  0  0  0  0  0  0  0  0  0  0
  185.9250  178.5230  141.9340 S   0  0  0  0  0  0  0  0  0  0  0  0
  185.3220  179.8870  142.1210 O   0  0  0  0  0  0  0  0  0  0  0  0
  187.2100  177.0700  138.0310 O   0  0  0  0  0  0  0  0  0  0  0  0
  186.3070  177.6370  137.3580 C   0  0  0  0  0  0  0  0  0  0  0  0
  185.3070  178.4390  138.0010 N   0  0  0  0  0  2  0  0  0  0  0  0
  185.2160  178.6960  139.4070 C   0  0  0  0  0  3  0  0  0  0  0  0
  186.0570  178.1850  140.2450 N   0  0  0  0  0  0  0  0  0  0  0  0
  184.9530  177.5320  135.4410 F   0  0  0  0  0  0  0  0  0  0  0  0
  186.2600  177.4310  135.8770 C   0  0  0  0  0  0  0  0  0  0  0  0
  186.7490  176.1760  135.5650 F   0  0  0  0  0  0  0  0  0  0  0  0
  187.0280  178.3840  135.2320 F   0  0  0  0  0  0  0  0  0  0  0  0
  191.6470  176.9670  142.8930 C   0  0  0  0  0  2  0  0  0  0  0  0
  191.2490  177.5770  144.2290 C   0  0  2  0  0  3  0  0  0  0  0  0
  190.9310  179.9530  143.9790 O   0  0  0  0  0  1  0  0  0  0  0  0
  191.8480  178.9730  144.3680 C   0  0  0  0  0  2  0  0  0  0  0  0
  190.5750  176.9000  146.8030 S   0  0  0  0  0  1  0  0  0  0  0  0
  191.6780  176.6750  145.3760 C   0  0  0  0  0  2  0  0  0  0  0  0
  190.1740  176.0020  139.7780 O   0  0  0  0  0  0  0  0  0  0  0  0
  190.5490  177.1280  137.6270 C   0  0  0  0  0  1  0  0  0  0  0  0
  192.3140  177.1570  139.4360 C   0  0  0  0  0  1  0  0  0  0  0  0
  191.1430  176.3990  138.8270 C   0  0  0  0  0  3  0  0  0  0  0  0
  1 12  1  6  0  0  0
  1  2  1  0  0  0  0
  2  7  2  0  0  0  0
  3 23  1  1  0  0  0
  3  8  1  0  0  0  0
  4 10  1  6  0  0  0
  4  9  1  0  0  0  0
  4  5  1  0  0  0  0
  5 10  1  6  0  0  0
  5  1  1  0  0  0  0
  6  8  1  0  0  0  0
  6  2  1  0  0  0  0
  9 29  1  6  0  0  0
  9  3  1  0  0  0  0
 12 13  2  0  0  0  0
 12 11  2  0  0  0  0
 15 16  1  0  0  0  0
 15 14  2  0  0  0  0
 16 17  1  0  0  0  0
 17 18  2  0  0  0  0
 18 12  1  0  0  0  0
 19 20  1  0  0  0  0
 20 15  1  0  0  0  0
 21 20  1  0  0  0  0
 22 20  1  0  0  0  0
 24 23  1  6  0  0  0
 24 26  1  0  0  0  0
 24 28  1  0  0  0  0
 25 26  1  0  0  0  0
 28 27  1  0  0  0  0
 30 32  1  0  0  0  0
 32 31  1  0  0  0  0
 32 29  1  0  0  0  0
M  END
>  <MODEL>
8

>  <REMARK>
 VINA RESULT:      -5.8      3.655      6.552
  Name = 
  9 active torsions:
  status: ('A' for Active; 'I' for Inactive)
    1  A    between atoms: C_1  and  S_3
    2  A    between atoms: S_3  and  N_31
    3  A    between atoms: C_8  and  C_16
    4  A    between atoms: C_9  and  C_21
    5  A    between atoms: C_13  and  C_20
    6  A    between atoms: C_15  and  O_27
    7  A    between atoms: C_16  and  C_21
    8  A    between atoms: C_16  and  C_30
    9  A    between atoms: C_24  and  O_27
                            x       y       z     vdW  Elec       q    Type
                         _______ _______ _______ _____ _____    ______ ____

>  <TORSDO>
F 9

$$$$
=
 OpenBabel11062414113D

 32 33  0  0  1  0  0  0  0  0999 V2000
  182.1490  179.0490  138.9050 C   0  0  1  0  0  3  0  0  0  0  0  0
  183.6300  179.2490  139.1070 C   0  0  0  0  0  0  0  0  0  0  0  0
  184.6530  176.8520  137.4140 C   0  0  1  0  0  3  0  0  0  0  0  0
  182.4300  176.6680  138.6920 C   0  0  2  0  0  3  0  0  0  0  0  0
  181.9540  177.8630  137.9480 C   0  0  1  0  0  3  0  0  0  0  0  0
  184.4590  178.1330  139.2990 O   0  0  0  0  0  0  0  0  0  0  0  0
  184.1330  180.4380  139.0930 N   0  0  0  0  0  2  0  0  0  0  0  0
  185.3180  177.6990  138.3530 O   0  0  0  0  0  0  0  0  0  0  0  0
  183.3960  175.9830  137.7440 C   0  0  2  0  0  3  0  0  0  0  0  0
  181.0880  176.8080  138.2940 O   0  0  0  0  0  0  0  0  0  0  0  0
  180.4250  180.2290  140.6310 O   0  0  0  0  0  0  0  0  0  0  0  0
  181.2460  178.9820  140.4580 S   0  0  0  0  0  0  0  0  0  0  0  0
  180.3270  177.7930  140.4550 O   0  0  0  0  0  0  0  0  0  0  0  0
  184.7620  178.2680  142.9340 O   0  0  0  0  0  0  0  0  0  0  0  0
  184.2300  178.5750  144.0350 C   0  0  0  0  0  0  0  0  0  0  0  0
  182.8620  179.0000  144.0970 N   0  0  0  0  0  2  0  0  0  0  0  0
  181.9690  179.1130  142.9840 C   0  0  0  0  0  3  0  0  0  0  0  0
  182.3520  178.8460  141.7780 N   0  0  0  0  0  0  0  0  0  0  0  0
  186.0160  177.5480  145.1640 F   0  0  0  0  0  0  0  0  0  0  0  0
  185.0560  178.5340  145.2820 C   0  0  0  0  0  0  0  0  0  0  0  0
  184.2460  178.2540  146.3680 F   0  0  0  0  0  0  0  0  0  0  0  0
  185.6780  179.7520  145.4910 F   0  0  0  0  0  0  0  0  0  0  0  0
  184.8290  177.2590  135.9550 C   0  0  0  0  0  2  0  0  0  0  0  0
  186.2270  176.9650  135.4350 C   0  0  2  0  0  3  0  0  0  0  0  0
  186.7390  174.6300  135.1250 O   0  0  0  0  0  1  0  0  0  0  0  0
  186.7580  175.6750  136.0530 C   0  0  0  0  0  2  0  0  0  0  0  0
  188.8320  177.5350  136.0920 S   0  0  0  0  0  1  0  0  0  0  0  0
  187.1580  178.1350  135.7140 C   0  0  0  0  0  2  0  0  0  0  0  0
  183.8060  174.7570  138.3000 O   0  0  0  0  0  0  0  0  0  0  0  0
  184.9280  172.6900  137.5930 C   0  0  0  0  0  1  0  0  0  0  0  0
  182.5840  173.2300  136.8140 C   0  0  0  0  0  1  0  0  0  0  0  0
  183.9240  173.7910  137.2740 C   0  0  0  0  0  3  0  0  0  0  0  0
  1  2  1  0  0  0  0
  1 12  1  1  0  0  0
  2  6  1  0  0  0  0
  3 23  1  6  0  0  0
  3  9  1  0  0  0  0
  3  8  1  0  0  0  0
  4 10  1  6  0  0  0
  5 10  1  1  0  0  0
  5  4  1  0  0  0  0
  5  1  1  0  0  0  0
  7  2  2  0  0  0  0
  8  6  1  0  0  0  0
  9 29  1  1  0  0  0
  9  4  1  0  0  0  0
 12 11  2  0  0  0  0
 12 18  1  0  0  0  0
 13 12  2  0  0  0  0
 14 15  2  0  0  0  0
 15 16  1  0  0  0  0
 15 20  1  0  0  0  0
 17 16  1  0  0  0  0
 18 17  2  0  0  0  0
 19 20  1  0  0  0  0
 20 22  1  0  0  0  0
 20 21  1  0  0  0  0
 24 28  1  1  0  0  0
 24 23  1  0  0  0  0
 24 26  1  0  0  0  0
 25 26  1  0  0  0  0
 28 27  1  0  0  0  0
 31 32  1  0  0  0  0
 32 30  1  0  0  0  0
 32 29  1  0  0  0  0
M  END
>  <MODEL>
9

>  <REMARK>
 VINA RESULT:      -5.6      6.410     10.028
  Name = 
  9 active torsions:
  status: ('A' for Active; 'I' for Inactive)
    1  A    between atoms: C_1  and  S_3
    2  A    between atoms: S_3  and  N_31
    3  A    between atoms: C_8  and  C_16
    4  A    between atoms: C_9  and  C_21
    5  A    between atoms: C_13  and  C_20
    6  A    between atoms: C_15  and  O_27
    7  A    between atoms: C_16  and  C_21
    8  A    between atoms: C_16  and  C_30
    9  A    between atoms: C_24  and  O_27
                            x       y       z     vdW  Elec       q    Type
                         _______ _______ _______ _____ _____    ______ ____

>  <TORSDO>
F 9

$$$$
