=
 OpenBabel11062412573D

 50 53  0  0  1  0  0  0  0  0999 V2000
  189.0830  178.7510  138.1790 O   0  0  0  0  0  1  0  0  0  0  0  0
  191.7510  174.4090  136.4480 C   0  0  0  0  0  2  0  0  0  0  0  0
  193.0810  175.1460  136.4510 C   0  0  0  0  0  2  0  0  0  0  0  0
  193.5240  175.5150  137.8630 C   0  0  0  0  0  2  0  0  0  0  0  0
  190.4960  177.2570  139.3850 C   0  0  2  0  0  3  0  0  0  0  0  0
  188.8590  176.4020  137.5750 C   0  0  2  0  0  3  0  0  0  0  0  0
  192.7300  176.6910  138.4080 C   0  0  0  0  0  2  0  0  0  0  0  0
  189.7840  177.5500  138.0560 C   0  0  1  0  0  3  0  0  0  0  0  0
  191.5700  176.1840  139.2480 C   0  0  0  0  0  2  0  0  0  0  0  0
  190.6100  175.3910  136.2690 C   0  0  0  0  0  2  0  0  0  0  0  0
  189.6140  175.1690  137.3110 N   0  0  0  0  0  2  0  0  0  0  0  0
  186.1920  174.9880  136.6720 C   0  0  1  0  0  3  0  0  0  0  0  0
  187.2430  175.5900  135.7380 C   0  0  0  0  0  2  0  0  0  0  0  0
  187.9480  176.7940  136.3860 C   0  0  1  0  0  3  0  0  0  0  0  0
  185.1590  176.0420  137.0520 C   0  0  0  0  0  2  0  0  0  0  0  0
  186.9010  177.8390  136.7970 C   0  0  0  0  0  2  0  0  0  0  0  0
  185.8460  177.2310  137.7240 C   0  0  1  0  0  3  0  0  0  0  0  0
  184.9850  172.9390  135.4570 C   0  0  0  0  0  0  0  0  0  0  0  0
  184.3260  171.8150  134.7950 C   0  0  0  0  0  1  0  0  0  0  0  0
  185.5290  173.8660  136.0050 C   0  0  0  0  0  0  0  0  0  0  0  0
  184.8260  178.2760  138.1580 C   0  0  0  0  0  2  0  0  0  0  0  0
  183.6950  177.6590  138.8330 N   0  0  0  0  0  2  0  0  0  0  0  0
  182.6030  178.6160  138.7810 C   0  0  0  0  0  2  0  0  0  0  0  0
  181.3900  177.2460  137.1150 C   0  0  0  0  0  1  0  0  0  0  0  0
  181.9790  178.6110  137.3990 C   0  0  1  0  0  3  0  0  0  0  0  0
  180.9710  179.5710  137.3320 O   0  0  0  0  0  1  0  0  0  0  0  0
  189.5370  176.8880  140.4150 N   0  0  0  0  0  2  0  0  0  0  0  0
  190.0190  177.4060  141.6240 N   0  0  0  0  0  2  0  0  0  0  0  0
  190.2320  175.3020  142.6110 O   0  0  0  0  0  0  0  0  0  0  0  0
  190.3760  176.5480  142.7090 C   0  0  0  0  0  0  0  0  0  0  0  0
  189.3070  178.8660  144.0730 O   0  0  0  0  0  0  0  0  0  0  0  0
  191.7670  176.4730  146.2480 C   0  0  1  0  0  3  0  0  0  0  0  0
  190.9530  177.1310  143.9590 C   0  0  1  0  0  3  0  0  0  0  0  0
  189.6690  177.7530  146.0940 N   0  0  0  0  0  0  0  0  0  0  0  0
  190.4090  176.7580  146.8720 C   0  0  0  0  0  2  0  0  0  0  0  0
  192.4610  175.3790  147.0310 C   0  0  0  0  0  1  0  0  0  0  0  0
  189.9200  177.9520  144.6910 C   0  0  0  0  0  0  0  0  0  0  0  0
  191.5480  176.0110  144.8170 C   0  0  0  0  0  2  0  0  0  0  0  0
  188.7380  178.5120  146.7270 O   0  0  0  0  0  0  0  0  0  0  0  0
  187.5490  177.7640  146.6820 C   0  0  0  0  0  2  0  0  0  0  0  0
  185.0580  178.8480  144.3230 C   0  0  2  0  0  0  0  0  0  0  0  0
  184.5480  180.2730  144.1990 C   0  0  0  0  0  1  0  0  0  0  0  0
  184.2370  178.1120  145.3540 C   0  0  0  0  0  2  0  0  0  0  0  0
  184.5780  178.2750  147.6940 F   0  0  0  0  0  0  0  0  0  0  0  0
  185.1700  177.8460  146.5200 C   0  0  2  0  0  3  0  0  0  0  0  0
  186.4750  178.8460  144.8570 C   0  0  0  0  0  2  0  0  0  0  0  0
  186.4050  178.5880  146.2900 N   0  0  0  0  0  0  0  0  0  0  0  0
  184.9780  178.1260  142.9830 C   0  0  0  0  0  2  0  0  0  0  0  0
  186.4100  178.6870  141.3970 C   0  0  0  0  0  1  0  0  0  0  0  0
  186.2580  177.8420  142.4950 O   0  0  0  0  0  0  0  0  0  0  0  0
  2  3  1  0  0  0  0
  3  4  1  0  0  0  0
  4  7  1  0  0  0  0
  5 27  1  1  0  0  0
  6 11  1  6  0  0  0
  6  8  1  0  0  0  0
  7  9  1  0  0  0  0
  8  1  1  1  0  0  0
  8  5  1  0  0  0  0
  9  5  1  0  0  0  0
 10  2  1  0  0  0  0
 10 11  1  0  0  0  0
 12 20  1  6  0  0  0
 12 15  1  0  0  0  0
 13 12  1  0  0  0  0
 14 13  1  1  0  0  0
 14 16  1  0  0  0  0
 14  6  1  0  0  0  0
 15 17  1  0  0  0  0
 16 17  1  0  0  0  0
 17 21  1  6  0  0  0
 18 20  3  0  0  0  0
 19 18  1  0  0  0  0
 21 22  1  0  0  0  0
 23 22  1  0  0  0  0
 25 24  1  1  0  0  0
 25 23  1  0  0  0  0
 26 25  1  0  0  0  0
 27 28  1  0  0  0  0
 28 30  1  0  0  0  0
 29 30  2  0  0  0  0
 31 37  2  0  0  0  0
 32 35  1  0  0  0  0
 32 36  1  1  0  0  0
 33 30  1  6  0  0  0
 33 37  1  0  0  0  0
 33 38  1  0  0  0  0
 34 39  1  0  0  0  0
 34 35  1  0  0  0  0
 37 34  1  0  0  0  0
 38 32  1  0  0  0  0
 40 39  1  0  0  0  0
 41 42  1  6  0  0  0
 41 46  1  0  0  0  0
 41 43  1  0  0  0  0
 43 45  1  0  0  0  0
 45 44  1  1  0  0  0
 46 47  1  0  0  0  0
 47 45  1  0  0  0  0
 47 40  1  0  0  0  0
 48 41  1  0  0  0  0
 49 50  1  0  0  0  0
 50 48  1  0  0  0  0
M  END
>  <MODEL>
1

>  <REMARK>
 VINA RESULT:      -7.3      0.000      0.000
  Name = 
  14 active torsions:
  status: ('A' for Active; 'I' for Inactive)
    1  A    between atoms: C_2  and  N_14
    2  A    between atoms: C_2  and  C_42
    3  A    between atoms: C_3  and  C_12
    4  A    between atoms: C_5  and  N_14
    5  A    between atoms: C_5  and  C_41
    6  A    between atoms: N_11  and  N_43
    7  A    between atoms: C_12  and  O_36
    8  A    between atoms: C_19  and  C_24
    9  A    between atoms: C_22  and  C_50
   10  A    between atoms: C_23  and  N_43
   11  A    between atoms: N_25  and  C_31
   12  A    between atoms: C_28  and  C_32
   13  A    between atoms: C_31  and  O_37
   14  A    between atoms: N_33  and  O_37
                            x       y       z     vdW  Elec       q    Type
                         _______ _______ _______ _____ _____    ______ ____

>  <TORSDO>
F 14

$$$$
=
 OpenBabel11062412573D

 50 53  0  0  1  0  0  0  0  0999 V2000
  188.0670  179.3470  141.1160 O   0  0  0  0  0  1  0  0  0  0  0  0
  191.7050  176.3710  143.7370 C   0  0  0  0  0  2  0  0  0  0  0  0
  191.7160  177.3170  144.9270 C   0  0  0  0  0  2  0  0  0  0  0  0
  190.3860  177.3100  145.6730 C   0  0  0  0  0  2  0  0  0  0  0  0
  187.7710  177.8630  142.9570 C   0  0  2  0  0  3  0  0  0  0  0  0
  189.3920  177.3050  141.0200 C   0  0  2  0  0  3  0  0  0  0  0  0
  189.3170  178.0780  144.9140 C   0  0  0  0  0  2  0  0  0  0  0  0
  188.7400  178.4070  141.8970 C   0  0  1  0  0  3  0  0  0  0  0  0
  188.4880  177.1190  144.0770 C   0  0  0  0  0  2  0  0  0  0  0  0
  191.2950  177.1150  142.4820 C   0  0  0  0  0  2  0  0  0  0  0  0
  190.2160  176.3900  141.8210 N   0  0  0  0  0  2  0  0  0  0  0  0
  190.0020  175.8040  138.3190 C   0  0  1  0  0  3  0  0  0  0  0  0
  190.9420  176.7790  139.0290 C   0  0  0  0  0  2  0  0  0  0  0  0
  190.1590  177.8590  139.7950 C   0  0  1  0  0  3  0  0  0  0  0  0
  189.0930  176.5570  137.3540 C   0  0  0  0  0  2  0  0  0  0  0  0
  189.2200  178.5920  138.8260 C   0  0  0  0  0  2  0  0  0  0  0  0
  188.2870  177.6130  138.1100 C   0  0  1  0  0  3  0  0  0  0  0  0
  191.4370  173.9980  136.9740 C   0  0  0  0  0  0  0  0  0  0  0  0
  192.2230  173.0120  136.2350 C   0  0  0  0  0  1  0  0  0  0  0  0
  190.7890  174.8130  137.5830 C   0  0  0  0  0  0  0  0  0  0  0  0
  187.3340  178.3450  137.1730 C   0  0  0  0  0  2  0  0  0  0  0  0
  185.9530  178.1940  137.6050 N   0  0  0  0  0  2  0  0  0  0  0  0
  185.3420  177.2180  136.7210 C   0  0  0  0  0  2  0  0  0  0  0  0
  183.3900  175.7160  136.4820 C   0  0  0  0  0  1  0  0  0  0  0  0
  183.8990  176.9860  137.1280 C   0  0  1  0  0  3  0  0  0  0  0  0
  183.8120  176.8670  138.5130 O   0  0  0  0  0  1  0  0  0  0  0  0
  186.7620  177.0110  142.3460 N   0  0  0  0  0  2  0  0  0  0  0  0
  185.6290  177.8100  142.1370 N   0  0  0  0  0  2  0  0  0  0  0  0
  185.0690  177.8650  144.4020 O   0  0  0  0  0  0  0  0  0  0  0  0
  184.8080  178.2320  143.2270 C   0  0  0  0  0  0  0  0  0  0  0  0
  184.2880  179.5500  140.7050 O   0  0  0  0  0  0  0  0  0  0  0  0
  181.1530  179.2830  143.2760 C   0  0  1  0  0  3  0  0  0  0  0  0
  183.6480  179.1410  142.9750 C   0  0  1  0  0  3  0  0  0  0  0  0
  182.0260  179.0400  140.9860 N   0  0  0  0  0  0  0  0  0  0  0  0
  180.8990  178.7490  141.8750 C   0  0  0  0  0  2  0  0  0  0  0  0
  180.0060  178.8870  144.1810 C   0  0  0  0  0  1  0  0  0  0  0  0
  183.3570  179.2360  141.4970 C   0  0  0  0  0  0  0  0  0  0  0  0
  182.4430  178.6710  143.7940 C   0  0  0  0  0  2  0  0  0  0  0  0
  181.7940  179.1390  139.6520 O   0  0  0  0  0  0  0  0  0  0  0  0
  180.5420  179.7680  139.5350 C   0  0  0  0  0  2  0  0  0  0  0  0
  180.7260  182.5750  137.2920 C   0  0  2  0  0  0  0  0  0  0  0  0
  181.5990  183.7980  137.5090 C   0  0  0  0  0  1  0  0  0  0  0  0
  179.3960  182.7850  137.9740 C   0  0  0  0  0  2  0  0  0  0  0  0
  179.0180  182.4560  140.2920 F   0  0  0  0  0  0  0  0  0  0  0  0
  179.3530  181.7960  139.1220 C   0  0  2  0  0  3  0  0  0  0  0  0
  181.3410  181.3680  137.9690 C   0  0  0  0  0  2  0  0  0  0  0  0
  180.6770  181.1980  139.2550 N   0  0  0  0  0  0  0  0  0  0  0  0
  180.5130  182.3180  135.8050 C   0  0  0  0  0  2  0  0  0  0  0  0
  179.4540  180.6930  134.7500 C   0  0  0  0  0  1  0  0  0  0  0  0
  180.5850  180.9510  135.5210 O   0  0  0  0  0  0  0  0  0  0  0  0
  2  3  1  0  0  0  0
  3  4  1  0  0  0  0
  5 27  1  6  0  0  0
  5  9  1  0  0  0  0
  6 11  1  1  0  0  0
  6  8  1  0  0  0  0
  7  4  1  0  0  0  0
  8  1  1  6  0  0  0
  8  5  1  0  0  0  0
  9  7  1  0  0  0  0
 10  2  1  0  0  0  0
 11 10  1  0  0  0  0
 12 20  1  6  0  0  0
 12 13  1  0  0  0  0
 13 14  1  0  0  0  0
 14 16  1  6  0  0  0
 14  6  1  0  0  0  0
 15 17  1  0  0  0  0
 15 12  1  0  0  0  0
 17 21  1  6  0  0  0
 17 16  1  0  0  0  0
 18 20  3  0  0  0  0
 19 18  1  0  0  0  0
 21 22  1  0  0  0  0
 23 25  1  0  0  0  0
 23 22  1  0  0  0  0
 25 24  1  6  0  0  0
 25 26  1  0  0  0  0
 28 27  1  0  0  0  0
 28 30  1  0  0  0  0
 30 29  2  0  0  0  0
 31 37  2  0  0  0  0
 32 38  1  0  0  0  0
 32 36  1  1  0  0  0
 33 30  1  6  0  0  0
 33 38  1  0  0  0  0
 34 37  1  0  0  0  0
 34 35  1  0  0  0  0
 35 32  1  0  0  0  0
 37 33  1  0  0  0  0
 39 34  1  0  0  0  0
 40 39  1  0  0  0  0
 41 42  1  1  0  0  0
 41 46  1  0  0  0  0
 41 43  1  0  0  0  0
 43 45  1  0  0  0  0
 45 47  1  0  0  0  0
 45 44  1  1  0  0  0
 46 47  1  0  0  0  0
 47 40  1  0  0  0  0
 48 41  1  0  0  0  0
 49 50  1  0  0  0  0
 50 48  1  0  0  0  0
M  END
>  <MODEL>
2

>  <REMARK>
 VINA RESULT:      -7.2      3.044      7.312
  Name = 
  14 active torsions:
  status: ('A' for Active; 'I' for Inactive)
    1  A    between atoms: C_2  and  N_14
    2  A    between atoms: C_2  and  C_42
    3  A    between atoms: C_3  and  C_12
    4  A    between atoms: C_5  and  N_14
    5  A    between atoms: C_5  and  C_41
    6  A    between atoms: N_11  and  N_43
    7  A    between atoms: C_12  and  O_36
    8  A    between atoms: C_19  and  C_24
    9  A    between atoms: C_22  and  C_50
   10  A    between atoms: C_23  and  N_43
   11  A    between atoms: N_25  and  C_31
   12  A    between atoms: C_28  and  C_32
   13  A    between atoms: C_31  and  O_37
   14  A    between atoms: N_33  and  O_37
                            x       y       z     vdW  Elec       q    Type
                         _______ _______ _______ _____ _____    ______ ____

>  <TORSDO>
F 14

$$$$
=
 OpenBabel11062412573D

 50 53  0  0  1  0  0  0  0  0999 V2000
  187.7870  179.2710  141.8980 O   0  0  0  0  0  1  0  0  0  0  0  0
  191.7310  176.4120  144.1870 C   0  0  0  0  0  2  0  0  0  0  0  0
  191.7010  177.2600  145.4480 C   0  0  0  0  0  2  0  0  0  0  0  0
  190.3980  177.0850  146.2220 C   0  0  0  0  0  2  0  0  0  0  0  0
  187.6670  177.6280  143.6210 C   0  0  2  0  0  3  0  0  0  0  0  0
  189.2690  177.3590  141.6090 C   0  0  2  0  0  3  0  0  0  0  0  0
  189.2490  177.8190  145.5520 C   0  0  0  0  0  2  0  0  0  0  0  0
  188.5570  178.3320  142.5860 C   0  0  1  0  0  3  0  0  0  0  0  0
  188.4750  176.8620  144.6610 C   0  0  0  0  0  2  0  0  0  0  0  0
  191.2240  177.2140  143.0050 C   0  0  0  0  0  2  0  0  0  0  0  0
  190.1880  176.4560  142.3140 N   0  0  0  0  0  2  0  0  0  0  0  0
  190.2080  176.0500  138.9020 C   0  0  1  0  0  3  0  0  0  0  0  0
  190.9370  177.1650  139.6530 C   0  0  0  0  0  2  0  0  0  0  0  0
  189.9510  178.0690  140.4130 C   0  0  1  0  0  3  0  0  0  0  0  0
  189.2000  176.6440  137.9240 C   0  0  0  0  0  2  0  0  0  0  0  0
  188.9180  178.6390  139.4310 C   0  0  0  0  0  2  0  0  0  0  0  0
  188.1980  177.5210  138.6740 C   0  0  1  0  0  3  0  0  0  0  0  0
  191.9820  174.5600  137.5740 C   0  0  0  0  0  0  0  0  0  0  0  0
  192.9530  173.7410  136.8500 C   0  0  0  0  0  1  0  0  0  0  0  0
  191.1800  175.2340  138.1720 C   0  0  0  0  0  0  0  0  0  0  0  0
  187.1500  178.0860  137.7230 C   0  0  0  0  0  2  0  0  0  0  0  0
  187.6240  178.0700  136.3480 N   0  0  0  0  0  2  0  0  0  0  0  0
  186.4940  177.6880  135.5200 C   0  0  0  0  0  2  0  0  0  0  0  0
  188.3910  176.3570  134.6550 C   0  0  0  0  0  1  0  0  0  0  0  0
  186.8920  176.5550  134.5940 C   0  0  1  0  0  3  0  0  0  0  0  0
  186.2550  175.3790  134.9850 O   0  0  0  0  0  1  0  0  0  0  0  0
  186.7120  176.7460  142.9680 N   0  0  0  0  0  2  0  0  0  0  0  0
  185.5900  177.5240  142.6530 N   0  0  0  0  0  2  0  0  0  0  0  0
  185.1790  178.0950  144.8780 O   0  0  0  0  0  0  0  0  0  0  0  0
  184.8520  178.2060  143.6680 C   0  0  0  0  0  0  0  0  0  0  0  0
  184.4530  179.3190  141.0270 O   0  0  0  0  0  0  0  0  0  0  0  0
  181.1960  179.2300  143.4540 C   0  0  1  0  0  3  0  0  0  0  0  0
  183.7030  179.0840  143.2890 C   0  0  1  0  0  3  0  0  0  0  0  0
  182.1820  178.8150  141.2370 N   0  0  0  0  0  0  0  0  0  0  0  0
  181.0140  178.5860  142.0880 C   0  0  0  0  0  2  0  0  0  0  0  0
  180.0070  178.8970  144.3300 C   0  0  0  0  0  1  0  0  0  0  0  0
  183.4850  179.0610  141.7950 C   0  0  0  0  0  0  0  0  0  0  0  0
  182.4610  178.6700  144.0820 C   0  0  0  0  0  2  0  0  0  0  0  0
  182.0160  178.8080  139.8890 O   0  0  0  0  0  0  0  0  0  0  0  0
  181.6280  177.4960  139.5650 C   0  0  0  0  0  2  0  0  0  0  0  0
  182.8320  174.9610  137.3130 C   0  0  2  0  0  0  0  0  0  0  0  0
  184.0970  174.1490  137.5240 C   0  0  0  0  0  1  0  0  0  0  0  0
  183.1750  176.2380  136.5850 C   0  0  0  0  0  2  0  0  0  0  0  0
  184.0600  178.1730  137.6310 F   0  0  0  0  0  0  0  0  0  0  0  0
  182.9410  177.3610  137.5770 C   0  0  2  0  0  3  0  0  0  0  0  0
  182.2630  175.3970  138.6480 C   0  0  0  0  0  2  0  0  0  0  0  0
  182.7000  176.7660  138.8870 N   0  0  0  0  0  0  0  0  0  0  0  0
  181.8050  174.1670  136.5150 C   0  0  0  0  0  2  0  0  0  0  0  0
  180.6890  172.2720  136.7240 C   0  0  0  0  0  1  0  0  0  0  0  0
  181.9820  172.7930  136.7060 O   0  0  0  0  0  0  0  0  0  0  0  0
  2  3  1  0  0  0  0
  3  4  1  0  0  0  0
  5 27  1  6  0  0  0
  5  9  1  0  0  0  0
  6 11  1  1  0  0  0
  6  8  1  0  0  0  0
  7  4  1  0  0  0  0
  8  1  1  6  0  0  0
  8  5  1  0  0  0  0
  9  7  1  0  0  0  0
 10  2  1  0  0  0  0
 11 10  1  0  0  0  0
 12 20  1  6  0  0  0
 12 13  1  0  0  0  0
 13 14  1  0  0  0  0
 14 16  1  6  0  0  0
 14  6  1  0  0  0  0
 15 17  1  0  0  0  0
 15 12  1  0  0  0  0
 17 21  1  6  0  0  0
 17 16  1  0  0  0  0
 18 20  3  0  0  0  0
 19 18  1  0  0  0  0
 22 21  1  0  0  0  0
 23 22  1  0  0  0  0
 25 24  1  1  0  0  0
 25 26  1  0  0  0  0
 25 23  1  0  0  0  0
 28 27  1  0  0  0  0
 28 30  1  0  0  0  0
 30 29  2  0  0  0  0
 31 37  2  0  0  0  0
 32 38  1  0  0  0  0
 32 36  1  1  0  0  0
 33 30  1  6  0  0  0
 33 38  1  0  0  0  0
 34 37  1  0  0  0  0
 34 35  1  0  0  0  0
 35 32  1  0  0  0  0
 37 33  1  0  0  0  0
 39 34  1  0  0  0  0
 40 39  1  0  0  0  0
 41 42  1  1  0  0  0
 41 46  1  0  0  0  0
 43 41  1  0  0  0  0
 43 45  1  0  0  0  0
 45 44  1  1  0  0  0
 45 47  1  0  0  0  0
 46 47  1  0  0  0  0
 47 40  1  0  0  0  0
 48 50  1  0  0  0  0
 48 41  1  0  0  0  0
 50 49  1  0  0  0  0
M  END
>  <MODEL>
3

>  <REMARK>
 VINA RESULT:      -6.8      2.896      7.476
  Name = 
  14 active torsions:
  status: ('A' for Active; 'I' for Inactive)
    1  A    between atoms: C_2  and  N_14
    2  A    between atoms: C_2  and  C_42
    3  A    between atoms: C_3  and  C_12
    4  A    between atoms: C_5  and  N_14
    5  A    between atoms: C_5  and  C_41
    6  A    between atoms: N_11  and  N_43
    7  A    between atoms: C_12  and  O_36
    8  A    between atoms: C_19  and  C_24
    9  A    between atoms: C_22  and  C_50
   10  A    between atoms: C_23  and  N_43
   11  A    between atoms: N_25  and  C_31
   12  A    between atoms: C_28  and  C_32
   13  A    between atoms: C_31  and  O_37
   14  A    between atoms: N_33  and  O_37
                            x       y       z     vdW  Elec       q    Type
                         _______ _______ _______ _____ _____    ______ ____

>  <TORSDO>
F 14

$$$$
=
 OpenBabel11062412573D

 50 53  0  0  1  0  0  0  0  0999 V2000
  183.7800  176.5450  139.7570 O   0  0  0  0  0  1  0  0  0  0  0  0
  180.6890  179.7100  142.8220 C   0  0  0  0  0  2  0  0  0  0  0  0
  181.0350  178.9350  144.0830 C   0  0  0  0  0  2  0  0  0  0  0  0
  182.5030  179.0930  144.4650 C   0  0  0  0  0  2  0  0  0  0  0  0
  184.4100  178.2760  141.2690 C   0  0  2  0  0  3  0  0  0  0  0  0
  182.3310  178.5030  139.7470 C   0  0  2  0  0  3  0  0  0  0  0  0
  183.4060  178.2700  143.5620 C   0  0  0  0  0  2  0  0  0  0  0  0
  183.2520  177.5570  140.5610 C   0  0  1  0  0  3  0  0  0  0  0  0
  183.9360  179.1380  142.4330 C   0  0  0  0  0  2  0  0  0  0  0  0
  180.8330  178.8190  141.6050 C   0  0  0  0  0  2  0  0  0  0  0  0
  181.6640  179.4880  140.6110 N   0  0  0  0  0  2  0  0  0  0  0  0
  181.3300  179.4010  136.8980 C   0  0  1  0  0  3  0  0  0  0  0  0
  180.4810  178.7050  137.9640 C   0  0  0  0  0  2  0  0  0  0  0  0
  181.3300  177.7590  138.8300 C   0  0  1  0  0  3  0  0  0  0  0  0
  182.0120  178.3670  136.0100 C   0  0  0  0  0  2  0  0  0  0  0  0
  182.0410  176.7400  137.9280 C   0  0  0  0  0  2  0  0  0  0  0  0
  182.8820  177.4390  136.8570 C   0  0  1  0  0  3  0  0  0  0  0  0
  179.7770  180.9840  135.4100 C   0  0  0  0  0  0  0  0  0  0  0  0
  178.9310  181.8530  134.5960 C   0  0  0  0  0  1  0  0  0  0  0  0
  180.4780  180.2670  136.0820 C   0  0  0  0  0  0  0  0  0  0  0  0
  183.6130  176.4280  135.9840 C   0  0  0  0  0  2  0  0  0  0  0  0
  184.7940  175.9090  136.6550 N   0  0  0  0  0  2  0  0  0  0  0  0
  185.1400  174.6640  135.9920 C   0  0  0  0  0  2  0  0  0  0  0  0
  184.5410  172.2670  136.1090 C   0  0  0  0  0  1  0  0  0  0  0  0
  184.8820  173.4950  136.9240 C   0  0  1  0  0  3  0  0  0  0  0  0
  186.0190  173.2410  137.6890 O   0  0  0  0  0  1  0  0  0  0  0  0
  185.1770  179.0740  140.3250 N   0  0  0  0  0  2  0  0  0  0  0  0
  186.5110  179.0400  140.7540 N   0  0  0  0  0  2  0  0  0  0  0  0
  187.2550  177.9410  138.8340 O   0  0  0  0  0  0  0  0  0  0  0  0
  187.5360  178.4630  139.9440 C   0  0  0  0  0  0  0  0  0  0  0  0
  188.3530  178.5700  142.7180 O   0  0  0  0  0  0  0  0  0  0  0  0
  191.1780  177.3720  140.0540 C   0  0  1  0  0  3  0  0  0  0  0  0
  188.9590  178.5080  140.4020 C   0  0  1  0  0  3  0  0  0  0  0  0
  190.0330  177.0300  142.2070 N   0  0  0  0  0  0  0  0  0  0  0  0
  190.9430  176.4340  141.2270 C   0  0  0  0  0  2  0  0  0  0  0  0
  192.0520  176.6850  139.0270 C   0  0  0  0  0  1  0  0  0  0  0  0
  189.0740  178.0340  141.8300 C   0  0  0  0  0  0  0  0  0  0  0  0
  189.8320  177.7070  139.4330 C   0  0  0  0  0  2  0  0  0  0  0  0
  190.1180  176.6290  143.5020 O   0  0  0  0  0  0  0  0  0  0  0  0
  191.1730  177.3750  144.0570 C   0  0  0  0  0  2  0  0  0  0  0  0
  189.3090  177.5390  147.1290 C   0  0  2  0  0  0  0  0  0  0  0  0
  189.7360  178.3210  148.3580 C   0  0  0  0  0  1  0  0  0  0  0  0
  189.9120  176.1560  147.1830 C   0  0  0  0  0  2  0  0  0  0  0  0
  192.1380  175.6460  146.5460 F   0  0  0  0  0  0  0  0  0  0  0  0
  190.9240  176.0960  146.0560 C   0  0  2  0  0  3  0  0  0  0  0  0
  189.8760  178.1790  145.8800 C   0  0  0  0  0  2  0  0  0  0  0  0
  191.0800  177.4430  145.5150 N   0  0  0  0  0  0  0  0  0  0  0  0
  187.7890  177.4400  147.0510 C   0  0  0  0  0  2  0  0  0  0  0  0
  185.9410  177.9340  145.9480 C   0  0  0  0  0  1  0  0  0  0  0  0
  187.3260  177.8820  145.8070 O   0  0  0  0  0  0  0  0  0  0  0  0
  2  3  1  0  0  0  0
  3  4  1  0  0  0  0
  5 27  1  6  0  0  0
  5  9  1  0  0  0  0
  6  8  1  0  0  0  0
  6 11  1  1  0  0  0
  7  4  1  0  0  0  0
  8  1  1  6  0  0  0
  8  5  1  0  0  0  0
  9  7  1  0  0  0  0
 10  2  1  0  0  0  0
 11 10  1  0  0  0  0
 12 20  1  6  0  0  0
 12 13  1  0  0  0  0
 13 14  1  0  0  0  0
 14 16  1  6  0  0  0
 14  6  1  0  0  0  0
 15 17  1  0  0  0  0
 15 12  1  0  0  0  0
 17 21  1  6  0  0  0
 17 16  1  0  0  0  0
 18 20  3  0  0  0  0
 19 18  1  0  0  0  0
 21 22  1  0  0  0  0
 23 22  1  0  0  0  0
 23 25  1  0  0  0  0
 25 24  1  6  0  0  0
 25 26  1  0  0  0  0
 27 28  1  0  0  0  0
 29 30  2  0  0  0  0
 30 28  1  0  0  0  0
 32 36  1  6  0  0  0
 32 35  1  0  0  0  0
 33 30  1  6  0  0  0
 33 37  1  0  0  0  0
 34 39  1  0  0  0  0
 35 34  1  0  0  0  0
 37 34  1  0  0  0  0
 37 31  2  0  0  0  0
 38 32  1  0  0  0  0
 38 33  1  0  0  0  0
 39 40  1  0  0  0  0
 40 47  1  0  0  0  0
 41 43  1  0  0  0  0
 41 42  1  1  0  0  0
 45 44  1  1  0  0  0
 45 43  1  0  0  0  0
 46 41  1  0  0  0  0
 47 46  1  0  0  0  0
 47 45  1  0  0  0  0
 48 41  1  0  0  0  0
 50 49  1  0  0  0  0
 50 48  1  0  0  0  0
M  END
>  <MODEL>
4

>  <REMARK>
 VINA RESULT:      -6.6      2.580      7.101
  Name = 
  14 active torsions:
  status: ('A' for Active; 'I' for Inactive)
    1  A    between atoms: C_2  and  N_14
    2  A    between atoms: C_2  and  C_42
    3  A    between atoms: C_3  and  C_12
    4  A    between atoms: C_5  and  N_14
    5  A    between atoms: C_5  and  C_41
    6  A    between atoms: N_11  and  N_43
    7  A    between atoms: C_12  and  O_36
    8  A    between atoms: C_19  and  C_24
    9  A    between atoms: C_22  and  C_50
   10  A    between atoms: C_23  and  N_43
   11  A    between atoms: N_25  and  C_31
   12  A    between atoms: C_28  and  C_32
   13  A    between atoms: C_31  and  O_37
   14  A    between atoms: N_33  and  O_37
                            x       y       z     vdW  Elec       q    Type
                         _______ _______ _______ _____ _____    ______ ____

>  <TORSDO>
F 14

$$$$
=
 OpenBabel11062412573D

 50 53  0  0  1  0  0  0  0  0999 V2000
  182.7300  179.5610  137.8370 O   0  0  0  0  0  1  0  0  0  0  0  0
  184.3570  174.8260  135.8620 C   0  0  0  0  0  2  0  0  0  0  0  0
  185.1560  175.4900  134.7530 C   0  0  0  0  0  2  0  0  0  0  0  0
  186.3440  176.2760  135.2980 C   0  0  0  0  0  2  0  0  0  0  0  0
  184.8520  178.4890  138.0180 C   0  0  2  0  0  3  0  0  0  0  0  0
  182.6450  177.1480  138.1610 C   0  0  2  0  0  3  0  0  0  0  0  0
  185.9030  177.5830  135.9340 C   0  0  0  0  0  2  0  0  0  0  0  0
  183.3920  178.3650  137.5550 C   0  0  1  0  0  3  0  0  0  0  0  0
  185.7440  177.4000  137.4340 C   0  0  0  0  0  2  0  0  0  0  0  0
  183.2230  175.7300  136.3030 C   0  0  0  0  0  2  0  0  0  0  0  0
  183.2580  175.8760  137.7540 N   0  0  0  0  0  2  0  0  0  0  0  0
  180.6430  174.7300  138.4150 C   0  0  1  0  0  3  0  0  0  0  0  0
  180.5760  175.8360  137.3600 C   0  0  0  0  0  2  0  0  0  0  0  0
  181.1180  177.1670  137.9070 C   0  0  1  0  0  3  0  0  0  0  0  0
  179.8510  175.1340  139.6530 C   0  0  0  0  0  2  0  0  0  0  0  0
  180.3400  177.5540  139.1720 C   0  0  0  0  0  2  0  0  0  0  0  0
  180.4000  176.4420  140.2220 C   0  0  1  0  0  3  0  0  0  0  0  0
  179.6400  172.4710  137.4010 C   0  0  0  0  0  0  0  0  0  0  0  0
  179.0930  171.2370  136.8430 C   0  0  0  0  0  1  0  0  0  0  0  0
  180.0930  173.4910  137.8610 C   0  0  0  0  0  0  0  0  0  0  0  0
  179.6560  176.8400  141.4900 C   0  0  0  0  0  2  0  0  0  0  0  0
  179.8810  178.2400  141.8150 N   0  0  0  0  0  2  0  0  0  0  0  0
  180.5650  178.2680  143.0960 C   0  0  0  0  0  2  0  0  0  0  0  0
  182.6610  178.9140  144.2400 C   0  0  0  0  0  1  0  0  0  0  0  0
  181.8310  179.0950  142.9870 C   0  0  1  0  0  3  0  0  0  0  0  0
  182.5710  178.6840  141.8800 O   0  0  0  0  0  1  0  0  0  0  0  0
  184.9350  178.4910  139.4700 N   0  0  0  0  0  2  0  0  0  0  0  0
  186.2900  178.6330  139.7990 N   0  0  0  0  0  2  0  0  0  0  0  0
  185.9770  177.9410  142.0060 O   0  0  0  0  0  0  0  0  0  0  0  0
  186.7720  178.3220  141.1080 C   0  0  0  0  0  0  0  0  0  0  0  0
  187.9160  178.1130  143.7570 O   0  0  0  0  0  0  0  0  0  0  0  0
  190.4610  177.5230  140.6450 C   0  0  1  0  0  3  0  0  0  0  0  0
  188.2340  178.4170  141.4030 C   0  0  1  0  0  3  0  0  0  0  0  0
  189.6140  176.7970  142.8410 N   0  0  0  0  0  0  0  0  0  0  0  0
  190.4320  176.4160  141.6890 C   0  0  0  0  0  2  0  0  0  0  0  0
  191.2430  177.0550  139.4370 C   0  0  0  0  0  1  0  0  0  0  0  0
  188.5540  177.7630  142.7250 C   0  0  0  0  0  0  0  0  0  0  0  0
  189.0310  177.8300  140.2360 C   0  0  0  0  0  2  0  0  0  0  0  0
  189.8830  176.2310  144.0450 O   0  0  0  0  0  0  0  0  0  0  0  0
  190.9060  177.0150  144.6090 C   0  0  0  0  0  2  0  0  0  0  0  0
  188.7140  177.6700  147.3860 C   0  0  2  0  0  0  0  0  0  0  0  0
  189.0250  178.6230  148.5260 C   0  0  0  0  0  1  0  0  0  0  0  0
  189.2630  176.3030  147.7140 C   0  0  0  0  0  2  0  0  0  0  0  0
  191.5280  175.6690  147.4220 F   0  0  0  0  0  0  0  0  0  0  0  0
  190.3930  176.0580  146.7340 C   0  0  2  0  0  3  0  0  0  0  0  0
  189.4390  178.1060  146.1290 C   0  0  0  0  0  2  0  0  0  0  0  0
  190.6510  177.3050  146.0200 N   0  0  0  0  0  0  0  0  0  0  0  0
  187.2110  177.5840  147.1480 C   0  0  0  0  0  2  0  0  0  0  0  0
  185.2760  178.6320  146.9640 C   0  0  0  0  0  1  0  0  0  0  0  0
  186.6460  178.8610  147.0710 O   0  0  0  0  0  0  0  0  0  0  0  0
  2 10  1  0  0  0  0
  3  4  1  0  0  0  0
  3  2  1  0  0  0  0
  4  7  1  0  0  0  0
  5 27  1  1  0  0  0
  6 11  1  6  0  0  0
  7  9  1  0  0  0  0
  8  1  1  1  0  0  0
  8  5  1  0  0  0  0
  8  6  1  0  0  0  0
  9  5  1  0  0  0  0
 10 11  1  0  0  0  0
 12 20  1  6  0  0  0
 12 15  1  0  0  0  0
 13 12  1  0  0  0  0
 14 13  1  1  0  0  0
 14  6  1  0  0  0  0
 14 16  1  0  0  0  0
 15 17  1  0  0  0  0
 16 17  1  0  0  0  0
 17 21  1  1  0  0  0
 18 20  3  0  0  0  0
 19 18  1  0  0  0  0
 21 22  1  0  0  0  0
 22 23  1  0  0  0  0
 25 23  1  0  0  0  0
 25 24  1  1  0  0  0
 26 25  1  0  0  0  0
 27 28  1  0  0  0  0
 28 30  1  0  0  0  0
 30 29  2  0  0  0  0
 32 36  1  6  0  0  0
 32 35  1  0  0  0  0
 33 30  1  6  0  0  0
 33 37  1  0  0  0  0
 34 39  1  0  0  0  0
 35 34  1  0  0  0  0
 37 34  1  0  0  0  0
 37 31  2  0  0  0  0
 38 32  1  0  0  0  0
 38 33  1  0  0  0  0
 39 40  1  0  0  0  0
 40 47  1  0  0  0  0
 41 43  1  0  0  0  0
 41 42  1  1  0  0  0
 45 44  1  1  0  0  0
 45 43  1  0  0  0  0
 46 41  1  0  0  0  0
 47 46  1  0  0  0  0
 47 45  1  0  0  0  0
 48 41  1  0  0  0  0
 49 50  1  0  0  0  0
 50 48  1  0  0  0  0
M  END
>  <MODEL>
5

>  <REMARK>
 VINA RESULT:      -6.4      2.624      5.781
  Name = 
  14 active torsions:
  status: ('A' for Active; 'I' for Inactive)
    1  A    between atoms: C_2  and  N_14
    2  A    between atoms: C_2  and  C_42
    3  A    between atoms: C_3  and  C_12
    4  A    between atoms: C_5  and  N_14
    5  A    between atoms: C_5  and  C_41
    6  A    between atoms: N_11  and  N_43
    7  A    between atoms: C_12  and  O_36
    8  A    between atoms: C_19  and  C_24
    9  A    between atoms: C_22  and  C_50
   10  A    between atoms: C_23  and  N_43
   11  A    between atoms: N_25  and  C_31
   12  A    between atoms: C_28  and  C_32
   13  A    between atoms: C_31  and  O_37
   14  A    between atoms: N_33  and  O_37
                            x       y       z     vdW  Elec       q    Type
                         _______ _______ _______ _____ _____    ______ ____

>  <TORSDO>
F 14

$$$$
=
 OpenBabel11062412573D

 50 53  0  0  1  0  0  0  0  0999 V2000
  185.8410  177.2800  134.5940 O   0  0  0  0  0  1  0  0  0  0  0  0
  185.6690  172.3520  136.7520 C   0  0  0  0  0  2  0  0  0  0  0  0
  186.9770  171.9470  136.0910 C   0  0  0  0  0  2  0  0  0  0  0  0
  188.1620  172.7310  136.6460 C   0  0  0  0  0  2  0  0  0  0  0  0
  187.0820  176.3780  136.4180 C   0  0  2  0  0  3  0  0  0  0  0  0
  184.5820  175.8120  136.0750 C   0  0  2  0  0  3  0  0  0  0  0  0
  188.1890  174.1530  136.1130 C   0  0  0  0  0  2  0  0  0  0  0  0
  185.9420  176.1540  135.4120 C   0  0  1  0  0  3  0  0  0  0  0  0
  187.5170  175.0880  137.1040 C   0  0  0  0  0  2  0  0  0  0  0  0
  184.9920  173.4430  135.9460 C   0  0  0  0  0  2  0  0  0  0  0  0
  184.6460  174.5510  136.8280 N   0  0  0  0  0  2  0  0  0  0  0  0
  181.6320  174.8570  136.6320 C   0  0  1  0  0  3  0  0  0  0  0  0
  182.3880  174.6950  135.3120 C   0  0  0  0  0  2  0  0  0  0  0  0
  183.3870  175.8430  135.0910 C   0  0  1  0  0  3  0  0  0  0  0  0
  180.8930  176.1900  136.6560 C   0  0  0  0  0  2  0  0  0  0  0  0
  182.6430  177.1850  135.1490 C   0  0  0  0  0  2  0  0  0  0  0  0
  181.8810  177.3400  136.4660 C   0  0  1  0  0  3  0  0  0  0  0  0
  179.8870  172.8550  136.9110 C   0  0  0  0  0  0  0  0  0  0  0  0
  178.9320  171.7590  137.0590 C   0  0  0  0  0  1  0  0  0  0  0  0
  180.6760  173.7590  136.7870 C   0  0  0  0  0  0  0  0  0  0  0  0
  181.1700  178.6860  136.5370 C   0  0  0  0  0  2  0  0  0  0  0  0
  181.7470  179.5320  137.5700 N   0  0  0  0  0  2  0  0  0  0  0  0
  182.1220  178.6570  138.6670 C   0  0  0  0  0  2  0  0  0  0  0  0
  180.6410  177.2890  140.1000 C   0  0  0  0  0  1  0  0  0  0  0  0
  181.0590  178.7000  139.7470 C   0  0  1  0  0  3  0  0  0  0  0  0
  181.5640  179.3300  140.8830 O   0  0  0  0  0  1  0  0  0  0  0  0
  186.7100  177.3790  137.4060 N   0  0  0  0  0  2  0  0  0  0  0  0
  187.8600  177.6520  138.1600 N   0  0  0  0  0  2  0  0  0  0  0  0
  186.6590  178.6220  139.9110 O   0  0  0  0  0  0  0  0  0  0  0  0
  187.7740  178.2740  139.4430 C   0  0  0  0  0  0  0  0  0  0  0  0
  187.8040  178.6780  142.3080 O   0  0  0  0  0  0  0  0  0  0  0  0
  191.3160  177.5340  140.6140 C   0  0  1  0  0  3  0  0  0  0  0  0
  189.0140  178.4850  140.2510 C   0  0  1  0  0  3  0  0  0  0  0  0
  189.6590  177.2620  142.4150 N   0  0  0  0  0  0  0  0  0  0  0  0
  190.8370  176.6750  141.7740 C   0  0  0  0  0  2  0  0  0  0  0  0
  192.4780  176.8490  139.9280 C   0  0  0  0  0  1  0  0  0  0  0  0
  188.7710  178.1400  141.7000 C   0  0  0  0  0  0  0  0  0  0  0  0
  190.1680  177.6930  139.6320 C   0  0  0  0  0  2  0  0  0  0  0  0
  189.4180  176.9760  143.7210 O   0  0  0  0  0  0  0  0  0  0  0  0
  190.6690  177.0530  144.3580 C   0  0  0  0  0  2  0  0  0  0  0  0
  188.7200  177.7010  147.3120 C   0  0  2  0  0  0  0  0  0  0  0  0
  189.0760  178.7270  148.3740 C   0  0  0  0  0  1  0  0  0  0  0  0
  189.3910  176.3900  147.6410 C   0  0  0  0  0  2  0  0  0  0  0  0
  191.6550  175.8880  147.1490 F   0  0  0  0  0  0  0  0  0  0  0  0
  190.4330  176.1700  146.5630 C   0  0  2  0  0  3  0  0  0  0  0  0
  189.2870  178.1200  145.9720 C   0  0  0  0  0  2  0  0  0  0  0  0
  190.5350  177.3940  145.7750 N   0  0  0  0  0  0  0  0  0  0  0  0
  187.2100  177.5070  147.2310 C   0  0  0  0  0  2  0  0  0  0  0  0
  185.3140  178.5880  146.8950 C   0  0  0  0  0  1  0  0  0  0  0  0
  186.6250  178.4960  146.4330 O   0  0  0  0  0  0  0  0  0  0  0  0
  3  4  1  0  0  0  0
  3  2  1  0  0  0  0
  5  9  1  0  0  0  0
  5 27  1  1  0  0  0
  6 11  1  6  0  0  0
  7  4  1  0  0  0  0
  7  9  1  0  0  0  0
  8  1  1  1  0  0  0
  8  6  1  0  0  0  0
  8  5  1  0  0  0  0
 10  2  1  0  0  0  0
 10 11  1  0  0  0  0
 12 15  1  0  0  0  0
 12 20  1  6  0  0  0
 13 12  1  0  0  0  0
 14 16  1  1  0  0  0
 14 13  1  0  0  0  0
 14  6  1  0  0  0  0
 16 17  1  0  0  0  0
 17 21  1  6  0  0  0
 17 15  1  0  0  0  0
 18 19  1  0  0  0  0
 20 18  3  0  0  0  0
 21 22  1  0  0  0  0
 22 23  1  0  0  0  0
 23 25  1  0  0  0  0
 25 24  1  1  0  0  0
 25 26  1  0  0  0  0
 27 28  1  0  0  0  0
 28 30  1  0  0  0  0
 30 29  2  0  0  0  0
 32 36  1  6  0  0  0
 32 35  1  0  0  0  0
 33 30  1  6  0  0  0
 33 37  1  0  0  0  0
 34 39  1  0  0  0  0
 35 34  1  0  0  0  0
 37 31  2  0  0  0  0
 37 34  1  0  0  0  0
 38 33  1  0  0  0  0
 38 32  1  0  0  0  0
 39 40  1  0  0  0  0
 40 47  1  0  0  0  0
 41 43  1  0  0  0  0
 41 42  1  1  0  0  0
 45 44  1  1  0  0  0
 45 43  1  0  0  0  0
 46 41  1  0  0  0  0
 47 46  1  0  0  0  0
 47 45  1  0  0  0  0
 48 41  1  0  0  0  0
 50 49  1  0  0  0  0
 50 48  1  0  0  0  0
M  END
>  <MODEL>
6

>  <REMARK>
 VINA RESULT:      -6.3      2.575      4.878
  Name = 
  14 active torsions:
  status: ('A' for Active; 'I' for Inactive)
    1  A    between atoms: C_2  and  N_14
    2  A    between atoms: C_2  and  C_42
    3  A    between atoms: C_3  and  C_12
    4  A    between atoms: C_5  and  N_14
    5  A    between atoms: C_5  and  C_41
    6  A    between atoms: N_11  and  N_43
    7  A    between atoms: C_12  and  O_36
    8  A    between atoms: C_19  and  C_24
    9  A    between atoms: C_22  and  C_50
   10  A    between atoms: C_23  and  N_43
   11  A    between atoms: N_25  and  C_31
   12  A    between atoms: C_28  and  C_32
   13  A    between atoms: C_31  and  O_37
   14  A    between atoms: N_33  and  O_37
                            x       y       z     vdW  Elec       q    Type
                         _______ _______ _______ _____ _____    ______ ____

>  <TORSDO>
F 14

$$$$
=
 OpenBabel11062412573D

 50 53  0  0  1  0  0  0  0  0999 V2000
  186.7940  180.0650  141.3790 O   0  0  0  0  0  1  0  0  0  0  0  0
  186.3710  177.6590  146.1750 C   0  0  0  0  0  2  0  0  0  0  0  0
  185.3780  178.6920  146.6780 C   0  0  0  0  0  2  0  0  0  0  0  0
  184.0520  178.6210  145.9280 C   0  0  0  0  0  2  0  0  0  0  0  0
  185.0350  178.7100  142.2480 C   0  0  2  0  0  3  0  0  0  0  0  0
  187.5200  178.1540  142.7050 C   0  0  2  0  0  3  0  0  0  0  0  0
  184.1640  179.2230  144.5380 C   0  0  0  0  0  2  0  0  0  0  0  0
  186.4540  179.2560  142.4650 C   0  0  1  0  0  3  0  0  0  0  0  0
  184.4330  178.1270  143.5200 C   0  0  0  0  0  2  0  0  0  0  0  0
  187.2480  178.2590  145.0940 C   0  0  0  0  0  2  0  0  0  0  0  0
  187.2420  177.3860  143.9260 N   0  0  0  0  0  2  0  0  0  0  0  0
  190.0920  176.7160  143.8160 C   0  0  1  0  0  3  0  0  0  0  0  0
  189.8200  178.2200  143.8640 C   0  0  0  0  0  2  0  0  0  0  0  0
  188.9760  178.6790  142.6640 C   0  0  1  0  0  3  0  0  0  0  0  0
  190.8070  176.3510  142.5200 C   0  0  0  0  0  2  0  0  0  0  0  0
  189.6830  178.2800  141.3600 C   0  0  0  0  0  2  0  0  0  0  0  0
  189.9620  176.7760  141.3190 C   0  0  1  0  0  3  0  0  0  0  0  0
  191.6010  176.0160  145.9050 C   0  0  0  0  0  0  0  0  0  0  0  0
  192.4260  175.6360  147.0510 C   0  0  0  0  0  1  0  0  0  0  0  0
  190.9200  176.3310  144.9610 C   0  0  0  0  0  0  0  0  0  0  0  0
  190.6340  176.3760  140.0120 C   0  0  0  0  0  2  0  0  0  0  0  0
  190.3960  177.3660  138.9730 N   0  0  0  0  0  2  0  0  0  0  0  0
  189.3850  176.8120  138.0900 C   0  0  0  0  0  2  0  0  0  0  0  0
  187.3950  177.5140  136.7970 C   0  0  0  0  0  1  0  0  0  0  0  0
  188.7870  177.9140  137.2350 C   0  0  1  0  0  3  0  0  0  0  0  0
  188.7180  179.0970  137.9690 O   0  0  0  0  0  1  0  0  0  0  0  0
  185.0200  177.7220  141.1790 N   0  0  0  0  0  2  0  0  0  0  0  0
  183.6940  177.6230  140.7370 N   0  0  0  0  0  2  0  0  0  0  0  0
  183.8620  179.4940  139.3520 O   0  0  0  0  0  0  0  0  0  0  0  0
  183.1580  178.5470  139.7880 C   0  0  0  0  0  0  0  0  0  0  0  0
  182.4280  178.4980  136.9890 O   0  0  0  0  0  0  0  0  0  0  0  0
  179.7300  176.9120  139.5810 C   0  0  1  0  0  3  0  0  0  0  0  0
  181.7610  178.3690  139.2850 C   0  0  1  0  0  3  0  0  0  0  0  0
  180.9850  176.7250  137.4700 N   0  0  0  0  0  0  0  0  0  0  0  0
  180.1440  176.0080  138.4300 C   0  0  0  0  0  2  0  0  0  0  0  0
  178.9370  176.1110  140.5900 C   0  0  0  0  0  1  0  0  0  0  0  0
  181.7680  177.8680  137.8610 C   0  0  0  0  0  0  0  0  0  0  0  0
  180.9870  177.4550  140.2380 C   0  0  0  0  0  2  0  0  0  0  0  0
  181.0060  176.3030  136.1800 O   0  0  0  0  0  0  0  0  0  0  0  0
  182.2940  175.7780  135.9780 C   0  0  0  0  0  2  0  0  0  0  0  0
  183.7570  172.5310  136.4930 C   0  0  2  0  0  0  0  0  0  0  0  0
  183.0700  171.3780  137.2020 C   0  0  0  0  0  1  0  0  0  0  0  0
  184.4780  173.3830  137.5090 C   0  0  0  0  0  2  0  0  0  0  0  0
  183.4310  175.0320  138.8520 F   0  0  0  0  0  0  0  0  0  0  0  0
  183.7420  174.7080  137.5440 C   0  0  2  0  0  3  0  0  0  0  0  0
  182.7260  173.4430  135.8610 C   0  0  0  0  0  2  0  0  0  0  0  0
  182.5160  174.5650  136.7660 N   0  0  0  0  0  0  0  0  0  0  0  0
  184.7430  172.0170  135.4510 C   0  0  0  0  0  2  0  0  0  0  0  0
  186.7740  171.2820  134.9890 C   0  0  0  0  0  1  0  0  0  0  0  0
  186.0140  171.8490  136.0110 O   0  0  0  0  0  0  0  0  0  0  0  0
  2  3  1  0  0  0  0
  4  3  1  0  0  0  0
  5 27  1  6  0  0  0
  5  8  1  0  0  0  0
  5  9  1  0  0  0  0
  6 11  1  1  0  0  0
  7  4  1  0  0  0  0
  8  1  1  6  0  0  0
  8  6  1  0  0  0  0
  9  7  1  0  0  0  0
 10  2  1  0  0  0  0
 11 10  1  0  0  0  0
 12 13  1  0  0  0  0
 12 20  1  1  0  0  0
 14 16  1  6  0  0  0
 14  6  1  0  0  0  0
 14 13  1  0  0  0  0
 15 12  1  0  0  0  0
 17 21  1  6  0  0  0
 17 16  1  0  0  0  0
 17 15  1  0  0  0  0
 18 19  1  0  0  0  0
 20 18  3  0  0  0  0
 22 21  1  0  0  0  0
 23 22  1  0  0  0  0
 25 24  1  1  0  0  0
 25 26  1  0  0  0  0
 25 23  1  0  0  0  0
 28 27  1  0  0  0  0
 29 30  2  0  0  0  0
 30 28  1  0  0  0  0
 31 37  2  0  0  0  0
 32 38  1  0  0  0  0
 32 36  1  1  0  0  0
 33 30  1  1  0  0  0
 33 38  1  0  0  0  0
 34 37  1  0  0  0  0
 34 35  1  0  0  0  0
 35 32  1  0  0  0  0
 37 33  1  0  0  0  0
 39 34  1  0  0  0  0
 40 39  1  0  0  0  0
 40 47  1  0  0  0  0
 41 42  1  1  0  0  0
 41 43  1  0  0  0  0
 43 45  1  0  0  0  0
 45 44  1  1  0  0  0
 46 41  1  0  0  0  0
 46 47  1  0  0  0  0
 47 45  1  0  0  0  0
 48 50  1  0  0  0  0
 48 41  1  0  0  0  0
 49 50  1  0  0  0  0
M  END
>  <MODEL>
7

>  <REMARK>
 VINA RESULT:      -6.3      2.613      9.765
  Name = 
  14 active torsions:
  status: ('A' for Active; 'I' for Inactive)
    1  A    between atoms: C_2  and  N_14
    2  A    between atoms: C_2  and  C_42
    3  A    between atoms: C_3  and  C_12
    4  A    between atoms: C_5  and  N_14
    5  A    between atoms: C_5  and  C_41
    6  A    between atoms: N_11  and  N_43
    7  A    between atoms: C_12  and  O_36
    8  A    between atoms: C_19  and  C_24
    9  A    between atoms: C_22  and  C_50
   10  A    between atoms: C_23  and  N_43
   11  A    between atoms: N_25  and  C_31
   12  A    between atoms: C_28  and  C_32
   13  A    between atoms: C_31  and  O_37
   14  A    between atoms: N_33  and  O_37
                            x       y       z     vdW  Elec       q    Type
                         _______ _______ _______ _____ _____    ______ ____

>  <TORSDO>
F 14

$$$$
=
 OpenBabel11062412573D

 50 53  0  0  1  0  0  0  0  0999 V2000
  186.7290  178.5210  134.5940 O   0  0  0  0  0  1  0  0  0  0  0  0
  189.0130  173.8090  135.8390 C   0  0  0  0  0  2  0  0  0  0  0  0
  190.3040  174.1730  135.1240 C   0  0  0  0  0  2  0  0  0  0  0  0
  191.0350  175.3190  135.8160 C   0  0  0  0  0  2  0  0  0  0  0  0
  188.3840  178.0240  136.2350 C   0  0  2  0  0  3  0  0  0  0  0  0
  186.4070  176.4200  135.7830 C   0  0  2  0  0  3  0  0  0  0  0  0
  190.3630  176.6540  135.5450 C   0  0  0  0  0  2  0  0  0  0  0  0
  187.4010  177.4580  135.1990 C   0  0  1  0  0  3  0  0  0  0  0  0
  189.4160  176.9950  136.6830 C   0  0  0  0  0  2  0  0  0  0  0  0
  187.8490  174.5710  135.2370 C   0  0  0  0  0  2  0  0  0  0  0  0
  187.1020  175.2320  136.3000 N   0  0  0  0  0  2  0  0  0  0  0  0
  184.1580  174.2610  136.2380 C   0  0  1  0  0  3  0  0  0  0  0  0
  184.8420  174.5690  134.9050 C   0  0  0  0  0  2  0  0  0  0  0  0
  185.2580  176.0460  134.8140 C   0  0  1  0  0  3  0  0  0  0  0  0
  182.9320  175.1500  136.4180 C   0  0  0  0  0  2  0  0  0  0  0  0
  184.0270  176.9380  135.0290 C   0  0  0  0  0  2  0  0  0  0  0  0
  183.3390  176.6220  136.3580 C   0  0  1  0  0  3  0  0  0  0  0  0
  183.4230  171.6950  136.2920 C   0  0  0  0  0  0  0  0  0  0  0  0
  183.0200  170.2900  136.3170 C   0  0  0  0  0  1  0  0  0  0  0  0
  183.7560  172.8540  136.2690 C   0  0  0  0  0  0  0  0  0  0  0  0
  182.1360  177.5290  136.5860 C   0  0  0  0  0  2  0  0  0  0  0  0
  181.8170  177.6340  138.0010 N   0  0  0  0  0  2  0  0  0  0  0  0
  182.5620  178.7690  138.5160 C   0  0  0  0  0  2  0  0  0  0  0  0
  182.9610  177.0630  140.2630 C   0  0  0  0  0  1  0  0  0  0  0  0
  183.5120  178.3100  139.6060 C   0  0  1  0  0  3  0  0  0  0  0  0
  184.7610  178.0290  139.0580 O   0  0  0  0  0  1  0  0  0  0  0  0
  187.6730  178.5630  137.3830 N   0  0  0  0  0  2  0  0  0  0  0  0
  188.6360  178.8500  138.3600 N   0  0  0  0  0  2  0  0  0  0  0  0
  188.3100  176.8300  139.4830 O   0  0  0  0  0  0  0  0  0  0  0  0
  188.9340  177.9200  139.4030 C   0  0  0  0  0  0  0  0  0  0  0  0
  188.4960  178.3350  142.2320 O   0  0  0  0  0  0  0  0  0  0  0  0
  192.3000  177.4570  141.1100 C   0  0  1  0  0  3  0  0  0  0  0  0
  190.0170  178.2280  140.3870 C   0  0  1  0  0  3  0  0  0  0  0  0
  190.4130  177.0650  142.6420 N   0  0  0  0  0  0  0  0  0  0  0  0
  191.7150  176.5680  142.1970 C   0  0  0  0  0  2  0  0  0  0  0  0
  193.6020  176.8600  140.6190 C   0  0  0  0  0  1  0  0  0  0  0  0
  189.5820  177.8710  141.7870 C   0  0  0  0  0  0  0  0  0  0  0  0
  191.3080  177.5240  139.9620 C   0  0  0  0  0  2  0  0  0  0  0  0
  189.9980  176.7670  143.9000 O   0  0  0  0  0  0  0  0  0  0  0  0
  190.9850  177.2880  144.7550 C   0  0  0  0  0  2  0  0  0  0  0  0
  188.3000  177.7360  147.1080 C   0  0  2  0  0  0  0  0  0  0  0  0
  188.3490  178.6650  148.3080 C   0  0  0  0  0  1  0  0  0  0  0  0
  188.8580  176.3890  147.4970 C   0  0  0  0  0  2  0  0  0  0  0  0
  191.1710  175.8820  147.6010 F   0  0  0  0  0  0  0  0  0  0  0  0
  190.1560  176.2350  146.7290 C   0  0  2  0  0  3  0  0  0  0  0  0
  189.2110  178.2500  146.0130 C   0  0  0  0  0  2  0  0  0  0  0  0
  190.4670  177.5160  146.1040 N   0  0  0  0  0  0  0  0  0  0  0  0
  186.8710  177.5810  146.6010 C   0  0  0  0  0  2  0  0  0  0  0  0
  185.2000  178.6350  145.6150 C   0  0  0  0  0  1  0  0  0  0  0  0
  186.2300  178.8230  146.5340 O   0  0  0  0  0  0  0  0  0  0  0  0
  3  4  1  0  0  0  0
  3  2  1  0  0  0  0
  5  9  1  0  0  0  0
  5 27  1  1  0  0  0
  6 11  1  6  0  0  0
  7  4  1  0  0  0  0
  7  9  1  0  0  0  0
  8  1  1  1  0  0  0
  8  6  1  0  0  0  0
  8  5  1  0  0  0  0
 10  2  1  0  0  0  0
 10 11  1  0  0  0  0
 12 20  1  6  0  0  0
 12 15  1  0  0  0  0
 13 12  1  0  0  0  0
 14 13  1  1  0  0  0
 14 16  1  0  0  0  0
 14  6  1  0  0  0  0
 16 17  1  0  0  0  0
 17 15  1  0  0  0  0
 17 21  1  6  0  0  0
 18 19  1  0  0  0  0
 20 18  3  0  0  0  0
 21 22  1  0  0  0  0
 22 23  1  0  0  0  0
 23 25  1  0  0  0  0
 25 24  1  6  0  0  0
 26 25  1  0  0  0  0
 27 28  1  0  0  0  0
 28 30  1  0  0  0  0
 30 29  2  0  0  0  0
 32 36  1  6  0  0  0
 32 35  1  0  0  0  0
 33 30  1  6  0  0  0
 33 37  1  0  0  0  0
 34 39  1  0  0  0  0
 35 34  1  0  0  0  0
 37 31  2  0  0  0  0
 37 34  1  0  0  0  0
 38 33  1  0  0  0  0
 38 32  1  0  0  0  0
 39 40  1  0  0  0  0
 40 47  1  0  0  0  0
 41 43  1  0  0  0  0
 41 42  1  1  0  0  0
 45 43  1  0  0  0  0
 45 44  1  1  0  0  0
 46 47  1  0  0  0  0
 46 41  1  0  0  0  0
 47 45  1  0  0  0  0
 48 41  1  0  0  0  0
 49 50  1  0  0  0  0
 50 48  1  0  0  0  0
M  END
>  <MODEL>
8

>  <REMARK>
 VINA RESULT:      -6.0      2.187      3.841
  Name = 
  14 active torsions:
  status: ('A' for Active; 'I' for Inactive)
    1  A    between atoms: C_2  and  N_14
    2  A    between atoms: C_2  and  C_42
    3  A    between atoms: C_3  and  C_12
    4  A    between atoms: C_5  and  N_14
    5  A    between atoms: C_5  and  C_41
    6  A    between atoms: N_11  and  N_43
    7  A    between atoms: C_12  and  O_36
    8  A    between atoms: C_19  and  C_24
    9  A    between atoms: C_22  and  C_50
   10  A    between atoms: C_23  and  N_43
   11  A    between atoms: N_25  and  C_31
   12  A    between atoms: C_28  and  C_32
   13  A    between atoms: C_31  and  O_37
   14  A    between atoms: N_33  and  O_37
                            x       y       z     vdW  Elec       q    Type
                         _______ _______ _______ _____ _____    ______ ____

>  <TORSDO>
F 14

$$$$
=
 OpenBabel11062412573D

 50 53  0  0  1  0  0  0  0  0999 V2000
  183.4850  176.9360  138.8980 O   0  0  0  0  0  1  0  0  0  0  0  0
  181.4480  179.5940  143.1120 C   0  0  0  0  0  2  0  0  0  0  0  0
  182.0450  178.6090  144.1030 C   0  0  0  0  0  2  0  0  0  0  0  0
  183.5690  178.6720  144.1210 C   0  0  0  0  0  2  0  0  0  0  0  0
  184.5750  178.3730  140.4570 C   0  0  2  0  0  3  0  0  0  0  0  0
  182.2030  178.8960  139.5690 C   0  0  2  0  0  3  0  0  0  0  0  0
  184.1690  177.9970  142.8990 C   0  0  0  0  0  2  0  0  0  0  0  0
  183.2360  177.8070  139.9610 C   0  0  1  0  0  3  0  0  0  0  0  0
  184.4570  179.0330  141.8260 C   0  0  0  0  0  2  0  0  0  0  0  0
  181.2310  178.9190  141.7720 C   0  0  0  0  0  2  0  0  0  0  0  0
  181.8320  179.7310  140.7200 N   0  0  0  0  0  2  0  0  0  0  0  0
  181.0580  179.8430  136.7910 C   0  0  1  0  0  3  0  0  0  0  0  0
  180.2250  179.3980  137.9950 C   0  0  0  0  0  2  0  0  0  0  0  0
  180.9620  178.3380  138.8290 C   0  0  1  0  0  3  0  0  0  0  0  0
  181.3940  178.6430  135.9120 C   0  0  0  0  0  2  0  0  0  0  0  0
  181.3290  177.1460  137.9320 C   0  0  0  0  0  2  0  0  0  0  0  0
  182.1540  177.5950  136.7240 C   0  0  1  0  0  3  0  0  0  0  0  0
  179.6880  181.6440  135.3750 C   0  0  0  0  0  0  0  0  0  0  0  0
  178.9380  182.6330  134.6030 C   0  0  0  0  0  1  0  0  0  0  0  0
  180.3070  180.8290  136.0130 C   0  0  0  0  0  0  0  0  0  0  0  0
  182.5450  176.4080  135.8530 C   0  0  0  0  0  2  0  0  0  0  0  0
  182.3380  175.1500  136.5530 N   0  0  0  0  0  2  0  0  0  0  0  0
  182.1710  174.1270  135.5370 C   0  0  0  0  0  2  0  0  0  0  0  0
  183.2650  172.1690  136.5810 C   0  0  0  0  0  1  0  0  0  0  0  0
  181.9360  172.7800  136.1940 C   0  0  1  0  0  3  0  0  0  0  0  0
  181.1530  172.9410  137.3350 O   0  0  0  0  0  1  0  0  0  0  0  0
  185.1330  179.3050  139.4900 N   0  0  0  0  0  2  0  0  0  0  0  0
  186.2970  178.7130  138.9810 N   0  0  0  0  0  2  0  0  0  0  0  0
  185.4530  178.5760  136.8090 O   0  0  0  0  0  0  0  0  0  0  0  0
  186.4140  178.3760  137.5970 C   0  0  0  0  0  0  0  0  0  0  0  0
  189.0320  179.0640  138.6160 O   0  0  0  0  0  0  0  0  0  0  0  0
  188.7830  175.6250  136.4680 C   0  0  1  0  0  3  0  0  0  0  0  0
  187.6950  177.8110  137.0750 C   0  0  1  0  0  3  0  0  0  0  0  0
  189.6050  176.8040  138.4670 N   0  0  0  0  0  0  0  0  0  0  0  0
  189.4130  175.4930  137.8460 C   0  0  0  0  0  2  0  0  0  0  0  0
  188.5230  174.2460  135.8990 C   0  0  0  0  0  1  0  0  0  0  0  0
  188.7910  177.9350  138.1060 C   0  0  0  0  0  0  0  0  0  0  0  0
  187.4680  176.3700  136.6130 C   0  0  0  0  0  2  0  0  0  0  0  0
  190.5880  176.9490  139.3920 O   0  0  0  0  0  0  0  0  0  0  0  0
  189.9650  176.7460  140.6370 C   0  0  0  0  0  2  0  0  0  0  0  0
  190.2750  177.8370  144.0510 C   0  0  2  0  0  0  0  0  0  0  0  0
  190.6320  179.2490  144.4780 C   0  0  0  0  0  1  0  0  0  0  0  0
  191.5420  177.0440  143.8420 C   0  0  0  0  0  2  0  0  0  0  0  0
  192.8670  177.1380  141.8780 F   0  0  0  0  0  0  0  0  0  0  0  0
  191.6220  176.7650  142.3540 C   0  0  2  0  0  3  0  0  0  0  0  0
  189.5850  177.8570  142.7040 C   0  0  0  0  0  2  0  0  0  0  0  0
  190.5860  177.5500  141.6900 N   0  0  0  0  0  0  0  0  0  0  0  0
  189.4040  177.1580  145.1020 C   0  0  0  0  0  2  0  0  0  0  0  0
  188.9770  176.8660  147.2480 C   0  0  0  0  0  1  0  0  0  0  0  0
  189.9840  177.2610  146.3700 O   0  0  0  0  0  0  0  0  0  0  0  0
  2  3  1  0  0  0  0
  3  4  1  0  0  0  0
  5 27  1  6  0  0  0
  5  9  1  0  0  0  0
  6  8  1  0  0  0  0
  6 11  1  1  0  0  0
  7  4  1  0  0  0  0
  8  1  1  6  0  0  0
  8  5  1  0  0  0  0
  9  7  1  0  0  0  0
 10  2  1  0  0  0  0
 11 10  1  0  0  0  0
 12 20  1  6  0  0  0
 12 13  1  0  0  0  0
 13 14  1  0  0  0  0
 14 16  1  6  0  0  0
 14  6  1  0  0  0  0
 15 17  1  0  0  0  0
 15 12  1  0  0  0  0
 17 21  1  6  0  0  0
 17 16  1  0  0  0  0
 18 20  3  0  0  0  0
 19 18  1  0  0  0  0
 21 22  1  0  0  0  0
 23 25  1  0  0  0  0
 23 22  1  0  0  0  0
 25 24  1  1  0  0  0
 25 26  1  0  0  0  0
 28 27  1  0  0  0  0
 29 30  2  0  0  0  0
 30 28  1  0  0  0  0
 32 36  1  1  0  0  0
 32 38  1  0  0  0  0
 32 35  1  0  0  0  0
 33 30  1  1  0  0  0
 33 37  1  0  0  0  0
 34 39  1  0  0  0  0
 35 34  1  0  0  0  0
 37 34  1  0  0  0  0
 37 31  2  0  0  0  0
 38 33  1  0  0  0  0
 39 40  1  0  0  0  0
 40 47  1  0  0  0  0
 41 42  1  1  0  0  0
 41 48  1  0  0  0  0
 43 41  1  0  0  0  0
 45 44  1  6  0  0  0
 45 43  1  0  0  0  0
 46 41  1  0  0  0  0
 47 45  1  0  0  0  0
 47 46  1  0  0  0  0
 48 50  1  0  0  0  0
 50 49  1  0  0  0  0
M  END
>  <MODEL>
9

>  <REMARK>
 VINA RESULT:      -5.9      2.839      7.906
  Name = 
  14 active torsions:
  status: ('A' for Active; 'I' for Inactive)
    1  A    between atoms: C_2  and  N_14
    2  A    between atoms: C_2  and  C_42
    3  A    between atoms: C_3  and  C_12
    4  A    between atoms: C_5  and  N_14
    5  A    between atoms: C_5  and  C_41
    6  A    between atoms: N_11  and  N_43
    7  A    between atoms: C_12  and  O_36
    8  A    between atoms: C_19  and  C_24
    9  A    between atoms: C_22  and  C_50
   10  A    between atoms: C_23  and  N_43
   11  A    between atoms: N_25  and  C_31
   12  A    between atoms: C_28  and  C_32
   13  A    between atoms: C_31  and  O_37
   14  A    between atoms: N_33  and  O_37
                            x       y       z     vdW  Elec       q    Type
                         _______ _______ _______ _____ _____    ______ ____

>  <TORSDO>
F 14

$$$$
