=
 OpenBabel11062417193D

 26 30  0  0  1  0  0  0  0  0999 V2000
  189.4000  176.7590  146.3580 O   0  0  0  0  0  1  0  0  0  0  0  0
  186.2500  178.5100  147.1080 C   0  0  0  0  0  3  0  0  0  0  0  0
  187.5150  177.9430  147.2500 C   0  0  0  0  0  3  0  0  0  0  0  0
  182.4550  179.4310  144.3440 C   0  0  0  0  0  3  0  0  0  0  0  0
  187.5310  177.3030  144.8990 C   0  0  0  0  0  0  0  0  0  0  0  0
  183.3600  178.4590  142.4610 C   0  0  0  0  0  0  0  0  0  0  0  0
  188.1480  177.3340  146.1660 C   0  0  0  0  0  0  0  0  0  0  0  0
  184.3690  178.9970  145.7820 O   0  0  0  0  0  0  0  0  0  0  0  0
  183.7160  178.9540  144.6340 C   0  0  0  0  0  0  0  0  0  0  0  0
  186.2320  177.8450  144.7540 C   0  0  0  0  0  0  0  0  0  0  0  0
  185.5450  177.7820  143.5230 C   0  0  0  0  0  3  0  0  0  0  0  0
  184.2820  178.3470  143.4700 C   0  0  0  0  0  0  0  0  0  0  0  0
  182.2530  179.1210  142.9960 C   0  0  0  0  0  0  0  0  0  0  0  0
  185.5920  178.4650  145.8800 C   0  0  0  0  0  0  0  0  0  0  0  0
  192.0020  178.3730  142.9790 O   0  0  0  0  0  0  0  0  0  0  0  0
  189.7350  178.8120  143.6630 C   0  0  0  0  0  2  0  0  0  0  0  0
  188.2430  176.6140  143.7530 C   0  0  2  0  0  3  0  0  0  0  0  0
  189.3940  177.3920  143.2060 C   0  0  0  0  0  0  0  0  0  0  0  0
  191.2160  178.8550  144.0420 C   0  0  0  0  0  2  0  0  0  0  0  0
  190.4380  176.6380  142.3940 C   0  0  0  0  0  2  0  0  0  0  0  0
  191.8210  176.9770  142.9490 C   0  0  0  0  0  2  0  0  0  0  0  0
  188.1480  177.3730  142.5640 O   0  0  0  0  0  0  0  0  0  0  0  0
  180.9900  179.4060  142.2590 C   0  0  0  0  0  2  0  0  0  0  0  0
  180.3250  180.4740  142.8610 O   0  0  0  0  0  1  0  0  0  0  0  0
  184.2040  178.9240  140.1920 C   0  0  0  0  0  1  0  0  0  0  0  0
  183.4940  177.9180  141.0750 C   0  0  0  0  0  2  0  0  0  0  0  0
  2  3  1  0  0  0  0
  4  9  2  0  0  0  0
  5  7  1  0  0  0  0
  6 13  2  0  0  0  0
  6 12  1  0  0  0  0
  7  1  1  0  0  0  0
  7  3  2  0  0  0  0
  8 14  1  0  0  0  0
  9  8  1  0  0  0  0
 10  5  2  0  0  0  0
 10 14  1  0  0  0  0
 11 10  1  0  0  0  0
 12 11  2  0  0  0  0
 12  9  1  0  0  0  0
 13  4  1  0  0  0  0
 14  2  2  0  0  0  0
 15 19  1  0  0  0  0
 16 19  1  0  0  0  0
 17  5  1  1  0  0  0
 18 16  1  0  0  0  0
 18 17  1  0  0  0  0
 20 21  1  0  0  0  0
 20 18  1  0  0  0  0
 21 15  1  0  0  0  0
 22 18  1  0  0  0  0
 22 17  1  0  0  0  0
 23 24  1  0  0  0  0
 23 13  1  0  0  0  0
 25 26  1  0  0  0  0
 26  6  1  0  0  0  0
M  END
>  <MODEL>
1

>  <REMARK>
 VINA RESULT:      -9.7      0.000      0.000
  Name = 
  3 active torsions:
  status: ('A' for Active; 'I' for Inactive)
    1  A    between atoms: C_7  and  C_10
    2  A    between atoms: C_9  and  C_25
    3  A    between atoms: C_11  and  C_23
                            x       y       z     vdW  Elec       q    Type
                         _______ _______ _______ _____ _____    ______ ____

>  <TORSDO>
F 3

$$$$
=
 OpenBabel11062417193D

 26 30  0  0  1  0  0  0  0  0999 V2000
  191.4570  176.7400  139.5120 O   0  0  0  0  0  1  0  0  0  0  0  0
  188.2710  178.5770  139.3510 C   0  0  0  0  0  3  0  0  0  0  0  0
  189.5030  178.0330  138.9970 C   0  0  0  0  0  3  0  0  0  0  0  0
  184.8650  179.2170  142.6510 C   0  0  0  0  0  3  0  0  0  0  0  0
  189.6960  176.9600  141.1770 C   0  0  0  0  0  0  0  0  0  0  0  0
  185.9220  177.9420  144.2540 C   0  0  0  0  0  0  0  0  0  0  0  0
  190.2190  177.2430  139.8980 C   0  0  0  0  0  0  0  0  0  0  0  0
  186.5650  178.9060  140.9370 O   0  0  0  0  0  0  0  0  0  0  0  0
  186.0460  178.7200  142.1380 C   0  0  0  0  0  0  0  0  0  0  0  0
  188.4610  177.5370  141.5570 C   0  0  0  0  0  0  0  0  0  0  0  0
  187.9260  177.3360  142.8470 C   0  0  0  0  0  3  0  0  0  0  0  0
  186.7080  177.9310  143.1300 C   0  0  0  0  0  0  0  0  0  0  0  0
  184.8030  178.7230  143.9570 C   0  0  0  0  0  0  0  0  0  0  0  0
  187.7390  178.3500  140.6200 C   0  0  0  0  0  0  0  0  0  0  0  0
  191.5730  178.2780  145.5990 O   0  0  0  0  0  0  0  0  0  0  0  0
  191.2100  178.4370  143.2240 C   0  0  0  0  0  2  0  0  0  0  0  0
  190.5130  176.1150  142.1330 C   0  0  2  0  0  3  0  0  0  0  0  0
  191.2070  176.9070  143.1910 C   0  0  0  0  0  0  0  0  0  0  0  0
  190.7720  178.8910  144.6170 C   0  0  0  0  0  2  0  0  0  0  0  0
  191.6650  176.1690  144.4420 C   0  0  0  0  0  2  0  0  0  0  0  0
  191.1630  176.9340  145.6670 C   0  0  0  0  0  2  0  0  0  0  0  0
  191.8860  176.4420  142.0560 O   0  0  0  0  0  0  0  0  0  0  0  0
  183.7110  179.0500  144.9170 C   0  0  0  0  0  2  0  0  0  0  0  0
  182.4820  178.6670  144.3790 O   0  0  0  0  0  1  0  0  0  0  0  0
  187.3800  178.0310  146.2390 C   0  0  0  0  0  1  0  0  0  0  0  0
  186.2390  177.2960  145.5620 C   0  0  0  0  0  2  0  0  0  0  0  0
  1  7  1  0  0  0  0
  2 14  1  0  0  0  0
  3  2  2  0  0  0  0
  3  7  1  0  0  0  0
  4 13  1  0  0  0  0
  5 10  1  0  0  0  0
  6 26  1  0  0  0  0
  7  5  2  0  0  0  0
  8  9  1  0  0  0  0
  9  4  2  0  0  0  0
  9 12  1  0  0  0  0
 10 11  1  0  0  0  0
 11 12  2  0  0  0  0
 12  6  1  0  0  0  0
 13  6  2  0  0  0  0
 13 23  1  0  0  0  0
 14  8  1  0  0  0  0
 14 10  2  0  0  0  0
 15 21  1  0  0  0  0
 16 19  1  0  0  0  0
 17  5  1  6  0  0  0
 17 18  1  0  0  0  0
 18 16  1  0  0  0  0
 18 20  1  0  0  0  0
 19 15  1  0  0  0  0
 20 21  1  0  0  0  0
 22 17  1  0  0  0  0
 22 18  1  0  0  0  0
 24 23  1  0  0  0  0
 26 25  1  0  0  0  0
M  END
>  <MODEL>
2

>  <REMARK>
 VINA RESULT:      -8.8      2.117      4.502
  Name = 
  3 active torsions:
  status: ('A' for Active; 'I' for Inactive)
    1  A    between atoms: C_7  and  C_10
    2  A    between atoms: C_9  and  C_25
    3  A    between atoms: C_11  and  C_23
                            x       y       z     vdW  Elec       q    Type
                         _______ _______ _______ _____ _____    ______ ____

>  <TORSDO>
F 3

$$$$
=
 OpenBabel11062417193D

 26 30  0  0  1  0  0  0  0  0999 V2000
  183.0580  179.9220  143.5420 O   0  0  0  0  0  1  0  0  0  0  0  0
  184.6630  178.3540  146.4600 C   0  0  0  0  0  3  0  0  0  0  0  0
  183.7100  178.9450  145.6330 C   0  0  0  0  0  3  0  0  0  0  0  0
  189.1560  176.8450  147.1180 C   0  0  0  0  0  3  0  0  0  0  0  0
  185.3210  179.0690  143.8090 C   0  0  0  0  0  0  0  0  0  0  0  0
  189.8470  177.3980  144.9900 C   0  0  0  0  0  0  0  0  0  0  0  0
  184.0320  179.3120  144.3250 C   0  0  0  0  0  0  0  0  0  0  0  0
  186.8560  177.5860  146.8230 O   0  0  0  0  0  0  0  0  0  0  0  0
  188.0960  177.3790  146.4140 C   0  0  0  0  0  0  0  0  0  0  0  0
  186.3050  178.5020  144.6530 C   0  0  0  0  0  0  0  0  0  0  0  0
  187.6260  178.2980  144.2030 C   0  0  0  0  0  3  0  0  0  0  0  0
  188.5200  177.7280  145.0940 C   0  0  0  0  0  0  0  0  0  0  0  0
  190.2280  176.8600  146.2210 C   0  0  0  0  0  0  0  0  0  0  0  0
  185.9590  178.1320  145.9970 C   0  0  0  0  0  0  0  0  0  0  0  0
  182.7500  178.0820  139.6560 O   0  0  0  0  0  0  0  0  0  0  0  0
  183.9590  177.5670  141.6740 C   0  0  0  0  0  2  0  0  0  0  0  0
  185.6360  179.5020  142.3910 C   0  0  2  0  0  3  0  0  0  0  0  0
  184.8700  178.7540  141.3510 C   0  0  0  0  0  0  0  0  0  0  0  0
  182.5960  177.8150  141.0300 C   0  0  0  0  0  2  0  0  0  0  0  0
  184.7530  179.3820  139.9680 C   0  0  0  0  0  2  0  0  0  0  0  0
  183.2800  179.3830  139.5600 C   0  0  0  0  0  2  0  0  0  0  0  0
  186.2040  178.4410  141.6490 O   0  0  0  0  0  0  0  0  0  0  0  0
  191.6070  176.4180  146.5700 C   0  0  0  0  0  2  0  0  0  0  0  0
  191.9580  176.9170  147.8240 O   0  0  0  0  0  1  0  0  0  0  0  0
  191.3300  179.0220  143.8770 C   0  0  0  0  0  1  0  0  0  0  0  0
  190.7280  177.6330  143.8070 C   0  0  0  0  0  2  0  0  0  0  0  0
  1  7  1  0  0  0  0
  3  2  2  0  0  0  0
  5  7  2  0  0  0  0
  5 10  1  0  0  0  0
  6 12  1  0  0  0  0
  6 13  2  0  0  0  0
  7  3  1  0  0  0  0
  9  8  1  0  0  0  0
  9  4  2  0  0  0  0
 10 14  2  0  0  0  0
 11 10  1  0  0  0  0
 11 12  2  0  0  0  0
 12  9  1  0  0  0  0
 13 23  1  0  0  0  0
 13  4  1  0  0  0  0
 14  2  1  0  0  0  0
 14  8  1  0  0  0  0
 15 19  1  0  0  0  0
 17  5  1  1  0  0  0
 18 22  1  0  0  0  0
 18 16  1  0  0  0  0
 18 17  1  0  0  0  0
 19 16  1  0  0  0  0
 20 18  1  0  0  0  0
 21 15  1  0  0  0  0
 21 20  1  0  0  0  0
 22 17  1  0  0  0  0
 23 24  1  0  0  0  0
 26 25  1  0  0  0  0
 26  6  1  0  0  0  0
M  END
>  <MODEL>
3

>  <REMARK>
 VINA RESULT:      -8.4      1.896      6.802
  Name = 
  3 active torsions:
  status: ('A' for Active; 'I' for Inactive)
    1  A    between atoms: C_7  and  C_10
    2  A    between atoms: C_9  and  C_25
    3  A    between atoms: C_11  and  C_23
                            x       y       z     vdW  Elec       q    Type
                         _______ _______ _______ _____ _____    ______ ____

>  <TORSDO>
F 3

$$$$
=
 OpenBabel11062417193D

 26 30  0  0  1  0  0  0  0  0999 V2000
  186.0350  178.9750  138.3950 O   0  0  0  0  0  1  0  0  0  0  0  0
  185.0600  178.2730  141.8750 C   0  0  0  0  0  3  0  0  0  0  0  0
  184.9890  178.5640  140.5140 C   0  0  0  0  0  3  0  0  0  0  0  0
  187.7280  177.4110  145.7520 C   0  0  0  0  0  3  0  0  0  0  0  0
  187.4160  178.4370  140.3250 C   0  0  0  0  0  0  0  0  0  0  0  0
  189.7340  177.5380  144.6260 C   0  0  0  0  0  0  0  0  0  0  0  0
  186.1500  178.6590  139.7450 C   0  0  0  0  0  0  0  0  0  0  0  0
  186.3310  177.8310  143.8040 O   0  0  0  0  0  0  0  0  0  0  0  0
  187.4900  177.6640  144.4170 C   0  0  0  0  0  0  0  0  0  0  0  0
  187.4990  178.1760  141.7130 C   0  0  0  0  0  0  0  0  0  0  0  0
  188.7450  178.0100  142.3540 C   0  0  0  0  0  3  0  0  0  0  0  0
  188.7320  177.7470  143.7130 C   0  0  0  0  0  0  0  0  0  0  0  0
  189.1190  177.3320  145.8620 C   0  0  0  0  0  0  0  0  0  0  0  0
  186.2960  178.0850  142.4920 C   0  0  0  0  0  0  0  0  0  0  0  0
  188.4460  176.0700  136.0640 O   0  0  0  0  0  0  0  0  0  0  0  0
  187.8710  176.2620  138.3940 C   0  0  0  0  0  2  0  0  0  0  0  0
  188.6520  178.5690  139.4600 C   0  0  2  0  0  3  0  0  0  0  0  0
  188.8010  177.4760  138.4540 C   0  0  0  0  0  0  0  0  0  0  0  0
  187.3620  176.1130  136.9600 C   0  0  0  0  0  2  0  0  0  0  0  0
  189.7140  177.7300  137.2620 C   0  0  0  0  0  2  0  0  0  0  0  0
  188.9510  177.3820  135.9840 C   0  0  0  0  0  2  0  0  0  0  0  0
  189.5280  177.4760  139.6530 O   0  0  0  0  0  0  0  0  0  0  0  0
  189.8390  177.1200  147.1490 C   0  0  0  0  0  2  0  0  0  0  0  0
  189.2390  177.8800  148.1540 O   0  0  0  0  0  1  0  0  0  0  0  0
  191.6360  179.0210  144.1190 C   0  0  0  0  0  1  0  0  0  0  0  0
  191.2020  177.5880  144.3550 C   0  0  0  0  0  2  0  0  0  0  0  0
  1  7  1  0  0  0  0
  2 14  1  0  0  0  0
  3  2  2  0  0  0  0
  4 13  1  0  0  0  0
  5 10  1  0  0  0  0
  6 13  2  0  0  0  0
  7  5  2  0  0  0  0
  7  3  1  0  0  0  0
  8  9  1  0  0  0  0
  9  4  2  0  0  0  0
 10 11  1  0  0  0  0
 10 14  2  0  0  0  0
 11 12  2  0  0  0  0
 12  9  1  0  0  0  0
 12  6  1  0  0  0  0
 13 23  1  0  0  0  0
 14  8  1  0  0  0  0
 15 19  1  0  0  0  0
 16 18  1  0  0  0  0
 17 22  1  0  0  0  0
 17  5  1  1  0  0  0
 18 17  1  0  0  0  0
 18 22  1  0  0  0  0
 19 16  1  0  0  0  0
 20 18  1  0  0  0  0
 21 15  1  0  0  0  0
 21 20  1  0  0  0  0
 23 24  1  0  0  0  0
 25 26  1  0  0  0  0
 26  6  1  0  0  0  0
M  END
>  <MODEL>
4

>  <REMARK>
 VINA RESULT:      -7.9      3.301      6.586
  Name = 
  3 active torsions:
  status: ('A' for Active; 'I' for Inactive)
    1  A    between atoms: C_7  and  C_10
    2  A    between atoms: C_9  and  C_25
    3  A    between atoms: C_11  and  C_23
                            x       y       z     vdW  Elec       q    Type
                         _______ _______ _______ _____ _____    ______ ____

>  <TORSDO>
F 3

$$$$
=
 OpenBabel11062417193D

 26 30  0  0  1  0  0  0  0  0999 V2000
  180.9310  179.5030  140.4130 O   0  0  0  0  0  1  0  0  0  0  0  0
  181.7060  179.0140  143.9780 C   0  0  0  0  0  3  0  0  0  0  0  0
  181.0100  179.2690  142.7990 C   0  0  0  0  0  3  0  0  0  0  0  0
  185.8390  177.9940  146.1640 C   0  0  0  0  0  3  0  0  0  0  0  0
  183.0250  178.8820  141.4850 C   0  0  0  0  0  0  0  0  0  0  0  0
  187.0540  177.8750  144.2100 C   0  0  0  0  0  0  0  0  0  0  0  0
  181.6580  179.2170  141.5640 C   0  0  0  0  0  0  0  0  0  0  0  0
  183.7120  178.4990  145.0940 O   0  0  0  0  0  0  0  0  0  0  0  0
  185.0060  178.2300  145.0900 C   0  0  0  0  0  0  0  0  0  0  0  0
  183.7480  178.6560  142.6800 C   0  0  0  0  0  0  0  0  0  0  0  0
  185.1310  178.3790  142.6580 C   0  0  0  0  0  3  0  0  0  0  0  0
  185.7560  178.1610  143.8740 C   0  0  0  0  0  0  0  0  0  0  0  0
  187.0990  177.7720  145.6020 C   0  0  0  0  0  0  0  0  0  0  0  0
  183.0680  178.7150  143.9430 C   0  0  0  0  0  0  0  0  0  0  0  0
  182.0130  175.9090  137.6160 O   0  0  0  0  0  0  0  0  0  0  0  0
  182.6050  176.4440  139.8890 C   0  0  0  0  0  2  0  0  0  0  0  0
  183.6970  178.8560  140.1270 C   0  0  2  0  0  3  0  0  0  0  0  0
  183.3970  177.6290  139.3310 C   0  0  0  0  0  0  0  0  0  0  0  0
  181.4840  176.1080  138.9050 C   0  0  0  0  0  2  0  0  0  0  0  0
  183.6240  177.6860  137.8270 C   0  0  0  0  0  2  0  0  0  0  0  0
  182.3620  177.1820  137.1270 C   0  0  0  0  0  2  0  0  0  0  0  0
  184.6060  177.7780  140.0270 O   0  0  0  0  0  0  0  0  0  0  0  0
  188.3320  177.5260  146.4000 C   0  0  0  0  0  2  0  0  0  0  0  0
  187.9850  177.1450  147.6970 O   0  0  0  0  0  1  0  0  0  0  0  0
  188.5020  176.3030  142.9820 C   0  0  0  0  0  1  0  0  0  0  0  0
  188.2080  177.7620  143.2680 C   0  0  0  0  0  2  0  0  0  0  0  0
  1  7  1  0  0  0  0
  3  2  2  0  0  0  0
  5  7  2  0  0  0  0
  5 10  1  0  0  0  0
  6 13  2  0  0  0  0
  7  3  1  0  0  0  0
  9  8  1  0  0  0  0
  9  4  2  0  0  0  0
 10 14  2  0  0  0  0
 11 10  1  0  0  0  0
 11 12  2  0  0  0  0
 12  6  1  0  0  0  0
 12  9  1  0  0  0  0
 13  4  1  0  0  0  0
 13 23  1  0  0  0  0
 14  2  1  0  0  0  0
 14  8  1  0  0  0  0
 15 19  1  0  0  0  0
 17  5  1  1  0  0  0
 18 16  1  0  0  0  0
 18 22  1  0  0  0  0
 18 17  1  0  0  0  0
 19 16  1  0  0  0  0
 20 18  1  0  0  0  0
 21 15  1  0  0  0  0
 21 20  1  0  0  0  0
 22 17  1  0  0  0  0
 23 24  1  0  0  0  0
 25 26  1  0  0  0  0
 26  6  1  0  0  0  0
M  END
>  <MODEL>
5

>  <REMARK>
 VINA RESULT:      -7.7      2.301      6.983
  Name = 
  3 active torsions:
  status: ('A' for Active; 'I' for Inactive)
    1  A    between atoms: C_7  and  C_10
    2  A    between atoms: C_9  and  C_25
    3  A    between atoms: C_11  and  C_23
                            x       y       z     vdW  Elec       q    Type
                         _______ _______ _______ _____ _____    ______ ____

>  <TORSDO>
F 3

$$$$
=
 OpenBabel11062417193D

 26 30  0  0  1  0  0  0  0  0999 V2000
  190.9990  176.8210  138.3340 O   0  0  0  0  0  1  0  0  0  0  0  0
  192.3290  177.5520  141.6880 C   0  0  0  0  0  3  0  0  0  0  0  0
  192.2530  177.3220  140.3160 C   0  0  0  0  0  3  0  0  0  0  0  0
  190.1250  177.8520  145.9240 C   0  0  0  0  0  3  0  0  0  0  0  0
  189.8340  177.0690  140.4560 C   0  0  0  0  0  0  0  0  0  0  0  0
  188.0250  177.4450  145.0670 C   0  0  0  0  0  0  0  0  0  0  0  0
  191.0250  177.0700  139.7020 C   0  0  0  0  0  0  0  0  0  0  0  0
  191.2850  177.7230  143.7890 O   0  0  0  0  0  0  0  0  0  0  0  0
  190.2110  177.6840  144.5580 C   0  0  0  0  0  0  0  0  0  0  0  0
  189.9050  177.2670  141.8550 C   0  0  0  0  0  0  0  0  0  0  0  0
  188.7490  177.2120  142.6620 C   0  0  0  0  0  3  0  0  0  0  0  0
  188.9110  177.4280  144.0200 C   0  0  0  0  0  0  0  0  0  0  0  0
  188.7670  177.7050  146.2210 C   0  0  0  0  0  0  0  0  0  0  0  0
  191.1760  177.5220  142.4720 C   0  0  0  0  0  0  0  0  0  0  0  0
  187.8840  179.3660  136.4880 O   0  0  0  0  0  0  0  0  0  0  0  0
  188.7960  179.2000  138.7110 C   0  0  0  0  0  2  0  0  0  0  0  0
  188.5240  176.7710  139.7560 C   0  0  2  0  0  3  0  0  0  0  0  0
  188.0760  177.8550  138.8320 C   0  0  0  0  0  0  0  0  0  0  0  0
  189.0750  179.4670  137.2310 C   0  0  0  0  0  2  0  0  0  0  0  0
  187.0560  177.4970  137.7600 C   0  0  0  0  0  2  0  0  0  0  0  0
  187.5750  177.9950  136.4110 C   0  0  0  0  0  2  0  0  0  0  0  0
  187.5290  177.7090  140.1150 O   0  0  0  0  0  0  0  0  0  0  0  0
  188.2090  177.7570  147.6010 C   0  0  0  0  0  2  0  0  0  0  0  0
  189.1860  178.2100  148.4870 O   0  0  0  0  0  1  0  0  0  0  0  0
  185.7960  178.4750  144.8550 C   0  0  0  0  0  1  0  0  0  0  0  0
  186.5590  177.1720  144.9900 C   0  0  0  0  0  2  0  0  0  0  0  0
  1  7  1  0  0  0  0
  2 14  1  0  0  0  0
  3  2  2  0  0  0  0
  4 13  1  0  0  0  0
  5 10  1  0  0  0  0
  6 13  2  0  0  0  0
  7  3  1  0  0  0  0
  7  5  2  0  0  0  0
  8  9  1  0  0  0  0
  9  4  2  0  0  0  0
 10 14  2  0  0  0  0
 10 11  1  0  0  0  0
 11 12  2  0  0  0  0
 12  9  1  0  0  0  0
 12  6  1  0  0  0  0
 13 23  1  0  0  0  0
 14  8  1  0  0  0  0
 15 19  1  0  0  0  0
 16 18  1  0  0  0  0
 17 22  1  0  0  0  0
 17  5  1  1  0  0  0
 18 17  1  0  0  0  0
 18 22  1  0  0  0  0
 19 16  1  0  0  0  0
 20 18  1  0  0  0  0
 21 15  1  0  0  0  0
 21 20  1  0  0  0  0
 23 24  1  0  0  0  0
 25 26  1  0  0  0  0
 26  6  1  0  0  0  0
M  END
>  <MODEL>
6

>  <REMARK>
 VINA RESULT:      -7.3      3.087      6.651
  Name = 
  3 active torsions:
  status: ('A' for Active; 'I' for Inactive)
    1  A    between atoms: C_7  and  C_10
    2  A    between atoms: C_9  and  C_25
    3  A    between atoms: C_11  and  C_23
                            x       y       z     vdW  Elec       q    Type
                         _______ _______ _______ _____ _____    ______ ____

>  <TORSDO>
F 3

$$$$
=
 OpenBabel11062417193D

 26 30  0  0  1  0  0  0  0  0999 V2000
  191.6270  177.0460  147.2810 O   0  0  0  0  0  1  0  0  0  0  0  0
  187.9990  176.9230  147.8910 C   0  0  0  0  0  3  0  0  0  0  0  0
  189.3750  176.7990  148.0690 C   0  0  0  0  0  3  0  0  0  0  0  0
  184.3190  178.1670  145.0980 C   0  0  0  0  0  3  0  0  0  0  0  0
  189.7820  177.7850  145.8780 C   0  0  0  0  0  0  0  0  0  0  0  0
  185.6460  178.8880  143.3580 C   0  0  0  0  0  0  0  0  0  0  0  0
  190.2620  177.2110  147.0730 C   0  0  0  0  0  0  0  0  0  0  0  0
  186.1600  177.5350  146.5580 O   0  0  0  0  0  0  0  0  0  0  0  0
  185.6470  178.0160  145.4400 C   0  0  0  0  0  0  0  0  0  0  0  0
  188.3850  177.8820  145.6750 C   0  0  0  0  0  0  0  0  0  0  0  0
  187.8540  178.3900  144.4700 C   0  0  0  0  0  3  0  0  0  0  0  0
  186.4760  178.4590  144.3620 C   0  0  0  0  0  0  0  0  0  0  0  0
  184.3370  178.7100  143.8100 C   0  0  0  0  0  0  0  0  0  0  0  0
  187.4860  177.4510  146.7070 C   0  0  0  0  0  0  0  0  0  0  0  0
  190.1270  176.1360  141.1890 O   0  0  0  0  0  0  0  0  0  0  0  0
  190.0560  175.9540  143.5890 C   0  0  0  0  0  2  0  0  0  0  0  0
  190.7760  178.2010  144.8130 C   0  0  2  0  0  3  0  0  0  0  0  0
  190.8280  177.2740  143.6440 C   0  0  0  0  0  0  0  0  0  0  0  0
  189.2670  175.9100  142.2800 C   0  0  0  0  0  2  0  0  0  0  0  0
  191.4230  177.8030  142.3460 C   0  0  0  0  0  2  0  0  0  0  0  0
  190.4450  177.5070  141.2090 C   0  0  0  0  0  2  0  0  0  0  0  0
  191.7950  177.2320  144.6590 O   0  0  0  0  0  0  0  0  0  0  0  0
  183.1120  178.9960  143.0130 C   0  0  0  0  0  2  0  0  0  0  0  0
  182.0240  179.1730  143.8680 O   0  0  0  0  0  1  0  0  0  0  0  0
  186.2310  178.2210  141.0580 C   0  0  0  0  0  1  0  0  0  0  0  0
  186.0670  179.3860  142.0140 C   0  0  0  0  0  2  0  0  0  0  0  0
  2  3  1  0  0  0  0
  4  9  2  0  0  0  0
  5  7  1  0  0  0  0
  6 13  2  0  0  0  0
  6 12  1  0  0  0  0
  7  1  1  0  0  0  0
  7  3  2  0  0  0  0
  8 14  1  0  0  0  0
  9  8  1  0  0  0  0
 10  5  2  0  0  0  0
 10 14  1  0  0  0  0
 11 10  1  0  0  0  0
 12 11  2  0  0  0  0
 12  9  1  0  0  0  0
 13  4  1  0  0  0  0
 14  2  2  0  0  0  0
 15 21  1  0  0  0  0
 15 19  1  0  0  0  0
 16 18  1  0  0  0  0
 17  5  1  1  0  0  0
 18 22  1  0  0  0  0
 18 17  1  0  0  0  0
 19 16  1  0  0  0  0
 20 18  1  0  0  0  0
 21 20  1  0  0  0  0
 22 17  1  0  0  0  0
 23 13  1  0  0  0  0
 23 24  1  0  0  0  0
 25 26  1  0  0  0  0
 26  6  1  0  0  0  0
M  END
>  <MODEL>
7

>  <REMARK>
 VINA RESULT:      -7.2      1.662      2.626
  Name = 
  3 active torsions:
  status: ('A' for Active; 'I' for Inactive)
    1  A    between atoms: C_7  and  C_10
    2  A    between atoms: C_9  and  C_25
    3  A    between atoms: C_11  and  C_23
                            x       y       z     vdW  Elec       q    Type
                         _______ _______ _______ _____ _____    ______ ____

>  <TORSDO>
F 3

$$$$
=
 OpenBabel11062417193D

 26 30  0  0  1  0  0  0  0  0999 V2000
  181.9270  179.5450  142.2830 O   0  0  0  0  0  1  0  0  0  0  0  0
  184.1450  178.2530  144.9220 C   0  0  0  0  0  3  0  0  0  0  0  0
  183.0150  178.7230  144.2570 C   0  0  0  0  0  3  0  0  0  0  0  0
  188.8030  177.1620  144.8300 C   0  0  0  0  0  3  0  0  0  0  0  0
  184.2710  178.9010  142.1760 C   0  0  0  0  0  0  0  0  0  0  0  0
  189.0660  177.6750  142.5990 C   0  0  0  0  0  0  0  0  0  0  0  0
  183.0730  179.0560  142.9030 C   0  0  0  0  0  0  0  0  0  0  0  0
  186.4290  177.6900  144.9190 O   0  0  0  0  0  0  0  0  0  0  0  0
  187.5940  177.5720  144.3070 C   0  0  0  0  0  0  0  0  0  0  0  0
  185.4320  178.4580  142.8520 C   0  0  0  0  0  0  0  0  0  0  0  0
  186.6700  178.3460  142.1850 C   0  0  0  0  0  3  0  0  0  0  0  0
  187.7520  177.8950  142.9230 C   0  0  0  0  0  0  0  0  0  0  0  0
  189.7000  177.2270  143.7600 C   0  0  0  0  0  0  0  0  0  0  0  0
  185.3570  178.1210  144.2460 C   0  0  0  0  0  0  0  0  0  0  0  0
  181.5200  177.0580  138.4530 O   0  0  0  0  0  0  0  0  0  0  0  0
  183.0550  176.9790  140.3070 C   0  0  0  0  0  2  0  0  0  0  0  0
  184.2980  179.2940  140.7130 C   0  0  2  0  0  3  0  0  0  0  0  0
  183.6100  178.3180  139.8160 C   0  0  0  0  0  0  0  0  0  0  0  0
  181.6030  176.8590  139.8440 C   0  0  0  0  0  2  0  0  0  0  0  0
  183.1790  178.8030  138.4390 C   0  0  0  0  0  2  0  0  0  0  0  0
  181.7090  178.4350  138.2350 C   0  0  0  0  0  2  0  0  0  0  0  0
  185.0070  178.3430  139.9430 O   0  0  0  0  0  0  0  0  0  0  0  0
  191.1530  176.9200  143.8750 C   0  0  0  0  0  2  0  0  0  0  0  0
  191.3720  175.5710  143.5930 O   0  0  0  0  0  1  0  0  0  0  0  0
  189.4650  176.7530  140.3480 C   0  0  0  0  0  1  0  0  0  0  0  0
  189.7060  177.9290  141.2730 C   0  0  0  0  0  2  0  0  0  0  0  0
  1  7  1  0  0  0  0
  3  2  1  0  0  0  0
  5 10  2  0  0  0  0
  5  7  1  0  0  0  0
  6 12  1  0  0  0  0
  6 13  2  0  0  0  0
  7  3  2  0  0  0  0
  9  4  2  0  0  0  0
  9  8  1  0  0  0  0
 10 14  1  0  0  0  0
 11 10  1  0  0  0  0
 11 12  2  0  0  0  0
 12  9  1  0  0  0  0
 13 23  1  0  0  0  0
 13  4  1  0  0  0  0
 14  8  1  0  0  0  0
 14  2  2  0  0  0  0
 15 19  1  0  0  0  0
 17  5  1  1  0  0  0
 18 22  1  0  0  0  0
 18 16  1  0  0  0  0
 18 17  1  0  0  0  0
 19 16  1  0  0  0  0
 20 18  1  0  0  0  0
 21 20  1  0  0  0  0
 21 15  1  0  0  0  0
 22 17  1  0  0  0  0
 24 23  1  0  0  0  0
 25 26  1  0  0  0  0
 26  6  1  0  0  0  0
M  END
>  <MODEL>
8

>  <REMARK>
 VINA RESULT:      -7.1      2.117      7.058
  Name = 
  3 active torsions:
  status: ('A' for Active; 'I' for Inactive)
    1  A    between atoms: C_7  and  C_10
    2  A    between atoms: C_9  and  C_25
    3  A    between atoms: C_11  and  C_23
                            x       y       z     vdW  Elec       q    Type
                         _______ _______ _______ _____ _____    ______ ____

>  <TORSDO>
F 3

$$$$
=
 OpenBabel11062417193D

 26 30  0  0  1  0  0  0  0  0999 V2000
  188.9540  178.2380  136.6530 O   0  0  0  0  0  1  0  0  0  0  0  0
  186.0960  178.6290  138.9400 C   0  0  0  0  0  3  0  0  0  0  0  0
  186.8650  178.5870  137.7800 C   0  0  0  0  0  3  0  0  0  0  0  0
  185.8220  178.1910  143.6970 C   0  0  0  0  0  3  0  0  0  0  0  0
  188.8240  177.9060  139.0600 C   0  0  0  0  0  0  0  0  0  0  0  0
  188.0370  177.6120  143.9560 C   0  0  0  0  0  0  0  0  0  0  0  0
  188.2170  178.2430  137.8330 C   0  0  0  0  0  0  0  0  0  0  0  0
  185.9120  178.4100  141.2750 O   0  0  0  0  0  0  0  0  0  0  0  0
  186.4350  178.1560  142.4620 C   0  0  0  0  0  0  0  0  0  0  0  0
  188.0590  177.9800  140.2480 C   0  0  0  0  0  0  0  0  0  0  0  0
  188.6360  177.7150  141.5080 C   0  0  0  0  0  3  0  0  0  0  0  0
  187.8110  177.8000  142.6160 C   0  0  0  0  0  0  0  0  0  0  0  0
  186.8250  177.8480  144.6080 C   0  0  0  0  0  0  0  0  0  0  0  0
  186.6710  178.3380  140.1770 C   0  0  0  0  0  0  0  0  0  0  0  0
  191.1760  174.3790  136.4420 O   0  0  0  0  0  0  0  0  0  0  0  0
  189.5350  175.2680  137.9640 C   0  0  0  0  0  2  0  0  0  0  0  0
  190.2980  177.5580  139.0780 C   0  0  2  0  0  3  0  0  0  0  0  0
  190.6120  176.2400  138.4500 C   0  0  0  0  0  0  0  0  0  0  0  0
  189.8590  174.8690  136.5240 C   0  0  0  0  0  2  0  0  0  0  0  0
  192.0470  175.9910  138.0040 C   0  0  0  0  0  2  0  0  0  0  0  0
  192.0250  175.4950  136.5580 C   0  0  0  0  0  2  0  0  0  0  0  0
  190.5380  176.3930  139.8420 O   0  0  0  0  0  0  0  0  0  0  0  0
  186.6290  177.8090  146.0840 C   0  0  0  0  0  2  0  0  0  0  0  0
  185.3420  178.2460  146.3990 O   0  0  0  0  0  1  0  0  0  0  0  0
  190.1870  178.5360  144.7300 C   0  0  0  0  0  1  0  0  0  0  0  0
  189.3460  177.2820  144.5940 C   0  0  0  0  0  2  0  0  0  0  0  0
  1  7  1  0  0  0  0
  2 14  1  0  0  0  0
  3  7  1  0  0  0  0
  3  2  2  0  0  0  0
  4 13  1  0  0  0  0
  5 10  1  0  0  0  0
  6 26  1  0  0  0  0
  6 13  2  0  0  0  0
  7  5  2  0  0  0  0
  8  9  1  0  0  0  0
  9 12  1  0  0  0  0
  9  4  2  0  0  0  0
 10 11  1  0  0  0  0
 11 12  2  0  0  0  0
 12  6  1  0  0  0  0
 13 23  1  0  0  0  0
 14 10  2  0  0  0  0
 14  8  1  0  0  0  0
 15 19  1  0  0  0  0
 15 21  1  0  0  0  0
 16 18  1  0  0  0  0
 17  5  1  6  0  0  0
 17 22  1  0  0  0  0
 18 17  1  0  0  0  0
 18 22  1  0  0  0  0
 19 16  1  0  0  0  0
 20 18  1  0  0  0  0
 21 20  1  0  0  0  0
 23 24  1  0  0  0  0
 26 25  1  0  0  0  0
M  END
>  <MODEL>
9

>  <REMARK>
 VINA RESULT:      -7.0      3.679      6.354
  Name = 
  3 active torsions:
  status: ('A' for Active; 'I' for Inactive)
    1  A    between atoms: C_7  and  C_10
    2  A    between atoms: C_9  and  C_25
    3  A    between atoms: C_11  and  C_23
                            x       y       z     vdW  Elec       q    Type
                         _______ _______ _______ _____ _____    ______ ____

>  <TORSDO>
F 3

$$$$
