=
 OpenBabel11062412053D

 48 53  0  0  1  0  0  0  0  0999 V2000
  189.6390  177.5100  141.6000 C   0  0  1  0  0  3  0  0  0  0  0  0
  191.4750  177.4410  145.5220 C   0  0  0  0  0  2  0  0  0  0  0  0
  189.6480  177.6520  147.5230 O   0  0  0  0  0  0  0  0  0  0  0  0
  190.3230  177.4450  142.9780 C   0  0  2  0  0  3  0  0  0  0  0  0
  190.2090  176.5740  145.3860 C   0  0  1  0  0  3  0  0  0  0  0  0
  188.6550  177.6710  148.5200 C   0  0  0  0  0  2  0  0  0  0  0  0
  187.8890  177.3080  145.8410 C   0  0  2  0  0  3  0  0  0  0  0  0
  189.1800  176.7860  146.5060 C   0  0  2  0  0  3  0  0  0  0  0  0
  189.4550  176.7870  144.0630 C   0  0  1  0  0  3  0  0  0  0  0  0
  188.2200  177.6040  144.3960 C   0  0  0  0  0  2  0  0  0  0  0  0
  187.4120  178.4500  148.0500 C   0  0  0  0  0  2  0  0  0  0  0  0
  191.2580  178.8250  144.9220 C   0  0  0  0  0  2  0  0  0  0  0  0
  187.3650  178.5720  146.5220 C   0  0  0  0  0  2  0  0  0  0  0  0
  191.0210  178.7490  143.4130 C   0  0  0  0  0  2  0  0  0  0  0  0
  190.1860  176.5380  140.5560 C   0  0  0  0  0  2  0  0  0  0  0  0
  190.6930  177.3110  139.3520 C   0  0  0  0  0  2  0  0  0  0  0  0
  191.1520  176.3970  138.2200 C   0  0  0  0  0  0  0  0  0  0  0  0
  192.4960  176.6520  137.9280 O   0  0  0  0  0  1  0  0  0  0  0  0
  191.0270  175.0660  138.6190 O   0  0  0  0  0  1  0  0  0  0  0  0
  190.3100  176.6400  137.0400 N   0  0  0  0  0  0  0  0  0  0  0  0
  187.9110  177.2080  137.1870 C   0  0  0  0  0  0  0  0  0  0  0  0
  187.4620  175.7940  137.3340 C   0  0  0  0  0  1  0  0  0  0  0  0
  189.2010  177.5590  137.1250 C   0  0  0  0  0  3  0  0  0  0  0  0
  186.8750  178.2760  137.1990 C   0  0  0  0  0  2  0  0  0  0  0  0
  185.6480  177.8450  137.9860 C   0  0  0  0  0  2  0  0  0  0  0  0
  183.4460  179.0620  138.2600 C   0  0  0  0  0  0  0  0  0  0  0  0
  182.8200  178.1400  137.6650 O   0  0  0  0  0  0  0  0  0  0  0  0
  184.8710  179.0150  138.3620 N   0  0  0  0  0  2  0  0  0  0  0  0
  182.7350  180.1460  138.8610 N   0  0  0  0  0  2  0  0  0  0  0  0
  181.2890  180.2720  138.7850 C   0  0  0  0  0  2  0  0  0  0  0  0
  179.4820  183.2690  136.1040 N   0  0  0  0  0  2  0  0  0  0  0  0
  179.0690  181.8940  136.3510 C   0  0  0  0  0  2  0  0  0  0  0  0
  180.6200  183.4820  136.9830 C   0  0  0  0  0  2  0  0  0  0  0  0
  180.5180  182.4660  138.0940 C   0  0  1  0  0  3  0  0  0  0  0  0
  179.4850  181.4950  137.6910 N   0  0  2  0  0  0  0  0  0  0  0  0
  180.9110  181.1460  137.6060 C   0  0  2  0  0  3  0  0  0  0  0  0
  190.3650  176.7760  134.5990 C   0  0  0  0  0  1  0  0  0  0  0  0
  190.5960  175.9010  135.8110 C   0  0  0  0  0  2  0  0  0  0  0  0
  188.1100  177.4530  141.6950 C   0  0  0  0  0  2  0  0  0  0  0  0
  186.0790  178.9880  141.3980 N   0  0  0  0  0  2  0  0  0  0  0  0
  188.0440  179.3140  140.2070 O   0  0  0  0  0  0  0  0  0  0  0  0
  187.4200  178.6250  141.0550 C   0  0  0  0  0  0  0  0  0  0  0  0
  183.5730  177.3380  141.0410 O   0  0  0  0  0  0  0  0  0  0  0  0
  183.8860  178.9920  144.1930 C   0  0  0  0  0  2  0  0  0  0  0  0
  185.2680  178.3090  142.4030 C   0  0  2  0  0  3  0  0  0  0  0  0
  183.8700  178.1320  141.9230 C   0  0  0  0  0  0  0  0  0  0  0  0
  185.2190  179.1310  143.6070 N   0  0  0  0  0  2  0  0  0  0  0  0
  182.6510  178.9990  142.8590 S   0  0  0  0  0  0  0  0  0  0  0  0
  1 15  1  6  0  0  0
  1 39  1  0  0  0  0
  3  6  1  0  0  0  0
  4  1  1  6  0  0  0
  4 14  1  0  0  0  0
  4  9  1  0  0  0  0
  5  2  1  1  0  0  0
  5  8  1  0  0  0  0
  7 10  1  6  0  0  0
  7  8  1  0  0  0  0
  7 13  1  0  0  0  0
  8  3  1  1  0  0  0
  9 10  1  1  0  0  0
  9  5  1  0  0  0  0
 11  6  1  0  0  0  0
 12  2  1  0  0  0  0
 13 11  1  0  0  0  0
 14 12  1  0  0  0  0
 16 15  1  0  0  0  0
 17 19  1  0  0  0  0
 17 16  1  0  0  0  0
 18 17  1  0  0  0  0
 20 23  1  0  0  0  0
 20 17  1  0  0  0  0
 21 24  1  0  0  0  0
 21 22  1  0  0  0  0
 23 21  2  0  0  0  0
 24 25  1  0  0  0  0
 25 28  1  0  0  0  0
 26 28  1  0  0  0  0
 26 29  1  0  0  0  0
 27 26  2  0  0  0  0
 30 29  1  0  0  0  0
 31 32  1  0  0  0  0
 31 33  1  0  0  0  0
 34 33  1  6  0  0  0
 35 32  1  6  0  0  0
 35 34  1  0  0  0  0
 36 35  1  0  0  0  0
 36 34  1  0  0  0  0
 36 30  1  1  0  0  0
 37 38  1  0  0  0  0
 38 20  1  0  0  0  0
 41 42  2  0  0  0  0
 42 40  1  0  0  0  0
 42 39  1  0  0  0  0
 43 46  2  0  0  0  0
 45 40  1  6  0  0  0
 45 47  1  0  0  0  0
 46 45  1  0  0  0  0
 46 48  1  0  0  0  0
 47 44  1  0  0  0  0
 48 44  1  0  0  0  0
M  END
>  <MODEL>
1

>  <REMARK>
 VINA RESULT:      -7.7      0.000      0.000
  Name = 
  15 active torsions:
  status: ('A' for Active; 'I' for Inactive)
    1  A    between atoms: C_1  and  C_4
    2  A    between atoms: C_1  and  C_17
    3  A    between atoms: C_5  and  C_30
    4  A    between atoms: C_5  and  C_33
    5  A    between atoms: C_10  and  N_22
    6  A    between atoms: C_11  and  C_12
    7  A    between atoms: C_12  and  C_30
    8  A    between atoms: C_12  and  C_40
    9  A    between atoms: C_17  and  N_36
   10  A    between atoms: N_22  and  C_33
   11  A    between atoms: N_22  and  C_38
   12  A    between atoms: C_28  and  N_34
   13  A    between atoms: C_29  and  C_32
   14  A    between atoms: C_32  and  N_47
   15  A    between atoms: C_40  and  C_46
                            x       y       z     vdW  Elec       q    Type
                         _______ _______ _______ _____ _____    ______ ____

>  <TORSDO>
F 15

$$$$
=
 OpenBabel11062412053D

 48 53  0  0  1  0  0  0  0  0999 V2000
  190.6910  176.7870  140.5530 C   0  0  1  0  0  3  0  0  0  0  0  0
  191.3060  177.8200  144.7140 C   0  0  0  0  0  2  0  0  0  0  0  0
  188.9870  177.8250  146.1320 O   0  0  0  0  0  0  0  0  0  0  0  0
  190.9520  177.1230  142.0330 C   0  0  2  0  0  3  0  0  0  0  0  0
  190.3570  176.6300  144.4770 C   0  0  1  0  0  3  0  0  0  0  0  0
  187.7750  177.7240  146.8380 C   0  0  0  0  0  2  0  0  0  0  0  0
  187.9010  176.7620  144.2010 C   0  0  2  0  0  3  0  0  0  0  0  0
  189.0330  176.7200  145.2480 C   0  0  2  0  0  3  0  0  0  0  0  0
  189.9820  176.4250  143.0000 C   0  0  1  0  0  3  0  0  0  0  0  0
  188.5540  176.9140  142.8450 C   0  0  0  0  0  2  0  0  0  0  0  0
  186.5740  178.0520  145.9280 C   0  0  0  0  0  2  0  0  0  0  0  0
  190.9660  178.9850  143.7910 C   0  0  0  0  0  2  0  0  0  0  0  0
  186.9370  177.9240  144.4440 C   0  0  0  0  0  2  0  0  0  0  0  0
  191.1900  178.6180  142.3240 C   0  0  0  0  0  2  0  0  0  0  0  0
  189.2290  176.8570  140.1190 C   0  0  0  0  0  2  0  0  0  0  0  0
  189.1490  177.1020  138.6230 C   0  0  0  0  0  2  0  0  0  0  0  0
  188.2560  178.2880  138.2690 C   0  0  0  0  0  0  0  0  0  0  0  0
  187.4480  178.6080  139.3650 O   0  0  0  0  0  1  0  0  0  0  0  0
  189.0530  179.3920  137.9650 O   0  0  0  0  0  1  0  0  0  0  0  0
  187.4350  177.9360  137.1030 N   0  0  0  0  0  0  0  0  0  0  0  0
  185.5500  176.3440  137.2220 C   0  0  0  0  0  0  0  0  0  0  0  0
  186.4100  175.1310  137.1150 C   0  0  0  0  0  1  0  0  0  0  0  0
  186.0460  177.5850  137.2810 C   0  0  0  0  0  3  0  0  0  0  0  0
  184.0800  176.1500  137.3560 C   0  0  0  0  0  2  0  0  0  0  0  0
  183.3320  177.4600  137.1650 C   0  0  0  0  0  2  0  0  0  0  0  0
  181.8780  178.8540  138.6970 C   0  0  0  0  0  0  0  0  0  0  0  0
  182.5160  179.9040  138.4090 O   0  0  0  0  0  0  0  0  0  0  0  0
  182.3030  177.5890  138.1830 N   0  0  0  0  0  2  0  0  0  0  0  0
  180.7090  178.9200  139.5170 N   0  0  0  0  0  2  0  0  0  0  0  0
  180.2260  180.1650  140.0910 C   0  0  0  0  0  2  0  0  0  0  0  0
  180.0180  178.7230  144.2510 N   0  0  0  0  0  2  0  0  0  0  0  0
  178.9310  179.0930  143.3550 C   0  0  0  0  0  2  0  0  0  0  0  0
  181.2270  178.8850  143.4610 C   0  0  0  0  0  2  0  0  0  0  0  0
  180.8210  178.8050  142.0100 C   0  0  1  0  0  3  0  0  0  0  0  0
  179.3490  178.8850  141.9730 N   0  0  2  0  0  0  0  0  0  0  0  0
  180.1700  180.0480  141.6010 C   0  0  2  0  0  3  0  0  0  0  0  0
  187.0260  178.0470  134.6950 C   0  0  0  0  0  1  0  0  0  0  0  0
  188.0650  177.9070  135.7840 C   0  0  0  0  0  2  0  0  0  0  0  0
  191.6120  177.5570  139.6000 C   0  0  0  0  0  2  0  0  0  0  0  0
  193.3790  176.2180  138.3130 N   0  0  0  0  0  2  0  0  0  0  0  0
  193.8160  177.1290  140.4030 O   0  0  0  0  0  0  0  0  0  0  0  0
  192.9860  176.9590  139.4720 C   0  0  0  0  0  0  0  0  0  0  0  0
  191.0650  174.3080  137.9550 O   0  0  0  0  0  0  0  0  0  0  0  0
  192.8580  175.1230  134.9740 C   0  0  0  0  0  2  0  0  0  0  0  0
  192.5340  175.9980  137.1440 C   0  0  2  0  0  3  0  0  0  0  0  0
  191.9440  174.6320  137.1690 C   0  0  0  0  0  0  0  0  0  0  0  0
  193.3520  176.1020  135.9410 N   0  0  0  0  0  2  0  0  0  0  0  0
  192.4580  173.5800  135.8480 S   0  0  0  0  0  0  0  0  0  0  0  0
  1 39  1  6  0  0  0
  3  6  1  0  0  0  0
  4  1  1  6  0  0  0
  4 14  1  0  0  0  0
  4  9  1  0  0  0  0
  5  2  1  6  0  0  0
  5  8  1  0  0  0  0
  7 10  1  6  0  0  0
  7 13  1  0  0  0  0
  7  8  1  0  0  0  0
  8  3  1  6  0  0  0
  9 10  1  1  0  0  0
  9  5  1  0  0  0  0
 11  6  1  0  0  0  0
 12  2  1  0  0  0  0
 13 11  1  0  0  0  0
 14 12  1  0  0  0  0
 15  1  1  0  0  0  0
 16 15  1  0  0  0  0
 17 16  1  0  0  0  0
 17 18  1  0  0  0  0
 19 17  1  0  0  0  0
 20 23  1  0  0  0  0
 20 17  1  0  0  0  0
 21 23  2  0  0  0  0
 21 24  1  0  0  0  0
 22 21  1  0  0  0  0
 25 24  1  0  0  0  0
 25 28  1  0  0  0  0
 26 29  1  0  0  0  0
 27 26  2  0  0  0  0
 28 26  1  0  0  0  0
 29 30  1  0  0  0  0
 32 31  1  0  0  0  0
 33 31  1  0  0  0  0
 34 33  1  1  0  0  0
 35 34  1  0  0  0  0
 35 32  1  1  0  0  0
 36 30  1  6  0  0  0
 36 35  1  0  0  0  0
 36 34  1  0  0  0  0
 37 38  1  0  0  0  0
 38 20  1  0  0  0  0
 40 42  1  0  0  0  0
 42 39  1  0  0  0  0
 42 41  2  0  0  0  0
 44 48  1  0  0  0  0
 44 47  1  0  0  0  0
 45 46  1  0  0  0  0
 45 40  1  1  0  0  0
 46 43  2  0  0  0  0
 47 45  1  0  0  0  0
 48 46  1  0  0  0  0
M  END
>  <MODEL>
2

>  <REMARK>
 VINA RESULT:      -7.6      3.099      5.379
  Name = 
  15 active torsions:
  status: ('A' for Active; 'I' for Inactive)
    1  A    between atoms: C_1  and  C_4
    2  A    between atoms: C_1  and  C_17
    3  A    between atoms: C_5  and  C_30
    4  A    between atoms: C_5  and  C_33
    5  A    between atoms: C_10  and  N_22
    6  A    between atoms: C_11  and  C_12
    7  A    between atoms: C_12  and  C_30
    8  A    between atoms: C_12  and  C_40
    9  A    between atoms: C_17  and  N_36
   10  A    between atoms: N_22  and  C_33
   11  A    between atoms: N_22  and  C_38
   12  A    between atoms: C_28  and  N_34
   13  A    between atoms: C_29  and  C_32
   14  A    between atoms: C_32  and  N_47
   15  A    between atoms: C_40  and  C_46
                            x       y       z     vdW  Elec       q    Type
                         _______ _______ _______ _____ _____    ______ ____

>  <TORSDO>
F 15

$$$$
=
 OpenBabel11062412053D

 48 53  0  0  1  0  0  0  0  0999 V2000
  190.5200  176.7500  139.9190 C   0  0  1  0  0  3  0  0  0  0  0  0
  191.5640  177.3560  144.0790 C   0  0  0  0  0  2  0  0  0  0  0  0
  189.3780  177.4540  145.6900 O   0  0  0  0  0  0  0  0  0  0  0  0
  190.9300  176.9300  141.3920 C   0  0  2  0  0  3  0  0  0  0  0  0
  190.4850  176.2850  143.8330 C   0  0  1  0  0  3  0  0  0  0  0  0
  188.2210  177.4050  146.4890 C   0  0  0  0  0  2  0  0  0  0  0  0
  188.0410  176.6680  143.7840 C   0  0  2  0  0  3  0  0  0  0  0  0
  189.2410  176.4310  144.7220 C   0  0  2  0  0  3  0  0  0  0  0  0
  189.9750  176.2440  142.3830 C   0  0  1  0  0  3  0  0  0  0  0  0
  188.5950  176.8760  142.3920 C   0  0  0  0  0  2  0  0  0  0  0  0
  186.9910  177.9220  145.7170 C   0  0  0  0  0  2  0  0  0  0  0  0
  191.2700  178.6230  143.2840 C   0  0  0  0  0  2  0  0  0  0  0  0
  187.2200  177.8890  144.2020 C   0  0  0  0  0  2  0  0  0  0  0  0
  191.3390  178.3660  141.7780 C   0  0  0  0  0  2  0  0  0  0  0  0
  189.5980  177.8330  139.3640 C   0  0  0  0  0  2  0  0  0  0  0  0
  188.3530  177.1950  138.7760 C   0  0  0  0  0  2  0  0  0  0  0  0
  187.5950  178.1360  137.8440 C   0  0  0  0  0  0  0  0  0  0  0  0
  186.4370  178.5930  138.4810 O   0  0  0  0  0  1  0  0  0  0  0  0
  188.4000  179.2340  137.5400 O   0  0  0  0  0  1  0  0  0  0  0  0
  187.2580  177.4150  136.6090 N   0  0  0  0  0  0  0  0  0  0  0  0
  184.9860  176.5900  136.1020 C   0  0  0  0  0  0  0  0  0  0  0  0
  185.1310  175.3400  136.9010 C   0  0  0  0  0  1  0  0  0  0  0  0
  185.9350  177.5320  136.0460 C   0  0  0  0  0  3  0  0  0  0  0  0
  183.6900  176.8320  135.4100 C   0  0  0  0  0  2  0  0  0  0  0  0
  182.6500  177.3920  136.3680 C   0  0  0  0  0  2  0  0  0  0  0  0
  180.8280  179.1480  136.3500 C   0  0  0  0  0  0  0  0  0  0  0  0
  180.3810  178.7480  137.4610 O   0  0  0  0  0  0  0  0  0  0  0  0
  181.8970  178.4460  135.7090 N   0  0  0  0  0  2  0  0  0  0  0  0
  180.2900  180.3200  135.7340 N   0  0  0  0  0  2  0  0  0  0  0  0
  179.1930  181.0750  136.3150 C   0  0  0  0  0  2  0  0  0  0  0  0
  181.3380  184.9270  136.3530 N   0  0  0  0  0  2  0  0  0  0  0  0
  181.3320  183.8720  137.3570 C   0  0  0  0  0  2  0  0  0  0  0  0
  180.5040  184.4220  135.2740 C   0  0  0  0  0  2  0  0  0  0  0  0
  180.4800  182.9190  135.4010 C   0  0  1  0  0  3  0  0  0  0  0  0
  181.0620  182.5910  136.7140 N   0  0  2  0  0  0  0  0  0  0  0  0
  179.6080  182.5210  136.5040 C   0  0  2  0  0  3  0  0  0  0  0  0
  189.1130  177.3340  135.0170 C   0  0  0  0  0  1  0  0  0  0  0  0
  188.2710  176.5530  136.0010 C   0  0  0  0  0  2  0  0  0  0  0  0
  191.7170  176.4860  139.0000 C   0  0  0  0  0  2  0  0  0  0  0  0
  192.7500  174.5420  137.6850 N   0  0  0  0  0  2  0  0  0  0  0  0
  190.4570  174.7310  137.9920 O   0  0  0  0  0  0  0  0  0  0  0  0
  191.5980  175.2180  138.2000 C   0  0  0  0  0  0  0  0  0  0  0  0
  194.3480  176.6630  136.2430 O   0  0  0  0  0  0  0  0  0  0  0  0
  196.2570  173.9830  137.6360 C   0  0  0  0  0  2  0  0  0  0  0  0
  194.1280  174.9690  137.9030 C   0  0  2  0  0  3  0  0  0  0  0  0
  194.6970  175.5690  136.6650 C   0  0  0  0  0  0  0  0  0  0  0  0
  194.9380  173.8040  138.2410 N   0  0  0  0  0  2  0  0  0  0  0  0
  196.0550  174.6810  135.9700 S   0  0  0  0  0  0  0  0  0  0  0  0
  1 39  1  6  0  0  0
  3  6  1  0  0  0  0
  4  1  1  6  0  0  0
  4 14  1  0  0  0  0
  4  9  1  0  0  0  0
  5  2  1  6  0  0  0
  5  8  1  0  0  0  0
  7 10  1  6  0  0  0
  7 13  1  0  0  0  0
  7  8  1  0  0  0  0
  8  3  1  1  0  0  0
  9 10  1  1  0  0  0
  9  5  1  0  0  0  0
 11  6  1  0  0  0  0
 12  2  1  0  0  0  0
 13 11  1  0  0  0  0
 14 12  1  0  0  0  0
 15  1  1  0  0  0  0
 16 15  1  0  0  0  0
 17 18  1  0  0  0  0
 17 16  1  0  0  0  0
 19 17  1  0  0  0  0
 20 17  1  0  0  0  0
 21 22  1  0  0  0  0
 23 21  2  0  0  0  0
 23 20  1  0  0  0  0
 24 21  1  0  0  0  0
 24 25  1  0  0  0  0
 26 27  2  0  0  0  0
 28 26  1  0  0  0  0
 28 25  1  0  0  0  0
 29 30  1  0  0  0  0
 29 26  1  0  0  0  0
 31 32  1  0  0  0  0
 33 31  1  0  0  0  0
 34 33  1  1  0  0  0
 34 36  1  0  0  0  0
 34 35  1  0  0  0  0
 35 32  1  1  0  0  0
 36 30  1  6  0  0  0
 36 35  1  0  0  0  0
 37 38  1  0  0  0  0
 38 20  1  0  0  0  0
 40 42  1  0  0  0  0
 41 42  2  0  0  0  0
 42 39  1  0  0  0  0
 43 46  2  0  0  0  0
 44 47  1  0  0  0  0
 45 40  1  6  0  0  0
 45 47  1  0  0  0  0
 46 45  1  0  0  0  0
 48 46  1  0  0  0  0
 48 44  1  0  0  0  0
M  END
>  <MODEL>
3

>  <REMARK>
 VINA RESULT:      -7.3      3.301      5.595
  Name = 
  15 active torsions:
  status: ('A' for Active; 'I' for Inactive)
    1  A    between atoms: C_1  and  C_4
    2  A    between atoms: C_1  and  C_17
    3  A    between atoms: C_5  and  C_30
    4  A    between atoms: C_5  and  C_33
    5  A    between atoms: C_10  and  N_22
    6  A    between atoms: C_11  and  C_12
    7  A    between atoms: C_12  and  C_30
    8  A    between atoms: C_12  and  C_40
    9  A    between atoms: C_17  and  N_36
   10  A    between atoms: N_22  and  C_33
   11  A    between atoms: N_22  and  C_38
   12  A    between atoms: C_28  and  N_34
   13  A    between atoms: C_29  and  C_32
   14  A    between atoms: C_32  and  N_47
   15  A    between atoms: C_40  and  C_46
                            x       y       z     vdW  Elec       q    Type
                         _______ _______ _______ _____ _____    ______ ____

>  <TORSDO>
F 15

$$$$
=
 OpenBabel11062412053D

 48 53  0  0  1  0  0  0  0  0999 V2000
  190.3850  176.9440  139.7450 C   0  0  1  0  0  3  0  0  0  0  0  0
  191.3440  176.9680  143.9690 C   0  0  0  0  0  2  0  0  0  0  0  0
  189.1360  177.2470  145.5280 O   0  0  0  0  0  0  0  0  0  0  0  0
  190.7600  176.9120  141.2380 C   0  0  2  0  0  3  0  0  0  0  0  0
  190.1240  176.1080  143.5880 C   0  0  1  0  0  3  0  0  0  0  0  0
  187.9540  177.3010  146.2900 C   0  0  0  0  0  2  0  0  0  0  0  0
  187.7710  176.8710  143.5200 C   0  0  2  0  0  3  0  0  0  0  0  0
  188.8830  176.3580  144.4570 C   0  0  2  0  0  3  0  0  0  0  0  0
  189.6720  176.2900  142.1290 C   0  0  1  0  0  3  0  0  0  0  0  0
  188.4060  177.1250  142.1710 C   0  0  0  0  0  2  0  0  0  0  0  0
  186.8490  178.0760  145.5460 C   0  0  0  0  0  2  0  0  0  0  0  0
  191.2780  178.3370  143.3020 C   0  0  0  0  0  2  0  0  0  0  0  0
  187.1310  178.1570  144.0410 C   0  0  0  0  0  2  0  0  0  0  0  0
  191.3660  178.2220  141.7800 C   0  0  0  0  0  2  0  0  0  0  0  0
  189.6500  178.2010  139.2860 C   0  0  0  0  0  2  0  0  0  0  0  0
  189.3560  178.1100  137.7990 C   0  0  0  0  0  2  0  0  0  0  0  0
  187.8680  178.2240  137.4870 C   0  0  0  0  0  0  0  0  0  0  0  0
  187.1390  178.2430  138.6800 O   0  0  0  0  0  1  0  0  0  0  0  0
  187.6290  179.4150  136.7990 O   0  0  0  0  0  1  0  0  0  0  0  0
  187.4660  177.0840  136.6520 N   0  0  0  0  0  0  0  0  0  0  0  0
  185.1550  176.2120  136.6400 C   0  0  0  0  0  0  0  0  0  0  0  0
  184.7170  177.0490  135.4870 C   0  0  0  0  0  1  0  0  0  0  0  0
  186.4140  176.2020  137.0950 C   0  0  0  0  0  3  0  0  0  0  0  0
  184.1630  175.2850  137.2490 C   0  0  0  0  0  2  0  0  0  0  0  0
  182.7520  175.6040  136.7810 C   0  0  0  0  0  2  0  0  0  0  0  0
  181.1940  176.1540  138.6970 C   0  0  0  0  0  0  0  0  0  0  0  0
  180.7260  174.9810  138.7030 O   0  0  0  0  0  0  0  0  0  0  0  0
  182.1350  176.5490  137.6960 N   0  0  0  0  0  2  0  0  0  0  0  0
  180.8080  177.0910  139.7060 N   0  0  0  0  0  2  0  0  0  0  0  0
  179.8440  176.7680  140.7450 C   0  0  0  0  0  2  0  0  0  0  0  0
  180.0680  180.6670  142.7910 N   0  0  0  0  0  2  0  0  0  0  0  0
  180.5790  179.3740  143.2260 C   0  0  0  0  0  2  0  0  0  0  0  0
  179.4910  180.4200  141.4800 C   0  0  0  0  0  2  0  0  0  0  0  0
  180.1380  179.1690  140.9400 C   0  0  1  0  0  3  0  0  0  0  0  0
  180.8700  178.5490  142.0590 N   0  0  2  0  0  0  0  0  0  0  0  0
  179.5880  177.9900  141.6040 C   0  0  2  0  0  3  0  0  0  0  0  0
  188.4090  175.3630  135.1910 C   0  0  0  0  0  1  0  0  0  0  0  0
  188.1830  176.8440  135.4000 C   0  0  0  0  0  2  0  0  0  0  0  0
  191.5670  176.6010  138.8310 C   0  0  0  0  0  2  0  0  0  0  0  0
  192.5710  174.5330  137.6980 N   0  0  0  0  0  2  0  0  0  0  0  0
  190.2790  174.8040  137.9420 O   0  0  0  0  0  0  0  0  0  0  0  0
  191.4290  175.2770  138.1330 C   0  0  0  0  0  0  0  0  0  0  0  0
  194.1640  176.6930  136.3070 O   0  0  0  0  0  0  0  0  0  0  0  0
  196.0730  173.9500  137.5720 C   0  0  0  0  0  2  0  0  0  0  0  0
  193.9560  174.9420  137.9080 C   0  0  2  0  0  3  0  0  0  0  0  0
  194.5100  175.5820  136.6840 C   0  0  0  0  0  0  0  0  0  0  0  0
  194.7620  173.7590  138.1900 N   0  0  0  0  0  2  0  0  0  0  0  0
  195.8500  174.7100  135.9360 S   0  0  0  0  0  0  0  0  0  0  0  0
  1 39  1  6  0  0  0
  3  6  1  0  0  0  0
  4  1  1  6  0  0  0
  4 14  1  0  0  0  0
  4  9  1  0  0  0  0
  5  2  1  1  0  0  0
  5  8  1  0  0  0  0
  7 10  1  6  0  0  0
  7 13  1  0  0  0  0
  7  8  1  0  0  0  0
  8  3  1  1  0  0  0
  9 10  1  1  0  0  0
  9  5  1  0  0  0  0
 11  6  1  0  0  0  0
 12  2  1  0  0  0  0
 13 11  1  0  0  0  0
 14 12  1  0  0  0  0
 15  1  1  0  0  0  0
 16 15  1  0  0  0  0
 17 16  1  0  0  0  0
 17 18  1  0  0  0  0
 19 17  1  0  0  0  0
 20 23  1  0  0  0  0
 20 17  1  0  0  0  0
 21 23  2  0  0  0  0
 21 24  1  0  0  0  0
 22 21  1  0  0  0  0
 25 24  1  0  0  0  0
 25 28  1  0  0  0  0
 26 27  2  0  0  0  0
 26 29  1  0  0  0  0
 28 26  1  0  0  0  0
 29 30  1  0  0  0  0
 31 32  1  0  0  0  0
 33 31  1  0  0  0  0
 34 33  1  1  0  0  0
 34 36  1  0  0  0  0
 34 35  1  0  0  0  0
 35 32  1  1  0  0  0
 36 30  1  6  0  0  0
 36 35  1  0  0  0  0
 37 38  1  0  0  0  0
 38 20  1  0  0  0  0
 40 42  1  0  0  0  0
 41 42  2  0  0  0  0
 42 39  1  0  0  0  0
 43 46  2  0  0  0  0
 44 47  1  0  0  0  0
 45 40  1  6  0  0  0
 45 47  1  0  0  0  0
 46 45  1  0  0  0  0
 48 46  1  0  0  0  0
 48 44  1  0  0  0  0
M  END
>  <MODEL>
4

>  <REMARK>
 VINA RESULT:      -7.3      3.680      5.926
  Name = 
  15 active torsions:
  status: ('A' for Active; 'I' for Inactive)
    1  A    between atoms: C_1  and  C_4
    2  A    between atoms: C_1  and  C_17
    3  A    between atoms: C_5  and  C_30
    4  A    between atoms: C_5  and  C_33
    5  A    between atoms: C_10  and  N_22
    6  A    between atoms: C_11  and  C_12
    7  A    between atoms: C_12  and  C_30
    8  A    between atoms: C_12  and  C_40
    9  A    between atoms: C_17  and  N_36
   10  A    between atoms: N_22  and  C_33
   11  A    between atoms: N_22  and  C_38
   12  A    between atoms: C_28  and  N_34
   13  A    between atoms: C_29  and  C_32
   14  A    between atoms: C_32  and  N_47
   15  A    between atoms: C_40  and  C_46
                            x       y       z     vdW  Elec       q    Type
                         _______ _______ _______ _____ _____    ______ ____

>  <TORSDO>
F 15

$$$$
=
 OpenBabel11062412053D

 48 53  0  0  1  0  0  0  0  0999 V2000
  185.8470  178.8150  142.2580 C   0  0  1  0  0  3  0  0  0  0  0  0
  189.4400  176.4820  141.6230 C   0  0  0  0  0  2  0  0  0  0  0  0
  190.9140  176.2130  143.8910 O   0  0  0  0  0  0  0  0  0  0  0  0
  187.0960  177.9510  142.0040 C   0  0  2  0  0  3  0  0  0  0  0  0
  188.6630  176.1340  142.9060 C   0  0  1  0  0  3  0  0  0  0  0  0
  191.5900  176.0280  145.1110 C   0  0  0  0  0  2  0  0  0  0  0  0
  189.0120  177.1460  145.1370 C   0  0  2  0  0  3  0  0  0  0  0  0
  189.5340  176.0650  144.1690 C   0  0  2  0  0  3  0  0  0  0  0  0
  187.5230  177.1170  143.2230 C   0  0  1  0  0  3  0  0  0  0  0  0
  188.0030  177.9770  144.3770 C   0  0  0  0  0  2  0  0  0  0  0  0
  191.3710  177.2260  146.0540 C   0  0  0  0  0  2  0  0  0  0  0  0
  189.6010  177.9890  141.4710 C   0  0  0  0  0  2  0  0  0  0  0  0
  190.1380  178.0440  145.6530 C   0  0  0  0  0  2  0  0  0  0  0  0
  188.2480  178.6790  141.2840 C   0  0  0  0  0  2  0  0  0  0  0  0
  185.1530  179.3410  141.0040 C   0  0  0  0  0  2  0  0  0  0  0  0
  184.9820  178.2130  140.0020 C   0  0  0  0  0  2  0  0  0  0  0  0
  184.9930  178.7040  138.5580 C   0  0  0  0  0  0  0  0  0  0  0  0
  184.3070  179.9200  138.4710 O   0  0  0  0  0  1  0  0  0  0  0  0
  186.3110  178.9060  138.1480 O   0  0  0  0  0  1  0  0  0  0  0  0
  184.3600  177.6900  137.7040 N   0  0  0  0  0  0  0  0  0  0  0  0
  185.6620  176.4220  136.0310 C   0  0  0  0  0  0  0  0  0  0  0  0
  185.6660  177.5220  135.0240 C   0  0  0  0  0  1  0  0  0  0  0  0
  185.1240  176.5540  137.2490 C   0  0  0  0  0  3  0  0  0  0  0  0
  186.3650  175.1560  135.6870 C   0  0  0  0  0  2  0  0  0  0  0  0
  186.9810  174.5160  136.9220 C   0  0  0  0  0  2  0  0  0  0  0  0
  189.1450  175.6330  137.6110 C   0  0  0  0  0  0  0  0  0  0  0  0
  188.5220  176.5550  138.2080 O   0  0  0  0  0  0  0  0  0  0  0  0
  188.4280  174.6440  136.8680 N   0  0  0  0  0  2  0  0  0  0  0  0
  190.5700  175.5530  137.6930 N   0  0  0  0  0  2  0  0  0  0  0  0
  191.3680  176.5300  138.4140 C   0  0  0  0  0  2  0  0  0  0  0  0
  195.2040  175.3190  136.6100 N   0  0  0  0  0  2  0  0  0  0  0  0
  194.5400  174.7880  137.7930 C   0  0  0  0  0  2  0  0  0  0  0  0
  194.2980  176.3320  136.0940 C   0  0  0  0  0  2  0  0  0  0  0  0
  192.9230  176.0080  136.6260 C   0  0  1  0  0  3  0  0  0  0  0  0
  193.1000  174.9820  137.6690 N   0  0  2  0  0  0  0  0  0  0  0  0
  192.8280  176.3810  138.0360 C   0  0  2  0  0  3  0  0  0  0  0  0
  182.2480  176.5580  137.2160 C   0  0  0  0  0  1  0  0  0  0  0  0
  182.9690  177.8850  137.2960 C   0  0  0  0  0  2  0  0  0  0  0  0
  184.8600  178.1570  143.2290 C   0  0  0  0  0  2  0  0  0  0  0  0
  182.8380  179.2980  144.3140 N   0  0  0  0  0  2  0  0  0  0  0  0
  185.0110  179.7580  144.9890 O   0  0  0  0  0  0  0  0  0  0  0  0
  184.2540  179.1140  144.2170 C   0  0  0  0  0  0  0  0  0  0  0  0
  182.1430  179.5950  141.3880 O   0  0  0  0  0  0  0  0  0  0  0  0
  179.4940  178.4320  143.4850 C   0  0  0  0  0  2  0  0  0  0  0  0
  181.8510  178.5740  143.5200 C   0  0  2  0  0  3  0  0  0  0  0  0
  181.4160  179.3840  142.3500 C   0  0  0  0  0  0  0  0  0  0  0  0
  180.6730  178.3210  144.3420 N   0  0  0  0  0  2  0  0  0  0  0  0
  179.7120  179.8430  142.3600 S   0  0  0  0  0  0  0  0  0  0  0  0
  1 15  1  6  0  0  0
  1 39  1  0  0  0  0
  3  6  1  0  0  0  0
  4  1  1  1  0  0  0
  4  9  1  0  0  0  0
  5  2  1  6  0  0  0
  5  9  1  0  0  0  0
  5  8  1  0  0  0  0
  6 11  1  0  0  0  0
  7 10  1  6  0  0  0
  7 13  1  0  0  0  0
  8  3  1  6  0  0  0
  8  7  1  0  0  0  0
  9 10  1  1  0  0  0
 12  2  1  0  0  0  0
 13 11  1  0  0  0  0
 14 12  1  0  0  0  0
 14  4  1  0  0  0  0
 16 15  1  0  0  0  0
 17 16  1  0  0  0  0
 18 17  1  0  0  0  0
 19 17  1  0  0  0  0
 20 17  1  0  0  0  0
 21 23  2  0  0  0  0
 22 21  1  0  0  0  0
 23 20  1  0  0  0  0
 24 21  1  0  0  0  0
 24 25  1  0  0  0  0
 26 29  1  0  0  0  0
 26 27  2  0  0  0  0
 28 25  1  0  0  0  0
 28 26  1  0  0  0  0
 29 30  1  0  0  0  0
 31 32  1  0  0  0  0
 33 31  1  0  0  0  0
 34 33  1  1  0  0  0
 34 35  1  0  0  0  0
 34 36  1  0  0  0  0
 35 32  1  1  0  0  0
 35 36  1  0  0  0  0
 36 30  1  6  0  0  0
 37 38  1  0  0  0  0
 38 20  1  0  0  0  0
 39 42  1  0  0  0  0
 42 40  1  0  0  0  0
 42 41  2  0  0  0  0
 43 46  2  0  0  0  0
 44 47  1  0  0  0  0
 45 40  1  1  0  0  0
 45 47  1  0  0  0  0
 46 48  1  0  0  0  0
 46 45  1  0  0  0  0
 48 44  1  0  0  0  0
M  END
>  <MODEL>
5

>  <REMARK>
 VINA RESULT:      -7.2      2.964      7.274
  Name = 
  15 active torsions:
  status: ('A' for Active; 'I' for Inactive)
    1  A    between atoms: C_1  and  C_4
    2  A    between atoms: C_1  and  C_17
    3  A    between atoms: C_5  and  C_30
    4  A    between atoms: C_5  and  C_33
    5  A    between atoms: C_10  and  N_22
    6  A    between atoms: C_11  and  C_12
    7  A    between atoms: C_12  and  C_30
    8  A    between atoms: C_12  and  C_40
    9  A    between atoms: C_17  and  N_36
   10  A    between atoms: N_22  and  C_33
   11  A    between atoms: N_22  and  C_38
   12  A    between atoms: C_28  and  N_34
   13  A    between atoms: C_29  and  C_32
   14  A    between atoms: C_32  and  N_47
   15  A    between atoms: C_40  and  C_46
                            x       y       z     vdW  Elec       q    Type
                         _______ _______ _______ _____ _____    ______ ____

>  <TORSDO>
F 15

$$$$
=
 OpenBabel11062412053D

 48 53  0  0  1  0  0  0  0  0999 V2000
  184.6520  178.8320  140.6650 C   0  0  1  0  0  3  0  0  0  0  0  0
  187.8490  177.2100  143.0960 C   0  0  0  0  0  2  0  0  0  0  0  0
  187.4800  177.6920  145.7450 O   0  0  0  0  0  0  0  0  0  0  0  0
  185.7870  178.2110  141.5000 C   0  0  2  0  0  3  0  0  0  0  0  0
  186.4310  176.9630  143.6450 C   0  0  1  0  0  3  0  0  0  0  0  0
  187.1950  177.8880  147.1090 C   0  0  0  0  0  2  0  0  0  0  0  0
  185.2000  178.4360  145.2070 C   0  0  2  0  0  3  0  0  0  0  0  0
  186.2610  177.3190  145.1290 C   0  0  2  0  0  3  0  0  0  0  0  0
  185.3340  177.7330  142.8900 C   0  0  1  0  0  3  0  0  0  0  0  0
  184.9130  178.8790  143.7900 C   0  0  0  0  0  2  0  0  0  0  0  0
  186.3750  179.1740  147.3250 C   0  0  0  0  0  2  0  0  0  0  0  0
  188.0240  178.6610  142.6630 C   0  0  0  0  0  2  0  0  0  0  0  0
  185.6830  179.6280  146.0340 C   0  0  0  0  0  2  0  0  0  0  0  0
  187.1060  179.0080  141.4900 C   0  0  0  0  0  2  0  0  0  0  0  0
  185.0430  179.2570  139.2510 C   0  0  0  0  0  2  0  0  0  0  0  0
  185.1210  178.0370  138.3520 C   0  0  0  0  0  2  0  0  0  0  0  0
  186.4500  177.9390  137.6090 C   0  0  0  0  0  0  0  0  0  0  0  0
  186.8790  179.2200  137.2470 O   0  0  0  0  0  1  0  0  0  0  0  0
  187.4080  177.3680  138.4480 O   0  0  0  0  0  1  0  0  0  0  0  0
  186.2710  177.0960  136.4200 N   0  0  0  0  0  0  0  0  0  0  0  0
  187.6270  175.0340  136.3300 C   0  0  0  0  0  0  0  0  0  0  0  0
  186.7140  174.2520  137.2120 C   0  0  0  0  0  1  0  0  0  0  0  0
  187.3640  176.2870  135.9400 C   0  0  0  0  0  3  0  0  0  0  0  0
  188.8370  174.3520  135.7940 C   0  0  0  0  0  2  0  0  0  0  0  0
  190.1100  175.0120  136.3020 C   0  0  0  0  0  2  0  0  0  0  0  0
  190.8510  176.1140  138.4560 C   0  0  0  0  0  0  0  0  0  0  0  0
  191.8110  176.6920  137.8740 O   0  0  0  0  0  0  0  0  0  0  0  0
  190.0300  175.1860  137.7430 N   0  0  0  0  0  2  0  0  0  0  0  0
  190.5590  176.3990  139.8260 N   0  0  0  0  0  2  0  0  0  0  0  0
  191.3590  177.3170  140.6210 C   0  0  0  0  0  2  0  0  0  0  0  0
  191.3060  177.0900  145.0230 N   0  0  0  0  0  2  0  0  0  0  0  0
  191.3780  176.0070  144.0510 C   0  0  0  0  0  2  0  0  0  0  0  0
  191.3020  178.3070  144.2290 C   0  0  0  0  0  2  0  0  0  0  0  0
  191.9130  177.9650  142.8930 C   0  0  1  0  0  3  0  0  0  0  0  0
  192.0010  176.4950  142.8260 N   0  0  2  0  0  0  0  0  0  0  0  0
  190.9580  177.2150  142.0790 C   0  0  2  0  0  3  0  0  0  0  0  0
  184.8180  175.9080  134.8520 C   0  0  0  0  0  1  0  0  0  0  0  0
  184.9870  177.1350  135.7200 C   0  0  0  0  0  2  0  0  0  0  0  0
  183.3750  177.9850  140.6800 C   0  0  0  0  0  2  0  0  0  0  0  0
  181.3580  179.4700  140.1330 N   0  0  0  0  0  2  0  0  0  0  0  0
  181.7930  178.7430  142.2940 O   0  0  0  0  0  0  0  0  0  0  0  0
  182.1460  178.7500  141.0860 C   0  0  0  0  0  0  0  0  0  0  0  0
  181.8970  181.8520  138.3520 O   0  0  0  0  0  0  0  0  0  0  0  0
  180.3890  179.0410  136.7420 C   0  0  0  0  0  2  0  0  0  0  0  0
  181.6260  179.5110  138.6990 C   0  0  2  0  0  3  0  0  0  0  0  0
  181.2540  180.8350  138.1300 C   0  0  0  0  0  0  0  0  0  0  0  0
  180.8090  178.5010  138.0350 N   0  0  0  0  0  2  0  0  0  0  0  0
  179.9430  180.7910  136.9490 S   0  0  0  0  0  0  0  0  0  0  0  0
  1 15  1  6  0  0  0
  1 39  1  0  0  0  0
  3  6  1  0  0  0  0
  4  1  1  1  0  0  0
  4  9  1  0  0  0  0
  5  2  1  6  0  0  0
  5  8  1  0  0  0  0
  6 11  1  0  0  0  0
  7 10  1  6  0  0  0
  7 13  1  0  0  0  0
  8  7  1  0  0  0  0
  8  3  1  6  0  0  0
  9  5  1  0  0  0  0
  9 10  1  1  0  0  0
 12  2  1  0  0  0  0
 13 11  1  0  0  0  0
 14  4  1  0  0  0  0
 14 12  1  0  0  0  0
 16 15  1  0  0  0  0
 17 16  1  0  0  0  0
 17 19  1  0  0  0  0
 18 17  1  0  0  0  0
 20 17  1  0  0  0  0
 21 22  1  0  0  0  0
 23 21  2  0  0  0  0
 23 20  1  0  0  0  0
 24 25  1  0  0  0  0
 24 21  1  0  0  0  0
 25 28  1  0  0  0  0
 26 29  1  0  0  0  0
 27 26  2  0  0  0  0
 28 26  1  0  0  0  0
 29 30  1  0  0  0  0
 32 31  1  0  0  0  0
 33 31  1  0  0  0  0
 34 33  1  1  0  0  0
 35 34  1  0  0  0  0
 35 32  1  1  0  0  0
 36 30  1  6  0  0  0
 36 35  1  0  0  0  0
 36 34  1  0  0  0  0
 37 38  1  0  0  0  0
 38 20  1  0  0  0  0
 39 42  1  0  0  0  0
 40 42  1  0  0  0  0
 42 41  2  0  0  0  0
 44 48  1  0  0  0  0
 44 47  1  0  0  0  0
 45 40  1  1  0  0  0
 46 43  2  0  0  0  0
 46 45  1  0  0  0  0
 47 45  1  0  0  0  0
 48 46  1  0  0  0  0
M  END
>  <MODEL>
6

>  <REMARK>
 VINA RESULT:      -7.2      2.461      7.149
  Name = 
  15 active torsions:
  status: ('A' for Active; 'I' for Inactive)
    1  A    between atoms: C_1  and  C_4
    2  A    between atoms: C_1  and  C_17
    3  A    between atoms: C_5  and  C_30
    4  A    between atoms: C_5  and  C_33
    5  A    between atoms: C_10  and  N_22
    6  A    between atoms: C_11  and  C_12
    7  A    between atoms: C_12  and  C_30
    8  A    between atoms: C_12  and  C_40
    9  A    between atoms: C_17  and  N_36
   10  A    between atoms: N_22  and  C_33
   11  A    between atoms: N_22  and  C_38
   12  A    between atoms: C_28  and  N_34
   13  A    between atoms: C_29  and  C_32
   14  A    between atoms: C_32  and  N_47
   15  A    between atoms: C_40  and  C_46
                            x       y       z     vdW  Elec       q    Type
                         _______ _______ _______ _____ _____    ______ ____

>  <TORSDO>
F 15

$$$$
=
 OpenBabel11062412053D

 48 53  0  0  1  0  0  0  0  0999 V2000
  190.5420  176.8080  139.9640 C   0  0  1  0  0  3  0  0  0  0  0  0
  191.4550  177.3320  144.1660 C   0  0  0  0  0  2  0  0  0  0  0  0
  189.2160  177.4580  145.7020 O   0  0  0  0  0  0  0  0  0  0  0  0
  190.9050  176.9580  141.4530 C   0  0  2  0  0  3  0  0  0  0  0  0
  190.3610  176.2890  143.8670 C   0  0  1  0  0  3  0  0  0  0  0  0
  188.0320  177.4250  146.4600 C   0  0  0  0  0  2  0  0  0  0  0  0
  187.9290  176.7300  143.7390 C   0  0  2  0  0  3  0  0  0  0  0  0
  189.0910  176.4510  144.7140 C   0  0  2  0  0  3  0  0  0  0  0  0
  189.9010  176.2810  142.4000 C   0  0  1  0  0  3  0  0  0  0  0  0
  188.5360  176.9440  142.3710 C   0  0  0  0  0  2  0  0  0  0  0  0
  186.8410  177.9800  145.6540 C   0  0  0  0  0  2  0  0  0  0  0  0
  191.2170  178.6160  143.3800 C   0  0  0  0  0  2  0  0  0  0  0  0
  187.1220  177.9630  144.1470 C   0  0  0  0  0  2  0  0  0  0  0  0
  191.3320  178.3780  141.8730 C   0  0  0  0  0  2  0  0  0  0  0  0
  189.7270  177.9570  139.3750 C   0  0  0  0  0  2  0  0  0  0  0  0
  188.4090  177.4270  138.8370 C   0  0  0  0  0  2  0  0  0  0  0  0
  188.0830  177.9680  137.4480 C   0  0  0  0  0  0  0  0  0  0  0  0
  188.1940  179.3620  137.4510 O   0  0  0  0  0  1  0  0  0  0  0  0
  188.9910  177.4490  136.5240 O   0  0  0  0  0  1  0  0  0  0  0  0
  186.7200  177.5570  137.0850 N   0  0  0  0  0  0  0  0  0  0  0  0
  186.5890  175.3930  135.9010 C   0  0  0  0  0  0  0  0  0  0  0  0
  186.7730  174.5720  137.1320 C   0  0  0  0  0  1  0  0  0  0  0  0
  186.5040  176.7280  135.9240 C   0  0  0  0  0  3  0  0  0  0  0  0
  186.4080  174.6820  134.6060 C   0  0  0  0  0  2  0  0  0  0  0  0
  185.3640  173.5830  134.7230 C   0  0  0  0  0  2  0  0  0  0  0  0
  183.2180  173.9440  136.0160 C   0  0  0  0  0  0  0  0  0  0  0  0
  183.5370  173.0620  136.8620 O   0  0  0  0  0  0  0  0  0  0  0  0
  184.0450  174.1760  134.8730 N   0  0  0  0  0  2  0  0  0  0  0  0
  182.0440  174.7360  136.2040 N   0  0  0  0  0  2  0  0  0  0  0  0
  181.1460  174.5470  137.3320 C   0  0  0  0  0  2  0  0  0  0  0  0
  180.8620  177.5800  140.5180 N   0  0  0  0  0  2  0  0  0  0  0  0
  179.7910  176.8880  139.8140 C   0  0  0  0  0  2  0  0  0  0  0  0
  182.0890  177.0190  139.9770 C   0  0  0  0  0  2  0  0  0  0  0  0
  181.7410  175.6700  139.3980 C   0  0  1  0  0  3  0  0  0  0  0  0
  180.2700  175.5900  139.3560 N   0  0  2  0  0  0  0  0  0  0  0  0
  181.0410  175.8330  138.1260 C   0  0  2  0  0  3  0  0  0  0  0  0
  184.2840  177.5900  137.3050 C   0  0  0  0  0  1  0  0  0  0  0  0
  185.6020  178.0420  137.8940 C   0  0  0  0  0  2  0  0  0  0  0  0
  191.7520  176.4540  139.0930 C   0  0  0  0  0  2  0  0  0  0  0  0
  192.6180  174.5510  137.6090 N   0  0  0  0  0  2  0  0  0  0  0  0
  190.3500  174.8850  137.9730 O   0  0  0  0  0  0  0  0  0  0  0  0
  191.5280  175.2670  138.1980 C   0  0  0  0  0  0  0  0  0  0  0  0
  194.3890  176.5630  136.2130 O   0  0  0  0  0  0  0  0  0  0  0  0
  196.0670  173.7010  137.5400 C   0  0  0  0  0  2  0  0  0  0  0  0
  194.0280  174.8560  137.8340 C   0  0  2  0  0  3  0  0  0  0  0  0
  194.6450  175.4340  136.6090 C   0  0  0  0  0  0  0  0  0  0  0  0
  194.7370  173.6190  138.1430 N   0  0  0  0  0  2  0  0  0  0  0  0
  195.9230  174.4520  135.8910 S   0  0  0  0  0  0  0  0  0  0  0  0
  1 39  1  6  0  0  0
  3  6  1  0  0  0  0
  4  1  1  6  0  0  0
  4 14  1  0  0  0  0
  4  9  1  0  0  0  0
  5  2  1  6  0  0  0
  5  8  1  0  0  0  0
  7 10  1  6  0  0  0
  7 13  1  0  0  0  0
  7  8  1  0  0  0  0
  8  3  1  1  0  0  0
  9 10  1  1  0  0  0
  9  5  1  0  0  0  0
 11  6  1  0  0  0  0
 12  2  1  0  0  0  0
 13 11  1  0  0  0  0
 14 12  1  0  0  0  0
 15  1  1  0  0  0  0
 16 15  1  0  0  0  0
 17 18  1  0  0  0  0
 17 16  1  0  0  0  0
 19 17  1  0  0  0  0
 20 17  1  0  0  0  0
 20 38  1  0  0  0  0
 21 23  2  0  0  0  0
 21 22  1  0  0  0  0
 23 20  1  0  0  0  0
 24 25  1  0  0  0  0
 24 21  1  0  0  0  0
 25 28  1  0  0  0  0
 26 29  1  0  0  0  0
 26 27  2  0  0  0  0
 28 26  1  0  0  0  0
 29 30  1  0  0  0  0
 32 31  1  0  0  0  0
 33 31  1  0  0  0  0
 34 33  1  1  0  0  0
 35 34  1  0  0  0  0
 35 32  1  1  0  0  0
 36 30  1  6  0  0  0
 36 35  1  0  0  0  0
 36 34  1  0  0  0  0
 37 38  1  0  0  0  0
 40 42  1  0  0  0  0
 41 42  2  0  0  0  0
 42 39  1  0  0  0  0
 43 46  2  0  0  0  0
 44 47  1  0  0  0  0
 45 40  1  6  0  0  0
 45 47  1  0  0  0  0
 46 45  1  0  0  0  0
 48 46  1  0  0  0  0
 48 44  1  0  0  0  0
M  END
>  <MODEL>
7

>  <REMARK>
 VINA RESULT:      -7.1      3.914      6.264
  Name = 
  15 active torsions:
  status: ('A' for Active; 'I' for Inactive)
    1  A    between atoms: C_1  and  C_4
    2  A    between atoms: C_1  and  C_17
    3  A    between atoms: C_5  and  C_30
    4  A    between atoms: C_5  and  C_33
    5  A    between atoms: C_10  and  N_22
    6  A    between atoms: C_11  and  C_12
    7  A    between atoms: C_12  and  C_30
    8  A    between atoms: C_12  and  C_40
    9  A    between atoms: C_17  and  N_36
   10  A    between atoms: N_22  and  C_33
   11  A    between atoms: N_22  and  C_38
   12  A    between atoms: C_28  and  N_34
   13  A    between atoms: C_29  and  C_32
   14  A    between atoms: C_32  and  N_47
   15  A    between atoms: C_40  and  C_46
                            x       y       z     vdW  Elec       q    Type
                         _______ _______ _______ _____ _____    ______ ____

>  <TORSDO>
F 15

$$$$
=
 OpenBabel11062412053D

 48 53  0  0  1  0  0  0  0  0999 V2000
  190.9210  176.6940  138.0020 C   0  0  1  0  0  3  0  0  0  0  0  0
  187.6720  175.5130  135.3900 C   0  0  0  0  0  2  0  0  0  0  0  0
  185.3370  176.7540  136.0190 O   0  0  0  0  0  0  0  0  0  0  0  0
  189.7990  176.2780  137.0320 C   0  0  2  0  0  3  0  0  0  0  0  0
  187.7560  177.0250  135.6750 C   0  0  1  0  0  3  0  0  0  0  0  0
  184.1790  177.4910  136.3270 C   0  0  0  0  0  2  0  0  0  0  0  0
  186.6170  178.2230  137.5170 C   0  0  2  0  0  3  0  0  0  0  0  0
  186.4230  177.6600  136.0940 C   0  0  2  0  0  3  0  0  0  0  0  0
  188.7700  177.3910  136.7710 C   0  0  1  0  0  3  0  0  0  0  0  0
  187.9630  177.7390  138.0080 C   0  0  0  0  0  2  0  0  0  0  0  0
  184.1320  177.8500  137.8250 C   0  0  0  0  0  2  0  0  0  0  0  0
  187.8090  174.7060  136.6760 C   0  0  0  0  0  2  0  0  0  0  0  0
  185.5190  177.7570  138.4730 C   0  0  0  0  0  2  0  0  0  0  0  0
  189.1900  174.8890  137.3060 C   0  0  0  0  0  2  0  0  0  0  0  0
  190.7780  176.1630  139.4260 C   0  0  0  0  0  2  0  0  0  0  0  0
  190.4240  177.3010  140.3650 C   0  0  0  0  0  2  0  0  0  0  0  0
  190.6830  176.9580  141.8290 C   0  0  0  0  0  0  0  0  0  0  0  0
  190.3190  175.6290  142.0690 O   0  0  0  0  0  1  0  0  0  0  0  0
  192.0420  177.1050  142.1050 O   0  0  0  0  0  1  0  0  0  0  0  0
  189.9050  177.8700  142.6780 N   0  0  0  0  0  0  0  0  0  0  0  0
  187.4440  178.0030  142.5120 C   0  0  0  0  0  0  0  0  0  0  0  0
  187.1980  176.9690  143.5580 C   0  0  0  0  0  1  0  0  0  0  0  0
  188.6700  178.4320  142.1880 C   0  0  0  0  0  3  0  0  0  0  0  0
  186.2640  178.6410  141.8670 C   0  0  0  0  0  2  0  0  0  0  0  0
  184.9730  178.2390  142.5620 C   0  0  0  0  0  2  0  0  0  0  0  0
  182.6210  178.6430  141.7170 C   0  0  0  0  0  0  0  0  0  0  0  0
  182.2840  179.1850  142.8060 O   0  0  0  0  0  0  0  0  0  0  0  0
  183.9210  178.0630  141.5740 N   0  0  0  0  0  2  0  0  0  0  0  0
  181.7200  178.6250  140.6080 N   0  0  0  0  0  2  0  0  0  0  0  0
  180.3770  179.1770  140.6830 C   0  0  0  0  0  2  0  0  0  0  0  0
  180.6960  181.4980  136.9480 N   0  0  0  0  0  2  0  0  0  0  0  0
  181.0380  181.8980  138.3070 C   0  0  0  0  0  2  0  0  0  0  0  0
  180.2580  180.1160  137.0630 C   0  0  0  0  0  2  0  0  0  0  0  0
  180.8540  179.5680  138.3360 C   0  0  1  0  0  3  0  0  0  0  0  0
  181.3920  180.7170  139.0860 N   0  0  2  0  0  0  0  0  0  0  0  0
  180.1280  180.0840  139.4940 C   0  0  2  0  0  3  0  0  0  0  0  0
  190.9590  179.6420  143.9940 C   0  0  0  0  0  1  0  0  0  0  0  0
  190.4330  178.2240  143.9950 C   0  0  0  0  0  2  0  0  0  0  0  0
  192.3200  176.4430  137.4300 C   0  0  0  0  0  2  0  0  0  0  0  0
  194.4880  175.6000  138.5070 N   0  0  0  0  0  2  0  0  0  0  0  0
  193.4060  177.5090  139.2650 O   0  0  0  0  0  0  0  0  0  0  0  0
  193.4190  176.5500  138.4500 C   0  0  0  0  0  0  0  0  0  0  0  0
  195.3570  172.7630  139.0810 O   0  0  0  0  0  0  0  0  0  0  0  0
  196.1060  173.9650  135.8000 C   0  0  0  0  0  2  0  0  0  0  0  0
  194.6500  174.4780  137.5870 C   0  0  2  0  0  3  0  0  0  0  0  0
  195.6190  173.4870  138.1290 C   0  0  0  0  0  0  0  0  0  0  0  0
  195.1870  174.9750  136.3250 N   0  0  0  0  0  2  0  0  0  0  0  0
  197.0880  173.2890  137.1720 S   0  0  0  0  0  0  0  0  0  0  0  0
  1 39  1  6  0  0  0
  1 15  1  0  0  0  0
  2 12  1  0  0  0  0
  3  6  1  0  0  0  0
  4 14  1  0  0  0  0
  4  1  1  1  0  0  0
  5  2  1  1  0  0  0
  5  8  1  0  0  0  0
  5  9  1  0  0  0  0
  6 11  1  0  0  0  0
  7 10  1  1  0  0  0
  7 13  1  0  0  0  0
  8  3  1  1  0  0  0
  8  7  1  0  0  0  0
  9  4  1  0  0  0  0
  9 10  1  1  0  0  0
 11 13  1  0  0  0  0
 12 14  1  0  0  0  0
 15 16  1  0  0  0  0
 16 17  1  0  0  0  0
 17 18  1  0  0  0  0
 17 19  1  0  0  0  0
 17 20  1  0  0  0  0
 20 38  1  0  0  0  0
 21 22  1  0  0  0  0
 23 21  2  0  0  0  0
 23 20  1  0  0  0  0
 24 21  1  0  0  0  0
 24 25  1  0  0  0  0
 26 27  2  0  0  0  0
 28 26  1  0  0  0  0
 28 25  1  0  0  0  0
 29 30  1  0  0  0  0
 29 26  1  0  0  0  0
 31 33  1  0  0  0  0
 31 32  1  0  0  0  0
 34 33  1  6  0  0  0
 34 35  1  0  0  0  0
 34 36  1  0  0  0  0
 35 32  1  6  0  0  0
 35 36  1  0  0  0  0
 36 30  1  1  0  0  0
 37 38  1  0  0  0  0
 39 42  1  0  0  0  0
 42 40  1  0  0  0  0
 42 41  2  0  0  0  0
 44 47  1  0  0  0  0
 44 48  1  0  0  0  0
 45 46  1  0  0  0  0
 45 40  1  1  0  0  0
 46 43  2  0  0  0  0
 47 45  1  0  0  0  0
 48 46  1  0  0  0  0
M  END
>  <MODEL>
8

>  <REMARK>
 VINA RESULT:      -7.1      3.438      8.013
  Name = 
  15 active torsions:
  status: ('A' for Active; 'I' for Inactive)
    1  A    between atoms: C_1  and  C_4
    2  A    between atoms: C_1  and  C_17
    3  A    between atoms: C_5  and  C_30
    4  A    between atoms: C_5  and  C_33
    5  A    between atoms: C_10  and  N_22
    6  A    between atoms: C_11  and  C_12
    7  A    between atoms: C_12  and  C_30
    8  A    between atoms: C_12  and  C_40
    9  A    between atoms: C_17  and  N_36
   10  A    between atoms: N_22  and  C_33
   11  A    between atoms: N_22  and  C_38
   12  A    between atoms: C_28  and  N_34
   13  A    between atoms: C_29  and  C_32
   14  A    between atoms: C_32  and  N_47
   15  A    between atoms: C_40  and  C_46
                            x       y       z     vdW  Elec       q    Type
                         _______ _______ _______ _____ _____    ______ ____

>  <TORSDO>
F 15

$$$$
=
 OpenBabel11062412053D

 48 53  0  0  1  0  0  0  0  0999 V2000
  187.5500  178.4450  141.8380 C   0  0  1  0  0  3  0  0  0  0  0  0
  191.0760  177.4260  144.1370 C   0  0  0  0  0  2  0  0  0  0  0  0
  190.5670  177.2850  146.8030 O   0  0  0  0  0  0  0  0  0  0  0  0
  188.8150  178.0460  142.6190 C   0  0  2  0  0  3  0  0  0  0  0  0
  189.7960  176.6750  144.5500 C   0  0  1  0  0  3  0  0  0  0  0  0
  190.2300  177.1350  148.1610 C   0  0  0  0  0  2  0  0  0  0  0  0
  188.1710  177.4070  146.2680 C   0  0  2  0  0  3  0  0  0  0  0  0
  189.5200  176.6880  146.0610 C   0  0  2  0  0  3  0  0  0  0  0  0
  188.5220  177.2100  143.8760 C   0  0  1  0  0  3  0  0  0  0  0  0
  187.7700  177.9960  144.9340 C   0  0  0  0  0  2  0  0  0  0  0  0
  189.0590  178.0600  148.5470 C   0  0  0  0  0  2  0  0  0  0  0  0
  190.8080  178.9170  143.9720 C   0  0  0  0  0  2  0  0  0  0  0  0
  188.2690  178.5170  147.3150 C   0  0  0  0  0  2  0  0  0  0  0  0
  189.8330  179.1850  142.8240 C   0  0  0  0  0  2  0  0  0  0  0  0
  187.6390  178.2720  140.3230 C   0  0  0  0  0  2  0  0  0  0  0  0
  188.6760  177.2150  139.9880 C   0  0  0  0  0  2  0  0  0  0  0  0
  189.7380  177.7220  139.0170 C   0  0  0  0  0  0  0  0  0  0  0  0
  189.3590  178.9720  138.5180 O   0  0  0  0  0  1  0  0  0  0  0  0
  190.9520  177.8600  139.6910 O   0  0  0  0  0  1  0  0  0  0  0  0
  189.8880  176.7510  137.9250 N   0  0  0  0  0  0  0  0  0  0  0  0
  188.1710  176.5650  136.1590 C   0  0  0  0  0  0  0  0  0  0  0  0
  188.8060  177.5780  135.2680 C   0  0  0  0  0  1  0  0  0  0  0  0
  188.7180  176.1680  137.3140 C   0  0  0  0  0  3  0  0  0  0  0  0
  186.9190  175.9090  135.6930 C   0  0  0  0  0  2  0  0  0  0  0  0
  186.5140  174.7740  136.6200 C   0  0  0  0  0  2  0  0  0  0  0  0
  184.5780  173.1580  136.8250 C   0  0  0  0  0  0  0  0  0  0  0  0
  184.9580  172.7890  137.9710 O   0  0  0  0  0  0  0  0  0  0  0  0
  185.3700  174.0720  136.0630 N   0  0  0  0  0  2  0  0  0  0  0  0
  183.3400  172.6860  136.2880 N   0  0  0  0  0  2  0  0  0  0  0  0
  182.4900  171.7430  136.9950 C   0  0  0  0  0  2  0  0  0  0  0  0
  178.9320  174.3350  137.2350 N   0  0  0  0  0  2  0  0  0  0  0  0
  179.7430  173.7910  138.3160 C   0  0  0  0  0  2  0  0  0  0  0  0
  179.5770  173.8780  136.0160 C   0  0  0  0  0  2  0  0  0  0  0  0
  181.0100  173.5600  136.3650 C   0  0  1  0  0  3  0  0  0  0  0  0
  181.1010  173.5640  137.8370 N   0  0  2  0  0  0  0  0  0  0  0  0
  181.0810  172.2950  137.0930 C   0  0  2  0  0  3  0  0  0  0  0  0
  191.3960  174.8600  137.5590 C   0  0  0  0  0  1  0  0  0  0  0  0
  191.2370  176.3630  137.5110 C   0  0  0  0  0  2  0  0  0  0  0  0
  186.2760  177.8190  142.4150 C   0  0  0  0  0  2  0  0  0  0  0  0
  184.1870  179.0600  141.6000 N   0  0  0  0  0  2  0  0  0  0  0  0
  185.0630  179.4020  143.7220 O   0  0  0  0  0  0  0  0  0  0  0  0
  185.1570  178.8020  142.6190 C   0  0  0  0  0  0  0  0  0  0  0  0
  184.5600  180.2230  138.8350 O   0  0  0  0  0  0  0  0  0  0  0  0
  182.4920  177.3150  139.0110 C   0  0  0  0  0  2  0  0  0  0  0  0
  184.1500  178.3920  140.3020 C   0  0  2  0  0  3  0  0  0  0  0  0
  183.7920  179.3530  139.2230 C   0  0  0  0  0  0  0  0  0  0  0  0
  183.1210  177.3590  140.3300 N   0  0  0  0  0  2  0  0  0  0  0  0
  182.2640  179.0140  138.4080 S   0  0  0  0  0  0  0  0  0  0  0  0
  1 15  1  6  0  0  0
  1 39  1  0  0  0  0
  3  6  1  0  0  0  0
  4  1  1  1  0  0  0
  4 14  1  0  0  0  0
  4  9  1  0  0  0  0
  5  2  1  1  0  0  0
  5  8  1  0  0  0  0
  6 11  1  0  0  0  0
  7 10  1  6  0  0  0
  7 13  1  0  0  0  0
  8  7  1  0  0  0  0
  8  3  1  1  0  0  0
  9  5  1  0  0  0  0
  9 10  1  1  0  0  0
 12  2  1  0  0  0  0
 13 11  1  0  0  0  0
 14 12  1  0  0  0  0
 16 15  1  0  0  0  0
 17 19  1  0  0  0  0
 17 16  1  0  0  0  0
 18 17  1  0  0  0  0
 20 17  1  0  0  0  0
 21 23  2  0  0  0  0
 22 21  1  0  0  0  0
 23 20  1  0  0  0  0
 24 21  1  0  0  0  0
 24 25  1  0  0  0  0
 26 27  2  0  0  0  0
 28 25  1  0  0  0  0
 28 26  1  0  0  0  0
 29 26  1  0  0  0  0
 29 30  1  0  0  0  0
 31 32  1  0  0  0  0
 33 31  1  0  0  0  0
 34 33  1  1  0  0  0
 34 36  1  0  0  0  0
 34 35  1  0  0  0  0
 35 32  1  1  0  0  0
 36 30  1  6  0  0  0
 36 35  1  0  0  0  0
 38 37  1  0  0  0  0
 38 20  1  0  0  0  0
 39 42  1  0  0  0  0
 40 42  1  0  0  0  0
 42 41  2  0  0  0  0
 43 46  2  0  0  0  0
 44 47  1  0  0  0  0
 45 47  1  0  0  0  0
 45 40  1  1  0  0  0
 46 45  1  0  0  0  0
 48 44  1  0  0  0  0
 48 46  1  0  0  0  0
M  END
>  <MODEL>
9

>  <REMARK>
 VINA RESULT:      -7.1      3.400      4.491
  Name = 
  15 active torsions:
  status: ('A' for Active; 'I' for Inactive)
    1  A    between atoms: C_1  and  C_4
    2  A    between atoms: C_1  and  C_17
    3  A    between atoms: C_5  and  C_30
    4  A    between atoms: C_5  and  C_33
    5  A    between atoms: C_10  and  N_22
    6  A    between atoms: C_11  and  C_12
    7  A    between atoms: C_12  and  C_30
    8  A    between atoms: C_12  and  C_40
    9  A    between atoms: C_17  and  N_36
   10  A    between atoms: N_22  and  C_33
   11  A    between atoms: N_22  and  C_38
   12  A    between atoms: C_28  and  N_34
   13  A    between atoms: C_29  and  C_32
   14  A    between atoms: C_32  and  N_47
   15  A    between atoms: C_40  and  C_46
                            x       y       z     vdW  Elec       q    Type
                         _______ _______ _______ _____ _____    ______ ____

>  <TORSDO>
F 15

$$$$
