=
 OpenBabel11062412233D

 43 49  0  0  1  0  0  0  0  0999 V2000
  189.8260  176.3650  138.7430 C   0  0  0  0  0  0  0  0  0  0  0  0
  182.0030  178.8390  138.0750 C   0  0  1  0  0  3  0  0  0  0  0  0
  184.4560  179.6930  144.9800 C   0  0  0  0  0  3  0  0  0  0  0  0
  184.4910  176.8140  138.8760 C   0  0  0  0  0  2  0  0  0  0  0  0
  183.9340  178.6850  142.7790 C   0  0  2  0  0  3  0  0  0  0  0  0
  181.7520  177.5490  137.5510 O   0  0  0  0  0  0  0  0  0  0  0  0
  187.6250  177.9080  137.9860 C   0  0  1  0  0  3  0  0  0  0  0  0
  190.4600  176.1020  141.5980 N   0  0  0  0  0  1  0  0  0  0  0  0
  188.5210  177.5050  142.0920 C   0  0  0  0  0  0  0  0  0  0  0  0
  189.4920  176.5260  137.4350 N   0  0  0  0  0  0  0  0  0  0  0  0
  183.0600  177.8800  140.7300 C   0  0  2  0  0  3  0  0  0  0  0  0
  187.1320  177.8480  146.7790 C   0  0  2  0  0  3  0  0  0  0  0  0
  184.1350  178.9310  140.6070 C   0  0  1  0  0  3  0  0  0  0  0  0
  188.4310  177.2730  137.0420 C   0  0  0  0  0  3  0  0  0  0  0  0
  185.1880  178.7500  145.5710 C   0  0  0  0  0  3  0  0  0  0  0  0
  188.1620  177.6740  145.8040 O   0  0  0  0  0  0  0  0  0  0  0  0
  182.9900  177.6420  142.2090 C   0  0  0  0  0  2  0  0  0  0  0  0
  187.9400  177.7710  139.3490 C   0  0  0  0  0  0  0  0  0  0  0  0
  188.8020  177.3910  143.5360 C   0  0  0  0  0  3  0  0  0  0  0  0
  185.3930  177.9240  136.8500 C   0  0  0  0  0  2  0  0  0  0  0  0
  187.1560  178.4100  140.3100 C   0  0  0  0  0  3  0  0  0  0  0  0
  182.9210  177.1410  136.8750 C   0  0  1  0  0  0  0  0  0  0  0  0
  183.5010  179.0880  138.0900 C   0  0  1  0  0  3  0  0  0  0  0  0
  187.4370  178.2750  141.6620 C   0  0  0  0  0  3  0  0  0  0  0  0
  187.8840  177.7110  144.4420 C   0  0  0  0  0  3  0  0  0  0  0  0
  190.8270  175.6570  139.0270 O   0  0  0  0  0  0  0  0  0  0  0  0
  183.9680  179.8170  139.3730 C   0  0  0  0  0  2  0  0  0  0  0  0
  183.3570  179.3080  144.0400 C   0  0  0  0  0  2  0  0  0  0  0  0
  184.1140  177.7440  137.6870 C   0  0  1  0  0  0  0  0  0  0  0  0
  189.3460  176.8710  141.1430 C   0  0  0  0  0  0  0  0  0  0  0  0
  186.4790  178.7600  137.5210 C   0  0  0  0  0  2  0  0  0  0  0  0
  182.9830  175.7430  136.8950 O   0  0  0  0  0  1  0  0  0  0  0  0
  183.4270  176.6030  139.9680 C   0  0  0  0  0  2  0  0  0  0  0  0
  186.2990  179.0980  146.5040 C   0  0  0  0  0  2  0  0  0  0  0  0
  189.0540  176.9900  139.7540 C   0  0  0  0  0  0  0  0  0  0  0  0
  184.1620  179.6640  141.7970 O   0  0  0  0  0  0  0  0  0  0  0  0
  182.2150  176.5580  134.5940 O   0  0  0  0  0  0  0  0  0  0  0  0
  181.3890  177.5310  135.0170 O   0  0  0  0  0  0  0  0  0  0  0  0
  182.7130  177.5630  135.3900 C   0  0  0  0  0  3  0  0  0  0  0  0
  181.3660  179.8040  137.2940 O   0  0  0  0  0  0  0  0  0  0  0  0
  180.1210  179.9830  137.8980 C   0  0  0  0  0  1  0  0  0  0  0  0
  187.7070  177.9400  148.0460 O   0  0  0  0  0  0  0  0  0  0  0  0
  189.0810  177.8520  147.8200 C   0  0  0  0  0  1  0  0  0  0  0  0
  1 26  2  0  0  0  0
  1 35  1  0  0  0  0
  2 40  1  6  0  0  0
  2 23  1  0  0  0  0
  3 15  2  0  0  0  0
  4 33  1  0  0  0  0
  5 17  1  6  0  0  0
  5 28  1  0  0  0  0
  6  2  1  0  0  0  0
  7 14  1  6  0  0  0
  7 18  1  0  0  0  0
  9 19  1  0  0  0  0
 10  1  1  0  0  0  0
 11 33  1  6  0  0  0
 11 17  1  0  0  0  0
 12 42  1  1  0  0  0
 13 27  1  6  0  0  0
 13 11  1  0  0  0  0
 13 36  1  0  0  0  0
 14 10  2  0  0  0  0
 15 34  1  0  0  0  0
 16 12  1  0  0  0  0
 18 35  2  0  0  0  0
 18 21  1  0  0  0  0
 19 25  2  0  0  0  0
 20 31  1  0  0  0  0
 21 24  2  0  0  0  0
 22 32  1  1  0  0  0
 22  6  1  0  0  0  0
 22 29  1  0  0  0  0
 23 27  1  1  0  0  0
 24  9  1  0  0  0  0
 25 16  1  0  0  0  0
 28  3  1  0  0  0  0
 29 20  1  6  0  0  0
 29 23  1  0  0  0  0
 29  4  1  0  0  0  0
 30  8  1  0  0  0  0
 30  9  2  0  0  0  0
 31  7  1  0  0  0  0
 34 12  1  0  0  0  0
 35 30  1  0  0  0  0
 36  5  1  0  0  0  0
 37 38  1  0  0  0  0
 37 39  1  0  0  0  0
 38 39  1  0  0  0  0
 39 22  1  0  0  0  0
 40 41  1  0  0  0  0
 43 42  1  0  0  0  0
M  END
>  <MODEL>
1

>  <REMARK>
 VINA RESULT:      -7.7      0.000      0.000
  Name = 
  3 active torsions:
  status: ('A' for Active; 'I' for Inactive)
    1  A    between atoms: O_1  and  C_3
    2  A    between atoms: C_15  and  O_25
    3  A    between atoms: C_26  and  C_41
                            x       y       z     vdW  Elec       q    Type
                         _______ _______ _______ _____ _____    ______ ____

>  <TORSDO>
F 3

$$$$
=
 OpenBabel11062412233D

 43 49  0  0  1  0  0  0  0  0999 V2000
  188.6420  175.9090  135.7900 C   0  0  0  0  0  0  0  0  0  0  0  0
  181.0600  178.3300  137.8890 C   0  0  1  0  0  3  0  0  0  0  0  0
  185.7280  179.0780  143.5540 C   0  0  0  0  0  3  0  0  0  0  0  0
  183.6750  176.3120  137.7490 C   0  0  0  0  0  2  0  0  0  0  0  0
  184.4850  178.1060  141.6440 C   0  0  2  0  0  3  0  0  0  0  0  0
  180.6470  177.0480  137.4570 O   0  0  0  0  0  0  0  0  0  0  0  0
  186.3140  177.4480  135.8630 C   0  0  1  0  0  3  0  0  0  0  0  0
  190.2160  175.5990  138.2490 N   0  0  0  0  0  1  0  0  0  0  0  0
  188.5620  176.9770  139.4060 C   0  0  0  0  0  0  0  0  0  0  0  0
  187.8810  176.0920  134.6790 N   0  0  0  0  0  0  0  0  0  0  0  0
  182.9630  177.3320  140.0030 C   0  0  2  0  0  3  0  0  0  0  0  0
  188.8600  177.2230  144.2900 C   0  0  2  0  0  3  0  0  0  0  0  0
  183.9300  178.3940  139.5400 C   0  0  1  0  0  3  0  0  0  0  0  0
  186.7480  176.8370  134.6870 C   0  0  0  0  0  3  0  0  0  0  0  0
  186.6190  178.1300  143.8390 C   0  0  0  0  0  3  0  0  0  0  0  0
  189.4940  177.0740  143.0190 O   0  0  0  0  0  0  0  0  0  0  0  0
  183.4040  177.0660  141.4110 C   0  0  0  0  0  2  0  0  0  0  0  0
  187.0760  177.2890  137.0330 C   0  0  0  0  0  0  0  0  0  0  0  0
  189.3200  176.8380  140.6640 C   0  0  0  0  0  3  0  0  0  0  0  0
  183.8270  177.4660  135.5600 C   0  0  0  0  0  2  0  0  0  0  0  0
  186.6670  177.9030  138.2170 C   0  0  0  0  0  3  0  0  0  0  0  0
  181.5140  176.6630  136.4140 C   0  0  1  0  0  0  0  0  0  0  0  0
  182.4720  178.5920  137.3950 C   0  0  1  0  0  3  0  0  0  0  0  0
  187.3940  177.7450  139.3880 C   0  0  0  0  0  3  0  0  0  0  0  0
  188.7670  177.1340  141.8350 C   0  0  0  0  0  3  0  0  0  0  0  0
  189.6810  175.2040  135.7000 O   0  0  0  0  0  0  0  0  0  0  0  0
  183.3490  179.3010  138.4550 C   0  0  0  0  0  2  0  0  0  0  0  0
  184.3740  178.7010  143.0390 C   0  0  0  0  0  2  0  0  0  0  0  0
  182.9120  177.2610  136.7800 C   0  0  1  0  0  0  0  0  0  0  0  0
  189.0120  176.3670  138.2190 C   0  0  0  0  0  0  0  0  0  0  0  0
  185.0760  178.2990  135.8350 C   0  0  0  0  0  2  0  0  0  0  0  0
  181.5810  175.2660  136.3840 O   0  0  0  0  0  1  0  0  0  0  0  0
  183.0490  176.0720  139.1350 C   0  0  0  0  0  2  0  0  0  0  0  0
  187.9820  178.4710  144.3420 C   0  0  0  0  0  2  0  0  0  0  0  0
  188.2630  176.5090  137.0170 C   0  0  0  0  0  0  0  0  0  0  0  0
  184.3620  179.1050  140.6630 O   0  0  0  0  0  0  0  0  0  0  0  0
  179.9340  176.1760  134.5950 O   0  0  0  0  0  0  0  0  0  0  0  0
  179.4490  177.2440  135.2530 O   0  0  0  0  0  0  0  0  0  0  0  0
  180.8100  177.1100  135.0990 C   0  0  0  0  0  3  0  0  0  0  0  0
  180.1930  179.3050  137.3930 O   0  0  0  0  0  0  0  0  0  0  0  0
  179.4610  179.7260  138.5030 C   0  0  0  0  0  1  0  0  0  0  0  0
  189.8340  177.2960  145.2860 O   0  0  0  0  0  0  0  0  0  0  0  0
  189.1190  177.4660  146.4710 C   0  0  0  0  0  1  0  0  0  0  0  0
  1 35  1  0  0  0  0
  2 40  1  6  0  0  0
  3 15  2  0  0  0  0
  4 33  1  0  0  0  0
  5 17  1  6  0  0  0
  5 28  1  0  0  0  0
  6  2  1  0  0  0  0
  7 14  1  6  0  0  0
  7 18  1  0  0  0  0
  9 19  1  0  0  0  0
 10 14  2  0  0  0  0
 10  1  1  0  0  0  0
 11 33  1  6  0  0  0
 11 17  1  0  0  0  0
 12 34  1  0  0  0  0
 12 42  1  1  0  0  0
 13 27  1  6  0  0  0
 13 11  1  0  0  0  0
 13 36  1  0  0  0  0
 15 34  1  0  0  0  0
 16 12  1  0  0  0  0
 18 21  1  0  0  0  0
 19 25  2  0  0  0  0
 20 31  1  0  0  0  0
 21 24  2  0  0  0  0
 22 32  1  6  0  0  0
 22 29  1  0  0  0  0
 22  6  1  0  0  0  0
 23  2  1  0  0  0  0
 23 27  1  1  0  0  0
 24  9  1  0  0  0  0
 25 16  1  0  0  0  0
 26  1  2  0  0  0  0
 28  3  1  0  0  0  0
 29 20  1  6  0  0  0
 29 23  1  0  0  0  0
 29  4  1  0  0  0  0
 30  8  1  0  0  0  0
 30  9  2  0  0  0  0
 31  7  1  0  0  0  0
 35 18  2  0  0  0  0
 35 30  1  0  0  0  0
 36  5  1  0  0  0  0
 37 39  1  0  0  0  0
 37 38  1  0  0  0  0
 39 38  1  0  0  0  0
 39 22  1  0  0  0  0
 40 41  1  0  0  0  0
 42 43  1  0  0  0  0
M  END
>  <MODEL>
2

>  <REMARK>
 VINA RESULT:      -4.9      1.589      2.264
  Name = 
  3 active torsions:
  status: ('A' for Active; 'I' for Inactive)
    1  A    between atoms: O_1  and  C_3
    2  A    between atoms: C_15  and  O_25
    3  A    between atoms: C_26  and  C_41
                            x       y       z     vdW  Elec       q    Type
                         _______ _______ _______ _____ _____    ______ ____

>  <TORSDO>
F 3

$$$$
