=
 OpenBabel11062414063D

 53 60  0  0  1  0  0  0  0  0999 V2000
  189.8900  177.8510  143.7870 N   0  0  0  0  0  0  0  0  0  0  0  0
  188.3180  176.6680  147.0890 C   0  0  0  0  0  2  0  0  0  0  0  0
  189.8230  177.8850  145.2450 C   0  0  1  0  0  3  0  0  0  0  0  0
  187.5170  177.6130  144.4160 C   0  0  1  0  0  3  0  0  0  0  0  0
  188.4950  177.7210  143.2380 C   0  0  1  0  0  3  0  0  0  0  0  0
  187.4860  177.9170  146.9040 C   0  0  0  0  0  2  0  0  0  0  0  0
  188.3940  177.3980  145.6750 C   0  0  0  0  0  0  0  0  0  0  0  0
  191.0750  176.5330  143.2310 S   0  0  0  0  0  3  0  0  0  0  0  0
  190.2650  175.5510  142.4700 O   0  0  0  0  0  1  0  0  0  0  0  0
  191.9460  177.1680  141.8780 O   0  0  0  0  0  1  0  0  0  0  0  0
  191.8780  176.8110  146.5220 N   0  0  0  0  0  0  0  0  0  0  0  0
  190.9810  177.3060  145.9340 C   0  0  0  0  0  0  0  0  0  0  0  0
  186.5740  178.5980  144.5780 O   0  0  0  0  0  0  0  0  0  0  0  0
  185.2590  178.2150  144.1320 C   0  0  0  0  0  2  0  0  0  0  0  0
  184.4780  179.2920  143.3980 C   0  0  0  0  0  2  0  0  0  0  0  0
  184.8770  179.2450  142.0040 O   0  0  0  0  0  0  0  0  0  0  0  0
  182.1330  178.9220  137.8400 C   0  0  0  0  0  2  0  0  0  0  0  0
  181.6230  175.4290  136.6670 P   0  0  1  0  0  0  0  0  0  0  0  0
  182.2350  176.6450  139.8190 C   0  0  1  0  0  3  0  0  0  0  0  0
  183.2370  177.8940  137.7010 C   0  0  1  0  0  3  0  0  0  0  0  0
  182.8120  178.8290  140.8140 C   0  0  2  0  0  3  0  0  0  0  0  0
  181.6790  174.2270  135.7410 O   0  0  0  0  0  0  0  0  0  0  0  0
  181.8710  174.9090  138.2020 O   0  0  0  0  0  0  0  0  0  0  0  0
  183.4770  177.1600  139.0580 C   0  0  1  0  0  3  0  0  0  0  0  0
  181.1470  178.7220  139.0440 C   0  0  0  0  0  2  0  0  0  0  0  0
  181.6620  177.9920  140.3480 C   0  0  1  0  0  0  0  0  0  0  0  0
  181.1660  175.8870  138.9230 C   0  0  1  0  0  3  0  0  0  0  0  0
  183.1750  176.8090  136.2040 S   0  0  0  0  0  0  0  0  0  0  0  0
  180.0940  176.0870  136.5070 O   0  0  0  0  0  1  0  0  0  0  0  0
  183.9800  178.3930  139.8380 C   0  0  2  0  0  3  0  0  0  0  0  0
  184.1010  178.2020  141.3570 C   0  0  1  0  0  3  0  0  0  0  0  0
  180.0690  175.2600  139.7690 C   0  0  0  0  0  2  0  0  0  0  0  0
  178.9310  176.0140  139.8570 F   0  0  0  0  0  0  0  0  0  0  0  0
  180.8590  177.7480  141.4220 O   0  0  0  0  0  0  0  0  0  0  0  0
  179.3780  179.5690  141.8290 C   0  0  0  0  0  1  0  0  0  0  0  0
  180.8470  178.7270  143.6620 C   0  0  0  0  0  1  0  0  0  0  0  0
  180.7050  178.9370  142.1940 C   0  0  0  0  0  3  0  0  0  0  0  0
  188.1550  178.6410  142.1070 C   0  0  0  0  0  2  0  0  0  0  0  0
  187.9610  177.9260  140.6980 C   0  0  0  0  0  2  0  0  0  0  0  0
  189.0340  178.1270  139.5170 S   0  0  0  0  0  0  0  0  0  0  0  0
  188.2610  174.3110  136.6580 C   0  0  0  0  0  2  0  0  0  0  0  0
  192.0420  175.0760  137.8450 S   0  0  0  0  0  0  0  0  0  0  0  0
  186.4850  175.9920  137.1800 C   0  0  0  0  0  3  0  0  0  0  0  0
  187.2570  177.0220  137.5740 C   0  0  0  0  0  3  0  0  0  0  0  0
  190.7450  174.2760  136.7570 C   0  0  0  0  0  2  0  0  0  0  0  0
  189.6110  176.1360  137.7760 C   0  0  0  0  0  0  0  0  0  0  0  0
  190.8920  176.3530  138.1850 O   0  0  0  0  0  0  0  0  0  0  0  0
  186.9240  174.5120  137.2130 C   0  0  1  0  0  3  0  0  0  0  0  0
  189.4450  174.9610  136.9010 C   0  0  0  0  0  0  0  0  0  0  0  0
  188.6430  177.0150  138.1540 C   0  0  2  0  0  3  0  0  0  0  0  0
  185.9010  173.5990  136.5770 N   0  0  0  0  0  0  0  0  0  0  0  0
  186.1680  172.9040  135.4170 O   0  0  0  0  0  0  0  0  0  0  0  0
  184.8030  173.3840  137.1760 O   0  0  0  0  0  0  0  0  0  0  0  0
  1  3  1  0  0  0  0
  3  7  1  0  0  0  0
  3 12  1  1  0  0  0
  4 13  1  1  0  0  0
  4  7  1  0  0  0  0
  5 38  1  1  0  0  0
  5  1  1  0  0  0  0
  5  4  1  0  0  0  0
  6  2  1  0  0  0  0
  7  6  1  0  0  0  0
  7  2  1  0  0  0  0
  8  1  1  0  0  0  0
  9  8  1  0  0  0  0
 10  8  1  0  0  0  0
 12 11  3  0  0  0  0
 14 13  1  0  0  0  0
 15 14  1  0  0  0  0
 16 15  1  0  0  0  0
 17 25  1  0  0  0  0
 18 22  2  6  0  0  0
 18 23  1  0  0  0  0
 19 26  1  0  0  0  0
 20 17  1  0  0  0  0
 20 24  1  0  0  0  0
 21 31  1  0  0  0  0
 23 27  1  0  0  0  0
 24 19  1  0  0  0  0
 24 30  1  0  0  0  0
 25 26  1  0  0  0  0
 26 21  1  0  0  0  0
 26 34  1  0  0  0  0
 27 32  1  0  0  0  0
 27 19  1  0  0  0  0
 28 18  1  0  0  0  0
 28 20  1  0  0  0  0
 29 18  1  0  0  0  0
 30 21  1  0  0  0  0
 30 31  1  0  0  0  0
 31 16  1  0  0  0  0
 32 33  1  0  0  0  0
 34 37  1  0  0  0  0
 35 37  1  0  0  0  0
 37 36  1  0  0  0  0
 39 38  1  0  0  0  0
 40 39  1  0  0  0  0
 41 49  1  0  0  0  0
 41 48  1  0  0  0  0
 42 47  1  0  0  0  0
 43 48  1  0  0  0  0
 43 44  2  0  0  0  0
 44 50  1  0  0  0  0
 45 49  1  0  0  0  0
 45 42  1  0  0  0  0
 46 50  1  0  0  0  0
 46 47  1  0  0  0  0
 49 46  2  0  0  0  0
 50 40  1  0  0  0  0
 51 53  2  0  0  0  0
 51 48  1  0  0  0  0
 52 51  2  0  0  0  0
M  END
>  <MODEL>
1

>  <REMARK>
 VINA RESULT:      -7.9      0.000      0.000
  Name = 
  14 active torsions:
  status: ('A' for Active; 'I' for Inactive)
    1  A    between atoms: C_1  and  C_4
    2  A    between atoms: S_2  and  N_5
    3  A    between atoms: O_3  and  C_17
    4  A    between atoms: O_3  and  C_23
    5  A    between atoms: C_4  and  C_30
    6  A    between atoms: C_10  and  C_52
    7  A    between atoms: N_15  and  C_45
    8  A    between atoms: S_16  and  C_51
    9  A    between atoms: C_21  and  C_32
   10  A    between atoms: C_23  and  C_36
   11  A    between atoms: O_27  and  C_31
   12  A    between atoms: O_27  and  C_50
   13  A    between atoms: C_36  and  O_53
   14  A    between atoms: C_44  and  O_53
                            x       y       z     vdW  Elec       q    Type
                         _______ _______ _______ _____ _____    ______ ____

>  <TORSDO>
F 14

$$$$
=
 OpenBabel11062414063D

 53 60  0  0  1  0  0  0  0  0999 V2000
  191.4240  175.5170  138.3080 N   0  0  0  0  0  0  0  0  0  0  0  0
  188.2490  175.5080  136.1400 C   0  0  0  0  0  2  0  0  0  0  0  0
  190.3140  174.8020  137.6830 C   0  0  1  0  0  3  0  0  0  0  0  0
  189.4640  177.0150  138.3610 C   0  0  1  0  0  3  0  0  0  0  0  0
  190.9370  176.8640  138.7680 C   0  0  1  0  0  3  0  0  0  0  0  0
  187.5740  175.6190  137.4880 C   0  0  0  0  0  2  0  0  0  0  0  0
  189.1700  175.8380  137.3970 C   0  0  0  0  0  0  0  0  0  0  0  0
  192.8830  175.5640  137.1580 S   0  0  0  0  0  3  0  0  0  0  0  0
  193.6410  176.7890  137.5130 O   0  0  0  0  0  1  0  0  0  0  0  0
  194.0410  174.4280  137.7570 O   0  0  0  0  0  1  0  0  0  0  0  0
  190.9930  173.1030  135.7690 N   0  0  0  0  0  0  0  0  0  0  0  0
  190.6950  173.8850  136.6030 C   0  0  0  0  0  0  0  0  0  0  0  0
  188.5210  177.1500  139.3500 O   0  0  0  0  0  0  0  0  0  0  0  0
  187.6370  178.2700  139.1510 C   0  0  0  0  0  2  0  0  0  0  0  0
  186.7120  178.5860  140.3150 C   0  0  0  0  0  2  0  0  0  0  0  0
  185.6190  179.3870  139.7960 O   0  0  0  0  0  0  0  0  0  0  0  0
  182.1270  177.3330  136.8700 C   0  0  0  0  0  2  0  0  0  0  0  0
  180.0990  174.7290  138.5860 P   0  0  1  0  0  0  0  0  0  0  0  0
  181.7880  177.4290  139.8690 C   0  0  1  0  0  3  0  0  0  0  0  0
  182.7050  176.2040  137.6980 C   0  0  1  0  0  3  0  0  0  0  0  0
  183.3450  179.1400  139.0080 C   0  0  2  0  0  3  0  0  0  0  0  0
  179.4980  173.3630  138.8640 O   0  0  0  0  0  1  0  0  0  0  0  0
  180.4570  175.4360  140.0200 O   0  0  0  0  0  0  0  0  0  0  0  0
  182.9370  176.6670  139.1710 C   0  0  1  0  0  3  0  0  0  0  0  0
  181.4230  178.4870  137.6680 C   0  0  0  0  0  2  0  0  0  0  0  0
  181.8930  178.8020  139.1440 C   0  0  1  0  0  0  0  0  0  0  0  0
  180.3460  176.7930  139.6730 C   0  0  1  0  0  3  0  0  0  0  0  0
  181.9170  174.5420  137.4960 S   0  0  0  0  0  0  0  0  0  0  0  0
  178.9350  175.6080  137.7690 O   0  0  0  0  0  0  0  0  0  0  0  0
  184.0230  177.7170  138.8560 C   0  0  2  0  0  3  0  0  0  0  0  0
  184.3880  178.6510  140.0190 C   0  0  1  0  0  3  0  0  0  0  0  0
  179.3050  177.4950  140.5310 C   0  0  0  0  0  2  0  0  0  0  0  0
  179.5890  177.4930  141.8690 F   0  0  0  0  0  0  0  0  0  0  0  0
  181.3100  179.7630  139.9130 O   0  0  0  0  0  0  0  0  0  0  0  0
  179.3550  181.1230  139.8790 C   0  0  0  0  0  1  0  0  0  0  0  0
  181.3600  181.7950  138.5540 C   0  0  0  0  0  1  0  0  0  0  0  0
  180.5620  180.6580  139.0920 C   0  0  0  0  0  3  0  0  0  0  0  0
  191.3400  177.2590  140.1550 C   0  0  0  0  0  2  0  0  0  0  0  0
  190.2580  176.9460  141.2810 C   0  0  0  0  0  2  0  0  0  0  0  0
  190.6350  177.0580  142.8410 S   0  0  0  0  0  0  0  0  0  0  0  0
  186.9760  177.5840  145.9490 C   0  0  0  0  0  2  0  0  0  0  0  0
  190.6880  177.0490  147.4390 S   0  0  0  0  0  0  0  0  0  0  0  0
  186.6320  177.3250  143.4850 C   0  0  0  0  0  3  0  0  0  0  0  0
  187.8110  176.7710  143.1490 C   0  0  0  0  0  3  0  0  0  0  0  0
  188.8180  177.0770  147.5380 C   0  0  0  0  0  2  0  0  0  0  0  0
  189.2930  176.9120  145.1870 C   0  0  0  0  0  0  0  0  0  0  0  0
  190.5380  176.7630  145.7170 O   0  0  0  0  0  0  0  0  0  0  0  0
  186.4020  178.1850  144.7460 C   0  0  1  0  0  3  0  0  0  0  0  0
  188.2220  177.0610  146.1880 C   0  0  0  0  0  0  0  0  0  0  0  0
  189.1450  176.8640  143.8340 C   0  0  2  0  0  3  0  0  0  0  0  0
  184.9470  178.5500  144.9310 N   0  0  0  0  0  0  0  0  0  0  0  0
  184.4570  178.9970  146.1390 O   0  0  0  0  0  0  0  0  0  0  0  0
  184.1720  178.5430  143.9260 O   0  0  0  0  0  0  0  0  0  0  0  0
  1  5  1  0  0  0  0
  2  7  1  0  0  0  0
  2  6  1  0  0  0  0
  3 12  1  6  0  0  0
  3  1  1  0  0  0  0
  4  5  1  0  0  0  0
  4 13  1  1  0  0  0
  5 38  1  1  0  0  0
  7  6  1  0  0  0  0
  7  3  1  0  0  0  0
  7  4  1  0  0  0  0
  8  9  1  0  0  0  0
  8 10  1  0  0  0  0
  8  1  1  0  0  0  0
 11 12  3  0  0  0  0
 14 13  1  0  0  0  0
 14 15  1  0  0  0  0
 16 31  1  0  0  0  0
 16 15  1  0  0  0  0
 17 25  1  0  0  0  0
 17 20  1  0  0  0  0
 18 29  2  6  0  0  0
 18 22  1  0  0  0  0
 18 23  1  0  0  0  0
 20 24  1  0  0  0  0
 21 26  1  0  0  0  0
 21 31  1  0  0  0  0
 24 19  1  0  0  0  0
 25 26  1  0  0  0  0
 26 19  1  0  0  0  0
 26 34  1  0  0  0  0
 27 19  1  0  0  0  0
 27 23  1  0  0  0  0
 27 32  1  0  0  0  0
 28 20  1  0  0  0  0
 28 18  1  0  0  0  0
 30 21  1  0  0  0  0
 30 24  1  0  0  0  0
 30 31  1  0  0  0  0
 32 33  1  0  0  0  0
 36 37  1  0  0  0  0
 37 35  1  0  0  0  0
 37 34  1  0  0  0  0
 38 39  1  0  0  0  0
 39 40  1  0  0  0  0
 40 50  1  0  0  0  0
 41 49  1  0  0  0  0
 42 45  1  0  0  0  0
 43 48  1  0  0  0  0
 44 43  2  0  0  0  0
 44 50  1  0  0  0  0
 46 47  1  0  0  0  0
 46 49  2  0  0  0  0
 47 42  1  0  0  0  0
 48 51  1  0  0  0  0
 48 41  1  0  0  0  0
 49 45  1  0  0  0  0
 50 46  1  0  0  0  0
 51 52  2  0  0  0  0
 53 51  2  0  0  0  0
M  END
>  <MODEL>
2

>  <REMARK>
 VINA RESULT:      -7.4      2.634      6.263
  Name = 
  14 active torsions:
  status: ('A' for Active; 'I' for Inactive)
    1  A    between atoms: C_1  and  C_4
    2  A    between atoms: S_2  and  N_5
    3  A    between atoms: O_3  and  C_17
    4  A    between atoms: O_3  and  C_23
    5  A    between atoms: C_4  and  C_30
    6  A    between atoms: C_10  and  C_52
    7  A    between atoms: N_15  and  C_45
    8  A    between atoms: S_16  and  C_51
    9  A    between atoms: C_21  and  C_32
   10  A    between atoms: C_23  and  C_36
   11  A    between atoms: O_27  and  C_31
   12  A    between atoms: O_27  and  C_50
   13  A    between atoms: C_36  and  O_53
   14  A    between atoms: C_44  and  O_53
                            x       y       z     vdW  Elec       q    Type
                         _______ _______ _______ _____ _____    ______ ____

>  <TORSDO>
F 14

$$$$
=
 OpenBabel11062414063D

 53 60  0  0  1  0  0  0  0  0999 V2000
  189.8380  177.8520  145.6550 N   0  0  0  0  0  0  0  0  0  0  0  0
  186.0450  177.2830  145.9060 C   0  0  0  0  0  2  0  0  0  0  0  0
  188.5470  178.1520  146.2670 C   0  0  1  0  0  3  0  0  0  0  0  0
  188.1350  177.7160  143.8760 C   0  0  1  0  0  3  0  0  0  0  0  0
  189.6350  177.6130  144.1830 C   0  0  1  0  0  3  0  0  0  0  0  0
  186.0110  178.4700  144.9710 C   0  0  0  0  0  2  0  0  0  0  0  0
  187.4230  177.7410  145.2510 C   0  0  0  0  0  0  0  0  0  0  0  0
  190.6710  176.4630  146.5650 S   0  0  0  0  0  3  0  0  0  0  0  0
  191.7550  175.9840  145.6720 O   0  0  0  0  0  1  0  0  0  0  0  0
  191.6960  177.1790  147.7600 O   0  0  0  0  0  1  0  0  0  0  0  0
  188.2970  177.4210  148.7990 N   0  0  0  0  0  0  0  0  0  0  0  0
  188.4040  177.7170  147.6610 C   0  0  0  0  0  0  0  0  0  0  0  0
  187.7060  178.7070  143.0280 O   0  0  0  0  0  0  0  0  0  0  0  0
  186.6610  178.2840  142.1310 C   0  0  0  0  0  2  0  0  0  0  0  0
  185.5600  179.3020  141.8840 C   0  0  0  0  0  2  0  0  0  0  0  0
  185.3280  179.3540  140.4530 O   0  0  0  0  0  0  0  0  0  0  0  0
  181.4350  178.9350  137.3480 C   0  0  0  0  0  2  0  0  0  0  0  0
  180.5580  175.4120  136.5370 P   0  0  1  0  0  0  0  0  0  0  0  0
  182.1200  176.7310  139.2960 C   0  0  1  0  0  3  0  0  0  0  0  0
  182.4340  177.8780  136.9210 C   0  0  1  0  0  3  0  0  0  0  0  0
  182.9940  178.9380  139.9730 C   0  0  2  0  0  3  0  0  0  0  0  0
  180.3160  174.1750  135.6900 O   0  0  0  0  0  0  0  0  0  0  0  0
  181.2600  174.9440  137.9420 O   0  0  0  0  0  0  0  0  0  0  0  0
  183.0730  177.1910  138.1690 C   0  0  1  0  0  3  0  0  0  0  0  0
  180.8650  178.8000  138.8040 C   0  0  0  0  0  2  0  0  0  0  0  0
  181.7490  178.1090  139.9170 C   0  0  1  0  0  0  0  0  0  0  0  0
  180.8200  175.9640  138.8030 C   0  0  1  0  0  3  0  0  0  0  0  0
  181.9050  176.7400  135.5630 S   0  0  0  0  0  0  0  0  0  0  0  0
  179.0600  176.0960  136.8260 O   0  0  0  0  0  1  0  0  0  0  0  0
  183.8020  178.4410  138.7050 C   0  0  2  0  0  3  0  0  0  0  0  0
  184.3820  178.3050  140.1200 C   0  0  1  0  0  3  0  0  0  0  0  0
  180.0310  175.3930  139.9710 C   0  0  0  0  0  2  0  0  0  0  0  0
  179.8780  174.0340  139.9310 F   0  0  0  0  0  0  0  0  0  0  0  0
  181.3120  177.9240  141.1950 O   0  0  0  0  0  0  0  0  0  0  0  0
  180.0520  179.7570  142.0440 C   0  0  0  0  0  1  0  0  0  0  0  0
  182.0910  178.9820  143.2570 C   0  0  0  0  0  1  0  0  0  0  0  0
  181.4300  179.1390  141.9310 C   0  0  0  0  0  3  0  0  0  0  0  0
  190.6010  178.3080  143.2750 C   0  0  0  0  0  2  0  0  0  0  0  0
  190.2840  178.1600  141.7220 C   0  0  0  0  0  2  0  0  0  0  0  0
  190.4350  176.7400  140.9810 S   0  0  0  0  0  0  0  0  0  0  0  0
  188.5690  175.9070  136.6050 C   0  0  0  0  0  2  0  0  0  0  0  0
  192.2280  174.4210  137.4380 S   0  0  0  0  0  0  0  0  0  0  0  0
  187.5100  177.4610  138.2530 C   0  0  0  0  0  3  0  0  0  0  0  0
  188.5700  177.7050  139.0460 C   0  0  0  0  0  3  0  0  0  0  0  0
  190.8370  174.9360  136.2950 C   0  0  0  0  0  2  0  0  0  0  0  0
  190.3900  176.1010  138.3510 C   0  0  0  0  0  0  0  0  0  0  0  0
  191.6120  175.5630  138.6150 O   0  0  0  0  0  0  0  0  0  0  0  0
  187.3580  176.2060  137.3660 C   0  0  1  0  0  3  0  0  0  0  0  0
  189.8810  175.8160  136.9970 C   0  0  0  0  0  0  0  0  0  0  0  0
  189.7890  176.8660  139.3040 C   0  0  2  0  0  3  0  0  0  0  0  0
  186.1330  176.2780  136.4820 N   0  0  0  0  0  0  0  0  0  0  0  0
  185.2420  175.2310  136.3880 O   0  0  0  0  0  0  0  0  0  0  0  0
  185.8590  177.3660  135.8880 O   0  0  0  0  0  0  0  0  0  0  0  0
  1  3  1  0  0  0  0
  1  8  1  0  0  0  0
  3 12  1  1  0  0  0
  4 13  1  1  0  0  0
  4  5  1  0  0  0  0
  4  7  1  0  0  0  0
  5 38  1  6  0  0  0
  5  1  1  0  0  0  0
  6  7  1  0  0  0  0
  6  2  1  0  0  0  0
  7  2  1  0  0  0  0
  7  3  1  0  0  0  0
  8 10  1  0  0  0  0
  9  8  1  0  0  0  0
 12 11  3  0  0  0  0
 14 13  1  0  0  0  0
 15 14  1  0  0  0  0
 16 15  1  0  0  0  0
 17 25  1  0  0  0  0
 18 22  2  6  0  0  0
 18 29  1  0  0  0  0
 18 23  1  0  0  0  0
 19 26  1  0  0  0  0
 20 17  1  0  0  0  0
 20 24  1  0  0  0  0
 21 31  1  0  0  0  0
 23 27  1  0  0  0  0
 24 30  1  0  0  0  0
 24 19  1  0  0  0  0
 25 26  1  0  0  0  0
 26 21  1  0  0  0  0
 26 34  1  0  0  0  0
 27 19  1  0  0  0  0
 27 32  1  0  0  0  0
 28 18  1  0  0  0  0
 28 20  1  0  0  0  0
 30 21  1  0  0  0  0
 30 31  1  0  0  0  0
 31 16  1  0  0  0  0
 33 32  1  0  0  0  0
 34 37  1  0  0  0  0
 37 35  1  0  0  0  0
 37 36  1  0  0  0  0
 39 38  1  0  0  0  0
 40 39  1  0  0  0  0
 41 49  1  0  0  0  0
 41 48  1  0  0  0  0
 42 47  1  0  0  0  0
 43 44  2  0  0  0  0
 44 50  1  0  0  0  0
 45 49  1  0  0  0  0
 45 42  1  0  0  0  0
 46 47  1  0  0  0  0
 46 50  1  0  0  0  0
 48 43  1  0  0  0  0
 49 46  2  0  0  0  0
 50 40  1  0  0  0  0
 51 48  1  0  0  0  0
 52 51  2  0  0  0  0
 53 51  2  0  0  0  0
M  END
>  <MODEL>
3

>  <REMARK>
 VINA RESULT:      -6.9      1.830      2.051
  Name = 
  14 active torsions:
  status: ('A' for Active; 'I' for Inactive)
    1  A    between atoms: C_1  and  C_4
    2  A    between atoms: S_2  and  N_5
    3  A    between atoms: O_3  and  C_17
    4  A    between atoms: O_3  and  C_23
    5  A    between atoms: C_4  and  C_30
    6  A    between atoms: C_10  and  C_52
    7  A    between atoms: N_15  and  C_45
    8  A    between atoms: S_16  and  C_51
    9  A    between atoms: C_21  and  C_32
   10  A    between atoms: C_23  and  C_36
   11  A    between atoms: O_27  and  C_31
   12  A    between atoms: O_27  and  C_50
   13  A    between atoms: C_36  and  O_53
   14  A    between atoms: C_44  and  O_53
                            x       y       z     vdW  Elec       q    Type
                         _______ _______ _______ _____ _____    ______ ____

>  <TORSDO>
F 14

$$$$
=
 OpenBabel11062414063D

 53 60  0  0  1  0  0  0  0  0999 V2000
  189.6110  177.8280  143.4240 N   0  0  0  0  0  0  0  0  0  0  0  0
  186.4240  177.1180  145.4520 C   0  0  0  0  0  2  0  0  0  0  0  0
  188.7900  178.0360  144.6130 C   0  0  1  0  0  3  0  0  0  0  0  0
  187.2520  177.7790  142.7040 C   0  0  1  0  0  3  0  0  0  0  0  0
  188.7090  177.7010  142.2270 C   0  0  1  0  0  3  0  0  0  0  0  0
  185.9480  178.3740  144.7590 C   0  0  0  0  0  2  0  0  0  0  0  0
  187.3070  177.6710  144.2480 C   0  0  0  0  0  0  0  0  0  0  0  0
  190.7680  176.3990  143.6870 S   0  0  0  0  0  3  0  0  0  0  0  0
  190.2480  175.2940  142.8450 O   0  0  0  0  0  1  0  0  0  0  0  0
  192.1890  176.7140  142.7520 O   0  0  0  0  0  1  0  0  0  0  0  0
  189.7940  177.0970  146.8770 N   0  0  0  0  0  0  0  0  0  0  0  0
  189.3450  177.4870  145.8560 C   0  0  0  0  0  0  0  0  0  0  0  0
  186.4730  178.8200  142.2630 O   0  0  0  0  0  0  0  0  0  0  0  0
  186.1520  178.7450  140.8610 C   0  0  0  0  0  2  0  0  0  0  0  0
  184.7350  179.1520  140.4920 C   0  0  0  0  0  2  0  0  0  0  0  0
  183.8660  178.7270  141.5740 O   0  0  0  0  0  0  0  0  0  0  0  0
  181.1140  177.8830  137.4900 C   0  0  0  0  0  2  0  0  0  0  0  0
  180.4900  174.2730  136.8420 P   0  0  1  0  0  0  0  0  0  0  0  0
  181.1410  175.9200  139.7840 C   0  0  1  0  0  3  0  0  0  0  0  0
  182.1840  176.8100  137.5090 C   0  0  1  0  0  3  0  0  0  0  0  0
  181.7880  178.2070  140.4490 C   0  0  2  0  0  3  0  0  0  0  0  0
  180.5080  172.9470  136.1030 O   0  0  0  0  0  0  0  0  0  0  0  0
  180.7200  173.9770  138.4380 O   0  0  0  0  0  0  0  0  0  0  0  0
  182.3990  176.2770  138.9610 C   0  0  1  0  0  3  0  0  0  0  0  0
  180.1220  177.8930  138.7050 C   0  0  0  0  0  2  0  0  0  0  0  0
  180.6120  177.3480  140.1050 C   0  0  1  0  0  0  0  0  0  0  0  0
  180.0480  175.0730  139.0030 C   0  0  1  0  0  3  0  0  0  0  0  0
  182.0860  175.5190  136.1890 S   0  0  0  0  0  0  0  0  0  0  0  0
  178.9840  174.9490  136.5790 O   0  0  0  0  0  1  0  0  0  0  0  0
  182.9420  177.5940  139.5530 C   0  0  2  0  0  3  0  0  0  0  0  0
  183.0570  177.6260  141.0850 C   0  0  1  0  0  3  0  0  0  0  0  0
  178.9310  174.6140  139.9280 C   0  0  0  0  0  2  0  0  0  0  0  0
  179.3670  173.9860  141.0620 F   0  0  0  0  0  0  0  0  0  0  0  0
  179.8010  177.2910  141.1990 O   0  0  0  0  0  0  0  0  0  0  0  0
  178.9630  179.4710  141.6660 C   0  0  0  0  0  1  0  0  0  0  0  0
  180.0410  178.1390  143.4800 C   0  0  0  0  0  1  0  0  0  0  0  0
  180.0110  178.4370  142.0210 C   0  0  0  0  0  3  0  0  0  0  0  0
  189.1120  178.4970  141.0240 C   0  0  0  0  0  2  0  0  0  0  0  0
  189.3000  177.6480  139.6920 C   0  0  0  0  0  2  0  0  0  0  0  0
  190.6350  176.7850  139.4440 S   0  0  0  0  0  0  0  0  0  0  0  0
  190.4270  173.2050  136.2090 C   0  0  0  0  0  2  0  0  0  0  0  0
  194.0400  174.2540  137.6700 S   0  0  0  0  0  0  0  0  0  0  0  0
  188.4510  174.6260  136.7840 C   0  0  0  0  0  3  0  0  0  0  0  0
  189.0840  175.6900  137.3130 C   0  0  0  0  0  3  0  0  0  0  0  0
  192.8920  173.4280  136.4430 C   0  0  0  0  0  2  0  0  0  0  0  0
  191.5110  175.0470  137.5630 C   0  0  0  0  0  0  0  0  0  0  0  0
  192.7390  175.3600  138.0610 O   0  0  0  0  0  0  0  0  0  0  0  0
  189.0520  173.2060  136.7050 C   0  0  1  0  0  3  0  0  0  0  0  0
  191.5180  173.9520  136.5770 C   0  0  0  0  0  0  0  0  0  0  0  0
  190.4340  175.7750  137.9660 C   0  0  2  0  0  3  0  0  0  0  0  0
  188.1680  172.2540  135.9320 N   0  0  0  0  0  0  0  0  0  0  0  0
  186.8590  172.0200  136.2950 O   0  0  0  0  0  0  0  0  0  0  0  0
  188.6040  171.7330  134.8600 O   0  0  0  0  0  0  0  0  0  0  0  0
  1  8  1  0  0  0  0
  1  3  1  0  0  0  0
  3 12  1  1  0  0  0
  4 13  1  1  0  0  0
  4  7  1  0  0  0  0
  5 38  1  6  0  0  0
  5  4  1  0  0  0  0
  5  1  1  0  0  0  0
  6  2  1  0  0  0  0
  7  3  1  0  0  0  0
  7  6  1  0  0  0  0
  7  2  1  0  0  0  0
  9  8  1  0  0  0  0
 10  8  1  0  0  0  0
 12 11  3  0  0  0  0
 14 13  1  0  0  0  0
 15 14  1  0  0  0  0
 15 16  1  0  0  0  0
 17 20  1  0  0  0  0
 17 25  1  0  0  0  0
 18 22  2  6  0  0  0
 18 23  1  0  0  0  0
 19 26  1  0  0  0  0
 20 24  1  0  0  0  0
 21 31  1  0  0  0  0
 23 27  1  0  0  0  0
 24 30  1  0  0  0  0
 24 19  1  0  0  0  0
 25 26  1  0  0  0  0
 26 21  1  0  0  0  0
 26 34  1  0  0  0  0
 27 19  1  0  0  0  0
 27 32  1  0  0  0  0
 28 18  1  0  0  0  0
 28 20  1  0  0  0  0
 29 18  1  0  0  0  0
 30 21  1  0  0  0  0
 30 31  1  0  0  0  0
 31 16  1  0  0  0  0
 32 33  1  0  0  0  0
 34 37  1  0  0  0  0
 35 37  1  0  0  0  0
 37 36  1  0  0  0  0
 39 38  1  0  0  0  0
 40 39  1  0  0  0  0
 41 49  1  0  0  0  0
 41 48  1  0  0  0  0
 42 47  1  0  0  0  0
 43 44  2  0  0  0  0
 44 50  1  0  0  0  0
 45 49  1  0  0  0  0
 45 42  1  0  0  0  0
 46 50  1  0  0  0  0
 46 47  1  0  0  0  0
 48 43  1  0  0  0  0
 49 46  2  0  0  0  0
 50 40  1  0  0  0  0
 51 52  2  0  0  0  0
 51 48  1  0  0  0  0
 53 51  2  0  0  0  0
M  END
>  <MODEL>
4

>  <REMARK>
 VINA RESULT:      -6.5      1.503      1.923
  Name = 
  14 active torsions:
  status: ('A' for Active; 'I' for Inactive)
    1  A    between atoms: C_1  and  C_4
    2  A    between atoms: S_2  and  N_5
    3  A    between atoms: O_3  and  C_17
    4  A    between atoms: O_3  and  C_23
    5  A    between atoms: C_4  and  C_30
    6  A    between atoms: C_10  and  C_52
    7  A    between atoms: N_15  and  C_45
    8  A    between atoms: S_16  and  C_51
    9  A    between atoms: C_21  and  C_32
   10  A    between atoms: C_23  and  C_36
   11  A    between atoms: O_27  and  C_31
   12  A    between atoms: O_27  and  C_50
   13  A    between atoms: C_36  and  O_53
   14  A    between atoms: C_44  and  O_53
                            x       y       z     vdW  Elec       q    Type
                         _______ _______ _______ _____ _____    ______ ____

>  <TORSDO>
F 14

$$$$
=
 OpenBabel11062414063D

 53 60  0  0  1  0  0  0  0  0999 V2000
  189.9370  177.6520  143.7540 N   0  0  0  0  0  0  0  0  0  0  0  0
  186.1100  177.3240  143.6020 C   0  0  0  0  0  2  0  0  0  0  0  0
  188.6080  178.0650  144.1970 C   0  0  1  0  0  3  0  0  0  0  0  0
  188.4350  177.5060  141.8030 C   0  0  1  0  0  3  0  0  0  0  0  0
  189.8830  177.3350  142.2850 C   0  0  1  0  0  3  0  0  0  0  0  0
  186.2570  178.4500  142.6050 C   0  0  0  0  0  2  0  0  0  0  0  0
  187.5790  177.6590  143.0840 C   0  0  0  0  0  0  0  0  0  0  0  0
  190.5720  176.2760  144.8290 S   0  0  0  0  0  3  0  0  0  0  0  0
  191.6750  175.6410  144.0680 O   0  0  0  0  0  1  0  0  0  0  0  0
  191.5600  176.9980  146.0520 O   0  0  0  0  0  1  0  0  0  0  0  0
  187.9740  177.4320  146.6890 N   0  0  0  0  0  0  0  0  0  0  0  0
  188.2840  177.7270  145.5880 C   0  0  0  0  0  0  0  0  0  0  0  0
  188.1680  178.4660  140.8580 O   0  0  0  0  0  0  0  0  0  0  0  0
  188.2310  177.9750  139.5050 C   0  0  0  0  0  2  0  0  0  0  0  0
  186.9130  177.9750  138.7490 C   0  0  0  0  0  2  0  0  0  0  0  0
  186.0740  179.0020  139.3370 O   0  0  0  0  0  0  0  0  0  0  0  0
  182.2320  177.2950  136.6360 C   0  0  0  0  0  2  0  0  0  0  0  0
  180.0390  174.9390  138.5010 P   0  0  1  0  0  0  0  0  0  0  0  0
  182.0690  177.4600  139.6460 C   0  0  1  0  0  3  0  0  0  0  0  0
  182.7320  176.1200  137.4510 C   0  0  1  0  0  3  0  0  0  0  0  0
  183.7470  178.9880  138.6750 C   0  0  2  0  0  3  0  0  0  0  0  0
  179.3140  173.6470  138.8340 O   0  0  0  0  0  1  0  0  0  0  0  0
  180.5470  175.6210  139.9020 O   0  0  0  0  0  0  0  0  0  0  0  0
  183.0920  176.5730  138.9020 C   0  0  1  0  0  3  0  0  0  0  0  0
  181.6970  178.5250  137.4490 C   0  0  0  0  0  2  0  0  0  0  0  0
  182.2770  178.8060  138.8930 C   0  0  1  0  0  0  0  0  0  0  0  0
  180.5600  176.9780  139.5380 C   0  0  1  0  0  3  0  0  0  0  0  0
  181.7650  174.5490  137.3200 S   0  0  0  0  0  0  0  0  0  0  0  0
  178.9310  175.9270  137.7320 O   0  0  0  0  0  0  0  0  0  0  0  0
  184.2630  177.4990  138.5120 C   0  0  2  0  0  3  0  0  0  0  0  0
  184.7860  178.4030  139.6380 C   0  0  1  0  0  3  0  0  0  0  0  0
  179.6460  177.7960  140.4380 C   0  0  0  0  0  2  0  0  0  0  0  0
  180.1910  178.1090  141.6520 F   0  0  0  0  0  0  0  0  0  0  0  0
  181.8400  179.8320  139.6760 O   0  0  0  0  0  0  0  0  0  0  0  0
  179.9070  181.2230  139.6910 C   0  0  0  0  0  1  0  0  0  0  0  0
  181.9240  181.9120  138.3930 C   0  0  0  0  0  1  0  0  0  0  0  0
  181.1080  180.7690  138.8880 C   0  0  0  0  0  3  0  0  0  0  0  0
  190.9860  177.9140  141.4560 C   0  0  0  0  0  2  0  0  0  0  0  0
  191.2130  177.2000  140.0510 C   0  0  0  0  0  2  0  0  0  0  0  0
  192.6850  177.0880  139.4100 S   0  0  0  0  0  0  0  0  0  0  0  0
  192.5340  173.4010  136.2940 C   0  0  0  0  0  2  0  0  0  0  0  0
  195.8810  173.9120  138.4920 S   0  0  0  0  0  0  0  0  0  0  0  0
  190.7670  175.1690  136.3850 C   0  0  0  0  0  3  0  0  0  0  0  0
  191.4530  176.1410  137.0150 C   0  0  0  0  0  3  0  0  0  0  0  0
  194.8910  173.2180  137.0610 C   0  0  0  0  0  2  0  0  0  0  0  0
  193.6160  175.1140  137.8100 C   0  0  0  0  0  0  0  0  0  0  0  0
  194.7450  175.2440  138.5590 O   0  0  0  0  0  0  0  0  0  0  0  0
  191.1080  173.6660  136.4740 C   0  0  1  0  0  3  0  0  0  0  0  0
  193.6370  173.9740  136.8760 C   0  0  0  0  0  0  0  0  0  0  0  0
  192.6250  176.0370  137.9480 C   0  0  2  0  0  3  0  0  0  0  0  0
  190.2530  172.8320  135.5470 N   0  0  0  0  0  0  0  0  0  0  0  0
  188.9400  173.1570  135.2790 O   0  0  0  0  0  0  0  0  0  0  0  0
  190.7810  171.8650  134.9170 O   0  0  0  0  0  0  0  0  0  0  0  0
  1  3  1  0  0  0  0
  1  8  1  0  0  0  0
  3 12  1  1  0  0  0
  4 13  1  6  0  0  0
  4  5  1  0  0  0  0
  4  7  1  0  0  0  0
  5 38  1  6  0  0  0
  5  1  1  0  0  0  0
  6  7  1  0  0  0  0
  6  2  1  0  0  0  0
  7  2  1  0  0  0  0
  7  3  1  0  0  0  0
  8 10  1  0  0  0  0
  9  8  1  0  0  0  0
 12 11  3  0  0  0  0
 14 13  1  0  0  0  0
 15 16  1  0  0  0  0
 15 14  1  0  0  0  0
 16 31  1  0  0  0  0
 17 25  1  0  0  0  0
 17 20  1  0  0  0  0
 18 29  2  6  0  0  0
 18 22  1  0  0  0  0
 18 23  1  0  0  0  0
 20 24  1  0  0  0  0
 21 26  1  0  0  0  0
 21 31  1  0  0  0  0
 24 19  1  0  0  0  0
 25 26  1  0  0  0  0
 26 19  1  0  0  0  0
 26 34  1  0  0  0  0
 27 19  1  0  0  0  0
 27 23  1  0  0  0  0
 27 32  1  0  0  0  0
 28 20  1  0  0  0  0
 28 18  1  0  0  0  0
 30 21  1  0  0  0  0
 30 24  1  0  0  0  0
 30 31  1  0  0  0  0
 32 33  1  0  0  0  0
 36 37  1  0  0  0  0
 37 34  1  0  0  0  0
 37 35  1  0  0  0  0
 39 38  1  0  0  0  0
 40 39  1  0  0  0  0
 41 48  1  0  0  0  0
 41 49  1  0  0  0  0
 42 47  1  0  0  0  0
 43 48  1  0  0  0  0
 43 44  2  0  0  0  0
 44 50  1  0  0  0  0
 45 42  1  0  0  0  0
 46 50  1  0  0  0  0
 46 47  1  0  0  0  0
 49 45  1  0  0  0  0
 49 46  2  0  0  0  0
 50 40  1  0  0  0  0
 51 48  1  0  0  0  0
 52 51  2  0  0  0  0
 53 51  2  0  0  0  0
M  END
>  <MODEL>
5

>  <REMARK>
 VINA RESULT:      -6.1      2.474      3.447
  Name = 
  14 active torsions:
  status: ('A' for Active; 'I' for Inactive)
    1  A    between atoms: C_1  and  C_4
    2  A    between atoms: S_2  and  N_5
    3  A    between atoms: O_3  and  C_17
    4  A    between atoms: O_3  and  C_23
    5  A    between atoms: C_4  and  C_30
    6  A    between atoms: C_10  and  C_52
    7  A    between atoms: N_15  and  C_45
    8  A    between atoms: S_16  and  C_51
    9  A    between atoms: C_21  and  C_32
   10  A    between atoms: C_23  and  C_36
   11  A    between atoms: O_27  and  C_31
   12  A    between atoms: O_27  and  C_50
   13  A    between atoms: C_36  and  O_53
   14  A    between atoms: C_44  and  O_53
                            x       y       z     vdW  Elec       q    Type
                         _______ _______ _______ _____ _____    ______ ____

>  <TORSDO>
F 14

$$$$
=
 OpenBabel11062414063D

 53 60  0  0  1  0  0  0  0  0999 V2000
  188.1130  175.2940  135.5040 N   0  0  0  0  0  0  0  0  0  0  0  0
  191.2810  174.9510  137.6540 C   0  0  0  0  0  2  0  0  0  0  0  0
  189.5400  175.0110  135.6270 C   0  0  1  0  0  3  0  0  0  0  0  0
  189.0070  176.7820  137.2570 C   0  0  1  0  0  3  0  0  0  0  0  0
  187.7520  176.3980  136.4610 C   0  0  1  0  0  3  0  0  0  0  0  0
  191.4820  176.3870  137.2230 C   0  0  0  0  0  2  0  0  0  0  0  0
  190.0560  175.6840  136.9480 C   0  0  0  0  0  0  0  0  0  0  0  0
  187.1300  173.7300  135.7070 S   0  0  0  0  0  3  0  0  0  0  0  0
  186.8460  173.6140  137.1590 O   0  0  0  0  0  1  0  0  0  0  0  0
  185.5100  174.0780  135.2120 O   0  0  0  0  0  1  0  0  0  0  0  0
  190.2690  172.5010  135.2070 N   0  0  0  0  0  0  0  0  0  0  0  0
  189.9210  173.6170  135.3730 C   0  0  0  0  0  0  0  0  0  0  0  0
  189.5040  178.0550  137.1230 O   0  0  0  0  0  0  0  0  0  0  0  0
  189.0600  178.9570  138.1550 C   0  0  0  0  0  2  0  0  0  0  0  0
  188.8380  178.3280  139.5210 C   0  0  0  0  0  2  0  0  0  0  0  0
  187.7140  179.0100  140.1350 O   0  0  0  0  0  0  0  0  0  0  0  0
  189.6790  175.6630  143.2830 C   0  0  0  0  0  2  0  0  0  0  0  0
  190.5450  177.0850  146.6090 P   0  0  1  0  0  0  0  0  0  0  0  0
  188.2000  178.0860  144.3100 C   0  0  1  0  0  3  0  0  0  0  0  0
  190.4550  176.9470  143.4910 C   0  0  1  0  0  3  0  0  0  0  0  0
  187.5830  177.4730  141.9990 C   0  0  2  0  0  3  0  0  0  0  0  0
  191.4060  177.4830  147.7950 O   0  0  0  0  0  1  0  0  0  0  0  0
  189.4300  178.2620  146.3640 O   0  0  0  0  0  0  0  0  0  0  0  0
  189.4940  178.1780  143.4700 C   0  0  1  0  0  3  0  0  0  0  0  0
  188.1430  175.7240  143.5940 C   0  0  0  0  0  2  0  0  0  0  0  0
  187.3770  177.0970  143.4340 C   0  0  1  0  0  0  0  0  0  0  0  0
  188.3930  177.5160  145.7790 C   0  0  1  0  0  3  0  0  0  0  0  0
  191.7190  176.9420  144.8410 S   0  0  0  0  0  0  0  0  0  0  0  0
  189.8010  175.6440  147.0190 O   0  0  0  0  0  0  0  0  0  0  0  0
  189.0620  178.0390  141.9960 C   0  0  2  0  0  3  0  0  0  0  0  0
  187.8740  178.9170  141.5750 C   0  0  1  0  0  3  0  0  0  0  0  0
  187.1130  177.6240  146.5940 C   0  0  0  0  0  2  0  0  0  0  0  0
  187.2700  178.2460  147.8010 F   0  0  0  0  0  0  0  0  0  0  0  0
  186.0520  177.2400  143.7170 O   0  0  0  0  0  0  0  0  0  0  0  0
  184.5710  178.2430  142.1450 C   0  0  0  0  0  1  0  0  0  0  0  0
  185.0510  179.3910  144.3080 C   0  0  0  0  0  1  0  0  0  0  0  0
  185.5850  178.5000  143.2400 C   0  0  0  0  0  3  0  0  0  0  0  0
  186.8990  177.4920  135.8970 C   0  0  0  0  0  2  0  0  0  0  0  0
  185.3910  177.4950  136.4070 C   0  0  0  0  0  2  0  0  0  0  0  0
  185.0380  177.1670  137.9410 S   0  0  0  0  0  0  0  0  0  0  0  0
  180.4550  177.0690  139.4610 C   0  0  0  0  0  2  0  0  0  0  0  0
  181.7910  173.9910  137.2190 S   0  0  0  0  0  0  0  0  0  0  0  0
  181.9310  179.0680  139.7430 C   0  0  0  0  0  3  0  0  0  0  0  0
  182.8600  178.7970  138.8070 C   0  0  0  0  0  3  0  0  0  0  0  0
  180.4660  175.0550  138.0040 C   0  0  0  0  0  2  0  0  0  0  0  0
  182.4320  176.4400  138.0130 C   0  0  0  0  0  0  0  0  0  0  0  0
  182.8640  175.3740  137.2830 O   0  0  0  0  0  0  0  0  0  0  0  0
  181.0410  178.0040  140.4200 C   0  0  1  0  0  3  0  0  0  0  0  0
  181.0240  176.3510  138.4390 C   0  0  0  0  0  0  0  0  0  0  0  0
  183.2880  177.4750  138.2350 C   0  0  2  0  0  3  0  0  0  0  0  0
  179.9980  178.6230  141.3220 N   0  0  0  0  0  0  0  0  0  0  0  0
  179.6790  179.9620  141.2520 O   0  0  0  0  0  0  0  0  0  0  0  0
  179.3220  177.8760  142.0940 O   0  0  0  0  0  0  0  0  0  0  0  0
  1  3  1  0  0  0  0
  1  8  1  0  0  0  0
  1  5  1  0  0  0  0
  3 12  1  1  0  0  0
  3  7  1  0  0  0  0
  4 13  1  6  0  0  0
  5 38  1  6  0  0  0
  5  4  1  0  0  0  0
  6  2  1  0  0  0  0
  7  6  1  0  0  0  0
  7  4  1  0  0  0  0
  7  2  1  0  0  0  0
  8  9  1  0  0  0  0
 10  8  1  0  0  0  0
 11 12  3  0  0  0  0
 13 14  1  0  0  0  0
 14 15  1  0  0  0  0
 15 16  1  0  0  0  0
 16 31  1  0  0  0  0
 17 20  1  0  0  0  0
 17 25  1  0  0  0  0
 18 29  2  1  0  0  0
 18 22  1  0  0  0  0
 19 27  1  0  0  0  0
 20 28  1  0  0  0  0
 21 26  1  0  0  0  0
 23 18  1  0  0  0  0
 24 20  1  0  0  0  0
 24 19  1  0  0  0  0
 26 25  1  0  0  0  0
 26 34  1  0  0  0  0
 26 19  1  0  0  0  0
 27 23  1  0  0  0  0
 27 32  1  0  0  0  0
 28 18  1  0  0  0  0
 30 21  1  0  0  0  0
 30 24  1  0  0  0  0
 31 30  1  0  0  0  0
 31 21  1  0  0  0  0
 32 33  1  0  0  0  0
 35 37  1  0  0  0  0
 37 34  1  0  0  0  0
 37 36  1  0  0  0  0
 38 39  1  0  0  0  0
 39 40  1  0  0  0  0
 40 50  1  0  0  0  0
 41 48  1  0  0  0  0
 42 47  1  0  0  0  0
 42 45  1  0  0  0  0
 43 48  1  0  0  0  0
 44 43  2  0  0  0  0
 45 49  1  0  0  0  0
 46 50  1  0  0  0  0
 46 49  2  0  0  0  0
 47 46  1  0  0  0  0
 48 51  1  0  0  0  0
 49 41  1  0  0  0  0
 50 44  1  0  0  0  0
 51 53  2  0  0  0  0
 52 51  2  0  0  0  0
M  END
>  <MODEL>
6

>  <REMARK>
 VINA RESULT:      -6.1      3.798      8.784
  Name = 
  14 active torsions:
  status: ('A' for Active; 'I' for Inactive)
    1  A    between atoms: C_1  and  C_4
    2  A    between atoms: S_2  and  N_5
    3  A    between atoms: O_3  and  C_17
    4  A    between atoms: O_3  and  C_23
    5  A    between atoms: C_4  and  C_30
    6  A    between atoms: C_10  and  C_52
    7  A    between atoms: N_15  and  C_45
    8  A    between atoms: S_16  and  C_51
    9  A    between atoms: C_21  and  C_32
   10  A    between atoms: C_23  and  C_36
   11  A    between atoms: O_27  and  C_31
   12  A    between atoms: O_27  and  C_50
   13  A    between atoms: C_36  and  O_53
   14  A    between atoms: C_44  and  O_53
                            x       y       z     vdW  Elec       q    Type
                         _______ _______ _______ _____ _____    ______ ____

>  <TORSDO>
F 14

$$$$
=
 OpenBabel11062414063D

 53 60  0  0  1  0  0  0  0  0999 V2000
  190.7260  176.1510  139.0550 N   0  0  0  0  0  0  0  0  0  0  0  0
  191.3770  176.1530  135.2670 C   0  0  0  0  0  2  0  0  0  0  0  0
  190.9950  175.4330  137.8120 C   0  0  1  0  0  3  0  0  0  0  0  0
  189.5560  177.3530  137.2470 C   0  0  1  0  0  3  0  0  0  0  0  0
  189.8190  177.3140  138.7580 C   0  0  1  0  0  3  0  0  0  0  0  0
  189.8840  175.9210  135.2160 C   0  0  0  0  0  2  0  0  0  0  0  0
  190.5570  176.3520  136.6180 C   0  0  0  0  0  0  0  0  0  0  0  0
  192.3220  176.5980  139.8950 S   0  0  0  0  0  3  0  0  0  0  0  0
  193.0790  177.4200  138.9180 O   0  0  0  0  0  1  0  0  0  0  0  0
  191.9730  177.8760  141.0070 O   0  0  0  0  0  1  0  0  0  0  0  0
  193.3510  174.2370  137.6440 N   0  0  0  0  0  0  0  0  0  0  0  0
  192.3130  174.7920  137.7380 C   0  0  0  0  0  0  0  0  0  0  0  0
  188.2690  177.1790  136.8010 O   0  0  0  0  0  0  0  0  0  0  0  0
  187.6620  175.9550  137.2600 C   0  0  0  0  0  2  0  0  0  0  0  0
  186.2110  175.7530  136.8550 C   0  0  0  0  0  2  0  0  0  0  0  0
  185.8790  176.7900  135.8950 O   0  0  0  0  0  0  0  0  0  0  0  0
  182.6130  176.1880  139.6290 C   0  0  0  0  0  2  0  0  0  0  0  0
  179.8520  178.6810  139.5990 P   0  0  1  0  0  0  0  0  0  0  0  0
  181.7870  177.4820  137.0290 C   0  0  1  0  0  3  0  0  0  0  0  0
  182.8080  177.6830  139.4720 C   0  0  1  0  0  3  0  0  0  0  0  0
  183.7720  176.0310  136.8090 C   0  0  2  0  0  3  0  0  0  0  0  0
  178.9570  179.8040  140.0930 O   0  0  0  0  0  1  0  0  0  0  0  0
  180.0880  178.8800  137.9900 O   0  0  0  0  0  0  0  0  0  0  0  0
  182.8690  178.0720  137.9610 C   0  0  1  0  0  3  0  0  0  0  0  0
  182.0200  175.4330  138.3880 C   0  0  0  0  0  2  0  0  0  0  0  0
  182.2810  176.0090  136.9390 C   0  0  1  0  0  0  0  0  0  0  0  0
  180.3050  177.5490  137.5940 C   0  0  1  0  0  3  0  0  0  0  0  0
  181.7590  178.7710  140.5390 S   0  0  0  0  0  0  0  0  0  0  0  0
  179.0400  177.2510  139.9040 O   0  0  0  0  0  0  0  0  0  0  0  0
  184.1750  177.3190  137.6380 C   0  0  2  0  0  3  0  0  0  0  0  0
  184.5090  177.1980  136.1440 C   0  0  1  0  0  3  0  0  0  0  0  0
  179.2870  177.1150  136.5500 C   0  0  0  0  0  2  0  0  0  0  0  0
  179.4700  177.6860  135.3210 F   0  0  0  0  0  0  0  0  0  0  0  0
  181.7720  175.4320  135.8140 O   0  0  0  0  0  0  0  0  0  0  0  0
  180.0530  173.7820  135.7970 C   0  0  0  0  0  1  0  0  0  0  0  0
  182.4040  173.1350  135.2650 C   0  0  0  0  0  1  0  0  0  0  0  0
  181.5230  174.0470  136.0470 C   0  0  0  0  0  3  0  0  0  0  0  0
  188.6610  177.4870  139.6920 C   0  0  0  0  0  2  0  0  0  0  0  0
  189.0580  177.8290  141.1940 C   0  0  0  0  0  2  0  0  0  0  0  0
  188.1840  177.2750  142.4260 S   0  0  0  0  0  0  0  0  0  0  0  0
  189.8600  177.3110  146.9550 C   0  0  0  0  0  2  0  0  0  0  0  0
  185.9320  178.0240  146.3650 S   0  0  0  0  0  0  0  0  0  0  0  0
  191.3600  177.1730  144.9590 C   0  0  0  0  0  3  0  0  0  0  0  0
  190.5260  177.6500  144.0160 C   0  0  0  0  0  3  0  0  0  0  0  0
  187.5180  178.0400  147.3590 C   0  0  0  0  0  2  0  0  0  0  0  0
  188.2420  177.8170  145.0770 C   0  0  0  0  0  0  0  0  0  0  0  0
  186.9080  178.0310  144.9100 O   0  0  0  0  0  0  0  0  0  0  0  0
  190.9000  176.5310  146.2850 C   0  0  1  0  0  3  0  0  0  0  0  0
  188.6890  177.8470  146.4810 C   0  0  0  0  0  0  0  0  0  0  0  0
  189.0240  177.6480  143.9760 C   0  0  2  0  0  3  0  0  0  0  0  0
  192.0610  176.2230  147.2030 N   0  0  0  0  0  0  0  0  0  0  0  0
  192.2960  176.9530  148.3480 O   0  0  0  0  0  0  0  0  0  0  0  0
  192.7800  175.2040  146.9730 O   0  0  0  0  0  0  0  0  0  0  0  0
  1  8  1  0  0  0  0
  2  7  1  0  0  0  0
  3 12  1  6  0  0  0
  3  1  1  0  0  0  0
  4 13  1  1  0  0  0
  4  5  1  0  0  0  0
  5  1  1  0  0  0  0
  5 38  1  1  0  0  0
  6  2  1  0  0  0  0
  6  7  1  0  0  0  0
  7  4  1  0  0  0  0
  7  3  1  0  0  0  0
  8 10  1  0  0  0  0
  9  8  1  0  0  0  0
 11 12  3  0  0  0  0
 13 14  1  0  0  0  0
 15 14  1  0  0  0  0
 16 31  1  0  0  0  0
 16 15  1  0  0  0  0
 18 29  2  1  0  0  0
 18 22  1  0  0  0  0
 18 28  1  0  0  0  0
 19 27  1  0  0  0  0
 19 24  1  0  0  0  0
 20 17  1  0  0  0  0
 20 28  1  0  0  0  0
 21 26  1  0  0  0  0
 21 30  1  0  0  0  0
 23 18  1  0  0  0  0
 24 20  1  0  0  0  0
 25 17  1  0  0  0  0
 26 19  1  0  0  0  0
 26 25  1  0  0  0  0
 27 23  1  0  0  0  0
 30 24  1  0  0  0  0
 31 21  1  0  0  0  0
 31 30  1  0  0  0  0
 32 27  1  0  0  0  0
 33 32  1  0  0  0  0
 34 37  1  0  0  0  0
 34 26  1  0  0  0  0
 35 37  1  0  0  0  0
 36 37  1  0  0  0  0
 38 39  1  0  0  0  0
 39 40  1  0  0  0  0
 40 50  1  0  0  0  0
 42 45  1  0  0  0  0
 43 48  1  0  0  0  0
 44 43  2  0  0  0  0
 46 49  2  0  0  0  0
 47 46  1  0  0  0  0
 47 42  1  0  0  0  0
 48 41  1  0  0  0  0
 48 51  1  0  0  0  0
 49 41  1  0  0  0  0
 49 45  1  0  0  0  0
 50 44  1  0  0  0  0
 50 46  1  0  0  0  0
 51 52  2  0  0  0  0
 53 51  2  0  0  0  0
M  END
>  <MODEL>
7

>  <REMARK>
 VINA RESULT:      -5.9      2.935      7.493
  Name = 
  14 active torsions:
  status: ('A' for Active; 'I' for Inactive)
    1  A    between atoms: C_1  and  C_4
    2  A    between atoms: S_2  and  N_5
    3  A    between atoms: O_3  and  C_17
    4  A    between atoms: O_3  and  C_23
    5  A    between atoms: C_4  and  C_30
    6  A    between atoms: C_10  and  C_52
    7  A    between atoms: N_15  and  C_45
    8  A    between atoms: S_16  and  C_51
    9  A    between atoms: C_21  and  C_32
   10  A    between atoms: C_23  and  C_36
   11  A    between atoms: O_27  and  C_31
   12  A    between atoms: O_27  and  C_50
   13  A    between atoms: C_36  and  O_53
   14  A    between atoms: C_44  and  O_53
                            x       y       z     vdW  Elec       q    Type
                         _______ _______ _______ _____ _____    ______ ____

>  <TORSDO>
F 14

$$$$
=
 OpenBabel11062414063D

 53 60  0  0  1  0  0  0  0  0999 V2000
  190.5320  176.0920  138.2310 N   0  0  0  0  0  0  0  0  0  0  0  0
  191.1650  174.5720  134.7580 C   0  0  0  0  0  2  0  0  0  0  0  0
  190.6690  174.9280  137.3600 C   0  0  1  0  0  3  0  0  0  0  0  0
  189.5840  176.7030  136.0370 C   0  0  1  0  0  3  0  0  0  0  0  0
  189.8400  177.1900  137.4700 C   0  0  1  0  0  3  0  0  0  0  0  0
  189.6540  174.5830  134.7020 C   0  0  0  0  0  2  0  0  0  0  0  0
  190.3950  175.3920  135.8850 C   0  0  0  0  0  0  0  0  0  0  0  0
  192.1830  176.5550  138.9450 S   0  0  0  0  0  3  0  0  0  0  0  0
  192.9460  177.1770  137.8360 O   0  0  0  0  0  1  0  0  0  0  0  0
  191.9530  178.0000  139.8680 O   0  0  0  0  0  1  0  0  0  0  0  0
  192.8100  173.4210  137.7560 N   0  0  0  0  0  0  0  0  0  0  0  0
  191.8550  174.1010  137.6100 C   0  0  0  0  0  0  0  0  0  0  0  0
  188.2850  176.5870  135.6070 O   0  0  0  0  0  0  0  0  0  0  0  0
  187.5510  175.5410  136.2720 C   0  0  0  0  0  2  0  0  0  0  0  0
  186.1310  175.8970  136.6800 C   0  0  0  0  0  2  0  0  0  0  0  0
  185.5690  176.7200  135.6250 O   0  0  0  0  0  0  0  0  0  0  0  0
  182.5270  176.1070  139.5420 C   0  0  0  0  0  2  0  0  0  0  0  0
  180.8250  179.2400  140.6020 P   0  0  1  0  0  0  0  0  0  0  0  0
  182.0580  178.3130  137.5340 C   0  0  1  0  0  3  0  0  0  0  0  0
  183.2270  177.4350  139.7520 C   0  0  1  0  0  3  0  0  0  0  0  0
  183.3870  176.4390  136.6320 C   0  0  2  0  0  3  0  0  0  0  0  0
  180.4140  180.3880  141.5070 O   0  0  0  0  0  1  0  0  0  0  0  0
  181.0200  179.8260  139.0830 O   0  0  0  0  0  0  0  0  0  0  0  0
  183.3310  178.2180  138.4050 C   0  0  1  0  0  3  0  0  0  0  0  0
  181.6340  175.9900  138.2580 C   0  0  0  0  0  2  0  0  0  0  0  0
  181.9950  176.8570  136.9860 C   0  0  1  0  0  0  0  0  0  0  0  0
  180.7310  178.6780  138.3260 C   0  0  1  0  0  3  0  0  0  0  0  0
  182.6930  178.4290  141.2170 S   0  0  0  0  0  0  0  0  0  0  0  0
  179.5810  178.1240  140.6480 O   0  0  0  0  0  0  0  0  0  0  0  0
  184.2670  177.2190  137.6930 C   0  0  2  0  0  3  0  0  0  0  0  0
  184.4480  177.4520  136.1860 C   0  0  1  0  0  3  0  0  0  0  0  0
  179.5660  178.9260  137.3800 C   0  0  0  0  0  2  0  0  0  0  0  0
  179.9160  179.5470  136.2130 F   0  0  0  0  0  0  0  0  0  0  0  0
  181.2490  176.8380  135.8460 O   0  0  0  0  0  0  0  0  0  0  0  0
  179.0910  176.0930  135.1700 C   0  0  0  0  0  1  0  0  0  0  0  0
  180.9960  174.4830  135.2410 C   0  0  0  0  0  1  0  0  0  0  0  0
  180.3890  175.7010  135.8450 C   0  0  0  0  0  3  0  0  0  0  0  0
  188.7320  177.8850  138.1990 C   0  0  0  0  0  2  0  0  0  0  0  0
  188.6130  177.5170  139.7430 C   0  0  0  0  0  2  0  0  0  0  0  0
  188.3390  178.6570  140.8440 S   0  0  0  0  0  0  0  0  0  0  0  0
  188.1270  177.5310  145.5360 C   0  0  0  0  0  2  0  0  0  0  0  0
  191.7260  177.4470  143.7100 S   0  0  0  0  0  0  0  0  0  0  0  0
  186.0850  177.8630  144.1310 C   0  0  0  0  0  3  0  0  0  0  0  0
  186.6210  177.6880  142.9090 C   0  0  0  0  0  3  0  0  0  0  0  0
  190.5220  177.0380  145.0850 C   0  0  0  0  0  2  0  0  0  0  0  0
  189.1250  177.6070  143.2120 C   0  0  0  0  0  0  0  0  0  0  0  0
  190.3560  177.6000  142.6290 O   0  0  0  0  0  0  0  0  0  0  0  0
  186.8870  178.2880  145.3800 C   0  0  1  0  0  3  0  0  0  0  0  0
  189.1290  177.2490  144.6420 C   0  0  0  0  0  0  0  0  0  0  0  0
  188.0360  177.8870  142.4440 C   0  0  2  0  0  3  0  0  0  0  0  0
  186.0430  178.2630  146.6340 N   0  0  0  0  0  0  0  0  0  0  0  0
  186.5910  178.0140  147.8740 O   0  0  0  0  0  0  0  0  0  0  0  0
  184.8160  178.5790  146.5640 O   0  0  0  0  0  0  0  0  0  0  0  0
  1  8  1  0  0  0  0
  2  7  1  0  0  0  0
  3 12  1  6  0  0  0
  3  1  1  0  0  0  0
  4 13  1  1  0  0  0
  4  5  1  0  0  0  0
  5 38  1  1  0  0  0
  5  1  1  0  0  0  0
  6  2  1  0  0  0  0
  6  7  1  0  0  0  0
  7  4  1  0  0  0  0
  7  3  1  0  0  0  0
  8 10  1  0  0  0  0
  9  8  1  0  0  0  0
 12 11  3  0  0  0  0
 13 14  1  0  0  0  0
 14 15  1  0  0  0  0
 16 31  1  0  0  0  0
 16 15  1  0  0  0  0
 17 20  1  0  0  0  0
 18 29  2  1  0  0  0
 18 28  1  0  0  0  0
 18 22  1  0  0  0  0
 19 27  1  0  0  0  0
 19 24  1  0  0  0  0
 20 28  1  0  0  0  0
 21 26  1  0  0  0  0
 21 30  1  0  0  0  0
 23 18  1  0  0  0  0
 24 20  1  0  0  0  0
 25 17  1  0  0  0  0
 26 19  1  0  0  0  0
 26 25  1  0  0  0  0
 27 23  1  0  0  0  0
 30 24  1  0  0  0  0
 31 21  1  0  0  0  0
 31 30  1  0  0  0  0
 32 27  1  0  0  0  0
 33 32  1  0  0  0  0
 34 26  1  0  0  0  0
 35 37  1  0  0  0  0
 36 37  1  0  0  0  0
 37 34  1  0  0  0  0
 38 39  1  0  0  0  0
 39 40  1  0  0  0  0
 40 50  1  0  0  0  0
 42 45  1  0  0  0  0
 43 48  1  0  0  0  0
 44 43  2  0  0  0  0
 46 49  2  0  0  0  0
 47 46  1  0  0  0  0
 47 42  1  0  0  0  0
 48 41  1  0  0  0  0
 48 51  1  0  0  0  0
 49 45  1  0  0  0  0
 49 41  1  0  0  0  0
 50 44  1  0  0  0  0
 50 46  1  0  0  0  0
 51 52  2  0  0  0  0
 53 51  2  0  0  0  0
M  END
>  <MODEL>
8

>  <REMARK>
 VINA RESULT:      -5.2      2.668      7.077
  Name = 
  14 active torsions:
  status: ('A' for Active; 'I' for Inactive)
    1  A    between atoms: C_1  and  C_4
    2  A    between atoms: S_2  and  N_5
    3  A    between atoms: O_3  and  C_17
    4  A    between atoms: O_3  and  C_23
    5  A    between atoms: C_4  and  C_30
    6  A    between atoms: C_10  and  C_52
    7  A    between atoms: N_15  and  C_45
    8  A    between atoms: S_16  and  C_51
    9  A    between atoms: C_21  and  C_32
   10  A    between atoms: C_23  and  C_36
   11  A    between atoms: O_27  and  C_31
   12  A    between atoms: O_27  and  C_50
   13  A    between atoms: C_36  and  O_53
   14  A    between atoms: C_44  and  O_53
                            x       y       z     vdW  Elec       q    Type
                         _______ _______ _______ _____ _____    ______ ____

>  <TORSDO>
F 14

$$$$
=
 OpenBabel11062414063D

 53 60  0  0  1  0  0  0  0  0999 V2000
  183.2640  176.8080  137.8060 N   0  0  0  0  0  0  0  0  0  0  0  0
  179.6970  177.0220  139.2240 C   0  0  0  0  0  2  0  0  0  0  0  0
  182.1770  176.2430  138.6020 C   0  0  1  0  0  3  0  0  0  0  0  0
  182.1050  178.6890  138.9040 C   0  0  1  0  0  3  0  0  0  0  0  0
  183.2760  178.3010  137.9910 C   0  0  1  0  0  3  0  0  0  0  0  0
  180.4240  177.6050  140.4140 C   0  0  0  0  0  2  0  0  0  0  0  0
  181.2270  177.4180  139.0270 C   0  0  0  0  0  0  0  0  0  0  0  0
  183.1290  176.2390  136.0430 S   0  0  0  0  0  3  0  0  0  0  0  0
  182.1720  177.1660  135.3880 O   0  0  0  0  0  1  0  0  0  0  0  0
  184.5440  176.7940  135.2180 O   0  0  0  0  0  1  0  0  0  0  0  0
  181.0290  174.0620  137.6350 N   0  0  0  0  0  0  0  0  0  0  0  0
  181.5640  175.0330  138.0440 C   0  0  0  0  0  0  0  0  0  0  0  0
  182.3830  179.2720  140.1160 O   0  0  0  0  0  0  0  0  0  0  0  0
  182.5930  178.3200  141.1770 C   0  0  0  0  0  2  0  0  0  0  0  0
  184.0430  178.0820  141.5650 C   0  0  0  0  0  2  0  0  0  0  0  0
  184.7120  179.3690  141.5540 O   0  0  0  0  0  0  0  0  0  0  0  0
  188.5980  176.3280  142.3420 C   0  0  0  0  0  2  0  0  0  0  0  0
  191.3080  177.8790  144.3640 P   0  0  1  0  0  0  0  0  0  0  0  0
  187.9430  178.5530  144.2760 C   0  0  1  0  0  3  0  0  0  0  0  0
  189.1800  177.7030  142.0850 C   0  0  1  0  0  3  0  0  0  0  0  0
  186.0110  177.8460  142.9110 C   0  0  2  0  0  3  0  0  0  0  0  0
  192.6940  178.3940  144.7110 O   0  0  0  0  0  0  0  0  0  0  0  0
  190.2020  178.9010  145.0100 O   0  0  0  0  0  0  0  0  0  0  0  0
  188.3310  178.8010  142.8010 C   0  0  1  0  0  3  0  0  0  0  0  0
  187.6620  176.1950  143.5950 C   0  0  0  0  0  2  0  0  0  0  0  0
  186.8510  177.4590  144.0880 C   0  0  1  0  0  0  0  0  0  0  0  0
  189.1200  178.0240  145.2000 C   0  0  1  0  0  3  0  0  0  0  0  0
  191.0140  177.8700  142.2570 S   0  0  0  0  0  0  0  0  0  0  0  0
  191.1760  176.3590  145.0480 O   0  0  0  0  0  1  0  0  0  0  0  0
  187.0450  178.5950  141.9750 C   0  0  2  0  0  3  0  0  0  0  0  0
  185.7980  179.3110  142.5150 C   0  0  1  0  0  3  0  0  0  0  0  0
  188.7050  177.9760  146.6630 C   0  0  0  0  0  2  0  0  0  0  0  0
  188.2220  176.7620  147.0670 F   0  0  0  0  0  0  0  0  0  0  0  0
  186.0460  177.4340  145.1870 O   0  0  0  0  0  0  0  0  0  0  0  0
  183.9950  178.6470  145.1960 C   0  0  0  0  0  1  0  0  0  0  0  0
  185.8390  179.3120  146.7410 C   0  0  0  0  0  1  0  0  0  0  0  0
  185.4920  178.7290  145.4150 C   0  0  0  0  0  3  0  0  0  0  0  0
  184.6190  178.9100  138.2520 C   0  0  0  0  0  2  0  0  0  0  0  0
  185.8230  177.8720  138.3190 C   0  0  0  0  0  2  0  0  0  0  0  0
  187.0520  177.9650  137.2850 S   0  0  0  0  0  0  0  0  0  0  0  0
  190.7190  174.8250  137.4280 C   0  0  0  0  0  2  0  0  0  0  0  0
  187.2910  173.6800  135.6320 S   0  0  0  0  0  0  0  0  0  0  0  0
  190.7460  176.9940  138.6720 C   0  0  0  0  0  3  0  0  0  0  0  0
  189.4260  177.2530  138.7040 C   0  0  0  0  0  3  0  0  0  0  0  0
  188.9580  173.3820  136.4310 C   0  0  0  0  0  2  0  0  0  0  0  0
  188.3140  175.5720  137.1840 C   0  0  0  0  0  0  0  0  0  0  0  0
  187.1800  175.1700  136.5460 O   0  0  0  0  0  0  0  0  0  0  0  0
  191.4310  176.0860  137.6280 C   0  0  1  0  0  3  0  0  0  0  0  0
  189.3910  174.5660  137.1980 C   0  0  0  0  0  0  0  0  0  0  0  0
  188.3370  176.8000  137.7730 C   0  0  2  0  0  3  0  0  0  0  0  0
  192.8960  175.8710  137.9330 N   0  0  0  0  0  0  0  0  0  0  0  0
  193.5660  174.7400  137.5180 O   0  0  0  0  0  0  0  0  0  0  0  0
  193.5560  176.7970  138.4950 O   0  0  0  0  0  0  0  0  0  0  0  0
  1  5  1  0  0  0  0
  1  3  1  0  0  0  0
  2  6  1  0  0  0  0
  3 12  1  6  0  0  0
  3  7  1  0  0  0  0
  4  7  1  0  0  0  0
  4 13  1  1  0  0  0
  5 38  1  1  0  0  0
  5  4  1  0  0  0  0
  7  2  1  0  0  0  0
  7  6  1  0  0  0  0
  8  1  1  0  0  0  0
  9  8  1  0  0  0  0
 10  8  1  0  0  0  0
 11 12  3  0  0  0  0
 13 14  1  0  0  0  0
 14 15  1  0  0  0  0
 16 15  1  0  0  0  0
 16 31  1  0  0  0  0
 17 25  1  0  0  0  0
 18 22  2  1  0  0  0
 18 23  1  0  0  0  0
 18 29  1  0  0  0  0
 19 27  1  0  0  0  0
 20 28  1  0  0  0  0
 20 17  1  0  0  0  0
 20 24  1  0  0  0  0
 21 26  1  0  0  0  0
 23 27  1  0  0  0  0
 24 19  1  0  0  0  0
 25 26  1  0  0  0  0
 26 19  1  0  0  0  0
 26 34  1  0  0  0  0
 27 32  1  0  0  0  0
 28 18  1  0  0  0  0
 30 31  1  0  0  0  0
 30 24  1  0  0  0  0
 30 21  1  0  0  0  0
 31 21  1  0  0  0  0
 32 33  1  0  0  0  0
 34 37  1  0  0  0  0
 35 37  1  0  0  0  0
 37 36  1  0  0  0  0
 38 39  1  0  0  0  0
 40 50  1  0  0  0  0
 40 39  1  0  0  0  0
 41 48  1  0  0  0  0
 42 45  1  0  0  0  0
 42 47  1  0  0  0  0
 43 44  2  0  0  0  0
 45 49  1  0  0  0  0
 46 49  2  0  0  0  0
 46 50  1  0  0  0  0
 47 46  1  0  0  0  0
 48 51  1  0  0  0  0
 48 43  1  0  0  0  0
 49 41  1  0  0  0  0
 50 44  1  0  0  0  0
 51 53  2  0  0  0  0
 52 51  2  0  0  0  0
M  END
>  <MODEL>
9

>  <REMARK>
 VINA RESULT:      -5.1      3.447      8.048
  Name = 
  14 active torsions:
  status: ('A' for Active; 'I' for Inactive)
    1  A    between atoms: C_1  and  C_4
    2  A    between atoms: S_2  and  N_5
    3  A    between atoms: O_3  and  C_17
    4  A    between atoms: O_3  and  C_23
    5  A    between atoms: C_4  and  C_30
    6  A    between atoms: C_10  and  C_52
    7  A    between atoms: N_15  and  C_45
    8  A    between atoms: S_16  and  C_51
    9  A    between atoms: C_21  and  C_32
   10  A    between atoms: C_23  and  C_36
   11  A    between atoms: O_27  and  C_31
   12  A    between atoms: O_27  and  C_50
   13  A    between atoms: C_36  and  O_53
   14  A    between atoms: C_44  and  O_53
                            x       y       z     vdW  Elec       q    Type
                         _______ _______ _______ _____ _____    ______ ____

>  <TORSDO>
F 14

$$$$
