=
 OpenBabel11062416583D

 26 30  0  0  0  0  0  0  0  0999 V2000
  189.2790  178.1070  142.4680 N   0  0  0  0  0  0  0  0  0  0  0  0
  191.4790  178.1900  144.1180 S   0  0  0  0  0  0  0  0  0  0  0  0
  185.2270  178.7850  139.8060 C   0  0  0  0  0  3  0  0  0  0  0  0
  190.6020  177.7740  142.6140 C   0  0  0  0  0  0  0  0  0  0  0  0
  186.3200  177.6800  137.4900 C   0  0  0  0  0  3  0  0  0  0  0  0
  188.1170  177.0540  147.0100 C   0  0  0  0  0  3  0  0  0  0  0  0
  190.7240  177.0340  140.3820 C   0  0  0  0  0  0  0  0  0  0  0  0
  191.8520  176.5630  146.7730 C   0  0  0  0  0  1  0  0  0  0  0  0
  190.4600  176.9410  146.4020 C   0  0  0  0  0  0  0  0  0  0  0  0
  187.0860  177.7720  138.6550 C   0  0  0  0  0  0  0  0  0  0  0  0
  188.5350  178.4230  143.5970 O   0  0  0  0  0  0  0  0  0  0  0  0
  188.6690  177.2270  138.6650 S   0  0  0  0  0  0  0  0  0  0  0  0
  188.6610  178.0010  141.2370 C   0  0  0  0  0  0  0  0  0  0  0  0
  185.0040  178.1430  137.4850 C   0  0  0  0  0  3  0  0  0  0  0  0
  189.4280  176.6750  147.3060 C   0  0  0  0  0  3  0  0  0  0  0  0
  186.5580  178.3240  139.8400 C   0  0  0  0  0  0  0  0  0  0  0  0
  189.4020  177.4310  140.1720 C   0  0  0  0  0  0  0  0  0  0  0  0
  187.3000  178.4400  141.0530 C   0  0  0  0  0  0  0  0  0  0  0  0
  186.7080  178.9870  142.0260 O   0  0  0  0  0  0  0  0  0  0  0  0
  184.4570  178.6950  138.6430 C   0  0  0  0  0  3  0  0  0  0  0  0
  188.8480  177.9260  144.8690 C   0  0  0  0  0  0  0  0  0  0  0  0
  191.2980  177.2320  141.5880 N   0  0  0  0  0  0  0  0  0  0  0  0
  186.4130  178.0450  145.4900 C   0  0  0  0  0  1  0  0  0  0  0  0
  190.1720  177.5960  145.1910 C   0  0  0  0  0  0  0  0  0  0  0  0
  191.3980  176.5090  139.4550 O   0  0  0  0  0  0  0  0  0  0  0  0
  187.8250  177.6870  145.7990 C   0  0  0  0  0  0  0  0  0  0  0  0
  1  4  1  0  0  0  0
  1 11  1  0  0  0  0
  2 24  1  0  0  0  0
  3 16  1  0  0  0  0
  4  2  1  0  0  0  0
  5 10  1  0  0  0  0
  6 15  1  0  0  0  0
  7 22  1  0  0  0  0
  9  8  1  0  0  0  0
  9 15  2  0  0  0  0
 10 12  1  0  0  0  0
 10 16  2  0  0  0  0
 11 21  1  0  0  0  0
 12 17  1  0  0  0  0
 13  1  1  0  0  0  0
 14  5  2  0  0  0  0
 14 20  1  0  0  0  0
 16 18  1  0  0  0  0
 17  7  1  0  0  0  0
 17 13  2  0  0  0  0
 18 13  1  0  0  0  0
 18 19  2  0  0  0  0
 20  3  2  0  0  0  0
 21 24  2  0  0  0  0
 21 26  1  0  0  0  0
 22  4  2  0  0  0  0
 23 26  1  0  0  0  0
 24  9  1  0  0  0  0
 25  7  2  0  0  0  0
 26  6  2  0  0  0  0
M  END
>  <MODEL>
1

>  <REMARK>
 VINA RESULT:      -9.7      0.000      0.000
  Name = 
  0 active torsions:
  status: ('A' for Active; 'I' for Inactive)
                            x       y       z     vdW  Elec       q    Type
                         _______ _______ _______ _____ _____    ______ ____

>  <TORSDO>
F 0

$$$$
=
 OpenBabel11062416583D

 26 30  0  0  0  0  0  0  0  0999 V2000
  188.0940  177.2000  143.2360 N   0  0  0  0  0  0  0  0  0  0  0  0
  186.4250  177.2780  145.4220 S   0  0  0  0  0  0  0  0  0  0  0  0
  191.0980  176.1940  139.5030 C   0  0  0  0  0  3  0  0  0  0  0  0
  186.9500  177.7330  143.7720 C   0  0  0  0  0  0  0  0  0  0  0  0
  189.6910  177.7700  137.6830 C   0  0  0  0  0  3  0  0  0  0  0  0
  190.5780  177.4200  147.3430 C   0  0  0  0  0  3  0  0  0  0  0  0
  186.4070  178.7750  141.7310 C   0  0  0  0  0  0  0  0  0  0  0  0
  187.0870  178.5750  148.2000 C   0  0  0  0  0  1  0  0  0  0  0  0
  188.2300  178.0150  147.4240 C   0  0  0  0  0  0  0  0  0  0  0  0
  189.2490  177.6570  139.0040 C   0  0  0  0  0  0  0  0  0  0  0  0
  189.0240  176.6120  144.0830 O   0  0  0  0  0  0  0  0  0  0  0  0
  187.8670  178.4610  139.5000 S   0  0  0  0  0  0  0  0  0  0  0  0
  188.3820  177.3610  141.8940 C   0  0  0  0  0  0  0  0  0  0  0  0
  190.8390  177.0930  137.2730 C   0  0  0  0  0  3  0  0  0  0  0  0
  189.4930  177.9760  148.0240 C   0  0  0  0  0  3  0  0  0  0  0  0
  189.9420  176.8690  139.9450 C   0  0  0  0  0  0  0  0  0  0  0  0
  187.5220  178.1870  141.1290 C   0  0  0  0  0  0  0  0  0  0  0  0
  189.5310  176.7220  141.3030 C   0  0  0  0  0  0  0  0  0  0  0  0
  190.2310  175.9560  142.0240 O   0  0  0  0  0  0  0  0  0  0  0  0
  191.5430  176.3040  138.1830 C   0  0  0  0  0  3  0  0  0  0  0  0
  189.1580  176.9810  145.4280 C   0  0  0  0  0  0  0  0  0  0  0  0
  186.1370  178.5190  143.0290 N   0  0  0  0  0  0  0  0  0  0  0  0
  191.5950  176.3610  145.3330 C   0  0  0  0  0  1  0  0  0  0  0  0
  188.0570  177.4890  146.1320 C   0  0  0  0  0  0  0  0  0  0  0  0
  185.6380  179.5270  141.0750 O   0  0  0  0  0  0  0  0  0  0  0  0
  190.4130  176.9140  146.0520 C   0  0  0  0  0  0  0  0  0  0  0  0
  1  4  1  0  0  0  0
  1 11  1  0  0  0  0
  2 24  1  0  0  0  0
  3 16  1  0  0  0  0
  4  2  1  0  0  0  0
  5 10  1  0  0  0  0
  6 15  1  0  0  0  0
  7 22  1  0  0  0  0
  9 15  2  0  0  0  0
  9  8  1  0  0  0  0
 10 12  1  0  0  0  0
 10 16  2  0  0  0  0
 11 21  1  0  0  0  0
 12 17  1  0  0  0  0
 13  1  1  0  0  0  0
 14  5  2  0  0  0  0
 14 20  1  0  0  0  0
 16 18  1  0  0  0  0
 17  7  1  0  0  0  0
 17 13  2  0  0  0  0
 18 13  1  0  0  0  0
 18 19  2  0  0  0  0
 20  3  2  0  0  0  0
 21 26  1  0  0  0  0
 21 24  2  0  0  0  0
 22  4  2  0  0  0  0
 23 26  1  0  0  0  0
 24  9  1  0  0  0  0
 25  7  2  0  0  0  0
 26  6  2  0  0  0  0
M  END
>  <MODEL>
2

>  <REMARK>
 VINA RESULT:      -9.5      2.280      4.100
  Name = 
  0 active torsions:
  status: ('A' for Active; 'I' for Inactive)
                            x       y       z     vdW  Elec       q    Type
                         _______ _______ _______ _____ _____    ______ ____

>  <TORSDO>
F 0

$$$$
=
 OpenBabel11062416583D

 26 30  0  0  0  0  0  0  0  0999 V2000
  186.1840  178.6020  140.9490 N   0  0  0  0  0  0  0  0  0  0  0  0
  184.0320  179.4720  139.4720 S   0  0  0  0  0  0  0  0  0  0  0  0
  190.4440  177.7190  143.1930 C   0  0  0  0  0  3  0  0  0  0  0  0
  184.8340  178.8470  140.9440 C   0  0  0  0  0  0  0  0  0  0  0  0
  189.2800  177.3670  145.7030 C   0  0  0  0  0  3  0  0  0  0  0  0
  186.2570  176.7980  136.4960 C   0  0  0  0  0  3  0  0  0  0  0  0
  184.6870  178.4080  143.2540 C   0  0  0  0  0  0  0  0  0  0  0  0
  182.7080  177.9480  137.0720 C   0  0  0  0  0  1  0  0  0  0  0  0
  184.1660  177.7320  137.2880 C   0  0  0  0  0  0  0  0  0  0  0  0
  188.4850  177.6800  144.5970 C   0  0  0  0  0  0  0  0  0  0  0  0
  186.8510  178.4840  139.7370 O   0  0  0  0  0  0  0  0  0  0  0  0
  186.8290  177.8530  144.7730 S   0  0  0  0  0  0  0  0  0  0  0  0
  186.8470  178.3440  142.1330 C   0  0  0  0  0  0  0  0  0  0  0  0
  190.6600  177.2300  145.5520 C   0  0  0  0  0  3  0  0  0  0  0  0
  184.8810  176.9840  136.3480 C   0  0  0  0  0  3  0  0  0  0  0  0
  189.0480  177.8610  143.3170 C   0  0  0  0  0  0  0  0  0  0  0  0
  186.0700  178.2260  143.3130 C   0  0  0  0  0  0  0  0  0  0  0  0
  188.2790  178.1820  142.1580 C   0  0  0  0  0  0  0  0  0  0  0  0
  188.9220  178.3480  141.0840 O   0  0  0  0  0  0  0  0  0  0  0  0
  191.2420  177.4060  144.2970 C   0  0  0  0  0  3  0  0  0  0  0  0
  186.2110  178.0640  138.5620 C   0  0  0  0  0  0  0  0  0  0  0  0
  184.1050  178.7320  142.0800 N   0  0  0  0  0  0  0  0  0  0  0  0
  188.3870  177.0970  137.7490 C   0  0  0  0  0  1  0  0  0  0  0  0
  184.8400  178.2990  138.3840 C   0  0  0  0  0  0  0  0  0  0  0  0
  183.9740  178.2920  144.2860 O   0  0  0  0  0  0  0  0  0  0  0  0
  186.9260  177.3430  137.5940 C   0  0  0  0  0  0  0  0  0  0  0  0
  1 13  1  0  0  0  0
  2  4  1  0  0  0  0
  3 16  2  0  0  0  0
  3 20  1  0  0  0  0
  4  1  1  0  0  0  0
  4 22  2  0  0  0  0
  6 26  1  0  0  0  0
  7 17  1  0  0  0  0
  7 25  2  0  0  0  0
  8  9  1  0  0  0  0
  9 24  2  0  0  0  0
 10 12  1  0  0  0  0
 10  5  2  0  0  0  0
 11  1  1  0  0  0  0
 13 18  1  0  0  0  0
 13 17  2  0  0  0  0
 14  5  1  0  0  0  0
 15  6  2  0  0  0  0
 15  9  1  0  0  0  0
 16 10  1  0  0  0  0
 17 12  1  0  0  0  0
 18 16  1  0  0  0  0
 19 18  2  0  0  0  0
 20 14  2  0  0  0  0
 21 11  1  0  0  0  0
 22  7  1  0  0  0  0
 24 21  1  0  0  0  0
 24  2  1  0  0  0  0
 26 23  1  0  0  0  0
 26 21  2  0  0  0  0
M  END
>  <MODEL>
3

>  <REMARK>
 VINA RESULT:      -9.1      2.441      7.761
  Name = 
  0 active torsions:
  status: ('A' for Active; 'I' for Inactive)
                            x       y       z     vdW  Elec       q    Type
                         _______ _______ _______ _____ _____    ______ ____

>  <TORSDO>
F 0

$$$$
=
 OpenBabel11062416583D

 26 30  0  0  0  0  0  0  0  0999 V2000
  185.1180  178.6470  142.6440 N   0  0  0  0  0  0  0  0  0  0  0  0
  182.9630  179.4100  144.1750 S   0  0  0  0  0  0  0  0  0  0  0  0
  188.8860  178.0940  139.5680 C   0  0  0  0  0  3  0  0  0  0  0  0
  184.5480  178.6270  143.8910 C   0  0  0  0  0  0  0  0  0  0  0  0
  190.5560  176.9640  141.4950 C   0  0  0  0  0  3  0  0  0  0  0  0
  180.9710  177.9570  140.3180 C   0  0  0  0  0  3  0  0  0  0  0  0
  186.4780  177.6520  144.8240 C   0  0  0  0  0  0  0  0  0  0  0  0
  180.0550  178.2530  143.9690 C   0  0  0  0  0  1  0  0  0  0  0  0
  180.8660  178.2730  142.7180 C   0  0  0  0  0  0  0  0  0  0  0  0
  189.2610  177.3660  141.8340 C   0  0  0  0  0  0  0  0  0  0  0  0
  184.3230  178.9370  141.5440 O   0  0  0  0  0  0  0  0  0  0  0  0
  188.7060  177.1790  143.4030 S   0  0  0  0  0  0  0  0  0  0  0  0
  186.4310  178.2540  142.4660 C   0  0  0  0  0  0  0  0  0  0  0  0
  191.0150  177.1280  140.1880 C   0  0  0  0  0  3  0  0  0  0  0  0
  180.2540  177.9090  141.5150 C   0  0  0  0  0  3  0  0  0  0  0  0
  188.3960  177.9380  140.8790 C   0  0  0  0  0  0  0  0  0  0  0  0
  187.1200  177.7260  143.5860 C   0  0  0  0  0  0  0  0  0  0  0  0
  187.0670  178.3640  141.1770 C   0  0  0  0  0  0  0  0  0  0  0  0
  186.4190  178.8900  140.2290 O   0  0  0  0  0  0  0  0  0  0  0  0
  190.1800  177.6930  139.2240 C   0  0  0  0  0  3  0  0  0  0  0  0
  182.9440  178.6850  141.5230 C   0  0  0  0  0  0  0  0  0  0  0  0
  185.2190  178.1210  144.9520 N   0  0  0  0  0  0  0  0  0  0  0  0
  183.0630  178.3570  139.0310 C   0  0  0  0  0  1  0  0  0  0  0  0
  182.2090  178.6910  142.7170 C   0  0  0  0  0  0  0  0  0  0  0  0
  187.0650  177.1710  145.8300 O   0  0  0  0  0  0  0  0  0  0  0  0
  182.3110  178.3520  140.3160 C   0  0  0  0  0  0  0  0  0  0  0  0
  1  4  1  0  0  0  0
  3 16  1  0  0  0  0
  4  2  1  0  0  0  0
  4 22  2  0  0  0  0
  5 10  1  0  0  0  0
  6 15  1  0  0  0  0
  7 22  1  0  0  0  0
  7 25  2  0  0  0  0
  9  8  1  0  0  0  0
 10 12  1  0  0  0  0
 11  1  1  0  0  0  0
 12 17  1  0  0  0  0
 13  1  1  0  0  0  0
 13 17  2  0  0  0  0
 14  5  2  0  0  0  0
 15  9  2  0  0  0  0
 16 18  1  0  0  0  0
 16 10  2  0  0  0  0
 17  7  1  0  0  0  0
 18 13  1  0  0  0  0
 19 18  2  0  0  0  0
 20  3  2  0  0  0  0
 20 14  1  0  0  0  0
 21 11  1  0  0  0  0
 21 24  2  0  0  0  0
 23 26  1  0  0  0  0
 24  9  1  0  0  0  0
 24  2  1  0  0  0  0
 26  6  2  0  0  0  0
 26 21  1  0  0  0  0
M  END
>  <MODEL>
4

>  <REMARK>
 VINA RESULT:      -8.7      3.412      6.794
  Name = 
  0 active torsions:
  status: ('A' for Active; 'I' for Inactive)
                            x       y       z     vdW  Elec       q    Type
                         _______ _______ _______ _____ _____    ______ ____

>  <TORSDO>
F 0

$$$$
=
 OpenBabel11062416583D

 26 30  0  0  0  0  0  0  0  0999 V2000
  189.4720  177.9630  139.7490 N   0  0  0  0  0  0  0  0  0  0  0  0
  188.6440  178.8820  137.2920 S   0  0  0  0  0  0  0  0  0  0  0  0
  191.6540  176.8330  143.9840 C   0  0  0  0  0  3  0  0  0  0  0  0
  188.4130  178.4150  139.0050 C   0  0  0  0  0  0  0  0  0  0  0  0
  189.3290  177.1340  145.4950 C   0  0  0  0  0  3  0  0  0  0  0  0
  191.3830  175.3910  136.1680 C   0  0  0  0  0  3  0  0  0  0  0  0
  187.0130  178.4330  140.8980 C   0  0  0  0  0  0  0  0  0  0  0  0
  188.4150  177.1790  134.6690 C   0  0  0  0  0  1  0  0  0  0  0  0
  189.4640  176.7760  135.6490 C   0  0  0  0  0  0  0  0  0  0  0  0
  189.3060  177.3630  144.1160 C   0  0  0  0  0  0  0  0  0  0  0  0
  190.6150  177.5210  139.0960 O   0  0  0  0  0  0  0  0  0  0  0  0
  187.8850  177.8290  143.3640 S   0  0  0  0  0  0  0  0  0  0  0  0
  189.3580  177.8220  141.1200 C   0  0  0  0  0  0  0  0  0  0  0  0
  190.5180  176.7530  146.1180 C   0  0  0  0  0  3  0  0  0  0  0  0
  190.3620  175.7650  135.2930 C   0  0  0  0  0  3  0  0  0  0  0  0
  190.4670  177.2170  143.3290 C   0  0  0  0  0  0  0  0  0  0  0  0
  188.0870  178.0460  141.7030 C   0  0  0  0  0  0  0  0  0  0  0  0
  190.4950  177.4400  141.9200 C   0  0  0  0  0  0  0  0  0  0  0  0
  191.6130  177.3030  141.3500 O   0  0  0  0  0  0  0  0  0  0  0  0
  191.6800  176.6020  145.3620 C   0  0  0  0  0  3  0  0  0  0  0  0
  190.5860  177.0030  137.7940 C   0  0  0  0  0  0  0  0  0  0  0  0
  187.2050  178.6280  139.5760 N   0  0  0  0  0  0  0  0  0  0  0  0
  192.5780  175.5680  138.3440 C   0  0  0  0  0  1  0  0  0  0  0  0
  189.5950  177.4170  136.8930 C   0  0  0  0  0  0  0  0  0  0  0  0
  185.8690  178.6230  141.3920 O   0  0  0  0  0  0  0  0  0  0  0  0
  191.5040  176.0130  137.4140 C   0  0  0  0  0  0  0  0  0  0  0  0
  1 13  1  0  0  0  0
  2  4  1  0  0  0  0
  3 20  1  0  0  0  0
  4 22  2  0  0  0  0
  4  1  1  0  0  0  0
  5 14  1  0  0  0  0
  6 26  1  0  0  0  0
  7 25  2  0  0  0  0
  7 17  1  0  0  0  0
  8  9  1  0  0  0  0
  9 24  2  0  0  0  0
 10  5  2  0  0  0  0
 11  1  1  0  0  0  0
 12 10  1  0  0  0  0
 13 17  2  0  0  0  0
 13 18  1  0  0  0  0
 15  9  1  0  0  0  0
 15  6  2  0  0  0  0
 16  3  2  0  0  0  0
 16 10  1  0  0  0  0
 17 12  1  0  0  0  0
 18 16  1  0  0  0  0
 19 18  2  0  0  0  0
 20 14  2  0  0  0  0
 21 11  1  0  0  0  0
 22  7  1  0  0  0  0
 24  2  1  0  0  0  0
 24 21  1  0  0  0  0
 26 21  2  0  0  0  0
 26 23  1  0  0  0  0
M  END
>  <MODEL>
5

>  <REMARK>
 VINA RESULT:      -8.6      2.539      7.637
  Name = 
  0 active torsions:
  status: ('A' for Active; 'I' for Inactive)
                            x       y       z     vdW  Elec       q    Type
                         _______ _______ _______ _____ _____    ______ ____

>  <TORSDO>
F 0

$$$$
=
 OpenBabel11062416583D

 26 30  0  0  0  0  0  0  0  0999 V2000
  189.1220  177.4140  140.0220 N   0  0  0  0  0  0  0  0  0  0  0  0
  191.0910  177.7550  141.9130 S   0  0  0  0  0  0  0  0  0  0  0  0
  185.5220  177.6820  136.7150 C   0  0  0  0  0  3  0  0  0  0  0  0
  190.3790  177.0470  140.4320 C   0  0  0  0  0  0  0  0  0  0  0  0
  186.7950  175.9950  134.8950 C   0  0  0  0  0  3  0  0  0  0  0  0
  187.2980  177.5420  144.4660 C   0  0  0  0  0  3  0  0  0  0  0  0
  190.7160  175.7910  138.4680 C   0  0  0  0  0  0  0  0  0  0  0  0
  190.9710  176.7860  144.8940 C   0  0  0  0  0  1  0  0  0  0  0  0
  189.6780  177.1480  144.2470 C   0  0  0  0  0  0  0  0  0  0  0  0
  187.4120  176.3150  136.1080 C   0  0  0  0  0  0  0  0  0  0  0  0
  188.2720  178.0330  140.9290 O   0  0  0  0  0  0  0  0  0  0  0  0
  188.9240  175.6940  136.4720 S   0  0  0  0  0  0  0  0  0  0  0  0
  188.6580  177.0560  138.7710 C   0  0  0  0  0  0  0  0  0  0  0  0
  185.5390  176.5210  134.5940 C   0  0  0  0  0  3  0  0  0  0  0  0
  188.5190  177.1670  145.0280 C   0  0  0  0  0  3  0  0  0  0  0  0
  186.7900  177.1630  137.0460 C   0  0  0  0  0  0  0  0  0  0  0  0
  189.4740  176.2060  137.9830 C   0  0  0  0  0  0  0  0  0  0  0  0
  187.3790  177.5200  138.2960 C   0  0  0  0  0  0  0  0  0  0  0  0
  186.7210  178.3160  139.0220 O   0  0  0  0  0  0  0  0  0  0  0  0
  184.9020  177.3640  135.5040 C   0  0  0  0  0  3  0  0  0  0  0  0
  188.3730  177.8350  142.3130 C   0  0  0  0  0  0  0  0  0  0  0  0
  191.1470  176.2360  139.6670 N   0  0  0  0  0  0  0  0  0  0  0  0
  185.9000  178.2440  142.5290 C   0  0  0  0  0  1  0  0  0  0  0  0
  189.6090  177.5120  142.8900 C   0  0  0  0  0  0  0  0  0  0  0  0
  191.4510  175.0220  137.7930 O   0  0  0  0  0  0  0  0  0  0  0  0
  187.2220  177.8850  143.1130 C   0  0  0  0  0  0  0  0  0  0  0  0
  1  4  1  0  0  0  0
  1 11  1  0  0  0  0
  2 24  1  0  0  0  0
  3 16  1  0  0  0  0
  4  2  1  0  0  0  0
  5 10  1  0  0  0  0
  6 15  1  0  0  0  0
  7 22  1  0  0  0  0
  9  8  1  0  0  0  0
  9 15  2  0  0  0  0
 10 12  1  0  0  0  0
 10 16  2  0  0  0  0
 11 21  1  0  0  0  0
 12 17  1  0  0  0  0
 13  1  1  0  0  0  0
 14  5  2  0  0  0  0
 14 20  1  0  0  0  0
 16 18  1  0  0  0  0
 17  7  1  0  0  0  0
 17 13  2  0  0  0  0
 18 13  1  0  0  0  0
 18 19  2  0  0  0  0
 20  3  2  0  0  0  0
 21 24  2  0  0  0  0
 21 26  1  0  0  0  0
 22  4  2  0  0  0  0
 23 26  1  0  0  0  0
 24  9  1  0  0  0  0
 25  7  2  0  0  0  0
 26  6  2  0  0  0  0
M  END
>  <MODEL>
6

>  <REMARK>
 VINA RESULT:      -8.5      2.012      2.716
  Name = 
  0 active torsions:
  status: ('A' for Active; 'I' for Inactive)
                            x       y       z     vdW  Elec       q    Type
                         _______ _______ _______ _____ _____    ______ ____

>  <TORSDO>
F 0

$$$$
=
 OpenBabel11062416583D

 26 30  0  0  0  0  0  0  0  0999 V2000
  186.2430  178.5650  141.0710 N   0  0  0  0  0  0  0  0  0  0  0  0
  188.6810  178.7200  139.8040 S   0  0  0  0  0  0  0  0  0  0  0  0
  182.1830  178.9980  143.7710 C   0  0  0  0  0  3  0  0  0  0  0  0
  186.9100  178.4690  139.8760 C   0  0  0  0  0  0  0  0  0  0  0  0
  180.4620  178.6360  141.6070 C   0  0  0  0  0  3  0  0  0  0  0  0
  189.6890  176.3780  143.6060 C   0  0  0  0  0  3  0  0  0  0  0  0
  184.8840  178.2530  138.6950 C   0  0  0  0  0  0  0  0  0  0  0  0
  191.0400  176.6730  140.0930 C   0  0  0  0  0  1  0  0  0  0  0  0
  190.1460  176.8470  141.2730 C   0  0  0  0  0  0  0  0  0  0  0  0
  181.8460  178.6260  141.4140 C   0  0  0  0  0  0  0  0  0  0  0  0
  186.9660  178.4880  142.2540 O   0  0  0  0  0  0  0  0  0  0  0  0
  182.4800  178.4050  139.8800 S   0  0  0  0  0  0  0  0  0  0  0  0
  184.8620  178.6040  141.1030 C   0  0  0  0  0  0  0  0  0  0  0  0
  179.9390  178.8280  142.8860 C   0  0  0  0  0  3  0  0  0  0  0  0
  190.4800  176.2030  142.4690 C   0  0  0  0  0  3  0  0  0  0  0  0
  182.7380  178.8050  142.4910 C   0  0  0  0  0  0  0  0  0  0  0  0
  184.1680  178.4240  139.8810 C   0  0  0  0  0  0  0  0  0  0  0  0
  184.1580  178.8030  142.3450 C   0  0  0  0  0  0  0  0  0  0  0  0
  184.8320  179.0090  143.3930 O   0  0  0  0  0  0  0  0  0  0  0  0
  180.7990  179.0090  143.9680 C   0  0  0  0  0  3  0  0  0  0  0  0
  188.1850  177.8040  142.3490 C   0  0  0  0  0  0  0  0  0  0  0  0
  186.2320  178.2990  138.7160 N   0  0  0  0  0  0  0  0  0  0  0  0
  187.7010  177.3200  144.7700 C   0  0  0  0  0  1  0  0  0  0  0  0
  189.0100  177.6740  141.2220 C   0  0  0  0  0  0  0  0  0  0  0  0
  184.2880  178.0740  137.5990 O   0  0  0  0  0  0  0  0  0  0  0  0
  188.5480  177.1830  143.5530 C   0  0  0  0  0  0  0  0  0  0  0  0
  1 13  1  0  0  0  0
  1 11  1  0  0  0  0
  2  4  1  0  0  0  0
  2 24  1  0  0  0  0
  3 20  1  0  0  0  0
  4  1  1  0  0  0  0
  5 14  1  0  0  0  0
  7 22  1  0  0  0  0
  7 17  1  0  0  0  0
  8  9  1  0  0  0  0
  9 15  1  0  0  0  0
 10  5  2  0  0  0  0
 10 16  1  0  0  0  0
 11 21  1  0  0  0  0
 12 17  1  0  0  0  0
 12 10  1  0  0  0  0
 13 18  1  0  0  0  0
 14 20  2  0  0  0  0
 15  6  2  0  0  0  0
 16  3  2  0  0  0  0
 17 13  2  0  0  0  0
 18 16  1  0  0  0  0
 18 19  2  0  0  0  0
 21 26  2  0  0  0  0
 22  4  2  0  0  0  0
 24  9  2  0  0  0  0
 24 21  1  0  0  0  0
 25  7  2  0  0  0  0
 26  6  1  0  0  0  0
 26 23  1  0  0  0  0
M  END
>  <MODEL>
7

>  <REMARK>
 VINA RESULT:      -8.5      3.293      5.079
  Name = 
  0 active torsions:
  status: ('A' for Active; 'I' for Inactive)
                            x       y       z     vdW  Elec       q    Type
                         _______ _______ _______ _____ _____    ______ ____

>  <TORSDO>
F 0

$$$$
=
 OpenBabel11062416583D

 26 30  0  0  0  0  0  0  0  0999 V2000
  182.7060  178.9600  140.2760 N   0  0  0  0  0  0  0  0  0  0  0  0
  181.8340  178.8010  137.6720 S   0  0  0  0  0  0  0  0  0  0  0  0
  183.6130  178.6660  145.0780 C   0  0  0  0  0  3  0  0  0  0  0  0
  183.0760  178.8870  138.9580 C   0  0  0  0  0  0  0  0  0  0  0  0
  186.3730  178.4310  144.7470 C   0  0  0  0  0  3  0  0  0  0  0  0
  179.0120  181.9240  139.4700 C   0  0  0  0  0  3  0  0  0  0  0  0
  185.3470  178.6710  139.5450 C   0  0  0  0  0  0  0  0  0  0  0  0
  180.4070  181.0850  136.0640 C   0  0  0  0  0  1  0  0  0  0  0  0
  180.1900  181.0570  137.5380 C   0  0  0  0  0  0  0  0  0  0  0  0
  185.5370  178.5390  143.6320 C   0  0  0  0  0  0  0  0  0  0  0  0
  181.4070  179.3360  140.5920 O   0  0  0  0  0  0  0  0  0  0  0  0
  186.1880  178.5180  142.0890 S   0  0  0  0  0  0  0  0  0  0  0  0
  183.6430  178.7940  141.2790 C   0  0  0  0  0  0  0  0  0  0  0  0
  185.8250  178.4420  146.0300 C   0  0  0  0  0  3  0  0  0  0  0  0
  179.2720  181.9500  138.0990 C   0  0  0  0  0  3  0  0  0  0  0  0
  184.1400  178.6610  143.7710 C   0  0  0  0  0  0  0  0  0  0  0  0
  185.0020  178.6640  140.8980 C   0  0  0  0  0  0  0  0  0  0  0  0
  183.2460  178.7720  142.6640 C   0  0  0  0  0  0  0  0  0  0  0  0
  182.0150  178.8410  142.9390 O   0  0  0  0  0  0  0  0  0  0  0  0
  184.4450  178.5600  146.1960 C   0  0  0  0  0  3  0  0  0  0  0  0
  180.6300  180.1410  139.7480 C   0  0  0  0  0  0  0  0  0  0  0  0
  184.3780  178.7610  138.6090 N   0  0  0  0  0  0  0  0  0  0  0  0
  179.4130  181.0360  141.7600 C   0  0  0  0  0  1  0  0  0  0  0  0
  180.8500  180.1300  138.3630 C   0  0  0  0  0  0  0  0  0  0  0  0
  186.5500  178.5740  139.1830 O   0  0  0  0  0  0  0  0  0  0  0  0
  179.6800  181.0170  140.2950 C   0  0  0  0  0  0  0  0  0  0  0  0
  1 11  1  0  0  0  0
  1 13  1  0  0  0  0
  2 24  1  0  0  0  0
  2  4  1  0  0  0  0
  3 20  1  0  0  0  0
  4  1  1  0  0  0  0
  5 14  1  0  0  0  0
  6 26  1  0  0  0  0
  7 17  1  0  0  0  0
  8  9  1  0  0  0  0
  9 15  1  0  0  0  0
  9 24  2  0  0  0  0
 10 16  1  0  0  0  0
 10  5  2  0  0  0  0
 12 10  1  0  0  0  0
 13 18  1  0  0  0  0
 14 20  2  0  0  0  0
 15  6  2  0  0  0  0
 16  3  2  0  0  0  0
 17 13  2  0  0  0  0
 17 12  1  0  0  0  0
 18 19  2  0  0  0  0
 18 16  1  0  0  0  0
 21 26  2  0  0  0  0
 21 11  1  0  0  0  0
 22  4  2  0  0  0  0
 22  7  1  0  0  0  0
 24 21  1  0  0  0  0
 25  7  2  0  0  0  0
 26 23  1  0  0  0  0
M  END
>  <MODEL>
8

>  <REMARK>
 VINA RESULT:      -8.4      4.402      8.927
  Name = 
  0 active torsions:
  status: ('A' for Active; 'I' for Inactive)
                            x       y       z     vdW  Elec       q    Type
                         _______ _______ _______ _____ _____    ______ ____

>  <TORSDO>
F 0

$$$$
=
 OpenBabel11062416583D

 26 30  0  0  0  0  0  0  0  0999 V2000
  184.1790  178.7720  142.9880 N   0  0  0  0  0  0  0  0  0  0  0  0
  181.6180  179.7530  143.2060 S   0  0  0  0  0  0  0  0  0  0  0  0
  188.8590  177.6940  142.0330 C   0  0  0  0  0  3  0  0  0  0  0  0
  183.1410  179.0560  143.8380 C   0  0  0  0  0  0  0  0  0  0  0  0
  189.5220  177.2900  144.7120 C   0  0  0  0  0  3  0  0  0  0  0  0
  181.3520  177.1180  139.4730 C   0  0  0  0  0  3  0  0  0  0  0  0
  184.4630  178.5440  145.7190 C   0  0  0  0  0  0  0  0  0  0  0  0
  179.0130  178.3490  142.1680 C   0  0  0  0  0  1  0  0  0  0  0  0
  180.2710  178.0840  141.4140 C   0  0  0  0  0  0  0  0  0  0  0  0
  188.2230  177.6630  144.3580 C   0  0  0  0  0  0  0  0  0  0  0  0
  183.9280  178.6760  141.6250 O   0  0  0  0  0  0  0  0  0  0  0  0
  187.0580  177.8780  145.5410 S   0  0  0  0  0  0  0  0  0  0  0  0
  185.4290  178.4560  143.4860 C   0  0  0  0  0  0  0  0  0  0  0  0
  190.4910  177.1190  143.7230 C   0  0  0  0  0  3  0  0  0  0  0  0
  180.2000  177.3490  140.2280 C   0  0  0  0  0  3  0  0  0  0  0  0
  187.8600  177.8710  143.0110 C   0  0  0  0  0  0  0  0  0  0  0  0
  185.5650  178.3210  144.8900 C   0  0  0  0  0  0  0  0  0  0  0  0
  186.5480  178.2520  142.6000 C   0  0  0  0  0  0  0  0  0  0  0  0
  186.3770  178.4370  141.3630 O   0  0  0  0  0  0  0  0  0  0  0  0
  190.1590  177.3210  142.3830 C   0  0  0  0  0  3  0  0  0  0  0  0
  182.6740  178.3150  141.1150 C   0  0  0  0  0  0  0  0  0  0  0  0
  183.2870  178.9240  145.1770 N   0  0  0  0  0  0  0  0  0  0  0  0
  183.8050  177.3130  139.1030 C   0  0  0  0  0  1  0  0  0  0  0  0
  181.5090  178.5940  141.8440 C   0  0  0  0  0  0  0  0  0  0  0  0
  184.5560  178.4140  146.9680 O   0  0  0  0  0  0  0  0  0  0  0  0
  182.5860  177.6070  139.9070 C   0  0  0  0  0  0  0  0  0  0  0  0
  1 13  1  0  0  0  0
  1  4  1  0  0  0  0
  2  4  1  0  0  0  0
  3 20  2  0  0  0  0
  3 16  1  0  0  0  0
  4 22  2  0  0  0  0
  6 26  2  0  0  0  0
  6 15  1  0  0  0  0
  7 25  2  0  0  0  0
  9 24  1  0  0  0  0
  9  8  1  0  0  0  0
 10  5  1  0  0  0  0
 10 12  1  0  0  0  0
 11  1  1  0  0  0  0
 13 17  2  0  0  0  0
 14  5  2  0  0  0  0
 15  9  2  0  0  0  0
 16 10  2  0  0  0  0
 17 12  1  0  0  0  0
 17  7  1  0  0  0  0
 18 16  1  0  0  0  0
 18 13  1  0  0  0  0
 19 18  2  0  0  0  0
 20 14  1  0  0  0  0
 21 11  1  0  0  0  0
 21 24  2  0  0  0  0
 22  7  1  0  0  0  0
 23 26  1  0  0  0  0
 24  2  1  0  0  0  0
 26 21  1  0  0  0  0
M  END
>  <MODEL>
9

>  <REMARK>
 VINA RESULT:      -8.4      3.820      7.916
  Name = 
  0 active torsions:
  status: ('A' for Active; 'I' for Inactive)
                            x       y       z     vdW  Elec       q    Type
                         _______ _______ _______ _____ _____    ______ ____

>  <TORSDO>
F 0

$$$$
