=
 OpenBabel11062415413D

 34 36  0  0  1  0  0  0  0  0999 V2000
  181.8090  178.8410  144.3210 O   0  0  0  0  0  0  0  0  0  0  0  0
  185.6410  178.9780  146.9430 O   0  0  0  0  0  0  0  0  0  0  0  0
  182.2820  178.5790  140.7180 C   0  0  0  0  0  3  0  0  0  0  0  0
  183.7500  178.4400  142.8910 C   0  0  0  0  0  0  0  0  0  0  0  0
  186.1150  178.1110  144.7860 C   0  0  1  0  0  3  0  0  0  0  0  0
  183.0270  178.5040  141.7610 C   0  0  0  0  0  0  0  0  0  0  0  0
  185.0760  178.8690  145.6260 C   0  0  0  0  0  0  0  0  0  0  0  0
  187.1290  177.4420  145.7820 C   0  0  2  0  0  3  0  0  0  0  0  0
  187.6580  178.6690  148.0150 N   0  0  0  0  0  1  0  0  0  0  0  0
  186.6430  177.9870  147.2110 C   0  0  1  0  0  3  0  0  0  0  0  0
  187.2140  177.1270  142.9120 O   0  0  0  0  0  1  0  0  0  0  0  0
  183.0930  178.8230  144.2010 C   0  0  0  0  0  0  0  0  0  0  0  0
  183.8410  179.1310  145.4400 N   0  0  0  0  0  0  0  0  0  0  0  0
  186.1150  177.8230  143.4610 C   0  0  2  0  0  3  0  0  0  0  0  0
  185.2000  178.5390  142.5420 C   0  0  0  0  0  2  0  0  0  0  0  0
  180.9450  176.7350  140.2310 O   0  0  0  0  0  1  0  0  0  0  0  0
  182.0170  177.3500  139.9450 C   0  0  0  0  0  0  0  0  0  0  0  0
  183.1060  176.6300  139.3360 O   0  0  0  0  0  0  0  0  0  0  0  0
  188.7560  177.2040  145.5320 C   0  0  0  0  0  3  0  0  0  0  0  0
  189.5840  178.3620  144.6750 C   0  0  0  0  0  3  0  0  0  0  0  0
  191.2160  178.1880  144.4430 C   0  0  2  0  0  3  0  0  0  0  0  0
  191.5370  177.6650  142.9760 C   0  0  1  0  0  3  0  0  0  0  0  0
  191.4650  176.8700  144.0810 O   0  0  0  0  0  0  0  0  0  0  0  0
  189.8900  177.2120  140.7400 N   0  0  0  0  0  0  0  0  0  0  0  0
  190.5480  176.7660  142.0390 C   0  0  0  0  0  0  0  0  0  0  0  0
  190.3040  175.5960  142.3610 O   0  0  0  0  0  0  0  0  0  0  0  0
  188.1150  178.5320  139.7990 O   0  0  0  0  0  1  0  0  0  0  0  0
  189.1640  178.4840  140.7320 C   0  0  0  0  0  2  0  0  0  0  0  0
  190.2370  176.4910  139.4950 C   0  0  0  0  0  2  0  0  0  0  0  0
  191.6850  176.8010  139.1930 C   0  0  0  0  0  2  0  0  0  0  0  0
  191.7400  176.6670  136.8360 F   0  0  0  0  0  0  0  0  0  0  0  0
  191.6750  174.6940  138.0160 F   0  0  0  0  0  0  0  0  0  0  0  0
  193.6530  175.8700  137.9680 F   0  0  0  0  0  0  0  0  0  0  0  0
  192.2310  175.9910  137.9800 C   0  0  0  0  0  0  0  0  0  0  0  0
  2 10  1  0  0  0  0
  3  6  2  0  0  0  0
  4 12  1  0  0  0  0
  5  7  1  1  0  0  0
  5  8  1  0  0  0  0
  6  4  2  0  0  0  0
  7  2  1  0  0  0  0
  8 19  1  6  0  0  0
  8 10  1  0  0  0  0
 10  9  1  6  0  0  0
 12  1  2  0  0  0  0
 12 13  1  0  0  0  0
 13  7  2  0  0  0  0
 14 11  1  6  0  0  0
 14  5  1  0  0  0  0
 15  4  1  0  0  0  0
 15 14  1  0  0  0  0
 17 16  1  0  0  0  0
 17  3  1  0  0  0  0
 18 17  2  0  0  0  0
 20 19  2  0  0  0  0
 21 20  1  6  0  0  0
 22 25  1  6  0  0  0
 22 23  1  0  0  0  0
 22 21  1  0  0  0  0
 23 21  1  0  0  0  0
 24 25  1  0  0  0  0
 25 26  2  0  0  0  0
 27 28  1  0  0  0  0
 28 24  1  0  0  0  0
 29 24  1  0  0  0  0
 30 29  1  0  0  0  0
 31 34  1  0  0  0  0
 33 34  1  0  0  0  0
 34 32  1  0  0  0  0
 34 30  1  0  0  0  0
M  END
>  <MODEL>
1

>  <REMARK>
 VINA RESULT:      -8.8      0.000      0.000
  Name = 
  9 active torsions:
  status: ('A' for Active; 'I' for Inactive)
    1  A    between atoms: N_2  and  C_3
    2  A    between atoms: N_2  and  C_14
    3  A    between atoms: C_3  and  C_9
    4  A    between atoms: C_5  and  C_15
    5  A    between atoms: C_6  and  C_22
    6  A    between atoms: C_8  and  C_21
    7  A    between atoms: C_9  and  C_30
    8  A    between atoms: C_10  and  C_22
    9  A    between atoms: C_10  and  C_23
                            x       y       z     vdW  Elec       q    Type
                         _______ _______ _______ _____ _____    ______ ____

>  <TORSDO>
F 9

$$$$
=
 OpenBabel11062415413D

 34 36  0  0  1  0  0  0  0  0999 V2000
  187.3630  178.7910  148.3700 O   0  0  0  0  0  0  0  0  0  0  0  0
  183.6520  179.1150  145.5970 O   0  0  0  0  0  0  0  0  0  0  0  0
  190.0150  176.5230  147.3220 C   0  0  0  0  0  3  0  0  0  0  0  0
  187.8010  177.5250  146.3260 C   0  0  0  0  0  0  0  0  0  0  0  0
  185.5030  178.1900  144.4370 C   0  0  1  0  0  3  0  0  0  0  0  0
  188.9390  176.9970  146.8060 C   0  0  0  0  0  0  0  0  0  0  0  0
  184.9470  178.5360  145.8270 C   0  0  0  0  0  0  0  0  0  0  0  0
  184.6370  178.9610  143.3780 C   0  0  2  0  0  3  0  0  0  0  0  0
  182.1170  179.3550  143.8930 N   0  0  0  0  0  1  0  0  0  0  0  0
  183.4990  179.6500  144.2750 C   0  0  1  0  0  3  0  0  0  0  0  0
  186.9280  177.3240  142.7320 O   0  0  0  0  0  1  0  0  0  0  0  0
  186.9060  178.3070  147.2650 C   0  0  0  0  0  0  0  0  0  0  0  0
  185.4940  178.6380  146.9750 N   0  0  0  0  0  0  0  0  0  0  0  0
  186.6470  177.5470  144.0980 C   0  0  2  0  0  3  0  0  0  0  0  0
  187.3900  176.7610  145.1100 C   0  0  0  0  0  2  0  0  0  0  0  0
  191.2890  177.5210  145.6470 O   0  0  0  0  0  0  0  0  0  0  0  0
  191.3160  176.9750  146.7920 C   0  0  0  0  0  0  0  0  0  0  0  0
  192.5370  176.3710  147.2620 O   0  0  0  0  0  1  0  0  0  0  0  0
  184.2380  178.4360  141.8500 C   0  0  0  0  0  3  0  0  0  0  0  0
  185.0890  179.0670  140.5700 C   0  0  0  0  0  3  0  0  0  0  0  0
  184.4810  178.9100  139.0350 C   0  0  2  0  0  3  0  0  0  0  0  0
  185.4370  178.0200  138.1270 C   0  0  1  0  0  3  0  0  0  0  0  0
  185.4340  179.3830  138.1420 O   0  0  0  0  0  0  0  0  0  0  0  0
  187.9660  176.9920  137.4450 N   0  0  0  0  0  0  0  0  0  0  0  0
  187.0480  177.8370  138.3170 C   0  0  0  0  0  0  0  0  0  0  0  0
  187.6250  178.4480  139.2260 O   0  0  0  0  0  0  0  0  0  0  0  0
  186.7460  175.4550  136.0550 O   0  0  0  0  0  1  0  0  0  0  0  0
  187.5800  175.6040  137.1760 C   0  0  0  0  0  2  0  0  0  0  0  0
  189.0440  177.6730  136.6960 C   0  0  0  0  0  2  0  0  0  0  0  0
  190.2450  176.7560  136.7160 C   0  0  0  0  0  2  0  0  0  0  0  0
  192.3530  176.6830  137.7790 F   0  0  0  0  0  0  0  0  0  0  0  0
  190.6060  175.5860  138.7970 F   0  0  0  0  0  0  0  0  0  0  0  0
  190.6610  177.8840  138.9070 F   0  0  0  0  0  0  0  0  0  0  0  0
  190.9730  176.7540  138.0930 C   0  0  0  0  0  0  0  0  0  0  0  0
  2  7  1  0  0  0  0
  4  6  2  0  0  0  0
  4 12  1  0  0  0  0
  5  7  1  1  0  0  0
  6  3  2  0  0  0  0
  7 13  2  0  0  0  0
  8 19  1  6  0  0  0
  8 10  1  0  0  0  0
  8  5  1  0  0  0  0
 10  9  1  6  0  0  0
 10  2  1  0  0  0  0
 12  1  2  0  0  0  0
 13 12  1  0  0  0  0
 14 11  1  6  0  0  0
 14  5  1  0  0  0  0
 14 15  1  0  0  0  0
 15  4  1  0  0  0  0
 16 17  2  0  0  0  0
 17 18  1  0  0  0  0
 17  3  1  0  0  0  0
 20 19  2  0  0  0  0
 21 20  1  1  0  0  0
 22 23  1  0  0  0  0
 22 25  1  1  0  0  0
 22 21  1  0  0  0  0
 23 21  1  0  0  0  0
 24 25  1  0  0  0  0
 25 26  2  0  0  0  0
 27 28  1  0  0  0  0
 28 24  1  0  0  0  0
 29 30  1  0  0  0  0
 29 24  1  0  0  0  0
 30 34  1  0  0  0  0
 31 34  1  0  0  0  0
 34 32  1  0  0  0  0
 34 33  1  0  0  0  0
M  END
>  <MODEL>
2

>  <REMARK>
 VINA RESULT:      -8.3      2.371      6.053
  Name = 
  9 active torsions:
  status: ('A' for Active; 'I' for Inactive)
    1  A    between atoms: N_2  and  C_3
    2  A    between atoms: N_2  and  C_14
    3  A    between atoms: C_3  and  C_9
    4  A    between atoms: C_5  and  C_15
    5  A    between atoms: C_6  and  C_22
    6  A    between atoms: C_8  and  C_21
    7  A    between atoms: C_9  and  C_30
    8  A    between atoms: C_10  and  C_22
    9  A    between atoms: C_10  and  C_23
                            x       y       z     vdW  Elec       q    Type
                         _______ _______ _______ _____ _____    ______ ____

>  <TORSDO>
F 9

$$$$
=
 OpenBabel11062415413D

 34 36  0  0  1  0  0  0  0  0999 V2000
  181.8200  178.7870  144.3430 O   0  0  0  0  0  0  0  0  0  0  0  0
  185.6460  178.9520  146.9710 O   0  0  0  0  0  0  0  0  0  0  0  0
  182.3010  178.5990  140.7360 C   0  0  0  0  0  3  0  0  0  0  0  0
  183.7700  178.4500  142.9080 C   0  0  0  0  0  0  0  0  0  0  0  0
  186.1390  178.1340  144.7990 C   0  0  1  0  0  3  0  0  0  0  0  0
  183.0460  178.5200  141.7790 C   0  0  0  0  0  0  0  0  0  0  0  0
  185.0840  178.8560  145.6520 C   0  0  0  0  0  0  0  0  0  0  0  0
  187.1650  177.4670  145.7850 C   0  0  2  0  0  3  0  0  0  0  0  0
  187.6690  178.6640  148.0400 N   0  0  0  0  0  1  0  0  0  0  0  0
  186.6680  177.9760  147.2220 C   0  0  1  0  0  3  0  0  0  0  0  0
  187.2580  177.2060  142.9090 O   0  0  0  0  0  1  0  0  0  0  0  0
  183.1040  178.7970  144.2250 C   0  0  0  0  0  0  0  0  0  0  0  0
  183.8450  179.0960  145.4690 N   0  0  0  0  0  0  0  0  0  0  0  0
  186.1460  177.8700  143.4700 C   0  0  2  0  0  3  0  0  0  0  0  0
  185.2170  178.5840  142.5630 C   0  0  0  0  0  2  0  0  0  0  0  0
  183.0250  176.5590  139.8780 O   0  0  0  0  0  1  0  0  0  0  0  0
  182.0600  177.3790  139.9420 C   0  0  0  0  0  0  0  0  0  0  0  0
  181.0580  177.3770  138.9070 O   0  0  0  0  0  0  0  0  0  0  0  0
  188.7980  177.2660  145.5310 C   0  0  0  0  0  3  0  0  0  0  0  0
  189.5650  178.3540  144.5390 C   0  0  0  0  0  3  0  0  0  0  0  0
  191.2030  178.2320  144.3130 C   0  0  2  0  0  3  0  0  0  0  0  0
  191.5460  177.7310  142.8430 C   0  0  1  0  0  3  0  0  0  0  0  0
  191.4930  176.9250  143.9410 O   0  0  0  0  0  0  0  0  0  0  0  0
  190.0850  177.1750  140.5030 N   0  0  0  0  0  0  0  0  0  0  0  0
  190.5880  176.8120  141.8930 C   0  0  0  0  0  0  0  0  0  0  0  0
  190.2360  175.6920  142.2880 O   0  0  0  0  0  0  0  0  0  0  0  0
  188.0470  178.4360  140.3040 O   0  0  0  0  0  1  0  0  0  0  0  0
  189.4520  178.4830  140.3160 C   0  0  0  0  0  2  0  0  0  0  0  0
  190.4950  176.3240  139.3640 C   0  0  0  0  0  2  0  0  0  0  0  0
  189.7030  176.7820  138.1620 C   0  0  0  0  0  2  0  0  0  0  0  0
  189.4820  175.9870  135.9490 F   0  0  0  0  0  0  0  0  0  0  0  0
  187.8130  175.4630  137.4420 F   0  0  0  0  0  0  0  0  0  0  0  0
  189.8190  174.3460  137.6130 F   0  0  0  0  0  0  0  0  0  0  0  0
  189.2100  175.5950  137.2820 C   0  0  0  0  0  0  0  0  0  0  0  0
  2 10  1  0  0  0  0
  3  6  2  0  0  0  0
  4 12  1  0  0  0  0
  5  7  1  1  0  0  0
  5  8  1  0  0  0  0
  6  4  2  0  0  0  0
  7  2  1  0  0  0  0
  8 19  1  6  0  0  0
  8 10  1  0  0  0  0
 10  9  1  6  0  0  0
 12  1  2  0  0  0  0
 12 13  1  0  0  0  0
 13  7  2  0  0  0  0
 14 11  1  6  0  0  0
 14  5  1  0  0  0  0
 15  4  1  0  0  0  0
 15 14  1  0  0  0  0
 16 17  1  0  0  0  0
 17  3  1  0  0  0  0
 18 17  2  0  0  0  0
 20 19  2  0  0  0  0
 21 20  1  6  0  0  0
 22 25  1  6  0  0  0
 22 23  1  0  0  0  0
 22 21  1  0  0  0  0
 23 21  1  0  0  0  0
 24 25  1  0  0  0  0
 25 26  2  0  0  0  0
 27 28  1  0  0  0  0
 28 24  1  0  0  0  0
 29 24  1  0  0  0  0
 30 29  1  0  0  0  0
 31 34  1  0  0  0  0
 34 32  1  0  0  0  0
 34 33  1  0  0  0  0
 34 30  1  0  0  0  0
M  END
>  <MODEL>
3

>  <REMARK>
 VINA RESULT:      -8.3      1.060      1.376
  Name = 
  9 active torsions:
  status: ('A' for Active; 'I' for Inactive)
    1  A    between atoms: N_2  and  C_3
    2  A    between atoms: N_2  and  C_14
    3  A    between atoms: C_3  and  C_9
    4  A    between atoms: C_5  and  C_15
    5  A    between atoms: C_6  and  C_22
    6  A    between atoms: C_8  and  C_21
    7  A    between atoms: C_9  and  C_30
    8  A    between atoms: C_10  and  C_22
    9  A    between atoms: C_10  and  C_23
                            x       y       z     vdW  Elec       q    Type
                         _______ _______ _______ _____ _____    ______ ____

>  <TORSDO>
F 9

$$$$
=
 OpenBabel11062415413D

 34 36  0  0  1  0  0  0  0  0999 V2000
  186.0450  178.0780  137.7110 O   0  0  0  0  0  0  0  0  0  0  0  0
  184.0190  179.3150  141.7020 O   0  0  0  0  0  0  0  0  0  0  0  0
  189.6770  177.7840  137.7240 C   0  0  0  0  0  3  0  0  0  0  0  0
  187.7430  178.1260  139.4680 C   0  0  0  0  0  0  0  0  0  0  0  0
  186.2160  178.5040  142.0790 C   0  0  1  0  0  3  0  0  0  0  0  0
  188.7550  177.9500  138.6020 C   0  0  0  0  0  0  0  0  0  0  0  0
  185.2370  179.0050  141.0060 C   0  0  0  0  0  0  0  0  0  0  0  0
  185.3760  178.1640  143.3610 C   0  0  2  0  0  3  0  0  0  0  0  0
  183.2540  179.5860  143.8600 N   0  0  0  0  0  1  0  0  0  0  0  0
  183.8950  178.6290  142.9560 C   0  0  1  0  0  3  0  0  0  0  0  0
  188.2250  177.7520  143.1210 O   0  0  0  0  0  1  0  0  0  0  0  0
  186.3530  178.3860  138.9240 C   0  0  0  0  0  0  0  0  0  0  0  0
  185.2410  178.9320  139.7320 N   0  0  0  0  0  0  0  0  0  0  0  0
  187.5240  178.1660  141.9670 C   0  0  2  0  0  3  0  0  0  0  0  0
  188.3030  178.5790  140.7770 C   0  0  0  0  0  2  0  0  0  0  0  0
  190.2870  175.8340  136.6060 O   0  0  0  0  0  0  0  0  0  0  0  0
  190.3930  176.4940  137.6830 C   0  0  0  0  0  0  0  0  0  0  0  0
  190.7130  175.8060  138.9080 O   0  0  0  0  0  1  0  0  0  0  0  0
  185.8620  178.3420  144.9430 C   0  0  0  0  0  3  0  0  0  0  0  0
  186.9350  177.2290  145.5510 C   0  0  0  0  0  3  0  0  0  0  0  0
  187.4750  177.3900  147.1100 C   0  0  2  0  0  3  0  0  0  0  0  0
  188.9430  178.0010  147.1510 C   0  0  1  0  0  3  0  0  0  0  0  0
  188.6570  176.6710  147.2360 O   0  0  0  0  0  0  0  0  0  0  0  0
  190.9640  176.6660  145.7180 N   0  0  0  0  0  0  0  0  0  0  0  0
  190.0710  177.8710  145.9770 C   0  0  0  0  0  0  0  0  0  0  0  0
  190.2290  178.8060  145.1820 O   0  0  0  0  0  0  0  0  0  0  0  0
  192.0510  177.0380  147.8300 O   0  0  0  0  0  1  0  0  0  0  0  0
  191.7030  176.0960  146.8480 C   0  0  0  0  0  2  0  0  0  0  0  0
  190.8380  175.9660  144.4200 C   0  0  0  0  0  2  0  0  0  0  0  0
  192.0070  176.4010  143.5680 C   0  0  0  0  0  2  0  0  0  0  0  0
  190.5000  176.3760  141.7490 F   0  0  0  0  0  0  0  0  0  0  0  0
  192.6320  177.1450  141.3580 F   0  0  0  0  0  0  0  0  0  0  0  0
  191.1770  178.5070  142.5090 F   0  0  0  0  0  0  0  0  0  0  0  0
  191.5610  177.1510  142.2780 C   0  0  0  0  0  0  0  0  0  0  0  0
  1 12  2  0  0  0  0
  2 10  1  0  0  0  0
  3  6  2  0  0  0  0
  4 15  1  0  0  0  0
  5  7  1  6  0  0  0
  5  8  1  0  0  0  0
  6  4  2  0  0  0  0
  7  2  1  0  0  0  0
  8 19  1  1  0  0  0
 10  8  1  0  0  0  0
 10  9  1  1  0  0  0
 12  4  1  0  0  0  0
 12 13  1  0  0  0  0
 13  7  2  0  0  0  0
 14  5  1  0  0  0  0
 14 11  1  1  0  0  0
 15 14  1  0  0  0  0
 16 17  2  0  0  0  0
 17  3  1  0  0  0  0
 17 18  1  0  0  0  0
 19 20  2  0  0  0  0
 21 20  1  6  0  0  0
 21 22  1  0  0  0  0
 21 23  1  0  0  0  0
 22 25  1  6  0  0  0
 22 23  1  0  0  0  0
 24 25  1  0  0  0  0
 24 28  1  0  0  0  0
 26 25  2  0  0  0  0
 28 27  1  0  0  0  0
 29 24  1  0  0  0  0
 30 29  1  0  0  0  0
 31 34  1  0  0  0  0
 32 34  1  0  0  0  0
 34 33  1  0  0  0  0
 34 30  1  0  0  0  0
M  END
>  <MODEL>
4

>  <REMARK>
 VINA RESULT:      -7.9      2.818      5.624
  Name = 
  9 active torsions:
  status: ('A' for Active; 'I' for Inactive)
    1  A    between atoms: N_2  and  C_3
    2  A    between atoms: N_2  and  C_14
    3  A    between atoms: C_3  and  C_9
    4  A    between atoms: C_5  and  C_15
    5  A    between atoms: C_6  and  C_22
    6  A    between atoms: C_8  and  C_21
    7  A    between atoms: C_9  and  C_30
    8  A    between atoms: C_10  and  C_22
    9  A    between atoms: C_10  and  C_23
                            x       y       z     vdW  Elec       q    Type
                         _______ _______ _______ _____ _____    ______ ____

>  <TORSDO>
F 9

$$$$
=
 OpenBabel11062415413D

 34 36  0  0  1  0  0  0  0  0999 V2000
  187.2210  178.6640  148.3210 O   0  0  0  0  0  0  0  0  0  0  0  0
  183.7800  179.2330  145.2530 O   0  0  0  0  0  0  0  0  0  0  0  0
  189.9580  176.4680  147.3430 C   0  0  0  0  0  3  0  0  0  0  0  0
  187.8450  177.5610  146.2310 C   0  0  0  0  0  0  0  0  0  0  0  0
  185.7300  178.3890  144.1990 C   0  0  1  0  0  3  0  0  0  0  0  0
  188.9350  176.9890  146.7700 C   0  0  0  0  0  0  0  0  0  0  0  0
  185.0480  178.6280  145.5550 C   0  0  0  0  0  0  0  0  0  0  0  0
  184.9650  179.2480  143.1290 C   0  0  2  0  0  3  0  0  0  0  0  0
  182.4080  179.6170  143.4410 N   0  0  0  0  0  1  0  0  0  0  0  0
  183.7490  179.8710  143.9690 C   0  0  1  0  0  3  0  0  0  0  0  0
  187.3060  177.6510  142.5680 O   0  0  0  0  0  1  0  0  0  0  0  0
  186.8680  178.2730  147.1440 C   0  0  0  0  0  0  0  0  0  0  0  0
  185.4880  178.6350  146.7520 N   0  0  0  0  0  0  0  0  0  0  0  0
  186.9010  177.7670  143.9150 C   0  0  2  0  0  3  0  0  0  0  0  0
  187.5470  176.8980  144.9260 C   0  0  0  0  0  2  0  0  0  0  0  0
  191.5150  177.1010  145.7310 O   0  0  0  0  0  0  0  0  0  0  0  0
  191.3020  176.9510  146.9720 C   0  0  0  0  0  0  0  0  0  0  0  0
  192.4160  176.7460  147.8630 O   0  0  0  0  0  1  0  0  0  0  0  0
  184.7080  178.8480  141.5340 C   0  0  0  0  0  2  0  0  0  0  0  0
  183.4330  177.8430  141.1850 C   0  0  0  0  0  2  0  0  0  0  0  0
  182.1480  178.4330  140.3190 C   0  0  2  0  0  3  0  0  0  0  0  0
  181.7810  177.4710  139.1070 C   0  0  1  0  0  3  0  0  0  0  0  0
  182.5510  178.5900  138.9990 O   0  0  0  0  0  0  0  0  0  0  0  0
  183.5590  176.7670  137.0430 N   0  0  0  0  0  0  0  0  0  0  0  0
  182.8080  176.4660  138.3320 C   0  0  0  0  0  0  0  0  0  0  0  0
  183.0510  175.3530  138.8180 O   0  0  0  0  0  0  0  0  0  0  0  0
  183.3970  177.0250  134.6580 O   0  0  0  0  0  1  0  0  0  0  0  0
  182.7980  177.2850  135.9030 C   0  0  0  0  0  2  0  0  0  0  0  0
  185.0380  176.7850  137.0820 C   0  0  0  0  0  2  0  0  0  0  0  0
  185.4440  177.9360  137.9730 C   0  0  0  0  0  2  0  0  0  0  0  0
  187.4880  176.7530  137.9690 F   0  0  0  0  0  0  0  0  0  0  0  0
  187.2880  178.5340  139.4110 F   0  0  0  0  0  0  0  0  0  0  0  0
  187.5700  178.9740  137.1690 F   0  0  0  0  0  0  0  0  0  0  0  0
  186.9890  178.0710  138.1110 C   0  0  0  0  0  0  0  0  0  0  0  0
  2  7  1  0  0  0  0
  4  6  2  0  0  0  0
  4 12  1  0  0  0  0
  5  7  1  1  0  0  0
  6  3  2  0  0  0  0
  7 13  2  0  0  0  0
  8 19  1  6  0  0  0
  8 10  1  0  0  0  0
  8  5  1  0  0  0  0
 10  9  1  6  0  0  0
 10  2  1  0  0  0  0
 12  1  2  0  0  0  0
 13 12  1  0  0  0  0
 14 11  1  6  0  0  0
 14  5  1  0  0  0  0
 14 15  1  0  0  0  0
 15  4  1  0  0  0  0
 16 17  2  0  0  0  0
 17  3  1  0  0  0  0
 17 18  1  0  0  0  0
 20 19  1  0  0  0  0
 21 20  1  1  0  0  0
 22 25  1  1  0  0  0
 22 21  1  0  0  0  0
 23 22  1  0  0  0  0
 23 21  1  0  0  0  0
 24 29  1  0  0  0  0
 24 25  1  0  0  0  0
 25 26  2  0  0  0  0
 27 28  1  0  0  0  0
 28 24  1  0  0  0  0
 29 30  1  0  0  0  0
 30 34  1  0  0  0  0
 31 34  1  0  0  0  0
 33 34  1  0  0  0  0
 34 32  1  0  0  0  0
M  END
>  <MODEL>
5

>  <REMARK>
 VINA RESULT:      -7.7      3.120      7.152
  Name = 
  9 active torsions:
  status: ('A' for Active; 'I' for Inactive)
    1  A    between atoms: N_2  and  C_3
    2  A    between atoms: N_2  and  C_14
    3  A    between atoms: C_3  and  C_9
    4  A    between atoms: C_5  and  C_15
    5  A    between atoms: C_6  and  C_22
    6  A    between atoms: C_8  and  C_21
    7  A    between atoms: C_9  and  C_30
    8  A    between atoms: C_10  and  C_22
    9  A    between atoms: C_10  and  C_23
                            x       y       z     vdW  Elec       q    Type
                         _______ _______ _______ _____ _____    ______ ____

>  <TORSDO>
F 9

$$$$
=
 OpenBabel11062415413D

 34 36  0  0  1  0  0  0  0  0999 V2000
  180.2510  178.2550  142.8720 O   0  0  0  0  0  0  0  0  0  0  0  0
  183.7690  179.0050  145.8090 O   0  0  0  0  0  0  0  0  0  0  0  0
  180.9700  178.5790  139.3150 C   0  0  0  0  0  3  0  0  0  0  0  0
  182.3040  178.5340  141.5770 C   0  0  0  0  0  0  0  0  0  0  0  0
  184.5670  178.5660  143.6190 C   0  0  1  0  0  3  0  0  0  0  0  0
  181.6520  178.5590  140.4040 C   0  0  0  0  0  0  0  0  0  0  0  0
  183.3240  178.9280  144.4460 C   0  0  0  0  0  0  0  0  0  0  0  0
  185.6630  178.0480  144.6190 C   0  0  2  0  0  3  0  0  0  0  0  0
  185.7360  179.0740  147.0100 N   0  0  0  0  0  1  0  0  0  0  0  0
  184.9760  178.2690  146.0520 C   0  0  1  0  0  3  0  0  0  0  0  0
  185.9820  178.1330  141.7490 O   0  0  0  0  0  1  0  0  0  0  0  0
  181.5000  178.5720  142.8610 C   0  0  0  0  0  0  0  0  0  0  0  0
  182.0750  178.8960  144.1850 N   0  0  0  0  0  0  0  0  0  0  0  0
  184.7130  178.4580  142.2760 C   0  0  2  0  0  3  0  0  0  0  0  0
  183.6960  179.0340  141.3660 C   0  0  0  0  0  2  0  0  0  0  0  0
  180.4650  177.5510  137.2870 O   0  0  0  0  0  0  0  0  0  0  0  0
  181.0730  177.4310  138.3940 C   0  0  0  0  0  0  0  0  0  0  0  0
  181.3570  176.1150  138.9070 O   0  0  0  0  0  1  0  0  0  0  0  0
  187.3080  178.2560  144.4830 C   0  0  0  0  0  2  0  0  0  0  0  0
  188.2500  176.8950  144.3480 C   0  0  0  0  0  2  0  0  0  0  0  0
  188.6980  176.3640  142.8430 C   0  0  2  0  0  3  0  0  0  0  0  0
  190.1120  175.6370  142.8860 C   0  0  1  0  0  3  0  0  0  0  0  0
  189.9230  176.9380  142.5270 O   0  0  0  0  0  0  0  0  0  0  0  0
  191.5840  177.2340  144.6750 N   0  0  0  0  0  0  0  0  0  0  0  0
  191.3030  175.9150  143.9670 C   0  0  0  0  0  0  0  0  0  0  0  0
  192.0560  174.9880  144.2940 O   0  0  0  0  0  0  0  0  0  0  0  0
  190.9150  179.5190  144.3440 O   0  0  0  0  0  1  0  0  0  0  0  0
  191.6870  178.4480  143.8620 C   0  0  0  0  0  2  0  0  0  0  0  0
  191.4710  177.2750  146.1490 C   0  0  0  0  0  2  0  0  0  0  0  0
  190.1080  176.7280  146.5040 C   0  0  0  0  0  2  0  0  0  0  0  0
  188.3530  176.7050  148.0840 F   0  0  0  0  0  0  0  0  0  0  0  0
  188.8900  178.7210  147.1150 F   0  0  0  0  0  0  0  0  0  0  0  0
  190.3060  177.8710  148.7180 F   0  0  0  0  0  0  0  0  0  0  0  0
  189.4210  177.5280  147.6510 C   0  0  0  0  0  0  0  0  0  0  0  0
  2 10  1  0  0  0  0
  3  6  2  0  0  0  0
  4 12  1  0  0  0  0
  5  7  1  1  0  0  0
  5  8  1  0  0  0  0
  6  4  2  0  0  0  0
  7  2  1  0  0  0  0
  8 19  1  1  0  0  0
  8 10  1  0  0  0  0
 10  9  1  1  0  0  0
 12  1  2  0  0  0  0
 12 13  1  0  0  0  0
 13  7  2  0  0  0  0
 14 11  1  6  0  0  0
 14  5  1  0  0  0  0
 15  4  1  0  0  0  0
 15 14  1  0  0  0  0
 16 17  2  0  0  0  0
 17 18  1  0  0  0  0
 17  3  1  0  0  0  0
 20 19  1  0  0  0  0
 21 22  1  0  0  0  0
 21 20  1  1  0  0  0
 22 25  1  1  0  0  0
 23 21  1  0  0  0  0
 23 22  1  0  0  0  0
 24 29  1  0  0  0  0
 25 26  2  0  0  0  0
 25 24  1  0  0  0  0
 28 27  1  0  0  0  0
 28 24  1  0  0  0  0
 29 30  1  0  0  0  0
 30 34  1  0  0  0  0
 32 34  1  0  0  0  0
 34 31  1  0  0  0  0
 34 33  1  0  0  0  0
M  END
>  <MODEL>
6

>  <REMARK>
 VINA RESULT:      -7.6      3.804      4.755
  Name = 
  9 active torsions:
  status: ('A' for Active; 'I' for Inactive)
    1  A    between atoms: N_2  and  C_3
    2  A    between atoms: N_2  and  C_14
    3  A    between atoms: C_3  and  C_9
    4  A    between atoms: C_5  and  C_15
    5  A    between atoms: C_6  and  C_22
    6  A    between atoms: C_8  and  C_21
    7  A    between atoms: C_9  and  C_30
    8  A    between atoms: C_10  and  C_22
    9  A    between atoms: C_10  and  C_23
                            x       y       z     vdW  Elec       q    Type
                         _______ _______ _______ _____ _____    ______ ____

>  <TORSDO>
F 9

$$$$
=
 OpenBabel11062415413D

 34 36  0  0  1  0  0  0  0  0999 V2000
  190.9930  175.6170  143.2220 O   0  0  0  0  0  0  0  0  0  0  0  0
  190.4950  176.4830  138.6860 O   0  0  0  0  0  0  0  0  0  0  0  0
  189.3030  177.8750  145.5290 C   0  0  0  0  0  3  0  0  0  0  0  0
  189.3660  177.4190  142.9430 C   0  0  0  0  0  0  0  0  0  0  0  0
  188.8080  177.5700  139.9510 C   0  0  1  0  0  3  0  0  0  0  0  0
  189.3100  177.6760  144.2610 C   0  0  0  0  0  0  0  0  0  0  0  0
  190.1640  176.8520  140.0340 C   0  0  0  0  0  0  0  0  0  0  0  0
  188.1880  177.2430  138.5450 C   0  0  2  0  0  3  0  0  0  0  0  0
  189.8030  176.9150  136.5300 N   0  0  0  0  0  1  0  0  0  0  0  0
  189.3500  176.4030  137.8250 C   0  0  1  0  0  3  0  0  0  0  0  0
  186.8710  178.8080  140.5840 O   0  0  0  0  0  1  0  0  0  0  0  0
  190.4180  176.4580  142.4300 C   0  0  0  0  0  0  0  0  0  0  0  0
  190.8160  176.3520  141.0100 N   0  0  0  0  0  0  0  0  0  0  0  0
  188.0950  178.1910  140.9220 C   0  0  2  0  0  3  0  0  0  0  0  0
  188.7410  178.5570  142.2030 C   0  0  0  0  0  2  0  0  0  0  0  0
  187.0060  178.0060  145.8920 O   0  0  0  0  0  0  0  0  0  0  0  0
  188.0990  177.5070  146.2990 C   0  0  0  0  0  0  0  0  0  0  0  0
  188.2200  177.0860  147.6720 O   0  0  0  0  0  1  0  0  0  0  0  0
  187.2430  178.2510  137.6180 C   0  0  0  0  0  2  0  0  0  0  0  0
  185.6220  178.3330  137.9730 C   0  0  0  0  0  2  0  0  0  0  0  0
  184.6050  177.1580  137.3950 C   0  0  2  0  0  3  0  0  0  0  0  0
  183.0820  177.5970  137.5320 C   0  0  1  0  0  3  0  0  0  0  0  0
  183.7370  176.7950  138.4170 O   0  0  0  0  0  0  0  0  0  0  0  0
  182.0200  178.2820  140.0460 N   0  0  0  0  0  0  0  0  0  0  0  0
  182.4770  178.6350  138.6370 C   0  0  0  0  0  0  0  0  0  0  0  0
  182.3890  179.8380  138.3560 O   0  0  0  0  0  0  0  0  0  0  0  0
  179.8970  177.5060  140.8640 O   0  0  0  0  0  1  0  0  0  0  0  0
  181.0930  177.1600  140.2130 C   0  0  0  0  0  2  0  0  0  0  0  0
  182.7310  178.8980  141.1880 C   0  0  0  0  0  2  0  0  0  0  0  0
  183.8420  177.9520  141.5800 C   0  0  0  0  0  2  0  0  0  0  0  0
  183.4670  178.2550  143.8920 F   0  0  0  0  0  0  0  0  0  0  0  0
  184.9500  179.6760  142.8560 F   0  0  0  0  0  0  0  0  0  0  0  0
  185.6240  177.5160  143.2770 F   0  0  0  0  0  0  0  0  0  0  0  0
  184.5080  178.3380  142.9340 C   0  0  0  0  0  0  0  0  0  0  0  0
  2  7  1  0  0  0  0
  3 17  1  0  0  0  0
  4  6  2  0  0  0  0
  5  7  1  1  0  0  0
  5 14  1  0  0  0  0
  6  3  2  0  0  0  0
  7 13  2  0  0  0  0
  8 19  1  6  0  0  0
  8  5  1  0  0  0  0
 10  9  1  6  0  0  0
 10  8  1  0  0  0  0
 10  2  1  0  0  0  0
 12  4  1  0  0  0  0
 12  1  2  0  0  0  0
 13 12  1  0  0  0  0
 14 11  1  6  0  0  0
 14 15  1  0  0  0  0
 15  4  1  0  0  0  0
 16 17  2  0  0  0  0
 17 18  1  0  0  0  0
 19 20  1  0  0  0  0
 21 22  1  0  0  0  0
 21 20  1  1  0  0  0
 21 23  1  0  0  0  0
 22 23  1  0  0  0  0
 22 25  1  1  0  0  0
 24 28  1  0  0  0  0
 24 29  1  0  0  0  0
 25 24  1  0  0  0  0
 26 25  2  0  0  0  0
 28 27  1  0  0  0  0
 29 30  1  0  0  0  0
 30 34  1  0  0  0  0
 32 34  1  0  0  0  0
 34 33  1  0  0  0  0
 34 31  1  0  0  0  0
M  END
>  <MODEL>
7

>  <REMARK>
 VINA RESULT:      -7.6      3.653      8.518
  Name = 
  9 active torsions:
  status: ('A' for Active; 'I' for Inactive)
    1  A    between atoms: N_2  and  C_3
    2  A    between atoms: N_2  and  C_14
    3  A    between atoms: C_3  and  C_9
    4  A    between atoms: C_5  and  C_15
    5  A    between atoms: C_6  and  C_22
    6  A    between atoms: C_8  and  C_21
    7  A    between atoms: C_9  and  C_30
    8  A    between atoms: C_10  and  C_22
    9  A    between atoms: C_10  and  C_23
                            x       y       z     vdW  Elec       q    Type
                         _______ _______ _______ _____ _____    ______ ____

>  <TORSDO>
F 9

$$$$
=
 OpenBabel11062415413D

 34 36  0  0  1  0  0  0  0  0999 V2000
  187.3050  179.0050  148.2400 O   0  0  0  0  0  0  0  0  0  0  0  0
  183.5910  179.1650  145.4560 O   0  0  0  0  0  0  0  0  0  0  0  0
  189.9300  176.6380  147.3570 C   0  0  0  0  0  3  0  0  0  0  0  0
  187.7250  177.5880  146.2940 C   0  0  0  0  0  0  0  0  0  0  0  0
  185.4300  178.1370  144.3650 C   0  0  1  0  0  3  0  0  0  0  0  0
  188.8580  177.0840  146.8090 C   0  0  0  0  0  0  0  0  0  0  0  0
  184.8800  178.5910  145.7260 C   0  0  0  0  0  0  0  0  0  0  0  0
  184.5690  178.8380  143.2530 C   0  0  2  0  0  3  0  0  0  0  0  0
  182.0540  179.2960  143.7420 N   0  0  0  0  0  1  0  0  0  0  0  0
  183.4410  179.6030  144.0980 C   0  0  1  0  0  3  0  0  0  0  0  0
  186.8410  177.1330  142.7260 O   0  0  0  0  0  1  0  0  0  0  0  0
  186.8400  178.4470  147.1750 C   0  0  0  0  0  0  0  0  0  0  0  0
  185.4310  178.7700  146.8630 N   0  0  0  0  0  0  0  0  0  0  0  0
  186.5660  177.4590  144.0720 C   0  0  2  0  0  3  0  0  0  0  0  0
  187.3020  176.7410  145.1380 C   0  0  0  0  0  2  0  0  0  0  0  0
  191.2090  177.5110  145.6180 O   0  0  0  0  0  0  0  0  0  0  0  0
  191.2340  177.0360  146.7940 C   0  0  0  0  0  0  0  0  0  0  0  0
  192.4490  176.4440  147.2940 O   0  0  0  0  0  1  0  0  0  0  0  0
  184.1620  178.2070  141.7680 C   0  0  0  0  0  2  0  0  0  0  0  0
  184.9460  178.8060  140.4320 C   0  0  0  0  0  2  0  0  0  0  0  0
  184.0710  179.5790  139.2550 C   0  0  2  0  0  3  0  0  0  0  0  0
  183.1030  178.5680  138.5000 C   0  0  1  0  0  3  0  0  0  0  0  0
  184.3280  178.9530  138.0420 O   0  0  0  0  0  0  0  0  0  0  0  0
  183.9120  176.2660  137.0980 N   0  0  0  0  0  0  0  0  0  0  0  0
  183.3390  176.9620  138.3250 C   0  0  0  0  0  0  0  0  0  0  0  0
  183.0670  176.2020  139.2640 O   0  0  0  0  0  0  0  0  0  0  0  0
  182.0730  176.0080  135.5710 O   0  0  0  0  0  1  0  0  0  0  0  0
  183.3360  176.5840  135.7890 C   0  0  0  0  0  2  0  0  0  0  0  0
  185.1820  175.5200  137.2440 C   0  0  0  0  0  2  0  0  0  0  0  0
  185.0640  174.2760  136.3960 C   0  0  0  0  0  2  0  0  0  0  0  0
  185.1300  172.9600  138.3560 F   0  0  0  0  0  0  0  0  0  0  0  0
  184.5480  171.9180  136.3900 F   0  0  0  0  0  0  0  0  0  0  0  0
  182.9970  173.2900  137.3960 F   0  0  0  0  0  0  0  0  0  0  0  0
  184.3910  173.0940  137.1550 C   0  0  0  0  0  0  0  0  0  0  0  0
  2  7  1  0  0  0  0
  4  6  2  0  0  0  0
  4 12  1  0  0  0  0
  5  7  1  1  0  0  0
  6  3  2  0  0  0  0
  7 13  2  0  0  0  0
  8 19  1  6  0  0  0
  8 10  1  0  0  0  0
  8  5  1  0  0  0  0
 10  9  1  6  0  0  0
 10  2  1  0  0  0  0
 12  1  2  0  0  0  0
 13 12  1  0  0  0  0
 14 11  1  6  0  0  0
 14  5  1  0  0  0  0
 14 15  1  0  0  0  0
 15  4  1  0  0  0  0
 16 17  2  0  0  0  0
 17 18  1  0  0  0  0
 17  3  1  0  0  0  0
 20 19  1  0  0  0  0
 21 20  1  1  0  0  0
 22 25  1  1  0  0  0
 22 21  1  0  0  0  0
 23 22  1  0  0  0  0
 23 21  1  0  0  0  0
 24 29  1  0  0  0  0
 24 25  1  0  0  0  0
 25 26  2  0  0  0  0
 27 28  1  0  0  0  0
 28 24  1  0  0  0  0
 30 34  1  0  0  0  0
 30 29  1  0  0  0  0
 32 34  1  0  0  0  0
 34 33  1  0  0  0  0
 34 31  1  0  0  0  0
M  END
>  <MODEL>
8

>  <REMARK>
 VINA RESULT:      -7.5      3.859      7.354
  Name = 
  9 active torsions:
  status: ('A' for Active; 'I' for Inactive)
    1  A    between atoms: N_2  and  C_3
    2  A    between atoms: N_2  and  C_14
    3  A    between atoms: C_3  and  C_9
    4  A    between atoms: C_5  and  C_15
    5  A    between atoms: C_6  and  C_22
    6  A    between atoms: C_8  and  C_21
    7  A    between atoms: C_9  and  C_30
    8  A    between atoms: C_10  and  C_22
    9  A    between atoms: C_10  and  C_23
                            x       y       z     vdW  Elec       q    Type
                         _______ _______ _______ _____ _____    ______ ____

>  <TORSDO>
F 9

$$$$
=
 OpenBabel11062415413D

 34 36  0  0  1  0  0  0  0  0999 V2000
  191.7220  173.8370  135.9740 O   0  0  0  0  0  0  0  0  0  0  0  0
  188.3110  176.8390  136.9370 O   0  0  0  0  0  0  0  0  0  0  0  0
  194.9720  174.4890  137.4880 C   0  0  0  0  0  3  0  0  0  0  0  0
  192.5180  175.4100  137.6670 C   0  0  0  0  0  0  0  0  0  0  0  0
  190.0700  177.0120  138.5200 C   0  0  1  0  0  3  0  0  0  0  0  0
  193.7820  174.9600  137.6010 C   0  0  0  0  0  0  0  0  0  0  0  0
  189.6790  176.4510  137.1440 C   0  0  0  0  0  0  0  0  0  0  0  0
  188.7420  177.3970  139.2650 C   0  0  2  0  0  3  0  0  0  0  0  0
  186.7330  178.2510  137.8480 N   0  0  0  0  0  1  0  0  0  0  0  0
  187.6140  177.1230  138.1580 C   0  0  1  0  0  3  0  0  0  0  0  0
  191.3820  177.6160  140.4170 O   0  0  0  0  0  1  0  0  0  0  0  0
  191.5140  174.9190  136.6450 C   0  0  0  0  0  0  0  0  0  0  0  0
  190.2130  175.5740  136.3860 N   0  0  0  0  0  0  0  0  0  0  0  0
  191.2700  177.0040  139.1500 C   0  0  2  0  0  3  0  0  0  0  0  0
  192.5090  176.7170  138.3910 C   0  0  0  0  0  2  0  0  0  0  0  0
  195.3060  172.4490  138.5610 O   0  0  0  0  0  0  0  0  0  0  0  0
  195.5290  173.6970  138.6010 C   0  0  0  0  0  0  0  0  0  0  0  0
  195.8110  174.3260  139.8660 O   0  0  0  0  0  1  0  0  0  0  0  0
  188.5290  178.6640  140.3230 C   0  0  0  0  0  3  0  0  0  0  0  0
  188.4210  178.3090  141.9420 C   0  0  0  0  0  3  0  0  0  0  0  0
  188.5180  176.7290  142.4340 C   0  0  2  0  0  3  0  0  0  0  0  0
  188.5370  176.6200  144.0210 C   0  0  1  0  0  3  0  0  0  0  0  0
  189.6480  176.5920  143.2310 O   0  0  0  0  0  0  0  0  0  0  0  0
  188.5670  178.0050  146.4700 N   0  0  0  0  0  0  0  0  0  0  0  0
  189.0760  177.7610  145.0560 C   0  0  0  0  0  0  0  0  0  0  0  0
  190.0050  178.5040  144.7110 O   0  0  0  0  0  0  0  0  0  0  0  0
  186.3690  177.1240  146.0550 O   0  0  0  0  0  1  0  0  0  0  0  0
  187.1220  178.1360  146.6730 C   0  0  0  0  0  2  0  0  0  0  0  0
  189.5120  177.8270  147.5950 C   0  0  0  0  0  2  0  0  0  0  0  0
  190.0180  176.4050  147.5280 C   0  0  0  0  0  2  0  0  0  0  0  0
  192.0740  177.1960  148.3810 F   0  0  0  0  0  0  0  0  0  0  0  0
  191.9290  176.8290  146.1150 F   0  0  0  0  0  0  0  0  0  0  0  0
  192.0870  175.0020  147.5060 F   0  0  0  0  0  0  0  0  0  0  0  0
  191.5670  176.3270  147.3840 C   0  0  0  0  0  0  0  0  0  0  0  0
  1 12  2  0  0  0  0
  2  7  1  0  0  0  0
  2 10  1  0  0  0  0
  3  6  2  0  0  0  0
  3 17  1  0  0  0  0
  4 15  1  0  0  0  0
  5  7  1  1  0  0  0
  5 14  1  0  0  0  0
  5  8  1  0  0  0  0
  6  4  2  0  0  0  0
  8 19  1  6  0  0  0
 10  9  1  6  0  0  0
 10  8  1  0  0  0  0
 12  4  1  0  0  0  0
 13 12  1  0  0  0  0
 13  7  2  0  0  0  0
 14 11  1  6  0  0  0
 15 14  1  0  0  0  0
 16 17  2  0  0  0  0
 17 18  1  0  0  0  0
 19 20  2  0  0  0  0
 21 20  1  1  0  0  0
 21 23  1  0  0  0  0
 21 22  1  0  0  0  0
 22 25  1  1  0  0  0
 23 22  1  0  0  0  0
 24 28  1  0  0  0  0
 24 29  1  0  0  0  0
 25 24  1  0  0  0  0
 26 25  2  0  0  0  0
 27 28  1  0  0  0  0
 30 29  1  0  0  0  0
 32 34  1  0  0  0  0
 34 33  1  0  0  0  0
 34 30  1  0  0  0  0
 34 31  1  0  0  0  0
M  END
>  <MODEL>
9

>  <REMARK>
 VINA RESULT:      -7.3      4.293      9.226
  Name = 
  9 active torsions:
  status: ('A' for Active; 'I' for Inactive)
    1  A    between atoms: N_2  and  C_3
    2  A    between atoms: N_2  and  C_14
    3  A    between atoms: C_3  and  C_9
    4  A    between atoms: C_5  and  C_15
    5  A    between atoms: C_6  and  C_22
    6  A    between atoms: C_8  and  C_21
    7  A    between atoms: C_9  and  C_30
    8  A    between atoms: C_10  and  C_22
    9  A    between atoms: C_10  and  C_23
                            x       y       z     vdW  Elec       q    Type
                         _______ _______ _______ _____ _____    ______ ____

>  <TORSDO>
F 9

$$$$
