=
 OpenBabel11062415183D

 41 43  0  0  1  0  0  0  0  0999 V2000
  187.2280  176.5790  136.6580 C   0  0  1  0  0  3  0  0  0  0  0  0
  186.0200  176.5130  137.4870 N   0  0  0  0  0  2  0  0  0  0  0  0
  185.1930  179.4520  140.7470 N   0  0  0  0  0  2  0  0  0  0  0  0
  185.9420  178.4970  138.7460 O   0  0  0  0  0  0  0  0  0  0  0  0
  183.9030  177.6730  137.8940 C   0  0  0  0  0  2  0  0  0  0  0  0
  183.6040  178.4380  139.1850 C   0  0  1  0  0  3  0  0  0  0  0  0
  185.4060  177.8300  137.6180 C   0  0  2  0  0  3  0  0  0  0  0  0
  184.9510  178.8490  139.6310 C   0  0  0  0  0  0  0  0  0  0  0  0
  183.3180  180.8990  138.7870 O   0  0  0  0  0  1  0  0  0  0  0  0
  181.5130  179.4880  138.7380 O   0  0  0  0  0  0  0  0  0  0  0  0
  182.7520  179.6320  138.8910 C   0  0  0  0  0  0  0  0  0  0  0  0
  188.5000  176.1960  137.4470 C   0  0  2  0  0  3  0  0  0  0  0  0
  189.0950  178.6220  137.0730 C   0  0  0  0  0  1  0  0  0  0  0  0
  190.7710  177.0800  138.0390 C   0  0  0  0  0  1  0  0  0  0  0  0
  189.2860  177.4170  137.9870 C   0  0  0  0  0  0  0  0  0  0  0  0
  188.8010  177.7410  139.4090 C   0  0  0  0  0  2  0  0  0  0  0  0
  189.8020  177.3770  140.5060 C   0  0  0  0  0  2  0  0  0  0  0  0
  186.3800  177.4360  145.6360 C   0  0  2  0  0  3  0  0  0  0  0  0
  188.7790  177.3330  144.1120 C   0  0  0  0  0  0  0  0  0  0  0  0
  185.3060  177.9880  146.3070 F   0  0  0  0  0  0  0  0  0  0  0  0
  187.6860  177.8800  146.2960 C   0  0  0  0  0  2  0  0  0  0  0  0
  187.8670  177.6200  142.0450 C   0  0  0  0  0  3  0  0  0  0  0  0
  186.3440  177.8710  144.1670 C   0  0  0  0  0  2  0  0  0  0  0  0
  189.1630  177.4040  141.8540 C   0  0  0  0  0  0  0  0  0  0  0  0
  188.8850  177.2190  145.6070 C   0  0  0  0  0  2  0  0  0  0  0  0
  187.6360  177.5500  143.4770 C   0  0  0  0  0  0  0  0  0  0  0  0
  189.8970  177.1560  143.1380 C   0  0  2  0  0  3  0  0  0  0  0  0
  191.7500  175.6730  143.9050 C   0  0  0  0  0  1  0  0  0  0  0  0
  190.4250  175.7280  143.1690 C   0  0  0  0  0  2  0  0  0  0  0  0
  189.5800  174.0540  137.4910 O   0  0  0  0  0  1  0  0  0  0  0  0
  189.3680  175.1800  136.6970 C   0  0  0  0  0  2  0  0  0  0  0  0
  187.0340  175.7290  135.0440 S   0  0  0  0  0  0  0  0  0  0  0  0
  185.5040  174.8900  135.5540 C   0  0  0  0  0  2  0  0  0  0  0  0
  187.0040  173.0860  135.1480 O   0  0  0  0  0  1  0  0  0  0  0  0
  185.7160  173.3860  135.5930 C   0  0  1  0  0  3  0  0  0  0  0  0
  186.4220  173.0380  137.8480 O   0  0  0  0  0  0  0  0  0  0  0  0
  185.5240  172.8620  136.9820 C   0  0  0  0  0  0  0  0  0  0  0  0
  184.3210  172.1830  137.3520 N   0  0  0  0  0  2  0  0  0  0  0  0
  182.0400  171.8010  137.1200 O   0  0  0  0  0  1  0  0  0  0  0  0
  183.4910  170.7160  135.7420 O   0  0  0  0  0  1  0  0  0  0  0  0
  183.2400  171.9100  136.4180 C   0  0  0  0  0  3  0  0  0  0  0  0
  1 32  1  6  0  0  0
  1 12  1  0  0  0  0
  1  2  1  0  0  0  0
  4  8  1  0  0  0  0
  5  6  1  0  0  0  0
  6 11  1  6  0  0  0
  6  8  1  0  0  0  0
  7  2  1  1  0  0  0
  7  5  1  0  0  0  0
  7  4  1  0  0  0  0
  8  3  2  0  0  0  0
  9 11  1  0  0  0  0
 10 11  2  0  0  0  0
 12 31  1  6  0  0  0
 12 15  1  0  0  0  0
 13 15  1  0  0  0  0
 15 14  1  0  0  0  0
 15 16  1  0  0  0  0
 16 17  1  0  0  0  0
 17 24  1  0  0  0  0
 18 21  1  0  0  0  0
 18 20  1  1  0  0  0
 19 25  1  0  0  0  0
 22 26  1  0  0  0  0
 23 18  1  0  0  0  0
 24 22  2  0  0  0  0
 24 27  1  0  0  0  0
 25 21  1  0  0  0  0
 26 19  2  0  0  0  0
 26 23  1  0  0  0  0
 27 29  1  6  0  0  0
 27 19  1  0  0  0  0
 29 28  1  0  0  0  0
 31 30  1  0  0  0  0
 32 33  1  0  0  0  0
 33 35  1  0  0  0  0
 35 34  1  1  0  0  0
 35 37  1  0  0  0  0
 37 38  1  0  0  0  0
 37 36  2  0  0  0  0
 40 41  1  0  0  0  0
 41 39  1  0  0  0  0
 41 38  1  0  0  0  0
M  END
>  <MODEL>
1

>  <REMARK>
 VINA RESULT:      -7.4      0.000      0.000
  Name = 
  15 active torsions:
  status: ('A' for Active; 'I' for Inactive)
    1  A    between atoms: N_5  and  C_9
    2  A    between atoms: N_5  and  C_26
    3  A    between atoms: C_9  and  C_10
    4  A    between atoms: C_9  and  S_33
    5  A    between atoms: C_10  and  C_27
    6  A    between atoms: C_10  and  C_35
    7  A    between atoms: C_12  and  C_22
    8  A    between atoms: C_23  and  C_35
    9  A    between atoms: C_23  and  C_41
   10  A    between atoms: C_28  and  C_29
   11  A    between atoms: C_28  and  S_33
   12  A    between atoms: C_29  and  C_32
   13  A    between atoms: C_31  and  C_41
   14  A    between atoms: N_34  and  C_39
   15  A    between atoms: C_38  and  C_40
                            x       y       z     vdW  Elec       q    Type
                         _______ _______ _______ _____ _____    ______ ____

>  <TORSDO>
F 15

$$$$
=
 OpenBabel11062415183D

 41 43  0  0  1  0  0  0  0  0999 V2000
  183.4940  177.7700  137.7980 C   0  0  1  0  0  3  0  0  0  0  0  0
  184.7370  177.8460  137.0230 N   0  0  0  0  0  2  0  0  0  0  0  0
  188.8840  179.4910  137.2260 N   0  0  0  0  0  2  0  0  0  0  0  0
  186.6940  178.8930  137.7960 O   0  0  0  0  0  0  0  0  0  0  0  0
  186.7890  176.5680  137.4070 C   0  0  0  0  0  2  0  0  0  0  0  0
  188.1870  177.1450  137.1790 C   0  0  1  0  0  3  0  0  0  0  0  0
  185.9010  177.7230  137.8920 C   0  0  2  0  0  3  0  0  0  0  0  0
  187.9760  178.5900  137.4030 C   0  0  0  0  0  0  0  0  0  0  0  0
  190.1780  175.7420  137.7810 O   0  0  0  0  0  0  0  0  0  0  0  0
  189.0160  176.8770  139.3970 O   0  0  0  0  0  1  0  0  0  0  0  0
  189.1460  176.5840  138.1810 C   0  0  0  0  0  0  0  0  0  0  0  0
  183.4040  178.8780  138.8690 C   0  0  2  0  0  3  0  0  0  0  0  0
  183.0970  176.8170  140.2950 C   0  0  0  0  0  1  0  0  0  0  0  0
  181.8990  178.9010  140.8770 C   0  0  0  0  0  1  0  0  0  0  0  0
  183.1950  178.3370  140.3060 C   0  0  0  0  0  0  0  0  0  0  0  0
  184.3660  178.7930  141.1920 C   0  0  0  0  0  2  0  0  0  0  0  0
  184.3490  178.1960  142.6000 C   0  0  0  0  0  2  0  0  0  0  0  0
  190.3360  177.9150  144.0530 C   0  0  2  0  0  3  0  0  0  0  0  0
  187.5370  177.6980  144.5090 C   0  0  0  0  0  0  0  0  0  0  0  0
  191.6080  177.5420  143.6630 F   0  0  0  0  0  0  0  0  0  0  0  0
  189.8460  176.9900  145.1680 C   0  0  0  0  0  2  0  0  0  0  0  0
  186.8250  178.1510  142.3930 C   0  0  0  0  0  3  0  0  0  0  0  0
  189.3920  177.8530  142.8480 C   0  0  0  0  0  2  0  0  0  0  0  0
  185.7320  178.0400  143.1390 C   0  0  0  0  0  0  0  0  0  0  0  0
  188.4650  177.4340  145.6610 C   0  0  0  0  0  2  0  0  0  0  0  0
  187.9590  177.9540  143.2780 C   0  0  0  0  0  0  0  0  0  0  0  0
  186.0480  177.7760  144.5820 C   0  0  2  0  0  3  0  0  0  0  0  0
  185.2570  178.4930  146.8350 C   0  0  0  0  0  1  0  0  0  0  0  0
  185.6070  178.9570  145.4350 C   0  0  0  0  0  2  0  0  0  0  0  0
  182.9940  181.2390  138.7370 O   0  0  0  0  0  1  0  0  0  0  0  0
  182.4270  179.9920  138.4770 C   0  0  0  0  0  2  0  0  0  0  0  0
  182.0040  177.5910  136.7430 S   0  0  0  0  0  0  0  0  0  0  0  0
  182.6040  176.0550  135.9780 C   0  0  0  0  0  2  0  0  0  0  0  0
  181.2980  174.9970  137.6640 O   0  0  0  0  0  1  0  0  0  0  0  0
  182.4990  174.9020  136.9600 C   0  0  1  0  0  3  0  0  0  0  0  0
  181.5240  173.1050  135.7270 O   0  0  0  0  0  0  0  0  0  0  0  0
  182.5660  173.5890  136.2440 C   0  0  0  0  0  0  0  0  0  0  0  0
  183.8020  172.8830  136.1140 N   0  0  0  0  0  2  0  0  0  0  0  0
  186.1220  172.8000  135.9940 O   0  0  0  0  0  1  0  0  0  0  0  0
  185.1230  172.9530  138.0330 O   0  0  0  0  0  1  0  0  0  0  0  0
  185.0510  173.3490  136.6970 C   0  0  0  0  0  3  0  0  0  0  0  0
  1 32  1  6  0  0  0
  1 12  1  0  0  0  0
  2  1  1  0  0  0  0
  3  8  2  0  0  0  0
  4  7  1  0  0  0  0
  5  7  1  0  0  0  0
  6  8  1  0  0  0  0
  6  5  1  0  0  0  0
  6 11  1  1  0  0  0
  7  2  1  6  0  0  0
  8  4  1  0  0  0  0
  9 11  2  0  0  0  0
 11 10  1  0  0  0  0
 12 31  1  6  0  0  0
 12 15  1  0  0  0  0
 13 15  1  0  0  0  0
 15 14  1  0  0  0  0
 15 16  1  0  0  0  0
 16 17  1  0  0  0  0
 17 24  1  0  0  0  0
 18 20  1  6  0  0  0
 18 21  1  0  0  0  0
 19 27  1  0  0  0  0
 19 25  1  0  0  0  0
 21 25  1  0  0  0  0
 22 24  2  0  0  0  0
 22 26  1  0  0  0  0
 23 26  1  0  0  0  0
 23 18  1  0  0  0  0
 24 27  1  0  0  0  0
 26 19  2  0  0  0  0
 27 29  1  1  0  0  0
 29 28  1  0  0  0  0
 31 30  1  0  0  0  0
 33 32  1  0  0  0  0
 33 35  1  0  0  0  0
 35 34  1  6  0  0  0
 36 37  2  0  0  0  0
 37 35  1  0  0  0  0
 38 37  1  0  0  0  0
 38 41  1  0  0  0  0
 39 41  1  0  0  0  0
 41 40  1  0  0  0  0
M  END
>  <MODEL>
2

>  <REMARK>
 VINA RESULT:      -7.2      2.203      5.245
  Name = 
  15 active torsions:
  status: ('A' for Active; 'I' for Inactive)
    1  A    between atoms: N_5  and  C_9
    2  A    between atoms: N_5  and  C_26
    3  A    between atoms: C_9  and  C_10
    4  A    between atoms: C_9  and  S_33
    5  A    between atoms: C_10  and  C_27
    6  A    between atoms: C_10  and  C_35
    7  A    between atoms: C_12  and  C_22
    8  A    between atoms: C_23  and  C_35
    9  A    between atoms: C_23  and  C_41
   10  A    between atoms: C_28  and  C_29
   11  A    between atoms: C_28  and  S_33
   12  A    between atoms: C_29  and  C_32
   13  A    between atoms: C_31  and  C_41
   14  A    between atoms: N_34  and  C_39
   15  A    between atoms: C_38  and  C_40
                            x       y       z     vdW  Elec       q    Type
                         _______ _______ _______ _____ _____    ______ ____

>  <TORSDO>
F 15

$$$$
=
 OpenBabel11062415183D

 41 43  0  0  1  0  0  0  0  0999 V2000
  188.9850  177.8700  139.2360 C   0  0  1  0  0  3  0  0  0  0  0  0
  187.6330  177.4510  139.6190 N   0  0  0  0  0  2  0  0  0  0  0  0
  184.1480  178.8010  142.0640 N   0  0  0  0  0  2  0  0  0  0  0  0
  186.2180  178.7510  140.9720 O   0  0  0  0  0  0  0  0  0  0  0  0
  185.5080  178.3150  138.7650 C   0  0  0  0  0  2  0  0  0  0  0  0
  184.2650  178.4860  139.6390 C   0  0  1  0  0  3  0  0  0  0  0  0
  186.7250  178.5910  139.6600 C   0  0  2  0  0  3  0  0  0  0  0  0
  184.8440  178.6990  140.9810 C   0  0  0  0  0  0  0  0  0  0  0  0
  184.1350  180.8550  138.8250 O   0  0  0  0  0  0  0  0  0  0  0  0
  182.2290  179.6310  139.1660 O   0  0  0  0  0  1  0  0  0  0  0  0
  183.4850  179.6840  139.1980 C   0  0  0  0  0  0  0  0  0  0  0  0
  190.0740  176.9570  139.8400 C   0  0  2  0  0  3  0  0  0  0  0  0
  189.8190  178.6560  141.6900 C   0  0  0  0  0  1  0  0  0  0  0  0
  191.9900  177.5190  141.3580 C   0  0  0  0  0  1  0  0  0  0  0  0
  190.4780  177.3430  141.2850 C   0  0  0  0  0  0  0  0  0  0  0  0
  190.0630  176.2160  142.2430 C   0  0  0  0  0  2  0  0  0  0  0  0
  190.4940  176.4430  143.6940 C   0  0  0  0  0  2  0  0  0  0  0  0
  185.2730  178.1000  146.5290 C   0  0  2  0  0  3  0  0  0  0  0  0
  188.0870  177.8320  146.2100 C   0  0  0  0  0  0  0  0  0  0  0  0
  184.0130  178.6500  146.4080 F   0  0  0  0  0  0  0  0  0  0  0  0
  186.1900  179.0670  147.2790 C   0  0  0  0  0  2  0  0  0  0  0  0
  188.0950  176.9380  144.1150 C   0  0  0  0  0  3  0  0  0  0  0  0
  185.8350  177.7950  145.1370 C   0  0  0  0  0  2  0  0  0  0  0  0
  189.3590  176.9440  144.5240 C   0  0  0  0  0  0  0  0  0  0  0  0
  187.5740  178.4410  147.4850 C   0  0  0  0  0  2  0  0  0  0  0  0
  187.3010  177.4820  145.2020 C   0  0  0  0  0  0  0  0  0  0  0  0
  189.5070  177.4770  145.9180 C   0  0  2  0  0  3  0  0  0  0  0  0
  191.4500  176.5950  147.2090 C   0  0  0  0  0  1  0  0  0  0  0  0
  189.9940  176.3730  146.8470 C   0  0  0  0  0  2  0  0  0  0  0  0
  191.4440  175.4060  138.6240 O   0  0  0  0  0  1  0  0  0  0  0  0
  191.2640  176.7620  138.8930 C   0  0  0  0  0  2  0  0  0  0  0  0
  189.1520  178.1890  137.4370 S   0  0  0  0  0  0  0  0  0  0  0  0
  188.3870  176.6040  136.9820 C   0  0  0  0  0  2  0  0  0  0  0  0
  188.0640  177.6450  134.8650 O   0  0  0  0  0  1  0  0  0  0  0  0
  187.4650  176.7880  135.7890 C   0  0  1  0  0  3  0  0  0  0  0  0
  188.0970  174.8200  134.5940 O   0  0  0  0  0  0  0  0  0  0  0  0
  187.1690  175.4710  135.1420 C   0  0  0  0  0  0  0  0  0  0  0  0
  185.8470  174.9240  135.1570 N   0  0  0  0  0  2  0  0  0  0  0  0
  184.6230  175.2930  137.0980 O   0  0  0  0  0  1  0  0  0  0  0  0
  183.5360  175.2120  135.1000 O   0  0  0  0  0  1  0  0  0  0  0  0
  184.7070  175.6120  135.7430 C   0  0  0  0  0  3  0  0  0  0  0  0
  1 32  1  6  0  0  0
  1  2  1  0  0  0  0
  1 12  1  0  0  0  0
  4  8  1  0  0  0  0
  5  6  1  0  0  0  0
  5  7  1  0  0  0  0
  6 11  1  6  0  0  0
  6  8  1  0  0  0  0
  7  2  1  1  0  0  0
  7  4  1  0  0  0  0
  8  3  2  0  0  0  0
  9 11  2  0  0  0  0
 10 11  1  0  0  0  0
 12 31  1  6  0  0  0
 12 15  1  0  0  0  0
 15 14  1  0  0  0  0
 15 13  1  0  0  0  0
 15 16  1  0  0  0  0
 16 17  1  0  0  0  0
 17 24  1  0  0  0  0
 18 20  1  6  0  0  0
 18 21  1  0  0  0  0
 19 25  1  0  0  0  0
 21 25  1  0  0  0  0
 22 24  2  0  0  0  0
 22 26  1  0  0  0  0
 23 26  1  0  0  0  0
 23 18  1  0  0  0  0
 24 27  1  0  0  0  0
 26 19  2  0  0  0  0
 27 19  1  0  0  0  0
 27 29  1  1  0  0  0
 29 28  1  0  0  0  0
 30 31  1  0  0  0  0
 33 32  1  0  0  0  0
 35 34  1  6  0  0  0
 35 33  1  0  0  0  0
 36 37  2  0  0  0  0
 37 38  1  0  0  0  0
 37 35  1  0  0  0  0
 38 41  1  0  0  0  0
 40 41  1  0  0  0  0
 41 39  1  0  0  0  0
M  END
>  <MODEL>
3

>  <REMARK>
 VINA RESULT:      -7.1      2.081      3.032
  Name = 
  15 active torsions:
  status: ('A' for Active; 'I' for Inactive)
    1  A    between atoms: N_5  and  C_9
    2  A    between atoms: N_5  and  C_26
    3  A    between atoms: C_9  and  C_10
    4  A    between atoms: C_9  and  S_33
    5  A    between atoms: C_10  and  C_27
    6  A    between atoms: C_10  and  C_35
    7  A    between atoms: C_12  and  C_22
    8  A    between atoms: C_23  and  C_35
    9  A    between atoms: C_23  and  C_41
   10  A    between atoms: C_28  and  C_29
   11  A    between atoms: C_28  and  S_33
   12  A    between atoms: C_29  and  C_32
   13  A    between atoms: C_31  and  C_41
   14  A    between atoms: N_34  and  C_39
   15  A    between atoms: C_38  and  C_40
                            x       y       z     vdW  Elec       q    Type
                         _______ _______ _______ _____ _____    ______ ____

>  <TORSDO>
F 15

$$$$
=
 OpenBabel11062415183D

 41 43  0  0  1  0  0  0  0  0999 V2000
  189.5700  177.6940  140.4230 C   0  0  1  0  0  3  0  0  0  0  0  0
  188.5350  178.7330  140.4000 N   0  0  0  0  0  2  0  0  0  0  0  0
  184.3090  179.7910  139.4150 N   0  0  0  0  0  2  0  0  0  0  0  0
  186.3350  178.6300  139.5790 O   0  0  0  0  0  0  0  0  0  0  0  0
  186.6190  178.6250  141.9200 C   0  0  0  0  0  2  0  0  0  0  0  0
  185.2670  179.2700  141.6070 C   0  0  1  0  0  3  0  0  0  0  0  0
  187.2100  178.1520  140.5840 C   0  0  2  0  0  3  0  0  0  0  0  0
  185.2410  179.2540  140.1300 C   0  0  0  0  0  0  0  0  0  0  0  0
  183.6590  178.6900  143.4430 O   0  0  0  0  0  1  0  0  0  0  0  0
  183.6730  177.5040  141.4830 O   0  0  0  0  0  0  0  0  0  0  0  0
  184.1580  178.4390  142.1690 C   0  0  0  0  0  0  0  0  0  0  0  0
  189.8420  177.1700  141.8500 C   0  0  2  0  0  3  0  0  0  0  0  0
  192.2190  177.5080  141.0700 C   0  0  0  0  0  1  0  0  0  0  0  0
  191.7550  176.0010  142.9760 C   0  0  0  0  0  1  0  0  0  0  0  0
  191.3240  177.2890  142.2840 C   0  0  0  0  0  0  0  0  0  0  0  0
  191.4680  178.4560  143.2740 C   0  0  0  0  0  2  0  0  0  0  0  0
  191.6650  178.0190  144.7260 C   0  0  0  0  0  2  0  0  0  0  0  0
  185.9120  177.8660  146.9450 C   0  0  2  0  0  3  0  0  0  0  0  0
  188.7520  177.7550  147.0710 C   0  0  0  0  0  0  0  0  0  0  0  0
  184.6470  178.4200  146.9260 F   0  0  0  0  0  0  0  0  0  0  0  0
  186.5990  178.1910  148.2720 C   0  0  0  0  0  2  0  0  0  0  0  0
  189.1950  178.2440  144.8910 C   0  0  0  0  0  3  0  0  0  0  0  0
  186.7280  178.4120  145.7690 C   0  0  0  0  0  2  0  0  0  0  0  0
  190.3650  177.9760  145.4600 C   0  0  0  0  0  0  0  0  0  0  0  0
  187.9770  177.5230  148.3380 C   0  0  0  0  0  2  0  0  0  0  0  0
  188.1830  178.0780  145.9180 C   0  0  0  0  0  0  0  0  0  0  0  0
  190.2270  177.5950  146.9040 C   0  0  2  0  0  3  0  0  0  0  0  0
  192.0470  176.0710  147.6670 C   0  0  0  0  0  1  0  0  0  0  0  0
  190.6430  176.1430  147.1010 C   0  0  0  0  0  2  0  0  0  0  0  0
  188.3650  175.8220  143.1790 O   0  0  0  0  0  1  0  0  0  0  0  0
  189.2340  175.7830  142.0890 C   0  0  0  0  0  2  0  0  0  0  0  0
  189.3030  176.3920  139.1590 S   0  0  0  0  0  0  0  0  0  0  0  0
  190.4560  177.1570  137.9790 C   0  0  0  0  0  2  0  0  0  0  0  0
  191.3790  174.9890  138.3160 O   0  0  0  0  0  1  0  0  0  0  0  0
  191.5770  176.1920  137.6370 C   0  0  1  0  0  3  0  0  0  0  0  0
  190.5580  175.9100  135.4970 O   0  0  0  0  0  0  0  0  0  0  0  0
  191.6270  175.9410  136.1620 C   0  0  0  0  0  0  0  0  0  0  0  0
  192.8740  175.7590  135.4880 N   0  0  0  0  0  2  0  0  0  0  0  0
  194.7250  177.0250  136.1010 O   0  0  0  0  0  1  0  0  0  0  0  0
  195.0100  174.8310  135.5690 O   0  0  0  0  0  1  0  0  0  0  0  0
  194.1570  175.7540  136.1740 C   0  0  0  0  0  3  0  0  0  0  0  0
  1 32  1  6  0  0  0
  1 12  1  0  0  0  0
  2  1  1  0  0  0  0
  3  8  2  0  0  0  0
  4  8  1  0  0  0  0
  4  7  1  0  0  0  0
  6  5  1  0  0  0  0
  6 11  1  1  0  0  0
  7  2  1  6  0  0  0
  7  5  1  0  0  0  0
  8  6  1  0  0  0  0
 10 11  2  0  0  0  0
 11  9  1  0  0  0  0
 12 31  1  6  0  0  0
 12 15  1  0  0  0  0
 13 15  1  0  0  0  0
 15 14  1  0  0  0  0
 15 16  1  0  0  0  0
 16 17  1  0  0  0  0
 17 24  1  0  0  0  0
 18 20  1  1  0  0  0
 18 21  1  0  0  0  0
 19 25  1  0  0  0  0
 21 25  1  0  0  0  0
 22 24  2  0  0  0  0
 22 26  1  0  0  0  0
 23 26  1  0  0  0  0
 23 18  1  0  0  0  0
 24 27  1  0  0  0  0
 26 19  2  0  0  0  0
 27 19  1  0  0  0  0
 27 29  1  6  0  0  0
 29 28  1  0  0  0  0
 31 30  1  0  0  0  0
 33 32  1  0  0  0  0
 35 33  1  0  0  0  0
 35 34  1  1  0  0  0
 36 37  2  0  0  0  0
 37 35  1  0  0  0  0
 38 37  1  0  0  0  0
 38 41  1  0  0  0  0
 39 41  1  0  0  0  0
 40 41  1  0  0  0  0
M  END
>  <MODEL>
4

>  <REMARK>
 VINA RESULT:      -7.1      3.817      5.498
  Name = 
  15 active torsions:
  status: ('A' for Active; 'I' for Inactive)
    1  A    between atoms: N_5  and  C_9
    2  A    between atoms: N_5  and  C_26
    3  A    between atoms: C_9  and  C_10
    4  A    between atoms: C_9  and  S_33
    5  A    between atoms: C_10  and  C_27
    6  A    between atoms: C_10  and  C_35
    7  A    between atoms: C_12  and  C_22
    8  A    between atoms: C_23  and  C_35
    9  A    between atoms: C_23  and  C_41
   10  A    between atoms: C_28  and  C_29
   11  A    between atoms: C_28  and  S_33
   12  A    between atoms: C_29  and  C_32
   13  A    between atoms: C_31  and  C_41
   14  A    between atoms: N_34  and  C_39
   15  A    between atoms: C_38  and  C_40
                            x       y       z     vdW  Elec       q    Type
                         _______ _______ _______ _____ _____    ______ ____

>  <TORSDO>
F 15

$$$$
=
 OpenBabel11062415183D

 41 43  0  0  1  0  0  0  0  0999 V2000
  189.5970  177.8540  140.3850 C   0  0  1  0  0  3  0  0  0  0  0  0
  188.5220  178.8520  140.3770 N   0  0  0  0  0  2  0  0  0  0  0  0
  184.2400  179.7410  139.4740 N   0  0  0  0  0  2  0  0  0  0  0  0
  186.3110  178.6600  139.6010 O   0  0  0  0  0  0  0  0  0  0  0  0
  186.6440  178.6810  141.9360 C   0  0  0  0  0  2  0  0  0  0  0  0
  185.2620  179.2710  141.6480 C   0  0  1  0  0  3  0  0  0  0  0  0
  187.2250  178.2220  140.5910 C   0  0  2  0  0  3  0  0  0  0  0  0
  185.2060  179.2460  140.1720 C   0  0  0  0  0  0  0  0  0  0  0  0
  183.2860  177.7420  141.4190 O   0  0  0  0  0  0  0  0  0  0  0  0
  184.1250  178.2670  143.4850 O   0  0  0  0  0  1  0  0  0  0  0  0
  184.1970  178.4020  142.2380 C   0  0  0  0  0  0  0  0  0  0  0  0
  189.8410  177.2680  141.7930 C   0  0  2  0  0  3  0  0  0  0  0  0
  192.2310  177.5810  141.0410 C   0  0  0  0  0  1  0  0  0  0  0  0
  191.7140  175.9790  142.8530 C   0  0  0  0  0  1  0  0  0  0  0  0
  191.3240  177.3180  142.2370 C   0  0  0  0  0  0  0  0  0  0  0  0
  191.4980  178.4200  143.2940 C   0  0  0  0  0  2  0  0  0  0  0  0
  191.6800  177.8920  144.7190 C   0  0  0  0  0  2  0  0  0  0  0  0
  185.9440  177.8710  146.9860 C   0  0  2  0  0  3  0  0  0  0  0  0
  188.7830  177.7290  147.0930 C   0  0  0  0  0  0  0  0  0  0  0  0
  184.6860  178.4390  146.9610 F   0  0  0  0  0  0  0  0  0  0  0  0
  186.6460  178.2250  148.2980 C   0  0  0  0  0  2  0  0  0  0  0  0
  189.2140  178.1520  144.8970 C   0  0  0  0  0  3  0  0  0  0  0  0
  186.7570  178.3730  145.7880 C   0  0  0  0  0  2  0  0  0  0  0  0
  190.3860  177.8860  145.4630 C   0  0  0  0  0  0  0  0  0  0  0  0
  188.0160  177.5430  148.3720 C   0  0  0  0  0  2  0  0  0  0  0  0
  188.2080  178.0270  145.9360 C   0  0  0  0  0  0  0  0  0  0  0  0
  190.2540  177.5470  146.9180 C   0  0  2  0  0  3  0  0  0  0  0  0
  192.0610  176.0250  147.7170 C   0  0  0  0  0  1  0  0  0  0  0  0
  190.6550  176.0970  147.1530 C   0  0  0  0  0  2  0  0  0  0  0  0
  188.3300  175.9190  143.0800 O   0  0  0  0  0  1  0  0  0  0  0  0
  189.1830  175.8960  141.9770 C   0  0  0  0  0  2  0  0  0  0  0  0
  189.4250  176.6090  139.0480 S   0  0  0  0  0  0  0  0  0  0  0  0
  189.5800  177.8520  137.7300 C   0  0  0  0  0  2  0  0  0  0  0  0
  187.9280  179.3090  136.8270 O   0  0  0  0  0  1  0  0  0  0  0  0
  188.2780  177.9640  136.9570 C   0  0  1  0  0  3  0  0  0  0  0  0
  189.3400  177.7100  134.8340 O   0  0  0  0  0  0  0  0  0  0  0  0
  188.4130  177.3420  135.6020 C   0  0  0  0  0  0  0  0  0  0  0  0
  187.5170  176.3130  135.1720 N   0  0  0  0  0  2  0  0  0  0  0  0
  186.8580  174.8730  136.8730 O   0  0  0  0  0  1  0  0  0  0  0  0
  185.4280  175.2810  135.1510 O   0  0  0  0  0  1  0  0  0  0  0  0
  186.4030  175.8400  135.9780 C   0  0  0  0  0  3  0  0  0  0  0  0
  1 32  1  6  0  0  0
  1 12  1  0  0  0  0
  2  1  1  0  0  0  0
  3  8  2  0  0  0  0
  4  8  1  0  0  0  0
  4  7  1  0  0  0  0
  6  5  1  0  0  0  0
  6 11  1  1  0  0  0
  7  2  1  6  0  0  0
  7  5  1  0  0  0  0
  8  6  1  0  0  0  0
  9 11  2  0  0  0  0
 11 10  1  0  0  0  0
 12 31  1  6  0  0  0
 12 15  1  0  0  0  0
 13 15  1  0  0  0  0
 15 14  1  0  0  0  0
 15 16  1  0  0  0  0
 16 17  1  0  0  0  0
 17 24  1  0  0  0  0
 18 20  1  1  0  0  0
 18 21  1  0  0  0  0
 19 25  1  0  0  0  0
 21 25  1  0  0  0  0
 22 24  2  0  0  0  0
 22 26  1  0  0  0  0
 23 26  1  0  0  0  0
 23 18  1  0  0  0  0
 24 27  1  0  0  0  0
 26 19  2  0  0  0  0
 27 19  1  0  0  0  0
 27 29  1  6  0  0  0
 29 28  1  0  0  0  0
 31 30  1  0  0  0  0
 33 32  1  0  0  0  0
 35 34  1  6  0  0  0
 35 33  1  0  0  0  0
 36 37  2  0  0  0  0
 37 35  1  0  0  0  0
 38 37  1  0  0  0  0
 38 41  1  0  0  0  0
 40 41  1  0  0  0  0
 41 39  1  0  0  0  0
M  END
>  <MODEL>
5

>  <REMARK>
 VINA RESULT:      -7.0      2.603      4.348
  Name = 
  15 active torsions:
  status: ('A' for Active; 'I' for Inactive)
    1  A    between atoms: N_5  and  C_9
    2  A    between atoms: N_5  and  C_26
    3  A    between atoms: C_9  and  C_10
    4  A    between atoms: C_9  and  S_33
    5  A    between atoms: C_10  and  C_27
    6  A    between atoms: C_10  and  C_35
    7  A    between atoms: C_12  and  C_22
    8  A    between atoms: C_23  and  C_35
    9  A    between atoms: C_23  and  C_41
   10  A    between atoms: C_28  and  C_29
   11  A    between atoms: C_28  and  S_33
   12  A    between atoms: C_29  and  C_32
   13  A    between atoms: C_31  and  C_41
   14  A    between atoms: N_34  and  C_39
   15  A    between atoms: C_38  and  C_40
                            x       y       z     vdW  Elec       q    Type
                         _______ _______ _______ _____ _____    ______ ____

>  <TORSDO>
F 15

$$$$
=
 OpenBabel11062415183D

 41 43  0  0  1  0  0  0  0  0999 V2000
  188.5000  175.2960  137.1290 C   0  0  1  0  0  3  0  0  0  0  0  0
  189.6910  174.4820  137.3910 N   0  0  0  0  0  2  0  0  0  0  0  0
  193.4290  173.2470  135.2810 N   0  0  0  0  0  2  0  0  0  0  0  0
  191.4270  174.3360  135.8120 O   0  0  0  0  0  0  0  0  0  0  0  0
  191.9710  175.1800  137.9460 C   0  0  0  0  0  2  0  0  0  0  0  0
  193.2150  174.5010  137.3730 C   0  0  1  0  0  3  0  0  0  0  0  0
  190.8880  175.1230  136.8590 C   0  0  2  0  0  3  0  0  0  0  0  0
  192.7280  173.9810  136.0790 C   0  0  0  0  0  0  0  0  0  0  0  0
  195.6390  175.1160  137.1690 O   0  0  0  0  0  1  0  0  0  0  0  0
  194.0080  176.7160  136.9970 O   0  0  0  0  0  0  0  0  0  0  0  0
  194.3040  175.5060  137.1690 C   0  0  0  0  0  0  0  0  0  0  0  0
  188.8520  176.7730  136.8450 C   0  0  2  0  0  3  0  0  0  0  0  0
  186.9430  178.1770  137.7190 C   0  0  0  0  0  1  0  0  0  0  0  0
  189.2700  178.9890  137.9450 C   0  0  0  0  0  1  0  0  0  0  0  0
  188.3860  177.7470  137.9560 C   0  0  0  0  0  0  0  0  0  0  0  0
  188.5210  177.0550  139.3230 C   0  0  0  0  0  2  0  0  0  0  0  0
  189.3920  177.8180  140.3220 C   0  0  0  0  0  2  0  0  0  0  0  0
  186.2530  177.4760  145.6200 C   0  0  2  0  0  3  0  0  0  0  0  0
  188.5670  177.5120  143.9660 C   0  0  0  0  0  0  0  0  0  0  0  0
  185.2120  177.9650  146.3840 F   0  0  0  0  0  0  0  0  0  0  0  0
  187.5880  177.8930  146.2380 C   0  0  0  0  0  2  0  0  0  0  0  0
  187.5410  177.9280  141.9760 C   0  0  0  0  0  3  0  0  0  0  0  0
  186.1330  178.0100  144.1890 C   0  0  0  0  0  2  0  0  0  0  0  0
  188.8270  177.7430  141.7020 C   0  0  0  0  0  0  0  0  0  0  0  0
  188.7550  177.2990  145.4420 C   0  0  0  0  0  2  0  0  0  0  0  0
  187.3890  177.7560  143.4090 C   0  0  0  0  0  0  0  0  0  0  0  0
  189.6330  177.4200  142.9240 C   0  0  2  0  0  3  0  0  0  0  0  0
  191.4960  175.8920  143.5670 C   0  0  0  0  0  1  0  0  0  0  0  0
  190.1770  176.0010  142.8280 C   0  0  0  0  0  2  0  0  0  0  0  0
  189.5820  177.5920  134.7110 O   0  0  0  0  0  1  0  0  0  0  0  0
  188.4520  177.2080  135.4310 C   0  0  0  0  0  2  0  0  0  0  0  0
  187.3600  174.5260  135.9160 S   0  0  0  0  0  0  0  0  0  0  0  0
  185.8870  174.8780  136.9220 C   0  0  0  0  0  2  0  0  0  0  0  0
  185.6310  172.8710  138.1760 O   0  0  0  0  0  1  0  0  0  0  0  0
  185.0770  173.6110  137.1310 C   0  0  1  0  0  3  0  0  0  0  0  0
  183.3830  174.9370  138.1660 O   0  0  0  0  0  0  0  0  0  0  0  0
  183.6510  173.9410  137.4430 C   0  0  0  0  0  0  0  0  0  0  0  0
  182.5800  173.1560  136.9120 N   0  0  0  0  0  2  0  0  0  0  0  0
  181.6410  171.7250  135.3400 O   0  0  0  0  0  1  0  0  0  0  0  0
  183.0590  170.8750  136.9040 O   0  0  0  0  0  1  0  0  0  0  0  0
  182.7900  171.9750  136.0890 C   0  0  0  0  0  3  0  0  0  0  0  0
  1 32  1  6  0  0  0
  1  2  1  0  0  0  0
  3  8  2  0  0  0  0
  4  8  1  0  0  0  0
  4  7  1  0  0  0  0
  6 11  1  6  0  0  0
  6  5  1  0  0  0  0
  7  2  1  1  0  0  0
  7  5  1  0  0  0  0
  8  6  1  0  0  0  0
 10 11  2  0  0  0  0
 11  9  1  0  0  0  0
 12 31  1  6  0  0  0
 12  1  1  0  0  0  0
 12 15  1  0  0  0  0
 13 15  1  0  0  0  0
 14 15  1  0  0  0  0
 15 16  1  0  0  0  0
 16 17  1  0  0  0  0
 17 24  1  0  0  0  0
 18 21  1  0  0  0  0
 18 20  1  1  0  0  0
 19 25  1  0  0  0  0
 22 26  1  0  0  0  0
 23 18  1  0  0  0  0
 24 22  2  0  0  0  0
 24 27  1  0  0  0  0
 25 21  1  0  0  0  0
 26 19  2  0  0  0  0
 26 23  1  0  0  0  0
 27 29  1  6  0  0  0
 27 19  1  0  0  0  0
 29 28  1  0  0  0  0
 30 31  1  0  0  0  0
 32 33  1  0  0  0  0
 33 35  1  0  0  0  0
 35 37  1  0  0  0  0
 35 34  1  1  0  0  0
 37 36  2  0  0  0  0
 38 37  1  0  0  0  0
 39 41  1  0  0  0  0
 41 40  1  0  0  0  0
 41 38  1  0  0  0  0
M  END
>  <MODEL>
6

>  <REMARK>
 VINA RESULT:      -6.9      2.583      5.241
  Name = 
  15 active torsions:
  status: ('A' for Active; 'I' for Inactive)
    1  A    between atoms: N_5  and  C_9
    2  A    between atoms: N_5  and  C_26
    3  A    between atoms: C_9  and  C_10
    4  A    between atoms: C_9  and  S_33
    5  A    between atoms: C_10  and  C_27
    6  A    between atoms: C_10  and  C_35
    7  A    between atoms: C_12  and  C_22
    8  A    between atoms: C_23  and  C_35
    9  A    between atoms: C_23  and  C_41
   10  A    between atoms: C_28  and  C_29
   11  A    between atoms: C_28  and  S_33
   12  A    between atoms: C_29  and  C_32
   13  A    between atoms: C_31  and  C_41
   14  A    between atoms: N_34  and  C_39
   15  A    between atoms: C_38  and  C_40
                            x       y       z     vdW  Elec       q    Type
                         _______ _______ _______ _____ _____    ______ ____

>  <TORSDO>
F 15

$$$$
=
 OpenBabel11062415183D

 41 43  0  0  1  0  0  0  0  0999 V2000
  190.1650  177.7110  139.2540 C   0  0  1  0  0  3  0  0  0  0  0  0
  189.2130  178.4800  138.4460 N   0  0  0  0  0  2  0  0  0  0  0  0
  186.9530  178.5290  134.5940 N   0  0  0  0  0  2  0  0  0  0  0  0
  188.3840  177.8810  136.3300 O   0  0  0  0  0  0  0  0  0  0  0  0
  186.8640  177.8690  138.1330 C   0  0  0  0  0  2  0  0  0  0  0  0
  186.0830  178.1810  136.8560 C   0  0  1  0  0  3  0  0  0  0  0  0
  188.3150  177.5940  137.7150 C   0  0  2  0  0  3  0  0  0  0  0  0
  187.1450  178.2080  135.8300 C   0  0  0  0  0  0  0  0  0  0  0  0
  185.0770  175.9360  137.3490 O   0  0  0  0  0  1  0  0  0  0  0  0
  184.2800  177.2210  135.6290 O   0  0  0  0  0  0  0  0  0  0  0  0
  185.0970  177.0910  136.5750 C   0  0  0  0  0  0  0  0  0  0  0  0
  189.9440  177.9140  140.7700 C   0  0  2  0  0  3  0  0  0  0  0  0
  192.4340  177.4990  140.8410 C   0  0  0  0  0  1  0  0  0  0  0  0
  190.9040  176.0050  142.0840 C   0  0  0  0  0  1  0  0  0  0  0  0
  191.1370  177.4440  141.6390 C   0  0  0  0  0  0  0  0  0  0  0  0
  191.2370  178.3380  142.8860 C   0  0  0  0  0  2  0  0  0  0  0  0
  191.3960  177.5630  144.1950 C   0  0  0  0  0  2  0  0  0  0  0  0
  185.9000  177.9200  146.9700 C   0  0  2  0  0  3  0  0  0  0  0  0
  188.7390  177.8240  146.8260 C   0  0  0  0  0  0  0  0  0  0  0  0
  184.6300  178.4630  146.9610 F   0  0  0  0  0  0  0  0  0  0  0  0
  186.7110  178.5200  148.1190 C   0  0  0  0  0  2  0  0  0  0  0  0
  188.9520  177.8310  144.5590 C   0  0  0  0  0  3  0  0  0  0  0  0
  186.5830  178.1960  145.6260 C   0  0  0  0  0  2  0  0  0  0  0  0
  190.1780  177.6860  145.0490 C   0  0  0  0  0  0  0  0  0  0  0  0
  188.1000  177.8750  148.1860 C   0  0  0  0  0  2  0  0  0  0  0  0
  188.0510  177.8950  145.6950 C   0  0  0  0  0  0  0  0  0  0  0  0
  190.1920  177.6250  146.5480 C   0  0  2  0  0  3  0  0  0  0  0  0
  191.9600  176.3560  147.7640 C   0  0  0  0  0  1  0  0  0  0  0  0
  190.6510  176.2480  147.0080 C   0  0  0  0  0  2  0  0  0  0  0  0
  187.7180  178.4430  141.4920 O   0  0  0  0  0  1  0  0  0  0  0  0
  188.5860  177.3820  141.2390 C   0  0  0  0  0  2  0  0  0  0  0  0
  190.3040  175.9610  138.7210 S   0  0  0  0  0  0  0  0  0  0  0  0
  191.7850  176.2780  137.7160 C   0  0  0  0  0  2  0  0  0  0  0  0
  192.3050  173.9600  137.5510 O   0  0  0  0  0  1  0  0  0  0  0  0
  192.8220  175.1930  137.9490 C   0  0  1  0  0  3  0  0  0  0  0  0
  194.0090  176.0750  136.0740 O   0  0  0  0  0  0  0  0  0  0  0  0
  194.0760  175.4880  137.1860 C   0  0  0  0  0  0  0  0  0  0  0  0
  195.3580  175.1350  137.7120 N   0  0  0  0  0  2  0  0  0  0  0  0
  196.6320  174.9690  139.6490 O   0  0  0  0  0  1  0  0  0  0  0  0
  195.7580  173.0780  138.7330 O   0  0  0  0  0  1  0  0  0  0  0  0
  195.5360  174.4340  138.9740 C   0  0  0  0  0  3  0  0  0  0  0  0
  1  2  1  6  0  0  0
  1 12  1  0  0  0  0
  3  8  2  0  0  0  0
  4  7  1  0  0  0  0
  6 11  1  6  0  0  0
  6  5  1  0  0  0  0
  7  5  1  0  0  0  0
  7  2  1  1  0  0  0
  8  4  1  0  0  0  0
  8  6  1  0  0  0  0
 10 11  2  0  0  0  0
 11  9  1  0  0  0  0
 12 31  1  1  0  0  0
 12 15  1  0  0  0  0
 13 15  1  0  0  0  0
 15 14  1  0  0  0  0
 15 16  1  0  0  0  0
 16 17  1  0  0  0  0
 17 24  1  0  0  0  0
 18 20  1  6  0  0  0
 18 21  1  0  0  0  0
 19 25  1  0  0  0  0
 21 25  1  0  0  0  0
 22 24  2  0  0  0  0
 22 26  1  0  0  0  0
 23 26  1  0  0  0  0
 23 18  1  0  0  0  0
 24 27  1  0  0  0  0
 26 19  2  0  0  0  0
 27 19  1  0  0  0  0
 27 29  1  6  0  0  0
 29 28  1  0  0  0  0
 31 30  1  0  0  0  0
 32  1  1  0  0  0  0
 33 35  1  0  0  0  0
 33 32  1  0  0  0  0
 35 34  1  6  0  0  0
 36 37  2  0  0  0  0
 37 38  1  0  0  0  0
 37 35  1  0  0  0  0
 38 41  1  0  0  0  0
 40 41  1  0  0  0  0
 41 39  1  0  0  0  0
M  END
>  <MODEL>
7

>  <REMARK>
 VINA RESULT:      -6.9      3.287      6.000
  Name = 
  15 active torsions:
  status: ('A' for Active; 'I' for Inactive)
    1  A    between atoms: N_5  and  C_9
    2  A    between atoms: N_5  and  C_26
    3  A    between atoms: C_9  and  C_10
    4  A    between atoms: C_9  and  S_33
    5  A    between atoms: C_10  and  C_27
    6  A    between atoms: C_10  and  C_35
    7  A    between atoms: C_12  and  C_22
    8  A    between atoms: C_23  and  C_35
    9  A    between atoms: C_23  and  C_41
   10  A    between atoms: C_28  and  C_29
   11  A    between atoms: C_28  and  S_33
   12  A    between atoms: C_29  and  C_32
   13  A    between atoms: C_31  and  C_41
   14  A    between atoms: N_34  and  C_39
   15  A    between atoms: C_38  and  C_40
                            x       y       z     vdW  Elec       q    Type
                         _______ _______ _______ _____ _____    ______ ____

>  <TORSDO>
F 15

$$$$
=
 OpenBabel11062415183D

 41 43  0  0  1  0  0  0  0  0999 V2000
  183.5230  178.4290  141.3720 C   0  0  1  0  0  3  0  0  0  0  0  0
  184.5750  179.0930  140.5960 N   0  0  0  0  0  2  0  0  0  0  0  0
  188.6830  178.9850  138.8470 N   0  0  0  0  0  2  0  0  0  0  0  0
  186.7990  178.4830  140.1420 O   0  0  0  0  0  0  0  0  0  0  0  0
  185.2090  178.1320  138.4360 C   0  0  0  0  0  2  0  0  0  0  0  0
  186.5660  178.3820  137.7770 C   0  0  1  0  0  3  0  0  0  0  0  0
  185.4450  178.1150  139.9540 C   0  0  2  0  0  3  0  0  0  0  0  0
  187.4440  178.6330  138.9380 C   0  0  0  0  0  0  0  0  0  0  0  0
  188.1060  177.2170  136.1740 O   0  0  0  0  0  0  0  0  0  0  0  0
  186.3790  176.0860  137.1680 O   0  0  0  0  0  1  0  0  0  0  0  0
  187.0080  177.1660  137.0270 C   0  0  0  0  0  0  0  0  0  0  0  0
  183.1300  179.2310  142.6320 C   0  0  2  0  0  3  0  0  0  0  0  0
  183.4370  178.9910  145.1270 C   0  0  0  0  0  1  0  0  0  0  0  0
  185.0280  180.3630  143.8190 C   0  0  0  0  0  1  0  0  0  0  0  0
  184.1550  179.1140  143.7880 C   0  0  0  0  0  0  0  0  0  0  0  0
  185.0500  177.8880  143.5450 C   0  0  0  0  0  2  0  0  0  0  0  0
  185.9380  177.5220  144.7360 C   0  0  0  0  0  2  0  0  0  0  0  0
  191.6160  177.5340  142.3300 C   0  0  2  0  0  3  0  0  0  0  0  0
  189.6360  177.0720  144.3180 C   0  0  0  0  0  0  0  0  0  0  0  0
  192.4070  177.2940  141.2230 F   0  0  0  0  0  0  0  0  0  0  0  0
  191.8850  176.4720  143.3970 C   0  0  0  0  0  2  0  0  0  0  0  0
  187.8060  177.6760  143.1050 C   0  0  0  0  0  3  0  0  0  0  0  0
  190.1410  177.5220  141.9170 C   0  0  0  0  0  2  0  0  0  0  0  0
  187.3710  177.4140  144.3320 C   0  0  0  0  0  0  0  0  0  0  0  0
  191.0670  176.7650  144.6600 C   0  0  0  0  0  2  0  0  0  0  0  0
  189.2440  177.4770  143.1190 C   0  0  0  0  0  0  0  0  0  0  0  0
  188.4820  177.0350  145.2650 C   0  0  2  0  0  3  0  0  0  0  0  0
  188.8910  177.4360  147.6920 C   0  0  0  0  0  1  0  0  0  0  0  0
  188.6340  178.0930  146.3500 C   0  0  0  0  0  2  0  0  0  0  0  0
  180.9330  180.1470  142.9400 O   0  0  0  0  0  1  0  0  0  0  0  0
  181.6800  178.9760  143.0590 C   0  0  0  0  0  2  0  0  0  0  0  0
  182.1130  177.8750  140.3370 S   0  0  0  0  0  0  0  0  0  0  0  0
  181.8810  179.5180  139.5930 C   0  0  0  0  0  2  0  0  0  0  0  0
  179.6290  178.7510  139.6720 O   0  0  0  0  0  1  0  0  0  0  0  0
  180.4810  179.6430  139.0190 C   0  0  1  0  0  3  0  0  0  0  0  0
  179.6710  181.4750  140.3180 O   0  0  0  0  0  0  0  0  0  0  0  0
  179.9690  181.0410  139.1740 C   0  0  0  0  0  0  0  0  0  0  0  0
  179.8350  181.9050  138.0430 N   0  0  0  0  0  2  0  0  0  0  0  0
  180.7920  182.5180  136.0160 O   0  0  0  0  0  1  0  0  0  0  0  0
  178.9420  181.1920  136.0120 O   0  0  0  0  0  1  0  0  0  0  0  0
  180.1300  181.4870  136.6820 C   0  0  0  0  0  3  0  0  0  0  0  0
  1 32  1  6  0  0  0
  1 12  1  0  0  0  0
  2  1  1  0  0  0  0
  3  8  2  0  0  0  0
  5  7  1  0  0  0  0
  6 11  1  1  0  0  0
  6  5  1  0  0  0  0
  6  8  1  0  0  0  0
  7  4  1  0  0  0  0
  7  2  1  1  0  0  0
  8  4  1  0  0  0  0
  9 11  2  0  0  0  0
 11 10  1  0  0  0  0
 12 31  1  1  0  0  0
 12 15  1  0  0  0  0
 15 14  1  0  0  0  0
 15 13  1  0  0  0  0
 16 15  1  0  0  0  0
 16 17  1  0  0  0  0
 18 20  1  6  0  0  0
 18 21  1  0  0  0  0
 19 25  1  0  0  0  0
 19 27  1  0  0  0  0
 21 25  1  0  0  0  0
 22 26  1  0  0  0  0
 22 24  2  0  0  0  0
 23 18  1  0  0  0  0
 23 26  1  0  0  0  0
 24 17  1  0  0  0  0
 24 27  1  0  0  0  0
 26 19  2  0  0  0  0
 27 29  1  1  0  0  0
 29 28  1  0  0  0  0
 30 31  1  0  0  0  0
 33 32  1  0  0  0  0
 35 37  1  0  0  0  0
 35 33  1  0  0  0  0
 35 34  1  1  0  0  0
 37 36  2  0  0  0  0
 38 37  1  0  0  0  0
 39 41  1  0  0  0  0
 40 41  1  0  0  0  0
 41 38  1  0  0  0  0
M  END
>  <MODEL>
8

>  <REMARK>
 VINA RESULT:      -6.6      3.487      7.069
  Name = 
  15 active torsions:
  status: ('A' for Active; 'I' for Inactive)
    1  A    between atoms: N_5  and  C_9
    2  A    between atoms: N_5  and  C_26
    3  A    between atoms: C_9  and  C_10
    4  A    between atoms: C_9  and  S_33
    5  A    between atoms: C_10  and  C_27
    6  A    between atoms: C_10  and  C_35
    7  A    between atoms: C_12  and  C_22
    8  A    between atoms: C_23  and  C_35
    9  A    between atoms: C_23  and  C_41
   10  A    between atoms: C_28  and  C_29
   11  A    between atoms: C_28  and  S_33
   12  A    between atoms: C_29  and  C_32
   13  A    between atoms: C_31  and  C_41
   14  A    between atoms: N_34  and  C_39
   15  A    between atoms: C_38  and  C_40
                            x       y       z     vdW  Elec       q    Type
                         _______ _______ _______ _____ _____    ______ ____

>  <TORSDO>
F 15

$$$$
=
 OpenBabel11062415183D

 41 43  0  0  1  0  0  0  0  0999 V2000
  189.2110  177.2340  140.6860 C   0  0  1  0  0  3  0  0  0  0  0  0
  188.3390  178.3600  141.0340 N   0  0  0  0  0  2  0  0  0  0  0  0
  184.4860  179.9940  139.4750 N   0  0  0  0  0  2  0  0  0  0  0  0
  186.2930  178.5670  139.8950 O   0  0  0  0  0  0  0  0  0  0  0  0
  186.2200  178.4940  142.2520 C   0  0  0  0  0  2  0  0  0  0  0  0
  185.0280  179.3190  141.7650 C   0  0  1  0  0  3  0  0  0  0  0  0
  186.9360  177.9620  141.0020 C   0  0  2  0  0  3  0  0  0  0  0  0
  185.2210  179.3270  140.3010 C   0  0  0  0  0  0  0  0  0  0  0  0
  183.1990  177.6650  141.3020 O   0  0  0  0  0  0  0  0  0  0  0  0
  183.1580  178.9520  143.1970 O   0  0  0  0  0  1  0  0  0  0  0  0
  183.7460  178.6390  142.1310 C   0  0  0  0  0  0  0  0  0  0  0  0
  190.2250  177.5990  139.5800 C   0  0  2  0  0  3  0  0  0  0  0  0
  190.7590  176.8510  137.2280 C   0  0  0  0  0  1  0  0  0  0  0  0
  189.2150  178.7490  137.5920 C   0  0  0  0  0  1  0  0  0  0  0  0
  189.6750  177.4050  138.1440 C   0  0  0  0  0  0  0  0  0  0  0  0
  188.4720  176.4500  138.1900 C   0  0  0  0  0  2  0  0  0  0  0  0
  187.3520  176.8130  137.2130 C   0  0  0  0  0  2  0  0  0  0  0  0
  182.5700  172.9480  136.7270 C   0  0  2  0  0  3  0  0  0  0  0  0
  185.3130  173.6840  136.8870 C   0  0  0  0  0  0  0  0  0  0  0  0
  181.3020  172.6130  137.1600 F   0  0  0  0  0  0  0  0  0  0  0  0
  183.5780  171.9120  137.2270 C   0  0  0  0  0  2  0  0  0  0  0  0
  185.0330  175.9190  137.2250 C   0  0  0  0  0  3  0  0  0  0  0  0
  182.9340  174.3450  137.2420 C   0  0  0  0  0  2  0  0  0  0  0  0
  186.3420  175.7190  137.1150 C   0  0  0  0  0  0  0  0  0  0  0  0
  184.9800  172.2310  136.6960 C   0  0  0  0  0  2  0  0  0  0  0  0
  184.3960  174.6260  137.0560 C   0  0  0  0  0  0  0  0  0  0  0  0
  186.6810  174.2820  136.8490 C   0  0  2  0  0  3  0  0  0  0  0  0
  188.7500  173.7190  135.5760 C   0  0  0  0  0  1  0  0  0  0  0  0
  187.2980  174.1420  135.4640 C   0  0  0  0  0  2  0  0  0  0  0  0
  192.4730  177.8900  140.3690 O   0  0  0  0  0  1  0  0  0  0  0  0
  191.5980  176.9590  139.8110 C   0  0  0  0  0  2  0  0  0  0  0  0
  189.9340  176.4080  142.1560 S   0  0  0  0  0  0  0  0  0  0  0  0
  190.0090  177.9520  143.1130 C   0  0  0  0  0  2  0  0  0  0  0  0
  188.3950  176.7710  144.4030 O   0  0  0  0  0  1  0  0  0  0  0  0
  189.3800  177.7550  144.4810 C   0  0  1  0  0  3  0  0  0  0  0  0
  191.5920  177.1130  145.1100 O   0  0  0  0  0  0  0  0  0  0  0  0
  190.4160  177.3590  145.4860 C   0  0  0  0  0  0  0  0  0  0  0  0
  190.0970  177.2780  146.8780 N   0  0  0  0  0  2  0  0  0  0  0  0
  188.8050  178.5960  148.2910 O   0  0  0  0  0  1  0  0  0  0  0  0
  188.3110  176.3840  148.0780 O   0  0  0  0  0  1  0  0  0  0  0  0
  188.7640  177.5190  147.4050 C   0  0  0  0  0  3  0  0  0  0  0  0
  1  2  1  1  0  0  0
  1 32  1  0  0  0  0
  3  8  2  0  0  0  0
  4  8  1  0  0  0  0
  4  7  1  0  0  0  0
  6 11  1  6  0  0  0
  6  5  1  0  0  0  0
  7  2  1  1  0  0  0
  7  5  1  0  0  0  0
  8  6  1  0  0  0  0
  9 11  2  0  0  0  0
 11 10  1  0  0  0  0
 12 31  1  6  0  0  0
 12  1  1  0  0  0  0
 13 15  1  0  0  0  0
 14 15  1  0  0  0  0
 15 16  1  0  0  0  0
 15 12  1  0  0  0  0
 17 16  1  0  0  0  0
 18 20  1  1  0  0  0
 18 21  1  0  0  0  0
 18 23  1  0  0  0  0
 19 26  2  0  0  0  0
 24 17  1  0  0  0  0
 24 22  2  0  0  0  0
 25 19  1  0  0  0  0
 25 21  1  0  0  0  0
 26 22  1  0  0  0  0
 26 23  1  0  0  0  0
 27 29  1  6  0  0  0
 27 19  1  0  0  0  0
 27 24  1  0  0  0  0
 29 28  1  0  0  0  0
 31 30  1  0  0  0  0
 32 33  1  0  0  0  0
 33 35  1  0  0  0  0
 35 34  1  6  0  0  0
 35 37  1  0  0  0  0
 36 37  2  0  0  0  0
 37 38  1  0  0  0  0
 38 41  1  0  0  0  0
 41 40  1  0  0  0  0
 41 39  1  0  0  0  0
M  END
>  <MODEL>
9

>  <REMARK>
 VINA RESULT:      -6.5      4.155      7.890
  Name = 
  15 active torsions:
  status: ('A' for Active; 'I' for Inactive)
    1  A    between atoms: N_5  and  C_9
    2  A    between atoms: N_5  and  C_26
    3  A    between atoms: C_9  and  C_10
    4  A    between atoms: C_9  and  S_33
    5  A    between atoms: C_10  and  C_27
    6  A    between atoms: C_10  and  C_35
    7  A    between atoms: C_12  and  C_22
    8  A    between atoms: C_23  and  C_35
    9  A    between atoms: C_23  and  C_41
   10  A    between atoms: C_28  and  C_29
   11  A    between atoms: C_28  and  S_33
   12  A    between atoms: C_29  and  C_32
   13  A    between atoms: C_31  and  C_41
   14  A    between atoms: N_34  and  C_39
   15  A    between atoms: C_38  and  C_40
                            x       y       z     vdW  Elec       q    Type
                         _______ _______ _______ _____ _____    ______ ____

>  <TORSDO>
F 15

$$$$
