=
 OpenBabel11062417073D

 69 79  0  0  1  0  0  0  0  0999 V2000
  190.1320  177.9440  143.0780 N   0  0  0  0  0  2  0  0  0  0  0  0
  186.8320  177.3700  141.7790 C   0  0  0  0  0  3  0  0  0  0  0  0
  180.6580  181.0860  136.9060 O   0  0  0  0  0  0  0  0  0  0  0  0
  187.3860  178.1080  138.0210 O   0  0  0  0  0  0  0  0  0  0  0  0
  183.7550  177.1870  135.9640 C   0  0  2  0  0  3  0  0  0  0  0  0
  182.8820  179.3540  139.0150 N   0  0  0  0  0  2  0  0  0  0  0  0
  188.8130  176.7160  139.3770 C   0  0  2  0  0  3  0  0  0  0  0  0
  184.9220  177.5700  136.8890 C   0  0  0  0  0  2  0  0  0  0  0  0
  185.1760  175.2340  137.7580 C   0  0  0  0  0  2  0  0  0  0  0  0
  184.1680  178.1730  140.8230 C   0  0  1  0  0  3  0  0  0  0  0  0
  182.7960  178.5460  140.2290 C   0  0  2  0  0  3  0  0  0  0  0  0
  185.8820  176.3990  137.0230 C   0  0  2  0  0  3  0  0  0  0  0  0
  180.8950  179.8450  136.2960 C   0  0  0  0  0  2  0  0  0  0  0  0
  181.9010  175.4040  135.5640 C   0  0  1  0  0  3  0  0  0  0  0  0
  181.2670  174.0920  136.0650 C   0  0  1  0  0  3  0  0  0  0  0  0
  180.1000  176.5700  137.0260 C   0  0  2  0  0  3  0  0  0  0  0  0
  181.4310  181.0910  138.0840 C   0  0  2  0  0  3  0  0  0  0  0  0
  180.0580  176.5990  134.6170 F   0  0  0  0  0  0  0  0  0  0  0  0
  181.1920  178.8340  137.3790 C   0  0  2  0  0  3  0  0  0  0  0  0
  186.6500  178.6020  140.9350 C   0  0  2  0  0  3  0  0  0  0  0  0
  179.9600  177.9750  137.6240 C   0  0  0  0  0  2  0  0  0  0  0  0
  182.1500  173.0180  135.9330 O   0  0  0  0  0  1  0  0  0  0  0  0
  187.7550  175.8710  138.7300 C   0  0  0  0  0  2  0  0  0  0  0  0
  187.9710  177.1430  142.4370 C   0  0  0  0  0  3  0  0  0  0  0  0
  180.6320  175.5970  138.0740 C   0  0  0  0  0  2  0  0  0  0  0  0
  181.5220  179.6650  138.5730 C   0  0  1  0  0  3  0  0  0  0  0  0
  183.3890  177.1620  139.9980 C   0  0  0  0  0  2  0  0  0  0  0  0
  183.6740  175.1170  137.4610 C   0  0  0  0  0  2  0  0  0  0  0  0
  187.2650  176.7630  137.6120 C   0  0  2  0  0  3  0  0  0  0  0  0
  189.1200  178.0490  142.2830 C   0  0  0  0  0  0  0  0  0  0  0  0
  188.3930  178.1340  139.0130 C   0  0  2  0  0  3  0  0  0  0  0  0
  180.9020  176.5730  135.7110 C   0  0  2  0  0  3  0  0  0  0  0  0
  185.4050  178.5790  140.0270 C   0  0  0  0  0  2  0  0  0  0  0  0
  179.4610  173.5680  137.5540 O   0  0  0  0  0  1  0  0  0  0  0  0
  189.0940  179.1600  141.2550 C   0  0  0  0  0  2  0  0  0  0  0  0
  187.9630  179.0020  140.2210 C   0  0  2  0  0  3  0  0  0  0  0  0
  180.7180  174.1760  137.5090 C   0  0  1  0  0  3  0  0  0  0  0  0
  183.3400  175.7020  136.0780 C   0  0  2  0  0  3  0  0  0  0  0  0
  184.0990  177.4680  134.6420 O   0  0  0  0  0  1  0  0  0  0  0  0
  190.2240  175.9640  137.4040 C   0  0  2  0  0  3  0  0  0  0  0  0
  191.0150  177.6540  138.4610 C   0  0  0  0  0  2  0  0  0  0  0  0
  190.2340  176.4160  138.8570 C   0  0  1  0  0  3  0  0  0  0  0  0
  191.6100  175.8590  136.9100 N   0  0  0  0  0  0  0  0  0  0  0  0
  190.9500  177.1770  137.0240 C   0  0  1  0  0  3  0  0  0  0  0  0
  191.1000  176.5260  134.7600 O   0  0  0  0  0  1  0  0  0  0  0  0
  191.7560  175.4970  135.4780 C   0  0  2  0  0  0  0  0  0  0  0  0
  191.5510  172.9400  135.9200 C   0  0  0  0  0  2  0  0  0  0  0  0
  190.2380  169.6660  134.6090 C   0  0  0  0  0  1  0  0  0  0  0  0
  188.7310  172.9640  135.3310 C   0  0  1  0  0  3  0  0  0  0  0  0
  191.0790  174.1260  135.0560 C   0  0  1  0  0  3  0  0  0  0  0  0
  191.5200  171.5790  135.2110 C   0  0  1  0  0  3  0  0  0  0  0  0
  192.5490  170.7240  135.9510 C   0  0  0  0  0  1  0  0  0  0  0  0
  190.1930  170.9360  135.3240 N   0  0  0  0  0  0  0  0  0  0  0  0
  189.5410  174.1850  134.8720 C   0  0  0  0  0  2  0  0  0  0  0  0
  189.1750  171.6930  134.6010 C   0  0  0  0  0  2  0  0  0  0  0  0
  188.5850  172.8350  136.8390 C   0  0  0  0  0  0  0  0  0  0  0  0
  189.5120  173.1850  137.5650 O   0  0  0  0  0  0  0  0  0  0  0  0
  187.3160  172.3420  137.4680 C   0  0  0  0  0  1  0  0  0  0  0  0
  195.1600  176.8100  134.5950 C   0  0  0  0  0  2  0  0  0  0  0  0
  193.2030  175.5360  135.0770 N   0  0  0  0  0  0  0  0  0  0  0  0
  194.0470  175.2670  137.4790 C   0  0  0  0  0  1  0  0  0  0  0  0
  194.2680  175.0180  135.9870 C   0  0  2  0  0  3  0  0  0  0  0  0
  193.6460  176.8690  134.6950 C   0  0  0  0  0  2  0  0  0  0  0  0
  195.5670  175.7280  135.5820 C   0  0  1  0  0  3  0  0  0  0  0  0
  197.8930  175.2070  135.2220 O   0  0  0  0  0  1  0  0  0  0  0  0
  196.4330  173.4530  135.4200 O   0  0  0  0  0  1  0  0  0  0  0  0
  196.5920  174.7650  134.9590 C   0  0  0  0  0  3  0  0  0  0  0  0
  180.7320  181.9290  139.1400 C   0  0  0  0  0  2  0  0  0  0  0  0
  179.9430  181.1300  139.9640 O   0  0  0  0  0  1  0  0  0  0  0  0
  2 24  2  0  0  0  0
  3 17  1  0  0  0  0
  4 31  1  0  0  0  0
  5 39  1  6  0  0  0
  5 38  1  0  0  0  0
  5  8  1  0  0  0  0
  6 11  1  0  0  0  0
  7 23  1  6  0  0  0
 10 27  1  6  0  0  0
 11 27  1  6  0  0  0
 11 10  1  0  0  0  0
 12  8  1  1  0  0  0
 12 29  1  0  0  0  0
 12  9  1  0  0  0  0
 13  3  1  0  0  0  0
 13 19  1  0  0  0  0
 14 32  1  0  0  0  0
 14 15  1  0  0  0  0
 14 38  1  0  0  0  0
 15 37  1  0  0  0  0
 16 21  1  0  0  0  0
 16 25  1  0  0  0  0
 17 26  1  0  0  0  0
 17 68  1  0  0  0  0
 18 32  1  0  0  0  0
 19 21  1  0  0  0  0
 19 26  1  0  0  0  0
 20  2  1  0  0  0  0
 22 15  1  0  0  0  0
 26  6  1  0  0  0  0
 28  9  1  0  0  0  0
 29  4  1  0  0  0  0
 29 23  1  0  0  0  0
 30 24  1  0  0  0  0
 30  1  2  0  0  0  0
 31  7  1  0  0  0  0
 31 36  1  0  0  0  0
 32 16  1  0  0  0  0
 33 10  1  0  0  0  0
 33 20  1  0  0  0  0
 35 30  1  0  0  0  0
 36 20  1  0  0  0  0
 36 35  1  0  0  0  0
 37 34  1  0  0  0  0
 37 25  1  0  0  0  0
 38 28  1  0  0  0  0
 40 42  1  0  0  0  0
 41 42  1  0  0  0  0
 42  7  1  0  0  0  0
 43 44  1  0  0  0  0
 43 40  1  0  0  0  0
 44 40  1  0  0  0  0
 44 41  1  0  0  0  0
 45 46  1  0  0  0  0
 46 43  1  0  0  0  0
 48 53  1  0  0  0  0
 49 56  1  0  0  0  0
 50 46  1  0  0  0  0
 50 47  1  0  0  0  0
 51 53  1  0  0  0  0
 51 47  1  0  0  0  0
 51 52  1  0  0  0  0
 54 50  1  0  0  0  0
 54 49  1  0  0  0  0
 55 53  1  0  0  0  0
 55 49  1  0  0  0  0
 56 58  1  0  0  0  0
 56 57  2  0  0  0  0
 59 63  1  0  0  0  0
 59 64  1  0  0  0  0
 60 46  1  0  0  0  0
 60 62  1  0  0  0  0
 62 61  1  0  0  0  0
 63 60  1  0  0  0  0
 64 62  1  0  0  0  0
 67 65  1  0  0  0  0
 67 66  1  0  0  0  0
 67 64  1  0  0  0  0
 68 69  1  0  0  0  0
M  END
>  <MODEL>
1

>  <REMARK>
 VINA RESULT:      -3.0      0.000      0.000
  Name = 
  7 active torsions:
  status: ('A' for Active; 'I' for Inactive)
    1  A    between atoms: C_10  and  C_48
    2  A    between atoms: N_11  and  C_59
    3  A    between atoms: C_13  and  C_34
    4  A    between atoms: C_24  and  C_44
    5  A    between atoms: C_27  and  C_61
    6  A    between atoms: C_36  and  C_59
    7  A    between atoms: N_50  and  C_59
                            x       y       z     vdW  Elec       q    Type
                         _______ _______ _______ _____ _____    ______ ____

>  <TORSDO>
F 7

$$$$
