=
 OpenBabel11062418123D

 70 74  0  0  1  0  0  0  0  0999 V2000
  188.8640  177.5720  138.6890 C   0  0  1  0  0  3  0  0  0  0  0  0
  188.0200  178.3840  137.8530 O   0  0  0  0  0  0  0  0  0  0  0  0
  186.8100  177.6440  137.7090 C   0  0  2  0  0  3  0  0  0  0  0  0
  187.0590  177.0400  135.4080 O   0  0  0  0  0  1  0  0  0  0  0  0
  186.8920  176.5260  136.7460 C   0  0  2  0  0  3  0  0  0  0  0  0
  185.9160  175.3570  136.7850 C   0  0  0  0  0  2  0  0  0  0  0  0
  186.6800  174.0080  136.7810 C   0  0  1  0  0  3  0  0  0  0  0  0
  186.2570  171.2380  135.2440 C   0  0  0  0  0  2  0  0  0  0  0  0
  185.8550  172.8150  137.2560 C   0  0  0  0  0  2  0  0  0  0  0  0
  187.6160  171.1670  135.8890 C   0  0  0  0  0  2  0  0  0  0  0  0
  188.3880  172.4860  135.7960 C   0  0  0  0  0  2  0  0  0  0  0  0
  187.5570  173.7440  135.5630 C   0  0  0  0  0  2  0  0  0  0  0  0
  185.2800  171.9440  136.1700 C   0  0  1  0  0  3  0  0  0  0  0  0
  184.2540  172.6050  135.4520 O   0  0  0  0  0  0  0  0  0  0  0  0
  183.3720  170.9110  136.8150 O   0  0  0  0  0  1  0  0  0  0  0  0
  183.1330  171.7530  135.7190 C   0  0  1  0  0  3  0  0  0  0  0  0
  181.8960  172.6680  135.9340 C   0  0  1  0  0  3  0  0  0  0  0  0
  181.2720  172.3690  137.3040 C   0  0  0  0  0  3  0  0  0  0  0  0
  181.1970  173.5760  137.9810 F   0  0  0  0  0  0  0  0  0  0  0  0
  180.0140  171.7530  137.2790 F   0  0  0  0  0  0  0  0  0  0  0  0
  182.2240  173.9960  135.8320 O   0  0  0  0  0  0  0  0  0  0  0  0
  181.3860  174.6060  134.8390 C   0  0  0  0  0  2  0  0  0  0  0  0
  182.5680  176.5180  135.6380 O   0  0  0  0  0  1  0  0  0  0  0  0
  181.7530  176.0730  134.5950 C   0  0  0  0  0  2  0  0  0  0  0  0
  185.6640  178.6170  137.4760 C   0  0  0  0  0  2  0  0  0  0  0  0
  184.0040  177.5130  139.1080 C   0  0  0  0  0  1  0  0  0  0  0  0
  184.7980  178.7320  138.7330 C   0  0  1  0  0  3  0  0  0  0  0  0
  185.2600  178.7430  140.8920 O   0  0  0  0  0  1  0  0  0  0  0  0
  185.4260  179.4240  139.7850 O   0  0  0  0  0  0  0  0  0  0  0  0
  188.2270  177.1640  139.9000 O   0  0  0  0  0  0  0  0  0  0  0  0
  188.9830  176.9240  140.9890 C   0  0  0  0  0  0  0  0  0  0  0  0
  189.9820  176.1590  141.0370 O   0  0  0  0  0  0  0  0  0  0  0  0
  188.6940  177.6940  142.1590 C   0  0  0  0  0  2  0  0  0  0  0  0
  189.3130  176.7120  143.5160 P   0  0  1  0  0  4  0  0  0  0  0  0
  190.6900  176.0970  143.4800 O   0  0  0  0  0  0  0  0  0  0  0  0
  188.4950  177.0800  145.0540 C   0  0  1  0  0  3  0  0  0  0  0  0
  189.3940  176.8320  146.2770 C   0  0  1  0  0  3  0  0  0  0  0  0
  192.6400  175.0070  145.5530 C   0  0  0  0  0  2  0  0  0  0  0  0
  192.1280  175.9040  146.5820 C   0  0  1  0  0  0  0  0  0  0  0  0
  191.5890  174.5650  146.2910 O   0  0  0  0  0  0  0  0  0  0  0  0
  191.2830  176.4960  147.5940 C   0  0  1  0  0  3  0  0  0  0  0  0
  192.0470  177.4500  148.1400 F   0  0  0  0  0  0  0  0  0  0  0  0
  190.9290  176.8260  146.1280 C   0  0  2  0  0  0  0  0  0  0  0  0
  191.5380  178.1400  145.5900 C   0  0  0  0  0  1  0  0  0  0  0  0
  187.5550  176.0510  147.6640 O   0  0  0  0  0  1  0  0  0  0  0  0
  188.6930  176.8240  147.6830 C   0  0  2  0  0  3  0  0  0  0  0  0
  187.2370  178.3930  148.9150 O   0  0  0  0  0  1  0  0  0  0  0  0
  188.4320  178.1330  148.2390 C   0  0  0  0  0  0  0  0  0  0  0  0
  189.2960  179.1210  148.1810 O   0  0  0  0  0  0  0  0  0  0  0  0
  187.6340  178.3110  145.0090 O   0  0  0  0  0  0  0  0  0  0  0  0
  185.4020  177.8170  145.9700 C   0  0  0  0  0  3  0  0  0  0  0  0
  184.0350  178.1700  146.0420 C   0  0  0  0  0  3  0  0  0  0  0  0
  184.3720  179.8510  144.3370 C   0  0  0  0  0  3  0  0  0  0  0  0
  183.5060  179.1980  145.2400 C   0  0  0  0  0  3  0  0  0  0  0  0
  186.3020  178.5130  145.0810 C   0  0  0  0  0  0  0  0  0  0  0  0
  185.7150  179.4820  144.2550 C   0  0  0  0  0  3  0  0  0  0  0  0
  189.3140  176.3810  137.8470 C   0  0  0  0  0  2  0  0  0  0  0  0
  191.4740  177.2160  138.7040 F   0  0  0  0  0  0  0  0  0  0  0  0
  190.8410  176.4390  137.7530 C   0  0  2  0  0  3  0  0  0  0  0  0
  191.4630  176.4050  136.3920 C   0  0  0  0  0  2  0  0  0  0  0  0
  193.7230  173.4460  135.8000 C   0  0  0  0  0  3  0  0  0  0  0  0
  194.9740  173.9700  136.2000 C   0  0  0  0  0  0  0  0  0  0  0  0
  193.8570  175.9730  136.8470 N   0  0  0  0  0  0  0  0  0  0  0  0
  194.9820  175.2660  136.7380 C   0  0  0  0  0  3  0  0  0  0  0  0
  192.5520  174.2150  135.9140 C   0  0  0  0  0  3  0  0  0  0  0  0
  192.6400  175.5180  136.4240 C   0  0  0  0  0  0  0  0  0  0  0  0
  196.1660  173.3190  136.0420 O   0  0  0  0  0  0  0  0  0  0  0  0
  198.2980  173.0640  136.8180 O   0  0  0  0  0  1  0  0  0  0  0  0
  197.9860  174.2280  134.7660 C   0  0  0  0  0  1  0  0  0  0  0  0
  197.4450  173.9300  136.1580 C   0  0  1  0  0  3  0  0  0  0  0  0
  1 57  1  6  0  0  0
  1 30  1  0  0  0  0
  2  1  1  0  0  0  0
  3 25  1  6  0  0  0
  3  2  1  0  0  0  0
  5  4  1  6  0  0  0
  5  6  1  0  0  0  0
  5  3  1  0  0  0  0
  7  6  1  6  0  0  0
  7  9  1  0  0  0  0
  8 10  1  0  0  0  0
  8 13  1  0  0  0  0
 11 10  1  0  0  0  0
 12 11  1  0  0  0  0
 12  7  1  0  0  0  0
 13 14  1  6  0  0  0
 13  9  1  0  0  0  0
 14 16  1  0  0  0  0
 16 17  1  0  0  0  0
 16 15  1  1  0  0  0
 17 21  1  1  0  0  0
 17 18  1  0  0  0  0
 18 19  1  0  0  0  0
 20 18  1  0  0  0  0
 22 21  1  0  0  0  0
 24 22  1  0  0  0  0
 24 23  1  0  0  0  0
 25 27  1  0  0  0  0
 27 26  1  1  0  0  0
 27 29  1  0  0  0  0
 29 28  1  0  0  0  0
 30 31  1  0  0  0  0
 31 32  2  0  0  0  0
 31 33  1  0  0  0  0
 33 34  1  0  0  0  0
 34 35  2  1  0  0  0
 34 36  1  0  0  0  0
 36 50  1  6  0  0  0
 37 36  1  1  0  0  0
 37 46  1  0  0  0  0
 38 40  1  0  0  0  0
 39 38  1  6  0  0  0
 39 41  1  0  0  0  0
 40 39  1  0  0  0  0
 41 42  1  1  0  0  0
 43 44  1  6  0  0  0
 43 37  1  0  0  0  0
 43 39  1  0  0  0  0
 43 41  1  0  0  0  0
 46 45  1  6  0  0  0
 46 48  1  0  0  0  0
 48 47  1  0  0  0  0
 49 48  2  0  0  0  0
 50 55  1  0  0  0  0
 51 52  1  0  0  0  0
 53 54  1  0  0  0  0
 54 52  2  0  0  0  0
 55 51  2  0  0  0  0
 56 53  2  0  0  0  0
 56 55  1  0  0  0  0
 59 57  1  0  0  0  0
 59 58  1  6  0  0  0
 60 66  1  0  0  0  0
 60 59  1  0  0  0  0
 61 65  2  0  0  0  0
 61 62  1  0  0  0  0
 62 64  2  0  0  0  0
 64 63  1  0  0  0  0
 65 66  1  0  0  0  0
 66 63  2  0  0  0  0
 67 70  1  0  0  0  0
 67 62  1  0  0  0  0
 70 69  1  6  0  0  0
 70 68  1  0  0  0  0
M  END
>  <MODEL>
1

>  <REMARK>
 VINA RESULT:      -4.0      0.000      0.000
  Name = 
  32 active torsions:
  status: ('A' for Active; 'I' for Inactive)
    1  A    between atoms: O_1  and  C_20
    2  A    between atoms: O_1  and  C_22
    3  A    between atoms: C_5  and  C_65
    4  A    between atoms: C_6  and  C_20
    5  A    between atoms: C_7  and  O_11
    6  A    between atoms: C_7  and  C_66
    7  A    between atoms: C_9  and  C_31
    8  A    between atoms: C_9  and  C_59
    9  A    between atoms: O_10  and  C_50
   10  A    between atoms: O_10  and  C_64
   11  A    between atoms: O_11  and  C_59
   12  A    between atoms: C_16  and  O_41
   13  A    between atoms: O_17  and  C_61
   14  A    between atoms: O_17  and  C_70
   15  A    between atoms: C_18  and  C_48
   16  A    between atoms: C_20  and  C_70
   17  A    between atoms: O_21  and  C_42
   18  A    between atoms: C_22  and  C_46
   19  A    between atoms: C_27  and  C_31
   20  A    between atoms: C_27  and  C_57
   21  A    between atoms: O_32  and  C_59
   22  A    between atoms: O_32  and  C_60
   23  A    between atoms: C_33  and  C_42
   24  A    between atoms: C_33  and  C_60
   25  A    between atoms: P_38  and  C_50
   26  A    between atoms: P_38  and  C_66
   27  A    between atoms: O_41  and  C_62
   28  A    between atoms: C_48  and  C_54
   29  A    between atoms: C_50  and  C_54
   30  A    between atoms: C_52  and  C_54
   31  A    between atoms: C_60  and  C_63
   32  A    between atoms: C_63  and  C_65
                            x       y       z     vdW  Elec       q    Type
                         _______ _______ _______ _____ _____    ______ ____

>  <TORSDO>
F 32

$$$$
=
 OpenBabel11062418123D

 70 74  0  0  1  0  0  0  0  0999 V2000
  189.0770  177.6350  138.7360 C   0  0  1  0  0  3  0  0  0  0  0  0
  188.2520  178.4740  137.9090 O   0  0  0  0  0  0  0  0  0  0  0  0
  186.9560  177.8810  137.9460 C   0  0  2  0  0  3  0  0  0  0  0  0
  187.1020  177.4160  135.6050 O   0  0  0  0  0  1  0  0  0  0  0  0
  186.7150  176.8790  136.8870 C   0  0  2  0  0  3  0  0  0  0  0  0
  185.4120  176.0960  136.8020 C   0  0  0  0  0  2  0  0  0  0  0  0
  185.6890  174.5710  136.8220 C   0  0  1  0  0  3  0  0  0  0  0  0
  184.1410  172.0300  135.6550 C   0  0  0  0  0  2  0  0  0  0  0  0
  184.6210  173.7440  137.5330 C   0  0  0  0  0  2  0  0  0  0  0  0
  185.4960  171.5410  136.0940 C   0  0  0  0  0  2  0  0  0  0  0  0
  186.6210  172.5220  135.7540 C   0  0  0  0  0  2  0  0  0  0  0  0
  186.2110  173.9720  135.5200 C   0  0  0  0  0  2  0  0  0  0  0  0
  183.6190  173.0640  136.6390 C   0  0  1  0  0  3  0  0  0  0  0  0
  182.7500  173.9940  136.0180 O   0  0  0  0  0  0  0  0  0  0  0  0
  181.5890  172.2530  137.0790 O   0  0  0  0  0  1  0  0  0  0  0  0
  181.4710  173.4120  136.2970 C   0  0  1  0  0  3  0  0  0  0  0  0
  180.6050  174.5030  136.9840 C   0  0  1  0  0  3  0  0  0  0  0  0
  179.7080  175.1780  135.9370 C   0  0  0  0  0  3  0  0  0  0  0  0
  179.9120  176.5440  136.0570 F   0  0  0  0  0  0  0  0  0  0  0  0
  179.9120  174.7770  134.6100 F   0  0  0  0  0  0  0  0  0  0  0  0
  179.8490  173.9830  138.0040 O   0  0  0  0  0  0  0  0  0  0  0  0
  180.3010  174.5410  139.2470 C   0  0  0  0  0  2  0  0  0  0  0  0
  180.8910  176.7680  139.8650 O   0  0  0  0  0  1  0  0  0  0  0  0
  181.2710  175.7090  139.0380 C   0  0  0  0  0  2  0  0  0  0  0  0
  185.9140  178.9850  138.0430 C   0  0  0  0  0  2  0  0  0  0  0  0
  185.6950  179.1900  140.6010 C   0  0  0  0  0  1  0  0  0  0  0  0
  185.0570  178.8010  139.2980 C   0  0  1  0  0  3  0  0  0  0  0  0
  183.2320  178.5240  138.0870 O   0  0  0  0  0  1  0  0  0  0  0  0
  183.7120  179.1730  139.1180 O   0  0  0  0  0  0  0  0  0  0  0  0
  188.4510  177.2730  139.9680 O   0  0  0  0  0  0  0  0  0  0  0  0
  189.2210  177.0280  141.0460 C   0  0  0  0  0  0  0  0  0  0  0  0
  190.1870  176.2230  141.0920 O   0  0  0  0  0  0  0  0  0  0  0  0
  188.9900  177.8380  142.2030 C   0  0  0  0  0  2  0  0  0  0  0  0
  189.2440  176.7380  143.5870 P   0  0  1  0  0  4  0  0  0  0  0  0
  190.4110  175.7850  143.6330 O   0  0  0  0  0  0  0  0  0  0  0  0
  188.4530  177.3190  145.0740 C   0  0  1  0  0  3  0  0  0  0  0  0
  189.4080  177.3470  146.2780 C   0  0  1  0  0  3  0  0  0  0  0  0
  192.2030  174.8440  145.7250 C   0  0  0  0  0  2  0  0  0  0  0  0
  191.9240  175.9440  146.6390 C   0  0  1  0  0  0  0  0  0  0  0  0
  191.1240  174.7120  146.5370 O   0  0  0  0  0  0  0  0  0  0  0  0
  191.2580  176.8110  147.5840 C   0  0  1  0  0  3  0  0  0  0  0  0
  192.2170  177.6560  147.9840 F   0  0  0  0  0  0  0  0  0  0  0  0
  190.9040  177.0210  146.0970 C   0  0  2  0  0  0  0  0  0  0  0  0
  191.7270  178.1130  145.3780 C   0  0  0  0  0  1  0  0  0  0  0  0
  189.8070  178.6540  148.2920 O   0  0  0  0  0  1  0  0  0  0  0  0
  188.8410  177.9420  147.6180 C   0  0  2  0  0  3  0  0  0  0  0  0
  187.3680  177.4080  149.5270 O   0  0  0  0  0  1  0  0  0  0  0  0
  188.1940  176.9810  148.4840 C   0  0  0  0  0  0  0  0  0  0  0  0
  188.3070  175.6830  148.3230 O   0  0  0  0  0  0  0  0  0  0  0  0
  187.5060  178.4650  144.8540 O   0  0  0  0  0  0  0  0  0  0  0  0
  185.4780  178.2170  143.4500 C   0  0  0  0  0  3  0  0  0  0  0  0
  184.0660  178.2340  143.3890 C   0  0  0  0  0  3  0  0  0  0  0  0
  183.9680  178.9450  145.6980 C   0  0  0  0  0  3  0  0  0  0  0  0
  183.2940  178.5830  144.5120 C   0  0  0  0  0  3  0  0  0  0  0  0
  186.1720  178.5430  144.6730 C   0  0  0  0  0  0  0  0  0  0  0  0
  185.3630  178.9480  145.7440 C   0  0  0  0  0  3  0  0  0  0  0  0
  189.4500  176.4120  137.9010 C   0  0  0  0  0  2  0  0  0  0  0  0
  191.6570  177.3320  138.5200 F   0  0  0  0  0  0  0  0  0  0  0  0
  190.9740  176.4120  137.7480 C   0  0  2  0  0  3  0  0  0  0  0  0
  191.5430  176.1160  136.3960 C   0  0  0  0  0  2  0  0  0  0  0  0
  194.3740  173.7570  135.5990 C   0  0  0  0  0  3  0  0  0  0  0  0
  195.1610  173.8640  136.7690 C   0  0  0  0  0  0  0  0  0  0  0  0
  193.4870  175.2910  137.6870 N   0  0  0  0  0  0  0  0  0  0  0  0
  194.6530  174.6560  137.8100 C   0  0  0  0  0  3  0  0  0  0  0  0
  193.1530  174.4450  135.4870 C   0  0  0  0  0  3  0  0  0  0  0  0
  192.7260  175.2500  136.5530 C   0  0  0  0  0  0  0  0  0  0  0  0
  196.3960  173.2980  136.9190 O   0  0  0  0  0  0  0  0  0  0  0  0
  195.5400  171.8310  138.4440 O   0  0  0  0  0  1  0  0  0  0  0  0
  197.4010  171.1280  137.1390 C   0  0  0  0  0  1  0  0  0  0  0  0
  196.7110  172.2780  137.8600 C   0  0  1  0  0  3  0  0  0  0  0  0
  1 57  1  6  0  0  0
  1 30  1  0  0  0  0
  2  3  1  0  0  0  0
  2  1  1  0  0  0  0
  3 25  1  6  0  0  0
  5  4  1  6  0  0  0
  5  3  1  0  0  0  0
  6  5  1  0  0  0  0
  7  6  1  6  0  0  0
  7  9  1  0  0  0  0
  8 10  1  0  0  0  0
  8 13  1  0  0  0  0
 11 10  1  0  0  0  0
 12 11  1  0  0  0  0
 12  7  1  0  0  0  0
 13 14  1  6  0  0  0
 13  9  1  0  0  0  0
 14 16  1  0  0  0  0
 16 17  1  0  0  0  0
 16 15  1  1  0  0  0
 17 18  1  6  0  0  0
 17 21  1  0  0  0  0
 18 19  1  0  0  0  0
 20 18  1  0  0  0  0
 21 22  1  0  0  0  0
 24 22  1  0  0  0  0
 24 23  1  0  0  0  0
 25 27  1  0  0  0  0
 27 26  1  1  0  0  0
 28 29  1  0  0  0  0
 29 27  1  0  0  0  0
 30 31  1  0  0  0  0
 31 32  2  0  0  0  0
 31 33  1  0  0  0  0
 33 34  1  0  0  0  0
 34 35  2  1  0  0  0
 34 36  1  0  0  0  0
 36 50  1  6  0  0  0
 37 36  1  6  0  0  0
 37 46  1  0  0  0  0
 38 40  1  0  0  0  0
 39 38  1  6  0  0  0
 39 41  1  0  0  0  0
 40 39  1  0  0  0  0
 41 42  1  6  0  0  0
 43 44  1  6  0  0  0
 43 37  1  0  0  0  0
 43 39  1  0  0  0  0
 43 41  1  0  0  0  0
 46 45  1  1  0  0  0
 46 48  1  0  0  0  0
 48 47  1  0  0  0  0
 49 48  2  0  0  0  0
 51 55  1  0  0  0  0
 52 51  2  0  0  0  0
 52 54  1  0  0  0  0
 53 56  1  0  0  0  0
 54 53  2  0  0  0  0
 55 50  1  0  0  0  0
 55 56  2  0  0  0  0
 59 57  1  0  0  0  0
 59 58  1  6  0  0  0
 60 66  1  0  0  0  0
 60 59  1  0  0  0  0
 61 62  1  0  0  0  0
 62 67  1  0  0  0  0
 62 64  2  0  0  0  0
 63 64  1  0  0  0  0
 65 61  2  0  0  0  0
 65 66  1  0  0  0  0
 66 63  2  0  0  0  0
 67 70  1  0  0  0  0
 70 69  1  6  0  0  0
 70 68  1  0  0  0  0
M  END
>  <MODEL>
2

>  <REMARK>
 VINA RESULT:      -3.4      1.556      1.982
  Name = 
  32 active torsions:
  status: ('A' for Active; 'I' for Inactive)
    1  A    between atoms: O_1  and  C_20
    2  A    between atoms: O_1  and  C_22
    3  A    between atoms: C_5  and  C_65
    4  A    between atoms: C_6  and  C_20
    5  A    between atoms: C_7  and  O_11
    6  A    between atoms: C_7  and  C_66
    7  A    between atoms: C_9  and  C_31
    8  A    between atoms: C_9  and  C_59
    9  A    between atoms: O_10  and  C_50
   10  A    between atoms: O_10  and  C_64
   11  A    between atoms: O_11  and  C_59
   12  A    between atoms: C_16  and  O_41
   13  A    between atoms: O_17  and  C_61
   14  A    between atoms: O_17  and  C_70
   15  A    between atoms: C_18  and  C_48
   16  A    between atoms: C_20  and  C_70
   17  A    between atoms: O_21  and  C_42
   18  A    between atoms: C_22  and  C_46
   19  A    between atoms: C_27  and  C_31
   20  A    between atoms: C_27  and  C_57
   21  A    between atoms: O_32  and  C_59
   22  A    between atoms: O_32  and  C_60
   23  A    between atoms: C_33  and  C_42
   24  A    between atoms: C_33  and  C_60
   25  A    between atoms: P_38  and  C_50
   26  A    between atoms: P_38  and  C_66
   27  A    between atoms: O_41  and  C_62
   28  A    between atoms: C_48  and  C_54
   29  A    between atoms: C_50  and  C_54
   30  A    between atoms: C_52  and  C_54
   31  A    between atoms: C_60  and  C_63
   32  A    between atoms: C_63  and  C_65
                            x       y       z     vdW  Elec       q    Type
                         _______ _______ _______ _____ _____    ______ ____

>  <TORSDO>
F 32

$$$$
=
 OpenBabel11062418123D

 70 74  0  0  1  0  0  0  0  0999 V2000
  188.8630  177.0220  138.8660 C   0  0  1  0  0  3  0  0  0  0  0  0
  189.4350  175.7270  138.6110 O   0  0  0  0  0  0  0  0  0  0  0  0
  189.2900  175.5210  137.2080 C   0  0  2  0  0  3  0  0  0  0  0  0
  190.2450  173.3290  137.1660 O   0  0  0  0  0  1  0  0  0  0  0  0
  190.3300  174.6570  136.6090 C   0  0  2  0  0  3  0  0  0  0  0  0
  191.7730  175.1190  136.4640 C   0  0  0  0  0  2  0  0  0  0  0  0
  192.3510  175.5460  137.8380 C   0  0  1  0  0  3  0  0  0  0  0  0
  195.3140  175.7610  139.0160 C   0  0  0  0  0  2  0  0  0  0  0  0
  193.1290  174.4510  138.5630 C   0  0  0  0  0  2  0  0  0  0  0  0
  194.4080  176.4410  140.0080 C   0  0  0  0  0  2  0  0  0  0  0  0
  193.3180  177.2820  139.3390 C   0  0  0  0  0  2  0  0  0  0  0  0
  192.9820  176.9320  137.8930 C   0  0  0  0  0  2  0  0  0  0  0  0
  194.6280  174.5290  138.4480 C   0  0  1  0  0  3  0  0  0  0  0  0
  195.0720  174.2340  137.1350 O   0  0  0  0  0  0  0  0  0  0  0  0
  195.3330  171.9280  137.4830 O   0  0  0  0  0  1  0  0  0  0  0  0
  195.9910  173.1630  137.3850 C   0  0  1  0  0  3  0  0  0  0  0  0
  197.0450  173.1830  136.2440 C   0  0  1  0  0  3  0  0  0  0  0  0
  197.3460  174.6360  135.8510 C   0  0  0  0  0  3  0  0  0  0  0  0
  197.6150  175.3200  137.0260 F   0  0  0  0  0  0  0  0  0  0  0  0
  198.3940  174.8150  134.9390 F   0  0  0  0  0  0  0  0  0  0  0  0
  198.1970  172.5320  136.6060 O   0  0  0  0  0  0  0  0  0  0  0  0
  198.0260  171.1250  136.3810 C   0  0  0  0  0  2  0  0  0  0  0  0
  197.5040  169.6280  134.5990 O   0  0  0  0  0  1  0  0  0  0  0  0
  198.2880  170.7370  134.9220 C   0  0  0  0  0  2  0  0  0  0  0  0
  189.0990  176.8690  136.5310 C   0  0  0  0  0  2  0  0  0  0  0  0
  187.1770  175.7020  135.2750 C   0  0  0  0  0  1  0  0  0  0  0  0
  188.2910  176.7090  135.2410 C   0  0  1  0  0  3  0  0  0  0  0  0
  187.5010  178.7590  135.4660 O   0  0  0  0  0  1  0  0  0  0  0  0
  188.0190  177.9290  134.5940 O   0  0  0  0  0  0  0  0  0  0  0  0
  187.5370  176.9560  139.3900 O   0  0  0  0  0  0  0  0  0  0  0  0
  186.4950  177.1740  138.5650 C   0  0  0  0  0  0  0  0  0  0  0  0
  185.8600  176.2910  137.9320 O   0  0  0  0  0  0  0  0  0  0  0  0
  185.9980  178.5130  138.4920 C   0  0  0  0  0  2  0  0  0  0  0  0
  184.4140  178.3680  137.6800 P   0  0  1  0  0  4  0  0  0  0  0  0
  184.2710  177.6760  136.3470 O   0  0  0  0  0  0  0  0  0  0  0  0
  183.0490  178.4930  138.8180 C   0  0  1  0  0  3  0  0  0  0  0  0
  181.7030  178.1340  138.1680 C   0  0  1  0  0  3  0  0  0  0  0  0
  181.9890  174.3570  137.9610 C   0  0  0  0  0  2  0  0  0  0  0  0
  181.0430  175.3790  137.5320 C   0  0  1  0  0  0  0  0  0  0  0  0
  182.4330  175.2710  137.0610 O   0  0  0  0  0  0  0  0  0  0  0  0
  180.4820  176.5750  136.9440 C   0  0  1  0  0  3  0  0  0  0  0  0
  179.1590  176.3800  137.0060 F   0  0  0  0  0  0  0  0  0  0  0  0
  181.0980  176.7280  138.3520 C   0  0  2  0  0  0  0  0  0  0  0  0
  180.0940  176.5970  139.5190 C   0  0  0  0  0  1  0  0  0  0  0  0
  181.4130  179.6730  136.3060 O   0  0  0  0  0  1  0  0  0  0  0  0
  180.8880  179.3150  137.5260 C   0  0  2  0  0  3  0  0  0  0  0  0
  181.2610  180.4870  139.6680 O   0  0  0  0  0  1  0  0  0  0  0  0
  180.7100  180.4660  138.3840 C   0  0  0  0  0  0  0  0  0  0  0  0
  180.0720  181.5490  138.0040 O   0  0  0  0  0  0  0  0  0  0  0  0
  183.3590  177.9920  140.2000 O   0  0  0  0  0  0  0  0  0  0  0  0
  181.6090  178.5580  141.8630 C   0  0  0  0  0  3  0  0  0  0  0  0
  181.3050  178.8720  143.2080 C   0  0  0  0  0  3  0  0  0  0  0  0
  183.6630  178.9080  143.7400 C   0  0  0  0  0  3  0  0  0  0  0  0
  182.3230  179.0360  144.1640 C   0  0  0  0  0  3  0  0  0  0  0  0
  182.9760  178.3810  141.4340 C   0  0  0  0  0  0  0  0  0  0  0  0
  183.9560  178.6210  142.4060 C   0  0  0  0  0  3  0  0  0  0  0  0
  189.8170  177.7550  139.8060 C   0  0  0  0  0  2  0  0  0  0  0  0
  188.6950  178.8580  141.7080 F   0  0  0  0  0  0  0  0  0  0  0  0
  189.2180  177.6790  141.2130 C   0  0  2  0  0  3  0  0  0  0  0  0
  189.8670  176.7640  142.2040 C   0  0  0  0  0  2  0  0  0  0  0  0
  189.1520  177.6300  145.8030 C   0  0  0  0  0  3  0  0  0  0  0  0
  187.7530  177.4320  145.8630 C   0  0  0  0  0  0  0  0  0  0  0  0
  187.8300  176.6650  143.6080 N   0  0  0  0  0  0  0  0  0  0  0  0
  187.1300  176.9270  144.7110 C   0  0  0  0  0  3  0  0  0  0  0  0
  189.8680  177.3570  144.6250 C   0  0  0  0  0  3  0  0  0  0  0  0
  189.1730  176.8910  143.4990 C   0  0  0  0  0  0  0  0  0  0  0  0
  186.9770  177.7550  146.9400 O   0  0  0  0  0  0  0  0  0  0  0  0
  184.9340  177.7190  147.9590 O   0  0  0  0  0  1  0  0  0  0  0  0
  185.6010  179.7210  146.8600 C   0  0  0  0  0  1  0  0  0  0  0  0
  185.6270  178.1990  146.8630 C   0  0  1  0  0  3  0  0  0  0  0  0
  1 30  1  0  0  0  0
  1 57  1  1  0  0  0
  2  1  1  0  0  0  0
  3 25  1  6  0  0  0
  3  2  1  0  0  0  0
  5  4  1  1  0  0  0
  5  3  1  0  0  0  0
  6  5  1  0  0  0  0
  7  6  1  6  0  0  0
  7 12  1  0  0  0  0
  7  9  1  0  0  0  0
  8 10  1  0  0  0  0
 11 10  1  0  0  0  0
 12 11  1  0  0  0  0
 13 14  1  6  0  0  0
 13  9  1  0  0  0  0
 13  8  1  0  0  0  0
 14 16  1  0  0  0  0
 16 15  1  6  0  0  0
 17 18  1  1  0  0  0
 17 21  1  0  0  0  0
 17 16  1  0  0  0  0
 18 19  1  0  0  0  0
 20 18  1  0  0  0  0
 22 21  1  0  0  0  0
 23 24  1  0  0  0  0
 24 22  1  0  0  0  0
 27 26  1  1  0  0  0
 27 25  1  0  0  0  0
 29 27  1  0  0  0  0
 29 28  1  0  0  0  0
 31 30  1  0  0  0  0
 32 31  2  0  0  0  0
 33 31  1  0  0  0  0
 34 35  2  1  0  0  0
 34 33  1  0  0  0  0
 34 36  1  0  0  0  0
 36 50  1  1  0  0  0
 37 46  1  1  0  0  0
 37 43  1  0  0  0  0
 37 36  1  0  0  0  0
 39 38  1  1  0  0  0
 39 43  1  0  0  0  0
 40 39  1  0  0  0  0
 40 38  1  0  0  0  0
 41 42  1  1  0  0  0
 41 39  1  0  0  0  0
 41 43  1  0  0  0  0
 43 44  1  1  0  0  0
 46 45  1  6  0  0  0
 46 48  1  0  0  0  0
 48 47  1  0  0  0  0
 49 48  2  0  0  0  0
 50 55  1  0  0  0  0
 51 52  1  0  0  0  0
 52 54  2  0  0  0  0
 53 54  1  0  0  0  0
 55 51  2  0  0  0  0
 55 56  1  0  0  0  0
 56 53  2  0  0  0  0
 57 59  1  0  0  0  0
 59 58  1  1  0  0  0
 59 60  1  0  0  0  0
 60 66  1  0  0  0  0
 61 62  1  0  0  0  0
 62 67  1  0  0  0  0
 63 64  1  0  0  0  0
 64 62  2  0  0  0  0
 65 61  2  0  0  0  0
 66 63  2  0  0  0  0
 66 65  1  0  0  0  0
 70 69  1  1  0  0  0
 70 67  1  0  0  0  0
 70 68  1  0  0  0  0
M  END
>  <MODEL>
3

>  <REMARK>
 VINA RESULT:      -3.0      3.122     10.746
  Name = 
  32 active torsions:
  status: ('A' for Active; 'I' for Inactive)
    1  A    between atoms: O_1  and  C_20
    2  A    between atoms: O_1  and  C_22
    3  A    between atoms: C_5  and  C_65
    4  A    between atoms: C_6  and  C_20
    5  A    between atoms: C_7  and  O_11
    6  A    between atoms: C_7  and  C_66
    7  A    between atoms: C_9  and  C_31
    8  A    between atoms: C_9  and  C_59
    9  A    between atoms: O_10  and  C_50
   10  A    between atoms: O_10  and  C_64
   11  A    between atoms: O_11  and  C_59
   12  A    between atoms: C_16  and  O_41
   13  A    between atoms: O_17  and  C_61
   14  A    between atoms: O_17  and  C_70
   15  A    between atoms: C_18  and  C_48
   16  A    between atoms: C_20  and  C_70
   17  A    between atoms: O_21  and  C_42
   18  A    between atoms: C_22  and  C_46
   19  A    between atoms: C_27  and  C_31
   20  A    between atoms: C_27  and  C_57
   21  A    between atoms: O_32  and  C_59
   22  A    between atoms: O_32  and  C_60
   23  A    between atoms: C_33  and  C_42
   24  A    between atoms: C_33  and  C_60
   25  A    between atoms: P_38  and  C_50
   26  A    between atoms: P_38  and  C_66
   27  A    between atoms: O_41  and  C_62
   28  A    between atoms: C_48  and  C_54
   29  A    between atoms: C_50  and  C_54
   30  A    between atoms: C_52  and  C_54
   31  A    between atoms: C_60  and  C_63
   32  A    between atoms: C_63  and  C_65
                            x       y       z     vdW  Elec       q    Type
                         _______ _______ _______ _____ _____    ______ ____

>  <TORSDO>
F 32

$$$$
=
 OpenBabel11062418123D

 70 74  0  0  1  0  0  0  0  0999 V2000
  190.7540  177.0040  140.4440 C   0  0  1  0  0  3  0  0  0  0  0  0
  189.9330  177.9480  141.1550 O   0  0  0  0  0  0  0  0  0  0  0  0
  189.1810  177.1680  142.0820 C   0  0  2  0  0  3  0  0  0  0  0  0
  187.5030  178.8550  141.8370 O   0  0  0  0  0  1  0  0  0  0  0  0
  187.7300  177.4500  142.0780 C   0  0  2  0  0  3  0  0  0  0  0  0
  186.8010  176.9030  143.1540 C   0  0  0  0  0  2  0  0  0  0  0  0
  185.3760  177.4910  142.9950 C   0  0  1  0  0  3  0  0  0  0  0  0
  184.0000  180.2240  143.9170 C   0  0  0  0  0  2  0  0  0  0  0  0
  184.6500  177.7510  144.3130 C   0  0  0  0  0  2  0  0  0  0  0  0
  183.0400  179.5620  142.9650 C   0  0  0  0  0  2  0  0  0  0  0  0
  183.7420  178.9150  141.7680 C   0  0  0  0  0  2  0  0  0  0  0  0
  185.2200  178.5840  141.9440 C   0  0  0  0  0  2  0  0  0  0  0  0
  184.6640  179.1770  144.7960 C   0  0  1  0  0  3  0  0  0  0  0  0
  185.9570  179.5790  145.2140 O   0  0  0  0  0  0  0  0  0  0  0  0
  184.5700  179.0010  147.0170 O   0  0  0  0  0  1  0  0  0  0  0  0
  185.8530  179.4230  146.6350 C   0  0  1  0  0  3  0  0  0  0  0  0
  186.9580  178.4250  147.0730 C   0  0  1  0  0  3  0  0  0  0  0  0
  186.3660  177.0110  147.1570 C   0  0  0  0  0  3  0  0  0  0  0  0
  185.0410  177.1550  147.5390 F   0  0  0  0  0  0  0  0  0  0  0  0
  186.4490  176.2450  145.9870 F   0  0  0  0  0  0  0  0  0  0  0  0
  188.0320  178.4480  146.2190 O   0  0  0  0  0  0  0  0  0  0  0  0
  189.1750  177.9060  146.8960 C   0  0  0  0  0  2  0  0  0  0  0  0
  190.2380  178.3060  148.9940 O   0  0  0  0  0  1  0  0  0  0  0  0
  189.0180  177.9450  148.4190 C   0  0  0  0  0  2  0  0  0  0  0  0
  189.8520  177.2450  143.4450 C   0  0  0  0  0  2  0  0  0  0  0  0
  191.2150  179.3460  144.0490 C   0  0  0  0  0  1  0  0  0  0  0  0
  191.1700  178.0180  143.3490 C   0  0  1  0  0  3  0  0  0  0  0  0
  191.9230  175.9830  143.7570 O   0  0  0  0  0  1  0  0  0  0  0  0
  192.3090  177.2010  143.4710 O   0  0  0  0  0  0  0  0  0  0  0  0
  190.1090  176.4540  139.2950 O   0  0  0  0  0  0  0  0  0  0  0  0
  189.1860  177.1910  138.6480 C   0  0  0  0  0  0  0  0  0  0  0  0
  189.3150  178.3950  138.3030 O   0  0  0  0  0  0  0  0  0  0  0  0
  188.0040  176.5120  138.2150 C   0  0  0  0  0  2  0  0  0  0  0  0
  188.1560  176.4180  136.4380 P   0  0  1  0  0  4  0  0  0  0  0  0
  189.4960  176.5300  135.7540 O   0  0  0  0  0  0  0  0  0  0  0  0
  186.7900  175.5620  135.6800 C   0  0  1  0  0  3  0  0  0  0  0  0
  186.5240  174.1900  136.3200 C   0  0  1  0  0  3  0  0  0  0  0  0
  190.0000  172.9920  135.3860 C   0  0  0  0  0  2  0  0  0  0  0  0
  188.6410  172.4670  135.3320 C   0  0  1  0  0  0  0  0  0  0  0  0
  189.1130  173.6530  134.5980 O   0  0  0  0  0  0  0  0  0  0  0  0
  187.2220  172.3450  135.0840 C   0  0  1  0  0  3  0  0  0  0  0  0
  186.9520  171.0630  135.3540 F   0  0  0  0  0  0  0  0  0  0  0  0
  187.6310  173.1180  136.3570 C   0  0  2  0  0  0  0  0  0  0  0  0
  187.6760  172.2700  137.6470 C   0  0  0  0  0  1  0  0  0  0  0  0
  185.3730  173.2870  138.2640 O   0  0  0  0  0  1  0  0  0  0  0  0
  185.1820  174.0300  137.1220 C   0  0  2  0  0  3  0  0  0  0  0  0
  184.1230  173.5140  134.9510 O   0  0  0  0  0  0  0  0  0  0  0  0
  184.0670  173.5300  136.3470 C   0  0  0  0  0  0  0  0  0  0  0  0
  182.9800  173.0360  136.8930 O   0  0  0  0  0  1  0  0  0  0  0  0
  185.6300  176.4520  135.3310 O   0  0  0  0  0  0  0  0  0  0  0  0
  183.2760  177.1480  135.6790 C   0  0  0  0  0  3  0  0  0  0  0  0
  182.3180  177.6980  136.5610 C   0  0  0  0  0  3  0  0  0  0  0  0
  184.0500  178.1160  138.1950 C   0  0  0  0  0  3  0  0  0  0  0  0
  182.6880  178.1750  137.8320 C   0  0  0  0  0  3  0  0  0  0  0  0
  184.6630  177.0430  136.0640 C   0  0  0  0  0  0  0  0  0  0  0  0
  184.9940  177.5920  137.3100 C   0  0  0  0  0  3  0  0  0  0  0  0
  192.0520  177.7230  140.0850 C   0  0  0  0  0  2  0  0  0  0  0  0
  194.2040  176.5390  139.8380 F   0  0  0  0  0  0  0  0  0  0  0  0
  192.9330  176.7250  139.3300 C   0  0  2  0  0  3  0  0  0  0  0  0
  192.7860  176.6440  137.8420 C   0  0  0  0  0  2  0  0  0  0  0  0
  193.5950  173.2100  136.5150 C   0  0  0  0  0  3  0  0  0  0  0  0
  194.9370  173.3820  136.1010 C   0  0  0  0  0  0  0  0  0  0  0  0
  194.8560  175.5960  136.9800 N   0  0  0  0  0  0  0  0  0  0  0  0
  195.5350  174.6220  136.3730 C   0  0  0  0  0  3  0  0  0  0  0  0
  192.8960  174.2550  137.1430 C   0  0  0  0  0  3  0  0  0  0  0  0
  193.5450  175.4810  137.3480 C   0  0  0  0  0  0  0  0  0  0  0  0
  195.6530  172.4460  135.4090 O   0  0  0  0  0  0  0  0  0  0  0  0
  197.7690  171.6510  135.0870 O   0  0  0  0  0  1  0  0  0  0  0  0
  197.1240  172.2500  137.2970 C   0  0  0  0  0  1  0  0  0  0  0  0
  196.6980  171.6550  135.9620 C   0  0  1  0  0  3  0  0  0  0  0  0
  1 57  1  6  0  0  0
  1  2  1  0  0  0  0
  2  3  1  0  0  0  0
  3 25  1  1  0  0  0
  5  4  1  1  0  0  0
  5  3  1  0  0  0  0
  5  6  1  0  0  0  0
  7  6  1  1  0  0  0
  7  9  1  0  0  0  0
  8 13  1  0  0  0  0
  9 13  1  0  0  0  0
 10  8  1  0  0  0  0
 11 12  1  0  0  0  0
 11 10  1  0  0  0  0
 12  7  1  0  0  0  0
 13 14  1  6  0  0  0
 14 16  1  0  0  0  0
 16 15  1  6  0  0  0
 16 17  1  0  0  0  0
 17 21  1  6  0  0  0
 17 18  1  0  0  0  0
 18 19  1  0  0  0  0
 20 18  1  0  0  0  0
 21 22  1  0  0  0  0
 22 24  1  0  0  0  0
 24 23  1  0  0  0  0
 27 25  1  0  0  0  0
 27 29  1  0  0  0  0
 27 26  1  1  0  0  0
 29 28  1  0  0  0  0
 30  1  1  0  0  0  0
 31 30  1  0  0  0  0
 32 31  2  0  0  0  0
 33 31  1  0  0  0  0
 34 35  2  1  0  0  0
 34 33  1  0  0  0  0
 36 50  1  1  0  0  0
 36 34  1  0  0  0  0
 37 36  1  1  0  0  0
 37 43  1  0  0  0  0
 37 46  1  0  0  0  0
 39 38  1  1  0  0  0
 39 43  1  0  0  0  0
 40 39  1  0  0  0  0
 40 38  1  0  0  0  0
 41 39  1  0  0  0  0
 41 42  1  1  0  0  0
 41 43  1  0  0  0  0
 43 44  1  1  0  0  0
 46 45  1  1  0  0  0
 47 48  2  0  0  0  0
 48 49  1  0  0  0  0
 48 46  1  0  0  0  0
 50 55  1  0  0  0  0
 51 55  2  0  0  0  0
 51 52  1  0  0  0  0
 52 54  2  0  0  0  0
 54 53  1  0  0  0  0
 55 56  1  0  0  0  0
 56 53  2  0  0  0  0
 59 58  1  6  0  0  0
 59 57  1  0  0  0  0
 60 59  1  0  0  0  0
 61 65  1  0  0  0  0
 62 64  1  0  0  0  0
 62 61  2  0  0  0  0
 63 66  1  0  0  0  0
 64 63  2  0  0  0  0
 65 66  2  0  0  0  0
 66 60  1  0  0  0  0
 67 70  1  0  0  0  0
 67 62  1  0  0  0  0
 68 70  1  0  0  0  0
 70 69  1  1  0  0  0
M  END
>  <MODEL>
4

>  <REMARK>
 VINA RESULT:      -2.6      2.484      9.291
  Name = 
  32 active torsions:
  status: ('A' for Active; 'I' for Inactive)
    1  A    between atoms: O_1  and  C_20
    2  A    between atoms: O_1  and  C_22
    3  A    between atoms: C_5  and  C_65
    4  A    between atoms: C_6  and  C_20
    5  A    between atoms: C_7  and  O_11
    6  A    between atoms: C_7  and  C_66
    7  A    between atoms: C_9  and  C_31
    8  A    between atoms: C_9  and  C_59
    9  A    between atoms: O_10  and  C_50
   10  A    between atoms: O_10  and  C_64
   11  A    between atoms: O_11  and  C_59
   12  A    between atoms: C_16  and  O_41
   13  A    between atoms: O_17  and  C_61
   14  A    between atoms: O_17  and  C_70
   15  A    between atoms: C_18  and  C_48
   16  A    between atoms: C_20  and  C_70
   17  A    between atoms: O_21  and  C_42
   18  A    between atoms: C_22  and  C_46
   19  A    between atoms: C_27  and  C_31
   20  A    between atoms: C_27  and  C_57
   21  A    between atoms: O_32  and  C_59
   22  A    between atoms: O_32  and  C_60
   23  A    between atoms: C_33  and  C_42
   24  A    between atoms: C_33  and  C_60
   25  A    between atoms: P_38  and  C_50
   26  A    between atoms: P_38  and  C_66
   27  A    between atoms: O_41  and  C_62
   28  A    between atoms: C_48  and  C_54
   29  A    between atoms: C_50  and  C_54
   30  A    between atoms: C_52  and  C_54
   31  A    between atoms: C_60  and  C_63
   32  A    between atoms: C_63  and  C_65
                            x       y       z     vdW  Elec       q    Type
                         _______ _______ _______ _____ _____    ______ ____

>  <TORSDO>
F 32

$$$$
=
 OpenBabel11062418123D

 70 74  0  0  1  0  0  0  0  0999 V2000
  190.3180  176.7890  139.5550 C   0  0  1  0  0  3  0  0  0  0  0  0
  190.5650  177.9210  140.4080 O   0  0  0  0  0  0  0  0  0  0  0  0
  190.4840  177.4140  141.7380 C   0  0  2  0  0  3  0  0  0  0  0  0
  189.3500  179.4890  142.0970 O   0  0  0  0  0  1  0  0  0  0  0  0
  190.0590  178.4110  142.7430 C   0  0  2  0  0  3  0  0  0  0  0  0
  191.0080  178.9220  143.8190 C   0  0  0  0  0  2  0  0  0  0  0  0
  190.5060  178.5130  145.2280 C   0  0  1  0  0  3  0  0  0  0  0  0
  188.0480  176.7580  146.2740 C   0  0  0  0  0  2  0  0  0  0  0  0
  189.1040  179.0130  145.5680 C   0  0  0  0  0  2  0  0  0  0  0  0
  188.9420  176.9940  147.4620 C   0  0  0  0  0  2  0  0  0  0  0  0
  190.4300  176.8920  147.1170 C   0  0  0  0  0  2  0  0  0  0  0  0
  190.8020  177.0790  145.6500 C   0  0  0  0  0  2  0  0  0  0  0  0
  187.9960  178.0070  145.4080 C   0  0  1  0  0  3  0  0  0  0  0  0
  187.7570  177.6980  144.0460 O   0  0  0  0  0  0  0  0  0  0  0  0
  185.8280  177.1290  145.2560 O   0  0  0  0  0  1  0  0  0  0  0  0
  186.3280  177.5930  144.0300 C   0  0  1  0  0  3  0  0  0  0  0  0
  185.7660  178.9910  143.6530 C   0  0  1  0  0  3  0  0  0  0  0  0
  184.9160  178.8750  142.3800 C   0  0  0  0  0  3  0  0  0  0  0  0
  185.7880  178.5820  141.3430 F   0  0  0  0  0  0  0  0  0  0  0  0
  183.8840  177.9290  142.4220 F   0  0  0  0  0  0  0  0  0  0  0  0
  185.0320  179.5360  144.6760 O   0  0  0  0  0  0  0  0  0  0  0  0
  183.7030  179.8010  144.2030 C   0  0  0  0  0  2  0  0  0  0  0  0
  181.4190  179.1970  144.5330 O   0  0  0  0  0  1  0  0  0  0  0  0
  182.7190  178.6910  144.5880 C   0  0  0  0  0  2  0  0  0  0  0  0
  191.7730  176.6760  142.0620 C   0  0  0  0  0  2  0  0  0  0  0  0
  192.1220  175.1050  144.0740 C   0  0  0  0  0  1  0  0  0  0  0  0
  191.4660  175.3390  142.7430 C   0  0  1  0  0  3  0  0  0  0  0  0
  189.5740  174.9600  143.8130 O   0  0  0  0  0  1  0  0  0  0  0  0
  190.1210  174.9450  142.6240 O   0  0  0  0  0  0  0  0  0  0  0  0
  188.9860  176.7580  139.0390 O   0  0  0  0  0  0  0  0  0  0  0  0
  188.3320  177.9190  138.8460 C   0  0  0  0  0  0  0  0  0  0  0  0
  188.1100  178.7940  139.7240 O   0  0  0  0  0  0  0  0  0  0  0  0
  187.9590  178.2360  137.5010 C   0  0  0  0  0  2  0  0  0  0  0  0
  186.8110  176.9510  137.0320 P   0  0  1  0  0  4  0  0  0  0  0  0
  187.1410  175.4910  137.2200 O   0  0  0  0  0  0  0  0  0  0  0  0
  185.1260  177.5270  136.9770 C   0  0  1  0  0  3  0  0  0  0  0  0
  184.1780  176.5180  136.3090 C   0  0  1  0  0  3  0  0  0  0  0  0
  185.8130  173.0970  136.2110 C   0  0  0  0  0  2  0  0  0  0  0  0
  184.4790  173.6470  136.0040 C   0  0  1  0  0  0  0  0  0  0  0  0
  185.6580  173.9690  135.1830 O   0  0  0  0  0  0  0  0  0  0  0  0
  183.3890  174.4710  135.5330 C   0  0  1  0  0  3  0  0  0  0  0  0
  182.2910  173.8330  135.9560 F   0  0  0  0  0  0  0  0  0  0  0  0
  184.2090  175.0310  136.7150 C   0  0  2  0  0  0  0  0  0  0  0  0
  183.6300  174.7240  138.1130 C   0  0  0  0  0  1  0  0  0  0  0  0
  183.4770  178.2420  134.7420 O   0  0  0  0  0  1  0  0  0  0  0  0
  183.0460  177.1080  135.3920 C   0  0  2  0  0  3  0  0  0  0  0  0
  180.9970  176.2490  136.4700 O   0  0  0  0  0  1  0  0  0  0  0  0
  181.7800  177.3300  136.0560 C   0  0  0  0  0  0  0  0  0  0  0  0
  181.3200  178.5260  136.3400 O   0  0  0  0  0  0  0  0  0  0  0  0
  184.6850  178.2440  138.2220 O   0  0  0  0  0  0  0  0  0  0  0  0
  182.6740  179.5090  138.9300 C   0  0  0  0  0  3  0  0  0  0  0  0
  181.4050  179.4730  139.5530 C   0  0  0  0  0  3  0  0  0  0  0  0
  181.7490  177.1500  140.1320 C   0  0  0  0  0  3  0  0  0  0  0  0
  180.9210  178.2930  140.1480 C   0  0  0  0  0  3  0  0  0  0  0  0
  183.5060  178.3310  138.8710 C   0  0  0  0  0  0  0  0  0  0  0  0
  183.0100  177.2000  139.5350 C   0  0  0  0  0  3  0  0  0  0  0  0
  191.3640  176.8290  138.4430 C   0  0  0  0  0  2  0  0  0  0  0  0
  190.7830  174.5790  137.6110 F   0  0  0  0  0  0  0  0  0  0  0  0
  190.8640  175.9250  137.3130 C   0  0  2  0  0  3  0  0  0  0  0  0
  191.2450  176.2800  135.9100 C   0  0  0  0  0  2  0  0  0  0  0  0
  194.9790  175.8050  136.1120 C   0  0  0  0  0  3  0  0  0  0  0  0
  195.1470  174.6110  135.3730 C   0  0  0  0  0  0  0  0  0  0  0  0
  192.8120  174.6560  134.8950 N   0  0  0  0  0  0  0  0  0  0  0  0
  194.0030  174.0720  134.7630 C   0  0  0  0  0  3  0  0  0  0  0  0
  193.7120  176.3970  136.2460 C   0  0  0  0  0  3  0  0  0  0  0  0
  192.6060  175.7810  135.6410 C   0  0  0  0  0  0  0  0  0  0  0  0
  196.3280  173.9300  135.2700 O   0  0  0  0  0  0  0  0  0  0  0  0
  197.4630  171.9550  135.4190 O   0  0  0  0  0  1  0  0  0  0  0  0
  197.6100  173.4710  137.2470 C   0  0  0  0  0  1  0  0  0  0  0  0
  196.7400  172.8860  136.1430 C   0  0  1  0  0  3  0  0  0  0  0  0
  1 57  1  6  0  0  0
  1  2  1  0  0  0  0
  2  3  1  0  0  0  0
  3 25  1  1  0  0  0
  3  5  1  0  0  0  0
  5  4  1  6  0  0  0
  5  6  1  0  0  0  0
  7  6  1  6  0  0  0
  7  9  1  0  0  0  0
  7 12  1  0  0  0  0
  8 10  1  0  0  0  0
 11 10  1  0  0  0  0
 12 11  1  0  0  0  0
 13 14  1  6  0  0  0
 13  9  1  0  0  0  0
 13  8  1  0  0  0  0
 16 14  1  0  0  0  0
 16 15  1  1  0  0  0
 17 18  1  6  0  0  0
 17 16  1  0  0  0  0
 17 21  1  0  0  0  0
 18 20  1  0  0  0  0
 19 18  1  0  0  0  0
 22 24  1  0  0  0  0
 22 21  1  0  0  0  0
 23 24  1  0  0  0  0
 25 27  1  0  0  0  0
 27 26  1  1  0  0  0
 29 27  1  0  0  0  0
 29 28  1  0  0  0  0
 30  1  1  0  0  0  0
 31 30  1  0  0  0  0
 31 32  2  0  0  0  0
 33 31  1  0  0  0  0
 34 35  2  1  0  0  0
 34 33  1  0  0  0  0
 36 34  1  0  0  0  0
 36 50  1  1  0  0  0
 37 46  1  1  0  0  0
 37 43  1  0  0  0  0
 37 36  1  0  0  0  0
 39 38  1  1  0  0  0
 39 43  1  0  0  0  0
 40 39  1  0  0  0  0
 40 38  1  0  0  0  0
 41 42  1  1  0  0  0
 41 39  1  0  0  0  0
 41 43  1  0  0  0  0
 43 44  1  1  0  0  0
 46 45  1  1  0  0  0
 46 48  1  0  0  0  0
 48 49  2  0  0  0  0
 48 47  1  0  0  0  0
 50 55  1  0  0  0  0
 51 52  1  0  0  0  0
 52 54  2  0  0  0  0
 53 54  1  0  0  0  0
 55 51  2  0  0  0  0
 55 56  1  0  0  0  0
 56 53  2  0  0  0  0
 59 58  1  1  0  0  0
 59 57  1  0  0  0  0
 60 59  1  0  0  0  0
 61 65  1  0  0  0  0
 62 61  2  0  0  0  0
 63 66  1  0  0  0  0
 64 63  2  0  0  0  0
 64 62  1  0  0  0  0
 66 60  1  0  0  0  0
 66 65  2  0  0  0  0
 67 62  1  0  0  0  0
 67 70  1  0  0  0  0
 68 70  1  0  0  0  0
 70 69  1  1  0  0  0
M  END
>  <MODEL>
5

>  <REMARK>
 VINA RESULT:      -2.1      2.434      8.873
  Name = 
  32 active torsions:
  status: ('A' for Active; 'I' for Inactive)
    1  A    between atoms: O_1  and  C_20
    2  A    between atoms: O_1  and  C_22
    3  A    between atoms: C_5  and  C_65
    4  A    between atoms: C_6  and  C_20
    5  A    between atoms: C_7  and  O_11
    6  A    between atoms: C_7  and  C_66
    7  A    between atoms: C_9  and  C_31
    8  A    between atoms: C_9  and  C_59
    9  A    between atoms: O_10  and  C_50
   10  A    between atoms: O_10  and  C_64
   11  A    between atoms: O_11  and  C_59
   12  A    between atoms: C_16  and  O_41
   13  A    between atoms: O_17  and  C_61
   14  A    between atoms: O_17  and  C_70
   15  A    between atoms: C_18  and  C_48
   16  A    between atoms: C_20  and  C_70
   17  A    between atoms: O_21  and  C_42
   18  A    between atoms: C_22  and  C_46
   19  A    between atoms: C_27  and  C_31
   20  A    between atoms: C_27  and  C_57
   21  A    between atoms: O_32  and  C_59
   22  A    between atoms: O_32  and  C_60
   23  A    between atoms: C_33  and  C_42
   24  A    between atoms: C_33  and  C_60
   25  A    between atoms: P_38  and  C_50
   26  A    between atoms: P_38  and  C_66
   27  A    between atoms: O_41  and  C_62
   28  A    between atoms: C_48  and  C_54
   29  A    between atoms: C_50  and  C_54
   30  A    between atoms: C_52  and  C_54
   31  A    between atoms: C_60  and  C_63
   32  A    between atoms: C_63  and  C_65
                            x       y       z     vdW  Elec       q    Type
                         _______ _______ _______ _____ _____    ______ ____

>  <TORSDO>
F 32

$$$$
=
 OpenBabel11062418123D

 70 74  0  0  1  0  0  0  0  0999 V2000
  190.3040  176.8600  139.1320 C   0  0  1  0  0  3  0  0  0  0  0  0
  190.8630  175.5480  138.9350 O   0  0  0  0  0  0  0  0  0  0  0  0
  191.3800  175.5550  137.6070 C   0  0  2  0  0  3  0  0  0  0  0  0
  193.3770  174.2650  137.3520 O   0  0  0  0  0  1  0  0  0  0  0  0
  192.8550  175.5980  137.5290 C   0  0  2  0  0  3  0  0  0  0  0  0
  193.6890  176.4070  138.5130 C   0  0  0  0  0  2  0  0  0  0  0  0
  194.7530  175.5080  139.1940 C   0  0  1  0  0  3  0  0  0  0  0  0
  197.7970  174.7990  138.5280 C   0  0  0  0  0  2  0  0  0  0  0  0
  195.2550  174.3570  138.3270 C   0  0  0  0  0  2  0  0  0  0  0  0
  197.5280  174.2730  139.9130 C   0  0  0  0  0  2  0  0  0  0  0  0
  196.6730  175.2240  140.7550 C   0  0  0  0  0  2  0  0  0  0  0  0
  195.8300  176.2380  139.9890 C   0  0  0  0  0  2  0  0  0  0  0  0
  196.5780  174.5820  137.6460 C   0  0  1  0  0  3  0  0  0  0  0  0
  196.4850  175.5570  136.6220 O   0  0  0  0  0  0  0  0  0  0  0  0
  194.9130  175.5760  134.8810 O   0  0  0  0  0  1  0  0  0  0  0  0
  195.8580  174.8060  135.5760 C   0  0  1  0  0  3  0  0  0  0  0  0
  196.9850  174.2760  134.6480 C   0  0  1  0  0  3  0  0  0  0  0  0
  198.1270  175.3000  134.5940 C   0  0  0  0  0  3  0  0  0  0  0  0
  197.5380  176.5550  134.6000 F   0  0  0  0  0  0  0  0  0  0  0  0
  199.0760  175.2100  135.6200 F   0  0  0  0  0  0  0  0  0  0  0  0
  197.4520  173.0540  135.0630 O   0  0  0  0  0  0  0  0  0  0  0  0
  196.3540  172.1310  135.1150 C   0  0  0  0  0  2  0  0  0  0  0  0
  198.1190  170.8040  136.0180 O   0  0  0  0  0  1  0  0  0  0  0  0
  196.7880  170.7440  135.6020 C   0  0  0  0  0  2  0  0  0  0  0  0
  190.6570  176.6270  136.8040 C   0  0  0  0  0  2  0  0  0  0  0  0
  191.4080  175.0450  134.9150 C   0  0  0  0  0  1  0  0  0  0  0  0
  190.5760  176.2250  135.3290 C   0  0  1  0  0  3  0  0  0  0  0  0
  188.7900  175.0830  134.7110 O   0  0  0  0  0  1  0  0  0  0  0  0
  189.2750  176.2970  134.7990 O   0  0  0  0  0  0  0  0  0  0  0  0
  188.9030  176.8360  139.4080 O   0  0  0  0  0  0  0  0  0  0  0  0
  188.0330  176.9380  138.3850 C   0  0  0  0  0  0  0  0  0  0  0  0
  187.7060  176.0090  137.6010 O   0  0  0  0  0  0  0  0  0  0  0  0
  187.3360  178.1800  138.2510 C   0  0  0  0  0  2  0  0  0  0  0  0
  186.2950  177.9660  136.8150 P   0  0  1  0  0  4  0  0  0  0  0  0
  186.8470  178.0860  135.4160 O   0  0  0  0  0  0  0  0  0  0  0  0
  184.8390  177.0020  137.1650 C   0  0  1  0  0  3  0  0  0  0  0  0
  183.5900  177.8740  137.3780 C   0  0  1  0  0  3  0  0  0  0  0  0
  180.6560  179.6920  135.8070 C   0  0  0  0  0  2  0  0  0  0  0  0
  180.9870  178.3210  136.1740 C   0  0  1  0  0  0  0  0  0  0  0  0
  180.8620  179.4390  137.1240 O   0  0  0  0  0  0  0  0  0  0  0  0
  181.4200  177.1650  136.9260 C   0  0  1  0  0  3  0  0  0  0  0  0
  181.0700  176.1260  136.1580 F   0  0  0  0  0  0  0  0  0  0  0  0
  182.5320  178.0080  136.2650 C   0  0  2  0  0  0  0  0  0  0  0  0
  182.9840  177.5150  134.8730 C   0  0  0  0  0  1  0  0  0  0  0  0
  184.4800  178.3110  139.6000 O   0  0  0  0  0  1  0  0  0  0  0  0
  183.3410  178.4110  138.8340 C   0  0  2  0  0  3  0  0  0  0  0  0
  182.2390  176.5140  139.9680 O   0  0  0  0  0  1  0  0  0  0  0  0
  182.1990  177.8330  139.5080 C   0  0  0  0  0  0  0  0  0  0  0  0
  181.0990  178.5050  139.7570 O   0  0  0  0  0  0  0  0  0  0  0  0
  184.7300  175.7430  136.3520 O   0  0  0  0  0  0  0  0  0  0  0  0
  183.0740  173.9260  136.6720 C   0  0  0  0  0  3  0  0  0  0  0  0
  182.8500  172.5500  136.9070 C   0  0  0  0  0  3  0  0  0  0  0  0
  185.2270  172.2030  137.1810 C   0  0  0  0  0  3  0  0  0  0  0  0
  183.9200  171.6710  137.1500 C   0  0  0  0  0  3  0  0  0  0  0  0
  184.4110  174.4680  136.6570 C   0  0  0  0  0  0  0  0  0  0  0  0
  185.4380  173.5670  136.9700 C   0  0  0  0  0  3  0  0  0  0  0  0
  191.0990  177.5200  140.2550 C   0  0  0  0  0  2  0  0  0  0  0  0
  189.3190  177.6050  141.9640 F   0  0  0  0  0  0  0  0  0  0  0  0
  190.5140  177.0270  141.5810 C   0  0  2  0  0  3  0  0  0  0  0  0
  191.4660  176.6650  142.6780 C   0  0  0  0  0  2  0  0  0  0  0  0
  188.9860  177.8250  145.2690 C   0  0  0  0  0  3  0  0  0  0  0  0
  189.6580  177.4880  146.4660 C   0  0  0  0  0  0  0  0  0  0  0  0
  191.5170  176.7880  145.1490 N   0  0  0  0  0  0  0  0  0  0  0  0
  190.9570  176.9690  146.3450 C   0  0  0  0  0  3  0  0  0  0  0  0
  189.5930  177.6150  144.0180 C   0  0  0  0  0  3  0  0  0  0  0  0
  190.8780  177.0560  143.9720 C   0  0  0  0  0  0  0  0  0  0  0  0
  189.1030  177.5810  147.7120 O   0  0  0  0  0  0  0  0  0  0  0  0
  187.5680  177.0960  149.3300 O   0  0  0  0  0  1  0  0  0  0  0  0
  186.9930  178.7280  147.6970 C   0  0  0  0  0  1  0  0  0  0  0  0
  187.7180  177.4220  147.9950 C   0  0  1  0  0  3  0  0  0  0  0  0
  1 30  1  0  0  0  0
  1 57  1  1  0  0  0
  2  1  1  0  0  0  0
  3 25  1  6  0  0  0
  3  2  1  0  0  0  0
  5  4  1  1  0  0  0
  5  3  1  0  0  0  0
  5  6  1  0  0  0  0
  7  6  1  6  0  0  0
  7 12  1  0  0  0  0
  8 10  1  0  0  0  0
  9  7  1  0  0  0  0
 10 11  1  0  0  0  0
 12 11  1  0  0  0  0
 13 14  1  6  0  0  0
 13  9  1  0  0  0  0
 13  8  1  0  0  0  0
 16 15  1  6  0  0  0
 16 14  1  0  0  0  0
 17 18  1  1  0  0  0
 17 21  1  0  0  0  0
 17 16  1  0  0  0  0
 18 19  1  0  0  0  0
 18 20  1  0  0  0  0
 21 22  1  0  0  0  0
 22 24  1  0  0  0  0
 24 23  1  0  0  0  0
 27 26  1  1  0  0  0
 27 25  1  0  0  0  0
 28 29  1  0  0  0  0
 29 27  1  0  0  0  0
 31 30  1  0  0  0  0
 32 31  2  0  0  0  0
 33 31  1  0  0  0  0
 34 35  2  6  0  0  0
 34 36  1  0  0  0  0
 34 33  1  0  0  0  0
 36 50  1  6  0  0  0
 37 36  1  1  0  0  0
 37 46  1  0  0  0  0
 38 40  1  0  0  0  0
 39 38  1  6  0  0  0
 39 43  1  0  0  0  0
 39 41  1  0  0  0  0
 39 40  1  0  0  0  0
 41 42  1  6  0  0  0
 43 44  1  6  0  0  0
 43 41  1  0  0  0  0
 43 37  1  0  0  0  0
 46 48  1  0  0  0  0
 46 45  1  1  0  0  0
 48 49  2  0  0  0  0
 48 47  1  0  0  0  0
 50 55  1  0  0  0  0
 51 52  1  0  0  0  0
 52 54  2  0  0  0  0
 54 53  1  0  0  0  0
 55 51  2  0  0  0  0
 55 56  1  0  0  0  0
 56 53  2  0  0  0  0
 57 59  1  0  0  0  0
 59 58  1  1  0  0  0
 59 60  1  0  0  0  0
 60 66  1  0  0  0  0
 61 62  1  0  0  0  0
 62 67  1  0  0  0  0
 63 64  1  0  0  0  0
 64 62  2  0  0  0  0
 65 61  2  0  0  0  0
 66 65  1  0  0  0  0
 66 63  2  0  0  0  0
 67 70  1  0  0  0  0
 70 69  1  1  0  0  0
 70 68  1  0  0  0  0
M  END
>  <MODEL>
6

>  <REMARK>
 VINA RESULT:      -2.0      2.925     11.259
  Name = 
  32 active torsions:
  status: ('A' for Active; 'I' for Inactive)
    1  A    between atoms: O_1  and  C_20
    2  A    between atoms: O_1  and  C_22
    3  A    between atoms: C_5  and  C_65
    4  A    between atoms: C_6  and  C_20
    5  A    between atoms: C_7  and  O_11
    6  A    between atoms: C_7  and  C_66
    7  A    between atoms: C_9  and  C_31
    8  A    between atoms: C_9  and  C_59
    9  A    between atoms: O_10  and  C_50
   10  A    between atoms: O_10  and  C_64
   11  A    between atoms: O_11  and  C_59
   12  A    between atoms: C_16  and  O_41
   13  A    between atoms: O_17  and  C_61
   14  A    between atoms: O_17  and  C_70
   15  A    between atoms: C_18  and  C_48
   16  A    between atoms: C_20  and  C_70
   17  A    between atoms: O_21  and  C_42
   18  A    between atoms: C_22  and  C_46
   19  A    between atoms: C_27  and  C_31
   20  A    between atoms: C_27  and  C_57
   21  A    between atoms: O_32  and  C_59
   22  A    between atoms: O_32  and  C_60
   23  A    between atoms: C_33  and  C_42
   24  A    between atoms: C_33  and  C_60
   25  A    between atoms: P_38  and  C_50
   26  A    between atoms: P_38  and  C_66
   27  A    between atoms: O_41  and  C_62
   28  A    between atoms: C_48  and  C_54
   29  A    between atoms: C_50  and  C_54
   30  A    between atoms: C_52  and  C_54
   31  A    between atoms: C_60  and  C_63
   32  A    between atoms: C_63  and  C_65
                            x       y       z     vdW  Elec       q    Type
                         _______ _______ _______ _____ _____    ______ ____

>  <TORSDO>
F 32

$$$$
=
 OpenBabel11062418123D

 70 74  0  0  1  0  0  0  0  0999 V2000
  186.2200  179.2200  142.1980 C   0  0  1  0  0  3  0  0  0  0  0  0
  187.5310  178.7620  142.5720 O   0  0  0  0  0  0  0  0  0  0  0  0
  188.2150  178.5330  141.3430 C   0  0  2  0  0  3  0  0  0  0  0  0
  187.3620  176.3200  141.6540 O   0  0  0  0  0  1  0  0  0  0  0  0
  187.8640  177.2590  140.6800 C   0  0  2  0  0  3  0  0  0  0  0  0
  188.7940  176.5910  139.6770 C   0  0  0  0  0  2  0  0  0  0  0  0
  188.6190  177.2150  138.2690 C   0  0  1  0  0  3  0  0  0  0  0  0
  188.6230  176.0170  135.3070 C   0  0  0  0  0  2  0  0  0  0  0  0
  189.8270  177.0500  137.3510 C   0  0  0  0  0  2  0  0  0  0  0  0
  188.1270  177.4340  135.1950 C   0  0  0  0  0  2  0  0  0  0  0  0
  187.1780  177.8240  136.3310 C   0  0  0  0  0  2  0  0  0  0  0  0
  187.2650  176.9900  137.6050 C   0  0  0  0  0  2  0  0  0  0  0  0
  189.7330  175.9370  136.3420 C   0  0  1  0  0  3  0  0  0  0  0  0
  189.7920  174.6620  136.9570 O   0  0  0  0  0  0  0  0  0  0  0  0
  190.9640  173.1590  135.5880 O   0  0  0  0  0  1  0  0  0  0  0  0
  189.7360  173.7980  135.8150 C   0  0  1  0  0  3  0  0  0  0  0  0
  188.5800  172.7890  136.0560 C   0  0  1  0  0  3  0  0  0  0  0  0
  188.2120  172.7780  137.5460 C   0  0  0  0  0  3  0  0  0  0  0  0
  186.9530  173.3480  137.6500 F   0  0  0  0  0  0  0  0  0  0  0  0
  188.2260  171.5230  138.1680 F   0  0  0  0  0  0  0  0  0  0  0  0
  187.4810  173.0830  135.2890 O   0  0  0  0  0  0  0  0  0  0  0  0
  186.9850  171.8700  134.7040 C   0  0  0  0  0  2  0  0  0  0  0  0
  187.6400  169.7400  135.5550 O   0  0  0  0  0  1  0  0  0  0  0  0
  186.7330  170.7820  135.7540 C   0  0  0  0  0  2  0  0  0  0  0  0
  189.7030  178.7620  141.5580 C   0  0  0  0  0  2  0  0  0  0  0  0
  190.5560  176.8640  143.0770 C   0  0  0  0  0  1  0  0  0  0  0  0
  190.1180  178.2960  142.9560 C   0  0  1  0  0  3  0  0  0  0  0  0
  192.1390  178.9230  143.5840 O   0  0  0  0  0  1  0  0  0  0  0  0
  190.8730  179.2490  143.6640 O   0  0  0  0  0  0  0  0  0  0  0  0
  186.0360  179.2960  140.7830 O   0  0  0  0  0  0  0  0  0  0  0  0
  184.7840  179.3220  140.2870 C   0  0  0  0  0  0  0  0  0  0  0  0
  184.2690  180.2710  139.6390 O   0  0  0  0  0  0  0  0  0  0  0  0
  184.0150  178.1220  140.4080 C   0  0  0  0  0  2  0  0  0  0  0  0
  183.3750  177.8230  138.7680 P   0  0  1  0  0  4  0  0  0  0  0  0
  184.1480  177.0160  137.7540 O   0  0  0  0  0  0  0  0  0  0  0  0
  181.6010  177.9650  138.6900 C   0  0  1  0  0  3  0  0  0  0  0  0
  181.0360  177.5640  137.3170 C   0  0  1  0  0  3  0  0  0  0  0  0
  179.1680  174.6440  138.8580 C   0  0  0  0  0  2  0  0  0  0  0  0
  180.0850  174.8550  137.7440 C   0  0  1  0  0  0  0  0  0  0  0  0
  180.4180  175.0800  139.1610 O   0  0  0  0  0  0  0  0  0  0  0  0
  181.2270  175.2720  136.9640 C   0  0  1  0  0  3  0  0  0  0  0  0
  181.0750  174.6360  135.7960 F   0  0  0  0  0  0  0  0  0  0  0  0
  180.1240  176.3300  137.1800 C   0  0  2  0  0  0  0  0  0  0  0  0
  179.0740  176.4160  136.0490 C   0  0  0  0  0  1  0  0  0  0  0  0
  182.5540  178.9700  136.0380 O   0  0  0  0  0  1  0  0  0  0  0  0
  181.2370  178.5880  136.1420 C   0  0  2  0  0  3  0  0  0  0  0  0
  179.2010  179.7670  135.3900 O   0  0  0  0  0  0  0  0  0  0  0  0
  180.3550  179.7340  136.1770 C   0  0  0  0  0  0  0  0  0  0  0  0
  180.5580  180.7700  136.9590 O   0  0  0  0  0  1  0  0  0  0  0  0
  180.8970  177.5160  139.9390 O   0  0  0  0  0  0  0  0  0  0  0  0
  181.6700  178.8100  141.9070 C   0  0  0  0  0  3  0  0  0  0  0  0
  181.3210  179.4660  143.1090 C   0  0  0  0  0  3  0  0  0  0  0  0
  179.0430  178.6900  142.8790 C   0  0  0  0  0  3  0  0  0  0  0  0
  180.0040  179.4280  143.6030 C   0  0  0  0  0  3  0  0  0  0  0  0
  180.6810  178.0930  141.1390 C   0  0  0  0  0  0  0  0  0  0  0  0
  179.4000  178.0260  141.7050 C   0  0  0  0  0  3  0  0  0  0  0  0
  185.2130  178.2820  142.8580 C   0  0  0  0  0  2  0  0  0  0  0  0
  185.6270  179.9510  144.6300 F   0  0  0  0  0  0  0  0  0  0  0  0
  185.0500  178.7370  144.3110 C   0  0  2  0  0  3  0  0  0  0  0  0
  185.0580  177.6890  145.3800 C   0  0  0  0  0  2  0  0  0  0  0  0
  187.5820  177.7060  148.1800 C   0  0  0  0  0  3  0  0  0  0  0  0
  188.7910  177.5420  147.4640 C   0  0  0  0  0  0  0  0  0  0  0  0
  187.5320  177.6430  145.4430 N   0  0  0  0  0  0  0  0  0  0  0  0
  188.7060  177.5260  146.0640 C   0  0  0  0  0  3  0  0  0  0  0  0
  186.3540  177.8150  147.5050 C   0  0  0  0  0  3  0  0  0  0  0  0
  186.3410  177.7520  146.1040 C   0  0  0  0  0  0  0  0  0  0  0  0
  190.0090  177.3420  148.0500 O   0  0  0  0  0  0  0  0  0  0  0  0
  190.5570  175.3080  147.1700 O   0  0  0  0  0  1  0  0  0  0  0  0
  191.5860  177.2410  146.2410 C   0  0  0  0  0  1  0  0  0  0  0  0
  191.0560  176.5560  147.4930 C   0  0  1  0  0  3  0  0  0  0  0  0
  1  2  1  0  0  0  0
  1 57  1  6  0  0  0
  3 25  1  1  0  0  0
  3  2  1  0  0  0  0
  5  3  1  0  0  0  0
  5  4  1  1  0  0  0
  6  5  1  0  0  0  0
  7  6  1  1  0  0  0
  8 13  1  0  0  0  0
  9  7  1  0  0  0  0
 10  8  1  0  0  0  0
 10 11  1  0  0  0  0
 11 12  1  0  0  0  0
 12  7  1  0  0  0  0
 13 14  1  1  0  0  0
 13  9  1  0  0  0  0
 16 15  1  1  0  0  0
 16 17  1  0  0  0  0
 16 14  1  0  0  0  0
 17 21  1  6  0  0  0
 17 18  1  0  0  0  0
 18 19  1  0  0  0  0
 18 20  1  0  0  0  0
 22 21  1  0  0  0  0
 22 24  1  0  0  0  0
 23 24  1  0  0  0  0
 25 27  1  0  0  0  0
 27 26  1  6  0  0  0
 27 29  1  0  0  0  0
 28 29  1  0  0  0  0
 30  1  1  0  0  0  0
 31 33  1  0  0  0  0
 31 30  1  0  0  0  0
 32 31  2  0  0  0  0
 34 35  2  1  0  0  0
 34 33  1  0  0  0  0
 36 34  1  0  0  0  0
 36 50  1  1  0  0  0
 37 46  1  1  0  0  0
 37 36  1  0  0  0  0
 38 40  1  0  0  0  0
 39 38  1  6  0  0  0
 39 40  1  0  0  0  0
 41 42  1  6  0  0  0
 41 43  1  0  0  0  0
 41 39  1  0  0  0  0
 43 44  1  6  0  0  0
 43 37  1  0  0  0  0
 43 39  1  0  0  0  0
 46 45  1  1  0  0  0
 46 48  1  0  0  0  0
 47 48  2  0  0  0  0
 48 49  1  0  0  0  0
 50 55  1  0  0  0  0
 51 52  1  0  0  0  0
 52 54  2  0  0  0  0
 53 54  1  0  0  0  0
 55 56  1  0  0  0  0
 55 51  2  0  0  0  0
 56 53  2  0  0  0  0
 57 59  1  0  0  0  0
 59 58  1  1  0  0  0
 59 60  1  0  0  0  0
 60 66  1  0  0  0  0
 62 67  1  0  0  0  0
 62 61  2  0  0  0  0
 63 64  2  0  0  0  0
 63 66  1  0  0  0  0
 64 62  1  0  0  0  0
 65 61  1  0  0  0  0
 66 65  2  0  0  0  0
 68 70  1  0  0  0  0
 70 69  1  6  0  0  0
 70 67  1  0  0  0  0
M  END
>  <MODEL>
7

>  <REMARK>
 VINA RESULT:      -1.9      3.450      9.615
  Name = 
  32 active torsions:
  status: ('A' for Active; 'I' for Inactive)
    1  A    between atoms: O_1  and  C_20
    2  A    between atoms: O_1  and  C_22
    3  A    between atoms: C_5  and  C_65
    4  A    between atoms: C_6  and  C_20
    5  A    between atoms: C_7  and  O_11
    6  A    between atoms: C_7  and  C_66
    7  A    between atoms: C_9  and  C_31
    8  A    between atoms: C_9  and  C_59
    9  A    between atoms: O_10  and  C_50
   10  A    between atoms: O_10  and  C_64
   11  A    between atoms: O_11  and  C_59
   12  A    between atoms: C_16  and  O_41
   13  A    between atoms: O_17  and  C_61
   14  A    between atoms: O_17  and  C_70
   15  A    between atoms: C_18  and  C_48
   16  A    between atoms: C_20  and  C_70
   17  A    between atoms: O_21  and  C_42
   18  A    between atoms: C_22  and  C_46
   19  A    between atoms: C_27  and  C_31
   20  A    between atoms: C_27  and  C_57
   21  A    between atoms: O_32  and  C_59
   22  A    between atoms: O_32  and  C_60
   23  A    between atoms: C_33  and  C_42
   24  A    between atoms: C_33  and  C_60
   25  A    between atoms: P_38  and  C_50
   26  A    between atoms: P_38  and  C_66
   27  A    between atoms: O_41  and  C_62
   28  A    between atoms: C_48  and  C_54
   29  A    between atoms: C_50  and  C_54
   30  A    between atoms: C_52  and  C_54
   31  A    between atoms: C_60  and  C_63
   32  A    between atoms: C_63  and  C_65
                            x       y       z     vdW  Elec       q    Type
                         _______ _______ _______ _____ _____    ______ ____

>  <TORSDO>
F 32

$$$$
=
 OpenBabel11062418123D

 70 74  0  0  1  0  0  0  0  0999 V2000
  190.6050  176.7010  139.0240 C   0  0  1  0  0  3  0  0  0  0  0  0
  189.8530  177.4080  138.0210 O   0  0  0  0  0  0  0  0  0  0  0  0
  188.5510  176.8280  138.0500 C   0  0  2  0  0  3  0  0  0  0  0  0
  187.9390  175.9740  135.9010 O   0  0  0  0  0  1  0  0  0  0  0  0
  188.4070  175.6150  137.2180 C   0  0  2  0  0  3  0  0  0  0  0  0
  187.7220  174.3590  137.7390 C   0  0  0  0  0  2  0  0  0  0  0  0
  188.1820  173.1140  136.9380 C   0  0  1  0  0  3  0  0  0  0  0  0
  186.8550  171.3730  134.6080 C   0  0  0  0  0  2  0  0  0  0  0  0
  187.2870  171.8890  137.1070 C   0  0  0  0  0  2  0  0  0  0  0  0
  188.2920  170.9340  134.7060 C   0  0  0  0  0  2  0  0  0  0  0  0
  189.2570  172.1010  134.9330 C   0  0  0  0  0  2  0  0  0  0  0  0
  188.6560  173.3760  135.5130 C   0  0  0  0  0  2  0  0  0  0  0  0
  186.3000  171.6420  135.9980 C   0  0  1  0  0  3  0  0  0  0  0  0
  185.2740  172.6190  135.9780 O   0  0  0  0  0  0  0  0  0  0  0  0
  184.3910  170.4970  135.5070 O   0  0  0  0  0  1  0  0  0  0  0  0
  184.1960  171.8820  135.3890 C   0  0  1  0  0  3  0  0  0  0  0  0
  182.8840  172.3550  136.0720 C   0  0  1  0  0  3  0  0  0  0  0  0
  182.8090  173.8870  136.0280 C   0  0  0  0  0  3  0  0  0  0  0  0
  183.1630  174.3410  137.2890 F   0  0  0  0  0  0  0  0  0  0  0  0
  183.6010  174.5080  135.0540 F   0  0  0  0  0  0  0  0  0  0  0  0
  181.7760  171.8000  135.4830 O   0  0  0  0  0  0  0  0  0  0  0  0
  180.6070  172.4820  135.9590 C   0  0  0  0  0  2  0  0  0  0  0  0
  180.0470  173.0480  138.2080 O   0  0  0  0  0  1  0  0  0  0  0  0
  180.1560  171.9670  137.3310 C   0  0  0  0  0  2  0  0  0  0  0  0
  187.5220  177.9180  137.7900 C   0  0  0  0  0  2  0  0  0  0  0  0
  185.2580  176.7820  137.3200 C   0  0  0  0  0  1  0  0  0  0  0  0
  186.4880  177.4420  136.7650 C   0  0  1  0  0  3  0  0  0  0  0  0
  187.3800  178.3610  134.9670 O   0  0  0  0  0  1  0  0  0  0  0  0
  186.2960  178.3440  135.7030 O   0  0  0  0  0  0  0  0  0  0  0  0
  189.7990  176.2460  140.1120 O   0  0  0  0  0  0  0  0  0  0  0  0
  190.2540  176.3990  141.3710 C   0  0  0  0  0  0  0  0  0  0  0  0
  191.0610  175.6320  141.9600 O   0  0  0  0  0  0  0  0  0  0  0  0
  189.8750  177.5960  142.0540 C   0  0  0  0  0  2  0  0  0  0  0  0
  189.4590  177.0660  143.7080 P   0  0  1  0  0  4  0  0  0  0  0  0
  190.5260  176.7450  144.7250 O   0  0  0  0  0  0  0  0  0  0  0  0
  187.8250  177.5770  144.1990 C   0  0  1  0  0  3  0  0  0  0  0  0
  187.6790  177.7060  145.7240 C   0  0  1  0  0  3  0  0  0  0  0  0
  190.8750  176.4770  147.3560 C   0  0  0  0  0  2  0  0  0  0  0  0
  189.6760  177.1950  147.7690 C   0  0  1  0  0  0  0  0  0  0  0  0
  189.6930  175.8170  147.2510 O   0  0  0  0  0  0  0  0  0  0  0  0
  188.2920  177.5630  147.9650 C   0  0  1  0  0  3  0  0  0  0  0  0
  188.3430  178.5760  148.8380 F   0  0  0  0  0  0  0  0  0  0  0  0
  188.9180  177.9530  146.6080 C   0  0  2  0  0  0  0  0  0  0  0  0
  189.4920  179.3850  146.5430 C   0  0  0  0  0  1  0  0  0  0  0  0
  185.3340  177.0930  145.5150 O   0  0  0  0  0  1  0  0  0  0  0  0
  186.2170  177.8100  146.2900 C   0  0  2  0  0  3  0  0  0  0  0  0
  185.2860  179.9370  145.4490 O   0  0  0  0  0  0  0  0  0  0  0  0
  185.7470  179.1590  146.5150 C   0  0  0  0  0  0  0  0  0  0  0  0
  185.6870  179.7070  147.7060 O   0  0  0  0  0  1  0  0  0  0  0  0
  187.2200  178.6250  143.3080 O   0  0  0  0  0  0  0  0  0  0  0  0
  186.0560  179.3760  141.2510 C   0  0  0  0  0  3  0  0  0  0  0  0
  184.9270  179.2460  140.4100 C   0  0  0  0  0  3  0  0  0  0  0  0
  183.9200  177.7150  141.9870 C   0  0  0  0  0  3  0  0  0  0  0  0
  183.8540  178.4050  140.7580 C   0  0  0  0  0  3  0  0  0  0  0  0
  186.1480  178.6370  142.4880 C   0  0  0  0  0  0  0  0  0  0  0  0
  185.0270  177.8660  142.8230 C   0  0  0  0  0  3  0  0  0  0  0  0
  191.3190  175.5510  138.3180 C   0  0  0  0  0  2  0  0  0  0  0  0
  191.3400  177.3240  136.6010 F   0  0  0  0  0  0  0  0  0  0  0  0
  191.8090  176.0780  136.9670 C   0  0  2  0  0  3  0  0  0  0  0  0
  192.0200  175.0890  135.8620 C   0  0  0  0  0  2  0  0  0  0  0  0
  195.7530  175.3100  136.3380 C   0  0  0  0  0  3  0  0  0  0  0  0
  196.1800  174.1020  135.7400 C   0  0  0  0  0  0  0  0  0  0  0  0
  193.9170  173.6840  135.1200 N   0  0  0  0  0  0  0  0  0  0  0  0
  195.1970  173.3120  135.1230 C   0  0  0  0  0  3  0  0  0  0  0  0
  194.3960  175.6760  136.3320 C   0  0  0  0  0  3  0  0  0  0  0  0
  193.4630  174.8190  135.7300 C   0  0  0  0  0  0  0  0  0  0  0  0
  197.4650  173.6370  135.7800 O   0  0  0  0  0  0  0  0  0  0  0  0
  198.3690  171.5790  136.1820 O   0  0  0  0  0  1  0  0  0  0  0  0
  199.1780  173.4230  137.4490 C   0  0  0  0  0  1  0  0  0  0  0  0
  197.9800  172.7650  136.7790 C   0  0  1  0  0  3  0  0  0  0  0  0
  1 57  1  6  0  0  0
  1 30  1  0  0  0  0
  2  3  1  0  0  0  0
  2  1  1  0  0  0  0
  3 25  1  6  0  0  0
  5  4  1  6  0  0  0
  5  6  1  0  0  0  0
  5  3  1  0  0  0  0
  7  9  1  0  0  0  0
  7  6  1  6  0  0  0
  8 10  1  0  0  0  0
  8 13  1  0  0  0  0
 10 11  1  0  0  0  0
 11 12  1  0  0  0  0
 12  7  1  0  0  0  0
 13 14  1  6  0  0  0
 13  9  1  0  0  0  0
 16 15  1  1  0  0  0
 16 14  1  0  0  0  0
 16 17  1  0  0  0  0
 17 21  1  6  0  0  0
 18 17  1  0  0  0  0
 18 19  1  0  0  0  0
 20 18  1  0  0  0  0
 21 22  1  0  0  0  0
 22 24  1  0  0  0  0
 24 23  1  0  0  0  0
 27 26  1  1  0  0  0
 27 25  1  0  0  0  0
 28 29  1  0  0  0  0
 29 27  1  0  0  0  0
 30 31  1  0  0  0  0
 31 32  2  0  0  0  0
 31 33  1  0  0  0  0
 33 34  1  0  0  0  0
 34 36  1  0  0  0  0
 34 35  2  1  0  0  0
 36 50  1  6  0  0  0
 37 36  1  6  0  0  0
 37 46  1  0  0  0  0
 37 43  1  0  0  0  0
 39 38  1  1  0  0  0
 39 41  1  0  0  0  0
 40 38  1  0  0  0  0
 40 39  1  0  0  0  0
 41 42  1  1  0  0  0
 43 44  1  6  0  0  0
 43 39  1  0  0  0  0
 43 41  1  0  0  0  0
 46 45  1  6  0  0  0
 46 48  1  0  0  0  0
 47 48  2  0  0  0  0
 48 49  1  0  0  0  0
 51 55  1  0  0  0  0
 52 54  1  0  0  0  0
 52 51  2  0  0  0  0
 53 56  1  0  0  0  0
 54 53  2  0  0  0  0
 55 56  2  0  0  0  0
 55 50  1  0  0  0  0
 59 58  1  6  0  0  0
 59 57  1  0  0  0  0
 60 59  1  0  0  0  0
 62 67  1  0  0  0  0
 62 61  2  0  0  0  0
 63 64  2  0  0  0  0
 63 66  1  0  0  0  0
 64 62  1  0  0  0  0
 65 61  1  0  0  0  0
 66 60  1  0  0  0  0
 66 65  2  0  0  0  0
 67 70  1  0  0  0  0
 68 70  1  0  0  0  0
 70 69  1  6  0  0  0
M  END
>  <MODEL>
8

>  <REMARK>
 VINA RESULT:      -1.7      1.917      2.739
  Name = 
  32 active torsions:
  status: ('A' for Active; 'I' for Inactive)
    1  A    between atoms: O_1  and  C_20
    2  A    between atoms: O_1  and  C_22
    3  A    between atoms: C_5  and  C_65
    4  A    between atoms: C_6  and  C_20
    5  A    between atoms: C_7  and  O_11
    6  A    between atoms: C_7  and  C_66
    7  A    between atoms: C_9  and  C_31
    8  A    between atoms: C_9  and  C_59
    9  A    between atoms: O_10  and  C_50
   10  A    between atoms: O_10  and  C_64
   11  A    between atoms: O_11  and  C_59
   12  A    between atoms: C_16  and  O_41
   13  A    between atoms: O_17  and  C_61
   14  A    between atoms: O_17  and  C_70
   15  A    between atoms: C_18  and  C_48
   16  A    between atoms: C_20  and  C_70
   17  A    between atoms: O_21  and  C_42
   18  A    between atoms: C_22  and  C_46
   19  A    between atoms: C_27  and  C_31
   20  A    between atoms: C_27  and  C_57
   21  A    between atoms: O_32  and  C_59
   22  A    between atoms: O_32  and  C_60
   23  A    between atoms: C_33  and  C_42
   24  A    between atoms: C_33  and  C_60
   25  A    between atoms: P_38  and  C_50
   26  A    between atoms: P_38  and  C_66
   27  A    between atoms: O_41  and  C_62
   28  A    between atoms: C_48  and  C_54
   29  A    between atoms: C_50  and  C_54
   30  A    between atoms: C_52  and  C_54
   31  A    between atoms: C_60  and  C_63
   32  A    between atoms: C_63  and  C_65
                            x       y       z     vdW  Elec       q    Type
                         _______ _______ _______ _____ _____    ______ ____

>  <TORSDO>
F 32

$$$$
=
 OpenBabel11062418123D

 70 74  0  0  1  0  0  0  0  0999 V2000
  186.6620  178.5730  142.2640 C   0  0  1  0  0  3  0  0  0  0  0  0
  187.9020  177.9150  142.5820 O   0  0  0  0  0  0  0  0  0  0  0  0
  188.6870  178.0000  141.3950 C   0  0  2  0  0  3  0  0  0  0  0  0
  189.7640  176.0700  142.3110 O   0  0  0  0  0  1  0  0  0  0  0  0
  189.4610  176.7780  141.0910 C   0  0  2  0  0  3  0  0  0  0  0  0
  190.6470  176.7940  140.1360 C   0  0  0  0  0  2  0  0  0  0  0  0
  190.1640  176.7990  138.6630 C   0  0  1  0  0  3  0  0  0  0  0  0
  190.9810  175.1280  136.0650 C   0  0  0  0  0  2  0  0  0  0  0  0
  191.2430  177.1590  137.6460 C   0  0  0  0  0  2  0  0  0  0  0  0
  189.7230  175.8770  135.7140 C   0  0  0  0  0  2  0  0  0  0  0  0
  188.7050  175.8990  136.8570 C   0  0  0  0  0  2  0  0  0  0  0  0
  189.2510  175.6480  138.2580 C   0  0  0  0  0  2  0  0  0  0  0  0
  191.8790  175.9980  136.9300 C   0  0  1  0  0  3  0  0  0  0  0  0
  192.6910  175.2250  137.7950 O   0  0  0  0  0  0  0  0  0  0  0  0
  194.9520  175.4160  137.2000 O   0  0  0  0  0  1  0  0  0  0  0  0
  193.7270  174.8000  136.9020 C   0  0  1  0  0  3  0  0  0  0  0  0
  193.8070  173.2510  136.9890 C   0  0  1  0  0  3  0  0  0  0  0  0
  193.5990  172.6500  135.5920 C   0  0  0  0  0  3  0  0  0  0  0  0
  192.8330  171.5060  135.7600 F   0  0  0  0  0  0  0  0  0  0  0  0
  193.0020  173.4940  134.6480 F   0  0  0  0  0  0  0  0  0  0  0  0
  195.0010  172.8340  137.5220 O   0  0  0  0  0  0  0  0  0  0  0  0
  194.8610  171.4750  137.9640 C   0  0  0  0  0  2  0  0  0  0  0  0
  197.2320  171.5780  137.7170 O   0  0  0  0  0  1  0  0  0  0  0  0
  196.2100  170.8420  138.3220 C   0  0  0  0  0  2  0  0  0  0  0  0
  189.4970  179.2870  141.4320 C   0  0  0  0  0  2  0  0  0  0  0  0
  189.7120  179.1210  143.9940 C   0  0  0  0  0  1  0  0  0  0  0  0
  190.3960  179.3160  142.6710 C   0  0  1  0  0  3  0  0  0  0  0  0
  192.0120  178.1690  143.6440 O   0  0  0  0  0  1  0  0  0  0  0  0
  191.6220  178.6500  142.4900 O   0  0  0  0  0  0  0  0  0  0  0  0
  186.3870  178.6030  140.8630 O   0  0  0  0  0  0  0  0  0  0  0  0
  185.1330  178.8620  140.4470 C   0  0  0  0  0  0  0  0  0  0  0  0
  184.4380  179.8580  140.7810 O   0  0  0  0  0  0  0  0  0  0  0  0
  184.5880  177.9910  139.4530 C   0  0  0  0  0  2  0  0  0  0  0  0
  183.7840  179.0770  138.2850 P   0  0  1  0  0  4  0  0  0  0  0  0
  184.5730  180.0320  137.4240 O   0  0  0  0  0  0  0  0  0  0  0  0
  182.1800  178.4820  137.7910 C   0  0  1  0  0  3  0  0  0  0  0  0
  181.0640  179.5070  138.0470 C   0  0  1  0  0  3  0  0  0  0  0  0
  179.4370  180.9740  141.1440 C   0  0  0  0  0  2  0  0  0  0  0  0
  180.1860  179.7710  140.8020 C   0  0  1  0  0  0  0  0  0  0  0  0
  180.7160  181.1430  140.7230 O   0  0  0  0  0  0  0  0  0  0  0  0
  181.2060  178.8870  140.2860 C   0  0  1  0  0  3  0  0  0  0  0  0
  180.8910  177.6910  140.7980 F   0  0  0  0  0  0  0  0  0  0  0  0
  180.1430  179.3680  139.2760 C   0  0  2  0  0  0  0  0  0  0  0  0
  178.9440  178.4120  139.0870 C   0  0  0  0  0  1  0  0  0  0  0  0
  181.9440  181.7380  137.6390 O   0  0  0  0  0  1  0  0  0  0  0  0
  181.0670  180.7980  137.1500 C   0  0  2  0  0  3  0  0  0  0  0  0
  179.1200  182.1240  137.8920 O   0  0  0  0  0  1  0  0  0  0  0  0
  179.7610  181.3700  136.9050 C   0  0  0  0  0  0  0  0  0  0  0  0
  179.1330  181.2550  135.7580 O   0  0  0  0  0  0  0  0  0  0  0  0
  182.1870  177.7040  136.5050 O   0  0  0  0  0  0  0  0  0  0  0  0
  183.9750  176.3970  135.3900 C   0  0  0  0  0  3  0  0  0  0  0  0
  184.5320  175.1230  135.1350 C   0  0  0  0  0  3  0  0  0  0  0  0
  182.6730  174.0750  136.2710 C   0  0  0  0  0  3  0  0  0  0  0  0
  183.8990  173.9500  135.5820 C   0  0  0  0  0  3  0  0  0  0  0  0
  182.7450  176.5330  136.1330 C   0  0  0  0  0  0  0  0  0  0  0  0
  182.1180  175.3340  136.5000 C   0  0  0  0  0  3  0  0  0  0  0  0
  185.5640  177.8600  143.0490 C   0  0  0  0  0  2  0  0  0  0  0  0
  185.7880  180.0080  144.2450 F   0  0  0  0  0  0  0  0  0  0  0  0
  185.1490  178.7840  144.1970 C   0  0  2  0  0  3  0  0  0  0  0  0
  184.7980  178.1590  145.5110 C   0  0  0  0  0  2  0  0  0  0  0  0
  188.2750  176.7750  145.9660 C   0  0  0  0  0  3  0  0  0  0  0  0
  188.4890  177.0120  147.3440 C   0  0  0  0  0  0  0  0  0  0  0  0
  186.2540  177.8270  147.4850 N   0  0  0  0  0  0  0  0  0  0  0  0
  187.4150  177.5440  148.0740 C   0  0  0  0  0  3  0  0  0  0  0  0
  187.0450  177.0920  145.3640 C   0  0  0  0  0  3  0  0  0  0  0  0
  186.0290  177.6570  146.1480 C   0  0  0  0  0  0  0  0  0  0  0  0
  189.6810  176.8120  147.9810 O   0  0  0  0  0  0  0  0  0  0  0  0
  191.6630  177.9430  147.9230 O   0  0  0  0  0  1  0  0  0  0  0  0
  191.7070  175.5900  147.5740 C   0  0  0  0  0  1  0  0  0  0  0  0
  190.9570  176.8970  147.3580 C   0  0  1  0  0  3  0  0  0  0  0  0
  1  2  1  0  0  0  0
  1 57  1  1  0  0  0
  3 25  1  1  0  0  0
  3  2  1  0  0  0  0
  5  3  1  0  0  0  0
  5  4  1  1  0  0  0
  6  5  1  0  0  0  0
  7  6  1  1  0  0  0
  8 13  1  0  0  0  0
  9  7  1  0  0  0  0
 10  8  1  0  0  0  0
 10 11  1  0  0  0  0
 11 12  1  0  0  0  0
 12  7  1  0  0  0  0
 13  9  1  0  0  0  0
 13 14  1  1  0  0  0
 16 17  1  0  0  0  0
 16 15  1  1  0  0  0
 16 14  1  0  0  0  0
 17 18  1  6  0  0  0
 17 21  1  0  0  0  0
 18 19  1  0  0  0  0
 20 18  1  0  0  0  0
 21 22  1  0  0  0  0
 22 24  1  0  0  0  0
 23 24  1  0  0  0  0
 25 27  1  0  0  0  0
 27 26  1  1  0  0  0
 29 27  1  0  0  0  0
 29 28  1  0  0  0  0
 30  1  1  0  0  0  0
 31 32  2  0  0  0  0
 31 30  1  0  0  0  0
 33 31  1  0  0  0  0
 34 35  2  6  0  0  0
 34 33  1  0  0  0  0
 36 50  1  6  0  0  0
 36 37  1  0  0  0  0
 36 34  1  0  0  0  0
 37 46  1  1  0  0  0
 37 43  1  0  0  0  0
 39 38  1  1  0  0  0
 40 39  1  0  0  0  0
 40 38  1  0  0  0  0
 41 42  1  1  0  0  0
 41 39  1  0  0  0  0
 43 44  1  6  0  0  0
 43 41  1  0  0  0  0
 43 39  1  0  0  0  0
 46 45  1  1  0  0  0
 48 46  1  0  0  0  0
 48 47  1  0  0  0  0
 49 48  2  0  0  0  0
 51 55  1  0  0  0  0
 52 51  2  0  0  0  0
 52 54  1  0  0  0  0
 53 56  1  0  0  0  0
 54 53  2  0  0  0  0
 55 56  2  0  0  0  0
 55 50  1  0  0  0  0
 57 59  1  0  0  0  0
 59 58  1  1  0  0  0
 59 60  1  0  0  0  0
 60 66  1  0  0  0  0
 61 62  1  0  0  0  0
 62 67  1  0  0  0  0
 62 64  2  0  0  0  0
 63 64  1  0  0  0  0
 65 61  2  0  0  0  0
 65 66  1  0  0  0  0
 66 63  2  0  0  0  0
 70 69  1  1  0  0  0
 70 68  1  0  0  0  0
 70 67  1  0  0  0  0
M  END
>  <MODEL>
9

>  <REMARK>
 VINA RESULT:      -1.7      3.602     10.772
  Name = 
  32 active torsions:
  status: ('A' for Active; 'I' for Inactive)
    1  A    between atoms: O_1  and  C_20
    2  A    between atoms: O_1  and  C_22
    3  A    between atoms: C_5  and  C_65
    4  A    between atoms: C_6  and  C_20
    5  A    between atoms: C_7  and  O_11
    6  A    between atoms: C_7  and  C_66
    7  A    between atoms: C_9  and  C_31
    8  A    between atoms: C_9  and  C_59
    9  A    between atoms: O_10  and  C_50
   10  A    between atoms: O_10  and  C_64
   11  A    between atoms: O_11  and  C_59
   12  A    between atoms: C_16  and  O_41
   13  A    between atoms: O_17  and  C_61
   14  A    between atoms: O_17  and  C_70
   15  A    between atoms: C_18  and  C_48
   16  A    between atoms: C_20  and  C_70
   17  A    between atoms: O_21  and  C_42
   18  A    between atoms: C_22  and  C_46
   19  A    between atoms: C_27  and  C_31
   20  A    between atoms: C_27  and  C_57
   21  A    between atoms: O_32  and  C_59
   22  A    between atoms: O_32  and  C_60
   23  A    between atoms: C_33  and  C_42
   24  A    between atoms: C_33  and  C_60
   25  A    between atoms: P_38  and  C_50
   26  A    between atoms: P_38  and  C_66
   27  A    between atoms: O_41  and  C_62
   28  A    between atoms: C_48  and  C_54
   29  A    between atoms: C_50  and  C_54
   30  A    between atoms: C_52  and  C_54
   31  A    between atoms: C_60  and  C_63
   32  A    between atoms: C_63  and  C_65
                            x       y       z     vdW  Elec       q    Type
                         _______ _______ _______ _____ _____    ______ ____

>  <TORSDO>
F 32

$$$$
