=
 OpenBabel11062413243D

 46 51  0  0  1  0  0  0  0  0999 V2000
  189.7920  177.4580  141.2880 C   0  0  1  0  0  3  0  0  0  0  0  0
  192.1840  174.9370  144.1920 O   0  0  0  0  0  0  0  0  0  0  0  0
  191.2240  175.6410  143.7770 C   0  0  0  0  0  0  0  0  0  0  0  0
  189.5910  176.4410  142.4170 C   0  0  2  0  0  3  0  0  0  0  0  0
  189.5130  177.1440  143.7890 C   0  0  2  0  0  3  0  0  0  0  0  0
  190.5710  176.5730  144.5490 O   0  0  0  0  0  0  0  0  0  0  0  0
  190.6860  175.5320  142.5170 O   0  0  0  0  0  0  0  0  0  0  0  0
  188.2940  176.8500  144.4030 O   0  0  0  0  0  0  0  0  0  0  0  0
  188.0660  177.9210  145.2680 C   0  0  0  0  0  2  0  0  0  0  0  0
  186.8040  177.7750  145.9030 O   0  0  0  0  0  0  0  0  0  0  0  0
  187.3190  178.5100  148.1040 O   0  0  0  0  0  0  0  0  0  0  0  0
  185.3780  179.1050  147.1040 O   0  0  0  0  0  0  0  0  0  0  0  0
  186.4650  178.4960  147.0310 N   0  0  0  0  0  0  0  0  0  0  0  0
  190.6520  176.3170  139.1940 C   0  0  0  0  0  3  0  0  0  0  0  0
  192.9990  176.4360  138.5850 C   0  0  0  0  0  0  0  0  0  0  0  0
  190.9010  177.0970  140.3350 C   0  0  0  0  0  0  0  0  0  0  0  0
  192.2020  177.5340  140.5960 C   0  0  0  0  0  3  0  0  0  0  0  0
  193.2450  177.2030  139.7250 C   0  0  0  0  0  3  0  0  0  0  0  0
  191.6950  175.9920  138.3240 C   0  0  0  0  0  3  0  0  0  0  0  0
  194.0870  176.1310  137.7030 N   0  0  0  0  0  2  0  0  0  0  0  0
  195.5940  174.8090  136.2670 C   0  0  0  0  0  1  0  0  0  0  0  0
  194.6740  174.8100  137.4820 C   0  0  1  0  0  3  0  0  0  0  0  0
  195.3730  174.2810  138.7010 C   0  0  0  0  0  0  0  0  0  0  0  0
  195.2240  173.0750  139.0270 O   0  0  0  0  0  0  0  0  0  0  0  0
  196.1890  175.1010  139.4750 O   0  0  0  0  0  1  0  0  0  0  0  0
  188.4820  177.7270  140.5680 C   0  0  0  0  0  2  0  0  0  0  0  0
  187.7720  178.9100  141.2030 C   0  0  0  0  0  2  0  0  0  0  0  0
  186.5220  178.4570  141.9550 C   0  0  0  0  0  2  0  0  0  0  0  0
  184.0240  178.6850  142.1810 C   0  0  0  0  0  0  0  0  0  0  0  0
  185.1080  179.4830  140.2610 O   0  0  0  0  0  0  0  0  0  0  0  0
  183.8290  178.4340  143.3600 O   0  0  0  0  0  0  0  0  0  0  0  0
  183.8330  178.9620  139.9440 C   0  0  2  0  0  0  0  0  0  0  0  0
  183.6400  178.5200  138.4900 C   0  0  2  0  0  3  0  0  0  0  0  0
  185.2720  179.2980  141.6510 C   0  0  2  0  0  3  0  0  0  0  0  0
  183.0690  179.8510  138.9900 C   0  0  0  0  0  2  0  0  0  0  0  0
  183.0350  178.4610  141.1290 C   0  0  0  0  0  2  0  0  0  0  0  0
  182.7960  176.9830  136.8400 O   0  0  0  0  0  0  0  0  0  0  0  0
  182.4930  177.5790  138.0700 C   0  0  1  0  0  3  0  0  0  0  0  0
  182.8060  176.1320  137.9680 C   0  0  1  0  0  3  0  0  0  0  0  0
  180.8090  175.2090  139.3290 C   0  0  0  0  0  2  0  0  0  0  0  0
  180.7220  172.9670  137.4790 C   0  0  0  0  0  0  0  0  0  0  0  0
  179.4190  173.4000  138.0740 C   0  0  0  0  0  2  0  0  0  0  0  0
  179.6640  174.1710  139.3800 C   0  0  0  0  0  2  0  0  0  0  0  0
  180.8380  171.8320  136.9470 O   0  0  0  0  0  0  0  0  0  0  0  0
  181.8160  173.8840  137.4880 N   0  0  0  0  0  2  0  0  0  0  0  0
  181.5650  175.2330  137.9940 C   0  0  2  0  0  3  0  0  0  0  0  0
  1 26  1  6  0  0  0
  3  2  2  0  0  0  0
  3  6  1  0  0  0  0
  4  1  1  6  0  0  0
  4  7  1  0  0  0  0
  4  5  1  0  0  0  0
  5  8  1  1  0  0  0
  5  6  1  0  0  0  0
  7  3  1  0  0  0  0
  8  9  1  0  0  0  0
  9 10  1  0  0  0  0
 10 13  1  0  0  0  0
 13 12  2  0  0  0  0
 13 11  2  0  0  0  0
 14 16  1  0  0  0  0
 15 18  2  0  0  0  0
 16 17  2  0  0  0  0
 16  1  1  0  0  0  0
 18 17  1  0  0  0  0
 19 15  1  0  0  0  0
 19 14  2  0  0  0  0
 20 15  1  0  0  0  0
 22 21  1  6  0  0  0
 22 20  1  0  0  0  0
 22 23  1  0  0  0  0
 23 24  2  0  0  0  0
 23 25  1  0  0  0  0
 26 27  1  0  0  0  0
 27 28  1  0  0  0  0
 29 31  2  0  0  0  0
 30 34  1  0  0  0  0
 32 35  1  6  0  0  0
 32 30  1  0  0  0  0
 32 36  1  0  0  0  0
 33 35  1  6  0  0  0
 33 32  1  0  0  0  0
 34 28  1  6  0  0  0
 34 29  1  0  0  0  0
 36 29  1  0  0  0  0
 38 37  1  6  0  0  0
 38 33  1  0  0  0  0
 39 37  1  6  0  0  0
 39 46  1  0  0  0  0
 39 38  1  0  0  0  0
 40 43  1  0  0  0  0
 41 45  1  0  0  0  0
 41 42  1  0  0  0  0
 42 43  1  0  0  0  0
 44 41  2  0  0  0  0
 45 46  1  0  0  0  0
 46 40  1  1  0  0  0
M  END
>  <MODEL>
1

>  <REMARK>
 VINA RESULT:      -8.4      0.000      0.000
  Name = 
  15 active torsions:
  status: ('A' for Active; 'I' for Inactive)
    1  A    between atoms: C_4  and  N_40
    2  A    between atoms: O_5  and  C_11
    3  A    between atoms: O_5  and  N_32
    4  A    between atoms: C_10  and  C_24
    5  A    between atoms: C_11  and  O_29
    6  A    between atoms: C_15  and  C_23
    7  A    between atoms: C_16  and  CA_44
    8  A    between atoms: C_19  and  C_23
    9  A    between atoms: C_22  and  C_46
   10  A    between atoms: C_23  and  C_27
   11  A    between atoms: C_27  and  C_28
   12  A    between atoms: C_28  and  C_39
   13  A    between atoms: O_29  and  C_33
   14  A    between atoms: C_31  and  C_39
   15  A    between atoms: N_40  and  CA_44
                            x       y       z     vdW  Elec       q    Type
                         _______ _______ _______ _____ _____    ______ ____

>  <TORSDO>
F 15

$$$$
=
 OpenBabel11062413243D

 46 51  0  0  1  0  0  0  0  0999 V2000
  186.9210  177.2470  144.4580 C   0  0  1  0  0  3  0  0  0  0  0  0
  188.2100  177.5460  148.7890 O   0  0  0  0  0  0  0  0  0  0  0  0
  188.3210  177.5940  147.5350 C   0  0  0  0  0  0  0  0  0  0  0  0
  187.8520  178.0620  145.3630 C   0  0  2  0  0  3  0  0  0  0  0  0
  189.2450  177.4030  145.4610 C   0  0  2  0  0  3  0  0  0  0  0  0
  189.4310  177.1550  146.8490 O   0  0  0  0  0  0  0  0  0  0  0  0
  187.3680  178.1310  146.7030 O   0  0  0  0  0  0  0  0  0  0  0  0
  190.2230  178.2960  145.0180 O   0  0  0  0  0  0  0  0  0  0  0  0
  191.4120  177.5650  145.0570 C   0  0  0  0  0  2  0  0  0  0  0  0
  191.6170  176.9030  143.8170 O   0  0  0  0  0  0  0  0  0  0  0  0
  192.2970  174.6860  144.3420 O   0  0  0  0  0  0  0  0  0  0  0  0
  190.5660  175.0690  142.9360 O   0  0  0  0  0  0  0  0  0  0  0  0
  191.4500  175.5390  143.6810 N   0  0  0  0  0  0  0  0  0  0  0  0
  184.8450  178.4600  145.2630 C   0  0  0  0  0  3  0  0  0  0  0  0
  183.1020  179.1130  143.7070 C   0  0  0  0  0  0  0  0  0  0  0  0
  185.5880  177.9040  144.2090 C   0  0  0  0  0  0  0  0  0  0  0  0
  185.0750  177.9500  142.9100 C   0  0  0  0  0  3  0  0  0  0  0  0
  183.8370  178.5510  142.6620 C   0  0  0  0  0  3  0  0  0  0  0  0
  183.6110  179.0640  145.0110 C   0  0  0  0  0  3  0  0  0  0  0  0
  181.8440  179.7380  143.4160 N   0  0  0  0  0  2  0  0  0  0  0  0
  179.5500  178.9310  143.8260 C   0  0  0  0  0  1  0  0  0  0  0  0
  180.6780  179.0930  142.8140 C   0  0  1  0  0  3  0  0  0  0  0  0
  180.2080  179.7990  141.5740 C   0  0  0  0  0  0  0  0  0  0  0  0
  179.7230  180.9560  141.6670 O   0  0  0  0  0  1  0  0  0  0  0  0
  180.3030  179.1980  140.3240 O   0  0  0  0  0  0  0  0  0  0  0  0
  187.6230  176.8680  143.1660 C   0  0  0  0  0  2  0  0  0  0  0  0
  188.0020  178.1190  142.3920 C   0  0  0  0  0  2  0  0  0  0  0  0
  189.1230  177.8270  141.3970 C   0  0  0  0  0  2  0  0  0  0  0  0
  187.4800  178.2930  139.5460 C   0  0  0  0  0  0  0  0  0  0  0  0
  189.7190  177.8130  139.0380 O   0  0  0  0  0  0  0  0  0  0  0  0
  186.5190  178.7560  140.1400 O   0  0  0  0  0  0  0  0  0  0  0  0
  188.8510  177.2820  138.0570 C   0  0  2  0  0  0  0  0  0  0  0  0
  189.4110  176.1150  137.2370 C   0  0  2  0  0  3  0  0  0  0  0  0
  188.8910  178.4270  140.0020 C   0  0  2  0  0  3  0  0  0  0  0  0
  189.3510  177.5290  136.6520 C   0  0  0  0  0  2  0  0  0  0  0  0
  187.3820  177.5790  138.2750 C   0  0  0  0  0  2  0  0  0  0  0  0
  189.2540  174.1280  135.8870 O   0  0  0  0  0  0  0  0  0  0  0  0
  188.4960  175.1720  136.4320 C   0  0  1  0  0  3  0  0  0  0  0  0
  188.3580  173.7780  136.9220 C   0  0  1  0  0  3  0  0  0  0  0  0
  185.8990  173.0620  137.2870 C   0  0  0  0  0  2  0  0  0  0  0  0
  186.3380  170.9470  135.3400 C   0  0  0  0  0  0  0  0  0  0  0  0
  184.9570  171.5190  135.4130 C   0  0  0  0  0  2  0  0  0  0  0  0
  184.7320  172.1840  136.7790 C   0  0  0  0  0  2  0  0  0  0  0  0
  186.5430  169.8350  134.7870 O   0  0  0  0  0  0  0  0  0  0  0  0
  187.4220  171.7090  135.8700 N   0  0  0  0  0  2  0  0  0  0  0  0
  187.1270  173.0520  136.3680 C   0  0  2  0  0  3  0  0  0  0  0  0
  1 26  1  6  0  0  0
  3  2  2  0  0  0  0
  4  1  1  6  0  0  0
  4  5  1  0  0  0  0
  4  7  1  0  0  0  0
  5  8  1  1  0  0  0
  5  6  1  0  0  0  0
  6  3  1  0  0  0  0
  7  3  1  0  0  0  0
  8  9  1  0  0  0  0
 10  9  1  0  0  0  0
 12 13  2  0  0  0  0
 13 10  1  0  0  0  0
 13 11  2  0  0  0  0
 15 19  2  0  0  0  0
 16  1  1  0  0  0  0
 16 14  2  0  0  0  0
 17 16  1  0  0  0  0
 18 17  2  0  0  0  0
 18 15  1  0  0  0  0
 19 14  1  0  0  0  0
 20 15  1  0  0  0  0
 22 20  1  0  0  0  0
 22 21  1  1  0  0  0
 23 24  1  0  0  0  0
 23 22  1  0  0  0  0
 25 23  2  0  0  0  0
 27 26  1  0  0  0  0
 28 27  1  0  0  0  0
 29 34  1  0  0  0  0
 29 31  2  0  0  0  0
 30 34  1  0  0  0  0
 32 35  1  6  0  0  0
 32 36  1  0  0  0  0
 32 30  1  0  0  0  0
 33 35  1  6  0  0  0
 33 32  1  0  0  0  0
 34 28  1  1  0  0  0
 36 29  1  0  0  0  0
 38 37  1  6  0  0  0
 38 39  1  0  0  0  0
 38 33  1  0  0  0  0
 39 37  1  6  0  0  0
 41 42  1  0  0  0  0
 41 45  1  0  0  0  0
 42 43  1  0  0  0  0
 43 40  1  0  0  0  0
 44 41  2  0  0  0  0
 45 46  1  0  0  0  0
 46 39  1  0  0  0  0
 46 40  1  1  0  0  0
M  END
>  <MODEL>
2

>  <REMARK>
 VINA RESULT:      -8.4      3.920      8.270
  Name = 
  15 active torsions:
  status: ('A' for Active; 'I' for Inactive)
    1  A    between atoms: C_4  and  N_40
    2  A    between atoms: O_5  and  C_11
    3  A    between atoms: O_5  and  N_32
    4  A    between atoms: C_10  and  C_24
    5  A    between atoms: C_11  and  O_29
    6  A    between atoms: C_15  and  C_23
    7  A    between atoms: C_16  and  CA_44
    8  A    between atoms: C_19  and  C_23
    9  A    between atoms: C_22  and  C_46
   10  A    between atoms: C_23  and  C_27
   11  A    between atoms: C_27  and  C_28
   12  A    between atoms: C_28  and  C_39
   13  A    between atoms: O_29  and  C_33
   14  A    between atoms: C_31  and  C_39
   15  A    between atoms: N_40  and  CA_44
                            x       y       z     vdW  Elec       q    Type
                         _______ _______ _______ _____ _____    ______ ____

>  <TORSDO>
F 15

$$$$
=
 OpenBabel11062413243D

 46 51  0  0  1  0  0  0  0  0999 V2000
  187.7230  177.4550  142.6230 C   0  0  1  0  0  3  0  0  0  0  0  0
  191.7000  175.5120  143.5850 O   0  0  0  0  0  0  0  0  0  0  0  0
  190.7010  176.2640  143.7470 C   0  0  0  0  0  0  0  0  0  0  0  0
  188.5430  176.9660  143.8230 C   0  0  2  0  0  3  0  0  0  0  0  0
  189.4690  178.0810  144.3540 C   0  0  2  0  0  3  0  0  0  0  0  0
  190.7800  177.5390  144.2590 O   0  0  0  0  0  0  0  0  0  0  0  0
  189.4080  175.8860  143.4730 O   0  0  0  0  0  0  0  0  0  0  0  0
  189.1740  178.3440  145.6930 O   0  0  0  0  0  0  0  0  0  0  0  0
  188.8560  177.0970  146.2360 C   0  0  0  0  0  2  0  0  0  0  0  0
  189.5480  176.9100  147.4620 O   0  0  0  0  0  0  0  0  0  0  0  0
  191.3740  175.4170  147.1710 O   0  0  0  0  0  0  0  0  0  0  0  0
  191.7090  177.5400  147.8810 O   0  0  0  0  0  0  0  0  0  0  0  0
  190.9050  176.6620  147.5060 N   0  0  0  0  0  0  0  0  0  0  0  0
  185.9230  178.0020  144.3220 C   0  0  0  0  0  3  0  0  0  0  0  0
  183.7260  178.7510  143.6120 C   0  0  0  0  0  0  0  0  0  0  0  0
  186.3330  177.9090  142.9820 C   0  0  0  0  0  0  0  0  0  0  0  0
  185.4290  178.2300  141.9660 C   0  0  0  0  0  3  0  0  0  0  0  0
  184.1320  178.6480  142.2810 C   0  0  0  0  0  3  0  0  0  0  0  0
  184.6280  178.4240  144.6330 C   0  0  0  0  0  3  0  0  0  0  0  0
  182.3950  179.2000  143.9010 N   0  0  0  0  0  2  0  0  0  0  0  0
  180.1390  178.2710  144.2580 C   0  0  0  0  0  1  0  0  0  0  0  0
  181.1700  178.7490  143.2420 C   0  0  1  0  0  3  0  0  0  0  0  0
  180.5960  179.7900  142.3240 C   0  0  0  0  0  0  0  0  0  0  0  0
  180.0550  180.8160  142.8120 O   0  0  0  0  0  1  0  0  0  0  0  0
  180.6560  179.6430  140.9420 O   0  0  0  0  0  0  0  0  0  0  0  0
  188.4880  178.5110  141.8450 C   0  0  0  0  0  2  0  0  0  0  0  0
  188.2980  178.2980  140.3530 C   0  0  0  0  0  2  0  0  0  0  0  0
  189.5740  177.7550  139.7120 C   0  0  0  0  0  2  0  0  0  0  0  0
  188.7530  178.6510  137.5070 C   0  0  0  0  0  0  0  0  0  0  0  0
  188.7930  176.3390  137.8950 O   0  0  0  0  0  0  0  0  0  0  0  0
  189.1090  179.8190  137.5330 O   0  0  0  0  0  0  0  0  0  0  0  0
  187.6840  176.7000  137.0970 C   0  0  2  0  0  0  0  0  0  0  0  0
  186.5080  175.7170  137.1110 C   0  0  2  0  0  3  0  0  0  0  0  0
  189.4680  177.5420  138.1950 C   0  0  2  0  0  3  0  0  0  0  0  0
  187.4830  175.7600  135.9300 C   0  0  0  0  0  2  0  0  0  0  0  0
  187.5950  178.1730  136.7540 C   0  0  0  0  0  2  0  0  0  0  0  0
  184.1810  175.1180  136.9620 O   0  0  0  0  0  0  0  0  0  0  0  0
  185.0970  176.1290  136.6450 C   0  0  1  0  0  3  0  0  0  0  0  0
  184.0650  176.3210  137.6950 C   0  0  1  0  0  3  0  0  0  0  0  0
  182.7080  178.5150  137.8920 C   0  0  0  0  0  2  0  0  0  0  0  0
  180.4210  177.0690  136.8270 C   0  0  0  0  0  0  0  0  0  0  0  0
  180.5080  178.5270  136.4980 C   0  0  0  0  0  2  0  0  0  0  0  0
  181.3970  179.2470  137.5240 C   0  0  0  0  0  2  0  0  0  0  0  0
  179.3330  176.4490  136.7010 O   0  0  0  0  0  0  0  0  0  0  0  0
  181.6060  176.3900  137.2400 N   0  0  0  0  0  2  0  0  0  0  0  0
  182.8600  177.1420  137.2240 C   0  0  2  0  0  3  0  0  0  0  0  0
  1 26  1  1  0  0  0
  1 16  1  0  0  0  0
  2  3  2  0  0  0  0
  3  6  1  0  0  0  0
  4  1  1  6  0  0  0
  4  5  1  0  0  0  0
  5  8  1  1  0  0  0
  6  5  1  0  0  0  0
  7  3  1  0  0  0  0
  7  4  1  0  0  0  0
  8  9  1  0  0  0  0
  9 10  1  0  0  0  0
 10 13  1  0  0  0  0
 11 13  2  0  0  0  0
 13 12  2  0  0  0  0
 14 19  1  0  0  0  0
 15 20  1  0  0  0  0
 15 19  2  0  0  0  0
 16 14  2  0  0  0  0
 17 18  2  0  0  0  0
 17 16  1  0  0  0  0
 18 15  1  0  0  0  0
 22 20  1  0  0  0  0
 22 21  1  1  0  0  0
 23 24  1  0  0  0  0
 23 22  1  0  0  0  0
 25 23  2  0  0  0  0
 27 26  1  0  0  0  0
 28 27  1  0  0  0  0
 29 31  2  0  0  0  0
 29 34  1  0  0  0  0
 30 34  1  0  0  0  0
 32 35  1  6  0  0  0
 32 33  1  0  0  0  0
 32 30  1  0  0  0  0
 33 35  1  6  0  0  0
 34 28  1  1  0  0  0
 36 32  1  0  0  0  0
 36 29  1  0  0  0  0
 38 37  1  6  0  0  0
 38 33  1  0  0  0  0
 38 39  1  0  0  0  0
 39 37  1  6  0  0  0
 41 45  1  0  0  0  0
 42 41  1  0  0  0  0
 42 43  1  0  0  0  0
 43 40  1  0  0  0  0
 44 41  2  0  0  0  0
 46 45  1  0  0  0  0
 46 39  1  0  0  0  0
 46 40  1  1  0  0  0
M  END
>  <MODEL>
3

>  <REMARK>
 VINA RESULT:      -8.3      3.573      7.503
  Name = 
  15 active torsions:
  status: ('A' for Active; 'I' for Inactive)
    1  A    between atoms: C_4  and  N_40
    2  A    between atoms: O_5  and  C_11
    3  A    between atoms: O_5  and  N_32
    4  A    between atoms: C_10  and  C_24
    5  A    between atoms: C_11  and  O_29
    6  A    between atoms: C_15  and  C_23
    7  A    between atoms: C_16  and  CA_44
    8  A    between atoms: C_19  and  C_23
    9  A    between atoms: C_22  and  C_46
   10  A    between atoms: C_23  and  C_27
   11  A    between atoms: C_27  and  C_28
   12  A    between atoms: C_28  and  C_39
   13  A    between atoms: O_29  and  C_33
   14  A    between atoms: C_31  and  C_39
   15  A    between atoms: N_40  and  CA_44
                            x       y       z     vdW  Elec       q    Type
                         _______ _______ _______ _____ _____    ______ ____

>  <TORSDO>
F 15

$$$$
=
 OpenBabel11062413243D

 46 51  0  0  1  0  0  0  0  0999 V2000
  187.3320  177.5620  142.3010 C   0  0  1  0  0  3  0  0  0  0  0  0
  190.8560  174.8130  143.0370 O   0  0  0  0  0  0  0  0  0  0  0  0
  190.0580  175.7660  143.2470 C   0  0  0  0  0  0  0  0  0  0  0  0
  188.1140  176.9220  143.4540 C   0  0  2  0  0  3  0  0  0  0  0  0
  189.2960  177.8150  143.8860 C   0  0  2  0  0  3  0  0  0  0  0  0
  190.4490  177.0000  143.7150 O   0  0  0  0  0  0  0  0  0  0  0  0
  188.6980  175.6760  143.0750 O   0  0  0  0  0  0  0  0  0  0  0  0
  189.1660  178.1530  145.2350 O   0  0  0  0  0  0  0  0  0  0  0  0
  190.1720  177.4290  145.8790 C   0  0  0  0  0  2  0  0  0  0  0  0
  190.1040  177.6440  147.2810 O   0  0  0  0  0  0  0  0  0  0  0  0
  188.1270  176.4310  147.8030 O   0  0  0  0  0  0  0  0  0  0  0  0
  188.5350  178.4500  148.7410 O   0  0  0  0  0  0  0  0  0  0  0  0
  188.9180  177.5380  147.9800 N   0  0  0  0  0  0  0  0  0  0  0  0
  184.9560  178.2170  141.7080 C   0  0  0  0  0  3  0  0  0  0  0  0
  183.3700  178.8470  143.4330 C   0  0  0  0  0  0  0  0  0  0  0  0
  185.9450  178.0080  142.6830 C   0  0  0  0  0  0  0  0  0  0  0  0
  185.6380  178.2290  144.0280 C   0  0  0  0  0  3  0  0  0  0  0  0
  184.3570  178.6480  144.3990 C   0  0  0  0  0  3  0  0  0  0  0  0
  183.6760  178.6310  142.0830 C   0  0  0  0  0  3  0  0  0  0  0  0
  182.0610  179.2590  143.8490 N   0  0  0  0  0  2  0  0  0  0  0  0
  179.7280  178.5900  144.2850 C   0  0  0  0  0  1  0  0  0  0  0  0
  180.7950  178.8650  143.2330 C   0  0  1  0  0  3  0  0  0  0  0  0
  180.3190  179.8610  142.2140 C   0  0  0  0  0  0  0  0  0  0  0  0
  179.7700  180.9260  142.5980 O   0  0  0  0  0  1  0  0  0  0  0  0
  180.4790  179.6290  140.8520 O   0  0  0  0  0  0  0  0  0  0  0  0
  188.1380  178.6790  141.6610 C   0  0  0  0  0  2  0  0  0  0  0  0
  188.2150  178.4700  140.1580 C   0  0  0  0  0  2  0  0  0  0  0  0
  189.6090  178.0030  139.7430 C   0  0  0  0  0  2  0  0  0  0  0  0
  188.8680  178.4180  137.3710 C   0  0  0  0  0  0  0  0  0  0  0  0
  189.3250  176.2350  138.0960 O   0  0  0  0  0  0  0  0  0  0  0  0
  188.9810  179.6280  137.2540 O   0  0  0  0  0  0  0  0  0  0  0  0
  188.2590  176.2490  137.1690 C   0  0  2  0  0  0  0  0  0  0  0  0
  187.3070  175.0490  137.2340 C   0  0  2  0  0  3  0  0  0  0  0  0
  189.7110  177.5810  138.2690 C   0  0  2  0  0  3  0  0  0  0  0  0
  188.3760  175.1470  136.1410 C   0  0  0  0  0  2  0  0  0  0  0  0
  187.9170  177.6130  136.6080 C   0  0  0  0  0  2  0  0  0  0  0  0
  185.5510  173.8140  136.1460 O   0  0  0  0  0  0  0  0  0  0  0  0
  185.9010  175.0900  136.6020 C   0  0  1  0  0  3  0  0  0  0  0  0
  184.8360  174.2970  137.2650 C   0  0  1  0  0  3  0  0  0  0  0  0
  182.6400  175.4710  137.9680 C   0  0  0  0  0  2  0  0  0  0  0  0
  181.2880  173.9470  135.8930 C   0  0  0  0  0  0  0  0  0  0  0  0
  180.7390  175.3060  136.1960 C   0  0  0  0  0  2  0  0  0  0  0  0
  181.1620  175.7440  137.6060 C   0  0  0  0  0  2  0  0  0  0  0  0
  180.5950  173.1000  135.2700 O   0  0  0  0  0  0  0  0  0  0  0  0
  182.6280  173.6480  136.2840 N   0  0  0  0  0  2  0  0  0  0  0  0
  183.4180  174.7280  136.8740 C   0  0  2  0  0  3  0  0  0  0  0  0
  1 26  1  1  0  0  0
  1 16  1  0  0  0  0
  2  3  2  0  0  0  0
  3  6  1  0  0  0  0
  4  1  1  6  0  0  0
  4  5  1  0  0  0  0
  5  8  1  1  0  0  0
  6  5  1  0  0  0  0
  7  3  1  0  0  0  0
  7  4  1  0  0  0  0
  8  9  1  0  0  0  0
  9 10  1  0  0  0  0
 10 13  1  0  0  0  0
 11 13  2  0  0  0  0
 13 12  2  0  0  0  0
 14 19  2  0  0  0  0
 14 16  1  0  0  0  0
 15 20  1  0  0  0  0
 15 18  2  0  0  0  0
 16 17  2  0  0  0  0
 17 18  1  0  0  0  0
 19 15  1  0  0  0  0
 22 20  1  0  0  0  0
 22 21  1  1  0  0  0
 23 24  1  0  0  0  0
 23 22  1  0  0  0  0
 25 23  2  0  0  0  0
 27 26  1  0  0  0  0
 28 27  1  0  0  0  0
 29 34  1  0  0  0  0
 30 34  1  0  0  0  0
 31 29  2  0  0  0  0
 32 35  1  6  0  0  0
 32 33  1  0  0  0  0
 32 30  1  0  0  0  0
 33 35  1  6  0  0  0
 34 28  1  1  0  0  0
 36 32  1  0  0  0  0
 36 29  1  0  0  0  0
 38 37  1  6  0  0  0
 38 33  1  0  0  0  0
 38 39  1  0  0  0  0
 39 37  1  6  0  0  0
 41 42  1  0  0  0  0
 41 45  1  0  0  0  0
 42 43  1  0  0  0  0
 43 40  1  0  0  0  0
 44 41  2  0  0  0  0
 45 46  1  0  0  0  0
 46 39  1  0  0  0  0
 46 40  1  1  0  0  0
M  END
>  <MODEL>
4

>  <REMARK>
 VINA RESULT:      -8.0      3.475      7.475
  Name = 
  15 active torsions:
  status: ('A' for Active; 'I' for Inactive)
    1  A    between atoms: C_4  and  N_40
    2  A    between atoms: O_5  and  C_11
    3  A    between atoms: O_5  and  N_32
    4  A    between atoms: C_10  and  C_24
    5  A    between atoms: C_11  and  O_29
    6  A    between atoms: C_15  and  C_23
    7  A    between atoms: C_16  and  CA_44
    8  A    between atoms: C_19  and  C_23
    9  A    between atoms: C_22  and  C_46
   10  A    between atoms: C_23  and  C_27
   11  A    between atoms: C_27  and  C_28
   12  A    between atoms: C_28  and  C_39
   13  A    between atoms: O_29  and  C_33
   14  A    between atoms: C_31  and  C_39
   15  A    between atoms: N_40  and  CA_44
                            x       y       z     vdW  Elec       q    Type
                         _______ _______ _______ _____ _____    ______ ____

>  <TORSDO>
F 15

$$$$
=
 OpenBabel11062413243D

 46 51  0  0  1  0  0  0  0  0999 V2000
  185.1220  178.8990  141.9540 C   0  0  1  0  0  3  0  0  0  0  0  0
  181.3100  178.8450  144.4000 O   0  0  0  0  0  0  0  0  0  0  0  0
  182.5490  178.9040  144.1740 C   0  0  0  0  0  0  0  0  0  0  0  0
  184.5250  179.5040  143.2290 C   0  0  2  0  0  3  0  0  0  0  0  0
  184.7890  178.5970  144.4500 C   0  0  2  0  0  3  0  0  0  0  0  0
  183.4970  178.2840  144.9550 O   0  0  0  0  0  0  0  0  0  0  0  0
  183.1050  179.6280  143.1470 O   0  0  0  0  0  0  0  0  0  0  0  0
  185.5040  179.3040  145.4190 O   0  0  0  0  0  0  0  0  0  0  0  0
  185.5870  178.4310  146.5050 C   0  0  0  0  0  2  0  0  0  0  0  0
  186.7070  178.7640  147.3130 O   0  0  0  0  0  0  0  0  0  0  0  0
  187.9430  177.4390  148.8520 O   0  0  0  0  0  0  0  0  0  0  0  0
  188.4620  177.4510  146.6500 O   0  0  0  0  0  0  0  0  0  0  0  0
  187.7210  177.8610  147.5660 N   0  0  0  0  0  0  0  0  0  0  0  0
  186.7870  177.4070  143.1500 C   0  0  0  0  0  3  0  0  0  0  0  0
  189.1110  177.3280  142.4560 C   0  0  0  0  0  0  0  0  0  0  0  0
  186.5080  178.3400  142.1380 C   0  0  0  0  0  0  0  0  0  0  0  0
  187.5400  178.7660  141.2970 C   0  0  0  0  0  3  0  0  0  0  0  0
  188.8340  178.2620  141.4570 C   0  0  0  0  0  3  0  0  0  0  0  0
  188.0800  176.9030  143.3050 C   0  0  0  0  0  3  0  0  0  0  0  0
  190.4450  176.8170  142.5820 N   0  0  0  0  0  2  0  0  0  0  0  0
  191.1190  178.6720  144.0610 C   0  0  0  0  0  1  0  0  0  0  0  0
  191.4680  177.2940  143.5110 C   0  0  1  0  0  3  0  0  0  0  0  0
  191.7410  176.3140  144.6170 C   0  0  0  0  0  0  0  0  0  0  0  0
  192.0540  175.1300  144.3310 O   0  0  0  0  0  0  0  0  0  0  0  0
  191.6590  176.6950  145.9520 O   0  0  0  0  0  1  0  0  0  0  0  0
  184.1710  177.8840  141.3440 C   0  0  0  0  0  2  0  0  0  0  0  0
  184.0530  178.1130  139.8480 C   0  0  0  0  0  2  0  0  0  0  0  0
  183.3890  176.9210  139.1630 C   0  0  0  0  0  2  0  0  0  0  0  0
  184.6720  175.5490  137.4840 C   0  0  0  0  0  0  0  0  0  0  0  0
  184.4890  177.8710  137.2120 O   0  0  0  0  0  0  0  0  0  0  0  0
  184.3490  174.4040  137.7600 O   0  0  0  0  0  0  0  0  0  0  0  0
  185.7480  177.4060  136.7700 C   0  0  2  0  0  0  0  0  0  0  0  0
  186.8680  178.4510  136.7390 C   0  0  2  0  0  3  0  0  0  0  0  0
  183.8000  176.7370  137.6940 C   0  0  2  0  0  3  0  0  0  0  0  0
  186.1590  178.0210  135.4510 C   0  0  0  0  0  2  0  0  0  0  0  0
  185.9450  175.9070  136.8650 C   0  0  0  0  0  2  0  0  0  0  0  0
  189.0790  178.7740  137.6370 O   0  0  0  0  0  0  0  0  0  0  0  0
  188.3550  178.0490  136.6820 C   0  0  1  0  0  3  0  0  0  0  0  0
  188.9280  177.3910  137.8820 C   0  0  1  0  0  3  0  0  0  0  0  0
  190.0860  175.1100  137.4950 C   0  0  0  0  0  2  0  0  0  0  0  0
  192.5790  176.3570  138.3230 C   0  0  0  0  0  0  0  0  0  0  0  0
  192.6790  175.2580  137.3110 C   0  0  0  0  0  2  0  0  0  0  0  0
  191.4340  174.3610  137.3800 C   0  0  0  0  0  2  0  0  0  0  0  0
  193.5920  176.7190  138.9770 O   0  0  0  0  0  0  0  0  0  0  0  0
  191.3240  177.0120  138.4970 N   0  0  0  0  0  2  0  0  0  0  0  0
  190.2310  176.6330  137.6030 C   0  0  2  0  0  3  0  0  0  0  0  0
  1 26  1  1  0  0  0
  1 16  1  0  0  0  0
  3  2  2  0  0  0  0
  3  6  1  0  0  0  0
  4  1  1  6  0  0  0
  4  5  1  0  0  0  0
  5  6  1  0  0  0  0
  5  8  1  1  0  0  0
  7  4  1  0  0  0  0
  7  3  1  0  0  0  0
  8  9  1  0  0  0  0
  9 10  1  0  0  0  0
 10 13  1  0  0  0  0
 12 13  2  0  0  0  0
 13 11  2  0  0  0  0
 14 19  1  0  0  0  0
 15 20  1  0  0  0  0
 15 19  2  0  0  0  0
 16 14  2  0  0  0  0
 17 18  2  0  0  0  0
 17 16  1  0  0  0  0
 18 15  1  0  0  0  0
 20 22  1  0  0  0  0
 22 21  1  1  0  0  0
 22 23  1  0  0  0  0
 23 25  1  0  0  0  0
 24 23  2  0  0  0  0
 27 26  1  0  0  0  0
 28 27  1  0  0  0  0
 29 34  1  0  0  0  0
 29 31  2  0  0  0  0
 30 34  1  0  0  0  0
 32 35  1  6  0  0  0
 32 36  1  0  0  0  0
 32 30  1  0  0  0  0
 33 35  1  6  0  0  0
 33 32  1  0  0  0  0
 34 28  1  1  0  0  0
 36 29  1  0  0  0  0
 38 33  1  0  0  0  0
 38 37  1  1  0  0  0
 38 39  1  0  0  0  0
 39 37  1  1  0  0  0
 41 45  1  0  0  0  0
 41 44  2  0  0  0  0
 42 43  1  0  0  0  0
 42 41  1  0  0  0  0
 43 40  1  0  0  0  0
 46 40  1  1  0  0  0
 46 39  1  0  0  0  0
 46 45  1  0  0  0  0
M  END
>  <MODEL>
5

>  <REMARK>
 VINA RESULT:      -7.9      2.788      7.081
  Name = 
  15 active torsions:
  status: ('A' for Active; 'I' for Inactive)
    1  A    between atoms: C_4  and  N_40
    2  A    between atoms: O_5  and  C_11
    3  A    between atoms: O_5  and  N_32
    4  A    between atoms: C_10  and  C_24
    5  A    between atoms: C_11  and  O_29
    6  A    between atoms: C_15  and  C_23
    7  A    between atoms: C_16  and  CA_44
    8  A    between atoms: C_19  and  C_23
    9  A    between atoms: C_22  and  C_46
   10  A    between atoms: C_23  and  C_27
   11  A    between atoms: C_27  and  C_28
   12  A    between atoms: C_28  and  C_39
   13  A    between atoms: O_29  and  C_33
   14  A    between atoms: C_31  and  C_39
   15  A    between atoms: N_40  and  CA_44
                            x       y       z     vdW  Elec       q    Type
                         _______ _______ _______ _____ _____    ______ ____

>  <TORSDO>
F 15

$$$$
=
 OpenBabel11062413243D

 46 51  0  0  1  0  0  0  0  0999 V2000
  188.1650  178.1210  145.3720 C   0  0  1  0  0  3  0  0  0  0  0  0
  187.5120  178.2530  149.8520 O   0  0  0  0  0  0  0  0  0  0  0  0
  187.9870  177.8520  148.7550 C   0  0  0  0  0  0  0  0  0  0  0  0
  188.9220  177.8970  146.6860 C   0  0  2  0  0  3  0  0  0  0  0  0
  188.7860  176.4350  147.1620 C   0  0  2  0  0  3  0  0  0  0  0  0
  188.1940  176.5260  148.4520 O   0  0  0  0  0  0  0  0  0  0  0  0
  188.3950  178.6930  147.7470 O   0  0  0  0  0  0  0  0  0  0  0  0
  190.0510  175.8550  147.2750 O   0  0  0  0  0  0  0  0  0  0  0  0
  190.9430  176.8980  147.0170 C   0  0  0  0  0  2  0  0  0  0  0  0
  191.7390  177.1530  148.1650 O   0  0  0  0  0  0  0  0  0  0  0  0
  193.6210  176.7240  149.5530 O   0  0  0  0  0  0  0  0  0  0  0  0
  193.1920  175.4340  147.7440 O   0  0  0  0  0  0  0  0  0  0  0  0
  192.8530  176.3930  148.4660 N   0  0  0  0  0  0  0  0  0  0  0  0
  190.0350  178.4760  143.6970 C   0  0  0  0  0  3  0  0  0  0  0  0
  190.3630  176.9340  141.8520 C   0  0  0  0  0  0  0  0  0  0  0  0
  188.9420  177.7170  144.1470 C   0  0  0  0  0  0  0  0  0  0  0  0
  188.5640  176.5730  143.4380 C   0  0  0  0  0  3  0  0  0  0  0  0
  189.2720  176.1860  142.2960 C   0  0  0  0  0  3  0  0  0  0  0  0
  190.7410  178.0840  142.5580 C   0  0  0  0  0  3  0  0  0  0  0  0
  191.0780  176.4990  140.6870 N   0  0  0  0  0  2  0  0  0  0  0  0
  189.8640  177.6770  138.8930 C   0  0  0  0  0  1  0  0  0  0  0  0
  190.5350  176.3820  139.3340 C   0  0  1  0  0  3  0  0  0  0  0  0
  191.5660  175.9310  138.3400 C   0  0  0  0  0  0  0  0  0  0  0  0
  191.4660  174.7910  137.8180 O   0  0  0  0  0  0  0  0  0  0  0  0
  192.6280  176.7540  137.9810 O   0  0  0  0  0  1  0  0  0  0  0  0
  186.7950  177.4690  145.4230 C   0  0  0  0  0  2  0  0  0  0  0  0
  185.7140  178.5330  145.5060 C   0  0  0  0  0  2  0  0  0  0  0  0
  185.5300  179.2310  144.1600 C   0  0  0  0  0  2  0  0  0  0  0  0
  186.0580  178.7570  141.7430 C   0  0  0  0  0  0  0  0  0  0  0  0
  184.0190  178.0520  142.6610 O   0  0  0  0  0  0  0  0  0  0  0  0
  187.2530  179.0000  141.6690 O   0  0  0  0  0  0  0  0  0  0  0  0
  183.8610  178.4400  141.3120 C   0  0  2  0  0  0  0  0  0  0  0  0
  182.4420  178.8450  140.8990 C   0  0  2  0  0  3  0  0  0  0  0  0
  185.3780  178.2670  142.9740 C   0  0  2  0  0  3  0  0  0  0  0  0
  183.0050  177.4690  140.5300 C   0  0  0  0  0  2  0  0  0  0  0  0
  185.1350  178.8710  140.6170 C   0  0  0  0  0  2  0  0  0  0  0  0
  181.1850  179.0250  138.8530 O   0  0  0  0  0  0  0  0  0  0  0  0
  182.1670  179.6630  139.6220 C   0  0  1  0  0  3  0  0  0  0  0  0
  180.8090  180.2420  139.4650 C   0  0  1  0  0  3  0  0  0  0  0  0
  179.6690  182.4400  138.7150 C   0  0  0  0  0  2  0  0  0  0  0  0
  180.6290  181.8950  136.0260 C   0  0  0  0  0  0  0  0  0  0  0  0
  180.5030  183.3340  136.4160 C   0  0  0  0  0  2  0  0  0  0  0  0
  179.5130  183.4800  137.5820 C   0  0  0  0  0  2  0  0  0  0  0  0
  180.7110  181.5650  134.8130 O   0  0  0  0  0  0  0  0  0  0  0  0
  180.7000  180.9100  137.0560 N   0  0  0  0  0  2  0  0  0  0  0  0
  180.7430  181.3800  138.4410 C   0  0  2  0  0  3  0  0  0  0  0  0
  1 26  1  1  0  0  0
  3  2  2  0  0  0  0
  4  1  1  6  0  0  0
  4  5  1  0  0  0  0
  4  7  1  0  0  0  0
  5  8  1  1  0  0  0
  5  6  1  0  0  0  0
  6  3  1  0  0  0  0
  7  3  1  0  0  0  0
  9  8  1  0  0  0  0
  9 10  1  0  0  0  0
 10 13  1  0  0  0  0
 12 13  2  0  0  0  0
 13 11  2  0  0  0  0
 14 16  1  0  0  0  0
 15 18  2  0  0  0  0
 15 19  1  0  0  0  0
 16  1  1  0  0  0  0
 17 16  2  0  0  0  0
 18 17  1  0  0  0  0
 19 14  2  0  0  0  0
 20 15  1  0  0  0  0
 22 21  1  6  0  0  0
 22 20  1  0  0  0  0
 23 22  1  0  0  0  0
 24 23  2  0  0  0  0
 25 23  1  0  0  0  0
 26 27  1  0  0  0  0
 28 27  1  0  0  0  0
 29 34  1  0  0  0  0
 30 34  1  0  0  0  0
 31 29  2  0  0  0  0
 32 35  1  6  0  0  0
 32 30  1  0  0  0  0
 33 35  1  6  0  0  0
 33 32  1  0  0  0  0
 34 28  1  1  0  0  0
 36 32  1  0  0  0  0
 36 29  1  0  0  0  0
 38 37  1  6  0  0  0
 38 33  1  0  0  0  0
 39 37  1  6  0  0  0
 39 38  1  0  0  0  0
 41 42  1  0  0  0  0
 41 45  1  0  0  0  0
 42 43  1  0  0  0  0
 43 40  1  0  0  0  0
 44 41  2  0  0  0  0
 45 46  1  0  0  0  0
 46 40  1  1  0  0  0
 46 39  1  0  0  0  0
M  END
>  <MODEL>
6

>  <REMARK>
 VINA RESULT:      -7.8      3.388      5.485
  Name = 
  15 active torsions:
  status: ('A' for Active; 'I' for Inactive)
    1  A    between atoms: C_4  and  N_40
    2  A    between atoms: O_5  and  C_11
    3  A    between atoms: O_5  and  N_32
    4  A    between atoms: C_10  and  C_24
    5  A    between atoms: C_11  and  O_29
    6  A    between atoms: C_15  and  C_23
    7  A    between atoms: C_16  and  CA_44
    8  A    between atoms: C_19  and  C_23
    9  A    between atoms: C_22  and  C_46
   10  A    between atoms: C_23  and  C_27
   11  A    between atoms: C_27  and  C_28
   12  A    between atoms: C_28  and  C_39
   13  A    between atoms: O_29  and  C_33
   14  A    between atoms: C_31  and  C_39
   15  A    between atoms: N_40  and  CA_44
                            x       y       z     vdW  Elec       q    Type
                         _______ _______ _______ _____ _____    ______ ____

>  <TORSDO>
F 15

$$$$
=
 OpenBabel11062413243D

 46 51  0  0  1  0  0  0  0  0999 V2000
  189.6910  177.4050  141.5340 C   0  0  1  0  0  3  0  0  0  0  0  0
  192.3150  174.9250  144.2690 O   0  0  0  0  0  0  0  0  0  0  0  0
  191.3130  175.6040  143.9170 C   0  0  0  0  0  0  0  0  0  0  0  0
  189.5840  176.3690  142.6600 C   0  0  2  0  0  3  0  0  0  0  0  0
  189.5610  177.0540  144.0430 C   0  0  2  0  0  3  0  0  0  0  0  0
  190.6760  176.5070  144.7360 O   0  0  0  0  0  0  0  0  0  0  0  0
  190.7090  175.4930  142.6870 O   0  0  0  0  0  0  0  0  0  0  0  0
  188.3870  176.7160  144.7190 O   0  0  0  0  0  0  0  0  0  0  0  0
  187.9940  177.8950  145.3560 C   0  0  0  0  0  2  0  0  0  0  0  0
  188.9600  178.2680  146.3280 O   0  0  0  0  0  0  0  0  0  0  0  0
  187.5630  177.7230  148.1730 O   0  0  0  0  0  0  0  0  0  0  0  0
  189.8070  177.8790  148.4200 O   0  0  0  0  0  0  0  0  0  0  0  0
  188.8180  177.9410  147.6630 N   0  0  0  0  0  0  0  0  0  0  0  0
  192.1270  177.5080  140.8380 C   0  0  0  0  0  3  0  0  0  0  0  0
  192.8520  176.6010  138.7080 C   0  0  0  0  0  0  0  0  0  0  0  0
  190.8040  177.1280  140.5580 C   0  0  0  0  0  0  0  0  0  0  0  0
  190.5160  176.4930  139.3470 C   0  0  0  0  0  3  0  0  0  0  0  0
  191.5360  176.2330  138.4270 C   0  0  0  0  0  3  0  0  0  0  0  0
  193.1440  177.2430  139.9190 C   0  0  0  0  0  3  0  0  0  0  0  0
  193.8780  176.3030  137.7510 N   0  0  0  0  0  2  0  0  0  0  0  0
  194.7960  175.6770  135.5490 C   0  0  0  0  0  1  0  0  0  0  0  0
  193.7700  175.3670  136.6320 C   0  0  1  0  0  3  0  0  0  0  0  0
  193.8520  173.9340  137.0740 C   0  0  0  0  0  0  0  0  0  0  0  0
  193.1530  173.0650  136.4930 O   0  0  0  0  0  0  0  0  0  0  0  0
  194.6930  173.5480  138.1130 O   0  0  0  0  0  1  0  0  0  0  0  0
  188.3520  177.5860  140.8410 C   0  0  0  0  0  2  0  0  0  0  0  0
  187.7970  178.9690  141.1330 C   0  0  0  0  0  2  0  0  0  0  0  0
  186.6830  178.9020  142.1750 C   0  0  0  0  0  2  0  0  0  0  0  0
  184.2010  178.4760  142.0920 C   0  0  0  0  0  0  0  0  0  0  0  0
  185.2950  179.4170  140.2440 O   0  0  0  0  0  0  0  0  0  0  0  0
  183.9210  178.2520  143.2600 O   0  0  0  0  0  0  0  0  0  0  0  0
  184.2490  178.5620  139.8330 C   0  0  2  0  0  0  0  0  0  0  0  0
  184.3710  178.0000  138.4120 C   0  0  2  0  0  3  0  0  0  0  0  0
  185.3130  179.3640  141.6540 C   0  0  2  0  0  3  0  0  0  0  0  0
  183.4190  179.1600  138.7190 C   0  0  0  0  0  2  0  0  0  0  0  0
  183.4520  177.9380  140.9590 C   0  0  0  0  0  2  0  0  0  0  0  0
  183.4580  176.7670  136.5560 O   0  0  0  0  0  0  0  0  0  0  0  0
  183.5680  176.7670  137.9520 C   0  0  1  0  0  3  0  0  0  0  0  0
  184.2800  175.7650  137.1200 C   0  0  1  0  0  3  0  0  0  0  0  0
  184.4920  173.2040  137.4240 C   0  0  0  0  0  2  0  0  0  0  0  0
  182.1510  172.9170  135.7220 C   0  0  0  0  0  0  0  0  0  0  0  0
  182.3410  171.8820  136.7870 C   0  0  0  0  0  2  0  0  0  0  0  0
  183.8150  171.8300  137.2160 C   0  0  0  0  0  2  0  0  0  0  0  0
  181.3810  172.7020  134.7500 O   0  0  0  0  0  0  0  0  0  0  0  0
  182.8260  174.1670  135.8570 N   0  0  0  0  0  2  0  0  0  0  0  0
  183.5890  174.3970  137.0830 C   0  0  2  0  0  3  0  0  0  0  0  0
  1 26  1  6  0  0  0
  3  2  2  0  0  0  0
  3  6  1  0  0  0  0
  4  1  1  6  0  0  0
  4  7  1  0  0  0  0
  4  5  1  0  0  0  0
  5  8  1  1  0  0  0
  5  6  1  0  0  0  0
  7  3  1  0  0  0  0
  8  9  1  0  0  0  0
  9 10  1  0  0  0  0
 10 13  1  0  0  0  0
 13 11  2  0  0  0  0
 13 12  2  0  0  0  0
 15 19  1  0  0  0  0
 16 14  1  0  0  0  0
 16  1  1  0  0  0  0
 17 16  2  0  0  0  0
 18 15  2  0  0  0  0
 18 17  1  0  0  0  0
 19 14  2  0  0  0  0
 20 15  1  0  0  0  0
 22 21  1  6  0  0  0
 22 23  1  0  0  0  0
 22 20  1  0  0  0  0
 23 25  1  0  0  0  0
 24 23  2  0  0  0  0
 26 27  1  0  0  0  0
 27 28  1  0  0  0  0
 29 31  2  0  0  0  0
 30 34  1  0  0  0  0
 32 35  1  6  0  0  0
 32 30  1  0  0  0  0
 32 36  1  0  0  0  0
 33 35  1  6  0  0  0
 33 32  1  0  0  0  0
 34 29  1  0  0  0  0
 34 28  1  6  0  0  0
 36 29  1  0  0  0  0
 38 37  1  6  0  0  0
 38 33  1  0  0  0  0
 39 37  1  6  0  0  0
 39 38  1  0  0  0  0
 41 45  1  0  0  0  0
 41 42  1  0  0  0  0
 42 43  1  0  0  0  0
 43 40  1  0  0  0  0
 44 41  2  0  0  0  0
 45 46  1  0  0  0  0
 46 39  1  0  0  0  0
 46 40  1  6  0  0  0
M  END
>  <MODEL>
7

>  <REMARK>
 VINA RESULT:      -7.7      1.520      1.950
  Name = 
  15 active torsions:
  status: ('A' for Active; 'I' for Inactive)
    1  A    between atoms: C_4  and  N_40
    2  A    between atoms: O_5  and  C_11
    3  A    between atoms: O_5  and  N_32
    4  A    between atoms: C_10  and  C_24
    5  A    between atoms: C_11  and  O_29
    6  A    between atoms: C_15  and  C_23
    7  A    between atoms: C_16  and  CA_44
    8  A    between atoms: C_19  and  C_23
    9  A    between atoms: C_22  and  C_46
   10  A    between atoms: C_23  and  C_27
   11  A    between atoms: C_27  and  C_28
   12  A    between atoms: C_28  and  C_39
   13  A    between atoms: O_29  and  C_33
   14  A    between atoms: C_31  and  C_39
   15  A    between atoms: N_40  and  CA_44
                            x       y       z     vdW  Elec       q    Type
                         _______ _______ _______ _____ _____    ______ ____

>  <TORSDO>
F 15

$$$$
=
 OpenBabel11062413243D

 46 51  0  0  1  0  0  0  0  0999 V2000
  182.6900  178.4250  138.2630 C   0  0  1  0  0  3  0  0  0  0  0  0
  179.7030  180.0080  141.2770 O   0  0  0  0  0  0  0  0  0  0  0  0
  180.3450  179.9480  140.1940 C   0  0  0  0  0  0  0  0  0  0  0  0
  181.3120  179.0920  138.3260 C   0  0  2  0  0  3  0  0  0  0  0  0
  181.4390  180.6300  138.3160 C   0  0  2  0  0  3  0  0  0  0  0  0
  180.8090  181.0530  139.5190 O   0  0  0  0  0  0  0  0  0  0  0  0
  180.6200  178.7750  139.5330 O   0  0  0  0  0  0  0  0  0  0  0  0
  180.7470  181.1560  137.2230 O   0  0  0  0  0  0  0  0  0  0  0  0
  180.2970  182.4050  137.6570 C   0  0  0  0  0  2  0  0  0  0  0  0
  180.1680  183.2860  136.5510 O   0  0  0  0  0  0  0  0  0  0  0  0
  182.0120  184.6150  137.2480 O   0  0  0  0  0  0  0  0  0  0  0  0
  181.1290  184.8460  135.1770 O   0  0  0  0  0  0  0  0  0  0  0  0
  181.1090  184.2590  136.2780 N   0  0  0  0  0  0  0  0  0  0  0  0
  183.0380  177.7950  140.6940 C   0  0  0  0  0  3  0  0  0  0  0  0
  184.9200  178.6710  141.9510 C   0  0  0  0  0  0  0  0  0  0  0  0
  183.4610  178.4990  139.5550 C   0  0  0  0  0  0  0  0  0  0  0  0
  184.6090  179.2930  139.6270 C   0  0  0  0  0  3  0  0  0  0  0  0
  185.3330  179.3780  140.8200 C   0  0  0  0  0  3  0  0  0  0  0  0
  183.7660  177.8780  141.8830 C   0  0  0  0  0  3  0  0  0  0  0  0
  185.6960  178.7650  143.1530 N   0  0  0  0  0  2  0  0  0  0  0  0
  186.7790  177.3810  144.8830 C   0  0  0  0  0  1  0  0  0  0  0  0
  185.4810  178.0020  144.3820 C   0  0  1  0  0  3  0  0  0  0  0  0
  184.8100  178.8150  145.4520 C   0  0  0  0  0  0  0  0  0  0  0  0
  185.5000  179.2990  146.3860 O   0  0  0  0  0  1  0  0  0  0  0  0
  183.4390  179.0480  145.4250 O   0  0  0  0  0  0  0  0  0  0  0  0
  182.5760  177.0020  137.7440 C   0  0  0  0  0  2  0  0  0  0  0  0
  183.5650  176.7780  136.6140 C   0  0  0  0  0  2  0  0  0  0  0  0
  184.5090  175.6210  136.9360 C   0  0  0  0  0  2  0  0  0  0  0  0
  186.9140  174.8730  136.9830 C   0  0  0  0  0  0  0  0  0  0  0  0
  186.3890  177.1130  136.5300 O   0  0  0  0  0  0  0  0  0  0  0  0
  186.8240  173.6550  136.9710 O   0  0  0  0  0  0  0  0  0  0  0  0
  187.5880  177.0130  137.2700 C   0  0  2  0  0  0  0  0  0  0  0  0
  187.9840  178.2620  138.0640 C   0  0  2  0  0  3  0  0  0  0  0  0
  185.9230  175.7910  136.3580 C   0  0  2  0  0  3  0  0  0  0  0  0
  188.6710  177.9240  136.7380 C   0  0  0  0  0  2  0  0  0  0  0  0
  188.0350  175.5980  137.5750 C   0  0  0  0  0  2  0  0  0  0  0  0
  188.6910  179.1720  140.1780 O   0  0  0  0  0  0  0  0  0  0  0  0
  189.0060  178.2040  139.2170 C   0  0  1  0  0  3  0  0  0  0  0  0
  188.4960  177.8250  140.5580 C   0  0  1  0  0  3  0  0  0  0  0  0
  189.2590  176.0920  142.3220 C   0  0  0  0  0  2  0  0  0  0  0  0
  191.1220  178.0880  143.3200 C   0  0  0  0  0  0  0  0  0  0  0  0
  191.5410  176.6560  143.4410 C   0  0  0  0  0  2  0  0  0  0  0  0
  190.3080  175.7400  143.4010 C   0  0  0  0  0  2  0  0  0  0  0  0
  191.6870  178.9800  144.0060 O   0  0  0  0  0  0  0  0  0  0  0  0
  190.1020  178.4250  142.3810 N   0  0  0  0  0  2  0  0  0  0  0  0
  189.5930  177.3570  141.5210 C   0  0  2  0  0  3  0  0  0  0  0  0
  1 26  1  1  0  0  0
  1 16  1  0  0  0  0
  3  2  2  0  0  0  0
  4  1  1  1  0  0  0
  4  7  1  0  0  0  0
  5  8  1  6  0  0  0
  5  4  1  0  0  0  0
  5  6  1  0  0  0  0
  6  3  1  0  0  0  0
  7  3  1  0  0  0  0
  8  9  1  0  0  0  0
 10  9  1  0  0  0  0
 12 13  2  0  0  0  0
 13 10  1  0  0  0  0
 13 11  2  0  0  0  0
 14 19  1  0  0  0  0
 15 20  1  0  0  0  0
 16 17  1  0  0  0  0
 16 14  2  0  0  0  0
 17 18  2  0  0  0  0
 18 15  1  0  0  0  0
 19 15  2  0  0  0  0
 20 22  1  0  0  0  0
 22 21  1  1  0  0  0
 22 23  1  0  0  0  0
 23 24  1  0  0  0  0
 25 23  2  0  0  0  0
 27 28  1  0  0  0  0
 27 26  1  0  0  0  0
 29 36  1  0  0  0  0
 30 32  1  0  0  0  0
 31 29  2  0  0  0  0
 32 35  1  6  0  0  0
 32 36  1  0  0  0  0
 32 33  1  0  0  0  0
 33 35  1  6  0  0  0
 33 38  1  0  0  0  0
 34 30  1  0  0  0  0
 34 28  1  1  0  0  0
 34 29  1  0  0  0  0
 38 37  1  1  0  0  0
 38 39  1  0  0  0  0
 39 37  1  1  0  0  0
 39 46  1  0  0  0  0
 40 43  1  0  0  0  0
 41 42  1  0  0  0  0
 41 44  2  0  0  0  0
 43 42  1  0  0  0  0
 45 41  1  0  0  0  0
 46 40  1  1  0  0  0
 46 45  1  0  0  0  0
M  END
>  <MODEL>
8

>  <REMARK>
 VINA RESULT:      -7.7      3.899     10.212
  Name = 
  15 active torsions:
  status: ('A' for Active; 'I' for Inactive)
    1  A    between atoms: C_4  and  N_40
    2  A    between atoms: O_5  and  C_11
    3  A    between atoms: O_5  and  N_32
    4  A    between atoms: C_10  and  C_24
    5  A    between atoms: C_11  and  O_29
    6  A    between atoms: C_15  and  C_23
    7  A    between atoms: C_16  and  CA_44
    8  A    between atoms: C_19  and  C_23
    9  A    between atoms: C_22  and  C_46
   10  A    between atoms: C_23  and  C_27
   11  A    between atoms: C_27  and  C_28
   12  A    between atoms: C_28  and  C_39
   13  A    between atoms: O_29  and  C_33
   14  A    between atoms: C_31  and  C_39
   15  A    between atoms: N_40  and  CA_44
                            x       y       z     vdW  Elec       q    Type
                         _______ _______ _______ _____ _____    ______ ____

>  <TORSDO>
F 15

$$$$
=
 OpenBabel11062413243D

 46 51  0  0  1  0  0  0  0  0999 V2000
  188.3680  177.5570  142.9660 C   0  0  1  0  0  3  0  0  0  0  0  0
  192.0800  175.2560  144.1670 O   0  0  0  0  0  0  0  0  0  0  0  0
  191.0060  175.8970  144.3210 C   0  0  0  0  0  0  0  0  0  0  0  0
  188.8560  176.5700  144.0320 C   0  0  2  0  0  3  0  0  0  0  0  0
  189.4740  177.3140  145.2350 C   0  0  2  0  0  3  0  0  0  0  0  0
  190.8060  176.8220  145.3200 O   0  0  0  0  0  0  0  0  0  0  0  0
  189.8900  175.7190  143.5390 O   0  0  0  0  0  0  0  0  0  0  0  0
  188.7840  176.9810  146.4030 O   0  0  0  0  0  0  0  0  0  0  0  0
  187.9990  178.1020  146.6810 C   0  0  0  0  0  2  0  0  0  0  0  0
  186.6310  177.8100  146.4350 O   0  0  0  0  0  0  0  0  0  0  0  0
  185.9250  179.8770  147.3740 O   0  0  0  0  0  0  0  0  0  0  0  0
  184.4280  178.2540  146.8770 O   0  0  0  0  0  0  0  0  0  0  0  0
  185.6160  178.6350  146.8800 N   0  0  0  0  0  0  0  0  0  0  0  0
  190.5040  177.6030  141.6010 C   0  0  0  0  0  3  0  0  0  0  0  0
  190.4550  177.2650  139.1990 C   0  0  0  0  0  0  0  0  0  0  0  0
  189.1090  177.4540  141.6590 C   0  0  0  0  0  0  0  0  0  0  0  0
  188.3960  177.2180  140.4800 C   0  0  0  0  0  3  0  0  0  0  0  0
  189.0670  177.1250  139.2570 C   0  0  0  0  0  3  0  0  0  0  0  0
  191.1720  177.5060  140.3780 C   0  0  0  0  0  3  0  0  0  0  0  0
  191.1140  177.1450  137.9310 N   0  0  0  0  0  2  0  0  0  0  0  0
  191.5180  175.5870  136.0630 C   0  0  0  0  0  1  0  0  0  0  0  0
  191.9090  176.0060  137.4750 C   0  0  1  0  0  3  0  0  0  0  0  0
  193.3860  176.2570  137.5850 C   0  0  0  0  0  0  0  0  0  0  0  0
  193.9780  176.0110  138.6670 O   0  0  0  0  0  1  0  0  0  0  0  0
  194.1140  176.7510  136.5070 O   0  0  0  0  0  0  0  0  0  0  0  0
  186.8640  177.4490  142.7830 C   0  0  0  0  0  2  0  0  0  0  0  0
  186.2100  178.7950  143.0440 C   0  0  0  0  0  2  0  0  0  0  0  0
  185.6300  179.3800  141.7580 C   0  0  0  0  0  2  0  0  0  0  0  0
  184.8800  178.6350  139.4710 C   0  0  0  0  0  0  0  0  0  0  0  0
  183.4420  178.4140  141.3110 O   0  0  0  0  0  0  0  0  0  0  0  0
  185.9180  178.6320  138.8280 O   0  0  0  0  0  0  0  0  0  0  0  0
  182.7200  178.7250  140.1370 C   0  0  2  0  0  0  0  0  0  0  0  0
  181.3470  179.3700  140.3540 C   0  0  2  0  0  3  0  0  0  0  0  0
  184.8030  178.3790  140.9360 C   0  0  2  0  0  3  0  0  0  0  0  0
  181.4700  177.8870  139.9910 C   0  0  0  0  0  2  0  0  0  0  0  0
  183.5600  178.8450  138.8820 C   0  0  0  0  0  2  0  0  0  0  0  0
  179.9200  181.2180  139.7670 O   0  0  0  0  0  0  0  0  0  0  0  0
  180.6170  180.1300  139.2290 C   0  0  1  0  0  3  0  0  0  0  0  0
  181.0420  181.5270  138.9660 C   0  0  1  0  0  3  0  0  0  0  0  0
  180.7980  181.0590  136.4330 C   0  0  0  0  0  2  0  0  0  0  0  0
  180.8350  183.9360  136.0080 C   0  0  0  0  0  0  0  0  0  0  0  0
  180.0250  183.1230  135.0460 C   0  0  0  0  0  2  0  0  0  0  0  0
  180.5160  181.6680  135.0400 C   0  0  0  0  0  2  0  0  0  0  0  0
  181.1790  185.1120  135.7210 O   0  0  0  0  0  0  0  0  0  0  0  0
  181.1690  183.3650  137.2730 N   0  0  0  0  0  2  0  0  0  0  0  0
  180.6140  182.0500  137.5900 C   0  0  2  0  0  3  0  0  0  0  0  0
  1 26  1  6  0  0  0
  2  3  2  0  0  0  0
  3  6  1  0  0  0  0
  4  1  1  6  0  0  0
  4  5  1  0  0  0  0
  5  6  1  0  0  0  0
  5  8  1  1  0  0  0
  7  4  1  0  0  0  0
  7  3  1  0  0  0  0
  8  9  1  0  0  0  0
 10  9  1  0  0  0  0
 10 13  1  0  0  0  0
 12 13  2  0  0  0  0
 13 11  2  0  0  0  0
 14 16  1  0  0  0  0
 15 18  2  0  0  0  0
 15 19  1  0  0  0  0
 16  1  1  0  0  0  0
 17 16  2  0  0  0  0
 18 17  1  0  0  0  0
 19 14  2  0  0  0  0
 20 15  1  0  0  0  0
 22 21  1  6  0  0  0
 22 23  1  0  0  0  0
 22 20  1  0  0  0  0
 23 24  1  0  0  0  0
 25 23  2  0  0  0  0
 26 27  1  0  0  0  0
 28 27  1  0  0  0  0
 29 34  1  0  0  0  0
 31 29  2  0  0  0  0
 32 36  1  6  0  0  0
 32 33  1  0  0  0  0
 32 30  1  0  0  0  0
 33 35  1  6  0  0  0
 34 30  1  0  0  0  0
 34 28  1  1  0  0  0
 35 32  1  0  0  0  0
 36 29  1  0  0  0  0
 38 37  1  1  0  0  0
 38 33  1  0  0  0  0
 39 38  1  0  0  0  0
 39 37  1  1  0  0  0
 41 45  1  0  0  0  0
 42 41  1  0  0  0  0
 43 42  1  0  0  0  0
 43 40  1  0  0  0  0
 44 41  2  0  0  0  0
 45 46  1  0  0  0  0
 46 40  1  6  0  0  0
 46 39  1  0  0  0  0
M  END
>  <MODEL>
9

>  <REMARK>
 VINA RESULT:      -7.6      2.968      4.606
  Name = 
  15 active torsions:
  status: ('A' for Active; 'I' for Inactive)
    1  A    between atoms: C_4  and  N_40
    2  A    between atoms: O_5  and  C_11
    3  A    between atoms: O_5  and  N_32
    4  A    between atoms: C_10  and  C_24
    5  A    between atoms: C_11  and  O_29
    6  A    between atoms: C_15  and  C_23
    7  A    between atoms: C_16  and  CA_44
    8  A    between atoms: C_19  and  C_23
    9  A    between atoms: C_22  and  C_46
   10  A    between atoms: C_23  and  C_27
   11  A    between atoms: C_27  and  C_28
   12  A    between atoms: C_28  and  C_39
   13  A    between atoms: O_29  and  C_33
   14  A    between atoms: C_31  and  C_39
   15  A    between atoms: N_40  and  CA_44
                            x       y       z     vdW  Elec       q    Type
                         _______ _______ _______ _____ _____    ______ ____

>  <TORSDO>
F 15

$$$$
