=
 OpenBabel11062416273D

 46 53  0  0  1  0  0  0  0  0999 V2000
  186.0320  179.0120  143.5380 N   0  0  0  0  0  0  0  0  0  0  0  0
  188.0290  177.8290  145.2490 C   0  0  2  0  0  3  0  0  0  0  0  0
  183.7980  178.8910  142.5590 N   0  0  0  0  0  0  0  0  0  0  0  0
  184.6550  178.6560  145.4150 O   0  0  0  0  0  0  0  0  0  0  0  0
  186.6280  177.2670  145.0780 C   0  0  1  0  0  3  0  0  0  0  0  0
  185.6770  178.3620  144.7390 C   0  0  0  0  0  0  0  0  0  0  0  0
  186.9690  178.2770  141.6180 C   0  0  1  0  0  3  0  0  0  0  0  0
  185.8470  178.8810  141.2560 C   0  0  1  0  0  3  0  0  0  0  0  0
  187.1560  178.3770  143.0260 N   0  0  2  0  0  0  0  0  0  0  0  0
  185.0880  178.6040  140.0360 C   0  0  0  0  0  3  0  0  0  0  0  0
  185.1530  179.4470  142.4570 C   0  0  2  0  0  3  0  0  0  0  0  0
  183.1290  178.4940  141.5060 C   0  0  0  0  0  3  0  0  0  0  0  0
  187.6120  177.2850  143.8910 C   0  0  1  0  0  3  0  0  0  0  0  0
  183.7640  178.4480  140.1630 C   0  0  0  0  0  3  0  0  0  0  0  0
  188.8410  177.1240  147.4020 C   0  0  0  0  0  0  0  0  0  0  0  0
  190.2400  177.4980  147.2620 N   0  0  0  0  0  2  0  0  0  0  0  0
  190.2560  177.1360  145.8800 N   0  0  0  0  0  0  0  0  0  0  0  0
  188.8780  176.8150  146.0100 C   0  0  2  0  0  3  0  0  0  0  0  0
  187.9940  177.0970  148.3320 O   0  0  0  0  0  0  0  0  0  0  0  0
  191.2570  177.0480  144.8680 C   0  0  0  0  0  0  0  0  0  0  0  0
  191.6490  175.8660  144.4150 C   0  0  0  0  0  2  0  0  0  0  0  0
  191.9120  178.2870  144.3630 C   0  0  0  0  0  2  0  0  0  0  0  0
  190.9000  179.1430  143.6320 C   0  0  0  0  0  1  0  0  0  0  0  0
  187.7760  177.5380  140.7500 O   0  0  0  0  0  0  0  0  0  0  0  0
  188.9600  178.6110  138.9080 C   0  0  1  0  0  3  0  0  0  0  0  0
  189.0470  177.9950  140.3090 C   0  0  2  0  0  3  0  0  0  0  0  0
  189.9460  176.4210  138.7590 C   0  0  1  0  0  3  0  0  0  0  0  0
  190.0090  176.8330  140.2200 C   0  0  1  0  0  3  0  0  0  0  0  0
  191.2870  177.2820  140.5670 O   0  0  0  0  0  1  0  0  0  0  0  0
  189.5500  177.6550  137.9640 C   0  0  1  0  0  3  0  0  0  0  0  0
  188.0890  177.8180  138.0230 N   0  0  0  0  0  0  0  0  0  0  0  0
  191.2550  174.5370  138.1470 O   0  0  0  0  0  0  0  0  0  0  0  0
  191.1910  175.7550  138.2430 C   0  0  0  0  0  0  0  0  0  0  0  0
  192.3460  176.6000  137.8070 C   0  0  0  0  0  2  0  0  0  0  0  0
  193.4820  175.7490  137.2660 C   0  0  0  0  0  2  0  0  0  0  0  0
  194.3350  175.2280  138.4130 C   0  0  0  0  0  2  0  0  0  0  0  0
  195.2630  174.1050  137.9700 C   0  0  0  0  0  3  0  0  0  0  0  0
  195.4560  173.1840  139.0030 O   0  0  0  0  0  1  0  0  0  0  0  0
  194.7510  173.4610  136.8440 O   0  0  0  0  0  1  0  0  0  0  0  0
  187.7080  178.7010  136.9330 C   0  0  0  0  0  2  0  0  0  0  0  0
  187.7290  177.9400  135.6190 C   0  0  0  0  0  2  0  0  0  0  0  0
  187.0870  175.6680  135.6620 O   0  0  0  0  0  0  0  0  0  0  0  0
  186.7210  176.8330  135.6200 C   0  0  0  0  0  0  0  0  0  0  0  0
  184.5340  176.0630  135.9970 O   0  0  0  0  0  0  0  0  0  0  0  0
  185.2620  177.1530  135.5730 C   0  0  0  0  0  3  0  0  0  0  0  0
  184.7280  177.0870  136.8430 O   0  0  0  0  0  0  0  0  0  0  0  0
  1  6  1  0  0  0  0
  2 18  1  1  0  0  0
  5  6  1  6  0  0  0
  5  2  1  0  0  0  0
  6  4  2  0  0  0  0
  7 24  1  1  0  0  0
  7  9  1  0  0  0  0
  8 10  1  1  0  0  0
  8  7  1  0  0  0  0
  8 11  1  0  0  0  0
  9  1  1  1  0  0  0
  9 13  1  0  0  0  0
 10 14  2  0  0  0  0
 11  3  1  1  0  0  0
 11  1  1  0  0  0  0
 12  3  2  0  0  0  0
 13  5  1  0  0  0  0
 13  2  1  0  0  0  0
 14 12  1  0  0  0  0
 15 19  2  0  0  0  0
 16 15  1  0  0  0  0
 17 18  1  0  0  0  0
 17 16  1  0  0  0  0
 18 15  1  0  0  0  0
 20 17  1  0  0  0  0
 21 20  2  0  0  0  0
 22 20  1  0  0  0  0
 23 22  1  0  0  0  0
 25 26  1  0  0  0  0
 26 24  1  0  0  0  0
 27 28  1  0  0  0  0
 28 26  1  0  0  0  0
 28 29  1  0  0  0  0
 30 31  1  0  0  0  0
 30 27  1  0  0  0  0
 30 25  1  0  0  0  0
 31 25  1  0  0  0  0
 32 33  2  0  0  0  0
 33 27  1  0  0  0  0
 34 33  1  0  0  0  0
 35 34  1  0  0  0  0
 35 36  1  0  0  0  0
 37 36  1  0  0  0  0
 37 38  1  0  0  0  0
 39 37  1  0  0  0  0
 40 31  1  0  0  0  0
 41 43  1  0  0  0  0
 41 40  1  0  0  0  0
 43 42  2  0  0  0  0
 44 46  1  0  0  0  0
 45 43  1  0  0  0  0
 45 44  1  0  0  0  0
 45 46  1  0  0  0  0
M  END
>  <MODEL>
1

>  <REMARK>
 VINA RESULT:      -8.1      0.000      0.000
  Name = 
  14 active torsions:
  status: ('A' for Active; 'I' for Inactive)
    1  A    between atoms: C_1  and  C_23
    2  A    between atoms: C_2  and  C_13
    3  A    between atoms: C_2  and  N_44
    4  A    between atoms: C_4  and  C_24
    5  A    between atoms: C_8  and  O_37
    6  A    between atoms: C_10  and  C_41
    7  A    between atoms: C_11  and  C_30
    8  A    between atoms: C_13  and  C_30
    9  A    between atoms: C_14  and  C_19
   10  A    between atoms: C_19  and  C_35
   11  A    between atoms: N_21  and  C_23
   12  A    between atoms: C_26  and  O_37
   13  A    between atoms: C_35  and  C_42
   14  A    between atoms: C_41  and  C_42
                            x       y       z     vdW  Elec       q    Type
                         _______ _______ _______ _____ _____    ______ ____

>  <TORSDO>
F 14

$$$$
=
 OpenBabel11062416273D

 46 53  0  0  1  0  0  0  0  0999 V2000
  190.6870  177.8500  140.5150 N   0  0  0  0  0  0  0  0  0  0  0  0
  189.8240  177.2750  137.8240 C   0  0  2  0  0  3  0  0  0  0  0  0
  191.5590  177.0190  142.6400 N   0  0  0  0  0  0  0  0  0  0  0  0
  192.5610  176.5860  139.8560 O   0  0  0  0  0  0  0  0  0  0  0  0
  190.4140  176.2330  138.7590 C   0  0  1  0  0  3  0  0  0  0  0  0
  191.3440  176.8820  139.7250 C   0  0  0  0  0  0  0  0  0  0  0  0
  188.5960  177.9720  141.3630 C   0  0  1  0  0  3  0  0  0  0  0  0
  189.4070  178.1200  142.3990 C   0  0  1  0  0  3  0  0  0  0  0  0
  189.3450  177.8530  140.1570 N   0  0  2  0  0  0  0  0  0  0  0  0
  189.0740  177.8080  143.7900 C   0  0  0  0  0  3  0  0  0  0  0  0
  190.8360  178.0930  141.9470 C   0  0  2  0  0  3  0  0  0  0  0  0
  191.2100  176.6050  143.8310 C   0  0  0  0  0  3  0  0  0  0  0  0
  189.0600  176.8960  139.0840 C   0  0  1  0  0  3  0  0  0  0  0  0
  189.9710  177.0980  144.4870 C   0  0  0  0  0  3  0  0  0  0  0  0
  190.2270  176.5610  135.5620 C   0  0  0  0  0  0  0  0  0  0  0  0
  189.3580  177.4940  134.8600 N   0  0  0  0  0  2  0  0  0  0  0  0
  188.3760  177.4450  135.8970 N   0  0  0  0  0  0  0  0  0  0  0  0
  189.2480  176.5700  136.6000 C   0  0  2  0  0  3  0  0  0  0  0  0
  191.3360  176.0090  135.3450 O   0  0  0  0  0  0  0  0  0  0  0  0
  187.0630  177.9720  136.0730 C   0  0  0  0  0  0  0  0  0  0  0  0
  186.8830  179.1190  136.7120 C   0  0  0  0  0  2  0  0  0  0  0  0
  185.8830  177.2000  135.5950 C   0  0  0  0  0  2  0  0  0  0  0  0
  184.9180  176.9720  136.7400 C   0  0  0  0  0  1  0  0  0  0  0  0
  187.2110  177.8240  141.4670 O   0  0  0  0  0  0  0  0  0  0  0  0
  185.6680  179.2650  142.6870 C   0  0  1  0  0  3  0  0  0  0  0  0
  186.3120  178.9180  141.3400 C   0  0  2  0  0  3  0  0  0  0  0  0
  184.0760  178.0880  141.3200 C   0  0  1  0  0  3  0  0  0  0  0  0
  185.1900  178.5530  140.3960 C   0  0  1  0  0  3  0  0  0  0  0  0
  184.8150  179.6960  139.6840 O   0  0  0  0  0  1  0  0  0  0  0  0
  184.2810  178.7870  142.6540 C   0  0  1  0  0  3  0  0  0  0  0  0
  185.2890  178.0520  143.4330 N   0  0  0  0  0  0  0  0  0  0  0  0
  181.9150  179.0700  141.2550 O   0  0  0  0  0  0  0  0  0  0  0  0
  182.6900  178.2610  140.7630 C   0  0  0  0  0  0  0  0  0  0  0  0
  182.2760  177.4600  139.5690 C   0  0  0  0  0  2  0  0  0  0  0  0
  181.1780  178.1610  138.7870 C   0  0  0  0  0  2  0  0  0  0  0  0
  181.7900  179.0550  137.7180 C   0  0  0  0  0  2  0  0  0  0  0  0
  181.2120  180.4640  137.7530 C   0  0  0  0  0  3  0  0  0  0  0  0
  182.0510  181.3270  138.4610 O   0  0  0  0  0  1  0  0  0  0  0  0
  181.0130  180.9430  136.4580 O   0  0  0  0  0  1  0  0  0  0  0  0
  185.1450  178.4590  144.8210 C   0  0  0  0  0  2  0  0  0  0  0  0
  185.9910  177.5670  145.7120 C   0  0  0  0  0  2  0  0  0  0  0  0
  185.8900  179.2370  147.3770 O   0  0  0  0  0  0  0  0  0  0  0  0
  186.5390  178.3310  146.8770 C   0  0  0  0  0  0  0  0  0  0  0  0
  188.0680  178.6270  148.6360 O   0  0  0  0  0  0  0  0  0  0  0  0
  187.8820  177.9830  147.4330 C   0  0  0  0  0  3  0  0  0  0  0  0
  187.7340  177.3270  148.6370 O   0  0  0  0  0  0  0  0  0  0  0  0
  1 11  1  0  0  0  0
  2 18  1  6  0  0  0
  2  5  1  0  0  0  0
  2 13  1  0  0  0  0
  3 12  2  0  0  0  0
  5 13  1  0  0  0  0
  5  6  1  1  0  0  0
  6  4  2  0  0  0  0
  6  1  1  0  0  0  0
  7 24  1  1  0  0  0
  7  8  1  0  0  0  0
  8 10  1  1  0  0  0
  9  1  1  1  0  0  0
  9  7  1  0  0  0  0
 10 14  2  0  0  0  0
 11  8  1  0  0  0  0
 11  3  1  1  0  0  0
 12 14  1  0  0  0  0
 13  9  1  0  0  0  0
 15 18  1  0  0  0  0
 16 15  1  0  0  0  0
 16 17  1  0  0  0  0
 17 20  1  0  0  0  0
 17 18  1  0  0  0  0
 19 15  2  0  0  0  0
 20 21  2  0  0  0  0
 22 20  1  0  0  0  0
 22 23  1  0  0  0  0
 25 31  1  0  0  0  0
 26 24  1  0  0  0  0
 26 25  1  0  0  0  0
 27 30  1  0  0  0  0
 28 27  1  0  0  0  0
 28 26  1  0  0  0  0
 29 28  1  0  0  0  0
 30 25  1  0  0  0  0
 30 31  1  0  0  0  0
 31 40  1  0  0  0  0
 33 32  2  0  0  0  0
 33 27  1  0  0  0  0
 34 33  1  0  0  0  0
 35 34  1  0  0  0  0
 36 37  1  0  0  0  0
 36 35  1  0  0  0  0
 37 38  1  0  0  0  0
 39 37  1  0  0  0  0
 40 41  1  0  0  0  0
 41 43  1  0  0  0  0
 43 42  2  0  0  0  0
 43 45  1  0  0  0  0
 44 46  1  0  0  0  0
 45 44  1  0  0  0  0
 45 46  1  0  0  0  0
M  END
>  <MODEL>
2

>  <REMARK>
 VINA RESULT:      -7.9      2.384      9.582
  Name = 
  14 active torsions:
  status: ('A' for Active; 'I' for Inactive)
    1  A    between atoms: C_1  and  C_23
    2  A    between atoms: C_2  and  C_13
    3  A    between atoms: C_2  and  N_44
    4  A    between atoms: C_4  and  C_24
    5  A    between atoms: C_8  and  O_37
    6  A    between atoms: C_10  and  C_41
    7  A    between atoms: C_11  and  C_30
    8  A    between atoms: C_13  and  C_30
    9  A    between atoms: C_14  and  C_19
   10  A    between atoms: C_19  and  C_35
   11  A    between atoms: N_21  and  C_23
   12  A    between atoms: C_26  and  O_37
   13  A    between atoms: C_35  and  C_42
   14  A    between atoms: C_41  and  C_42
                            x       y       z     vdW  Elec       q    Type
                         _______ _______ _______ _____ _____    ______ ____

>  <TORSDO>
F 14

$$$$
=
 OpenBabel11062416273D

 46 53  0  0  1  0  0  0  0  0999 V2000
  190.6530  177.8330  140.3260 N   0  0  0  0  0  0  0  0  0  0  0  0
  189.6610  177.2330  137.6860 C   0  0  2  0  0  3  0  0  0  0  0  0
  191.6210  177.0210  142.4160 N   0  0  0  0  0  0  0  0  0  0  0  0
  192.4890  176.5530  139.5930 O   0  0  0  0  0  0  0  0  0  0  0  0
  190.2900  176.1990  138.6020 C   0  0  1  0  0  3  0  0  0  0  0  0
  191.2680  176.8540  139.5170 C   0  0  0  0  0  0  0  0  0  0  0  0
  188.6050  177.9750  141.2700 C   0  0  1  0  0  3  0  0  0  0  0  0
  189.4660  178.1300  142.2650 C   0  0  1  0  0  3  0  0  0  0  0  0
  189.2960  177.8390  140.0320 N   0  0  2  0  0  0  0  0  0  0  0  0
  189.1970  177.8350  143.6730 C   0  0  0  0  0  3  0  0  0  0  0  0
  190.8710  178.0910  141.7460 C   0  0  2  0  0  3  0  0  0  0  0  0
  191.3270  176.6220  143.6270 C   0  0  0  0  0  3  0  0  0  0  0  0
  188.9560  176.8720  138.9840 C   0  0  1  0  0  3  0  0  0  0  0  0
  190.1230  177.1280  144.3350 C   0  0  0  0  0  3  0  0  0  0  0  0
  189.8900  176.6250  135.3690 C   0  0  0  0  0  0  0  0  0  0  0  0
  188.8800  177.4990  134.7920 N   0  0  0  0  0  2  0  0  0  0  0  0
  188.0160  177.3340  135.9190 N   0  0  0  0  0  0  0  0  0  0  0  0
  189.0250  176.5180  136.4980 C   0  0  2  0  0  3  0  0  0  0  0  0
  191.0140  176.1790  135.0210 O   0  0  0  0  0  0  0  0  0  0  0  0
  186.6880  177.7400  136.2440 C   0  0  0  0  0  0  0  0  0  0  0  0
  186.4790  178.8390  136.9530 C   0  0  0  0  0  2  0  0  0  0  0  0
  185.5330  176.8900  135.8410 C   0  0  0  0  0  2  0  0  0  0  0  0
  184.9690  176.1800  137.0530 C   0  0  0  0  0  1  0  0  0  0  0  0
  187.2260  177.8350  141.4410 O   0  0  0  0  0  0  0  0  0  0  0  0
  185.7280  179.2700  142.7230 C   0  0  1  0  0  3  0  0  0  0  0  0
  186.3280  178.9340  141.3530 C   0  0  2  0  0  3  0  0  0  0  0  0
  184.0890  178.1120  141.3970 C   0  0  1  0  0  3  0  0  0  0  0  0
  185.1750  178.5820  140.4420 C   0  0  1  0  0  3  0  0  0  0  0  0
  184.7820  179.7330  139.7530 O   0  0  0  0  0  1  0  0  0  0  0  0
  184.3390  178.7980  142.7300 C   0  0  1  0  0  3  0  0  0  0  0  0
  185.3690  178.0520  143.4700 N   0  0  0  0  0  0  0  0  0  0  0  0
  181.8820  178.9820  141.5020 O   0  0  0  0  0  0  0  0  0  0  0  0
  182.6870  178.2950  140.8860 C   0  0  0  0  0  0  0  0  0  0  0  0
  182.2910  177.6610  139.5900 C   0  0  0  0  0  2  0  0  0  0  0  0
  182.3260  176.1450  139.6820 C   0  0  0  0  0  2  0  0  0  0  0  0
  181.1750  175.5490  138.8870 C   0  0  0  0  0  2  0  0  0  0  0  0
  179.8200  175.9250  139.4720 C   0  0  0  0  0  3  0  0  0  0  0  0
  178.9920  176.4750  138.4910 O   0  0  0  0  0  1  0  0  0  0  0  0
  179.2090  174.8110  140.0470 O   0  0  0  0  0  1  0  0  0  0  0  0
  185.2710  178.4470  144.8650 C   0  0  0  0  0  2  0  0  0  0  0  0
  186.3280  177.7250  145.6830 C   0  0  0  0  0  2  0  0  0  0  0  0
  185.8320  179.3370  147.3340 O   0  0  0  0  0  0  0  0  0  0  0  0
  186.4810  178.3460  147.0360 C   0  0  0  0  0  0  0  0  0  0  0  0
  188.5020  177.1960  147.3680 O   0  0  0  0  0  0  0  0  0  0  0  0
  187.4280  177.7520  148.0270 C   0  0  0  0  0  3  0  0  0  0  0  0
  188.6470  178.3950  147.9540 O   0  0  0  0  0  0  0  0  0  0  0  0
  1 11  1  0  0  0  0
  2 18  1  6  0  0  0
  2  5  1  0  0  0  0
  2 13  1  0  0  0  0
  3 12  2  0  0  0  0
  5 13  1  0  0  0  0
  5  6  1  1  0  0  0
  6  4  2  0  0  0  0
  6  1  1  0  0  0  0
  7 24  1  1  0  0  0
  7  8  1  0  0  0  0
  8 10  1  1  0  0  0
  9  1  1  1  0  0  0
  9  7  1  0  0  0  0
 10 14  2  0  0  0  0
 11  8  1  0  0  0  0
 11  3  1  1  0  0  0
 12 14  1  0  0  0  0
 13  9  1  0  0  0  0
 15 18  1  0  0  0  0
 16 15  1  0  0  0  0
 16 17  1  0  0  0  0
 17 20  1  0  0  0  0
 17 18  1  0  0  0  0
 19 15  2  0  0  0  0
 20 21  2  0  0  0  0
 22 20  1  0  0  0  0
 22 23  1  0  0  0  0
 25 30  1  0  0  0  0
 25 31  1  0  0  0  0
 26 24  1  0  0  0  0
 26 25  1  0  0  0  0
 27 30  1  0  0  0  0
 28 26  1  0  0  0  0
 28 27  1  0  0  0  0
 29 28  1  0  0  0  0
 30 31  1  0  0  0  0
 31 40  1  0  0  0  0
 33 27  1  0  0  0  0
 33 32  2  0  0  0  0
 34 35  1  0  0  0  0
 34 33  1  0  0  0  0
 36 37  1  0  0  0  0
 36 35  1  0  0  0  0
 37 39  1  0  0  0  0
 38 37  1  0  0  0  0
 40 41  1  0  0  0  0
 41 43  1  0  0  0  0
 43 42  2  0  0  0  0
 43 45  1  0  0  0  0
 44 46  1  0  0  0  0
 44 45  1  0  0  0  0
 46 45  1  0  0  0  0
M  END
>  <MODEL>
3

>  <REMARK>
 VINA RESULT:      -7.6      2.514      9.610
  Name = 
  14 active torsions:
  status: ('A' for Active; 'I' for Inactive)
    1  A    between atoms: C_1  and  C_23
    2  A    between atoms: C_2  and  C_13
    3  A    between atoms: C_2  and  N_44
    4  A    between atoms: C_4  and  C_24
    5  A    between atoms: C_8  and  O_37
    6  A    between atoms: C_10  and  C_41
    7  A    between atoms: C_11  and  C_30
    8  A    between atoms: C_13  and  C_30
    9  A    between atoms: C_14  and  C_19
   10  A    between atoms: C_19  and  C_35
   11  A    between atoms: N_21  and  C_23
   12  A    between atoms: C_26  and  O_37
   13  A    between atoms: C_35  and  C_42
   14  A    between atoms: C_41  and  C_42
                            x       y       z     vdW  Elec       q    Type
                         _______ _______ _______ _____ _____    ______ ____

>  <TORSDO>
F 14

$$$$
=
 OpenBabel11062416273D

 46 53  0  0  1  0  0  0  0  0999 V2000
  190.3950  177.9930  140.6170 N   0  0  0  0  0  0  0  0  0  0  0  0
  189.3600  177.7370  137.9380 C   0  0  2  0  0  3  0  0  0  0  0  0
  191.3660  176.9150  142.5820 N   0  0  0  0  0  0  0  0  0  0  0  0
  192.1910  176.7670  139.7110 O   0  0  0  0  0  0  0  0  0  0  0  0
  189.9740  176.5850  138.7160 C   0  0  1  0  0  3  0  0  0  0  0  0
  190.9770  177.1040  139.6880 C   0  0  0  0  0  0  0  0  0  0  0  0
  188.3620  178.0680  141.6000 C   0  0  1  0  0  3  0  0  0  0  0  0
  189.2370  178.0830  142.5940 C   0  0  1  0  0  3  0  0  0  0  0  0
  189.0360  178.0650  140.3440 N   0  0  2  0  0  0  0  0  0  0  0  0
  188.9770  177.6270  143.9610 C   0  0  0  0  0  3  0  0  0  0  0  0
  190.6350  178.0740  142.0550 C   0  0  2  0  0  3  0  0  0  0  0  0
  191.0760  176.3800  143.7410 C   0  0  0  0  0  3  0  0  0  0  0  0
  188.6610  177.2390  139.1940 C   0  0  1  0  0  3  0  0  0  0  0  0
  189.8920  176.8250  144.5200 C   0  0  0  0  0  3  0  0  0  0  0  0
  187.3030  176.9940  136.9350 C   0  0  0  0  0  0  0  0  0  0  0  0
  187.5770  175.5670  136.8580 N   0  0  0  0  0  2  0  0  0  0  0  0
  188.9570  175.7930  136.5610 N   0  0  0  0  0  0  0  0  0  0  0  0
  188.6940  177.1840  136.6820 C   0  0  2  0  0  3  0  0  0  0  0  0
  186.2940  177.7180  137.1390 O   0  0  0  0  0  0  0  0  0  0  0  0
  190.0630  174.9670  136.2020 C   0  0  0  0  0  0  0  0  0  0  0  0
  190.1880  173.7540  136.7210 C   0  0  0  0  0  2  0  0  0  0  0  0
  191.1180  175.4930  135.2920 C   0  0  0  0  0  2  0  0  0  0  0  0
  192.3880  175.7560  136.0730 C   0  0  0  0  0  1  0  0  0  0  0  0
  186.9820  177.9400  141.7720 O   0  0  0  0  0  0  0  0  0  0  0  0
  185.4040  179.3820  142.9470 C   0  0  1  0  0  3  0  0  0  0  0  0
  186.0860  179.0340  141.6190 C   0  0  2  0  0  3  0  0  0  0  0  0
  183.8520  178.2030  141.5360 C   0  0  1  0  0  3  0  0  0  0  0  0
  184.9910  178.6680  140.6440 C   0  0  1  0  0  3  0  0  0  0  0  0
  184.6360  179.8100  139.9210 O   0  0  0  0  0  1  0  0  0  0  0  0
  184.0190  178.9040  142.8750 C   0  0  1  0  0  3  0  0  0  0  0  0
  185.0050  178.1700  143.6830 N   0  0  0  0  0  0  0  0  0  0  0  0
  182.2270  177.9440  139.8240 O   0  0  0  0  0  0  0  0  0  0  0  0
  182.4820  178.3750  140.9410 C   0  0  0  0  0  0  0  0  0  0  0  0
  181.4140  179.0460  141.7450 C   0  0  0  0  0  2  0  0  0  0  0  0
  180.1500  179.2500  140.9260 C   0  0  0  0  0  2  0  0  0  0  0  0
  179.9560  180.7300  140.6300 C   0  0  0  0  0  2  0  0  0  0  0  0
  180.1790  181.0520  139.1590 C   0  0  0  0  0  3  0  0  0  0  0  0
  179.4860  182.2090  138.7930 O   0  0  0  0  0  1  0  0  0  0  0  0
  181.5400  181.2040  138.8920 O   0  0  0  0  0  1  0  0  0  0  0  0
  184.8220  178.5780  145.0660 C   0  0  0  0  0  2  0  0  0  0  0  0
  185.6800  177.7180  145.9770 C   0  0  0  0  0  2  0  0  0  0  0  0
  185.8820  179.5460  147.4570 O   0  0  0  0  0  0  0  0  0  0  0  0
  186.4140  178.5560  146.9770 C   0  0  0  0  0  0  0  0  0  0  0  0
  187.9710  178.4510  148.7330 O   0  0  0  0  0  0  0  0  0  0  0  0
  187.7990  178.1810  147.3930 C   0  0  0  0  0  3  0  0  0  0  0  0
  187.7470  177.1850  148.3470 O   0  0  0  0  0  0  0  0  0  0  0  0
  1 11  1  0  0  0  0
  2 18  1  6  0  0  0
  2  5  1  0  0  0  0
  2 13  1  0  0  0  0
  3 12  2  0  0  0  0
  5 13  1  0  0  0  0
  5  6  1  1  0  0  0
  6  4  2  0  0  0  0
  6  1  1  0  0  0  0
  7 24  1  1  0  0  0
  7  8  1  0  0  0  0
  8 10  1  1  0  0  0
  9  1  1  1  0  0  0
  9  7  1  0  0  0  0
 10 14  2  0  0  0  0
 11  3  1  1  0  0  0
 11  8  1  0  0  0  0
 12 14  1  0  0  0  0
 13  9  1  0  0  0  0
 15 19  2  0  0  0  0
 16 15  1  0  0  0  0
 17 18  1  0  0  0  0
 17 16  1  0  0  0  0
 18 15  1  0  0  0  0
 20 17  1  0  0  0  0
 20 21  2  0  0  0  0
 22 23  1  0  0  0  0
 22 20  1  0  0  0  0
 25 31  1  0  0  0  0
 26 24  1  0  0  0  0
 26 25  1  0  0  0  0
 27 30  1  0  0  0  0
 28 27  1  0  0  0  0
 28 26  1  0  0  0  0
 29 28  1  0  0  0  0
 30 25  1  0  0  0  0
 30 31  1  0  0  0  0
 31 40  1  0  0  0  0
 32 33  2  0  0  0  0
 33 27  1  0  0  0  0
 33 34  1  0  0  0  0
 35 34  1  0  0  0  0
 36 35  1  0  0  0  0
 37 36  1  0  0  0  0
 38 37  1  0  0  0  0
 39 37  1  0  0  0  0
 40 41  1  0  0  0  0
 41 43  1  0  0  0  0
 43 45  1  0  0  0  0
 43 42  2  0  0  0  0
 45 46  1  0  0  0  0
 45 44  1  0  0  0  0
 46 44  1  0  0  0  0
M  END
>  <MODEL>
4

>  <REMARK>
 VINA RESULT:      -7.4      2.528      9.636
  Name = 
  14 active torsions:
  status: ('A' for Active; 'I' for Inactive)
    1  A    between atoms: C_1  and  C_23
    2  A    between atoms: C_2  and  C_13
    3  A    between atoms: C_2  and  N_44
    4  A    between atoms: C_4  and  C_24
    5  A    between atoms: C_8  and  O_37
    6  A    between atoms: C_10  and  C_41
    7  A    between atoms: C_11  and  C_30
    8  A    between atoms: C_13  and  C_30
    9  A    between atoms: C_14  and  C_19
   10  A    between atoms: C_19  and  C_35
   11  A    between atoms: N_21  and  C_23
   12  A    between atoms: C_26  and  O_37
   13  A    between atoms: C_35  and  C_42
   14  A    between atoms: C_41  and  C_42
                            x       y       z     vdW  Elec       q    Type
                         _______ _______ _______ _____ _____    ______ ____

>  <TORSDO>
F 14

$$$$
=
 OpenBabel11062416273D

 46 53  0  0  1  0  0  0  0  0999 V2000
  190.3400  178.0340  140.7600 N   0  0  0  0  0  0  0  0  0  0  0  0
  189.2060  177.8630  138.1150 C   0  0  2  0  0  3  0  0  0  0  0  0
  191.3630  176.8910  142.6610 N   0  0  0  0  0  0  0  0  0  0  0  0
  192.0820  176.8050  139.7590 O   0  0  0  0  0  0  0  0  0  0  0  0
  189.8280  176.6830  138.8410 C   0  0  1  0  0  3  0  0  0  0  0  0
  190.8740  177.1600  139.7890 C   0  0  0  0  0  0  0  0  0  0  0  0
  188.3450  178.1160  141.8170 C   0  0  1  0  0  3  0  0  0  0  0  0
  189.2550  178.0910  142.7800 C   0  0  1  0  0  3  0  0  0  0  0  0
  188.9730  178.1340  140.5380 N   0  0  2  0  0  0  0  0  0  0  0  0
  189.0370  177.6050  144.1420 C   0  0  0  0  0  3  0  0  0  0  0  0
  190.6320  178.0750  142.1900 C   0  0  2  0  0  3  0  0  0  0  0  0
  191.1060  176.3310  143.8150 C   0  0  0  0  0  3  0  0  0  0  0  0
  188.5440  177.3440  139.3820 C   0  0  1  0  0  3  0  0  0  0  0  0
  189.9580  176.7750  144.6480 C   0  0  0  0  0  3  0  0  0  0  0  0
  187.0960  177.2150  137.1570 C   0  0  0  0  0  0  0  0  0  0  0  0
  187.3110  175.7800  137.0560 N   0  0  0  0  0  2  0  0  0  0  0  0
  188.6900  175.9540  136.7260 N   0  0  0  0  0  0  0  0  0  0  0  0
  188.4860  177.3530  136.8700 C   0  0  2  0  0  3  0  0  0  0  0  0
  186.1230  177.9770  137.3950 O   0  0  0  0  0  0  0  0  0  0  0  0
  189.7530  175.0890  136.3290 C   0  0  0  0  0  0  0  0  0  0  0  0
  189.8730  173.8860  136.8710 C   0  0  0  0  0  2  0  0  0  0  0  0
  190.7700  175.5650  135.3510 C   0  0  0  0  0  2  0  0  0  0  0  0
  192.1030  175.7510  136.0430 C   0  0  0  0  0  1  0  0  0  0  0  0
  186.9700  178.0050  142.0360 O   0  0  0  0  0  0  0  0  0  0  0  0
  185.3030  179.4790  143.0320 C   0  0  1  0  0  3  0  0  0  0  0  0
  186.0630  179.0660  141.7670 C   0  0  2  0  0  3  0  0  0  0  0  0
  183.8530  178.1820  141.6160 C   0  0  1  0  0  3  0  0  0  0  0  0
  185.0310  178.6180  140.7590 C   0  0  1  0  0  3  0  0  0  0  0  0
  184.6950  179.7060  139.9490 O   0  0  0  0  0  1  0  0  0  0  0  0
  183.9330  178.9660  142.9150 C   0  0  1  0  0  3  0  0  0  0  0  0
  184.8870  178.3050  143.8190 N   0  0  0  0  0  0  0  0  0  0  0  0
  181.7380  179.1870  141.2240 O   0  0  0  0  0  0  0  0  0  0  0  0
  182.5160  178.2870  140.9380 C   0  0  0  0  0  0  0  0  0  0  0  0
  182.1560  177.2990  139.8730 C   0  0  0  0  0  2  0  0  0  0  0  0
  180.7470  176.7640  140.0680 C   0  0  0  0  0  2  0  0  0  0  0  0
  180.7160  175.2680  139.7930 C   0  0  0  0  0  2  0  0  0  0  0  0
  179.6070  174.8890  138.8210 C   0  0  0  0  0  3  0  0  0  0  0  0
  179.7370  175.5910  137.6210 O   0  0  0  0  0  1  0  0  0  0  0  0
  179.6190  173.5150  138.5760 O   0  0  0  0  0  1  0  0  0  0  0  0
  184.6190  178.7920  145.1620 C   0  0  0  0  0  2  0  0  0  0  0  0
  185.2510  177.8630  146.1850 C   0  0  0  0  0  2  0  0  0  0  0  0
  185.9300  179.6840  147.5240 O   0  0  0  0  0  0  0  0  0  0  0  0
  186.2260  178.5970  147.0520 C   0  0  0  0  0  0  0  0  0  0  0  0
  188.1700  178.6930  148.3660 O   0  0  0  0  0  0  0  0  0  0  0  0
  187.5630  177.9980  147.3440 C   0  0  0  0  0  3  0  0  0  0  0  0
  187.5870  177.5150  148.6360 O   0  0  0  0  0  0  0  0  0  0  0  0
  1 11  1  0  0  0  0
  2 18  1  6  0  0  0
  2  5  1  0  0  0  0
  2 13  1  0  0  0  0
  3 12  2  0  0  0  0
  4  6  2  0  0  0  0
  5 13  1  0  0  0  0
  5  6  1  1  0  0  0
  6  1  1  0  0  0  0
  7 24  1  6  0  0  0
  7  8  1  0  0  0  0
  8 10  1  6  0  0  0
  9  1  1  1  0  0  0
  9  7  1  0  0  0  0
 10 14  2  0  0  0  0
 11  3  1  1  0  0  0
 11  8  1  0  0  0  0
 12 14  1  0  0  0  0
 13  9  1  0  0  0  0
 15 19  2  0  0  0  0
 16 15  1  0  0  0  0
 17 18  1  0  0  0  0
 17 16  1  0  0  0  0
 18 15  1  0  0  0  0
 20 17  1  0  0  0  0
 20 21  2  0  0  0  0
 22 23  1  0  0  0  0
 22 20  1  0  0  0  0
 25 31  1  0  0  0  0
 26 24  1  0  0  0  0
 26 25  1  0  0  0  0
 27 30  1  0  0  0  0
 28 27  1  0  0  0  0
 28 26  1  0  0  0  0
 29 28  1  0  0  0  0
 30 25  1  0  0  0  0
 30 31  1  0  0  0  0
 31 40  1  0  0  0  0
 33 32  2  0  0  0  0
 33 27  1  0  0  0  0
 34 35  1  0  0  0  0
 34 33  1  0  0  0  0
 36 35  1  0  0  0  0
 37 36  1  0  0  0  0
 38 37  1  0  0  0  0
 39 37  1  0  0  0  0
 40 41  1  0  0  0  0
 41 43  1  0  0  0  0
 43 45  1  0  0  0  0
 43 42  2  0  0  0  0
 44 46  1  0  0  0  0
 45 44  1  0  0  0  0
 45 46  1  0  0  0  0
M  END
>  <MODEL>
5

>  <REMARK>
 VINA RESULT:      -7.3      2.538      9.373
  Name = 
  14 active torsions:
  status: ('A' for Active; 'I' for Inactive)
    1  A    between atoms: C_1  and  C_23
    2  A    between atoms: C_2  and  C_13
    3  A    between atoms: C_2  and  N_44
    4  A    between atoms: C_4  and  C_24
    5  A    between atoms: C_8  and  O_37
    6  A    between atoms: C_10  and  C_41
    7  A    between atoms: C_11  and  C_30
    8  A    between atoms: C_13  and  C_30
    9  A    between atoms: C_14  and  C_19
   10  A    between atoms: C_19  and  C_35
   11  A    between atoms: N_21  and  C_23
   12  A    between atoms: C_26  and  O_37
   13  A    between atoms: C_35  and  C_42
   14  A    between atoms: C_41  and  C_42
                            x       y       z     vdW  Elec       q    Type
                         _______ _______ _______ _____ _____    ______ ____

>  <TORSDO>
F 14

$$$$
=
 OpenBabel11062416273D

 46 53  0  0  1  0  0  0  0  0999 V2000
  189.6930  175.3740  136.8680 N   0  0  0  0  0  0  0  0  0  0  0  0
  192.3970  174.5070  137.3700 C   0  0  2  0  0  3  0  0  0  0  0  0
  188.1810  176.8870  135.6900 N   0  0  0  0  0  0  0  0  0  0  0  0
  190.3620  175.1420  134.6220 O   0  0  0  0  0  0  0  0  0  0  0  0
  192.0310  175.5680  136.3470 C   0  0  1  0  0  3  0  0  0  0  0  0
  190.6520  175.3280  135.8340 C   0  0  0  0  0  0  0  0  0  0  0  0
  189.5350  176.6040  138.7570 C   0  0  1  0  0  3  0  0  0  0  0  0
  188.3980  176.8040  138.1080 C   0  0  1  0  0  3  0  0  0  0  0  0
  190.3560  175.6780  138.0500 N   0  0  2  0  0  0  0  0  0  0  0  0
  187.5400  177.9820  138.2410 C   0  0  0  0  0  3  0  0  0  0  0  0
  188.3740  176.0000  136.8440 C   0  0  2  0  0  3  0  0  0  0  0  0
  187.5410  178.0250  135.7900 C   0  0  0  0  0  3  0  0  0  0  0  0
  191.8000  175.8210  137.8500 C   0  0  1  0  0  3  0  0  0  0  0  0
  187.1030  178.5500  137.1090 C   0  0  0  0  0  3  0  0  0  0  0  0
  194.4920  175.4800  136.6940 C   0  0  0  0  0  0  0  0  0  0  0  0
  195.0350  174.3680  135.9300 N   0  0  0  0  0  2  0  0  0  0  0  0
  194.4800  173.4070  136.8300 N   0  0  0  0  0  0  0  0  0  0  0  0
  193.9130  174.4950  137.5470 C   0  0  2  0  0  3  0  0  0  0  0  0
  194.5210  176.7360  136.6210 O   0  0  0  0  0  0  0  0  0  0  0  0
  194.5630  171.9900  136.9750 C   0  0  0  0  0  0  0  0  0  0  0  0
  195.4640  171.4530  137.7850 C   0  0  0  0  0  2  0  0  0  0  0  0
  193.6770  171.1080  136.1660 C   0  0  0  0  0  2  0  0  0  0  0  0
  194.1150  169.6660  136.3110 C   0  0  0  0  0  1  0  0  0  0  0  0
  189.9190  177.3070  139.9010 O   0  0  0  0  0  0  0  0  0  0  0  0
  188.6530  176.8630  141.9380 C   0  0  1  0  0  3  0  0  0  0  0  0
  189.9790  176.7040  141.1870 C   0  0  2  0  0  3  0  0  0  0  0  0
  190.2680  178.4060  142.8330 C   0  0  1  0  0  3  0  0  0  0  0  0
  191.0420  177.3800  142.0220 C   0  0  1  0  0  3  0  0  0  0  0  0
  191.6370  176.4230  142.8490 O   0  0  0  0  0  1  0  0  0  0  0  0
  188.8480  177.8830  142.9740 C   0  0  1  0  0  3  0  0  0  0  0  0
  188.0890  178.2120  141.7580 N   0  0  0  0  0  0  0  0  0  0  0  0
  192.0300  179.2450  144.1850 O   0  0  0  0  0  0  0  0  0  0  0  0
  190.9020  178.7720  144.1460 C   0  0  0  0  0  0  0  0  0  0  0  0
  190.1230  178.5900  145.4100 C   0  0  0  0  0  2  0  0  0  0  0  0
  190.5230  177.3120  146.1270 C   0  0  0  0  0  2  0  0  0  0  0  0
  189.3250  176.7310  146.8640 C   0  0  0  0  0  2  0  0  0  0  0  0
  188.4410  177.8170  147.4620 C   0  0  0  0  0  3  0  0  0  0  0  0
  187.0990  177.5940  147.1470 O   0  0  0  0  0  1  0  0  0  0  0  0
  188.6050  177.8750  148.8470 O   0  0  0  0  0  1  0  0  0  0  0  0
  186.6770  178.1090  142.0860 C   0  0  0  0  0  2  0  0  0  0  0  0
  185.8980  179.2000  141.3720 C   0  0  0  0  0  2  0  0  0  0  0  0
  183.8980  178.2640  142.2080 O   0  0  0  0  0  0  0  0  0  0  0  0
  184.4430  178.8590  141.2890 C   0  0  0  0  0  0  0  0  0  0  0  0
  184.4560  179.9430  139.2060 O   0  0  0  0  0  0  0  0  0  0  0  0
  183.6520  179.2490  140.0830 C   0  0  0  0  0  3  0  0  0  0  0  0
  184.1870  178.6520  138.9600 O   0  0  0  0  0  0  0  0  0  0  0  0
  2 18  1  1  0  0  0
  2 13  1  0  0  0  0
  3 12  2  0  0  0  0
  4  6  2  0  0  0  0
  5  6  1  6  0  0  0
  5  2  1  0  0  0  0
  5 13  1  0  0  0  0
  6  1  1  0  0  0  0
  7 24  1  6  0  0  0
  8 10  1  6  0  0  0
  8  7  1  0  0  0  0
  9  1  1  6  0  0  0
  9  7  1  0  0  0  0
 11  3  1  6  0  0  0
 11  1  1  0  0  0  0
 11  8  1  0  0  0  0
 12 14  1  0  0  0  0
 13  9  1  0  0  0  0
 14 10  2  0  0  0  0
 15 18  1  0  0  0  0
 16 15  1  0  0  0  0
 16 17  1  0  0  0  0
 17 20  1  0  0  0  0
 17 18  1  0  0  0  0
 19 15  2  0  0  0  0
 20 21  2  0  0  0  0
 22 23  1  0  0  0  0
 22 20  1  0  0  0  0
 24 26  1  0  0  0  0
 25 30  1  0  0  0  0
 26 25  1  0  0  0  0
 26 28  1  0  0  0  0
 27 30  1  0  0  0  0
 27 33  1  0  0  0  0
 28 27  1  0  0  0  0
 28 29  1  0  0  0  0
 31 25  1  0  0  0  0
 31 40  1  0  0  0  0
 31 30  1  0  0  0  0
 33 32  2  0  0  0  0
 33 34  1  0  0  0  0
 34 35  1  0  0  0  0
 35 36  1  0  0  0  0
 36 37  1  0  0  0  0
 37 39  1  0  0  0  0
 38 37  1  0  0  0  0
 41 40  1  0  0  0  0
 43 41  1  0  0  0  0
 43 42  2  0  0  0  0
 44 45  1  0  0  0  0
 45 43  1  0  0  0  0
 46 44  1  0  0  0  0
 46 45  1  0  0  0  0
M  END
>  <MODEL>
6

>  <REMARK>
 VINA RESULT:      -7.2      2.723      8.384
  Name = 
  14 active torsions:
  status: ('A' for Active; 'I' for Inactive)
    1  A    between atoms: C_1  and  C_23
    2  A    between atoms: C_2  and  C_13
    3  A    between atoms: C_2  and  N_44
    4  A    between atoms: C_4  and  C_24
    5  A    between atoms: C_8  and  O_37
    6  A    between atoms: C_10  and  C_41
    7  A    between atoms: C_11  and  C_30
    8  A    between atoms: C_13  and  C_30
    9  A    between atoms: C_14  and  C_19
   10  A    between atoms: C_19  and  C_35
   11  A    between atoms: N_21  and  C_23
   12  A    between atoms: C_26  and  O_37
   13  A    between atoms: C_35  and  C_42
   14  A    between atoms: C_41  and  C_42
                            x       y       z     vdW  Elec       q    Type
                         _______ _______ _______ _____ _____    ______ ____

>  <TORSDO>
F 14

$$$$
=
 OpenBabel11062416273D

 46 53  0  0  1  0  0  0  0  0999 V2000
  186.0490  177.4390  144.7930 N   0  0  0  0  0  0  0  0  0  0  0  0
  183.9970  178.2530  142.9390 C   0  0  2  0  0  3  0  0  0  0  0  0
  187.8230  178.0810  146.3440 N   0  0  0  0  0  0  0  0  0  0  0  0
  184.9850  179.0110  146.1850 O   0  0  0  0  0  0  0  0  0  0  0  0
  184.8190  179.2280  143.7640 C   0  0  1  0  0  3  0  0  0  0  0  0
  185.2550  178.5800  145.0330 C   0  0  0  0  0  0  0  0  0  0  0  0
  187.5620  176.9340  143.1920 C   0  0  1  0  0  3  0  0  0  0  0  0
  188.1920  176.7540  144.3430 C   0  0  1  0  0  3  0  0  0  0  0  0
  186.2070  177.3100  143.4190 N   0  0  2  0  0  0  0  0  0  0  0  0
  189.6400  176.8300  144.5400 C   0  0  0  0  0  3  0  0  0  0  0  0
  187.2650  177.0260  145.4890 C   0  0  2  0  0  3  0  0  0  0  0  0
  189.1130  178.2830  146.4440 C   0  0  0  0  0  3  0  0  0  0  0  0
  185.4930  178.3570  142.6830 C   0  0  1  0  0  3  0  0  0  0  0  0
  190.0760  177.5510  145.5820 C   0  0  0  0  0  3  0  0  0  0  0  0
  181.9150  179.3410  142.4180 C   0  0  0  0  0  0  0  0  0  0  0  0
  181.3950  178.4020  141.4350 N   0  0  0  0  0  2  0  0  0  0  0  0
  182.6980  178.1530  140.9030 N   0  0  0  0  0  0  0  0  0  0  0  0
  183.2060  179.0360  141.8950 C   0  0  2  0  0  3  0  0  0  0  0  0
  181.4340  180.0770  143.3180 O   0  0  0  0  0  0  0  0  0  0  0  0
  183.2160  177.4170  139.7970 C   0  0  0  0  0  0  0  0  0  0  0  0
  184.1310  177.9560  139.0050 C   0  0  0  0  0  2  0  0  0  0  0  0
  182.6800  176.0620  139.4910 C   0  0  0  0  0  2  0  0  0  0  0  0
  183.3710  175.4980  138.2680 C   0  0  0  0  0  1  0  0  0  0  0  0
  188.1840  176.8860  141.9430 O   0  0  0  0  0  0  0  0  0  0  0  0
  188.7480  178.4950  140.2000 C   0  0  1  0  0  3  0  0  0  0  0  0
  189.1480  177.8460  141.5290 C   0  0  2  0  0  3  0  0  0  0  0  0
  190.5050  176.8970  139.8130 C   0  0  1  0  0  3  0  0  0  0  0  0
  190.4820  177.1720  141.3070 C   0  0  1  0  0  3  0  0  0  0  0  0
  191.4980  178.0590  141.6760 O   0  0  0  0  0  1  0  0  0  0  0  0
  189.6130  177.9370  139.1540 C   0  0  1  0  0  3  0  0  0  0  0  0
  188.2110  177.5020  139.2540 N   0  0  0  0  0  0  0  0  0  0  0  0
  192.8670  177.1280  139.8700 O   0  0  0  0  0  0  0  0  0  0  0  0
  191.8810  176.8260  139.2120 C   0  0  0  0  0  0  0  0  0  0  0  0
  192.0410  176.3410  137.8050 C   0  0  0  0  0  2  0  0  0  0  0  0
  193.5040  176.1130  137.4620 C   0  0  0  0  0  2  0  0  0  0  0  0
  193.8740  174.6570  137.7060 C   0  0  0  0  0  2  0  0  0  0  0  0
  195.3280  174.5020  138.1310 C   0  0  0  0  0  3  0  0  0  0  0  0
  196.1820  175.1260  137.2180 O   0  0  0  0  0  1  0  0  0  0  0  0
  195.5240  175.0290  139.4080 O   0  0  0  0  0  1  0  0  0  0  0  0
  187.4540  178.2520  138.2650 C   0  0  0  0  0  2  0  0  0  0  0  0
  187.8660  177.8270  136.8670 C   0  0  0  0  0  2  0  0  0  0  0  0
  185.7480  177.3010  135.9650 O   0  0  0  0  0  0  0  0  0  0  0  0
  186.8590  176.8940  136.2670 C   0  0  0  0  0  0  0  0  0  0  0  0
  188.2070  175.0800  136.9110 O   0  0  0  0  0  0  0  0  0  0  0  0
  187.2160  175.4620  136.0340 C   0  0  0  0  0  3  0  0  0  0  0  0
  186.9390  174.7210  137.1640 O   0  0  0  0  0  0  0  0  0  0  0  0
  1  6  1  0  0  0  0
  1 11  1  0  0  0  0
  2 18  1  6  0  0  0
  2  5  1  0  0  0  0
  3 12  2  0  0  0  0
  5  6  1  1  0  0  0
  6  4  2  0  0  0  0
  7 24  1  1  0  0  0
  7  9  1  0  0  0  0
  7  8  1  0  0  0  0
  8 10  1  6  0  0  0
  8 11  1  0  0  0  0
  9  1  1  1  0  0  0
 10 14  2  0  0  0  0
 11  3  1  1  0  0  0
 13  2  1  0  0  0  0
 13  9  1  0  0  0  0
 13  5  1  0  0  0  0
 14 12  1  0  0  0  0
 15 19  2  0  0  0  0
 16 15  1  0  0  0  0
 17 16  1  0  0  0  0
 17 18  1  0  0  0  0
 18 15  1  0  0  0  0
 20 17  1  0  0  0  0
 21 20  2  0  0  0  0
 22 20  1  0  0  0  0
 23 22  1  0  0  0  0
 25 26  1  0  0  0  0
 26 24  1  0  0  0  0
 27 28  1  0  0  0  0
 28 26  1  0  0  0  0
 28 29  1  0  0  0  0
 30 31  1  0  0  0  0
 30 27  1  0  0  0  0
 30 25  1  0  0  0  0
 31 25  1  0  0  0  0
 33 27  1  0  0  0  0
 33 32  2  0  0  0  0
 34 33  1  0  0  0  0
 35 36  1  0  0  0  0
 35 34  1  0  0  0  0
 36 37  1  0  0  0  0
 37 39  1  0  0  0  0
 38 37  1  0  0  0  0
 40 31  1  0  0  0  0
 41 40  1  0  0  0  0
 42 43  2  0  0  0  0
 43 41  1  0  0  0  0
 44 46  1  0  0  0  0
 45 43  1  0  0  0  0
 45 44  1  0  0  0  0
 45 46  1  0  0  0  0
M  END
>  <MODEL>
7

>  <REMARK>
 VINA RESULT:      -7.2      1.661      5.067
  Name = 
  14 active torsions:
  status: ('A' for Active; 'I' for Inactive)
    1  A    between atoms: C_1  and  C_23
    2  A    between atoms: C_2  and  C_13
    3  A    between atoms: C_2  and  N_44
    4  A    between atoms: C_4  and  C_24
    5  A    between atoms: C_8  and  O_37
    6  A    between atoms: C_10  and  C_41
    7  A    between atoms: C_11  and  C_30
    8  A    between atoms: C_13  and  C_30
    9  A    between atoms: C_14  and  C_19
   10  A    between atoms: C_19  and  C_35
   11  A    between atoms: N_21  and  C_23
   12  A    between atoms: C_26  and  O_37
   13  A    between atoms: C_35  and  C_42
   14  A    between atoms: C_41  and  C_42
                            x       y       z     vdW  Elec       q    Type
                         _______ _______ _______ _____ _____    ______ ____

>  <TORSDO>
F 14

$$$$
=
 OpenBabel11062416273D

 46 53  0  0  1  0  0  0  0  0999 V2000
  186.3270  177.7810  137.0360 N   0  0  0  0  0  0  0  0  0  0  0  0
  184.1460  179.0400  138.4410 C   0  0  2  0  0  3  0  0  0  0  0  0
  187.4690  175.7210  136.3900 N   0  0  0  0  0  0  0  0  0  0  0  0
  184.5870  176.4760  136.1330 O   0  0  0  0  0  0  0  0  0  0  0  0
  184.3050  177.5350  138.3100 C   0  0  1  0  0  3  0  0  0  0  0  0
  185.0380  177.2070  137.0550 C   0  0  0  0  0  0  0  0  0  0  0  0
  187.8510  178.1780  138.6560 C   0  0  1  0  0  3  0  0  0  0  0  0
  188.4880  177.4660  137.7390 C   0  0  1  0  0  3  0  0  0  0  0  0
  186.5150  178.4460  138.2410 N   0  0  2  0  0  0  0  0  0  0  0  0
  189.6560  176.6190  137.9810 C   0  0  0  0  0  3  0  0  0  0  0  0
  187.5760  177.1730  136.5860 C   0  0  2  0  0  3  0  0  0  0  0  0
  188.4350  174.9030  136.7240 C   0  0  0  0  0  3  0  0  0  0  0  0
  185.3350  178.3620  139.1060 C   0  0  1  0  0  3  0  0  0  0  0  0
  189.6340  175.3860  137.4570 C   0  0  0  0  0  3  0  0  0  0  0  0
  182.4940  178.1020  139.9180 C   0  0  0  0  0  0  0  0  0  0  0  0
  181.2890  178.4740  139.1930 N   0  0  0  0  0  2  0  0  0  0  0  0
  181.8530  179.7210  138.7840 N   0  0  0  0  0  0  0  0  0  0  0  0
  183.0450  179.3340  139.4550 C   0  0  2  0  0  3  0  0  0  0  0  0
  182.8700  177.1300  140.6240 O   0  0  0  0  0  0  0  0  0  0  0  0
  181.3720  180.8720  138.0930 C   0  0  0  0  0  0  0  0  0  0  0  0
  181.8800  182.0680  138.3510 C   0  0  0  0  0  2  0  0  0  0  0  0
  180.2470  180.7400  137.1260 C   0  0  0  0  0  2  0  0  0  0  0  0
  180.5910  179.7060  136.0750 C   0  0  0  0  0  1  0  0  0  0  0  0
  188.3840  178.5010  139.9060 O   0  0  0  0  0  0  0  0  0  0  0  0
  187.7940  177.1780  141.8680 C   0  0  1  0  0  3  0  0  0  0  0  0
  188.8560  177.5150  140.8160 C   0  0  2  0  0  3  0  0  0  0  0  0
  189.4830  178.5780  142.8570 C   0  0  1  0  0  3  0  0  0  0  0  0
  190.0630  178.0390  141.5590 C   0  0  1  0  0  3  0  0  0  0  0  0
  190.9380  176.9760  141.7970 O   0  0  0  0  0  1  0  0  0  0  0  0
  188.2060  177.8010  143.1310 C   0  0  1  0  0  3  0  0  0  0  0  0
  187.1070  178.3890  142.3490 N   0  0  0  0  0  0  0  0  0  0  0  0
  191.4780  179.2250  143.9700 O   0  0  0  0  0  0  0  0  0  0  0  0
  190.4410  178.5780  144.0160 C   0  0  0  0  0  0  0  0  0  0  0  0
  190.0940  177.8080  145.2520 C   0  0  0  0  0  2  0  0  0  0  0  0
  191.2720  176.9810  145.7370 C   0  0  0  0  0  2  0  0  0  0  0  0
  191.1120  176.6670  147.2180 C   0  0  0  0  0  2  0  0  0  0  0  0
  192.1240  175.6330  147.6940 C   0  0  0  0  0  3  0  0  0  0  0  0
  192.7070  174.9730  146.6100 O   0  0  0  0  0  1  0  0  0  0  0  0
  193.1100  176.2370  148.4750 O   0  0  0  0  0  1  0  0  0  0  0  0
  185.8610  177.9370  142.9460 C   0  0  0  0  0  2  0  0  0  0  0  0
  184.9740  179.1310  143.2570 C   0  0  0  0  0  2  0  0  0  0  0  0
  183.3890  179.1860  145.0060 O   0  0  0  0  0  0  0  0  0  0  0  0
  184.5710  179.1430  144.6990 C   0  0  0  0  0  0  0  0  0  0  0  0
  185.0300  178.8060  146.9780 O   0  0  0  0  0  0  0  0  0  0  0  0
  185.6160  179.0970  145.7660 C   0  0  0  0  0  3  0  0  0  0  0  0
  185.6700  177.8320  146.3140 O   0  0  0  0  0  0  0  0  0  0  0  0
  1  6  1  0  0  0  0
  2 13  1  0  0  0  0
  2 18  1  1  0  0  0
  3 12  2  0  0  0  0
  4  6  2  0  0  0  0
  5  6  1  6  0  0  0
  5  2  1  0  0  0  0
  5 13  1  0  0  0  0
  7 24  1  1  0  0  0
  8 10  1  1  0  0  0
  8  7  1  0  0  0  0
  9  1  1  6  0  0  0
  9  7  1  0  0  0  0
  9 13  1  0  0  0  0
 11  3  1  1  0  0  0
 11  1  1  0  0  0  0
 11  8  1  0  0  0  0
 12 14  1  0  0  0  0
 14 10  2  0  0  0  0
 15 19  2  0  0  0  0
 16 15  1  0  0  0  0
 17 16  1  0  0  0  0
 17 18  1  0  0  0  0
 18 15  1  0  0  0  0
 20 21  2  0  0  0  0
 20 17  1  0  0  0  0
 22 20  1  0  0  0  0
 23 22  1  0  0  0  0
 24 26  1  0  0  0  0
 25 31  1  0  0  0  0
 25 30  1  0  0  0  0
 26 28  1  0  0  0  0
 26 25  1  0  0  0  0
 27 30  1  0  0  0  0
 27 33  1  0  0  0  0
 28 29  1  0  0  0  0
 28 27  1  0  0  0  0
 31 40  1  0  0  0  0
 31 30  1  0  0  0  0
 32 33  2  0  0  0  0
 33 34  1  0  0  0  0
 34 35  1  0  0  0  0
 35 36  1  0  0  0  0
 36 37  1  0  0  0  0
 37 39  1  0  0  0  0
 38 37  1  0  0  0  0
 40 41  1  0  0  0  0
 41 43  1  0  0  0  0
 43 42  2  0  0  0  0
 43 45  1  0  0  0  0
 45 46  1  0  0  0  0
 45 44  1  0  0  0  0
 46 44  1  0  0  0  0
M  END
>  <MODEL>
8

>  <REMARK>
 VINA RESULT:      -7.1      2.756      8.407
  Name = 
  14 active torsions:
  status: ('A' for Active; 'I' for Inactive)
    1  A    between atoms: C_1  and  C_23
    2  A    between atoms: C_2  and  C_13
    3  A    between atoms: C_2  and  N_44
    4  A    between atoms: C_4  and  C_24
    5  A    between atoms: C_8  and  O_37
    6  A    between atoms: C_10  and  C_41
    7  A    between atoms: C_11  and  C_30
    8  A    between atoms: C_13  and  C_30
    9  A    between atoms: C_14  and  C_19
   10  A    between atoms: C_19  and  C_35
   11  A    between atoms: N_21  and  C_23
   12  A    between atoms: C_26  and  O_37
   13  A    between atoms: C_35  and  C_42
   14  A    between atoms: C_41  and  C_42
                            x       y       z     vdW  Elec       q    Type
                         _______ _______ _______ _____ _____    ______ ____

>  <TORSDO>
F 14

$$$$
=
 OpenBabel11062416273D

 46 53  0  0  1  0  0  0  0  0999 V2000
  186.8450  177.1750  144.4570 N   0  0  0  0  0  0  0  0  0  0  0  0
  184.5460  178.2070  143.0560 C   0  0  2  0  0  3  0  0  0  0  0  0
  188.6670  177.5700  146.0350 N   0  0  0  0  0  0  0  0  0  0  0  0
  185.7360  178.0910  146.3210 O   0  0  0  0  0  0  0  0  0  0  0  0
  185.3190  178.9960  144.0970 C   0  0  1  0  0  3  0  0  0  0  0  0
  185.9470  178.0670  145.0790 C   0  0  0  0  0  0  0  0  0  0  0  0
  188.2500  177.3930  142.7010 C   0  0  1  0  0  3  0  0  0  0  0  0
  189.0020  176.9680  143.7050 C   0  0  1  0  0  3  0  0  0  0  0  0
  186.8870  177.4870  143.1040 N   0  0  2  0  0  0  0  0  0  0  0  0
  190.4430  177.1870  143.8400 C   0  0  0  0  0  3  0  0  0  0  0  0
  188.1610  176.7500  144.9260 C   0  0  2  0  0  3  0  0  0  0  0  0
  189.9270  177.9140  146.1240 C   0  0  0  0  0  3  0  0  0  0  0  0
  185.9880  178.5940  142.7670 C   0  0  1  0  0  3  0  0  0  0  0  0
  190.8860  177.6170  145.0290 C   0  0  0  0  0  3  0  0  0  0  0  0
  182.2790  179.0050  142.9320 C   0  0  0  0  0  0  0  0  0  0  0  0
  181.8790  178.3910  141.6750 N   0  0  0  0  0  2  0  0  0  0  0  0
  183.1730  178.5870  141.1040 N   0  0  0  0  0  0  0  0  0  0  0  0
  183.5730  179.1450  142.3480 C   0  0  2  0  0  3  0  0  0  0  0  0
  181.7270  179.2780  144.0300 O   0  0  0  0  0  0  0  0  0  0  0  0
  183.7500  178.3930  139.8140 C   0  0  0  0  0  0  0  0  0  0  0  0
  184.4090  179.3770  139.2200 C   0  0  0  0  0  2  0  0  0  0  0  0
  183.5560  177.0990  139.1020 C   0  0  0  0  0  2  0  0  0  0  0  0
  182.7410  177.3190  137.8460 C   0  0  0  0  0  1  0  0  0  0  0  0
  188.7540  177.8100  141.4670 O   0  0  0  0  0  0  0  0  0  0  0  0
  189.7950  176.5360  139.6670 C   0  0  1  0  0  3  0  0  0  0  0  0
  188.5010  177.1060  140.2580 C   0  0  2  0  0  3  0  0  0  0  0  0
  189.1320  178.4790  138.4120 C   0  0  1  0  0  3  0  0  0  0  0  0
  187.9240  178.0480  139.2270 C   0  0  1  0  0  3  0  0  0  0  0  0
  187.0060  177.3440  138.4420 O   0  0  0  0  0  1  0  0  0  0  0  0
  190.1570  177.3600  138.5080 C   0  0  1  0  0  3  0  0  0  0  0  0
  190.9050  177.4990  139.7670 N   0  0  0  0  0  0  0  0  0  0  0  0
  188.1530  179.8800  136.7640 O   0  0  0  0  0  0  0  0  0  0  0  0
  188.8210  178.8810  136.9980 C   0  0  0  0  0  0  0  0  0  0  0  0
  189.3710  178.0690  135.8680 C   0  0  0  0  0  2  0  0  0  0  0  0
  188.2610  177.3910  135.0820 C   0  0  0  0  0  2  0  0  0  0  0  0
  188.5250  175.8950  134.9930 C   0  0  0  0  0  2  0  0  0  0  0  0
  187.3350  175.0760  135.4730 C   0  0  0  0  0  3  0  0  0  0  0  0
  187.6330  174.4250  136.6720 O   0  0  0  0  0  1  0  0  0  0  0  0
  186.2130  175.8900  135.6340 O   0  0  0  0  0  1  0  0  0  0  0  0
  192.1270  176.7240  139.6320 C   0  0  0  0  0  2  0  0  0  0  0  0
  192.8310  177.0890  138.3360 C   0  0  0  0  0  2  0  0  0  0  0  0
  192.8640  174.7580  137.9600 O   0  0  0  0  0  0  0  0  0  0  0  0
  193.1520  175.8670  137.5330 C   0  0  0  0  0  0  0  0  0  0  0  0
  194.6710  177.0870  136.2210 O   0  0  0  0  0  0  0  0  0  0  0  0
  193.8240  176.0020  136.2050 C   0  0  0  0  0  3  0  0  0  0  0  0
  195.1870  175.8550  136.3530 O   0  0  0  0  0  0  0  0  0  0  0  0
  1 11  1  0  0  0  0
  1  6  1  0  0  0  0
  2 18  1  6  0  0  0
  2  5  1  0  0  0  0
  3 12  2  0  0  0  0
  5  6  1  1  0  0  0
  6  4  2  0  0  0  0
  7 24  1  1  0  0  0
  7  9  1  0  0  0  0
  7  8  1  0  0  0  0
  8 10  1  1  0  0  0
  8 11  1  0  0  0  0
  9  1  1  1  0  0  0
 10 14  2  0  0  0  0
 11  3  1  1  0  0  0
 13  2  1  0  0  0  0
 13  9  1  0  0  0  0
 13  5  1  0  0  0  0
 14 12  1  0  0  0  0
 15 19  2  0  0  0  0
 16 15  1  0  0  0  0
 17 16  1  0  0  0  0
 17 18  1  0  0  0  0
 18 15  1  0  0  0  0
 20 17  1  0  0  0  0
 21 20  2  0  0  0  0
 22 20  1  0  0  0  0
 23 22  1  0  0  0  0
 25 31  1  0  0  0  0
 25 26  1  0  0  0  0
 26 24  1  0  0  0  0
 27 30  1  0  0  0  0
 27 28  1  0  0  0  0
 28 26  1  0  0  0  0
 29 28  1  0  0  0  0
 30 25  1  0  0  0  0
 30 31  1  0  0  0  0
 32 33  2  0  0  0  0
 33 27  1  0  0  0  0
 34 33  1  0  0  0  0
 35 34  1  0  0  0  0
 36 35  1  0  0  0  0
 36 37  1  0  0  0  0
 37 39  1  0  0  0  0
 37 38  1  0  0  0  0
 40 31  1  0  0  0  0
 41 40  1  0  0  0  0
 43 42  2  0  0  0  0
 43 41  1  0  0  0  0
 44 46  1  0  0  0  0
 45 44  1  0  0  0  0
 45 46  1  0  0  0  0
 45 43  1  0  0  0  0
M  END
>  <MODEL>
9

>  <REMARK>
 VINA RESULT:      -7.1      1.782      6.435
  Name = 
  14 active torsions:
  status: ('A' for Active; 'I' for Inactive)
    1  A    between atoms: C_1  and  C_23
    2  A    between atoms: C_2  and  C_13
    3  A    between atoms: C_2  and  N_44
    4  A    between atoms: C_4  and  C_24
    5  A    between atoms: C_8  and  O_37
    6  A    between atoms: C_10  and  C_41
    7  A    between atoms: C_11  and  C_30
    8  A    between atoms: C_13  and  C_30
    9  A    between atoms: C_14  and  C_19
   10  A    between atoms: C_19  and  C_35
   11  A    between atoms: N_21  and  C_23
   12  A    between atoms: C_26  and  O_37
   13  A    between atoms: C_35  and  C_42
   14  A    between atoms: C_41  and  C_42
                            x       y       z     vdW  Elec       q    Type
                         _______ _______ _______ _____ _____    ______ ____

>  <TORSDO>
F 14

$$$$
