=
 OpenBabel11062416023D

 36 41  0  0  1  0  0  0  0  0999 V2000
  182.9470  179.0320  143.7180 C   0  0  0  0  0  3  0  0  0  0  0  0
  183.6080  178.6650  142.4520 C   0  0  0  0  0  0  0  0  0  0  0  0
  182.8220  178.3780  141.3840 C   0  0  1  0  0  3  0  0  0  0  0  0
  185.2490  178.0450  138.4830 C   0  0  0  0  0  3  0  0  0  0  0  0
  185.8670  178.3410  144.6600 C   0  0  0  0  0  0  0  0  0  0  0  0
  185.5650  179.0170  140.8350 C   0  0  2  0  0  3  0  0  0  0  0  0
  183.4370  178.9910  144.9490 C   0  0  0  0  0  2  0  0  0  0  0  0
  184.7600  178.5380  145.3800 C   0  0  0  0  0  3  0  0  0  0  0  0
  184.6960  178.3420  139.8060 C   0  0  0  0  0  0  0  0  0  0  0  0
  183.4100  178.1070  140.0570 C   0  0  0  0  0  3  0  0  0  0  0  0
  186.0000  178.6150  143.2170 C   0  0  0  0  0  3  0  0  0  0  0  0
  186.5740  178.0620  138.3150 C   0  0  0  0  0  3  0  0  0  0  0  0
  187.0300  178.7300  140.5820 C   0  0  0  0  0  3  0  0  0  0  0  0
  185.0830  178.7470  142.2500 C   0  0  0  0  0  0  0  0  0  0  0  0
  187.4560  178.3360  139.4170 N   0  0  0  0  0  0  0  0  0  0  0  0
  187.0710  177.8490  146.7870 C   0  0  0  0  0  3  0  0  0  0  0  0
  189.3580  177.0370  145.4130 C   0  0  0  0  0  3  0  0  0  0  0  0
  189.3400  176.9920  146.8150 C   0  0  0  0  0  0  0  0  0  0  0  0
  188.1890  177.4030  147.4980 C   0  0  0  0  0  0  0  0  0  0  0  0
  188.2380  177.4710  144.6990 C   0  0  0  0  0  0  0  0  0  0  0  0
  187.0760  177.8800  145.3840 C   0  0  0  0  0  0  0  0  0  0  0  0
  188.3070  177.5180  143.3440 F   0  0  0  0  0  0  0  0  0  0  0  0
  188.1530  177.3800  148.8530 F   0  0  0  0  0  0  0  0  0  0  0  0
  191.7030  176.2720  146.9440 C   0  0  0  0  0  1  0  0  0  0  0  0
  190.4490  176.5590  147.5480 O   0  0  0  0  0  0  0  0  0  0  0  0
  181.3280  178.2920  141.5030 C   0  0  0  0  0  2  0  0  0  0  0  0
  180.7150  179.5560  141.1210 N   0  0  0  0  0  0  0  0  0  0  0  0
  180.6450  180.0130  139.8030 N   0  0  0  0  0  0  0  0  0  0  0  0
  179.9620  181.0970  139.8600 C   0  0  0  0  0  0  0  0  0  0  0  0
  180.0460  180.3910  142.0300 N   0  0  0  0  0  0  0  0  0  0  0  0
  179.5700  181.4130  141.1890 N   0  0  0  0  0  0  0  0  0  0  0  0
  179.4290  184.2270  138.0400 C   0  0  0  0  0  2  0  0  0  0  0  0
  178.9310  183.1930  139.0290 C   0  0  0  0  0  2  0  0  0  0  0  0
  180.9490  182.4420  138.0350 C   0  0  0  0  0  2  0  0  0  0  0  0
  180.6500  183.7250  137.4110 N   0  0  0  0  0  2  0  0  0  0  0  0
  179.6740  181.9400  138.6620 C   0  0  1  0  0  3  0  0  0  0  0  0
  1  7  1  0  0  0  0
  2  1  2  0  0  0  0
  3 26  1  1  0  0  0
  3  2  1  0  0  0  0
  4  9  1  0  0  0  0
  5  8  2  0  0  0  0
  5 21  1  0  0  0  0
  6 13  1  1  0  0  0
  6 14  1  0  0  0  0
  7  8  1  0  0  0  0
  9 10  2  0  0  0  0
  9  6  1  0  0  0  0
 10  3  1  0  0  0  0
 11  5  1  0  0  0  0
 12  4  2  0  0  0  0
 12 15  1  0  0  0  0
 14  2  1  0  0  0  0
 14 11  2  0  0  0  0
 15 13  2  0  0  0  0
 16 19  1  0  0  0  0
 17 18  1  0  0  0  0
 18 19  2  0  0  0  0
 18 25  1  0  0  0  0
 19 23  1  0  0  0  0
 20 21  1  0  0  0  0
 20 17  2  0  0  0  0
 21 16  2  0  0  0  0
 22 20  1  0  0  0  0
 24 25  1  0  0  0  0
 27 26  1  0  0  0  0
 27 30  1  0  0  0  0
 28 29  2  0  0  0  0
 28 27  1  0  0  0  0
 29 31  1  0  0  0  0
 31 30  2  0  0  0  0
 32 33  1  0  0  0  0
 34 36  1  0  0  0  0
 35 34  1  0  0  0  0
 35 32  1  0  0  0  0
 36 33  1  0  0  0  0
 36 29  1  1  0  0  0
M  END
>  <MODEL>
1

>  <REMARK>
 VINA RESULT:     -11.3      0.000      0.000
  Name = 
  5 active torsions:
  status: ('A' for Active; 'I' for Inactive)
    1  A    between atoms: C_5  and  C_16
    2  A    between atoms: C_7  and  C_26
    3  A    between atoms: N_12  and  C_16
    4  A    between atoms: C_13  and  O_30
    5  A    between atoms: C_20  and  C_23
                            x       y       z     vdW  Elec       q    Type
                         _______ _______ _______ _____ _____    ______ ____

>  <TORSDO>
F 5

$$$$
=
 OpenBabel11062416023D

 36 41  0  0  1  0  0  0  0  0999 V2000
  183.7330  178.9850  145.5540 C   0  0  0  0  0  3  0  0  0  0  0  0
  183.9470  178.7390  144.1150 C   0  0  0  0  0  0  0  0  0  0  0  0
  182.8530  178.5960  143.3250 C   0  0  1  0  0  3  0  0  0  0  0  0
  184.2400  178.5080  139.7920 C   0  0  0  0  0  3  0  0  0  0  0  0
  186.7500  178.1020  145.4630 C   0  0  0  0  0  0  0  0  0  0  0  0
  185.3280  179.2050  142.0080 C   0  0  2  0  0  3  0  0  0  0  0  0
  184.5760  178.7930  146.5590 C   0  0  0  0  0  2  0  0  0  0  0  0
  185.9350  178.2540  146.5090 C   0  0  0  0  0  3  0  0  0  0  0  0
  184.1420  178.6740  141.2440 C   0  0  0  0  0  0  0  0  0  0  0  0
  182.9840  178.4530  141.8620 C   0  0  0  0  0  3  0  0  0  0  0  0
  186.4490  178.5300  144.0830 C   0  0  0  0  0  3  0  0  0  0  0  0
  185.4470  178.5010  139.2190 C   0  0  0  0  0  3  0  0  0  0  0  0
  186.6220  178.9020  141.2820 C   0  0  0  0  0  3  0  0  0  0  0  0
  185.2890  178.7960  143.4700 C   0  0  0  0  0  0  0  0  0  0  0  0
  186.6410  178.6250  140.0110 N   0  0  0  0  0  0  0  0  0  0  0  0
  188.9340  177.2180  144.6440 C   0  0  0  0  0  3  0  0  0  0  0  0
  189.8210  176.7410  147.2440 C   0  0  0  0  0  3  0  0  0  0  0  0
  190.6630  176.4510  146.1600 C   0  0  0  0  0  0  0  0  0  0  0  0
  190.2100  176.6920  144.8580 C   0  0  0  0  0  0  0  0  0  0  0  0
  188.5480  177.2780  147.0340 C   0  0  0  0  0  0  0  0  0  0  0  0
  188.0920  177.5270  145.7240 C   0  0  0  0  0  0  0  0  0  0  0  0
  187.7590  177.5250  148.1110 F   0  0  0  0  0  0  0  0  0  0  0  0
  191.0020  176.4080  143.7950 F   0  0  0  0  0  0  0  0  0  0  0  0
  192.5250  175.7590  147.6350 C   0  0  0  0  0  1  0  0  0  0  0  0
  191.9410  175.9150  146.3490 O   0  0  0  0  0  0  0  0  0  0  0  0
  181.4660  178.5440  143.8980 C   0  0  0  0  0  2  0  0  0  0  0  0
  180.4750  178.5900  142.8330 N   0  0  0  0  0  0  0  0  0  0  0  0
  180.3220  179.6740  141.9670 N   0  0  0  0  0  0  0  0  0  0  0  0
  179.4290  179.3040  141.1230 C   0  0  0  0  0  0  0  0  0  0  0  0
  179.6440  177.5040  142.5110 N   0  0  0  0  0  0  0  0  0  0  0  0
  178.9460  177.9960  141.3940 N   0  0  0  0  0  0  0  0  0  0  0  0
  179.5550  182.1390  138.8120 C   0  0  0  0  0  2  0  0  0  0  0  0
  179.3670  181.6130  140.2200 C   0  0  0  0  0  2  0  0  0  0  0  0
  179.5300  179.7980  138.7020 C   0  0  0  0  0  2  0  0  0  0  0  0
  179.6120  181.0060  137.8900 N   0  0  0  0  0  2  0  0  0  0  0  0
  178.9310  180.1880  140.0280 C   0  0  1  0  0  3  0  0  0  0  0  0
  1  7  1  0  0  0  0
  2  1  2  0  0  0  0
  3 26  1  1  0  0  0
  3  2  1  0  0  0  0
  4  9  1  0  0  0  0
  5 21  1  0  0  0  0
  5  8  2  0  0  0  0
  6 13  1  6  0  0  0
  6 14  1  0  0  0  0
  8  7  1  0  0  0  0
  9 10  2  0  0  0  0
  9  6  1  0  0  0  0
 10  3  1  0  0  0  0
 11  5  1  0  0  0  0
 12  4  2  0  0  0  0
 12 15  1  0  0  0  0
 14 11  2  0  0  0  0
 14  2  1  0  0  0  0
 15 13  2  0  0  0  0
 16 19  2  0  0  0  0
 16 21  1  0  0  0  0
 18 25  1  0  0  0  0
 18 17  2  0  0  0  0
 19 18  1  0  0  0  0
 20 17  1  0  0  0  0
 20 22  1  0  0  0  0
 21 20  2  0  0  0  0
 23 19  1  0  0  0  0
 25 24  1  0  0  0  0
 27 26  1  0  0  0  0
 28 27  1  0  0  0  0
 29 31  1  0  0  0  0
 29 28  2  0  0  0  0
 30 27  1  0  0  0  0
 31 30  2  0  0  0  0
 32 33  1  0  0  0  0
 34 36  1  0  0  0  0
 35 34  1  0  0  0  0
 35 32  1  0  0  0  0
 36 33  1  0  0  0  0
 36 29  1  1  0  0  0
M  END
>  <MODEL>
2

>  <REMARK>
 VINA RESULT:     -10.5      1.375      2.388
  Name = 
  5 active torsions:
  status: ('A' for Active; 'I' for Inactive)
    1  A    between atoms: C_5  and  C_16
    2  A    between atoms: C_7  and  C_26
    3  A    between atoms: N_12  and  C_16
    4  A    between atoms: C_13  and  O_30
    5  A    between atoms: C_20  and  C_23
                            x       y       z     vdW  Elec       q    Type
                         _______ _______ _______ _____ _____    ______ ____

>  <TORSDO>
F 5

$$$$
=
 OpenBabel11062416023D

 36 41  0  0  1  0  0  0  0  0999 V2000
  182.8490  179.0810  143.8450 C   0  0  0  0  0  3  0  0  0  0  0  0
  183.4770  178.7230  142.5590 C   0  0  0  0  0  0  0  0  0  0  0  0
  182.6630  178.4470  141.5100 C   0  0  1  0  0  3  0  0  0  0  0  0
  185.0120  178.1330  138.5440 C   0  0  0  0  0  3  0  0  0  0  0  0
  185.7910  178.3750  144.7050 C   0  0  0  0  0  0  0  0  0  0  0  0
  185.3920  179.0840  140.8950 C   0  0  2  0  0  3  0  0  0  0  0  0
  183.3710  179.0290  145.0630 C   0  0  0  0  0  2  0  0  0  0  0  0
  184.7040  178.5690  145.4550 C   0  0  0  0  0  3  0  0  0  0  0  0
  184.4940  178.4200  139.8830 C   0  0  0  0  0  0  0  0  0  0  0  0
  183.2150  178.1850  140.1660 C   0  0  0  0  0  3  0  0  0  0  0  0
  185.8870  178.6610  143.2610 C   0  0  0  0  0  3  0  0  0  0  0  0
  186.3330  178.1480  138.3420 C   0  0  0  0  0  3  0  0  0  0  0  0
  186.8490  178.7960  140.6010 C   0  0  0  0  0  3  0  0  0  0  0  0
  184.9460  178.8030  142.3200 C   0  0  0  0  0  0  0  0  0  0  0  0
  187.2440  178.4110  139.4230 N   0  0  0  0  0  0  0  0  0  0  0  0
  187.0480  177.8590  146.7960 C   0  0  0  0  0  3  0  0  0  0  0  0
  189.2990  177.0610  145.3570 C   0  0  0  0  0  3  0  0  0  0  0  0
  189.3150  177.0010  146.7580 C   0  0  0  0  0  0  0  0  0  0  0  0
  188.1820  177.4050  147.4740 C   0  0  0  0  0  0  0  0  0  0  0  0
  188.1620  177.5040  144.6750 C   0  0  0  0  0  0  0  0  0  0  0  0
  187.0180  177.9060  145.3940 C   0  0  0  0  0  0  0  0  0  0  0  0
  188.1970  177.5650  143.3190 F   0  0  0  0  0  0  0  0  0  0  0  0
  188.1800  177.3660  148.8290 F   0  0  0  0  0  0  0  0  0  0  0  0
  191.6660  176.2330  146.8150 C   0  0  0  0  0  1  0  0  0  0  0  0
  190.4420  176.5580  147.4580 O   0  0  0  0  0  0  0  0  0  0  0  0
  181.1720  178.3640  141.6670 C   0  0  0  0  0  2  0  0  0  0  0  0
  180.5580  177.8790  140.4390 N   0  0  0  0  0  0  0  0  0  0  0  0
  180.4020  176.5260  140.1360 N   0  0  0  0  0  0  0  0  0  0  0  0
  179.7460  176.5030  139.0330 C   0  0  0  0  0  0  0  0  0  0  0  0
  179.9740  178.7300  139.4850 N   0  0  0  0  0  0  0  0  0  0  0  0
  179.4600  177.8100  138.5550 N   0  0  0  0  0  0  0  0  0  0  0  0
  180.3970  173.5030  137.0420 C   0  0  0  0  0  2  0  0  0  0  0  0
  180.2590  175.0090  137.1220 C   0  0  0  0  0  2  0  0  0  0  0  0
  179.6490  174.0380  139.1980 C   0  0  0  0  0  2  0  0  0  0  0  0
  179.9780  172.9230  138.3170 N   0  0  0  0  0  2  0  0  0  0  0  0
  179.3890  175.2370  138.3260 C   0  0  1  0  0  3  0  0  0  0  0  0
  1  7  1  0  0  0  0
  2  1  2  0  0  0  0
  3 26  1  1  0  0  0
  3  2  1  0  0  0  0
  4  9  1  0  0  0  0
  5 21  1  0  0  0  0
  5  8  2  0  0  0  0
  6 13  1  1  0  0  0
  6 14  1  0  0  0  0
  7  8  1  0  0  0  0
  9 10  2  0  0  0  0
  9  6  1  0  0  0  0
 10  3  1  0  0  0  0
 11  5  1  0  0  0  0
 12  4  2  0  0  0  0
 12 15  1  0  0  0  0
 14  2  1  0  0  0  0
 14 11  2  0  0  0  0
 15 13  2  0  0  0  0
 16 19  1  0  0  0  0
 17 18  1  0  0  0  0
 18 25  1  0  0  0  0
 18 19  2  0  0  0  0
 19 23  1  0  0  0  0
 20 17  2  0  0  0  0
 20 21  1  0  0  0  0
 21 16  2  0  0  0  0
 22 20  1  0  0  0  0
 24 25  1  0  0  0  0
 27 26  1  0  0  0  0
 28 27  1  0  0  0  0
 29 28  2  0  0  0  0
 30 27  1  0  0  0  0
 31 29  1  0  0  0  0
 31 30  2  0  0  0  0
 32 33  1  0  0  0  0
 32 35  1  0  0  0  0
 33 36  1  0  0  0  0
 35 34  1  0  0  0  0
 36 29  1  1  0  0  0
 36 34  1  0  0  0  0
M  END
>  <MODEL>
3

>  <REMARK>
 VINA RESULT:     -10.4      2.389      3.702
  Name = 
  5 active torsions:
  status: ('A' for Active; 'I' for Inactive)
    1  A    between atoms: C_5  and  C_16
    2  A    between atoms: C_7  and  C_26
    3  A    between atoms: N_12  and  C_16
    4  A    between atoms: C_13  and  O_30
    5  A    between atoms: C_20  and  C_23
                            x       y       z     vdW  Elec       q    Type
                         _______ _______ _______ _____ _____    ______ ____

>  <TORSDO>
F 5

$$$$
=
 OpenBabel11062416023D

 36 41  0  0  1  0  0  0  0  0999 V2000
  182.9210  179.0580  143.6930 C   0  0  0  0  0  3  0  0  0  0  0  0
  183.4340  178.6700  142.3650 C   0  0  0  0  0  0  0  0  0  0  0  0
  182.5310  178.4060  141.3880 C   0  0  1  0  0  3  0  0  0  0  0  0
  184.6260  177.9970  138.2480 C   0  0  0  0  0  3  0  0  0  0  0  0
  185.9020  178.2790  144.3240 C   0  0  0  0  0  0  0  0  0  0  0  0
  185.2190  178.9610  140.5500 C   0  0  2  0  0  3  0  0  0  0  0  0
  183.5380  179.0040  144.8660 C   0  0  0  0  0  2  0  0  0  0  0  0
  184.8840  178.5110  145.1560 C   0  0  0  0  0  3  0  0  0  0  0  0
  184.2250  178.3110  139.6210 C   0  0  0  0  0  0  0  0  0  0  0  0
  182.9670  178.1150  140.0080 C   0  0  0  0  0  3  0  0  0  0  0  0
  185.8900  178.5480  142.8730 C   0  0  0  0  0  3  0  0  0  0  0  0
  185.9260  177.9730  137.9410 C   0  0  0  0  0  3  0  0  0  0  0  0
  186.6390  178.6290  140.1440 C   0  0  0  0  0  3  0  0  0  0  0  0
  184.8810  178.7060  142.0080 C   0  0  0  0  0  0  0  0  0  0  0  0
  186.9270  178.2210  138.9430 N   0  0  0  0  0  0  0  0  0  0  0  0
  188.1770  177.2860  144.0780 C   0  0  0  0  0  3  0  0  0  0  0  0
  188.5920  177.3240  146.8350 C   0  0  0  0  0  3  0  0  0  0  0  0
  189.6030  176.8450  145.9890 C   0  0  0  0  0  0  0  0  0  0  0  0
  189.3860  176.8270  144.6060 C   0  0  0  0  0  0  0  0  0  0  0  0
  187.3850  177.7940  146.3100 C   0  0  0  0  0  0  0  0  0  0  0  0
  187.1670  177.7820  144.9180 C   0  0  0  0  0  0  0  0  0  0  0  0
  186.4270  178.2300  147.1670 F   0  0  0  0  0  0  0  0  0  0  0  0
  190.3440  176.3580  143.7700 F   0  0  0  0  0  0  0  0  0  0  0  0
  191.3710  176.8340  147.7190 C   0  0  0  0  0  1  0  0  0  0  0  0
  190.8180  176.3720  146.4950 O   0  0  0  0  0  0  0  0  0  0  0  0
  181.0560  178.3660  141.6650 C   0  0  0  0  0  2  0  0  0  0  0  0
  180.3070  178.7850  140.4880 N   0  0  0  0  0  0  0  0  0  0  0  0
  180.4190  180.0530  139.9140 N   0  0  0  0  0  0  0  0  0  0  0  0
  179.6880  180.0080  138.8600 C   0  0  0  0  0  0  0  0  0  0  0  0
  179.4740  177.9200  139.7600 N   0  0  0  0  0  0  0  0  0  0  0  0
  179.0580  178.7450  138.7000 N   0  0  0  0  0  0  0  0  0  0  0  0
  180.0900  183.4790  137.7730 C   0  0  0  0  0  2  0  0  0  0  0  0
  179.4680  182.4740  138.7200 C   0  0  0  0  0  2  0  0  0  0  0  0
  180.6580  181.3350  137.0130 C   0  0  0  0  0  2  0  0  0  0  0  0
  180.7830  182.7560  136.7080 N   0  0  0  0  0  2  0  0  0  0  0  0
  179.4940  181.1800  137.9560 C   0  0  1  0  0  3  0  0  0  0  0  0
  1  7  1  0  0  0  0
  2  1  2  0  0  0  0
  3 26  1  1  0  0  0
  3  2  1  0  0  0  0
  4  9  1  0  0  0  0
  5 21  1  0  0  0  0
  5  8  2  0  0  0  0
  6 13  1  6  0  0  0
  6 14  1  0  0  0  0
  7  8  1  0  0  0  0
  9 10  2  0  0  0  0
  9  6  1  0  0  0  0
 10  3  1  0  0  0  0
 11  5  1  0  0  0  0
 12  4  2  0  0  0  0
 12 15  1  0  0  0  0
 14  2  1  0  0  0  0
 14 11  2  0  0  0  0
 15 13  2  0  0  0  0
 16 19  2  0  0  0  0
 16 21  1  0  0  0  0
 18 25  1  0  0  0  0
 18 17  2  0  0  0  0
 19 18  1  0  0  0  0
 20 17  1  0  0  0  0
 20 22  1  0  0  0  0
 21 20  2  0  0  0  0
 23 19  1  0  0  0  0
 25 24  1  0  0  0  0
 27 26  1  0  0  0  0
 28 27  1  0  0  0  0
 29 28  2  0  0  0  0
 30 27  1  0  0  0  0
 31 29  1  0  0  0  0
 31 30  2  0  0  0  0
 32 33  1  0  0  0  0
 34 36  1  0  0  0  0
 35 34  1  0  0  0  0
 35 32  1  0  0  0  0
 36 33  1  0  0  0  0
 36 29  1  1  0  0  0
M  END
>  <MODEL>
4

>  <REMARK>
 VINA RESULT:     -10.0      1.072      1.807
  Name = 
  5 active torsions:
  status: ('A' for Active; 'I' for Inactive)
    1  A    between atoms: C_5  and  C_16
    2  A    between atoms: C_7  and  C_26
    3  A    between atoms: N_12  and  C_16
    4  A    between atoms: C_13  and  O_30
    5  A    between atoms: C_20  and  C_23
                            x       y       z     vdW  Elec       q    Type
                         _______ _______ _______ _____ _____    ______ ____

>  <TORSDO>
F 5

$$$$
=
 OpenBabel11062416023D

 36 41  0  0  1  0  0  0  0  0999 V2000
  185.2650  178.7410  139.6870 C   0  0  0  0  0  3  0  0  0  0  0  0
  186.5690  178.1340  139.3570 C   0  0  0  0  0  0  0  0  0  0  0  0
  186.7330  177.6200  138.1130 C   0  0  1  0  0  3  0  0  0  0  0  0
  190.4230  176.7440  137.9320 C   0  0  0  0  0  3  0  0  0  0  0  0
  186.5440  178.3100  142.5270 C   0  0  0  0  0  0  0  0  0  0  0  0
  189.1180  178.1830  139.6060 C   0  0  2  0  0  3  0  0  0  0  0  0
  184.7340  178.9620  140.8820 C   0  0  0  0  0  2  0  0  0  0  0  0
  185.2920  178.6310  142.1930 C   0  0  0  0  0  3  0  0  0  0  0  0
  189.1460  177.2950  138.3880 C   0  0  0  0  0  0  0  0  0  0  0  0
  188.0410  177.0930  137.6740 C   0  0  0  0  0  3  0  0  0  0  0  0
  187.6910  178.2850  141.5990 C   0  0  0  0  0  3  0  0  0  0  0  0
  191.4680  176.7490  138.7640 C   0  0  0  0  0  3  0  0  0  0  0  0
  190.2800  177.8760  140.5280 C   0  0  0  0  0  3  0  0  0  0  0  0
  187.7500  178.1990  140.2640 C   0  0  0  0  0  0  0  0  0  0  0  0
  191.3430  177.2600  140.1030 N   0  0  0  0  0  0  0  0  0  0  0  0
  188.0710  177.5270  144.3380 C   0  0  0  0  0  3  0  0  0  0  0  0
  186.1360  177.9840  146.2940 C   0  0  0  0  0  3  0  0  0  0  0  0
  187.3980  177.4980  146.6670 C   0  0  0  0  0  0  0  0  0  0  0  0
  188.3630  177.2690  145.6800 C   0  0  0  0  0  0  0  0  0  0  0  0
  185.8440  178.2540  144.9540 C   0  0  0  0  0  0  0  0  0  0  0  0
  186.8160  178.0300  143.9580 C   0  0  0  0  0  0  0  0  0  0  0  0
  184.6030  178.7040  144.6350 F   0  0  0  0  0  0  0  0  0  0  0  0
  189.5850  176.7890  146.0160 F   0  0  0  0  0  0  0  0  0  0  0  0
  188.4010  178.1450  148.8330 C   0  0  0  0  0  1  0  0  0  0  0  0
  187.7100  177.2240  148.0030 O   0  0  0  0  0  0  0  0  0  0  0  0
  185.5960  177.5330  137.1360 C   0  0  0  0  0  2  0  0  0  0  0  0
  184.8550  176.2950  137.3290 N   0  0  0  0  0  0  0  0  0  0  0  0
  185.3890  175.0290  137.0810 N   0  0  0  0  0  0  0  0  0  0  0  0
  184.4800  174.2040  137.4530 C   0  0  0  0  0  0  0  0  0  0  0  0
  183.5630  176.2510  137.8790 N   0  0  0  0  0  0  0  0  0  0  0  0
  183.3210  174.8680  137.9370 N   0  0  0  0  0  0  0  0  0  0  0  0
  183.5870  170.8570  136.2730 C   0  0  0  0  0  2  0  0  0  0  0  0
  183.2960  172.0440  137.1670 C   0  0  0  0  0  2  0  0  0  0  0  0
  185.3770  172.3580  136.0720 C   0  0  0  0  0  2  0  0  0  0  0  0
  184.8910  171.0530  135.6410 N   0  0  0  0  0  2  0  0  0  0  0  0
  184.6270  172.7230  137.3270 C   0  0  1  0  0  3  0  0  0  0  0  0
  1  7  1  0  0  0  0
  2  1  2  0  0  0  0
  2 14  1  0  0  0  0
  3 26  1  1  0  0  0
  3  2  1  0  0  0  0
  4  9  1  0  0  0  0
  4 12  2  0  0  0  0
  5 21  1  0  0  0  0
  6 14  1  0  0  0  0
  6 13  1  1  0  0  0
  7  8  1  0  0  0  0
  8  5  2  0  0  0  0
  9  6  1  0  0  0  0
 10  3  1  0  0  0  0
 10  9  2  0  0  0  0
 11  5  1  0  0  0  0
 12 15  1  0  0  0  0
 14 11  2  0  0  0  0
 15 13  2  0  0  0  0
 16 19  1  0  0  0  0
 17 18  1  0  0  0  0
 18 25  1  0  0  0  0
 19 23  1  0  0  0  0
 19 18  2  0  0  0  0
 20 17  2  0  0  0  0
 21 16  2  0  0  0  0
 21 20  1  0  0  0  0
 22 20  1  0  0  0  0
 25 24  1  0  0  0  0
 26 27  1  0  0  0  0
 27 30  1  0  0  0  0
 28 27  1  0  0  0  0
 28 29  2  0  0  0  0
 29 31  1  0  0  0  0
 30 31  2  0  0  0  0
 32 33  1  0  0  0  0
 33 36  1  0  0  0  0
 34 36  1  0  0  0  0
 35 34  1  0  0  0  0
 35 32  1  0  0  0  0
 36 29  1  6  0  0  0
M  END
>  <MODEL>
5

>  <REMARK>
 VINA RESULT:      -9.4      3.908      6.328
  Name = 
  5 active torsions:
  status: ('A' for Active; 'I' for Inactive)
    1  A    between atoms: C_5  and  C_16
    2  A    between atoms: C_7  and  C_26
    3  A    between atoms: N_12  and  C_16
    4  A    between atoms: C_13  and  O_30
    5  A    between atoms: C_20  and  C_23
                            x       y       z     vdW  Elec       q    Type
                         _______ _______ _______ _____ _____    ______ ____

>  <TORSDO>
F 5

$$$$
=
 OpenBabel11062416023D

 36 41  0  0  1  0  0  0  0  0999 V2000
  181.7680  179.0020  142.7520 C   0  0  0  0  0  3  0  0  0  0  0  0
  182.5550  178.5960  141.5720 C   0  0  0  0  0  0  0  0  0  0  0  0
  181.8800  178.2290  140.4540 C   0  0  1  0  0  3  0  0  0  0  0  0
  184.5740  177.8380  137.8070 C   0  0  0  0  0  3  0  0  0  0  0  0
  184.6080  178.4620  143.9900 C   0  0  0  0  0  0  0  0  0  0  0  0
  184.6420  178.9360  140.1240 C   0  0  2  0  0  3  0  0  0  0  0  0
  182.1440  179.0400  144.0230 C   0  0  0  0  0  2  0  0  0  0  0  0
  183.4340  178.6560  144.5950 C   0  0  0  0  0  3  0  0  0  0  0  0
  183.8920  178.1800  139.0570 C   0  0  0  0  0  0  0  0  0  0  0  0
  182.5960  177.9120  139.2020 C   0  0  0  0  0  3  0  0  0  0  0  0
  184.8660  178.6690  142.5530 C   0  0  0  0  0  3  0  0  0  0  0  0
  185.9080  177.8930  137.7590 C   0  0  0  0  0  3  0  0  0  0  0  0
  186.1320  178.6890  140.0200 C   0  0  0  0  0  3  0  0  0  0  0  0
  184.0390  178.7200  141.5010 C   0  0  0  0  0  0  0  0  0  0  0  0
  186.6750  178.2530  138.9210 N   0  0  0  0  0  0  0  0  0  0  0  0
  186.9300  177.5880  144.2460 C   0  0  0  0  0  3  0  0  0  0  0  0
  186.8170  177.8360  147.0220 C   0  0  0  0  0  3  0  0  0  0  0  0
  187.9890  177.3600  146.4160 C   0  0  0  0  0  0  0  0  0  0  0  0
  188.0380  177.2360  145.0230 C   0  0  0  0  0  0  0  0  0  0  0  0
  185.7110  178.2000  146.2480 C   0  0  0  0  0  0  0  0  0  0  0  0
  185.7600  178.0810  144.8440 C   0  0  0  0  0  0  0  0  0  0  0  0
  184.5900  178.6360  146.8770 F   0  0  0  0  0  0  0  0  0  0  0  0
  189.1560  176.7670  144.4170 F   0  0  0  0  0  0  0  0  0  0  0  0
  189.7320  177.8770  148.0930 C   0  0  0  0  0  1  0  0  0  0  0  0
  189.1070  176.9940  147.1730 O   0  0  0  0  0  0  0  0  0  0  0  0
  180.3850  178.0960  140.4420 C   0  0  0  0  0  2  0  0  0  0  0  0
  179.9990  176.7310  140.1120 N   0  0  0  0  0  0  0  0  0  0  0  0
  179.9920  176.2240  138.8110 N   0  0  0  0  0  0  0  0  0  0  0  0
  179.6920  174.9830  138.9380 C   0  0  0  0  0  0  0  0  0  0  0  0
  179.6930  175.7640  141.0830 N   0  0  0  0  0  0  0  0  0  0  0  0
  179.4740  174.6210  140.2940 N   0  0  0  0  0  0  0  0  0  0  0  0
  180.6320  173.4720  135.7400 C   0  0  0  0  0  2  0  0  0  0  0  0
  180.0980  174.6600  136.5120 C   0  0  0  0  0  2  0  0  0  0  0  0
  180.3450  172.8040  137.9690 C   0  0  0  0  0  2  0  0  0  0  0  0
  180.7380  172.3300  136.6470 N   0  0  0  0  0  2  0  0  0  0  0  0
  179.5390  174.0620  137.7730 C   0  0  1  0  0  3  0  0  0  0  0  0
  1  7  1  0  0  0  0
  2  1  2  0  0  0  0
  3 26  1  1  0  0  0
  3  2  1  0  0  0  0
  4  9  1  0  0  0  0
  5  8  2  0  0  0  0
  5 21  1  0  0  0  0
  6 13  1  1  0  0  0
  6 14  1  0  0  0  0
  7  8  1  0  0  0  0
  9 10  2  0  0  0  0
  9  6  1  0  0  0  0
 10  3  1  0  0  0  0
 11  5  1  0  0  0  0
 12  4  2  0  0  0  0
 12 15  1  0  0  0  0
 14  2  1  0  0  0  0
 14 11  2  0  0  0  0
 15 13  2  0  0  0  0
 16 21  2  0  0  0  0
 16 19  1  0  0  0  0
 18 17  1  0  0  0  0
 18 25  1  0  0  0  0
 19 18  2  0  0  0  0
 20 22  1  0  0  0  0
 20 17  2  0  0  0  0
 21 20  1  0  0  0  0
 23 19  1  0  0  0  0
 25 24  1  0  0  0  0
 27 26  1  0  0  0  0
 27 30  1  0  0  0  0
 28 29  2  0  0  0  0
 28 27  1  0  0  0  0
 29 31  1  0  0  0  0
 31 30  2  0  0  0  0
 32 33  1  0  0  0  0
 32 35  1  0  0  0  0
 33 36  1  0  0  0  0
 35 34  1  0  0  0  0
 36 34  1  0  0  0  0
 36 29  1  1  0  0  0
M  END
>  <MODEL>
6

>  <REMARK>
 VINA RESULT:      -9.4      3.178      4.543
  Name = 
  5 active torsions:
  status: ('A' for Active; 'I' for Inactive)
    1  A    between atoms: C_5  and  C_16
    2  A    between atoms: C_7  and  C_26
    3  A    between atoms: N_12  and  C_16
    4  A    between atoms: C_13  and  O_30
    5  A    between atoms: C_20  and  C_23
                            x       y       z     vdW  Elec       q    Type
                         _______ _______ _______ _____ _____    ______ ____

>  <TORSDO>
F 5

$$$$
=
 OpenBabel11062416023D

 36 41  0  0  1  0  0  0  0  0999 V2000
  185.3770  178.7120  139.5770 C   0  0  0  0  0  3  0  0  0  0  0  0
  186.6600  178.0790  139.2180 C   0  0  0  0  0  0  0  0  0  0  0  0
  186.7820  177.5500  137.9750 C   0  0  1  0  0  3  0  0  0  0  0  0
  190.4490  176.6070  137.7010 C   0  0  0  0  0  3  0  0  0  0  0  0
  186.7270  178.2860  142.3860 C   0  0  0  0  0  0  0  0  0  0  0  0
  189.2170  178.0850  139.3960 C   0  0  2  0  0  3  0  0  0  0  0  0
  184.8840  178.9540  140.7840 C   0  0  0  0  0  2  0  0  0  0  0  0
  185.4720  178.6250  142.0830 C   0  0  0  0  0  3  0  0  0  0  0  0
  189.1950  177.1850  138.1870 C   0  0  0  0  0  0  0  0  0  0  0  0
  188.0670  176.9960  137.5060 C   0  0  0  0  0  3  0  0  0  0  0  0
  187.8460  178.2320  141.4270 C   0  0  0  0  0  3  0  0  0  0  0  0
  191.5160  176.6020  138.5040 C   0  0  0  0  0  3  0  0  0  0  0  0
  190.3970  177.7670  140.2890 C   0  0  0  0  0  3  0  0  0  0  0  0
  187.8670  178.1320  140.0920 C   0  0  0  0  0  0  0  0  0  0  0  0
  191.4380  177.1280  139.8410 N   0  0  0  0  0  0  0  0  0  0  0  0
  186.0580  178.2690  144.7880 C   0  0  0  0  0  3  0  0  0  0  0  0
  188.5360  177.2550  145.5680 C   0  0  0  0  0  3  0  0  0  0  0  0
  187.5500  177.4970  146.5360 C   0  0  0  0  0  0  0  0  0  0  0  0
  186.3090  178.0080  146.1370 C   0  0  0  0  0  0  0  0  0  0  0  0
  188.2840  177.5050  144.2160 C   0  0  0  0  0  0  0  0  0  0  0  0
  187.0330  178.0140  143.8110 C   0  0  0  0  0  0  0  0  0  0  0  0
  189.2730  177.2760  143.3150 F   0  0  0  0  0  0  0  0  0  0  0  0
  185.3460  178.2600  147.0570 F   0  0  0  0  0  0  0  0  0  0  0  0
  188.4040  178.1980  148.7490 C   0  0  0  0  0  1  0  0  0  0  0  0
  187.7820  177.2510  147.8930 O   0  0  0  0  0  0  0  0  0  0  0  0
  185.6160  177.4750  137.0310 C   0  0  0  0  0  2  0  0  0  0  0  0
  184.8920  176.2250  137.2180 N   0  0  0  0  0  0  0  0  0  0  0  0
  185.4440  174.9680  136.9660 N   0  0  0  0  0  0  0  0  0  0  0  0
  184.5460  174.1290  137.3350 C   0  0  0  0  0  0  0  0  0  0  0  0
  183.6000  176.1620  137.7660 N   0  0  0  0  0  0  0  0  0  0  0  0
  183.3770  174.7750  137.8190 N   0  0  0  0  0  0  0  0  0  0  0  0
  183.6750  170.7680  136.1780 C   0  0  0  0  0  2  0  0  0  0  0  0
  183.3890  171.9500  137.0800 C   0  0  0  0  0  2  0  0  0  0  0  0
  185.4330  172.2980  135.9290 C   0  0  0  0  0  2  0  0  0  0  0  0
  184.9580  170.9850  135.5100 N   0  0  0  0  0  2  0  0  0  0  0  0
  184.7130  172.6510  137.2040 C   0  0  1  0  0  3  0  0  0  0  0  0
  1  7  1  0  0  0  0
  2  1  2  0  0  0  0
  2 14  1  0  0  0  0
  3 26  1  1  0  0  0
  3  2  1  0  0  0  0
  4  9  1  0  0  0  0
  4 12  2  0  0  0  0
  5 21  1  0  0  0  0
  6 14  1  0  0  0  0
  6 13  1  1  0  0  0
  7  8  1  0  0  0  0
  8  5  2  0  0  0  0
  9  6  1  0  0  0  0
 10  3  1  0  0  0  0
 10  9  2  0  0  0  0
 11  5  1  0  0  0  0
 12 15  1  0  0  0  0
 14 11  2  0  0  0  0
 15 13  2  0  0  0  0
 16 19  1  0  0  0  0
 17 18  1  0  0  0  0
 18 25  1  0  0  0  0
 19 18  2  0  0  0  0
 19 23  1  0  0  0  0
 20 17  2  0  0  0  0
 21 20  1  0  0  0  0
 21 16  2  0  0  0  0
 22 20  1  0  0  0  0
 25 24  1  0  0  0  0
 26 27  1  0  0  0  0
 27 30  1  0  0  0  0
 28 27  1  0  0  0  0
 28 29  2  0  0  0  0
 29 31  1  0  0  0  0
 30 31  2  0  0  0  0
 32 33  1  0  0  0  0
 33 36  1  0  0  0  0
 34 36  1  0  0  0  0
 35 34  1  0  0  0  0
 35 32  1  0  0  0  0
 36 29  1  6  0  0  0
M  END
>  <MODEL>
7

>  <REMARK>
 VINA RESULT:      -9.4      3.951      6.352
  Name = 
  5 active torsions:
  status: ('A' for Active; 'I' for Inactive)
    1  A    between atoms: C_5  and  C_16
    2  A    between atoms: C_7  and  C_26
    3  A    between atoms: N_12  and  C_16
    4  A    between atoms: C_13  and  O_30
    5  A    between atoms: C_20  and  C_23
                            x       y       z     vdW  Elec       q    Type
                         _______ _______ _______ _____ _____    ______ ____

>  <TORSDO>
F 5

$$$$
=
 OpenBabel11062416023D

 36 41  0  0  1  0  0  0  0  0999 V2000
  181.5930  178.6410  143.6550 C   0  0  0  0  0  3  0  0  0  0  0  0
  182.9450  178.7610  143.0770 C   0  0  0  0  0  0  0  0  0  0  0  0
  183.9970  178.8170  143.9310 C   0  0  1  0  0  3  0  0  0  0  0  0
  187.0510  178.6090  141.6840 C   0  0  0  0  0  3  0  0  0  0  0  0
  180.9870  179.5550  140.7070 C   0  0  0  0  0  0  0  0  0  0  0  0
  184.5770  178.1290  141.2060 C   0  0  2  0  0  3  0  0  0  0  0  0
  180.4260  178.9330  143.0960 C   0  0  0  0  0  2  0  0  0  0  0  0
  180.1760  179.4850  141.7650 C   0  0  0  0  0  3  0  0  0  0  0  0
  185.6640  178.5720  142.1520 C   0  0  0  0  0  0  0  0  0  0  0  0
  185.3850  178.8300  143.4280 C   0  0  0  0  0  3  0  0  0  0  0  0
  182.3530  179.0020  140.6480 C   0  0  0  0  0  3  0  0  0  0  0  0
  187.2940  178.5820  140.3710 C   0  0  0  0  0  3  0  0  0  0  0  0
  184.9720  178.3840  139.7670 C   0  0  0  0  0  3  0  0  0  0  0  0
  183.2170  178.6660  141.6140 C   0  0  0  0  0  0  0  0  0  0  0  0
  186.2160  178.5470  139.4200 N   0  0  0  0  0  0  0  0  0  0  0  0
  180.2250  181.5570  139.4300 C   0  0  0  0  0  3  0  0  0  0  0  0
  179.6330  180.0130  137.1830 C   0  0  0  0  0  3  0  0  0  0  0  0
  179.4330  181.4010  137.1430 C   0  0  0  0  0  0  0  0  0  0  0  0
  179.7300  182.1690  138.2750 C   0  0  0  0  0  0  0  0  0  0  0  0
  180.1380  179.3990  138.3330 C   0  0  0  0  0  0  0  0  0  0  0  0
  180.4440  180.1710  139.4720 C   0  0  0  0  0  0  0  0  0  0  0  0
  180.2970  178.0500  138.3350 F   0  0  0  0  0  0  0  0  0  0  0  0
  179.5340  183.5100  138.2620 F   0  0  0  0  0  0  0  0  0  0  0  0
  179.7700  182.5470  134.9770 C   0  0  0  0  0  1  0  0  0  0  0  0
  178.9310  182.0340  136.0020 O   0  0  0  0  0  0  0  0  0  0  0  0
  183.8060  178.8990  145.4180 C   0  0  0  0  0  2  0  0  0  0  0  0
  185.0650  178.6550  146.1060 N   0  0  0  0  0  0  0  0  0  0  0  0
  186.0010  177.7070  145.6900 N   0  0  0  0  0  0  0  0  0  0  0  0
  187.0010  177.8540  146.4810 C   0  0  0  0  0  0  0  0  0  0  0  0
  185.5040  179.4220  147.1980 N   0  0  0  0  0  0  0  0  0  0  0  0
  186.7730  178.8700  147.4470 N   0  0  0  0  0  0  0  0  0  0  0  0
  190.4940  177.1020  145.6890 C   0  0  0  0  0  2  0  0  0  0  0  0
  189.0750  177.3490  145.2190 C   0  0  0  0  0  2  0  0  0  0  0  0
  189.1280  177.2530  147.5890 C   0  0  0  0  0  2  0  0  0  0  0  0
  190.4960  177.0070  147.1480 N   0  0  0  0  0  2  0  0  0  0  0  0
  188.2250  177.0020  146.4090 C   0  0  1  0  0  3  0  0  0  0  0  0
  2  1  2  0  0  0  0
  2  3  1  0  0  0  0
  3 26  1  6  0  0  0
  4  9  1  0  0  0  0
  5  8  2  0  0  0  0
  6 13  1  6  0  0  0
  6 14  1  0  0  0  0
  6  9  1  0  0  0  0
  7  1  1  0  0  0  0
  8  7  1  0  0  0  0
  9 10  2  0  0  0  0
 10  3  1  0  0  0  0
 11  5  1  0  0  0  0
 11 14  2  0  0  0  0
 12  4  2  0  0  0  0
 14  2  1  0  0  0  0
 15 13  2  0  0  0  0
 15 12  1  0  0  0  0
 16 21  1  0  0  0  0
 17 20  1  0  0  0  0
 18 17  2  0  0  0  0
 18 19  1  0  0  0  0
 19 16  2  0  0  0  0
 20 22  1  0  0  0  0
 20 21  2  0  0  0  0
 21  5  1  0  0  0  0
 23 19  1  0  0  0  0
 24 25  1  0  0  0  0
 25 18  1  0  0  0  0
 26 27  1  0  0  0  0
 27 30  1  0  0  0  0
 28 27  1  0  0  0  0
 28 29  2  0  0  0  0
 29 31  1  0  0  0  0
 30 31  2  0  0  0  0
 32 35  1  0  0  0  0
 33 32  1  0  0  0  0
 33 36  1  0  0  0  0
 35 34  1  0  0  0  0
 36 29  1  1  0  0  0
 36 34  1  0  0  0  0
M  END
>  <MODEL>
8

>  <REMARK>
 VINA RESULT:      -9.2      4.871      9.658
  Name = 
  5 active torsions:
  status: ('A' for Active; 'I' for Inactive)
    1  A    between atoms: C_5  and  C_16
    2  A    between atoms: C_7  and  C_26
    3  A    between atoms: N_12  and  C_16
    4  A    between atoms: C_13  and  O_30
    5  A    between atoms: C_20  and  C_23
                            x       y       z     vdW  Elec       q    Type
                         _______ _______ _______ _____ _____    ______ ____

>  <TORSDO>
F 5

$$$$
=
 OpenBabel11062416023D

 36 41  0  0  1  0  0  0  0  0999 V2000
  185.5180  178.7420  139.2800 C   0  0  0  0  0  3  0  0  0  0  0  0
  186.7720  178.0530  138.9220 C   0  0  0  0  0  0  0  0  0  0  0  0
  186.8720  177.5230  137.6780 C   0  0  1  0  0  3  0  0  0  0  0  0
  190.4940  176.4150  137.4100 C   0  0  0  0  0  3  0  0  0  0  0  0
  186.8390  178.2470  142.0900 C   0  0  0  0  0  0  0  0  0  0  0  0
  189.3250  177.9420  139.1070 C   0  0  2  0  0  3  0  0  0  0  0  0
  185.0330  179.0030  140.4860 C   0  0  0  0  0  2  0  0  0  0  0  0
  185.6020  178.6440  141.7850 C   0  0  0  0  0  3  0  0  0  0  0  0
  189.2660  177.0480  137.8940 C   0  0  0  0  0  0  0  0  0  0  0  0
  188.1330  176.9120  137.2100 C   0  0  0  0  0  3  0  0  0  0  0  0
  187.9580  178.1450  141.1340 C   0  0  0  0  0  3  0  0  0  0  0  0
  191.5580  176.3600  138.2160 C   0  0  0  0  0  3  0  0  0  0  0  0
  190.4880  177.5690  140.0010 C   0  0  0  0  0  3  0  0  0  0  0  0
  187.9770  178.0480  139.7990 C   0  0  0  0  0  0  0  0  0  0  0  0
  191.5000  176.8840  139.5540 N   0  0  0  0  0  0  0  0  0  0  0  0
  188.4410  177.6420  143.9040 C   0  0  0  0  0  3  0  0  0  0  0  0
  186.4280  177.7170  145.8330 C   0  0  0  0  0  3  0  0  0  0  0  0
  187.7450  177.4190  146.2160 C   0  0  0  0  0  0  0  0  0  0  0  0
  188.7490  177.3820  145.2420 C   0  0  0  0  0  0  0  0  0  0  0  0
  186.1180  177.9890  144.4980 C   0  0  0  0  0  0  0  0  0  0  0  0
  187.1290  177.9580  143.5160 C   0  0  0  0  0  0  0  0  0  0  0  0
  184.8280  178.2520  144.1680 F   0  0  0  0  0  0  0  0  0  0  0  0
  190.0260  177.0850  145.5870 F   0  0  0  0  0  0  0  0  0  0  0  0
  188.4510  178.1610  148.4680 C   0  0  0  0  0  1  0  0  0  0  0  0
  188.0750  177.1470  147.5470 O   0  0  0  0  0  0  0  0  0  0  0  0
  185.7070  177.5030  136.7300 C   0  0  0  0  0  2  0  0  0  0  0  0
  184.7390  176.4950  137.1380 N   0  0  0  0  0  0  0  0  0  0  0  0
  183.3950  176.7730  137.3920 N   0  0  0  0  0  0  0  0  0  0  0  0
  182.8560  175.6330  137.6270 C   0  0  0  0  0  0  0  0  0  0  0  0
  185.0440  175.1260  137.2180 N   0  0  0  0  0  0  0  0  0  0  0  0
  183.7980  174.5720  137.5610 N   0  0  0  0  0  0  0  0  0  0  0  0
  179.8850  173.8230  138.7620 C   0  0  0  0  0  2  0  0  0  0  0  0
  180.9160  174.0890  137.6860 C   0  0  0  0  0  2  0  0  0  0  0  0
  181.2060  175.6260  139.4690 C   0  0  0  0  0  2  0  0  0  0  0  0
  180.0560  174.8060  139.8310 N   0  0  0  0  0  2  0  0  0  0  0  0
  181.4150  175.4750  137.9850 C   0  0  1  0  0  3  0  0  0  0  0  0
  1  7  1  0  0  0  0
  2  1  2  0  0  0  0
  2 14  1  0  0  0  0
  3 26  1  1  0  0  0
  3  2  1  0  0  0  0
  4  9  1  0  0  0  0
  4 12  2  0  0  0  0
  5 21  1  0  0  0  0
  6 14  1  0  0  0  0
  6 13  1  1  0  0  0
  7  8  1  0  0  0  0
  8  5  2  0  0  0  0
  9  6  1  0  0  0  0
 10  3  1  0  0  0  0
 10  9  2  0  0  0  0
 11  5  1  0  0  0  0
 12 15  1  0  0  0  0
 14 11  2  0  0  0  0
 15 13  2  0  0  0  0
 16 19  1  0  0  0  0
 17 18  1  0  0  0  0
 18 25  1  0  0  0  0
 19 23  1  0  0  0  0
 19 18  2  0  0  0  0
 20 17  2  0  0  0  0
 21 16  2  0  0  0  0
 21 20  1  0  0  0  0
 22 20  1  0  0  0  0
 25 24  1  0  0  0  0
 26 27  1  0  0  0  0
 27 30  1  0  0  0  0
 27 28  1  0  0  0  0
 28 29  2  0  0  0  0
 30 31  2  0  0  0  0
 31 29  1  0  0  0  0
 32 35  1  0  0  0  0
 33 36  1  0  0  0  0
 33 32  1  0  0  0  0
 34 35  1  0  0  0  0
 36 29  1  1  0  0  0
 36 34  1  0  0  0  0
M  END
>  <MODEL>
9

>  <REMARK>
 VINA RESULT:      -9.0      3.846      5.484
  Name = 
  5 active torsions:
  status: ('A' for Active; 'I' for Inactive)
    1  A    between atoms: C_5  and  C_16
    2  A    between atoms: C_7  and  C_26
    3  A    between atoms: N_12  and  C_16
    4  A    between atoms: C_13  and  O_30
    5  A    between atoms: C_20  and  C_23
                            x       y       z     vdW  Elec       q    Type
                         _______ _______ _______ _____ _____    ______ ____

>  <TORSDO>
F 5

$$$$
