=
 OpenBabel11062416373D

 62 68  0  0  1  0  0  0  0  0999 V2000
  189.1920  174.4960  136.7380 C   0  0  2  0  0  3  0  0  0  0  0  0
  187.8260  173.2030  135.0360 C   0  0  0  0  0  1  0  0  0  0  0  0
  185.5950  173.9220  137.1440 C   0  0  0  0  0  2  0  0  0  0  0  0
  187.7710  174.1350  136.2460 C   0  0  2  0  0  0  0  0  0  0  0  0
  187.0850  175.3140  135.8940 O   0  0  0  0  0  0  0  0  0  0  0  0
  185.7440  175.1710  136.3070 C   0  0  2  0  0  3  0  0  0  0  0  0
  186.9960  173.4570  137.3540 C   0  0  0  0  0  2  0  0  0  0  0  0
  181.3510  177.6810  135.5550 P   0  0  1  0  0  0  0  0  0  0  0  0
  184.2110  177.2050  136.4920 C   0  0  2  0  0  0  0  0  0  0  0  0
  183.6270  176.7300  135.1400 C   0  0  0  0  0  2  0  0  0  0  0  0
  186.3380  177.7340  135.1780 C   0  0  0  0  0  1  0  0  0  0  0  0
  183.2490  177.8300  137.5070 C   0  0  0  0  0  2  0  0  0  0  0  0
  185.6270  177.7720  136.5310 C   0  0  2  0  0  3  0  0  0  0  0  0
  185.3220  176.3850  137.1400 C   0  0  2  0  0  3  0  0  0  0  0  0
  182.7620  177.6930  134.5960 O   0  0  0  0  0  0  0  0  0  0  0  0
  181.8190  177.3340  137.2910 C   0  0  2  0  0  3  0  0  0  0  0  0
  180.7100  179.0490  135.4850 O   0  0  0  0  0  0  0  0  0  0  0  0
  178.9890  176.5140  135.6560 O   0  0  0  0  0  1  0  0  0  0  0  0
  180.7190  175.1700  135.0460 O   0  0  0  0  0  1  0  0  0  0  0  0
  180.1730  176.4480  134.9230 C   0  0  0  0  0  3  0  0  0  0  0  0
  181.7590  175.9580  137.5400 O   0  0  0  0  0  0  0  0  0  0  0  0
  181.2740  175.8390  138.8450 C   0  0  1  0  0  3  0  0  0  0  0  0
  180.2190  174.7520  138.8950 C   0  0  0  0  0  1  0  0  0  0  0  0
  182.3190  175.5050  139.7110 O   0  0  0  0  0  1  0  0  0  0  0  0
  190.3550  176.2790  138.0360 C   0  0  0  0  0  3  0  0  0  0  0  0
  189.2190  175.7100  137.6380 C   0  0  0  0  0  3  0  0  0  0  0  0
  190.3080  177.4940  138.9000 C   0  0  0  0  0  2  0  0  0  0  0  0
  188.2960  178.1120  140.0500 O   0  0  0  0  0  1  0  0  0  0  0  0
  189.3900  177.2450  140.0930 C   0  0  2  0  0  3  0  0  0  0  0  0
  191.5980  177.1730  141.4320 C   0  0  0  0  0  2  0  0  0  0  0  0
  190.7520  176.0340  141.9770 C   0  0  0  0  0  2  0  0  0  0  0  0
  190.0810  177.3050  141.4680 C   0  0  0  0  0  0  0  0  0  0  0  0
  188.6540  177.7840  143.6900 C   0  0  2  0  0  3  0  0  0  0  0  0
  189.4890  178.2910  142.5050 C   0  0  1  0  0  3  0  0  0  0  0  0
  191.7380  180.2200  144.6180 F   0  0  0  0  0  0  0  0  0  0  0  0
  191.0220  179.1380  144.1490 C   0  0  2  0  0  0  0  0  0  0  0  0
  189.5670  177.1080  144.6870 C   0  0  0  0  0  2  0  0  0  0  0  0
  190.4370  179.2860  142.8570 O   0  0  0  0  0  0  0  0  0  0  0  0
  190.6600  178.0680  145.1340 C   0  0  1  0  0  3  0  0  0  0  0  0
  191.7690  177.9510  144.2590 O   0  0  0  0  0  0  0  0  0  0  0  0
  187.4770  176.9090  143.2870 C   0  0  0  0  0  2  0  0  0  0  0  0
  185.6320  178.0750  142.1890 C   0  0  0  0  0  2  0  0  0  0  0  0
  186.2030  177.6840  143.3240 C   0  0  0  0  0  0  0  0  0  0  0  0
  185.3820  177.9760  144.8890 S   0  0  0  0  0  0  0  0  0  0  0  0
  184.4530  180.5300  144.4460 C   0  0  0  0  0  1  0  0  0  0  0  0
  184.1450  179.0740  144.1300 C   0  0  2  0  0  3  0  0  0  0  0  0
  182.8230  178.7220  144.5390 O   0  0  0  0  0  0  0  0  0  0  0  0
  181.7050  178.7830  143.7010 C   0  0  0  0  0  0  0  0  0  0  0  0
  181.8600  178.9630  142.4680 O   0  0  0  0  0  0  0  0  0  0  0  0
  180.4160  178.6670  144.2160 O   0  0  0  0  0  1  0  0  0  0  0  0
  190.2320  174.5400  135.5980 C   0  0  0  0  0  2  0  0  0  0  0  0
  191.3210  173.4640  135.6970 C   0  0  0  0  0  2  0  0  0  0  0  0
  192.6510  174.0140  136.1040 C   0  0  0  0  0  3  0  0  0  0  0  0
  193.5330  173.2740  136.7030 N   0  0  0  0  0  0  0  0  0  0  0  0
  195.0120  174.2300  138.4550 N   0  0  0  0  0  2  0  0  0  0  0  0
  195.7170  173.9150  136.2440 O   0  0  0  0  0  0  0  0  0  0  0  0
  198.6110  175.2560  139.5900 C   0  0  0  0  0  2  0  0  0  0  0  0
  196.3000  175.1030  140.2250 N   0  0  0  0  0  0  0  0  0  0  0  0
  196.2690  174.5780  139.0490 C   0  0  0  0  0  0  0  0  0  0  0  0
  194.7980  173.8050  137.1010 C   0  0  0  0  0  0  0  0  0  0  0  0
  197.6300  175.3630  140.7480 C   0  0  0  0  0  2  0  0  0  0  0  0
  197.8500  174.1980  138.3140 S   0  0  0  0  0  0  0  0  0  0  0  0
  1 51  1  6  0  0  0
  1 26  1  0  0  0  0
  3  7  1  0  0  0  0
  4  2  1  6  0  0  0
  4  1  1  0  0  0  0
  4  7  1  0  0  0  0
  5  4  1  0  0  0  0
  5  6  1  0  0  0  0
  6  3  1  1  0  0  0
  8 17  2  6  0  0  0
  8 16  1  0  0  0  0
  9 10  1  6  0  0  0
  9 13  1  0  0  0  0
  9 14  1  0  0  0  0
  9 12  1  0  0  0  0
 13 11  1  6  0  0  0
 13 14  1  0  0  0  0
 14  6  1  6  0  0  0
 15 10  1  0  0  0  0
 15  8  1  0  0  0  0
 16 12  1  0  0  0  0
 16 21  1  6  0  0  0
 20 19  1  0  0  0  0
 20  8  1  0  0  0  0
 20 18  1  0  0  0  0
 21 22  1  0  0  0  0
 22 23  1  6  0  0  0
 22 24  1  0  0  0  0
 25 27  1  0  0  0  0
 26 25  2  0  0  0  0
 27 29  1  0  0  0  0
 29 28  1  1  0  0  0
 29 32  1  0  0  0  0
 30 32  1  0  0  0  0
 30 31  1  0  0  0  0
 32 31  1  0  0  0  0
 33 41  1  6  0  0  0
 33 37  1  0  0  0  0
 34 32  1  1  0  0  0
 34 38  1  0  0  0  0
 34 33  1  0  0  0  0
 36 40  1  0  0  0  0
 36 35  1  1  0  0  0
 36 39  1  0  0  0  0
 38 36  1  0  0  0  0
 39 37  1  6  0  0  0
 40 39  1  0  0  0  0
 41 43  1  0  0  0  0
 42 43  2  0  0  0  0
 43 44  1  0  0  0  0
 46 45  1  1  0  0  0
 46 47  1  0  0  0  0
 46 44  1  0  0  0  0
 48 50  1  0  0  0  0
 48 47  1  0  0  0  0
 49 48  2  0  0  0  0
 51 52  1  0  0  0  0
 52 53  1  0  0  0  0
 53 54  2  0  0  0  0
 54 60  1  0  0  0  0
 55 59  1  0  0  0  0
 56 60  2  0  0  0  0
 57 61  1  0  0  0  0
 58 61  1  0  0  0  0
 59 58  2  0  0  0  0
 60 55  1  0  0  0  0
 62 59  1  0  0  0  0
 62 57  1  0  0  0  0
M  END
>  <MODEL>
1

>  <REMARK>
 VINA RESULT:      -6.4      0.000      0.000
  Name = 
  20 active torsions:
  status: ('A' for Active; 'I' for Inactive)
    1  A    between atoms: C_1  and  C_39
    2  A    between atoms: C_2  and  C_26
    3  A    between atoms: O_4  and  C_18
    4  A    between atoms: O_4  and  C_24
    5  A    between atoms: P_6  and  C_34
    6  A    between atoms: C_8  and  C_58
    7  A    between atoms: C_22  and  C_35
    8  A    between atoms: O_23  and  C_45
    9  A    between atoms: O_23  and  C_54
   10  A    between atoms: C_24  and  S_25
   11  A    between atoms: S_25  and  C_50
   12  A    between atoms: C_26  and  C_37
   13  A    between atoms: C_28  and  C_35
   14  A    between atoms: C_33  and  C_46
   15  A    between atoms: C_35  and  C_41
   16  A    between atoms: C_36  and  C_59
   17  A    between atoms: C_37  and  C_58
   18  A    between atoms: C_39  and  C_50
   19  A    between atoms: C_41  and  C_59
   20  A    between atoms: C_42  and  N_62
                            x       y       z     vdW  Elec       q    Type
                         _______ _______ _______ _____ _____    ______ ____

>  <TORSDO>
F 20

$$$$
=
 OpenBabel11062416373D

 62 68  0  0  1  0  0  0  0  0999 V2000
  188.2620  176.8630  138.3670 C   0  0  2  0  0  3  0  0  0  0  0  0
  187.8120  178.6870  136.6630 C   0  0  0  0  0  1  0  0  0  0  0  0
  185.1220  177.0520  136.4860 C   0  0  0  0  0  2  0  0  0  0  0  0
  187.1930  177.5690  137.5020 C   0  0  2  0  0  0  0  0  0  0  0  0
  186.1990  178.1130  138.3390 O   0  0  0  0  0  0  0  0  0  0  0  0
  184.9540  177.9310  137.7030 C   0  0  2  0  0  3  0  0  0  0  0  0
  186.5310  176.5700  136.5790 C   0  0  0  0  0  2  0  0  0  0  0  0
  180.2470  179.7380  138.5620 P   0  0  1  0  0  0  0  0  0  0  0  0
  182.8130  178.1780  139.0730 C   0  0  2  0  0  0  0  0  0  0  0  0
  182.7430  179.6020  138.4710 C   0  0  0  0  0  2  0  0  0  0  0  0
  184.8620  179.0180  140.3490 C   0  0  0  0  0  1  0  0  0  0  0  0
  181.4960  177.4280  139.2920 C   0  0  0  0  0  2  0  0  0  0  0  0
  183.9010  177.8570  140.0940 C   0  0  2  0  0  3  0  0  0  0  0  0
  183.9670  177.2660  138.6670 C   0  0  2  0  0  3  0  0  0  0  0  0
  181.7410  180.3660  139.0930 O   0  0  0  0  0  0  0  0  0  0  0  0
  180.4100  177.9280  138.3400 C   0  0  2  0  0  3  0  0  0  0  0  0
  179.2050  180.0100  139.6250 O   0  0  0  0  0  0  0  0  0  0  0  0
  180.7590  180.4540  136.0770 O   0  0  0  0  0  1  0  0  0  0  0  0
  179.4710  181.9030  137.2660 O   0  0  0  0  0  1  0  0  0  0  0  0
  179.7360  180.5560  137.0190 C   0  0  0  0  0  3  0  0  0  0  0  0
  180.7750  177.6350  137.0200 O   0  0  0  0  0  0  0  0  0  0  0  0
  179.8880  176.6390  136.6040 C   0  0  1  0  0  3  0  0  0  0  0  0
  179.0890  177.1380  135.4170 C   0  0  0  0  0  1  0  0  0  0  0  0
  180.6000  175.4960  136.2310 O   0  0  0  0  0  1  0  0  0  0  0  0
  189.6110  177.5270  140.3570 C   0  0  0  0  0  3  0  0  0  0  0  0
  188.4360  177.4940  139.7300 C   0  0  0  0  0  3  0  0  0  0  0  0
  189.7170  178.1950  141.6870 C   0  0  0  0  0  2  0  0  0  0  0  0
  191.8430  177.1090  141.4570 O   0  0  0  0  0  1  0  0  0  0  0  0
  191.0350  177.8140  142.3530 C   0  0  2  0  0  3  0  0  0  0  0  0
  191.7710  175.8080  143.8050 C   0  0  0  0  0  2  0  0  0  0  0  0
  190.2670  175.6580  143.6320 C   0  0  0  0  0  2  0  0  0  0  0  0
  190.8950  177.0480  143.6810 C   0  0  0  0  0  0  0  0  0  0  0  0
  189.3100  178.0820  145.5840 C   0  0  2  0  0  3  0  0  0  0  0  0
  190.7010  177.8970  144.9610 C   0  0  1  0  0  3  0  0  0  0  0  0
  192.2040  176.7860  148.0840 F   0  0  0  0  0  0  0  0  0  0  0  0
  191.3160  176.8430  147.0300 C   0  0  2  0  0  0  0  0  0  0  0  0
  188.8860  176.7890  146.2430 C   0  0  0  0  0  2  0  0  0  0  0  0
  191.7210  177.6250  145.9100 O   0  0  0  0  0  0  0  0  0  0  0  0
  189.9170  176.3640  147.2780 C   0  0  1  0  0  3  0  0  0  0  0  0
  190.8980  175.5540  146.6520 O   0  0  0  0  0  0  0  0  0  0  0  0
  188.2650  178.6150  144.6170 C   0  0  0  0  0  2  0  0  0  0  0  0
  186.9630  176.6690  143.9180 C   0  0  0  0  0  2  0  0  0  0  0  0
  187.0320  177.7750  144.6530 C   0  0  0  0  0  0  0  0  0  0  0  0
  185.7030  178.1910  145.7780 S   0  0  0  0  0  0  0  0  0  0  0  0
  184.9780  179.9780  143.8130 C   0  0  0  0  0  1  0  0  0  0  0  0
  184.5800  178.6400  144.4180 C   0  0  2  0  0  3  0  0  0  0  0  0
  183.2200  178.6500  144.8540 O   0  0  0  0  0  0  0  0  0  0  0  0
  182.1240  178.7480  143.9900 C   0  0  0  0  0  0  0  0  0  0  0  0
  180.9640  178.5580  144.4330 O   0  0  0  0  0  1  0  0  0  0  0  0
  182.3000  179.0310  142.6390 O   0  0  0  0  0  0  0  0  0  0  0  0
  189.5890  176.6260  137.6140 C   0  0  0  0  0  2  0  0  0  0  0  0
  189.9680  175.1490  137.4550 C   0  0  0  0  0  2  0  0  0  0  0  0
  191.2970  174.9530  136.7970 C   0  0  0  0  0  3  0  0  0  0  0  0
  192.0160  173.8990  137.0280 N   0  0  0  0  0  0  0  0  0  0  0  0
  194.2540  174.7850  136.4120 N   0  0  0  0  0  2  0  0  0  0  0  0
  193.5500  172.6260  135.8380 O   0  0  0  0  0  0  0  0  0  0  0  0
  197.8710  174.0940  135.0940 C   0  0  0  0  0  2  0  0  0  0  0  0
  196.3440  175.7540  135.9170 N   0  0  0  0  0  0  0  0  0  0  0  0
  195.6310  174.6880  136.0260 C   0  0  0  0  0  0  0  0  0  0  0  0
  193.2910  173.7210  136.4060 C   0  0  0  0  0  0  0  0  0  0  0  0
  197.7380  175.5320  135.5740 C   0  0  0  0  0  2  0  0  0  0  0  0
  196.4920  173.1400  135.8120 S   0  0  0  0  0  0  0  0  0  0  0  0
  1 51  1  6  0  0  0
  1 26  1  0  0  0  0
  3  7  1  0  0  0  0
  4  2  1  6  0  0  0
  4  5  1  0  0  0  0
  4  1  1  0  0  0  0
  6  3  1  6  0  0  0
  6  5  1  0  0  0  0
  7  4  1  0  0  0  0
  8 15  1  0  0  0  0
  8 17  2  1  0  0  0
  9 10  1  6  0  0  0
  9 12  1  0  0  0  0
  9 13  1  0  0  0  0
 10 15  1  0  0  0  0
 13 11  1  6  0  0  0
 14  6  1  6  0  0  0
 14  9  1  0  0  0  0
 14 13  1  0  0  0  0
 16 21  1  6  0  0  0
 16  8  1  0  0  0  0
 16 12  1  0  0  0  0
 18 20  1  0  0  0  0
 20 19  1  0  0  0  0
 20  8  1  0  0  0  0
 22 23  1  6  0  0  0
 22 21  1  0  0  0  0
 24 22  1  0  0  0  0
 25 27  1  0  0  0  0
 26 25  2  0  0  0  0
 27 29  1  0  0  0  0
 29 28  1  6  0  0  0
 29 32  1  0  0  0  0
 31 32  1  0  0  0  0
 31 30  1  0  0  0  0
 32 30  1  0  0  0  0
 33 41  1  6  0  0  0
 33 37  1  0  0  0  0
 34 32  1  6  0  0  0
 34 33  1  0  0  0  0
 34 38  1  0  0  0  0
 36 39  1  0  0  0  0
 36 35  1  1  0  0  0
 38 36  1  0  0  0  0
 39 37  1  6  0  0  0
 40 36  1  0  0  0  0
 40 39  1  0  0  0  0
 41 43  1  0  0  0  0
 42 43  2  0  0  0  0
 43 44  1  0  0  0  0
 46 45  1  1  0  0  0
 46 47  1  0  0  0  0
 46 44  1  0  0  0  0
 48 49  1  0  0  0  0
 48 47  1  0  0  0  0
 50 48  2  0  0  0  0
 52 51  1  0  0  0  0
 53 54  2  0  0  0  0
 53 52  1  0  0  0  0
 56 60  2  0  0  0  0
 57 61  1  0  0  0  0
 57 62  1  0  0  0  0
 58 59  2  0  0  0  0
 59 55  1  0  0  0  0
 60 55  1  0  0  0  0
 60 54  1  0  0  0  0
 61 58  1  0  0  0  0
 62 59  1  0  0  0  0
M  END
>  <MODEL>
2

>  <REMARK>
 VINA RESULT:      -6.0      2.250      3.350
  Name = 
  20 active torsions:
  status: ('A' for Active; 'I' for Inactive)
    1  A    between atoms: C_1  and  C_39
    2  A    between atoms: C_2  and  C_26
    3  A    between atoms: O_4  and  C_18
    4  A    between atoms: O_4  and  C_24
    5  A    between atoms: P_6  and  C_34
    6  A    between atoms: C_8  and  C_58
    7  A    between atoms: C_22  and  C_35
    8  A    between atoms: O_23  and  C_45
    9  A    between atoms: O_23  and  C_54
   10  A    between atoms: C_24  and  S_25
   11  A    between atoms: S_25  and  C_50
   12  A    between atoms: C_26  and  C_37
   13  A    between atoms: C_28  and  C_35
   14  A    between atoms: C_33  and  C_46
   15  A    between atoms: C_35  and  C_41
   16  A    between atoms: C_36  and  C_59
   17  A    between atoms: C_37  and  C_58
   18  A    between atoms: C_39  and  C_50
   19  A    between atoms: C_41  and  C_59
   20  A    between atoms: C_42  and  N_62
                            x       y       z     vdW  Elec       q    Type
                         _______ _______ _______ _____ _____    ______ ____

>  <TORSDO>
F 20

$$$$
=
 OpenBabel11062416373D

 62 68  0  0  1  0  0  0  0  0999 V2000
  189.3130  175.1840  136.3610 C   0  0  2  0  0  3  0  0  0  0  0  0
  188.0790  173.3630  135.0990 C   0  0  0  0  0  1  0  0  0  0  0  0
  185.9500  174.0790  137.3100 C   0  0  0  0  0  2  0  0  0  0  0  0
  187.9520  174.4900  136.1230 C   0  0  2  0  0  0  0  0  0  0  0  0
  187.0190  175.4380  135.6580 O   0  0  0  0  0  0  0  0  0  0  0  0
  185.7750  175.1450  136.2550 C   0  0  2  0  0  3  0  0  0  0  0  0
  187.4280  173.9180  137.4210 C   0  0  0  0  0  2  0  0  0  0  0  0
  180.8890  176.5710  135.7450 P   0  0  1  0  0  0  0  0  0  0  0  0
  183.8720  176.8480  136.3000 C   0  0  2  0  0  0  0  0  0  0  0  0
  183.2540  175.9980  135.1640 C   0  0  0  0  0  2  0  0  0  0  0  0
  185.6720  177.4780  134.5990 C   0  0  0  0  0  1  0  0  0  0  0  0
  182.9200  177.4800  137.3200 C   0  0  0  0  0  2  0  0  0  0  0  0
  185.1280  177.6660  136.0150 C   0  0  2  0  0  3  0  0  0  0  0  0
  185.2000  176.4060  136.9070 C   0  0  2  0  0  3  0  0  0  0  0  0
  182.1450  176.6450  134.5940 O   0  0  0  0  0  0  0  0  0  0  0  0
  181.6150  176.6900  137.4220 C   0  0  2  0  0  3  0  0  0  0  0  0
  179.9650  177.7480  135.5260 O   0  0  0  0  0  0  0  0  0  0  0  0
  178.9800  174.9380  136.5460 O   0  0  0  0  0  1  0  0  0  0  0  0
  180.7970  173.9360  135.6160 O   0  0  0  0  0  1  0  0  0  0  0  0
  179.9390  175.0330  135.5390 C   0  0  0  0  0  3  0  0  0  0  0  0
  181.8820  175.4110  137.9240 O   0  0  0  0  0  0  0  0  0  0  0  0
  181.5170  175.4600  139.2720 C   0  0  1  0  0  3  0  0  0  0  0  0
  182.5050  176.3230  140.0320 C   0  0  0  0  0  1  0  0  0  0  0  0
  180.2370  176.0070  139.3980 O   0  0  0  0  0  1  0  0  0  0  0  0
  190.3220  176.7980  137.9720 C   0  0  0  0  0  3  0  0  0  0  0  0
  189.2390  176.3050  137.3740 C   0  0  0  0  0  3  0  0  0  0  0  0
  190.1800  177.9260  138.9390 C   0  0  0  0  0  2  0  0  0  0  0  0
  188.1070  178.4020  140.0480 O   0  0  0  0  0  1  0  0  0  0  0  0
  189.2050  177.5380  140.0460 C   0  0  2  0  0  3  0  0  0  0  0  0
  191.3060  177.0870  141.4790 C   0  0  0  0  0  2  0  0  0  0  0  0
  190.2770  176.0620  141.9300 C   0  0  0  0  0  2  0  0  0  0  0  0
  189.8240  177.4390  141.4530 C   0  0  0  0  0  0  0  0  0  0  0  0
  188.4080  178.0180  143.6580 C   0  0  2  0  0  3  0  0  0  0  0  0
  189.3270  178.4560  142.5080 C   0  0  1  0  0  3  0  0  0  0  0  0
  191.7360  180.0400  144.7310 F   0  0  0  0  0  0  0  0  0  0  0  0
  190.9080  179.0650  144.2110 C   0  0  2  0  0  0  0  0  0  0  0  0
  189.2100  177.2080  144.6510 C   0  0  0  0  0  2  0  0  0  0  0  0
  190.3780  179.3200  142.9130 O   0  0  0  0  0  0  0  0  0  0  0  0
  190.3970  178.0170  145.1530 C   0  0  1  0  0  3  0  0  0  0  0  0
  191.5060  177.7950  144.2990 O   0  0  0  0  0  0  0  0  0  0  0  0
  187.1470  177.3010  143.2020 C   0  0  0  0  0  2  0  0  0  0  0  0
  184.7550  177.7670  143.0210 C   0  0  0  0  0  2  0  0  0  0  0  0
  185.9330  178.1000  143.5410 C   0  0  0  0  0  0  0  0  0  0  0  0
  186.0430  179.4220  144.7430 S   0  0  0  0  0  0  0  0  0  0  0  0
  184.6830  178.0060  146.6740 C   0  0  0  0  0  1  0  0  0  0  0  0
  186.0860  178.2580  146.1430 C   0  0  2  0  0  3  0  0  0  0  0  0
  186.9560  178.7250  147.1740 O   0  0  0  0  0  0  0  0  0  0  0  0
  187.7820  177.8900  147.9350 C   0  0  0  0  0  0  0  0  0  0  0  0
  188.4740  178.3770  148.8630 O   0  0  0  0  0  1  0  0  0  0  0  0
  187.8650  176.5270  147.6660 O   0  0  0  0  0  0  0  0  0  0  0  0
  190.0310  175.5720  135.0510 C   0  0  0  0  0  2  0  0  0  0  0  0
  191.0960  174.5680  134.5950 C   0  0  0  0  0  2  0  0  0  0  0  0
  192.3950  174.7240  135.3190 C   0  0  0  0  0  3  0  0  0  0  0  0
  193.1690  173.7070  135.5440 N   0  0  0  0  0  0  0  0  0  0  0  0
  195.4800  172.9340  136.0280 N   0  0  0  0  0  2  0  0  0  0  0  0
  194.5280  174.8000  137.0770 O   0  0  0  0  0  0  0  0  0  0  0  0
  198.9710  173.6500  137.6400 C   0  0  0  0  0  2  0  0  0  0  0  0
  197.6560  172.0950  136.3680 N   0  0  0  0  0  0  0  0  0  0  0  0
  196.8300  173.0750  136.4900 C   0  0  0  0  0  0  0  0  0  0  0  0
  194.4040  173.8570  136.2480 C   0  0  0  0  0  0  0  0  0  0  0  0
  199.0090  172.3700  136.8190 C   0  0  0  0  0  2  0  0  0  0  0  0
  197.5080  174.6040  137.1130 S   0  0  0  0  0  0  0  0  0  0  0  0
  1 51  1  6  0  0  0
  1 26  1  0  0  0  0
  3  7  1  0  0  0  0
  4  2  1  6  0  0  0
  4  1  1  0  0  0  0
  4  7  1  0  0  0  0
  5  4  1  0  0  0  0
  5  6  1  0  0  0  0
  6  3  1  1  0  0  0
  8 17  2  6  0  0  0
  8 16  1  0  0  0  0
  9 10  1  6  0  0  0
  9 14  1  0  0  0  0
  9 12  1  0  0  0  0
 12 16  1  0  0  0  0
 13 11  1  6  0  0  0
 13  9  1  0  0  0  0
 13 14  1  0  0  0  0
 14  6  1  6  0  0  0
 15 10  1  0  0  0  0
 15  8  1  0  0  0  0
 16 21  1  6  0  0  0
 20 19  1  0  0  0  0
 20  8  1  0  0  0  0
 20 18  1  0  0  0  0
 21 22  1  0  0  0  0
 22 24  1  0  0  0  0
 22 23  1  1  0  0  0
 25 27  1  0  0  0  0
 26 25  2  0  0  0  0
 27 29  1  0  0  0  0
 29 28  1  1  0  0  0
 29 32  1  0  0  0  0
 30 31  1  0  0  0  0
 32 30  1  0  0  0  0
 32 31  1  0  0  0  0
 33 41  1  6  0  0  0
 33 37  1  0  0  0  0
 34 32  1  1  0  0  0
 34 38  1  0  0  0  0
 34 33  1  0  0  0  0
 36 40  1  0  0  0  0
 36 35  1  1  0  0  0
 36 39  1  0  0  0  0
 38 36  1  0  0  0  0
 39 37  1  6  0  0  0
 40 39  1  0  0  0  0
 41 43  1  0  0  0  0
 42 43  2  0  0  0  0
 43 44  1  0  0  0  0
 44 46  1  0  0  0  0
 46 45  1  1  0  0  0
 46 47  1  0  0  0  0
 47 48  1  0  0  0  0
 48 49  1  0  0  0  0
 50 48  2  0  0  0  0
 52 51  1  0  0  0  0
 52 53  1  0  0  0  0
 53 54  2  0  0  0  0
 54 60  1  0  0  0  0
 55 60  1  0  0  0  0
 55 59  1  0  0  0  0
 58 59  2  0  0  0  0
 58 61  1  0  0  0  0
 59 62  1  0  0  0  0
 60 56  2  0  0  0  0
 61 57  1  0  0  0  0
 62 57  1  0  0  0  0
M  END
>  <MODEL>
3

>  <REMARK>
 VINA RESULT:      -5.1      1.832      2.485
  Name = 
  20 active torsions:
  status: ('A' for Active; 'I' for Inactive)
    1  A    between atoms: C_1  and  C_39
    2  A    between atoms: C_2  and  C_26
    3  A    between atoms: O_4  and  C_18
    4  A    between atoms: O_4  and  C_24
    5  A    between atoms: P_6  and  C_34
    6  A    between atoms: C_8  and  C_58
    7  A    between atoms: C_22  and  C_35
    8  A    between atoms: O_23  and  C_45
    9  A    between atoms: O_23  and  C_54
   10  A    between atoms: C_24  and  S_25
   11  A    between atoms: S_25  and  C_50
   12  A    between atoms: C_26  and  C_37
   13  A    between atoms: C_28  and  C_35
   14  A    between atoms: C_33  and  C_46
   15  A    between atoms: C_35  and  C_41
   16  A    between atoms: C_36  and  C_59
   17  A    between atoms: C_37  and  C_58
   18  A    between atoms: C_39  and  C_50
   19  A    between atoms: C_41  and  C_59
   20  A    between atoms: C_42  and  N_62
                            x       y       z     vdW  Elec       q    Type
                         _______ _______ _______ _____ _____    ______ ____

>  <TORSDO>
F 20

$$$$
=
 OpenBabel11062416373D

 62 68  0  0  1  0  0  0  0  0999 V2000
  188.6230  176.8820  138.1000 C   0  0  2  0  0  3  0  0  0  0  0  0
  188.7020  179.2240  137.1310 C   0  0  0  0  0  1  0  0  0  0  0  0
  187.6800  177.5980  134.6320 C   0  0  0  0  0  2  0  0  0  0  0  0
  188.1940  177.7970  136.9300 C   0  0  2  0  0  0  0  0  0  0  0  0
  186.7880  177.8120  136.8400 O   0  0  0  0  0  0  0  0  0  0  0  0
  186.4450  177.8190  135.4720 C   0  0  2  0  0  3  0  0  0  0  0  0
  188.7400  177.2600  135.6260 C   0  0  0  0  0  2  0  0  0  0  0  0
  181.9700  177.4000  137.9140 P   0  0  1  0  0  0  0  0  0  0  0  0
  184.3920  176.5340  136.2810 C   0  0  2  0  0  0  0  0  0  0  0  0
  184.4360  177.4820  137.5030 C   0  0  0  0  0  2  0  0  0  0  0  0
  186.5580  175.5430  137.2050 C   0  0  0  0  0  1  0  0  0  0  0  0
  183.0180  176.1130  135.7520 C   0  0  0  0  0  2  0  0  0  0  0  0
  185.4820  175.4780  136.1220 C   0  0  2  0  0  3  0  0  0  0  0  0
  185.4360  176.7040  135.1820 C   0  0  2  0  0  3  0  0  0  0  0  0
  183.5370  177.0670  138.4990 O   0  0  0  0  0  0  0  0  0  0  0  0
  181.9490  177.1490  136.1000 C   0  0  2  0  0  3  0  0  0  0  0  0
  181.0010  176.4320  138.5540 O   0  0  0  0  0  0  0  0  0  0  0  0
  182.5970  179.7980  138.8150 O   0  0  0  0  0  1  0  0  0  0  0  0
  180.5170  179.0610  139.3620 O   0  0  0  0  0  1  0  0  0  0  0  0
  181.4820  179.0960  138.3570 C   0  0  0  0  0  3  0  0  0  0  0  0
  182.2340  178.3520  135.4430 O   0  0  0  0  0  0  0  0  0  0  0  0
  181.1470  178.5760  134.5940 C   0  0  1  0  0  3  0  0  0  0  0  0
  179.9980  177.6720  134.9950 C   0  0  0  0  0  1  0  0  0  0  0  0
  180.7380  179.9090  134.6880 O   0  0  0  0  0  1  0  0  0  0  0  0
  189.1120  178.0760  140.2340 C   0  0  0  0  0  3  0  0  0  0  0  0
  188.2430  177.4330  139.4560 C   0  0  0  0  0  3  0  0  0  0  0  0
  188.6600  178.6220  141.5480 C   0  0  0  0  0  2  0  0  0  0  0  0
  190.7730  177.6170  142.0710 O   0  0  0  0  0  1  0  0  0  0  0  0
  189.6630  178.2500  142.6340 C   0  0  2  0  0  3  0  0  0  0  0  0
  189.8640  176.1450  144.1190 C   0  0  0  0  0  2  0  0  0  0  0  0
  188.5000  176.0470  143.4520 C   0  0  0  0  0  2  0  0  0  0  0  0
  189.0860  177.4140  143.7920 C   0  0  0  0  0  0  0  0  0  0  0  0
  187.1730  177.7470  145.6440 C   0  0  2  0  0  3  0  0  0  0  0  0
  188.4870  178.1940  144.9870 C   0  0  1  0  0  3  0  0  0  0  0  0
  190.2980  178.2920  148.1430 F   0  0  0  0  0  0  0  0  0  0  0  0
  189.5080  177.7980  147.1250 C   0  0  2  0  0  0  0  0  0  0  0  0
  187.4220  176.4900  146.4450 C   0  0  0  0  0  2  0  0  0  0  0  0
  189.4980  178.5530  145.9160 O   0  0  0  0  0  0  0  0  0  0  0  0
  188.5160  176.7310  147.4750 C   0  0  1  0  0  3  0  0  0  0  0  0
  189.7750  176.4360  146.8950 O   0  0  0  0  0  0  0  0  0  0  0  0
  186.0140  177.6000  144.6710 C   0  0  0  0  0  2  0  0  0  0  0  0
  184.3740  178.6870  146.1210 C   0  0  0  0  0  2  0  0  0  0  0  0
  184.9680  178.6320  144.9320 C   0  0  0  0  0  0  0  0  0  0  0  0
  184.6070  179.8700  143.6900 S   0  0  0  0  0  0  0  0  0  0  0  0
  184.6560  178.2960  141.4320 C   0  0  0  0  0  1  0  0  0  0  0  0
  183.7700  178.6650  142.6130 C   0  0  2  0  0  3  0  0  0  0  0  0
  182.5020  179.1560  142.1780 O   0  0  0  0  0  0  0  0  0  0  0  0
  181.3940  179.3060  143.0190 C   0  0  0  0  0  0  0  0  0  0  0  0
  180.4750  180.1020  142.7020 O   0  0  0  0  0  0  0  0  0  0  0  0
  181.3020  178.6000  144.2160 O   0  0  0  0  0  1  0  0  0  0  0  0
  190.0940  176.4240  138.0020 C   0  0  0  0  0  2  0  0  0  0  0  0
  190.2910  175.0890  137.2730 C   0  0  0  0  0  2  0  0  0  0  0  0
  191.7170  174.8260  136.9080 C   0  0  0  0  0  3  0  0  0  0  0  0
  192.4650  174.0490  137.6270 N   0  0  0  0  0  0  0  0  0  0  0  0
  194.8850  174.4870  137.9810 N   0  0  0  0  0  2  0  0  0  0  0  0
  194.0980  173.0120  136.3410 O   0  0  0  0  0  0  0  0  0  0  0  0
  198.5980  173.4670  137.2980 C   0  0  0  0  0  2  0  0  0  0  0  0
  197.1400  174.9890  138.4480 N   0  0  0  0  0  0  0  0  0  0  0  0
  196.2870  174.1980  137.8970 C   0  0  0  0  0  0  0  0  0  0  0  0
  193.8320  173.8100  137.2810 C   0  0  0  0  0  0  0  0  0  0  0  0
  198.5260  174.5670  138.3470 C   0  0  0  0  0  2  0  0  0  0  0  0
  196.9470  172.7020  137.1830 S   0  0  0  0  0  0  0  0  0  0  0  0
  1 51  1  1  0  0  0
  1 26  1  0  0  0  0
  3  7  1  0  0  0  0
  4  2  1  1  0  0  0
  4  1  1  0  0  0  0
  5  4  1  0  0  0  0
  6  3  1  6  0  0  0
  6  5  1  0  0  0  0
  7  4  1  0  0  0  0
  8 20  1  0  0  0  0
  8 15  1  0  0  0  0
  8 17  2  1  0  0  0
  9 12  1  6  0  0  0
  9 10  1  0  0  0  0
 10 15  1  0  0  0  0
 12 16  1  0  0  0  0
 13  9  1  0  0  0  0
 13 11  1  1  0  0  0
 14  6  1  1  0  0  0
 14 13  1  0  0  0  0
 14  9  1  0  0  0  0
 16 21  1  6  0  0  0
 16  8  1  0  0  0  0
 20 18  1  0  0  0  0
 20 19  1  0  0  0  0
 22 24  1  0  0  0  0
 22 23  1  1  0  0  0
 22 21  1  0  0  0  0
 25 27  1  0  0  0  0
 26 25  2  0  0  0  0
 27 29  1  0  0  0  0
 29 28  1  6  0  0  0
 29 32  1  0  0  0  0
 31 32  1  0  0  0  0
 31 30  1  0  0  0  0
 32 30  1  0  0  0  0
 33 41  1  6  0  0  0
 33 37  1  0  0  0  0
 34 32  1  1  0  0  0
 34 33  1  0  0  0  0
 34 38  1  0  0  0  0
 36 39  1  0  0  0  0
 36 35  1  1  0  0  0
 38 36  1  0  0  0  0
 39 37  1  6  0  0  0
 40 36  1  0  0  0  0
 40 39  1  0  0  0  0
 41 43  1  0  0  0  0
 43 42  2  0  0  0  0
 44 43  1  0  0  0  0
 46 45  1  6  0  0  0
 46 44  1  0  0  0  0
 47 46  1  0  0  0  0
 47 48  1  0  0  0  0
 48 50  1  0  0  0  0
 49 48  2  0  0  0  0
 52 51  1  0  0  0  0
 53 52  1  0  0  0  0
 53 54  2  0  0  0  0
 56 60  2  0  0  0  0
 57 61  1  0  0  0  0
 59 55  1  0  0  0  0
 59 58  2  0  0  0  0
 60 54  1  0  0  0  0
 60 55  1  0  0  0  0
 61 58  1  0  0  0  0
 62 57  1  0  0  0  0
 62 59  1  0  0  0  0
M  END
>  <MODEL>
4

>  <REMARK>
 VINA RESULT:      -4.3      1.938      3.262
  Name = 
  20 active torsions:
  status: ('A' for Active; 'I' for Inactive)
    1  A    between atoms: C_1  and  C_39
    2  A    between atoms: C_2  and  C_26
    3  A    between atoms: O_4  and  C_18
    4  A    between atoms: O_4  and  C_24
    5  A    between atoms: P_6  and  C_34
    6  A    between atoms: C_8  and  C_58
    7  A    between atoms: C_22  and  C_35
    8  A    between atoms: O_23  and  C_45
    9  A    between atoms: O_23  and  C_54
   10  A    between atoms: C_24  and  S_25
   11  A    between atoms: S_25  and  C_50
   12  A    between atoms: C_26  and  C_37
   13  A    between atoms: C_28  and  C_35
   14  A    between atoms: C_33  and  C_46
   15  A    between atoms: C_35  and  C_41
   16  A    between atoms: C_36  and  C_59
   17  A    between atoms: C_37  and  C_58
   18  A    between atoms: C_39  and  C_50
   19  A    between atoms: C_41  and  C_59
   20  A    between atoms: C_42  and  N_62
                            x       y       z     vdW  Elec       q    Type
                         _______ _______ _______ _____ _____    ______ ____

>  <TORSDO>
F 20

$$$$
=
 OpenBabel11062416373D

 62 68  0  0  1  0  0  0  0  0999 V2000
  182.6340  178.8920  142.3510 C   0  0  2  0  0  3  0  0  0  0  0  0
  182.8230  179.8950  140.0290 C   0  0  0  0  0  1  0  0  0  0  0  0
  183.2890  176.8450  139.3820 C   0  0  0  0  0  2  0  0  0  0  0  0
  182.6650  178.6040  140.8320 C   0  0  2  0  0  0  0  0  0  0  0  0
  181.4680  177.9650  140.4530 O   0  0  0  0  0  0  0  0  0  0  0  0
  181.7890  176.9850  139.4910 C   0  0  2  0  0  3  0  0  0  0  0  0
  183.8140  177.6760  140.5040 C   0  0  0  0  0  2  0  0  0  0  0  0
  180.3560  173.4330  136.1010 P   0  0  1  0  0  0  0  0  0  0  0  0
  180.4700  174.9270  138.7540 C   0  0  2  0  0  0  0  0  0  0  0  0
  180.4520  175.5940  137.3580 C   0  0  0  0  0  2  0  0  0  0  0  0
  178.9310  176.8330  139.4810 C   0  0  0  0  0  1  0  0  0  0  0  0
  180.5910  173.4020  138.8170 C   0  0  0  0  0  2  0  0  0  0  0  0
  179.6450  175.5430  139.8810 C   0  0  2  0  0  3  0  0  0  0  0  0
  181.1880  175.6370  139.8980 C   0  0  2  0  0  3  0  0  0  0  0  0
  179.5930  174.9110  136.4810 O   0  0  0  0  0  0  0  0  0  0  0  0
  181.2820  172.8500  137.5690 C   0  0  2  0  0  3  0  0  0  0  0  0
  179.2900  172.4160  135.7580 O   0  0  0  0  0  0  0  0  0  0  0  0
  182.3410  172.5730  134.5940 O   0  0  0  0  0  1  0  0  0  0  0  0
  182.1710  174.8320  134.7910 O   0  0  0  0  0  1  0  0  0  0  0  0
  181.4510  173.6440  134.6640 C   0  0  0  0  0  3  0  0  0  0  0  0
  182.6020  173.3130  137.5230 O   0  0  0  0  0  0  0  0  0  0  0  0
  183.3550  172.2360  137.0500 C   0  0  1  0  0  3  0  0  0  0  0  0
  184.8010  172.6640  136.8880 C   0  0  0  0  0  1  0  0  0  0  0  0
  183.2880  171.1750  137.9570 O   0  0  0  0  0  1  0  0  0  0  0  0
  184.1040  178.7110  144.3570 C   0  0  0  0  0  3  0  0  0  0  0  0
  183.9370  178.5630  143.0440 C   0  0  0  0  0  3  0  0  0  0  0  0
  185.4080  178.3370  144.9800 C   0  0  0  0  0  2  0  0  0  0  0  0
  185.8840  177.2710  142.8860 O   0  0  0  0  0  1  0  0  0  0  0  0
  186.4410  178.0630  143.8930 C   0  0  2  0  0  3  0  0  0  0  0  0
  187.7200  176.8860  145.8050 C   0  0  0  0  0  2  0  0  0  0  0  0
  188.4840  178.1720  145.5330 C   0  0  0  0  0  2  0  0  0  0  0  0
  187.7660  177.4570  144.3930 C   0  0  0  0  0  0  0  0  0  0  0  0
  189.1140  177.3750  142.0740 C   0  0  2  0  0  3  0  0  0  0  0  0
  188.6190  176.6880  143.3550 C   0  0  1  0  0  3  0  0  0  0  0  0
  191.9380  175.5190  144.2860 F   0  0  0  0  0  0  0  0  0  0  0  0
  190.9370  176.3910  143.9070 C   0  0  2  0  0  0  0  0  0  0  0  0
  190.2170  178.3460  142.4280 C   0  0  0  0  0  2  0  0  0  0  0  0
  189.6050  175.8940  143.9970 O   0  0  0  0  0  0  0  0  0  0  0  0
  191.3420  177.6220  143.1530 C   0  0  1  0  0  3  0  0  0  0  0  0
  191.0830  177.6360  144.5460 O   0  0  0  0  0  0  0  0  0  0  0  0
  188.0100  178.0190  141.2510 C   0  0  0  0  0  2  0  0  0  0  0  0
  189.6000  178.0880  139.3970 C   0  0  0  0  0  2  0  0  0  0  0  0
  188.3370  177.9720  139.7960 C   0  0  0  0  0  0  0  0  0  0  0  0
  187.0460  177.6330  138.6030 S   0  0  0  0  0  0  0  0  0  0  0  0
  187.4680  179.3370  136.4810 C   0  0  0  0  0  1  0  0  0  0  0  0
  188.0880  178.1500  137.2030 C   0  0  2  0  0  3  0  0  0  0  0  0
  188.3250  177.0640  136.3080 O   0  0  0  0  0  0  0  0  0  0  0  0
  187.9550  175.7410  136.5710 C   0  0  0  0  0  0  0  0  0  0  0  0
  186.8720  175.2940  136.1170 O   0  0  0  0  0  0  0  0  0  0  0  0
  188.7600  174.9130  137.3500 O   0  0  0  0  0  1  0  0  0  0  0  0
  181.3890  178.3080  143.0520 C   0  0  0  0  0  2  0  0  0  0  0  0
  180.1710  179.2410  143.0520 C   0  0  0  0  0  2  0  0  0  0  0  0
  179.7440  179.6460  141.6770 C   0  0  0  0  0  3  0  0  0  0  0  0
  180.0080  180.8260  141.2090 N   0  0  0  0  0  0  0  0  0  0  0  0
  179.7390  182.5730  139.4610 N   0  0  0  0  0  2  0  0  0  0  0  0
  179.0630  180.3530  139.1410 O   0  0  0  0  0  0  0  0  0  0  0  0
  178.9840  183.4750  135.7320 C   0  0  0  0  0  2  0  0  0  0  0  0
  179.5680  184.3280  137.8990 N   0  0  0  0  0  0  0  0  0  0  0  0
  179.5660  183.0600  138.1250 C   0  0  0  0  0  0  0  0  0  0  0  0
  179.5870  181.2140  139.8990 C   0  0  0  0  0  0  0  0  0  0  0  0
  179.4390  184.7050  136.5020 C   0  0  0  0  0  2  0  0  0  0  0  0
  179.4840  182.0050  136.6890 S   0  0  0  0  0  0  0  0  0  0  0  0
  1 26  1  1  0  0  0
  1 51  1  0  0  0  0
  3  7  1  0  0  0  0
  4  2  1  6  0  0  0
  4  1  1  0  0  0  0
  5  4  1  0  0  0  0
  6  3  1  1  0  0  0
  6  5  1  0  0  0  0
  7  4  1  0  0  0  0
  8 17  2  6  0  0  0
  8 15  1  0  0  0  0
  8 16  1  0  0  0  0
  9 10  1  6  0  0  0
  9 12  1  0  0  0  0
  9 13  1  0  0  0  0
  9 14  1  0  0  0  0
 13 11  1  6  0  0  0
 13 14  1  0  0  0  0
 14  6  1  6  0  0  0
 15 10  1  0  0  0  0
 16 21  1  6  0  0  0
 16 12  1  0  0  0  0
 18 20  1  0  0  0  0
 20 19  1  0  0  0  0
 20  8  1  0  0  0  0
 22 23  1  1  0  0  0
 22 21  1  0  0  0  0
 22 24  1  0  0  0  0
 25 27  1  0  0  0  0
 26 25  2  0  0  0  0
 29 28  1  6  0  0  0
 29 32  1  0  0  0  0
 29 27  1  0  0  0  0
 31 30  1  0  0  0  0
 32 31  1  0  0  0  0
 32 30  1  0  0  0  0
 33 41  1  1  0  0  0
 33 37  1  0  0  0  0
 33 34  1  0  0  0  0
 34 38  1  0  0  0  0
 34 32  1  1  0  0  0
 36 38  1  0  0  0  0
 36 35  1  1  0  0  0
 36 40  1  0  0  0  0
 39 37  1  6  0  0  0
 39 36  1  0  0  0  0
 39 40  1  0  0  0  0
 42 43  2  0  0  0  0
 43 41  1  0  0  0  0
 44 43  1  0  0  0  0
 46 45  1  6  0  0  0
 46 44  1  0  0  0  0
 47 48  1  0  0  0  0
 47 46  1  0  0  0  0
 48 50  1  0  0  0  0
 49 48  2  0  0  0  0
 52 51  1  0  0  0  0
 53 52  1  0  0  0  0
 54 53  2  0  0  0  0
 55 60  1  0  0  0  0
 56 60  2  0  0  0  0
 57 61  1  0  0  0  0
 57 62  1  0  0  0  0
 58 59  2  0  0  0  0
 59 55  1  0  0  0  0
 60 54  1  0  0  0  0
 61 58  1  0  0  0  0
 62 59  1  0  0  0  0
M  END
>  <MODEL>
5

>  <REMARK>
 VINA RESULT:      -3.7      5.087      9.563
  Name = 
  20 active torsions:
  status: ('A' for Active; 'I' for Inactive)
    1  A    between atoms: C_1  and  C_39
    2  A    between atoms: C_2  and  C_26
    3  A    between atoms: O_4  and  C_18
    4  A    between atoms: O_4  and  C_24
    5  A    between atoms: P_6  and  C_34
    6  A    between atoms: C_8  and  C_58
    7  A    between atoms: C_22  and  C_35
    8  A    between atoms: O_23  and  C_45
    9  A    between atoms: O_23  and  C_54
   10  A    between atoms: C_24  and  S_25
   11  A    between atoms: S_25  and  C_50
   12  A    between atoms: C_26  and  C_37
   13  A    between atoms: C_28  and  C_35
   14  A    between atoms: C_33  and  C_46
   15  A    between atoms: C_35  and  C_41
   16  A    between atoms: C_36  and  C_59
   17  A    between atoms: C_37  and  C_58
   18  A    between atoms: C_39  and  C_50
   19  A    between atoms: C_41  and  C_59
   20  A    between atoms: C_42  and  N_62
                            x       y       z     vdW  Elec       q    Type
                         _______ _______ _______ _____ _____    ______ ____

>  <TORSDO>
F 20

$$$$
=
 OpenBabel11062416373D

 62 68  0  0  1  0  0  0  0  0999 V2000
  188.2780  177.2590  138.3120 C   0  0  2  0  0  3  0  0  0  0  0  0
  187.4370  178.6800  136.3870 C   0  0  0  0  0  1  0  0  0  0  0  0
  184.9860  176.7380  136.7890 C   0  0  0  0  0  2  0  0  0  0  0  0
  187.0510  177.6680  137.4660 C   0  0  2  0  0  0  0  0  0  0  0  0
  186.0720  178.2350  138.3060 O   0  0  0  0  0  0  0  0  0  0  0  0
  184.8110  177.7970  137.8520 C   0  0  2  0  0  3  0  0  0  0  0  0
  186.4490  176.4480  136.8040 C   0  0  0  0  0  2  0  0  0  0  0  0
  179.9460  179.0500  138.8180 P   0  0  1  0  0  0  0  0  0  0  0  0
  182.7590  178.0090  139.3570 C   0  0  2  0  0  0  0  0  0  0  0  0
  182.4200  179.2560  138.5060 C   0  0  0  0  0  2  0  0  0  0  0  0
  184.7300  179.3740  140.2400 C   0  0  0  0  0  1  0  0  0  0  0  0
  181.5970  177.1380  139.8450 C   0  0  0  0  0  2  0  0  0  0  0  0
  183.9520  178.0600  140.3060 C   0  0  2  0  0  3  0  0  0  0  0  0
  184.0120  177.2080  139.0190 C   0  0  2  0  0  3  0  0  0  0  0  0
  181.3550  179.9790  139.0690 O   0  0  0  0  0  0  0  0  0  0  0  0
  180.3810  177.2740  138.9280 C   0  0  2  0  0  3  0  0  0  0  0  0
  178.9520  179.3790  139.9090 O   0  0  0  0  0  0  0  0  0  0  0  0
  179.1480  178.3080  136.4170 O   0  0  0  0  0  1  0  0  0  0  0  0
  179.9820  180.4180  136.5620 O   0  0  0  0  0  1  0  0  0  0  0  0
  179.2060  179.4560  137.2070 C   0  0  0  0  0  3  0  0  0  0  0  0
  180.6950  176.7750  137.6580 O   0  0  0  0  0  0  0  0  0  0  0  0
  180.4150  175.4080  137.7190 C   0  0  1  0  0  3  0  0  0  0  0  0
  179.7560  174.9700  136.4260 C   0  0  0  0  0  1  0  0  0  0  0  0
  181.6000  174.6880  137.8980 O   0  0  0  0  0  1  0  0  0  0  0  0
  188.6380  177.9230  140.6890 C   0  0  0  0  0  3  0  0  0  0  0  0
  188.6090  178.2560  139.4000 C   0  0  0  0  0  3  0  0  0  0  0  0
  189.0030  178.9510  141.7080 C   0  0  0  0  0  2  0  0  0  0  0  0
  191.1880  178.4590  142.5640 O   0  0  0  0  0  1  0  0  0  0  0  0
  189.8230  178.3070  142.8210 C   0  0  2  0  0  3  0  0  0  0  0  0
  190.6620  175.8720  143.0290 C   0  0  0  0  0  2  0  0  0  0  0  0
  189.5870  175.8440  141.9540 C   0  0  0  0  0  2  0  0  0  0  0  0
  189.4830  176.8330  143.1100 C   0  0  0  0  0  0  0  0  0  0  0  0
  188.4170  177.3910  145.5090 C   0  0  2  0  0  3  0  0  0  0  0  0
  188.4340  176.5630  144.2160 C   0  0  1  0  0  3  0  0  0  0  0  0
  184.9110  177.1560  143.5190 F   0  0  0  0  0  0  0  0  0  0  0  0
  186.2300  177.4310  143.8160 C   0  0  2  0  0  0  0  0  0  0  0  0
  187.9000  178.7780  145.2020 C   0  0  0  0  0  2  0  0  0  0  0  0
  187.1470  176.3520  143.6550 O   0  0  0  0  0  0  0  0  0  0  0  0
  186.5220  178.6960  144.5650 C   0  0  1  0  0  3  0  0  0  0  0  0
  186.6640  178.5970  143.1580 O   0  0  0  0  0  0  0  0  0  0  0  0
  189.7460  177.4120  146.2470 C   0  0  0  0  0  2  0  0  0  0  0  0
  188.7140  177.4430  148.4620 C   0  0  0  0  0  2  0  0  0  0  0  0
  189.5910  176.8840  147.6340 C   0  0  0  0  0  0  0  0  0  0  0  0
  190.4930  175.4210  148.1370 S   0  0  0  0  0  0  0  0  0  0  0  0
  192.3900  175.1070  146.1650 C   0  0  0  0  0  1  0  0  0  0  0  0
  192.0290  175.9950  147.3460 C   0  0  2  0  0  3  0  0  0  0  0  0
  193.0990  176.0660  148.2900 O   0  0  0  0  0  0  0  0  0  0  0  0
  193.2370  177.0870  149.2360 C   0  0  0  0  0  0  0  0  0  0  0  0
  192.4020  178.0250  149.2670 O   0  0  0  0  0  0  0  0  0  0  0  0
  194.3010  177.0910  150.1340 O   0  0  0  0  0  1  0  0  0  0  0  0
  189.4930  176.8440  137.4540 C   0  0  0  0  0  2  0  0  0  0  0  0
  189.8380  175.3520  137.5300 C   0  0  0  0  0  2  0  0  0  0  0  0
  191.2890  175.0740  137.3010 C   0  0  0  0  0  3  0  0  0  0  0  0
  192.1930  175.9760  137.5260 N   0  0  0  0  0  0  0  0  0  0  0  0
  194.1640  174.4780  137.7340 N   0  0  0  0  0  2  0  0  0  0  0  0
  194.2820  176.5840  136.7140 O   0  0  0  0  0  0  0  0  0  0  0  0
  197.8330  173.6230  136.6830 C   0  0  0  0  0  2  0  0  0  0  0  0
  195.9350  172.9440  137.9870 N   0  0  0  0  0  0  0  0  0  0  0  0
  195.4650  173.9840  137.3910 C   0  0  0  0  0  0  0  0  0  0  0  0
  193.5780  175.7120  137.2940 C   0  0  0  0  0  0  0  0  0  0  0  0
  197.2370  172.5010  137.5210 C   0  0  0  0  0  2  0  0  0  0  0  0
  196.4540  174.6410  136.0600 S   0  0  0  0  0  0  0  0  0  0  0  0
  1 51  1  6  0  0  0
  1 26  1  0  0  0  0
  3  7  1  0  0  0  0
  4  2  1  6  0  0  0
  4  5  1  0  0  0  0
  4  1  1  0  0  0  0
  6  3  1  6  0  0  0
  6  5  1  0  0  0  0
  7  4  1  0  0  0  0
  8 16  1  0  0  0  0
  8 15  1  0  0  0  0
  8 17  2  1  0  0  0
  9 10  1  6  0  0  0
  9 12  1  0  0  0  0
  9 13  1  0  0  0  0
 10 15  1  0  0  0  0
 13 11  1  6  0  0  0
 14  6  1  6  0  0  0
 14  9  1  0  0  0  0
 14 13  1  0  0  0  0
 16 21  1  6  0  0  0
 16 12  1  0  0  0  0
 18 20  1  0  0  0  0
 19 20  1  0  0  0  0
 20  8  1  0  0  0  0
 21 22  1  0  0  0  0
 22 23  1  6  0  0  0
 22 24  1  0  0  0  0
 25 27  1  0  0  0  0
 26 25  2  0  0  0  0
 27 29  1  0  0  0  0
 29 28  1  6  0  0  0
 29 32  1  0  0  0  0
 30 32  1  0  0  0  0
 31 30  1  0  0  0  0
 31 32  1  0  0  0  0
 33 41  1  6  0  0  0
 34 32  1  6  0  0  0
 34 33  1  0  0  0  0
 36 35  1  6  0  0  0
 36 39  1  0  0  0  0
 37 33  1  0  0  0  0
 38 36  1  0  0  0  0
 38 34  1  0  0  0  0
 39 37  1  1  0  0  0
 40 36  1  0  0  0  0
 40 39  1  0  0  0  0
 41 43  1  0  0  0  0
 43 44  1  0  0  0  0
 43 42  2  0  0  0  0
 46 45  1  6  0  0  0
 46 44  1  0  0  0  0
 46 47  1  0  0  0  0
 47 48  1  0  0  0  0
 48 49  2  0  0  0  0
 48 50  1  0  0  0  0
 51 52  1  0  0  0  0
 53 54  2  0  0  0  0
 53 52  1  0  0  0  0
 56 60  2  0  0  0  0
 57 61  1  0  0  0  0
 59 55  1  0  0  0  0
 59 58  2  0  0  0  0
 60 54  1  0  0  0  0
 60 55  1  0  0  0  0
 61 58  1  0  0  0  0
 62 57  1  0  0  0  0
 62 59  1  0  0  0  0
M  END
>  <MODEL>
6

>  <REMARK>
 VINA RESULT:      -3.7      2.827      5.168
  Name = 
  20 active torsions:
  status: ('A' for Active; 'I' for Inactive)
    1  A    between atoms: C_1  and  C_39
    2  A    between atoms: C_2  and  C_26
    3  A    between atoms: O_4  and  C_18
    4  A    between atoms: O_4  and  C_24
    5  A    between atoms: P_6  and  C_34
    6  A    between atoms: C_8  and  C_58
    7  A    between atoms: C_22  and  C_35
    8  A    between atoms: O_23  and  C_45
    9  A    between atoms: O_23  and  C_54
   10  A    between atoms: C_24  and  S_25
   11  A    between atoms: S_25  and  C_50
   12  A    between atoms: C_26  and  C_37
   13  A    between atoms: C_28  and  C_35
   14  A    between atoms: C_33  and  C_46
   15  A    between atoms: C_35  and  C_41
   16  A    between atoms: C_36  and  C_59
   17  A    between atoms: C_37  and  C_58
   18  A    between atoms: C_39  and  C_50
   19  A    between atoms: C_41  and  C_59
   20  A    between atoms: C_42  and  N_62
                            x       y       z     vdW  Elec       q    Type
                         _______ _______ _______ _____ _____    ______ ____

>  <TORSDO>
F 20

$$$$
=
 OpenBabel11062416373D

 62 68  0  0  1  0  0  0  0  0999 V2000
  190.0730  176.8830  138.7040 C   0  0  2  0  0  3  0  0  0  0  0  0
  191.3450  178.7170  139.9100 C   0  0  0  0  0  1  0  0  0  0  0  0
  188.5470  178.9100  141.3490 C   0  0  0  0  0  2  0  0  0  0  0  0
  190.0950  177.8370  139.9210 C   0  0  2  0  0  0  0  0  0  0  0  0
  190.0690  177.0810  141.1090 O   0  0  0  0  0  0  0  0  0  0  0  0
  189.2480  177.7590  142.0330 C   0  0  2  0  0  3  0  0  0  0  0  0
  188.8700  178.7240  139.9050 C   0  0  0  0  0  2  0  0  0  0  0  0
  188.2100  177.3970  147.0280 P   0  0  1  0  0  0  0  0  0  0  0  0
  188.3440  176.5640  144.1010 C   0  0  2  0  0  0  0  0  0  0  0  0
  189.4640  177.3100  144.8650 C   0  0  0  0  0  2  0  0  0  0  0  0
  190.2320  175.2480  142.9910 C   0  0  0  0  0  1  0  0  0  0  0  0
  187.0050  176.3580  144.8150 C   0  0  0  0  0  2  0  0  0  0  0  0
  188.7230  175.4470  143.1330 C   0  0  2  0  0  3  0  0  0  0  0  0
  188.1980  176.8000  142.6010 C   0  0  2  0  0  3  0  0  0  0  0  0
  189.5800  176.8350  146.1830 O   0  0  0  0  0  0  0  0  0  0  0  0
  186.7790  177.4250  145.8860 C   0  0  2  0  0  3  0  0  0  0  0  0
  187.9150  176.4370  148.1600 O   0  0  0  0  0  0  0  0  0  0  0  0
  189.4430  178.9340  148.7810 O   0  0  0  0  0  1  0  0  0  0  0  0
  187.3480  179.5990  148.2000 O   0  0  0  0  0  1  0  0  0  0  0  0
  188.5370  179.0450  147.7270 C   0  0  0  0  0  3  0  0  0  0  0  0
  186.6720  178.6810  145.2780 O   0  0  0  0  0  0  0  0  0  0  0  0
  185.3430  179.0700  145.4640 C   0  0  1  0  0  3  0  0  0  0  0  0
  184.5210  178.6500  144.2610 C   0  0  0  0  0  1  0  0  0  0  0  0
  184.8260  178.4590  146.6100 O   0  0  0  0  0  1  0  0  0  0  0  0
  188.0870  176.0690  137.4350 C   0  0  0  0  0  3  0  0  0  0  0  0
  188.7760  176.1160  138.5740 C   0  0  0  0  0  3  0  0  0  0  0  0
  186.8300  175.2670  137.3680 C   0  0  0  0  0  2  0  0  0  0  0  0
  185.3570  177.1590  137.3260 O   0  0  0  0  0  1  0  0  0  0  0  0
  185.7650  176.0400  136.5970 C   0  0  2  0  0  3  0  0  0  0  0  0
  184.6770  174.5560  134.7830 C   0  0  0  0  0  2  0  0  0  0  0  0
  183.7230  175.7230  134.9830 C   0  0  0  0  0  2  0  0  0  0  0  0
  184.5480  175.2040  136.1550 C   0  0  0  0  0  0  0  0  0  0  0  0
  182.3600  174.6480  137.6060 C   0  0  2  0  0  3  0  0  0  0  0  0
  183.8300  174.3810  137.2530 C   0  0  1  0  0  3  0  0  0  0  0  0
  183.3010  170.8150  136.7490 F   0  0  0  0  0  0  0  0  0  0  0  0
  183.1160  172.1770  136.6200 C   0  0  2  0  0  0  0  0  0  0  0  0
  181.4810  174.1350  136.4880 C   0  0  0  0  0  2  0  0  0  0  0  0
  184.1510  173.0030  137.1450 O   0  0  0  0  0  0  0  0  0  0  0  0
  181.7450  172.6570  136.2480 C   0  0  1  0  0  3  0  0  0  0  0  0
  182.7860  172.5180  135.2960 O   0  0  0  0  0  0  0  0  0  0  0  0
  182.0640  176.0950  137.9660 C   0  0  0  0  0  2  0  0  0  0  0  0
  180.8610  175.1290  139.8620 C   0  0  0  0  0  2  0  0  0  0  0  0
  181.0510  176.1730  139.0590 C   0  0  0  0  0  0  0  0  0  0  0  0
  180.1850  177.7100  139.3650 S   0  0  0  0  0  0  0  0  0  0  0  0
  180.2020  178.3560  142.0420 C   0  0  0  0  0  1  0  0  0  0  0  0
  181.1350  178.0390  140.8830 C   0  0  2  0  0  3  0  0  0  0  0  0
  182.0850  179.0860  140.6790 O   0  0  0  0  0  0  0  0  0  0  0  0
  183.3150  178.9080  140.0370 C   0  0  0  0  0  0  0  0  0  0  0  0
  184.1590  178.1110  140.5180 O   0  0  0  0  0  1  0  0  0  0  0  0
  183.6300  179.6190  138.8820 O   0  0  0  0  0  0  0  0  0  0  0  0
  191.3340  175.9980  138.6080 C   0  0  0  0  0  2  0  0  0  0  0  0
  191.5570  175.3670  137.2280 C   0  0  0  0  0  2  0  0  0  0  0  0
  192.9290  174.7980  137.0590 C   0  0  0  0  0  3  0  0  0  0  0  0
  193.5680  174.2690  138.0560 N   0  0  0  0  0  0  0  0  0  0  0  0
  195.1000  172.3180  137.9050 N   0  0  0  0  0  2  0  0  0  0  0  0
  195.8560  174.5310  137.7620 O   0  0  0  0  0  0  0  0  0  0  0  0
  198.6410  170.9160  137.0170 C   0  0  0  0  0  2  0  0  0  0  0  0
  196.4240  170.3740  137.7590 N   0  0  0  0  0  0  0  0  0  0  0  0
  196.3100  171.6390  137.5460 C   0  0  0  0  0  0  0  0  0  0  0  0
  194.8850  173.7370  137.8940 C   0  0  0  0  0  0  0  0  0  0  0  0
  197.6700  169.7820  137.3060 C   0  0  0  0  0  2  0  0  0  0  0  0
  197.6590  172.4130  136.6710 S   0  0  0  0  0  0  0  0  0  0  0  0
  1 26  1  1  0  0  0
  1  4  1  0  0  0  0
  4  2  1  6  0  0  0
  4  5  1  0  0  0  0
  5  6  1  0  0  0  0
  6  3  1  6  0  0  0
  7  4  1  0  0  0  0
  7  3  1  0  0  0  0
  8 20  1  0  0  0  0
  8 17  2  1  0  0  0
  9 12  1  1  0  0  0
  9 10  1  0  0  0  0
 10 15  1  0  0  0  0
 12 16  1  0  0  0  0
 13 11  1  6  0  0  0
 13  9  1  0  0  0  0
 14  6  1  6  0  0  0
 14 13  1  0  0  0  0
 14  9  1  0  0  0  0
 15  8  1  0  0  0  0
 16 21  1  6  0  0  0
 16  8  1  0  0  0  0
 20 19  1  0  0  0  0
 20 18  1  0  0  0  0
 21 22  1  0  0  0  0
 22 23  1  6  0  0  0
 22 24  1  0  0  0  0
 25 26  2  0  0  0  0
 27 25  1  0  0  0  0
 29 28  1  1  0  0  0
 29 27  1  0  0  0  0
 30 31  1  0  0  0  0
 30 32  1  0  0  0  0
 31 32  1  0  0  0  0
 32 29  1  0  0  0  0
 33 41  1  6  0  0  0
 34 32  1  6  0  0  0
 34 33  1  0  0  0  0
 36 35  1  1  0  0  0
 36 38  1  0  0  0  0
 37 33  1  0  0  0  0
 38 34  1  0  0  0  0
 39 37  1  1  0  0  0
 39 36  1  0  0  0  0
 40 39  1  0  0  0  0
 40 36  1  0  0  0  0
 41 43  1  0  0  0  0
 43 44  1  0  0  0  0
 43 42  2  0  0  0  0
 44 46  1  0  0  0  0
 46 45  1  1  0  0  0
 47 46  1  0  0  0  0
 48 49  1  0  0  0  0
 48 47  1  0  0  0  0
 50 48  2  0  0  0  0
 51  1  1  0  0  0  0
 52 51  1  0  0  0  0
 53 52  1  0  0  0  0
 53 54  2  0  0  0  0
 56 60  2  0  0  0  0
 57 61  1  0  0  0  0
 59 58  2  0  0  0  0
 59 55  1  0  0  0  0
 60 55  1  0  0  0  0
 60 54  1  0  0  0  0
 61 58  1  0  0  0  0
 62 57  1  0  0  0  0
 62 59  1  0  0  0  0
M  END
>  <MODEL>
7

>  <REMARK>
 VINA RESULT:      -3.6      3.741      8.481
  Name = 
  20 active torsions:
  status: ('A' for Active; 'I' for Inactive)
    1  A    between atoms: C_1  and  C_39
    2  A    between atoms: C_2  and  C_26
    3  A    between atoms: O_4  and  C_18
    4  A    between atoms: O_4  and  C_24
    5  A    between atoms: P_6  and  C_34
    6  A    between atoms: C_8  and  C_58
    7  A    between atoms: C_22  and  C_35
    8  A    between atoms: O_23  and  C_45
    9  A    between atoms: O_23  and  C_54
   10  A    between atoms: C_24  and  S_25
   11  A    between atoms: S_25  and  C_50
   12  A    between atoms: C_26  and  C_37
   13  A    between atoms: C_28  and  C_35
   14  A    between atoms: C_33  and  C_46
   15  A    between atoms: C_35  and  C_41
   16  A    between atoms: C_36  and  C_59
   17  A    between atoms: C_37  and  C_58
   18  A    between atoms: C_39  and  C_50
   19  A    between atoms: C_41  and  C_59
   20  A    between atoms: C_42  and  N_62
                            x       y       z     vdW  Elec       q    Type
                         _______ _______ _______ _____ _____    ______ ____

>  <TORSDO>
F 20

$$$$
=
 OpenBabel11062416373D

 62 68  0  0  1  0  0  0  0  0999 V2000
  183.2670  178.9050  141.3070 C   0  0  2  0  0  3  0  0  0  0  0  0
  182.3770  180.2360  139.3400 C   0  0  0  0  0  1  0  0  0  0  0  0
  182.7400  177.4030  138.0060 C   0  0  0  0  0  2  0  0  0  0  0  0
  182.6680  178.8370  139.8830 C   0  0  2  0  0  0  0  0  0  0  0  0
  181.4730  178.0930  139.9140 O   0  0  0  0  0  0  0  0  0  0  0  0
  181.4230  177.3120  138.7400 C   0  0  2  0  0  3  0  0  0  0  0  0
  183.6310  178.1380  138.9490 C   0  0  0  0  0  2  0  0  0  0  0  0
  182.4730  173.4250  135.5860 P   0  0  1  0  0  0  0  0  0  0  0  0
  181.1510  174.9200  137.8880 C   0  0  2  0  0  0  0  0  0  0  0  0
  181.4470  175.5190  136.4920 C   0  0  0  0  0  2  0  0  0  0  0  0
  178.9560  176.2250  137.7770 C   0  0  0  0  0  1  0  0  0  0  0  0
  181.6940  173.5220  138.1960 C   0  0  0  0  0  2  0  0  0  0  0  0
  179.8270  175.2500  138.5700 C   0  0  2  0  0  3  0  0  0  0  0  0
  181.1500  175.8480  139.0990 C   0  0  2  0  0  3  0  0  0  0  0  0
  181.2180  174.5740  135.4770 O   0  0  0  0  0  0  0  0  0  0  0  0
  182.9250  173.2060  137.3470 C   0  0  2  0  0  3  0  0  0  0  0  0
  181.9670  172.1070  135.0430 O   0  0  0  0  0  0  0  0  0  0  0  0
  184.9360  173.0340  134.7290 O   0  0  0  0  0  1  0  0  0  0  0  0
  184.3400  175.2070  135.0340 O   0  0  0  0  0  1  0  0  0  0  0  0
  183.9010  173.9590  134.5930 C   0  0  0  0  0  3  0  0  0  0  0  0
  183.9650  174.0790  137.6900 O   0  0  0  0  0  0  0  0  0  0  0  0
  185.0640  173.2580  137.9540 C   0  0  1  0  0  3  0  0  0  0  0  0
  184.8910  171.9350  137.2350 C   0  0  0  0  0  1  0  0  0  0  0  0
  186.2350  173.8750  137.5060 O   0  0  0  0  0  1  0  0  0  0  0  0
  185.5320  178.4930  142.2670 C   0  0  0  0  0  3  0  0  0  0  0  0
  184.5490  178.1160  141.4510 C   0  0  0  0  0  3  0  0  0  0  0  0
  186.7570  177.6490  142.3830 C   0  0  0  0  0  2  0  0  0  0  0  0
  187.7120  177.6690  140.1830 O   0  0  0  0  0  1  0  0  0  0  0  0
  187.8500  178.1950  141.4700 C   0  0  2  0  0  3  0  0  0  0  0  0
  189.5410  178.5330  143.3930 C   0  0  0  0  0  2  0  0  0  0  0  0
  190.1390  179.2490  142.1920 C   0  0  0  0  0  2  0  0  0  0  0  0
  189.2870  178.0010  141.9890 C   0  0  0  0  0  0  0  0  0  0  0  0
  191.1970  176.6810  140.6420 C   0  0  2  0  0  3  0  0  0  0  0  0
  189.9970  176.6810  141.6010 C   0  0  1  0  0  3  0  0  0  0  0  0
  191.7500  174.7800  144.1630 F   0  0  0  0  0  0  0  0  0  0  0  0
  191.5030  175.7740  143.2380 C   0  0  2  0  0  0  0  0  0  0  0  0
  192.4010  177.2510  141.3560 C   0  0  0  0  0  2  0  0  0  0  0  0
  190.1720  175.8470  142.7360 O   0  0  0  0  0  0  0  0  0  0  0  0
  192.6880  176.4550  142.6210 C   0  0  1  0  0  3  0  0  0  0  0  0
  191.9640  177.0200  143.7010 O   0  0  0  0  0  0  0  0  0  0  0  0
  190.9260  177.3670  139.3130 C   0  0  0  0  0  2  0  0  0  0  0  0
  190.5090  175.1050  138.4880 C   0  0  0  0  0  2  0  0  0  0  0  0
  190.8260  176.3660  138.2110 C   0  0  0  0  0  0  0  0  0  0  0  0
  191.0080  176.8930  136.5090 S   0  0  0  0  0  0  0  0  0  0  0  0
  188.8990  177.0600  134.7460 C   0  0  0  0  0  1  0  0  0  0  0  0
  189.2670  176.5270  136.1230 C   0  0  2  0  0  3  0  0  0  0  0  0
  188.3960  177.0440  137.1290 O   0  0  0  0  0  0  0  0  0  0  0  0
  187.5880  178.1730  136.9580 C   0  0  0  0  0  0  0  0  0  0  0  0
  188.0880  179.3200  137.0760 O   0  0  0  0  0  1  0  0  0  0  0  0
  186.2310  178.0470  136.6770 O   0  0  0  0  0  0  0  0  0  0  0  0
  182.2290  178.6190  142.4140 C   0  0  0  0  0  2  0  0  0  0  0  0
  182.4910  179.3610  143.7300 C   0  0  0  0  0  2  0  0  0  0  0  0
  183.6860  178.8430  144.4660 C   0  0  0  0  0  3  0  0  0  0  0  0
  183.9940  179.2840  145.6460 N   0  0  0  0  0  0  0  0  0  0  0  0
  186.1290  178.0130  145.6520 N   0  0  0  0  0  2  0  0  0  0  0  0
  185.2710  179.0470  147.5710 O   0  0  0  0  0  0  0  0  0  0  0  0
  189.4570  177.0860  147.4850 C   0  0  0  0  0  2  0  0  0  0  0  0
  188.1410  176.7950  145.4980 N   0  0  0  0  0  0  0  0  0  0  0  0
  187.4210  177.6400  146.1500 C   0  0  0  0  0  0  0  0  0  0  0  0
  185.1440  178.7960  146.3410 C   0  0  0  0  0  0  0  0  0  0  0  0
  189.4520  176.5340  146.0670 C   0  0  0  0  0  2  0  0  0  0  0  0
  188.1850  178.3890  147.5780 S   0  0  0  0  0  0  0  0  0  0  0  0
  1 26  1  6  0  0  0
  1 51  1  0  0  0  0
  3  7  1  0  0  0  0
  4  2  1  6  0  0  0
  4  5  1  0  0  0  0
  4  1  1  0  0  0  0
  6  3  1  1  0  0  0
  6  5  1  0  0  0  0
  7  4  1  0  0  0  0
  8 17  2  6  0  0  0
  8 16  1  0  0  0  0
  9 10  1  6  0  0  0
  9 12  1  0  0  0  0
  9 13  1  0  0  0  0
  9 14  1  0  0  0  0
 13 11  1  6  0  0  0
 13 14  1  0  0  0  0
 14  6  1  6  0  0  0
 15  8  1  0  0  0  0
 15 10  1  0  0  0  0
 16 21  1  1  0  0  0
 16 12  1  0  0  0  0
 20 18  1  0  0  0  0
 20 19  1  0  0  0  0
 20  8  1  0  0  0  0
 21 22  1  0  0  0  0
 22 23  1  6  0  0  0
 24 22  1  0  0  0  0
 25 27  1  0  0  0  0
 26 25  2  0  0  0  0
 29 28  1  6  0  0  0
 29 32  1  0  0  0  0
 29 27  1  0  0  0  0
 31 30  1  0  0  0  0
 32 31  1  0  0  0  0
 32 30  1  0  0  0  0
 33 41  1  6  0  0  0
 33 37  1  0  0  0  0
 33 34  1  0  0  0  0
 34 32  1  1  0  0  0
 34 38  1  0  0  0  0
 36 40  1  0  0  0  0
 36 35  1  1  0  0  0
 38 36  1  0  0  0  0
 39 37  1  6  0  0  0
 39 36  1  0  0  0  0
 39 40  1  0  0  0  0
 43 42  2  0  0  0  0
 43 41  1  0  0  0  0
 44 43  1  0  0  0  0
 46 45  1  6  0  0  0
 46 44  1  0  0  0  0
 46 47  1  0  0  0  0
 48 49  1  0  0  0  0
 48 47  1  0  0  0  0
 50 48  2  0  0  0  0
 51 52  1  0  0  0  0
 52 53  1  0  0  0  0
 53 54  2  0  0  0  0
 54 60  1  0  0  0  0
 55 59  1  0  0  0  0
 55 60  1  0  0  0  0
 57 62  1  0  0  0  0
 58 61  1  0  0  0  0
 58 59  2  0  0  0  0
 59 62  1  0  0  0  0
 60 56  2  0  0  0  0
 61 57  1  0  0  0  0
M  END
>  <MODEL>
8

>  <REMARK>
 VINA RESULT:      -3.5      3.753      7.850
  Name = 
  20 active torsions:
  status: ('A' for Active; 'I' for Inactive)
    1  A    between atoms: C_1  and  C_39
    2  A    between atoms: C_2  and  C_26
    3  A    between atoms: O_4  and  C_18
    4  A    between atoms: O_4  and  C_24
    5  A    between atoms: P_6  and  C_34
    6  A    between atoms: C_8  and  C_58
    7  A    between atoms: C_22  and  C_35
    8  A    between atoms: O_23  and  C_45
    9  A    between atoms: O_23  and  C_54
   10  A    between atoms: C_24  and  S_25
   11  A    between atoms: S_25  and  C_50
   12  A    between atoms: C_26  and  C_37
   13  A    between atoms: C_28  and  C_35
   14  A    between atoms: C_33  and  C_46
   15  A    between atoms: C_35  and  C_41
   16  A    between atoms: C_36  and  C_59
   17  A    between atoms: C_37  and  C_58
   18  A    between atoms: C_39  and  C_50
   19  A    between atoms: C_41  and  C_59
   20  A    between atoms: C_42  and  N_62
                            x       y       z     vdW  Elec       q    Type
                         _______ _______ _______ _____ _____    ______ ____

>  <TORSDO>
F 20

$$$$
