=
 OpenBabel11062416273D

 46 49  0  0  1  0  0  0  0  0999 V2000
  181.6220  179.5530  139.8810 N   0  0  0  0  0  2  0  0  0  0  0  0
  181.3130  178.4470  140.7430 C   0  0  0  0  0  0  0  0  0  0  0  0
  181.1010  177.2990  140.2670 O   0  0  0  0  0  0  0  0  0  0  0  0
  181.9100  180.6220  137.8450 O   0  0  0  0  0  0  0  0  0  0  0  0
  181.6610  179.5440  138.4490 C   0  0  0  0  0  0  0  0  0  0  0  0
  182.6710  177.6410  137.3040 C   0  0  2  0  0  3  0  0  0  0  0  0
  181.3930  178.2940  137.6630 C   0  0  2  0  0  3  0  0  0  0  0  0
  181.9390  178.3940  136.3690 O   0  0  0  0  0  0  0  0  0  0  0  0
  182.4380  176.1590  137.0470 C   0  0  0  0  0  2  0  0  0  0  0  0
  183.7550  175.3680  136.9290 C   0  0  1  0  0  0  0  0  0  0  0  0
  182.9890  174.7030  134.7340 O   0  0  0  0  0  1  0  0  0  0  0  0
  184.0880  175.2050  135.4380 C   0  0  0  0  0  2  0  0  0  0  0  0
  184.8500  176.0670  137.6290 N   0  0  0  0  0  2  0  0  0  0  0  0
  188.4840  178.0180  137.0290 C   0  0  1  0  0  3  0  0  0  0  0  0
  185.9920  177.9650  136.5730 C   0  0  0  0  0  2  0  0  0  0  0  0
  188.8550  179.1600  137.8450 N   0  0  0  0  0  1  0  0  0  0  0  0
  187.2600  175.8210  137.1940 C   0  0  0  0  0  2  0  0  0  0  0  0
  188.1290  176.8340  137.9370 C   0  0  0  0  0  2  0  0  0  0  0  0
  187.3580  178.4140  136.0620 C   0  0  0  0  0  2  0  0  0  0  0  0
  185.9350  176.4370  136.7160 C   0  0  1  0  0  3  0  0  0  0  0  0
  183.5940  173.9770  137.5720 C   0  0  0  0  0  2  0  0  0  0  0  0
  185.8430  173.0060  138.0840 O   0  0  0  0  0  1  0  0  0  0  0  0
  184.6260  172.2360  136.3010 O   0  0  0  0  0  0  0  0  0  0  0  0
  184.7190  173.0360  137.2690 C   0  0  0  0  0  0  0  0  0  0  0  0
  181.1810  178.6580  142.2300 C   0  0  2  0  0  3  0  0  0  0  0  0
  180.3020  179.8510  142.5880 C   0  0  0  0  0  1  0  0  0  0  0  0
  182.5930  178.8160  144.3240 C   0  0  0  0  0  3  0  0  0  0  0  0
  184.9370  178.7090  142.7700 C   0  0  0  0  0  0  0  0  0  0  0  0
  185.0270  178.7770  144.1820 C   0  0  0  0  0  0  0  0  0  0  0  0
  183.8470  178.8350  144.9430 C   0  0  0  0  0  3  0  0  0  0  0  0
  182.5030  178.7500  142.9280 C   0  0  0  0  0  0  0  0  0  0  0  0
  183.6710  178.6920  142.1650 C   0  0  0  0  0  3  0  0  0  0  0  0
  186.1350  178.6190  141.8980 C   0  0  0  0  0  0  0  0  0  0  0  0
  186.2430  179.3710  140.8930 O   0  0  0  0  0  0  0  0  0  0  0  0
  187.1530  177.7060  142.1600 O   0  0  0  0  0  1  0  0  0  0  0  0
  186.2880  178.7660  144.8010 O   0  0  0  0  0  0  0  0  0  0  0  0
  186.6310  178.0820  146.0120 C   0  0  1  0  0  3  0  0  0  0  0  0
  190.1560  177.1900  147.3490 C   0  0  0  0  0  2  0  0  0  0  0  0
  190.8750  176.8280  146.0510 C   0  0  0  0  0  2  0  0  0  0  0  0
  190.2360  177.5270  144.8880 C   0  0  0  0  0  0  0  0  0  0  0  0
  188.0730  177.6580  146.0280 C   0  0  0  0  0  0  0  0  0  0  0  0
  188.6580  176.9220  147.2100 C   0  0  0  0  0  2  0  0  0  0  0  0
  190.9060  177.7530  143.8490 O   0  0  0  0  0  0  0  0  0  0  0  0
  188.8160  177.9070  144.9440 C   0  0  0  0  0  3  0  0  0  0  0  0
  186.1870  178.8480  147.2580 C   0  0  0  0  0  2  0  0  0  0  0  0
  184.9060  178.4400  147.6320 O   0  0  0  0  0  1  0  0  0  0  0  0
  1  2  1  0  0  0  0
  2 25  1  0  0  0  0
  3  2  2  0  0  0  0
  4  5  2  0  0  0  0
  5  1  1  0  0  0  0
  6  9  1  6  0  0  0
  6  7  1  0  0  0  0
  7  5  1  1  0  0  0
  8  6  1  0  0  0  0
  8  7  1  0  0  0  0
 10 12  1  6  0  0  0
 10  9  1  0  0  0  0
 10 21  1  0  0  0  0
 10 13  1  0  0  0  0
 11 12  1  0  0  0  0
 14 16  1  1  0  0  0
 14 18  1  0  0  0  0
 15 20  1  0  0  0  0
 17 18  1  0  0  0  0
 19 15  1  0  0  0  0
 19 14  1  0  0  0  0
 20 17  1  0  0  0  0
 20 13  1  1  0  0  0
 23 24  2  0  0  0  0
 24 21  1  0  0  0  0
 24 22  1  0  0  0  0
 25 26  1  6  0  0  0
 25 31  1  0  0  0  0
 27 30  1  0  0  0  0
 28 29  1  0  0  0  0
 29 36  1  0  0  0  0
 29 30  2  0  0  0  0
 31 27  2  0  0  0  0
 32 28  2  0  0  0  0
 32 31  1  0  0  0  0
 33 35  1  0  0  0  0
 33 28  1  0  0  0  0
 34 33  2  0  0  0  0
 36 37  1  0  0  0  0
 37 41  1  0  0  0  0
 37 45  1  1  0  0  0
 39 38  1  0  0  0  0
 40 44  1  0  0  0  0
 40 39  1  0  0  0  0
 41 42  1  0  0  0  0
 42 38  1  0  0  0  0
 43 40  2  0  0  0  0
 44 41  2  0  0  0  0
 45 46  1  0  0  0  0
M  END
>  <MODEL>
1

>  <REMARK>
 VINA RESULT:      -7.9      0.000      0.000
  Name = 
  15 active torsions:
  status: ('A' for Active; 'I' for Inactive)
    1  A    between atoms: N_1  and  C_38
    2  A    between atoms: N_1  and  C_40
    3  A    between atoms: C_3  and  C_26
    4  A    between atoms: C_5  and  C_16
    5  A    between atoms: O_13  and  C_16
    6  A    between atoms: O_13  and  C_30
    7  A    between atoms: C_15  and  C_16
    8  A    between atoms: C_17  and  C_25
    9  A    between atoms: C_17  and  C_38
   10  A    between atoms: C_20  and  C_27
   11  A    between atoms: C_20  and  C_38
   12  A    between atoms: C_23  and  C_24
   13  A    between atoms: C_23  and  C_33
   14  A    between atoms: C_36  and  C_43
   15  A    between atoms: C_38  and  C_41
                            x       y       z     vdW  Elec       q    Type
                         _______ _______ _______ _____ _____    ______ ____

>  <TORSDO>
F 15

$$$$
=
 OpenBabel11062416273D

 46 49  0  0  1  0  0  0  0  0999 V2000
  186.7340  175.5430  137.4680 N   0  0  0  0  0  2  0  0  0  0  0  0
  186.4860  176.9410  137.2510 C   0  0  0  0  0  0  0  0  0  0  0  0
  185.3580  177.3410  136.8540 O   0  0  0  0  0  0  0  0  0  0  0  0
  186.2300  173.2820  137.4210 O   0  0  0  0  0  0  0  0  0  0  0  0
  185.8320  174.4600  137.2140 C   0  0  0  0  0  0  0  0  0  0  0  0
  183.5000  174.8470  137.8160 C   0  0  2  0  0  3  0  0  0  0  0  0
  184.4460  174.6970  136.6890 C   0  0  2  0  0  3  0  0  0  0  0  0
  183.5830  173.6540  137.0770 O   0  0  0  0  0  0  0  0  0  0  0  0
  182.2790  175.6350  137.3630 C   0  0  0  0  0  2  0  0  0  0  0  0
  181.3640  176.0310  138.5380 C   0  0  1  0  0  0  0  0  0  0  0  0
  179.6100  175.1210  139.9320 O   0  0  0  0  0  1  0  0  0  0  0  0
  180.3640  174.8900  138.7770 C   0  0  0  0  0  2  0  0  0  0  0  0
  182.1570  176.2850  139.7560 N   0  0  0  0  0  2  0  0  0  0  0  0
  182.6790  179.0980  142.7870 C   0  0  1  0  0  3  0  0  0  0  0  0
  181.0540  177.7540  141.3820 C   0  0  0  0  0  2  0  0  0  0  0  0
  182.6380  178.6990  144.1830 N   0  0  0  0  0  1  0  0  0  0  0  0
  183.4300  178.2420  140.5380 C   0  0  0  0  0  2  0  0  0  0  0  0
  183.7070  178.2390  142.0400 C   0  0  0  0  0  2  0  0  0  0  0  0
  181.2670  179.0340  142.1860 C   0  0  0  0  0  2  0  0  0  0  0  0
  182.0390  177.6740  140.2060 C   0  0  1  0  0  3  0  0  0  0  0  0
  180.5960  177.3220  138.1960 C   0  0  0  0  0  2  0  0  0  0  0  0
  179.9650  177.6580  135.7970 O   0  0  0  0  0  0  0  0  0  0  0  0
  181.9290  178.5140  136.6100 O   0  0  0  0  0  1  0  0  0  0  0  0
  180.8810  177.8510  136.8230 C   0  0  0  0  0  0  0  0  0  0  0  0
  187.5930  177.9460  137.4430 C   0  0  2  0  0  3  0  0  0  0  0  0
  188.7900  177.6970  136.5320 C   0  0  0  0  0  1  0  0  0  0  0  0
  187.1250  178.3370  139.9000 C   0  0  0  0  0  3  0  0  0  0  0  0
  189.8330  177.8630  140.5060 C   0  0  0  0  0  0  0  0  0  0  0  0
  188.9120  178.1380  141.5470 C   0  0  0  0  0  0  0  0  0  0  0  0
  187.5650  178.3770  141.2260 C   0  0  0  0  0  3  0  0  0  0  0  0
  188.0340  178.0670  138.8690 C   0  0  0  0  0  0  0  0  0  0  0  0
  189.3750  177.8280  139.1790 C   0  0  0  0  0  3  0  0  0  0  0  0
  191.2660  177.5740  140.7640 C   0  0  0  0  0  0  0  0  0  0  0  0
  191.7900  177.9080  141.8600 O   0  0  0  0  0  1  0  0  0  0  0  0
  192.0590  176.9430  139.8110 O   0  0  0  0  0  0  0  0  0  0  0  0
  189.3520  178.1480  142.8810 O   0  0  0  0  0  0  0  0  0  0  0  0
  189.1530  177.1080  143.8460 C   0  0  1  0  0  3  0  0  0  0  0  0
  185.9310  178.6180  145.3780 C   0  0  0  0  0  2  0  0  0  0  0  0
  186.0700  178.1800  146.8350 C   0  0  0  0  0  2  0  0  0  0  0  0
  187.5150  177.9760  147.1820 C   0  0  0  0  0  0  0  0  0  0  0  0
  188.1060  177.4750  144.8590 C   0  0  0  0  0  0  0  0  0  0  0  0
  186.6570  177.6320  144.4630 C   0  0  0  0  0  2  0  0  0  0  0  0
  187.8910  178.0770  148.3780 O   0  0  0  0  0  0  0  0  0  0  0  0
  188.4830  177.6120  146.1350 C   0  0  0  0  0  3  0  0  0  0  0  0
  188.9450  175.7420  143.1940 C   0  0  0  0  0  2  0  0  0  0  0  0
  190.1810  175.1820  142.8660 O   0  0  0  0  0  1  0  0  0  0  0  0
  2 25  1  0  0  0  0
  2  1  1  0  0  0  0
  3  2  2  0  0  0  0
  5  4  2  0  0  0  0
  5  1  1  0  0  0  0
  6  9  1  6  0  0  0
  7  8  1  0  0  0  0
  7  5  1  1  0  0  0
  7  6  1  0  0  0  0
  8  6  1  0  0  0  0
 10  9  1  6  0  0  0
 10 12  1  0  0  0  0
 10 13  1  0  0  0  0
 12 11  1  0  0  0  0
 14 16  1  1  0  0  0
 15 19  1  0  0  0  0
 17 18  1  0  0  0  0
 18 14  1  0  0  0  0
 19 14  1  0  0  0  0
 20 13  1  1  0  0  0
 20 17  1  0  0  0  0
 20 15  1  0  0  0  0
 21 10  1  0  0  0  0
 22 24  2  0  0  0  0
 23 24  1  0  0  0  0
 24 21  1  0  0  0  0
 25 26  1  6  0  0  0
 25 31  1  0  0  0  0
 27 30  1  0  0  0  0
 28 33  1  0  0  0  0
 28 29  1  0  0  0  0
 29 36  1  0  0  0  0
 30 29  2  0  0  0  0
 31 32  1  0  0  0  0
 31 27  2  0  0  0  0
 32 28  2  0  0  0  0
 33 34  1  0  0  0  0
 35 33  2  0  0  0  0
 36 37  1  0  0  0  0
 37 45  1  6  0  0  0
 37 41  1  0  0  0  0
 38 39  1  0  0  0  0
 39 40  1  0  0  0  0
 40 43  2  0  0  0  0
 41 44  2  0  0  0  0
 42 41  1  0  0  0  0
 42 38  1  0  0  0  0
 44 40  1  0  0  0  0
 46 45  1  0  0  0  0
M  END
>  <MODEL>
2

>  <REMARK>
 VINA RESULT:      -7.8      2.111      5.939
  Name = 
  15 active torsions:
  status: ('A' for Active; 'I' for Inactive)
    1  A    between atoms: N_1  and  C_38
    2  A    between atoms: N_1  and  C_40
    3  A    between atoms: C_3  and  C_26
    4  A    between atoms: C_5  and  C_16
    5  A    between atoms: O_13  and  C_16
    6  A    between atoms: O_13  and  C_30
    7  A    between atoms: C_15  and  C_16
    8  A    between atoms: C_17  and  C_25
    9  A    between atoms: C_17  and  C_38
   10  A    between atoms: C_20  and  C_27
   11  A    between atoms: C_20  and  C_38
   12  A    between atoms: C_23  and  C_24
   13  A    between atoms: C_23  and  C_33
   14  A    between atoms: C_36  and  C_43
   15  A    between atoms: C_38  and  C_41
                            x       y       z     vdW  Elec       q    Type
                         _______ _______ _______ _____ _____    ______ ____

>  <TORSDO>
F 15

$$$$
=
 OpenBabel11062416273D

 46 49  0  0  1  0  0  0  0  0999 V2000
  181.7280  179.5470  143.2990 N   0  0  0  0  0  2  0  0  0  0  0  0
  182.8030  178.7250  142.8190 C   0  0  0  0  0  0  0  0  0  0  0  0
  182.7100  178.1230  141.7150 O   0  0  0  0  0  0  0  0  0  0  0  0
  179.6010  180.4650  143.2650 O   0  0  0  0  0  0  0  0  0  0  0  0
  180.4490  179.7380  142.6820 C   0  0  0  0  0  0  0  0  0  0  0  0
  180.2890  180.0310  140.2650 C   0  0  2  0  0  3  0  0  0  0  0  0
  180.0970  179.0780  141.3810 C   0  0  2  0  0  3  0  0  0  0  0  0
  179.0110  179.7330  140.7690 O   0  0  0  0  0  0  0  0  0  0  0  0
  180.5070  179.2660  138.9670 C   0  0  0  0  0  2  0  0  0  0  0  0
  181.6190  179.8850  138.0980 C   0  0  1  0  0  0  0  0  0  0  0  0
  183.8960  180.3870  138.7370 O   0  0  0  0  0  1  0  0  0  0  0  0
  182.5580  180.6830  139.0150 C   0  0  0  0  0  2  0  0  0  0  0  0
  182.3680  178.8350  137.3810 N   0  0  0  0  0  2  0  0  0  0  0  0
  183.2070  174.7530  137.3590 C   0  0  1  0  0  3  0  0  0  0  0  0
  181.5330  176.5880  136.8580 C   0  0  0  0  0  2  0  0  0  0  0  0
  183.6610  174.0970  136.1460 N   0  0  0  0  0  1  0  0  0  0  0  0
  183.4060  176.9510  138.5770 C   0  0  0  0  0  2  0  0  0  0  0  0
  184.1130  175.9530  137.6620 C   0  0  0  0  0  2  0  0  0  0  0  0
  181.7210  175.1190  137.2270 C   0  0  0  0  0  2  0  0  0  0  0  0
  182.1190  177.5050  137.9420 C   0  0  1  0  0  3  0  0  0  0  0  0
  181.0040  180.8300  137.0480 C   0  0  0  0  0  2  0  0  0  0  0  0
  179.3760  179.3410  135.8680 O   0  0  0  0  0  1  0  0  0  0  0  0
  181.1130  180.2980  134.7210 O   0  0  0  0  0  0  0  0  0  0  0  0
  180.5160  180.1310  135.8160 C   0  0  0  0  0  0  0  0  0  0  0  0
  184.0380  178.5240  143.6600 C   0  0  2  0  0  3  0  0  0  0  0  0
  184.2140  179.5980  144.7280 C   0  0  0  0  0  1  0  0  0  0  0  0
  185.3860  178.9280  141.5560 C   0  0  0  0  0  3  0  0  0  0  0  0
  187.6150  177.6680  142.7250 C   0  0  0  0  0  0  0  0  0  0  0  0
  187.7140  178.2150  141.4210 C   0  0  0  0  0  0  0  0  0  0  0  0
  186.5900  178.8360  140.8510 C   0  0  0  0  0  3  0  0  0  0  0  0
  185.2860  178.3860  142.8430 C   0  0  0  0  0  0  0  0  0  0  0  0
  186.3990  177.7680  143.4180 C   0  0  0  0  0  3  0  0  0  0  0  0
  188.7640  177.0200  143.4070 C   0  0  0  0  0  0  0  0  0  0  0  0
  189.0650  175.8260  143.1390 O   0  0  0  0  0  0  0  0  0  0  0  0
  189.5210  177.7040  144.3540 O   0  0  0  0  0  1  0  0  0  0  0  0
  188.9340  178.1470  140.7280 O   0  0  0  0  0  0  0  0  0  0  0  0
  189.3310  177.1190  139.8120 C   0  0  1  0  0  3  0  0  0  0  0  0
  187.8080  178.9480  136.7560 C   0  0  0  0  0  2  0  0  0  0  0  0
  187.7270  177.8050  135.7450 C   0  0  0  0  0  2  0  0  0  0  0  0
  187.6300  176.4880  136.4550 C   0  0  0  0  0  0  0  0  0  0  0  0
  188.7850  177.3550  138.4330 C   0  0  0  0  0  0  0  0  0  0  0  0
  188.9430  178.6910  137.7470 C   0  0  0  0  0  2  0  0  0  0  0  0
  187.1000  175.5040  135.8780 O   0  0  0  0  0  0  0  0  0  0  0  0
  188.1950  176.3310  137.8040 C   0  0  0  0  0  3  0  0  0  0  0  0
  190.8360  176.8520  139.8550 C   0  0  0  0  0  2  0  0  0  0  0  0
  191.3990  177.4950  140.9590 O   0  0  0  0  0  1  0  0  0  0  0  0
  2  1  1  0  0  0  0
  2 25  1  0  0  0  0
  3  2  2  0  0  0  0
  5  4  2  0  0  0  0
  5  1  1  0  0  0  0
  6  9  1  6  0  0  0
  6  8  1  0  0  0  0
  6  7  1  0  0  0  0
  7  5  1  1  0  0  0
  8  7  1  0  0  0  0
 10 21  1  6  0  0  0
 10  9  1  0  0  0  0
 10 12  1  0  0  0  0
 11 12  1  0  0  0  0
 13 10  1  0  0  0  0
 14 16  1  6  0  0  0
 14 18  1  0  0  0  0
 15 19  1  0  0  0  0
 15 20  1  0  0  0  0
 18 17  1  0  0  0  0
 19 14  1  0  0  0  0
 20 13  1  6  0  0  0
 20 17  1  0  0  0  0
 23 24  2  0  0  0  0
 24 22  1  0  0  0  0
 24 21  1  0  0  0  0
 25 26  1  1  0  0  0
 27 31  1  0  0  0  0
 28 33  1  0  0  0  0
 28 32  1  0  0  0  0
 29 28  2  0  0  0  0
 30 29  1  0  0  0  0
 30 27  2  0  0  0  0
 31 32  2  0  0  0  0
 31 25  1  0  0  0  0
 33 35  1  0  0  0  0
 34 33  2  0  0  0  0
 36 29  1  0  0  0  0
 37 45  1  6  0  0  0
 37 36  1  0  0  0  0
 38 42  1  0  0  0  0
 39 40  1  0  0  0  0
 39 38  1  0  0  0  0
 40 44  1  0  0  0  0
 41 37  1  0  0  0  0
 42 41  1  0  0  0  0
 43 40  2  0  0  0  0
 44 41  2  0  0  0  0
 45 46  1  0  0  0  0
M  END
>  <MODEL>
3

>  <REMARK>
 VINA RESULT:      -7.8      2.537      6.256
  Name = 
  15 active torsions:
  status: ('A' for Active; 'I' for Inactive)
    1  A    between atoms: N_1  and  C_38
    2  A    between atoms: N_1  and  C_40
    3  A    between atoms: C_3  and  C_26
    4  A    between atoms: C_5  and  C_16
    5  A    between atoms: O_13  and  C_16
    6  A    between atoms: O_13  and  C_30
    7  A    between atoms: C_15  and  C_16
    8  A    between atoms: C_17  and  C_25
    9  A    between atoms: C_17  and  C_38
   10  A    between atoms: C_20  and  C_27
   11  A    between atoms: C_20  and  C_38
   12  A    between atoms: C_23  and  C_24
   13  A    between atoms: C_23  and  C_33
   14  A    between atoms: C_36  and  C_43
   15  A    between atoms: C_38  and  C_41
                            x       y       z     vdW  Elec       q    Type
                         _______ _______ _______ _____ _____    ______ ____

>  <TORSDO>
F 15

$$$$
=
 OpenBabel11062416273D

 46 49  0  0  1  0  0  0  0  0999 V2000
  187.9840  175.4570  136.9210 N   0  0  0  0  0  2  0  0  0  0  0  0
  187.3230  176.7000  136.6410 C   0  0  0  0  0  0  0  0  0  0  0  0
  186.2750  176.7290  135.9400 O   0  0  0  0  0  0  0  0  0  0  0  0
  188.3490  173.1760  136.7370 O   0  0  0  0  0  0  0  0  0  0  0  0
  187.6290  174.1610  136.4240 C   0  0  0  0  0  0  0  0  0  0  0  0
  185.3590  173.2800  136.2710 C   0  0  2  0  0  3  0  0  0  0  0  0
  186.4410  173.9620  135.5270 C   0  0  2  0  0  3  0  0  0  0  0  0
  186.1740  172.5900  135.3550 O   0  0  0  0  0  0  0  0  0  0  0  0
  184.0170  173.5820  135.6190 C   0  0  0  0  0  2  0  0  0  0  0  0
  182.8280  173.0640  136.4510 C   0  0  1  0  0  0  0  0  0  0  0  0
  183.2120  170.6800  136.3240 O   0  0  0  0  0  1  0  0  0  0  0  0
  183.2700  171.7850  137.1780 C   0  0  0  0  0  2  0  0  0  0  0  0
  182.3850  174.0830  137.4220 N   0  0  0  0  0  2  0  0  0  0  0  0
  182.2410  178.1890  138.1230 C   0  0  1  0  0  3  0  0  0  0  0  0
  181.5000  176.2450  136.6750 C   0  0  0  0  0  2  0  0  0  0  0  0
  181.1250  178.7790  138.8400 N   0  0  0  0  0  1  0  0  0  0  0  0
  183.6420  176.0930  138.0830 C   0  0  0  0  0  2  0  0  0  0  0  0
  182.8480  177.0570  138.9620 C   0  0  0  0  0  2  0  0  0  0  0  0
  181.7850  177.7440  136.7250 C   0  0  0  0  0  2  0  0  0  0  0  0
  182.7630  175.4360  137.0060 C   0  0  1  0  0  3  0  0  0  0  0  0
  181.6390  172.7410  135.5270 C   0  0  0  0  0  2  0  0  0  0  0  0
  180.1070  171.6990  137.2080 O   0  0  0  0  0  1  0  0  0  0  0  0
  179.4260  173.5160  135.9900 O   0  0  0  0  0  0  0  0  0  0  0  0
  180.3220  172.6680  136.2380 C   0  0  0  0  0  0  0  0  0  0  0  0
  187.9070  177.9980  137.1370 C   0  0  2  0  0  3  0  0  0  0  0  0
  189.1730  178.4070  136.3920 C   0  0  0  0  0  1  0  0  0  0  0  0
  189.4200  177.8230  139.1590 C   0  0  0  0  0  3  0  0  0  0  0  0
  187.2420  178.3740  140.8550 C   0  0  0  0  0  0  0  0  0  0  0  0
  188.5350  178.1840  141.4020 C   0  0  0  0  0  0  0  0  0  0  0  0
  189.6100  177.9040  140.5410 C   0  0  0  0  0  3  0  0  0  0  0  0
  188.1420  178.0090  138.6160 C   0  0  0  0  0  0  0  0  0  0  0  0
  187.0680  178.2870  139.4650 C   0  0  0  0  0  3  0  0  0  0  0  0
  186.0610  178.6990  141.6930 C   0  0  0  0  0  0  0  0  0  0  0  0
  185.5470  179.8480  141.6430 O   0  0  0  0  0  0  0  0  0  0  0  0
  185.5040  177.7570  142.5530 O   0  0  0  0  0  1  0  0  0  0  0  0
  188.7280  178.2970  142.7890 O   0  0  0  0  0  0  0  0  0  0  0  0
  189.2310  177.2760  143.6590 C   0  0  1  0  0  3  0  0  0  0  0  0
  189.0770  176.9550  147.5170 C   0  0  0  0  0  2  0  0  0  0  0  0
  187.9060  177.8810  147.8390 C   0  0  0  0  0  2  0  0  0  0  0  0
  186.9820  177.9820  146.6610 C   0  0  0  0  0  0  0  0  0  0  0  0
  188.7820  177.4780  145.0790 C   0  0  0  0  0  0  0  0  0  0  0  0
  189.7620  177.4040  146.2260 C   0  0  0  0  0  2  0  0  0  0  0  0
  185.7740  178.2820  146.8380 O   0  0  0  0  0  0  0  0  0  0  0  0
  187.4960  177.7760  145.2980 C   0  0  0  0  0  3  0  0  0  0  0  0
  188.9780  175.8710  143.1140 C   0  0  0  0  0  2  0  0  0  0  0  0
  190.1920  175.2660  142.7850 O   0  0  0  0  0  1  0  0  0  0  0  0
  2  1  1  0  0  0  0
  2 25  1  0  0  0  0
  3  2  2  0  0  0  0
  5  4  2  0  0  0  0
  5  1  1  0  0  0  0
  6  9  1  6  0  0  0
  7  6  1  0  0  0  0
  7  5  1  1  0  0  0
  8  7  1  0  0  0  0
  8  6  1  0  0  0  0
  9 10  1  0  0  0  0
 10 21  1  6  0  0  0
 10 12  1  0  0  0  0
 10 13  1  0  0  0  0
 11 12  1  0  0  0  0
 14 16  1  1  0  0  0
 14 18  1  0  0  0  0
 15 19  1  0  0  0  0
 15 20  1  0  0  0  0
 17 18  1  0  0  0  0
 19 14  1  0  0  0  0
 20 13  1  1  0  0  0
 20 17  1  0  0  0  0
 21 24  1  0  0  0  0
 23 24  2  0  0  0  0
 24 22  1  0  0  0  0
 25 26  1  6  0  0  0
 25 31  1  0  0  0  0
 27 30  1  0  0  0  0
 28 29  1  0  0  0  0
 28 33  1  0  0  0  0
 29 36  1  0  0  0  0
 30 29  2  0  0  0  0
 31 27  2  0  0  0  0
 31 32  1  0  0  0  0
 32 28  2  0  0  0  0
 33 35  1  0  0  0  0
 34 33  2  0  0  0  0
 36 37  1  0  0  0  0
 37 45  1  6  0  0  0
 37 41  1  0  0  0  0
 38 39  1  0  0  0  0
 40 43  2  0  0  0  0
 40 39  1  0  0  0  0
 41 44  2  0  0  0  0
 41 42  1  0  0  0  0
 42 38  1  0  0  0  0
 44 40  1  0  0  0  0
 46 45  1  0  0  0  0
M  END
>  <MODEL>
4

>  <REMARK>
 VINA RESULT:      -7.7      2.505      5.595
  Name = 
  15 active torsions:
  status: ('A' for Active; 'I' for Inactive)
    1  A    between atoms: N_1  and  C_38
    2  A    between atoms: N_1  and  C_40
    3  A    between atoms: C_3  and  C_26
    4  A    between atoms: C_5  and  C_16
    5  A    between atoms: O_13  and  C_16
    6  A    between atoms: O_13  and  C_30
    7  A    between atoms: C_15  and  C_16
    8  A    between atoms: C_17  and  C_25
    9  A    between atoms: C_17  and  C_38
   10  A    between atoms: C_20  and  C_27
   11  A    between atoms: C_20  and  C_38
   12  A    between atoms: C_23  and  C_24
   13  A    between atoms: C_23  and  C_33
   14  A    between atoms: C_36  and  C_43
   15  A    between atoms: C_38  and  C_41
                            x       y       z     vdW  Elec       q    Type
                         _______ _______ _______ _____ _____    ______ ____

>  <TORSDO>
F 15

$$$$
=
 OpenBabel11062416273D

 46 49  0  0  1  0  0  0  0  0999 V2000
  190.6930  177.4700  138.9440 N   0  0  0  0  0  2  0  0  0  0  0  0
  189.2950  177.1760  138.8020 C   0  0  0  0  0  0  0  0  0  0  0  0
  188.6460  176.6580  139.7510 O   0  0  0  0  0  0  0  0  0  0  0  0
  192.7490  177.4660  140.0120 O   0  0  0  0  0  0  0  0  0  0  0  0
  191.5240  177.1750  140.0720 C   0  0  0  0  0  0  0  0  0  0  0  0
  190.7970  177.5150  142.3760 C   0  0  2  0  0  3  0  0  0  0  0  0
  190.9750  176.5130  141.3020 C   0  0  2  0  0  3  0  0  0  0  0  0
  191.8830  176.6220  142.3730 O   0  0  0  0  0  0  0  0  0  0  0  0
  189.7500  177.0280  143.3670 C   0  0  0  0  0  2  0  0  0  0  0  0
  189.8180  177.7770  144.7120 C   0  0  1  0  0  0  0  0  0  0  0  0
  190.8700  179.8580  144.0720 O   0  0  0  0  0  1  0  0  0  0  0  0
  191.0900  178.6380  144.7200 C   0  0  0  0  0  2  0  0  0  0  0  0
  188.6220  178.6210  144.9020 N   0  0  0  0  0  2  0  0  0  0  0  0
  184.4910  178.2140  145.2810 C   0  0  1  0  0  3  0  0  0  0  0  0
  186.7010  178.6910  146.4260 C   0  0  0  0  0  2  0  0  0  0  0  0
  183.6290  179.3820  145.2730 N   0  0  0  0  0  1  0  0  0  0  0  0
  186.6180  177.3570  144.2340 C   0  0  0  0  0  2  0  0  0  0  0  0
  185.3800  178.2260  144.0300 C   0  0  0  0  0  2  0  0  0  0  0  0
  185.2810  178.1590  146.5980 C   0  0  0  0  0  2  0  0  0  0  0  0
  187.4830  177.8500  145.4060 C   0  0  1  0  0  3  0  0  0  0  0  0
  189.8750  176.7690  145.8750 C   0  0  0  0  0  2  0  0  0  0  0  0
  192.0550  175.5520  145.6960 O   0  0  0  0  0  0  0  0  0  0  0  0
  191.7320  177.1160  147.3390 O   0  0  0  0  0  1  0  0  0  0  0  0
  191.2640  176.4800  146.3590 C   0  0  0  0  0  0  0  0  0  0  0  0
  188.5950  177.4300  137.4910 C   0  0  2  0  0  3  0  0  0  0  0  0
  189.0780  178.6970  136.7920 C   0  0  0  0  0  1  0  0  0  0  0  0
  186.3120  176.4420  137.0230 C   0  0  0  0  0  3  0  0  0  0  0  0
  185.1090  178.4300  138.6120 C   0  0  0  0  0  0  0  0  0  0  0  0
  184.3110  177.4260  138.0100 C   0  0  0  0  0  0  0  0  0  0  0  0
  184.9280  176.4440  137.2160 C   0  0  0  0  0  3  0  0  0  0  0  0
  187.1020  177.4360  137.6150 C   0  0  0  0  0  0  0  0  0  0  0  0
  186.4980  178.4150  138.4060 C   0  0  0  0  0  3  0  0  0  0  0  0
  184.5380  179.4860  139.4850 C   0  0  0  0  0  0  0  0  0  0  0  0
  184.0130  180.5120  138.9750 O   0  0  0  0  0  0  0  0  0  0  0  0
  184.5760  179.3750  140.8720 O   0  0  0  0  0  1  0  0  0  0  0  0
  182.9240  177.4140  138.2310 O   0  0  0  0  0  0  0  0  0  0  0  0
  182.2620  177.0150  139.4370 C   0  0  1  0  0  3  0  0  0  0  0  0
  180.4100  180.4050  139.7330 C   0  0  0  0  0  2  0  0  0  0  0  0
  179.7320  180.2470  141.0920 C   0  0  0  0  0  2  0  0  0  0  0  0
  180.4990  179.2840  141.9490 C   0  0  0  0  0  0  0  0  0  0  0  0
  181.4050  178.1140  139.9970 C   0  0  0  0  0  0  0  0  0  0  0  0
  180.6220  179.0340  139.0900 C   0  0  0  0  0  2  0  0  0  0  0  0
  180.4130  179.3550  143.2010 O   0  0  0  0  0  0  0  0  0  0  0  0
  181.3130  178.2280  141.3270 C   0  0  0  0  0  3  0  0  0  0  0  0
  181.5450  175.6730  139.2900 C   0  0  0  0  0  2  0  0  0  0  0  0
  181.4220  175.3490  137.9370 O   0  0  0  0  0  1  0  0  0  0  0  0
  1  5  1  0  0  0  0
  2  1  1  0  0  0  0
  2  3  2  0  0  0  0
  4  5  2  0  0  0  0
  6  9  1  1  0  0  0
  7  5  1  6  0  0  0
  7  8  1  0  0  0  0
  7  6  1  0  0  0  0
  8  6  1  0  0  0  0
 10  9  1  6  0  0  0
 10 12  1  0  0  0  0
 10 13  1  0  0  0  0
 10 21  1  0  0  0  0
 11 12  1  0  0  0  0
 14 16  1  1  0  0  0
 14 19  1  0  0  0  0
 15 19  1  0  0  0  0
 17 20  1  0  0  0  0
 18 17  1  0  0  0  0
 18 14  1  0  0  0  0
 20 13  1  6  0  0  0
 20 15  1  0  0  0  0
 21 24  1  0  0  0  0
 22 24  2  0  0  0  0
 24 23  1  0  0  0  0
 25 26  1  1  0  0  0
 25 31  1  0  0  0  0
 25  2  1  0  0  0  0
 27 30  2  0  0  0  0
 27 31  1  0  0  0  0
 28 33  1  0  0  0  0
 29 36  1  0  0  0  0
 29 28  2  0  0  0  0
 30 29  1  0  0  0  0
 31 32  2  0  0  0  0
 32 28  1  0  0  0  0
 33 35  1  0  0  0  0
 34 33  2  0  0  0  0
 36 37  1  0  0  0  0
 37 45  1  6  0  0  0
 37 41  1  0  0  0  0
 38 39  1  0  0  0  0
 39 40  1  0  0  0  0
 40 43  2  0  0  0  0
 41 44  2  0  0  0  0
 42 38  1  0  0  0  0
 42 41  1  0  0  0  0
 44 40  1  0  0  0  0
 46 45  1  0  0  0  0
M  END
>  <MODEL>
5

>  <REMARK>
 VINA RESULT:      -7.6      2.635      9.494
  Name = 
  15 active torsions:
  status: ('A' for Active; 'I' for Inactive)
    1  A    between atoms: N_1  and  C_38
    2  A    between atoms: N_1  and  C_40
    3  A    between atoms: C_3  and  C_26
    4  A    between atoms: C_5  and  C_16
    5  A    between atoms: O_13  and  C_16
    6  A    between atoms: O_13  and  C_30
    7  A    between atoms: C_15  and  C_16
    8  A    between atoms: C_17  and  C_25
    9  A    between atoms: C_17  and  C_38
   10  A    between atoms: C_20  and  C_27
   11  A    between atoms: C_20  and  C_38
   12  A    between atoms: C_23  and  C_24
   13  A    between atoms: C_23  and  C_33
   14  A    between atoms: C_36  and  C_43
   15  A    between atoms: C_38  and  C_41
                            x       y       z     vdW  Elec       q    Type
                         _______ _______ _______ _____ _____    ______ ____

>  <TORSDO>
F 15

$$$$
=
 OpenBabel11062416273D

 46 49  0  0  1  0  0  0  0  0999 V2000
  189.2640  176.2130  137.2570 N   0  0  0  0  0  2  0  0  0  0  0  0
  188.2860  177.2130  136.9310 C   0  0  0  0  0  0  0  0  0  0  0  0
  188.1710  178.2550  137.6330 O   0  0  0  0  0  0  0  0  0  0  0  0
  190.9170  175.2230  138.5450 O   0  0  0  0  0  0  0  0  0  0  0  0
  190.1450  176.2070  138.3870 C   0  0  0  0  0  0  0  0  0  0  0  0
  190.3770  176.7850  140.7460 C   0  0  2  0  0  3  0  0  0  0  0  0
  190.1490  177.3260  139.3870 C   0  0  2  0  0  3  0  0  0  0  0  0
  189.0960  177.1700  140.3110 O   0  0  0  0  0  0  0  0  0  0  0  0
  190.9490  177.8740  141.6430 C   0  0  0  0  0  2  0  0  0  0  0  0
  190.5530  177.6880  143.1200 C   0  0  1  0  0  0  0  0  0  0  0  0
  191.3370  179.7410  144.1290 O   0  0  0  0  0  1  0  0  0  0  0  0
  191.6120  178.3760  143.9940 C   0  0  0  0  0  2  0  0  0  0  0  0
  189.2180  178.2610  143.3800 N   0  0  0  0  0  2  0  0  0  0  0  0
  185.9730  177.9090  145.9730 C   0  0  1  0  0  3  0  0  0  0  0  0
  188.4920  178.0170  145.7110 C   0  0  0  0  0  2  0  0  0  0  0  0
  185.4570  179.0700  146.6750 N   0  0  0  0  0  1  0  0  0  0  0  0
  186.9990  177.2660  143.7620 C   0  0  0  0  0  2  0  0  0  0  0  0
  186.0170  178.1990  144.4670 C   0  0  0  0  0  2  0  0  0  0  0  0
  187.3330  177.5060  146.5630 C   0  0  0  0  0  2  0  0  0  0  0  0
  188.4330  177.4280  144.2940 C   0  0  1  0  0  3  0  0  0  0  0  0
  190.4990  176.1880  143.4670 C   0  0  0  0  0  2  0  0  0  0  0  0
  191.6130  176.2650  145.7070 O   0  0  0  0  0  1  0  0  0  0  0  0
  192.4010  174.8710  144.0680 O   0  0  0  0  0  0  0  0  0  0  0  0
  191.5690  175.7480  144.4190 C   0  0  0  0  0  0  0  0  0  0  0  0
  187.3420  177.0020  135.7760 C   0  0  2  0  0  3  0  0  0  0  0  0
  187.2220  178.2240  134.8720 C   0  0  0  0  0  1  0  0  0  0  0  0
  184.8650  177.3690  136.1480 C   0  0  0  0  0  3  0  0  0  0  0  0
  184.5730  174.6860  136.9490 C   0  0  0  0  0  0  0  0  0  0  0  0
  183.4400  175.5350  136.8930 C   0  0  0  0  0  0  0  0  0  0  0  0
  183.6050  176.8740  136.4960 C   0  0  0  0  0  3  0  0  0  0  0  0
  185.9860  176.5310  136.2060 C   0  0  0  0  0  0  0  0  0  0  0  0
  185.8310  175.2000  136.5990 C   0  0  0  0  0  3  0  0  0  0  0  0
  184.4780  173.2560  137.3330 C   0  0  0  0  0  0  0  0  0  0  0  0
  185.2070  172.8000  138.2550 O   0  0  0  0  0  1  0  0  0  0  0  0
  183.6000  172.3900  136.6880 O   0  0  0  0  0  0  0  0  0  0  0  0
  182.1700  175.0260  137.2140 O   0  0  0  0  0  0  0  0  0  0  0  0
  181.5320  175.0890  138.4950 C   0  0  1  0  0  3  0  0  0  0  0  0
  180.8980  178.9100  138.4830 C   0  0  0  0  0  2  0  0  0  0  0  0
  181.1370  179.2490  139.9530 C   0  0  0  0  0  2  0  0  0  0  0  0
  182.0610  178.2440  140.5760 C   0  0  0  0  0  0  0  0  0  0  0  0
  181.3990  176.5020  138.9860 C   0  0  0  0  0  0  0  0  0  0  0  0
  180.4250  177.4630  138.3480 C   0  0  0  0  0  2  0  0  0  0  0  0
  182.7450  178.5630  141.5810 O   0  0  0  0  0  0  0  0  0  0  0  0
  182.1320  176.8750  140.0420 C   0  0  0  0  0  3  0  0  0  0  0  0
  180.2340  174.2840  138.5370 C   0  0  0  0  0  2  0  0  0  0  0  0
  180.4520  173.0070  138.0180 O   0  0  0  0  0  1  0  0  0  0  0  0
  1  5  1  0  0  0  0
  2  1  1  0  0  0  0
  2  3  2  0  0  0  0
  5  4  2  0  0  0  0
  6  9  1  1  0  0  0
  7  5  1  6  0  0  0
  7  8  1  0  0  0  0
  7  6  1  0  0  0  0
  8  6  1  0  0  0  0
 10  9  1  6  0  0  0
 10 13  1  0  0  0  0
 10 21  1  0  0  0  0
 10 12  1  0  0  0  0
 12 11  1  0  0  0  0
 14 19  1  0  0  0  0
 14 16  1  1  0  0  0
 15 19  1  0  0  0  0
 17 20  1  0  0  0  0
 17 18  1  0  0  0  0
 18 14  1  0  0  0  0
 20 13  1  6  0  0  0
 20 15  1  0  0  0  0
 21 24  1  0  0  0  0
 23 24  2  0  0  0  0
 24 22  1  0  0  0  0
 25 26  1  1  0  0  0
 25 31  1  0  0  0  0
 25  2  1  0  0  0  0
 27 31  2  0  0  0  0
 27 30  1  0  0  0  0
 28 33  1  0  0  0  0
 29 28  1  0  0  0  0
 29 36  1  0  0  0  0
 30 29  2  0  0  0  0
 31 32  1  0  0  0  0
 32 28  2  0  0  0  0
 33 34  1  0  0  0  0
 35 33  2  0  0  0  0
 36 37  1  0  0  0  0
 37 45  1  6  0  0  0
 37 41  1  0  0  0  0
 38 39  1  0  0  0  0
 39 40  1  0  0  0  0
 40 43  2  0  0  0  0
 41 44  2  0  0  0  0
 42 38  1  0  0  0  0
 42 41  1  0  0  0  0
 44 40  1  0  0  0  0
 46 45  1  0  0  0  0
M  END
>  <MODEL>
6

>  <REMARK>
 VINA RESULT:      -7.5      2.622      9.453
  Name = 
  15 active torsions:
  status: ('A' for Active; 'I' for Inactive)
    1  A    between atoms: N_1  and  C_38
    2  A    between atoms: N_1  and  C_40
    3  A    between atoms: C_3  and  C_26
    4  A    between atoms: C_5  and  C_16
    5  A    between atoms: O_13  and  C_16
    6  A    between atoms: O_13  and  C_30
    7  A    between atoms: C_15  and  C_16
    8  A    between atoms: C_17  and  C_25
    9  A    between atoms: C_17  and  C_38
   10  A    between atoms: C_20  and  C_27
   11  A    between atoms: C_20  and  C_38
   12  A    between atoms: C_23  and  C_24
   13  A    between atoms: C_23  and  C_33
   14  A    between atoms: C_36  and  C_43
   15  A    between atoms: C_38  and  C_41
                            x       y       z     vdW  Elec       q    Type
                         _______ _______ _______ _____ _____    ______ ____

>  <TORSDO>
F 15

$$$$
=
 OpenBabel11062416273D

 46 49  0  0  1  0  0  0  0  0999 V2000
  183.7920  178.5600  145.3230 N   0  0  0  0  0  2  0  0  0  0  0  0
  183.8250  179.2230  144.0500 C   0  0  0  0  0  0  0  0  0  0  0  0
  184.8940  179.7310  143.6150 O   0  0  0  0  0  0  0  0  0  0  0  0
  184.6530  177.8630  147.3580 O   0  0  0  0  0  0  0  0  0  0  0  0
  184.8680  178.4450  146.2620 C   0  0  0  0  0  0  0  0  0  0  0  0
  187.1580  177.9380  145.5910 C   0  0  2  0  0  3  0  0  0  0  0  0
  186.2250  179.0200  145.9760 C   0  0  2  0  0  3  0  0  0  0  0  0
  187.1800  178.5080  146.8760 O   0  0  0  0  0  0  0  0  0  0  0  0
  188.3020  178.5140  144.7670 C   0  0  0  0  0  2  0  0  0  0  0  0
  188.8180  177.5240  143.7050 C   0  0  1  0  0  0  0  0  0  0  0  0
  188.2760  175.2160  143.2290 O   0  0  0  0  0  1  0  0  0  0  0  0
  187.7210  176.4820  143.4430 C   0  0  0  0  0  2  0  0  0  0  0  0
  189.1680  178.2300  142.4580 N   0  0  0  0  0  2  0  0  0  0  0  0
  188.6390  178.1740  138.3240 C   0  0  1  0  0  3  0  0  0  0  0  0
  187.6230  178.6430  140.5970 C   0  0  0  0  0  2  0  0  0  0  0  0
  188.7860  179.3880  137.5420 N   0  0  0  0  0  1  0  0  0  0  0  0
  189.6080  177.0340  140.3520 C   0  0  0  0  0  2  0  0  0  0  0  0
  189.9000  177.9530  139.1680 C   0  0  0  0  0  2  0  0  0  0  0  0
  187.3460  178.2410  139.1510 C   0  0  0  0  0  2  0  0  0  0  0  0
  188.5360  177.6180  141.2860 C   0  0  1  0  0  3  0  0  0  0  0  0
  190.0860  176.8140  144.2180 C   0  0  0  0  0  2  0  0  0  0  0  0
  191.7940  178.6400  144.3260 O   0  0  0  0  0  1  0  0  0  0  0  0
  192.0720  176.8750  142.8910 O   0  0  0  0  0  0  0  0  0  0  0  0
  191.3630  177.4480  143.7590 C   0  0  0  0  0  0  0  0  0  0  0  0
  182.5620  179.3710  143.2390 C   0  0  2  0  0  3  0  0  0  0  0  0
  181.3070  178.9870  144.0140 C   0  0  0  0  0  1  0  0  0  0  0  0
  183.8260  178.4320  141.2570 C   0  0  0  0  0  3  0  0  0  0  0  0
  181.4400  177.3480  140.2310 C   0  0  0  0  0  0  0  0  0  0  0  0
  182.6640  177.1380  139.5480 C   0  0  0  0  0  0  0  0  0  0  0  0
  183.8450  177.6910  140.0720 C   0  0  0  0  0  3  0  0  0  0  0  0
  182.6170  178.6430  141.9310 C   0  0  0  0  0  0  0  0  0  0  0  0
  181.4380  178.0960  141.4180 C   0  0  0  0  0  3  0  0  0  0  0  0
  180.1550  176.7760  139.7570 C   0  0  0  0  0  0  0  0  0  0  0  0
  179.7930  175.6320  140.1410 O   0  0  0  0  0  1  0  0  0  0  0  0
  179.3310  177.4770  138.8810 O   0  0  0  0  0  0  0  0  0  0  0  0
  182.6830  176.3670  138.3740 O   0  0  0  0  0  0  0  0  0  0  0  0
  183.5980  176.5120  137.2810 C   0  0  1  0  0  3  0  0  0  0  0  0
  184.9520  172.8930  137.5490 C   0  0  0  0  0  2  0  0  0  0  0  0
  186.3440  173.0580  136.9410 C   0  0  0  0  0  2  0  0  0  0  0  0
  186.8180  174.4720  137.1020 C   0  0  0  0  0  0  0  0  0  0  0  0
  184.5280  175.3380  137.1690 C   0  0  0  0  0  0  0  0  0  0  0  0
  183.9990  173.9370  136.9690 C   0  0  0  0  0  2  0  0  0  0  0  0
  188.0500  174.7210  137.1120 O   0  0  0  0  0  0  0  0  0  0  0  0
  185.8450  175.5710  137.1990 C   0  0  0  0  0  3  0  0  0  0  0  0
  182.8910  176.8810  135.9770 C   0  0  0  0  0  2  0  0  0  0  0  0
  181.5600  177.2120  136.2380 O   0  0  0  0  0  1  0  0  0  0  0  0
  1  5  1  0  0  0  0
  2  1  1  0  0  0  0
  3  2  2  0  0  0  0
  5  4  2  0  0  0  0
  6  9  1  6  0  0  0
  6  7  1  0  0  0  0
  6  8  1  0  0  0  0
  7  5  1  1  0  0  0
  7  8  1  0  0  0  0
 10 12  1  6  0  0  0
 10 21  1  0  0  0  0
 10  9  1  0  0  0  0
 11 12  1  0  0  0  0
 13 10  1  0  0  0  0
 14 16  1  1  0  0  0
 14 19  1  0  0  0  0
 14 18  1  0  0  0  0
 15 20  1  0  0  0  0
 17 20  1  0  0  0  0
 18 17  1  0  0  0  0
 19 15  1  0  0  0  0
 20 13  1  1  0  0  0
 23 24  2  0  0  0  0
 24 21  1  0  0  0  0
 24 22  1  0  0  0  0
 25 26  1  1  0  0  0
 25  2  1  0  0  0  0
 27 31  1  0  0  0  0
 28 32  1  0  0  0  0
 29 30  1  0  0  0  0
 29 28  2  0  0  0  0
 30 27  2  0  0  0  0
 31 25  1  0  0  0  0
 32 31  2  0  0  0  0
 33 34  1  0  0  0  0
 33 28  1  0  0  0  0
 35 33  2  0  0  0  0
 36 29  1  0  0  0  0
 37 45  1  6  0  0  0
 37 36  1  0  0  0  0
 39 40  1  0  0  0  0
 39 38  1  0  0  0  0
 40 43  2  0  0  0  0
 40 44  1  0  0  0  0
 41 44  2  0  0  0  0
 41 37  1  0  0  0  0
 42 41  1  0  0  0  0
 42 38  1  0  0  0  0
 45 46  1  0  0  0  0
M  END
>  <MODEL>
7

>  <REMARK>
 VINA RESULT:      -7.5      2.237      7.951
  Name = 
  15 active torsions:
  status: ('A' for Active; 'I' for Inactive)
    1  A    between atoms: N_1  and  C_38
    2  A    between atoms: N_1  and  C_40
    3  A    between atoms: C_3  and  C_26
    4  A    between atoms: C_5  and  C_16
    5  A    between atoms: O_13  and  C_16
    6  A    between atoms: O_13  and  C_30
    7  A    between atoms: C_15  and  C_16
    8  A    between atoms: C_17  and  C_25
    9  A    between atoms: C_17  and  C_38
   10  A    between atoms: C_20  and  C_27
   11  A    between atoms: C_20  and  C_38
   12  A    between atoms: C_23  and  C_24
   13  A    between atoms: C_23  and  C_33
   14  A    between atoms: C_36  and  C_43
   15  A    between atoms: C_38  and  C_41
                            x       y       z     vdW  Elec       q    Type
                         _______ _______ _______ _____ _____    ______ ____

>  <TORSDO>
F 15

$$$$
=
 OpenBabel11062416273D

 46 49  0  0  1  0  0  0  0  0999 V2000
  183.3620  179.1060  141.0690 N   0  0  0  0  0  2  0  0  0  0  0  0
  182.2160  178.5780  141.7540 C   0  0  0  0  0  0  0  0  0  0  0  0
  181.1940  178.2120  141.1130 O   0  0  0  0  0  0  0  0  0  0  0  0
  184.5550  179.8610  139.2320 O   0  0  0  0  0  0  0  0  0  0  0  0
  183.4870  179.3510  139.6630 C   0  0  0  0  0  0  0  0  0  0  0  0
  182.5370  177.6630  138.1790 C   0  0  2  0  0  3  0  0  0  0  0  0
  182.3720  179.0350  138.7080 C   0  0  2  0  0  3  0  0  0  0  0  0
  182.8800  178.7930  137.4160 O   0  0  0  0  0  0  0  0  0  0  0  0
  181.1920  177.1290  137.7080 C   0  0  0  0  0  2  0  0  0  0  0  0
  181.3150  175.7650  137.0010 C   0  0  1  0  0  0  0  0  0  0  0  0
  180.8250  177.1800  135.1020 O   0  0  0  0  0  1  0  0  0  0  0  0
  181.4940  176.0170  135.4960 C   0  0  0  0  0  2  0  0  0  0  0  0
  182.4580  175.0000  137.5350 N   0  0  0  0  0  2  0  0  0  0  0  0
  185.7670  172.7200  136.4290 C   0  0  1  0  0  3  0  0  0  0  0  0
  184.6980  175.0150  136.5350 C   0  0  0  0  0  2  0  0  0  0  0  0
  186.9270  172.6290  137.2970 N   0  0  0  0  0  1  0  0  0  0  0  0
  183.2550  172.8920  136.5450 C   0  0  0  0  0  2  0  0  0  0  0  0
  184.5080  172.3300  137.2140 C   0  0  0  0  0  2  0  0  0  0  0  0
  185.6950  174.1210  135.8030 C   0  0  0  0  0  2  0  0  0  0  0  0
  183.2810  174.4280  136.4670 C   0  0  1  0  0  3  0  0  0  0  0  0
  180.0390  174.9340  137.2330 C   0  0  0  0  0  2  0  0  0  0  0  0
  180.1960  172.6880  138.3250 O   0  0  0  0  0  0  0  0  0  0  0  0
  180.0970  174.5920  139.5970 O   0  0  0  0  0  1  0  0  0  0  0  0
  180.0940  174.0670  138.4530 C   0  0  0  0  0  0  0  0  0  0  0  0
  182.1980  178.5090  143.2600 C   0  0  2  0  0  3  0  0  0  0  0  0
  181.2540  179.5250  143.8930 C   0  0  0  0  0  1  0  0  0  0  0  0
  183.7480  179.0040  145.1990 C   0  0  0  0  0  3  0  0  0  0  0  0
  185.9640  178.2370  143.6420 C   0  0  0  0  0  0  0  0  0  0  0  0
  186.1500  178.6390  144.9880 C   0  0  0  0  0  0  0  0  0  0  0  0
  185.0330  179.0230  145.7490 C   0  0  0  0  0  3  0  0  0  0  0  0
  183.5630  178.6100  143.8680 C   0  0  0  0  0  0  0  0  0  0  0  0
  184.6680  178.2260  143.1040 C   0  0  0  0  0  3  0  0  0  0  0  0
  187.0880  177.7920  142.7810 C   0  0  0  0  0  0  0  0  0  0  0  0
  187.4870  178.5230  141.8340 O   0  0  0  0  0  0  0  0  0  0  0  0
  187.7170  176.5680  142.9880 O   0  0  0  0  0  1  0  0  0  0  0  0
  187.4390  178.6280  145.5470 O   0  0  0  0  0  0  0  0  0  0  0  0
  187.8880  177.7940  146.6220 C   0  0  1  0  0  3  0  0  0  0  0  0
  191.4400  176.3960  147.2850 C   0  0  0  0  0  2  0  0  0  0  0  0
  191.9290  176.1580  145.8580 C   0  0  0  0  0  2  0  0  0  0  0  0
  191.2200  177.0730  144.9040 C   0  0  0  0  0  0  0  0  0  0  0  0
  189.2610  177.2410  146.3660 C   0  0  0  0  0  0  0  0  0  0  0  0
  189.9160  176.2920  147.3410 C   0  0  0  0  0  2  0  0  0  0  0  0
  191.7620  177.3820  143.8130 O   0  0  0  0  0  0  0  0  0  0  0  0
  189.8720  177.5710  145.2220 C   0  0  0  0  0  3  0  0  0  0  0  0
  187.7260  178.4660  147.9850 C   0  0  0  0  0  2  0  0  0  0  0  0
  187.5560  177.4940  148.9730 O   0  0  0  0  0  1  0  0  0  0  0  0
  1  2  1  0  0  0  0
  2 25  1  0  0  0  0
  3  2  2  0  0  0  0
  4  5  2  0  0  0  0
  5  1  1  0  0  0  0
  6  9  1  6  0  0  0
  6  7  1  0  0  0  0
  7  5  1  1  0  0  0
  8  6  1  0  0  0  0
  8  7  1  0  0  0  0
 10 12  1  6  0  0  0
 10 21  1  0  0  0  0
 10 13  1  0  0  0  0
 10  9  1  0  0  0  0
 11 12  1  0  0  0  0
 14 18  1  0  0  0  0
 14 16  1  1  0  0  0
 17 18  1  0  0  0  0
 19 14  1  0  0  0  0
 19 15  1  0  0  0  0
 20 15  1  0  0  0  0
 20 17  1  0  0  0  0
 20 13  1  1  0  0  0
 21 24  1  0  0  0  0
 22 24  2  0  0  0  0
 24 23  1  0  0  0  0
 25 31  1  0  0  0  0
 25 26  1  1  0  0  0
 27 30  1  0  0  0  0
 28 29  1  0  0  0  0
 29 36  1  0  0  0  0
 29 30  2  0  0  0  0
 31 27  2  0  0  0  0
 32 28  2  0  0  0  0
 32 31  1  0  0  0  0
 33 35  1  0  0  0  0
 33 28  1  0  0  0  0
 34 33  2  0  0  0  0
 36 37  1  0  0  0  0
 37 45  1  1  0  0  0
 38 42  1  0  0  0  0
 39 38  1  0  0  0  0
 40 44  1  0  0  0  0
 40 39  1  0  0  0  0
 41 37  1  0  0  0  0
 41 42  1  0  0  0  0
 43 40  2  0  0  0  0
 44 41  2  0  0  0  0
 45 46  1  0  0  0  0
M  END
>  <MODEL>
8

>  <REMARK>
 VINA RESULT:      -7.4      2.366      2.969
  Name = 
  15 active torsions:
  status: ('A' for Active; 'I' for Inactive)
    1  A    between atoms: N_1  and  C_38
    2  A    between atoms: N_1  and  C_40
    3  A    between atoms: C_3  and  C_26
    4  A    between atoms: C_5  and  C_16
    5  A    between atoms: O_13  and  C_16
    6  A    between atoms: O_13  and  C_30
    7  A    between atoms: C_15  and  C_16
    8  A    between atoms: C_17  and  C_25
    9  A    between atoms: C_17  and  C_38
   10  A    between atoms: C_20  and  C_27
   11  A    between atoms: C_20  and  C_38
   12  A    between atoms: C_23  and  C_24
   13  A    between atoms: C_23  and  C_33
   14  A    between atoms: C_36  and  C_43
   15  A    between atoms: C_38  and  C_41
                            x       y       z     vdW  Elec       q    Type
                         _______ _______ _______ _____ _____    ______ ____

>  <TORSDO>
F 15

$$$$
=
 OpenBabel11062416273D

 46 49  0  0  1  0  0  0  0  0999 V2000
  186.8140  177.5060  143.4400 N   0  0  0  0  0  2  0  0  0  0  0  0
  186.0610  178.6700  143.0640 C   0  0  0  0  0  0  0  0  0  0  0  0
  186.4560  179.4180  142.1280 O   0  0  0  0  0  0  0  0  0  0  0  0
  188.6190  176.0540  143.3820 O   0  0  0  0  0  0  0  0  0  0  0  0
  188.0730  177.0850  142.9040 C   0  0  0  0  0  0  0  0  0  0  0  0
  188.5930  177.1450  140.5210 C   0  0  2  0  0  3  0  0  0  0  0  0
  188.7580  177.8520  141.8100 C   0  0  2  0  0  3  0  0  0  0  0  0
  189.7970  177.0890  141.2440 O   0  0  0  0  0  0  0  0  0  0  0  0
  188.7440  178.1310  139.3710 C   0  0  0  0  0  2  0  0  0  0  0  0
  188.6720  177.4440  137.9930 C   0  0  1  0  0  0  0  0  0  0  0  0
  189.0760  179.7610  137.4300 O   0  0  0  0  0  1  0  0  0  0  0  0
  189.1130  178.4570  136.9250 C   0  0  0  0  0  2  0  0  0  0  0  0
  189.5370  176.2490  137.9580 N   0  0  0  0  0  2  0  0  0  0  0  0
  193.4190  174.9630  137.1500 C   0  0  1  0  0  3  0  0  0  0  0  0
  191.9060  176.4180  138.5710 C   0  0  0  0  0  2  0  0  0  0  0  0
  194.0220  173.8970  137.9290 N   0  0  0  0  0  1  0  0  0  0  0  0
  191.1850  175.6730  136.2220 C   0  0  0  0  0  2  0  0  0  0  0  0
  192.0740  174.4860  136.5850 C   0  0  0  0  0  2  0  0  0  0  0  0
  193.3120  176.2350  138.0050 C   0  0  0  0  0  2  0  0  0  0  0  0
  190.8740  176.5560  137.4430 C   0  0  1  0  0  3  0  0  0  0  0  0
  187.2280  176.9920  137.7040 C   0  0  0  0  0  2  0  0  0  0  0  0
  186.8290  174.5720  137.2100 O   0  0  0  0  0  1  0  0  0  0  0  0
  187.2800  176.0430  135.5120 O   0  0  0  0  0  0  0  0  0  0  0  0
  187.1330  175.8450  136.7460 C   0  0  0  0  0  0  0  0  0  0  0  0
  184.8150  179.0460  143.8250 C   0  0  2  0  0  3  0  0  0  0  0  0
  184.6590  178.2780  145.1320 C   0  0  0  0  0  1  0  0  0  0  0  0
  183.6190  178.8430  141.6030 C   0  0  0  0  0  3  0  0  0  0  0  0
  181.1440  178.6800  142.9330 C   0  0  0  0  0  0  0  0  0  0  0  0
  181.1950  178.5870  141.5200 C   0  0  0  0  0  0  0  0  0  0  0  0
  182.4390  178.6760  140.8720 C   0  0  0  0  0  3  0  0  0  0  0  0
  183.5700  178.9370  142.9990 C   0  0  0  0  0  0  0  0  0  0  0  0
  182.3380  178.8490  143.6520 C   0  0  0  0  0  3  0  0  0  0  0  0
  179.8740  178.5700  143.6940 C   0  0  0  0  0  0  0  0  0  0  0  0
  179.6180  177.5230  144.3470 O   0  0  0  0  0  1  0  0  0  0  0  0
  178.9420  179.6030  143.6970 O   0  0  0  0  0  0  0  0  0  0  0  0
  180.0110  178.3900  140.7920 O   0  0  0  0  0  0  0  0  0  0  0  0
  179.7690  177.3520  139.8340 C   0  0  1  0  0  3  0  0  0  0  0  0
  182.4960  177.4840  137.0850 C   0  0  0  0  0  2  0  0  0  0  0  0
  181.7380  178.1820  135.9580 C   0  0  0  0  0  2  0  0  0  0  0  0
  180.6370  179.0320  136.5190 C   0  0  0  0  0  0  0  0  0  0  0  0
  180.4410  177.6340  138.5200 C   0  0  0  0  0  0  0  0  0  0  0  0
  181.5190  176.7240  137.9820 C   0  0  0  0  0  2  0  0  0  0  0  0
  180.2110  180.0170  135.8630 O   0  0  0  0  0  0  0  0  0  0  0  0
  180.0230  178.6890  137.8110 C   0  0  0  0  0  3  0  0  0  0  0  0
  180.0540  175.9610  140.3990 C   0  0  0  0  0  2  0  0  0  0  0  0
  179.1760  175.6890  141.4500 O   0  0  0  0  0  1  0  0  0  0  0  0
  2  1  1  0  0  0  0
  2 25  1  0  0  0  0
  3  2  2  0  0  0  0
  5  4  2  0  0  0  0
  5  1  1  0  0  0  0
  6  9  1  6  0  0  0
  6  8  1  0  0  0  0
  6  7  1  0  0  0  0
  7  5  1  1  0  0  0
  8  7  1  0  0  0  0
 10 12  1  6  0  0  0
 10  9  1  0  0  0  0
 12 11  1  0  0  0  0
 13 10  1  0  0  0  0
 14 16  1  1  0  0  0
 14 19  1  0  0  0  0
 17 18  1  0  0  0  0
 17 20  1  0  0  0  0
 18 14  1  0  0  0  0
 19 15  1  0  0  0  0
 20 13  1  1  0  0  0
 20 15  1  0  0  0  0
 21 10  1  0  0  0  0
 23 24  2  0  0  0  0
 24 22  1  0  0  0  0
 24 21  1  0  0  0  0
 25 26  1  1  0  0  0
 27 31  1  0  0  0  0
 28 32  1  0  0  0  0
 28 33  1  0  0  0  0
 29 28  2  0  0  0  0
 30 29  1  0  0  0  0
 30 27  2  0  0  0  0
 31 32  2  0  0  0  0
 31 25  1  0  0  0  0
 33 35  2  0  0  0  0
 33 34  1  0  0  0  0
 36 29  1  0  0  0  0
 37 45  1  1  0  0  0
 37 36  1  0  0  0  0
 38 42  1  0  0  0  0
 39 40  1  0  0  0  0
 39 38  1  0  0  0  0
 40 44  1  0  0  0  0
 41 37  1  0  0  0  0
 42 41  1  0  0  0  0
 43 40  2  0  0  0  0
 44 41  2  0  0  0  0
 45 46  1  0  0  0  0
M  END
>  <MODEL>
9

>  <REMARK>
 VINA RESULT:      -7.4      2.931      7.611
  Name = 
  15 active torsions:
  status: ('A' for Active; 'I' for Inactive)
    1  A    between atoms: N_1  and  C_38
    2  A    between atoms: N_1  and  C_40
    3  A    between atoms: C_3  and  C_26
    4  A    between atoms: C_5  and  C_16
    5  A    between atoms: O_13  and  C_16
    6  A    between atoms: O_13  and  C_30
    7  A    between atoms: C_15  and  C_16
    8  A    between atoms: C_17  and  C_25
    9  A    between atoms: C_17  and  C_38
   10  A    between atoms: C_20  and  C_27
   11  A    between atoms: C_20  and  C_38
   12  A    between atoms: C_23  and  C_24
   13  A    between atoms: C_23  and  C_33
   14  A    between atoms: C_36  and  C_43
   15  A    between atoms: C_38  and  C_41
                            x       y       z     vdW  Elec       q    Type
                         _______ _______ _______ _____ _____    ______ ____

>  <TORSDO>
F 15

$$$$
