=
 OpenBabel11062415383D

 34 37  0  0  1  0  0  0  0  0999 V2000
  188.7830  178.5080  139.5230 C   0  0  0  0  0  2  0  0  0  0  0  0
  191.1720  176.0360  138.1960 C   0  0  1  0  0  3  0  0  0  0  0  0
  187.9420  177.6910  138.5370 C   0  0  0  0  0  2  0  0  0  0  0  0
  187.7110  174.9660  137.2730 O   0  0  0  0  0  1  0  0  0  0  0  0
  190.4580  173.8430  137.3950 O   0  0  0  0  0  0  0  0  0  0  0  0
  190.1520  177.9690  139.5570 N   0  0  0  0  0  0  0  0  0  0  0  0
  188.8940  175.6540  137.5090 C   0  0  2  0  0  3  0  0  0  0  0  0
  190.3270  177.3250  138.2440 C   0  0  2  0  0  3  0  0  0  0  0  0
  190.2020  175.0530  137.6260 C   0  0  0  0  0  0  0  0  0  0  0  0
  188.9740  176.9300  137.8240 C   0  0  2  0  0  3  0  0  0  0  0  0
  192.3380  176.2340  137.2450 C   0  0  0  0  0  2  0  0  0  0  0  0
  195.9380  175.2760  140.1760 O   0  0  0  0  0  0  0  0  0  0  0  0
  193.5360  175.5100  137.7530 C   0  0  0  0  0  0  0  0  0  0  0  0
  195.2340  175.0640  139.1530 C   0  0  0  0  0  0  0  0  0  0  0  0
  194.1610  175.9180  138.8040 N   0  0  0  0  0  0  0  0  0  0  0  0
  195.4590  173.9030  138.2480 C   0  0  1  0  0  3  0  0  0  0  0  0
  194.1110  173.9810  137.0120 S   0  0  0  0  0  0  0  0  0  0  0  0
  196.7920  174.0010  137.5670 C   0  0  0  0  0  0  0  0  0  0  0  0
  197.2120  175.0760  137.1620 O   0  0  0  0  0  0  0  0  0  0  0  0
  197.6110  172.7700  137.3830 C   0  0  0  0  0  1  0  0  0  0  0  0
  190.1890  176.7970  140.8960 S   0  0  0  0  0  0  0  0  0  0  0  0
  189.2020  177.8750  141.9820 C   0  0  1  0  0  3  0  0  0  0  0  0
  187.9120  177.1700  142.3800 C   0  0  0  0  0  2  0  0  0  0  0  0
  186.8220  178.0410  142.2980 O   0  0  0  0  0  1  0  0  0  0  0  0
  189.9760  178.2280  143.1700 N   0  0  0  0  0  2  0  0  0  0  0  0
  189.9690  177.1450  144.1590 C   0  0  1  0  0  3  0  0  0  0  0  0
  191.2910  176.3820  144.2220 C   0  0  0  0  0  1  0  0  0  0  0  0
  190.0680  177.6860  147.9740 C   0  0  0  0  0  2  0  0  0  0  0  0
  187.6550  177.4730  147.9200 O   0  0  0  0  0  0  0  0  0  0  0  0
  187.2050  178.0040  146.7050 C   0  0  0  0  0  2  0  0  0  0  0  0
  187.8890  177.3060  145.5320 C   0  0  0  0  0  2  0  0  0  0  0  0
  188.7070  178.3130  148.3040 C   0  0  0  0  0  2  0  0  0  0  0  0
  190.0690  176.8490  146.6920 C   0  0  0  0  0  2  0  0  0  0  0  0
  189.3950  177.5660  145.5180 C   0  0  1  0  0  3  0  0  0  0  0  0
  1  6  1  0  0  0  0
  2 11  1  6  0  0  0
  2  8  1  0  0  0  0
  3  1  1  0  0  0  0
  5  9  2  0  0  0  0
  6 21  1  0  0  0  0
  7  4  1  1  0  0  0
  7  9  1  0  0  0  0
  7 10  1  0  0  0  0
  8  6  1  1  0  0  0
  9  2  1  0  0  0  0
 10  8  1  0  0  0  0
 10  3  1  1  0  0  0
 11 13  1  0  0  0  0
 13 15  2  0  0  0  0
 14 12  2  0  0  0  0
 15 14  1  0  0  0  0
 16 18  1  6  0  0  0
 16 14  1  0  0  0  0
 17 13  1  0  0  0  0
 17 16  1  0  0  0  0
 19 18  2  0  0  0  0
 20 18  1  0  0  0  0
 21 22  1  0  0  0  0
 22 23  1  1  0  0  0
 22 25  1  0  0  0  0
 24 23  1  0  0  0  0
 25 26  1  0  0  0  0
 26 27  1  1  0  0  0
 28 32  1  0  0  0  0
 29 32  1  0  0  0  0
 30 29  1  0  0  0  0
 31 30  1  0  0  0  0
 33 28  1  0  0  0  0
 34 26  1  6  0  0  0
 34 31  1  0  0  0  0
 34 33  1  0  0  0  0
M  END
>  <MODEL>
1

>  <REMARK>
 VINA RESULT:      -7.9      0.000      0.000
  Name = 
  9 active torsions:
  status: ('A' for Active; 'I' for Inactive)
    1  A    between atoms: C_1  and  N_14
    2  A    between atoms: C_1  and  C_33
    3  A    between atoms: C_6  and  C_11
    4  A    between atoms: C_7  and  C_26
    5  A    between atoms: C_9  and  C_31
    6  A    between atoms: C_11  and  C_16
    7  A    between atoms: N_14  and  C_26
    8  A    between atoms: S_19  and  N_20
    9  A    between atoms: S_19  and  C_26
                            x       y       z     vdW  Elec       q    Type
                         _______ _______ _______ _____ _____    ______ ____

>  <TORSDO>
F 9

$$$$
=
 OpenBabel11062415383D

 34 37  0  0  1  0  0  0  0  0999 V2000
  190.7270  175.7820  138.3960 C   0  0  0  0  0  2  0  0  0  0  0  0
  187.5070  177.2050  137.3050 C   0  0  1  0  0  3  0  0  0  0  0  0
  190.9260  176.0100  136.8940 C   0  0  0  0  0  2  0  0  0  0  0  0
  190.0260  177.7350  134.5940 O   0  0  0  0  0  1  0  0  0  0  0  0
  187.3370  178.7120  135.3920 O   0  0  0  0  0  0  0  0  0  0  0  0
  189.3810  176.2380  138.7820 N   0  0  0  0  0  0  0  0  0  0  0  0
  189.2120  177.2350  135.6010 C   0  0  2  0  0  3  0  0  0  0  0  0
  188.5880  176.1310  137.5450 C   0  0  2  0  0  3  0  0  0  0  0  0
  187.9370  177.7870  135.9980 C   0  0  0  0  0  0  0  0  0  0  0  0
  189.5560  176.2890  136.4500 C   0  0  2  0  0  3  0  0  0  0  0  0
  186.1540  176.5320  137.1590 C   0  0  0  0  0  2  0  0  0  0  0  0
  184.3040  180.3440  139.2840 O   0  0  0  0  0  0  0  0  0  0  0  0
  185.1000  177.3710  137.7950 C   0  0  0  0  0  0  0  0  0  0  0  0
  184.2350  179.1840  138.7950 C   0  0  0  0  0  0  0  0  0  0  0  0
  185.3810  178.5260  138.2910 N   0  0  0  0  0  0  0  0  0  0  0  0
  182.9560  178.4290  138.6940 C   0  0  1  0  0  3  0  0  0  0  0  0
  183.3740  176.8820  137.8080 S   0  0  0  0  0  0  0  0  0  0  0  0
  182.4060  178.1150  140.0530 C   0  0  0  0  0  0  0  0  0  0  0  0
  182.8970  177.2290  140.7380 O   0  0  0  0  0  0  0  0  0  0  0  0
  181.2460  178.8930  140.5710 C   0  0  0  0  0  1  0  0  0  0  0  0
  189.5670  177.9230  139.3240 S   0  0  0  0  0  0  0  0  0  0  0  0
  189.9270  177.4240  141.0370 C   0  0  1  0  0  3  0  0  0  0  0  0
  191.3830  177.7210  141.3700 C   0  0  0  0  0  2  0  0  0  0  0  0
  191.5650  177.8370  142.7510 O   0  0  0  0  0  1  0  0  0  0  0  0
  189.0400  178.1310  141.9590 N   0  0  0  0  0  2  0  0  0  0  0  0
  188.0360  177.2320  142.5360 C   0  0  1  0  0  3  0  0  0  0  0  0
  188.6430  175.9800  143.1650 C   0  0  0  0  0  1  0  0  0  0  0  0
  186.2870  178.1700  145.8410 C   0  0  0  0  0  2  0  0  0  0  0  0
  184.3270  178.6460  144.5000 O   0  0  0  0  0  0  0  0  0  0  0  0
  184.7630  179.1350  143.2620 C   0  0  0  0  0  2  0  0  0  0  0  0
  185.7090  178.1380  142.5970 C   0  0  0  0  0  2  0  0  0  0  0  0
  185.2200  179.1920  145.4290 C   0  0  0  0  0  2  0  0  0  0  0  0
  186.7040  177.2210  144.7140 C   0  0  0  0  0  2  0  0  0  0  0  0
  186.9960  177.9560  143.4010 C   0  0  1  0  0  3  0  0  0  0  0  0
  1  6  1  0  0  0  0
  2 11  1  6  0  0  0
  2  8  1  0  0  0  0
  3  1  1  0  0  0  0
  5  9  2  0  0  0  0
  6 21  1  0  0  0  0
  7  4  1  1  0  0  0
  7  9  1  0  0  0  0
  7 10  1  0  0  0  0
  8  6  1  1  0  0  0
  9  2  1  0  0  0  0
 10  3  1  1  0  0  0
 10  8  1  0  0  0  0
 11 13  1  0  0  0  0
 13 17  1  0  0  0  0
 13 15  2  0  0  0  0
 14 12  2  0  0  0  0
 15 14  1  0  0  0  0
 16 14  1  0  0  0  0
 16 18  1  1  0  0  0
 17 16  1  0  0  0  0
 18 20  1  0  0  0  0
 18 19  2  0  0  0  0
 21 22  1  0  0  0  0
 22 23  1  1  0  0  0
 22 25  1  0  0  0  0
 23 24  1  0  0  0  0
 25 26  1  0  0  0  0
 26 27  1  1  0  0  0
 29 32  1  0  0  0  0
 30 29  1  0  0  0  0
 31 30  1  0  0  0  0
 31 34  1  0  0  0  0
 32 28  1  0  0  0  0
 33 28  1  0  0  0  0
 34 26  1  6  0  0  0
 34 33  1  0  0  0  0
M  END
>  <MODEL>
2

>  <REMARK>
 VINA RESULT:      -7.8      3.777      7.440
  Name = 
  9 active torsions:
  status: ('A' for Active; 'I' for Inactive)
    1  A    between atoms: C_1  and  N_14
    2  A    between atoms: C_1  and  C_33
    3  A    between atoms: C_6  and  C_11
    4  A    between atoms: C_7  and  C_26
    5  A    between atoms: C_9  and  C_31
    6  A    between atoms: C_11  and  C_16
    7  A    between atoms: N_14  and  C_26
    8  A    between atoms: S_19  and  N_20
    9  A    between atoms: S_19  and  C_26
                            x       y       z     vdW  Elec       q    Type
                         _______ _______ _______ _____ _____    ______ ____

>  <TORSDO>
F 9

$$$$
=
 OpenBabel11062415383D

 34 37  0  0  1  0  0  0  0  0999 V2000
  188.4670  178.4130  140.6940 C   0  0  0  0  0  2  0  0  0  0  0  0
  190.9160  176.4070  138.8080 C   0  0  1  0  0  3  0  0  0  0  0  0
  187.6670  177.9150  139.4860 C   0  0  0  0  0  2  0  0  0  0  0  0
  187.4970  175.6630  137.4910 O   0  0  0  0  0  1  0  0  0  0  0  0
  190.2440  174.5360  137.3900 O   0  0  0  0  0  0  0  0  0  0  0  0
  189.8360  177.8790  140.6240 N   0  0  0  0  0  0  0  0  0  0  0  0
  188.6670  176.2500  137.9560 C   0  0  2  0  0  3  0  0  0  0  0  0
  190.0630  177.6340  139.1890 C   0  0  2  0  0  3  0  0  0  0  0  0
  189.9730  175.6320  137.9460 C   0  0  0  0  0  0  0  0  0  0  0  0
  188.7290  177.3820  138.6250 C   0  0  2  0  0  3  0  0  0  0  0  0
  192.1160  176.8620  137.9960 C   0  0  0  0  0  2  0  0  0  0  0  0
  195.9580  175.3920  140.3500 O   0  0  0  0  0  0  0  0  0  0  0  0
  193.2900  175.9970  138.2990 C   0  0  0  0  0  0  0  0  0  0  0  0
  195.1050  175.3090  139.4260 C   0  0  0  0  0  0  0  0  0  0  0  0
  194.0890  176.2810  139.2700 N   0  0  0  0  0  0  0  0  0  0  0  0
  195.0860  174.1870  138.4480 C   0  0  1  0  0  3  0  0  0  0  0  0
  193.6000  174.4660  137.4170 S   0  0  0  0  0  0  0  0  0  0  0  0
  196.3180  174.1960  137.5930 C   0  0  0  0  0  0  0  0  0  0  0  0
  196.5950  175.1680  136.9030 O   0  0  0  0  0  0  0  0  0  0  0  0
  197.2130  173.0050  137.5860 C   0  0  0  0  0  1  0  0  0  0  0  0
  189.8300  176.3740  141.5750 S   0  0  0  0  0  0  0  0  0  0  0  0
  190.1290  177.2580  143.1380 C   0  0  1  0  0  3  0  0  0  0  0  0
  191.2590  178.2630  142.9590 C   0  0  0  0  0  2  0  0  0  0  0  0
  191.1000  179.3500  143.8230 O   0  0  0  0  0  1  0  0  0  0  0  0
  188.9070  177.9370  143.5670 N   0  0  0  0  0  2  0  0  0  0  0  0
  188.2290  177.1980  144.6370 C   0  0  1  0  0  3  0  0  0  0  0  0
  189.0470  177.1200  145.9240 C   0  0  0  0  0  1  0  0  0  0  0  0
  184.7530  178.3640  143.4470 C   0  0  0  0  0  2  0  0  0  0  0  0
  184.4490  179.2570  145.6790 O   0  0  0  0  0  0  0  0  0  0  0  0
  185.1260  178.4180  146.5730 C   0  0  0  0  0  2  0  0  0  0  0  0
  186.5960  178.2920  146.1780 C   0  0  0  0  0  2  0  0  0  0  0  0
  183.9030  178.3900  144.7250 C   0  0  0  0  0  2  0  0  0  0  0  0
  186.2550  178.5180  143.6990 C   0  0  0  0  0  2  0  0  0  0  0  0
  186.7620  177.6060  144.8220 C   0  0  1  0  0  3  0  0  0  0  0  0
  2 11  1  6  0  0  0
  2  8  1  0  0  0  0
  3  1  1  0  0  0  0
  5  9  2  0  0  0  0
  6  1  1  0  0  0  0
  6 21  1  0  0  0  0
  7  4  1  1  0  0  0
  7 10  1  0  0  0  0
  8  6  1  1  0  0  0
  9  7  1  0  0  0  0
  9  2  1  0  0  0  0
 10  8  1  0  0  0  0
 10  3  1  1  0  0  0
 11 13  1  0  0  0  0
 13 15  2  0  0  0  0
 14 12  2  0  0  0  0
 15 14  1  0  0  0  0
 16 18  1  6  0  0  0
 16 14  1  0  0  0  0
 17 13  1  0  0  0  0
 17 16  1  0  0  0  0
 19 18  2  0  0  0  0
 20 18  1  0  0  0  0
 21 22  1  0  0  0  0
 22 23  1  6  0  0  0
 22 25  1  0  0  0  0
 23 24  1  0  0  0  0
 25 26  1  0  0  0  0
 26 27  1  1  0  0  0
 28 33  1  0  0  0  0
 28 32  1  0  0  0  0
 29 30  1  0  0  0  0
 31 30  1  0  0  0  0
 32 29  1  0  0  0  0
 33 34  1  0  0  0  0
 34 26  1  6  0  0  0
 34 31  1  0  0  0  0
M  END
>  <MODEL>
3

>  <REMARK>
 VINA RESULT:      -7.6      1.741      2.479
  Name = 
  9 active torsions:
  status: ('A' for Active; 'I' for Inactive)
    1  A    between atoms: C_1  and  N_14
    2  A    between atoms: C_1  and  C_33
    3  A    between atoms: C_6  and  C_11
    4  A    between atoms: C_7  and  C_26
    5  A    between atoms: C_9  and  C_31
    6  A    between atoms: C_11  and  C_16
    7  A    between atoms: N_14  and  C_26
    8  A    between atoms: S_19  and  N_20
    9  A    between atoms: S_19  and  C_26
                            x       y       z     vdW  Elec       q    Type
                         _______ _______ _______ _____ _____    ______ ____

>  <TORSDO>
F 9

$$$$
=
 OpenBabel11062415383D

 34 37  0  0  1  0  0  0  0  0999 V2000
  187.0870  178.2520  135.7480 C   0  0  0  0  0  2  0  0  0  0  0  0
  188.9940  177.3280  138.7630 C   0  0  1  0  0  3  0  0  0  0  0  0
  188.3710  177.6360  135.1840 C   0  0  0  0  0  2  0  0  0  0  0  0
  190.5440  175.6440  135.8080 O   0  0  0  0  0  1  0  0  0  0  0  0
  190.5890  175.4800  138.7730 O   0  0  0  0  0  0  0  0  0  0  0  0
  187.1270  178.1990  137.2180 N   0  0  0  0  0  0  0  0  0  0  0  0
  189.9730  176.5320  136.7100 C   0  0  2  0  0  3  0  0  0  0  0  0
  188.5630  178.1740  137.5470 C   0  0  2  0  0  3  0  0  0  0  0  0
  189.9630  176.3740  138.1460 C   0  0  0  0  0  0  0  0  0  0  0  0
  189.2150  177.5570  136.3820 C   0  0  2  0  0  3  0  0  0  0  0  0
  189.7030  178.2190  139.7670 C   0  0  0  0  0  2  0  0  0  0  0  0
  187.7840  176.0890  143.5410 O   0  0  0  0  0  0  0  0  0  0  0  0
  189.6710  177.5890  141.1160 C   0  0  0  0  0  0  0  0  0  0  0  0
  188.7500  176.5750  142.8950 C   0  0  0  0  0  0  0  0  0  0  0  0
  188.5600  177.1960  141.6380 N   0  0  0  0  0  0  0  0  0  0  0  0
  190.1550  176.5210  143.3860 C   0  0  1  0  0  3  0  0  0  0  0  0
  191.1680  177.2370  142.0400 S   0  0  0  0  0  0  0  0  0  0  0  0
  190.3180  177.3260  144.6410 C   0  0  0  0  0  0  0  0  0  0  0  0
  189.6950  178.3650  144.8050 O   0  0  0  0  0  0  0  0  0  0  0  0
  191.2530  176.8500  145.6980 C   0  0  0  0  0  1  0  0  0  0  0  0
  186.3000  176.6920  137.6810 S   0  0  0  0  0  0  0  0  0  0  0  0
  184.6960  177.5310  137.8770 C   0  0  1  0  0  3  0  0  0  0  0  0
  183.6240  176.7930  137.0860 C   0  0  0  0  0  2  0  0  0  0  0  0
  182.5560  176.4310  137.9120 O   0  0  0  0  0  1  0  0  0  0  0  0
  184.3350  177.5880  139.2930 N   0  0  0  0  0  2  0  0  0  0  0  0
  184.4120  178.9570  139.8120 C   0  0  1  0  0  3  0  0  0  0  0  0
  183.6780  179.9720  138.9380 C   0  0  0  0  0  1  0  0  0  0  0  0
  185.2790  178.7630  143.5630 C   0  0  0  0  0  2  0  0  0  0  0  0
  182.9210  178.3480  143.9380 O   0  0  0  0  0  0  0  0  0  0  0  0
  182.2020  179.0590  142.9690 C   0  0  0  0  0  2  0  0  0  0  0  0
  182.6590  178.6640  141.5670 C   0  0  0  0  0  2  0  0  0  0  0  0
  183.9880  179.1900  144.2740 C   0  0  0  0  0  2  0  0  0  0  0  0
  185.0540  178.1900  142.1610 C   0  0  0  0  0  2  0  0  0  0  0  0
  184.1150  179.0560  141.3140 C   0  0  1  0  0  3  0  0  0  0  0  0
  1  6  1  0  0  0  0
  2 11  1  1  0  0  0
  3  1  1  0  0  0  0
  6 21  1  0  0  0  0
  7  4  1  6  0  0  0
  7  9  1  0  0  0  0
  8  6  1  6  0  0  0
  8  2  1  0  0  0  0
  9  2  1  0  0  0  0
  9  5  2  0  0  0  0
 10  3  1  6  0  0  0
 10  7  1  0  0  0  0
 10  8  1  0  0  0  0
 11 13  1  0  0  0  0
 13 15  2  0  0  0  0
 13 17  1  0  0  0  0
 14 16  1  0  0  0  0
 14 12  2  0  0  0  0
 15 14  1  0  0  0  0
 16 18  1  1  0  0  0
 17 16  1  0  0  0  0
 18 19  2  0  0  0  0
 18 20  1  0  0  0  0
 21 22  1  0  0  0  0
 22 23  1  6  0  0  0
 22 25  1  0  0  0  0
 23 24  1  0  0  0  0
 25 26  1  0  0  0  0
 26 27  1  6  0  0  0
 28 32  1  0  0  0  0
 29 32  1  0  0  0  0
 30 29  1  0  0  0  0
 31 30  1  0  0  0  0
 33 28  1  0  0  0  0
 34 26  1  6  0  0  0
 34 31  1  0  0  0  0
 34 33  1  0  0  0  0
M  END
>  <MODEL>
4

>  <REMARK>
 VINA RESULT:      -7.4      3.788      6.449
  Name = 
  9 active torsions:
  status: ('A' for Active; 'I' for Inactive)
    1  A    between atoms: C_1  and  N_14
    2  A    between atoms: C_1  and  C_33
    3  A    between atoms: C_6  and  C_11
    4  A    between atoms: C_7  and  C_26
    5  A    between atoms: C_9  and  C_31
    6  A    between atoms: C_11  and  C_16
    7  A    between atoms: N_14  and  C_26
    8  A    between atoms: S_19  and  N_20
    9  A    between atoms: S_19  and  C_26
                            x       y       z     vdW  Elec       q    Type
                         _______ _______ _______ _____ _____    ______ ____

>  <TORSDO>
F 9

$$$$
=
 OpenBabel11062415383D

 34 37  0  0  1  0  0  0  0  0999 V2000
  187.7050  179.0040  136.6660 C   0  0  0  0  0  2  0  0  0  0  0  0
  189.7730  177.0310  138.9920 C   0  0  1  0  0  3  0  0  0  0  0  0
  188.6620  178.2470  135.7400 C   0  0  0  0  0  2  0  0  0  0  0  0
  190.2910  175.7210  135.5300 O   0  0  0  0  0  1  0  0  0  0  0  0
  190.7890  174.9090  138.3430 O   0  0  0  0  0  0  0  0  0  0  0  0
  187.9760  178.6240  138.0610 N   0  0  0  0  0  0  0  0  0  0  0  0
  190.1400  176.4980  136.6710 C   0  0  2  0  0  3  0  0  0  0  0  0
  189.3860  178.1970  138.0590 C   0  0  2  0  0  3  0  0  0  0  0  0
  190.3310  176.0370  138.0270 C   0  0  0  0  0  0  0  0  0  0  0  0
  189.6420  177.7160  136.6940 C   0  0  2  0  0  3  0  0  0  0  0  0
  190.8540  177.4940  139.9520 C   0  0  0  0  0  2  0  0  0  0  0  0
  188.0430  176.0030  143.4650 O   0  0  0  0  0  0  0  0  0  0  0  0
  190.4730  177.1470  141.3500 C   0  0  0  0  0  0  0  0  0  0  0  0
  189.1330  176.4330  143.0030 C   0  0  0  0  0  0  0  0  0  0  0  0
  189.2750  176.7690  141.6360 N   0  0  0  0  0  0  0  0  0  0  0  0
  190.3500  176.6040  143.8430 C   0  0  1  0  0  3  0  0  0  0  0  0
  191.6710  177.1230  142.6850 S   0  0  0  0  0  0  0  0  0  0  0  0
  190.1390  177.6560  144.8910 C   0  0  0  0  0  0  0  0  0  0  0  0
  190.2400  178.8440  144.6170 O   0  0  0  0  0  0  0  0  0  0  0  0
  189.8020  177.2450  146.2820 C   0  0  0  0  0  1  0  0  0  0  0  0
  186.8640  177.2840  138.4340 S   0  0  0  0  0  0  0  0  0  0  0  0
  185.3900  178.3210  138.1750 C   0  0  1  0  0  3  0  0  0  0  0  0
  184.1660  177.4400  137.9610 C   0  0  0  0  0  2  0  0  0  0  0  0
  183.7540  177.4760  136.6260 O   0  0  0  0  0  1  0  0  0  0  0  0
  185.1900  179.1980  139.3270 N   0  0  0  0  0  2  0  0  0  0  0  0
  185.2140  178.4470  140.5860 C   0  0  1  0  0  3  0  0  0  0  0  0
  186.4570  178.7280  141.4280 C   0  0  0  0  0  1  0  0  0  0  0  0
  181.3960  178.8610  140.9280 C   0  0  0  0  0  2  0  0  0  0  0  0
  181.8200  179.5300  143.2180 O   0  0  0  0  0  0  0  0  0  0  0  0
  182.9360  178.8160  143.6740 C   0  0  0  0  0  2  0  0  0  0  0  0
  184.1320  179.0500  142.7550 C   0  0  0  0  0  2  0  0  0  0  0  0
  181.1210  178.6180  142.4180 C   0  0  0  0  0  2  0  0  0  0  0  0
  182.8210  179.3360  140.6310 C   0  0  0  0  0  2  0  0  0  0  0  0
  183.8850  178.5000  141.3510 C   0  0  1  0  0  3  0  0  0  0  0  0
  1  6  1  0  0  0  0
  2 11  1  1  0  0  0
  3  1  1  0  0  0  0
  6 21  1  0  0  0  0
  7  4  1  1  0  0  0
  7 10  1  0  0  0  0
  7  9  1  0  0  0  0
  8  6  1  6  0  0  0
  8  2  1  0  0  0  0
  9  5  2  0  0  0  0
  9  2  1  0  0  0  0
 10  3  1  6  0  0  0
 10  8  1  0  0  0  0
 11 13  1  0  0  0  0
 13 15  2  0  0  0  0
 13 17  1  0  0  0  0
 14 12  2  0  0  0  0
 14 16  1  0  0  0  0
 15 14  1  0  0  0  0
 16 18  1  1  0  0  0
 17 16  1  0  0  0  0
 18 20  1  0  0  0  0
 19 18  2  0  0  0  0
 22 23  1  1  0  0  0
 22 21  1  0  0  0  0
 22 25  1  0  0  0  0
 24 23  1  0  0  0  0
 25 26  1  0  0  0  0
 26 27  1  1  0  0  0
 28 32  1  0  0  0  0
 29 30  1  0  0  0  0
 31 30  1  0  0  0  0
 32 29  1  0  0  0  0
 33 28  1  0  0  0  0
 33 34  1  0  0  0  0
 34 26  1  6  0  0  0
 34 31  1  0  0  0  0
M  END
>  <MODEL>
5

>  <REMARK>
 VINA RESULT:      -7.4      3.568      6.551
  Name = 
  9 active torsions:
  status: ('A' for Active; 'I' for Inactive)
    1  A    between atoms: C_1  and  N_14
    2  A    between atoms: C_1  and  C_33
    3  A    between atoms: C_6  and  C_11
    4  A    between atoms: C_7  and  C_26
    5  A    between atoms: C_9  and  C_31
    6  A    between atoms: C_11  and  C_16
    7  A    between atoms: N_14  and  C_26
    8  A    between atoms: S_19  and  N_20
    9  A    between atoms: S_19  and  C_26
                            x       y       z     vdW  Elec       q    Type
                         _______ _______ _______ _____ _____    ______ ____

>  <TORSDO>
F 9

$$$$
=
 OpenBabel11062415383D

 34 37  0  0  1  0  0  0  0  0999 V2000
  180.7620  177.1470  138.2980 C   0  0  0  0  0  2  0  0  0  0  0  0
  184.1550  175.9500  137.5040 C   0  0  1  0  0  3  0  0  0  0  0  0
  180.5190  175.7650  137.6830 C   0  0  0  0  0  2  0  0  0  0  0  0
  181.7920  173.0620  137.2920 O   0  0  0  0  0  1  0  0  0  0  0  0
  184.7140  173.5750  137.4500 O   0  0  0  0  0  0  0  0  0  0  0  0
  182.2090  177.4110  138.3440 N   0  0  0  0  0  0  0  0  0  0  0  0
  182.4400  174.2860  137.1950 C   0  0  2  0  0  3  0  0  0  0  0  0
  182.7690  176.5820  137.2630 C   0  0  2  0  0  3  0  0  0  0  0  0
  183.8620  174.4940  137.3450 C   0  0  0  0  0  0  0  0  0  0  0  0
  181.8370  175.4550  137.1180 C   0  0  2  0  0  3  0  0  0  0  0  0
  185.1130  176.4130  136.4200 C   0  0  0  0  0  2  0  0  0  0  0  0
  188.4650  178.9660  138.5910 O   0  0  0  0  0  0  0  0  0  0  0  0
  186.4490  176.7000  137.0130 C   0  0  0  0  0  0  0  0  0  0  0  0
  188.0260  177.9180  138.0470 C   0  0  0  0  0  0  0  0  0  0  0  0
  186.7300  177.8670  137.4790 N   0  0  0  0  0  0  0  0  0  0  0  0
  188.8160  176.6590  137.9730 C   0  0  1  0  0  3  0  0  0  0  0  0
  187.6950  175.4250  137.2160 S   0  0  0  0  0  0  0  0  0  0  0  0
  190.0380  176.8380  137.1220 C   0  0  0  0  0  0  0  0  0  0  0  0
  191.1570  176.7770  137.6110 O   0  0  0  0  0  0  0  0  0  0  0  0
  189.8820  177.0950  135.6630 C   0  0  0  0  0  1  0  0  0  0  0  0
  182.7560  176.8840  139.9540 S   0  0  0  0  0  0  0  0  0  0  0  0
  183.7790  178.3710  140.1890 C   0  0  1  0  0  3  0  0  0  0  0  0
  183.1970  179.5340  139.3970 C   0  0  0  0  0  2  0  0  0  0  0  0
  184.1900  180.4600  139.0680 O   0  0  0  0  0  1  0  0  0  0  0  0
  183.8490  178.7070  141.6100 N   0  0  0  0  0  2  0  0  0  0  0  0
  185.1650  178.3910  142.1740 C   0  0  1  0  0  3  0  0  0  0  0  0
  186.3200  179.0030  141.3820 C   0  0  0  0  0  1  0  0  0  0  0  0
  186.8190  178.1600  145.6480 C   0  0  0  0  0  2  0  0  0  0  0  0
  184.5740  178.1980  146.5590 O   0  0  0  0  0  0  0  0  0  0  0  0
  183.7850  178.9970  145.7220 C   0  0  0  0  0  2  0  0  0  0  0  0
  183.8360  178.4810  144.2860 C   0  0  0  0  0  2  0  0  0  0  0  0
  185.8180  178.8400  146.5910 C   0  0  0  0  0  2  0  0  0  0  0  0
  186.1850  177.5950  144.3750 C   0  0  0  0  0  2  0  0  0  0  0  0
  185.2400  178.5910  143.6930 C   0  0  1  0  0  3  0  0  0  0  0  0
  1  6  1  0  0  0  0
  2 11  1  6  0  0  0
  3  1  1  0  0  0  0
  6 21  1  0  0  0  0
  7  4  1  1  0  0  0
  7  9  1  0  0  0  0
  8  2  1  0  0  0  0
  8  6  1  1  0  0  0
  9  5  2  0  0  0  0
  9  2  1  0  0  0  0
 10  7  1  0  0  0  0
 10  8  1  0  0  0  0
 10  3  1  1  0  0  0
 11 13  1  0  0  0  0
 13 17  1  0  0  0  0
 13 15  2  0  0  0  0
 14 12  2  0  0  0  0
 15 14  1  0  0  0  0
 16 18  1  6  0  0  0
 16 14  1  0  0  0  0
 17 16  1  0  0  0  0
 18 19  2  0  0  0  0
 20 18  1  0  0  0  0
 21 22  1  0  0  0  0
 22 23  1  6  0  0  0
 22 25  1  0  0  0  0
 24 23  1  0  0  0  0
 25 26  1  0  0  0  0
 26 27  1  6  0  0  0
 28 32  1  0  0  0  0
 29 32  1  0  0  0  0
 30 29  1  0  0  0  0
 31 30  1  0  0  0  0
 33 28  1  0  0  0  0
 34 26  1  6  0  0  0
 34 31  1  0  0  0  0
 34 33  1  0  0  0  0
M  END
>  <MODEL>
6

>  <REMARK>
 VINA RESULT:      -7.4      4.617      6.535
  Name = 
  9 active torsions:
  status: ('A' for Active; 'I' for Inactive)
    1  A    between atoms: C_1  and  N_14
    2  A    between atoms: C_1  and  C_33
    3  A    between atoms: C_6  and  C_11
    4  A    between atoms: C_7  and  C_26
    5  A    between atoms: C_9  and  C_31
    6  A    between atoms: C_11  and  C_16
    7  A    between atoms: N_14  and  C_26
    8  A    between atoms: S_19  and  N_20
    9  A    between atoms: S_19  and  C_26
                            x       y       z     vdW  Elec       q    Type
                         _______ _______ _______ _____ _____    ______ ____

>  <TORSDO>
F 9

$$$$
=
 OpenBabel11062415383D

 34 37  0  0  1  0  0  0  0  0999 V2000
  186.4280  177.0010  144.2520 C   0  0  0  0  0  2  0  0  0  0  0  0
  189.4700  177.7200  142.3000 C   0  0  1  0  0  3  0  0  0  0  0  0
  187.5200  177.1180  145.3200 C   0  0  0  0  0  2  0  0  0  0  0  0
  190.1680  178.4330  145.9020 O   0  0  0  0  0  1  0  0  0  0  0  0
  191.3380  178.9870  143.2290 O   0  0  0  0  0  0  0  0  0  0  0  0
  187.0190  177.2440  142.9260 N   0  0  0  0  0  0  0  0  0  0  0  0
  189.7800  177.8920  144.6830 C   0  0  2  0  0  3  0  0  0  0  0  0
  188.4380  176.8830  143.0820 C   0  0  2  0  0  3  0  0  0  0  0  0
  190.3370  178.2450  143.3980 C   0  0  0  0  0  0  0  0  0  0  0  0
  188.7390  177.1060  144.5040 C   0  0  2  0  0  3  0  0  0  0  0  0
  190.2720  176.8070  141.3900 C   0  0  0  0  0  2  0  0  0  0  0  0
  188.6780  179.3780  137.7410 O   0  0  0  0  0  0  0  0  0  0  0  0
  189.9920  177.1370  139.9650 C   0  0  0  0  0  0  0  0  0  0  0  0
  189.2370  178.3680  138.2450 C   0  0  0  0  0  0  0  0  0  0  0  0
  189.3510  178.2090  139.6470 N   0  0  0  0  0  0  0  0  0  0  0  0
  189.8330  177.2820  137.4190 C   0  0  1  0  0  3  0  0  0  0  0  0
  190.6180  176.1380  138.6130 S   0  0  0  0  0  0  0  0  0  0  0  0
  188.7780  176.5640  136.6320 C   0  0  0  0  0  0  0  0  0  0  0  0
  188.1080  175.6780  137.1440 O   0  0  0  0  0  0  0  0  0  0  0  0
  188.5470  176.9360  135.2080 C   0  0  0  0  0  1  0  0  0  0  0  0
  186.7940  178.9780  142.5950 S   0  0  0  0  0  0  0  0  0  0  0  0
  184.9850  178.8660  142.7700 C   0  0  1  0  0  3  0  0  0  0  0  0
  184.5170  179.7540  143.9160 C   0  0  0  0  0  2  0  0  0  0  0  0
  183.4410  179.1720  144.5910 O   0  0  0  0  0  1  0  0  0  0  0  0
  184.3380  179.2640  141.5210 N   0  0  0  0  0  2  0  0  0  0  0  0
  183.3830  178.2510  141.0630 C   0  0  1  0  0  3  0  0  0  0  0  0
  181.9290  178.6280  141.3430 C   0  0  0  0  0  1  0  0  0  0  0  0
  185.4610  177.8800  137.8380 C   0  0  0  0  0  2  0  0  0  0  0  0
  183.3570  177.4980  136.6990 O   0  0  0  0  0  0  0  0  0  0  0  0
  182.5020  176.8330  137.5880 C   0  0  0  0  0  2  0  0  0  0  0  0
  182.3430  177.6360  138.8770 C   0  0  0  0  0  2  0  0  0  0  0  0
  184.6210  176.9520  136.9500 C   0  0  0  0  0  2  0  0  0  0  0  0
  184.6420  178.6490  138.8790 C   0  0  0  0  0  2  0  0  0  0  0  0
  183.6620  177.7500  139.6410 C   0  0  1  0  0  3  0  0  0  0  0  0
  1  3  1  0  0  0  0
  2 11  1  6  0  0  0
  2  8  1  0  0  0  0
  2  9  1  0  0  0  0
  5  9  2  0  0  0  0
  6  1  1  0  0  0  0
  7  4  1  6  0  0  0
  8  6  1  1  0  0  0
  8 10  1  0  0  0  0
  9  7  1  0  0  0  0
 10  7  1  0  0  0  0
 10  3  1  1  0  0  0
 12 14  2  0  0  0  0
 13 11  1  0  0  0  0
 14 15  1  0  0  0  0
 15 13  2  0  0  0  0
 16 18  1  1  0  0  0
 16 14  1  0  0  0  0
 16 17  1  0  0  0  0
 17 13  1  0  0  0  0
 18 19  2  0  0  0  0
 20 18  1  0  0  0  0
 21 22  1  0  0  0  0
 21  6  1  0  0  0  0
 22 23  1  1  0  0  0
 23 24  1  0  0  0  0
 25 22  1  0  0  0  0
 26 27  1  6  0  0  0
 26 25  1  0  0  0  0
 28 33  1  0  0  0  0
 29 32  1  0  0  0  0
 29 30  1  0  0  0  0
 30 31  1  0  0  0  0
 31 34  1  0  0  0  0
 32 28  1  0  0  0  0
 33 34  1  0  0  0  0
 34 26  1  1  0  0  0
M  END
>  <MODEL>
7

>  <REMARK>
 VINA RESULT:      -7.3      3.936      7.651
  Name = 
  9 active torsions:
  status: ('A' for Active; 'I' for Inactive)
    1  A    between atoms: C_1  and  N_14
    2  A    between atoms: C_1  and  C_33
    3  A    between atoms: C_6  and  C_11
    4  A    between atoms: C_7  and  C_26
    5  A    between atoms: C_9  and  C_31
    6  A    between atoms: C_11  and  C_16
    7  A    between atoms: N_14  and  C_26
    8  A    between atoms: S_19  and  N_20
    9  A    between atoms: S_19  and  C_26
                            x       y       z     vdW  Elec       q    Type
                         _______ _______ _______ _____ _____    ______ ____

>  <TORSDO>
F 9

$$$$
=
 OpenBabel11062415383D

 34 37  0  0  1  0  0  0  0  0999 V2000
  181.4760  179.0120  141.1620 C   0  0  0  0  0  2  0  0  0  0  0  0
  183.8260  177.3510  138.8610 C   0  0  1  0  0  3  0  0  0  0  0  0
  180.6160  177.9390  140.4850 C   0  0  0  0  0  2  0  0  0  0  0  0
  180.7630  175.2300  139.1740 O   0  0  0  0  0  1  0  0  0  0  0  0
  183.5610  175.0170  138.1970 O   0  0  0  0  0  0  0  0  0  0  0  0
  182.8530  178.9240  140.6520 N   0  0  0  0  0  0  0  0  0  0  0  0
  181.6840  176.2590  139.0190 C   0  0  2  0  0  3  0  0  0  0  0  0
  182.7130  178.3170  139.3170 C   0  0  2  0  0  3  0  0  0  0  0  0
  183.0580  176.0960  138.6030 C   0  0  0  0  0  0  0  0  0  0  0  0
  181.4880  177.5080  139.3870 C   0  0  2  0  0  3  0  0  0  0  0  0
  184.4390  177.8650  137.5700 C   0  0  0  0  0  2  0  0  0  0  0  0
  188.9180  179.0030  138.6230 O   0  0  0  0  0  0  0  0  0  0  0  0
  185.9190  177.7070  137.6140 C   0  0  0  0  0  0  0  0  0  0  0  0
  188.0360  178.2550  138.1230 C   0  0  0  0  0  0  0  0  0  0  0  0
  186.6680  178.6200  138.1290 N   0  0  0  0  0  0  0  0  0  0  0  0
  188.3530  176.9350  137.5110 C   0  0  1  0  0  3  0  0  0  0  0  0
  186.7340  176.2060  137.0630 S   0  0  0  0  0  0  0  0  0  0  0  0
  189.2030  177.0990  136.2870 C   0  0  0  0  0  0  0  0  0  0  0  0
  188.8810  177.8770  135.3990 O   0  0  0  0  0  0  0  0  0  0  0  0
  190.4540  176.3030  136.1530 C   0  0  0  0  0  1  0  0  0  0  0  0
  183.7340  177.8720  141.7860 S   0  0  0  0  0  0  0  0  0  0  0  0
  183.7420  179.1390  143.0920 C   0  0  1  0  0  3  0  0  0  0  0  0
  182.9560  178.6460  144.3000 C   0  0  0  0  0  2  0  0  0  0  0  0
  183.4290  179.2340  145.4760 O   0  0  0  0  0  1  0  0  0  0  0  0
  185.1180  179.4520  143.4730 N   0  0  0  0  0  2  0  0  0  0  0  0
  186.0480  178.4030  143.0420 C   0  0  1  0  0  3  0  0  0  0  0  0
  186.5940  178.6290  141.6340 C   0  0  0  0  0  1  0  0  0  0  0  0
  189.3050  176.7880  144.3240 C   0  0  0  0  0  2  0  0  0  0  0  0
  188.2610  176.7640  146.5100 O   0  0  0  0  0  0  0  0  0  0  0  0
  187.4340  177.8900  146.6020 C   0  0  0  0  0  2  0  0  0  0  0  0
  186.4200  177.9040  145.4610 C   0  0  0  0  0  2  0  0  0  0  0  0
  189.3820  177.2070  145.7970 C   0  0  0  0  0  2  0  0  0  0  0  0
  187.8830  176.7790  143.7560 C   0  0  0  0  0  2  0  0  0  0  0  0
  187.1010  178.0510  144.1000 C   0  0  1  0  0  3  0  0  0  0  0  0
  2 11  1  6  0  0  0
  2  8  1  0  0  0  0
  3  1  1  0  0  0  0
  5  9  2  0  0  0  0
  6  1  1  0  0  0  0
  6 21  1  0  0  0  0
  7  4  1  1  0  0  0
  7 10  1  0  0  0  0
  8 10  1  0  0  0  0
  8  6  1  1  0  0  0
  9  2  1  0  0  0  0
  9  7  1  0  0  0  0
 10  3  1  1  0  0  0
 11 13  1  0  0  0  0
 13 15  2  0  0  0  0
 14 15  1  0  0  0  0
 14 12  2  0  0  0  0
 16 18  1  6  0  0  0
 16 14  1  0  0  0  0
 17 16  1  0  0  0  0
 17 13  1  0  0  0  0
 19 18  2  0  0  0  0
 20 18  1  0  0  0  0
 21 22  1  0  0  0  0
 22 25  1  0  0  0  0
 22 23  1  1  0  0  0
 23 24  1  0  0  0  0
 26 27  1  6  0  0  0
 26 25  1  0  0  0  0
 28 32  1  0  0  0  0
 29 30  1  0  0  0  0
 31 30  1  0  0  0  0
 32 29  1  0  0  0  0
 33 34  1  0  0  0  0
 33 28  1  0  0  0  0
 34 26  1  6  0  0  0
 34 31  1  0  0  0  0
M  END
>  <MODEL>
8

>  <REMARK>
 VINA RESULT:      -7.2      4.349      6.562
  Name = 
  9 active torsions:
  status: ('A' for Active; 'I' for Inactive)
    1  A    between atoms: C_1  and  N_14
    2  A    between atoms: C_1  and  C_33
    3  A    between atoms: C_6  and  C_11
    4  A    between atoms: C_7  and  C_26
    5  A    between atoms: C_9  and  C_31
    6  A    between atoms: C_11  and  C_16
    7  A    between atoms: N_14  and  C_26
    8  A    between atoms: S_19  and  N_20
    9  A    between atoms: S_19  and  C_26
                            x       y       z     vdW  Elec       q    Type
                         _______ _______ _______ _____ _____    ______ ____

>  <TORSDO>
F 9

$$$$
=
 OpenBabel11062415383D

 34 37  0  0  1  0  0  0  0  0999 V2000
  182.7450  179.6110  143.6640 C   0  0  0  0  0  2  0  0  0  0  0  0
  183.8780  178.2750  140.4220 C   0  0  1  0  0  3  0  0  0  0  0  0
  181.4480  179.1450  142.9960 C   0  0  0  0  0  2  0  0  0  0  0  0
  180.3590  177.1600  141.0080 O   0  0  0  0  0  1  0  0  0  0  0  0
  182.6640  176.5110  139.2500 O   0  0  0  0  0  0  0  0  0  0  0  0
  183.8820  179.3180  142.7760 N   0  0  0  0  0  0  0  0  0  0  0  0
  181.5490  177.8640  140.8830 C   0  0  2  0  0  3  0  0  0  0  0  0
  183.2960  179.2920  141.4250 C   0  0  2  0  0  3  0  0  0  0  0  0
  182.6710  177.4720  140.0630 C   0  0  0  0  0  0  0  0  0  0  0  0
  181.8920  178.9010  141.6190 C   0  0  2  0  0  3  0  0  0  0  0  0
  184.3990  179.0140  139.2020 C   0  0  0  0  0  2  0  0  0  0  0  0
  188.9710  178.0120  139.9460 O   0  0  0  0  0  0  0  0  0  0  0  0
  185.7700  178.5380  138.8670 C   0  0  0  0  0  0  0  0  0  0  0  0
  187.9330  178.0620  139.2350 C   0  0  0  0  0  0  0  0  0  0  0  0
  186.7270  178.6180  139.7260 N   0  0  0  0  0  0  0  0  0  0  0  0
  187.8840  177.5340  137.8440 C   0  0  1  0  0  3  0  0  0  0  0  0
  186.1440  177.7310  137.3100 S   0  0  0  0  0  0  0  0  0  0  0  0
  188.7940  178.3110  136.9390 C   0  0  0  0  0  0  0  0  0  0  0  0
  189.1640  179.4370  137.2410 O   0  0  0  0  0  0  0  0  0  0  0  0
  189.2480  177.7010  135.6590 C   0  0  0  0  0  1  0  0  0  0  0  0
  184.5010  177.7250  143.2760 S   0  0  0  0  0  0  0  0  0  0  0  0
  185.8200  178.4610  144.2920 C   0  0  1  0  0  3  0  0  0  0  0  0
  185.2130  179.3470  145.3710 C   0  0  0  0  0  2  0  0  0  0  0  0
  184.5310  178.5810  146.3210 O   0  0  0  0  0  1  0  0  0  0  0  0
  186.6290  177.4040  144.8980 N   0  0  0  0  0  2  0  0  0  0  0  0
  187.9080  177.9230  145.3940 C   0  0  1  0  0  3  0  0  0  0  0  0
  188.0360  177.8470  146.9140 C   0  0  0  0  0  1  0  0  0  0  0  0
  191.4560  178.1420  143.9050 C   0  0  0  0  0  2  0  0  0  0  0  0
  190.7130  176.5160  142.2700 O   0  0  0  0  0  0  0  0  0  0  0  0
  189.7890  175.6700  142.8960 C   0  0  0  0  0  2  0  0  0  0  0  0
  188.6410  176.4800  143.4920 C   0  0  0  0  0  2  0  0  0  0  0  0
  191.6790  176.7720  143.2510 C   0  0  0  0  0  2  0  0  0  0  0  0
  189.9820  178.5340  144.0370 C   0  0  0  0  0  2  0  0  0  0  0  0
  189.1210  177.4040  144.6120 C   0  0  1  0  0  3  0  0  0  0  0  0
  2 11  1  6  0  0  0
  2  8  1  0  0  0  0
  3  1  1  0  0  0  0
  5  9  2  0  0  0  0
  6 21  1  0  0  0  0
  6  1  1  0  0  0  0
  7  4  1  1  0  0  0
  7 10  1  0  0  0  0
  8 10  1  0  0  0  0
  8  6  1  1  0  0  0
  9  2  1  0  0  0  0
  9  7  1  0  0  0  0
 10  3  1  1  0  0  0
 13 11  1  0  0  0  0
 13 15  2  0  0  0  0
 14 15  1  0  0  0  0
 14 12  2  0  0  0  0
 16 18  1  6  0  0  0
 16 14  1  0  0  0  0
 17 16  1  0  0  0  0
 17 13  1  0  0  0  0
 18 19  2  0  0  0  0
 20 18  1  0  0  0  0
 21 22  1  0  0  0  0
 22 25  1  0  0  0  0
 22 23  1  1  0  0  0
 23 24  1  0  0  0  0
 25 26  1  0  0  0  0
 26 27  1  1  0  0  0
 28 33  1  0  0  0  0
 29 30  1  0  0  0  0
 29 32  1  0  0  0  0
 30 31  1  0  0  0  0
 31 34  1  0  0  0  0
 32 28  1  0  0  0  0
 33 34  1  0  0  0  0
 34 26  1  6  0  0  0
M  END
>  <MODEL>
9

>  <REMARK>
 VINA RESULT:      -7.2      4.550      7.005
  Name = 
  9 active torsions:
  status: ('A' for Active; 'I' for Inactive)
    1  A    between atoms: C_1  and  N_14
    2  A    between atoms: C_1  and  C_33
    3  A    between atoms: C_6  and  C_11
    4  A    between atoms: C_7  and  C_26
    5  A    between atoms: C_9  and  C_31
    6  A    between atoms: C_11  and  C_16
    7  A    between atoms: N_14  and  C_26
    8  A    between atoms: S_19  and  N_20
    9  A    between atoms: S_19  and  C_26
                            x       y       z     vdW  Elec       q    Type
                         _______ _______ _______ _____ _____    ______ ____

>  <TORSDO>
F 9

$$$$
