=
 OpenBabel11062413463D

 35 40  0  0  1  0  0  0  0  0999 V2000
  191.5830  176.2690  138.3670 C   0  0  2  0  0  3  0  0  0  0  0  0
  190.1380  177.3780  139.7460 C   0  0  1  0  0  3  0  0  0  0  0  0
  192.0630  174.9290  137.9140 C   0  0  0  0  0  2  0  0  0  0  0  0
  190.5830  176.0940  139.3420 O   0  0  0  0  0  0  0  0  0  0  0  0
  190.7310  175.8560  136.1640 O   0  0  0  0  0  0  0  0  0  0  0  0
  191.2620  174.6460  136.6620 C   0  0  2  0  0  0  0  0  0  0  0  0
  190.9820  176.8670  137.1080 C   0  0  1  0  0  3  0  0  0  0  0  0
  190.1220  173.7040  137.0050 C   0  0  0  0  0  1  0  0  0  0  0  0
  189.8250  178.2700  138.6780 O   0  0  0  0  0  0  0  0  0  0  0  0
  189.6770  177.5650  137.4670 C   0  0  0  0  0  2  0  0  0  0  0  0
  188.9620  177.2350  140.6530 C   0  0  0  0  0  3  0  0  0  0  0  0
  189.0760  176.7870  141.8990 C   0  0  0  0  0  3  0  0  0  0  0  0
  190.0050  177.2380  147.2460 C   0  0  0  0  0  3  0  0  0  0  0  0
  189.7610  176.9570  144.8630 C   0  0  0  0  0  0  0  0  0  0  0  0
  190.5260  176.9240  145.9940 C   0  0  0  0  0  0  0  0  0  0  0  0
  188.0290  177.9270  148.6250 C   0  0  0  0  0  1  0  0  0  0  0  0
  190.6300  176.5840  143.8590 C   0  0  0  0  0  0  0  0  0  0  0  0
  191.7470  176.5590  145.6840 O   0  0  0  0  0  0  0  0  0  0  0  0
  187.8460  177.6120  146.1420 C   0  0  0  0  0  3  0  0  0  0  0  0
  188.4030  177.2880  144.8890 C   0  0  0  0  0  3  0  0  0  0  0  0
  190.3450  176.4460  142.4630 N   0  0  0  0  0  2  0  0  0  0  0  0
  191.8470  176.3450  144.3960 N   0  0  0  0  0  0  0  0  0  0  0  0
  188.6420  177.5910  147.3130 C   0  0  0  0  0  0  0  0  0  0  0  0
  192.1830  173.9810  135.6370 C   0  0  0  0  0  2  0  0  0  0  0  0
  193.6550  173.9690  136.0660 C   0  0  2  0  0  3  0  0  0  0  0  0
  194.5130  174.8840  135.1860 C   0  0  2  0  0  3  0  0  0  0  0  0
  194.9300  177.0170  134.6440 C   0  0  0  0  0  2  0  0  0  0  0  0
  195.8050  175.3770  137.1480 O   0  0  0  0  0  1  0  0  0  0  0  0
  195.8860  175.1590  135.7720 C   0  0  2  0  0  3  0  0  0  0  0  0
  196.2550  176.4450  135.1080 C   0  0  0  0  0  2  0  0  0  0  0  0
  193.8920  176.1240  134.9540 O   0  0  0  0  0  0  0  0  0  0  0  0
  194.1860  172.5400  135.9930 C   0  0  0  0  0  2  0  0  0  0  0  0
  196.1140  171.7130  137.2240 N   0  0  0  0  0  2  0  0  0  0  0  0
  195.0700  170.6780  137.2750 C   0  0  0  0  0  2  0  0  0  0  0  0
  194.6960  172.0870  137.3490 C   0  0  2  0  0  3  0  0  0  0  0  0
  1  3  1  6  0  0  0
  1  4  1  0  0  0  0
  2 11  1  1  0  0  0
  4  2  1  0  0  0  0
  5  6  1  0  0  0  0
  5  7  1  0  0  0  0
  6  8  1  1  0  0  0
  6  3  1  0  0  0  0
  7 10  1  1  0  0  0
  7  1  1  0  0  0  0
  9  2  1  0  0  0  0
 10  9  1  0  0  0  0
 11 12  2  0  0  0  0
 12 21  1  0  0  0  0
 13 23  1  0  0  0  0
 14 20  2  0  0  0  0
 14 15  1  0  0  0  0
 15 13  2  0  0  0  0
 17 22  2  0  0  0  0
 17 14  1  0  0  0  0
 18 15  1  0  0  0  0
 19 23  2  0  0  0  0
 20 19  1  0  0  0  0
 21 17  1  0  0  0  0
 22 18  1  0  0  0  0
 23 16  1  0  0  0  0
 24  6  1  0  0  0  0
 25 24  1  6  0  0  0
 26 29  1  0  0  0  0
 26 25  1  1  0  0  0
 27 31  1  0  0  0  0
 27 30  1  0  0  0  0
 29 28  1  1  0  0  0
 30 29  1  0  0  0  0
 31 26  1  0  0  0  0
 32 25  1  0  0  0  0
 33 34  1  0  0  0  0
 33 35  1  0  0  0  0
 34 35  1  0  0  0  0
 35 32  1  6  0  0  0
M  END
>  <MODEL>
1

>  <REMARK>
 VINA RESULT:      -8.3      0.000      0.000
  Name = 
  7 active torsions:
  status: ('A' for Active; 'I' for Inactive)
    1  A    between atoms: C_1  and  C_14
    2  A    between atoms: C_3  and  N_25
    3  A    between atoms: C_4  and  C_7
    4  A    between atoms: C_4  and  C_9
    5  A    between atoms: C_4  and  C_18
    6  A    between atoms: C_9  and  C_27
    7  A    between atoms: C_18  and  C_28
                            x       y       z     vdW  Elec       q    Type
                         _______ _______ _______ _____ _____    ______ ____

>  <TORSDO>
F 7

$$$$
=
 OpenBabel11062413463D

 35 40  0  0  1  0  0  0  0  0999 V2000
  189.3260  178.3500  141.0370 C   0  0  2  0  0  3  0  0  0  0  0  0
  188.7060  177.7560  138.9210 C   0  0  1  0  0  3  0  0  0  0  0  0
  188.9540  178.3050  142.4830 C   0  0  0  0  0  2  0  0  0  0  0  0
  188.3240  177.7100  140.2850 O   0  0  0  0  0  0  0  0  0  0  0  0
  190.7370  176.7560  142.1410 O   0  0  0  0  0  0  0  0  0  0  0  0
  189.6890  177.0980  143.0240 C   0  0  2  0  0  0  0  0  0  0  0  0
  190.6110  177.5440  140.9840 C   0  0  1  0  0  3  0  0  0  0  0  0
  188.7210  175.9330  143.1260 C   0  0  0  0  0  1  0  0  0  0  0  0
  190.0480  177.3490  138.6570 O   0  0  0  0  0  0  0  0  0  0  0  0
  190.5790  176.6440  139.7550 C   0  0  0  0  0  2  0  0  0  0  0  0
  187.7560  176.9420  138.1080 C   0  0  0  0  0  3  0  0  0  0  0  0
  186.5340  177.3680  137.8060 C   0  0  0  0  0  3  0  0  0  0  0  0
  181.5060  178.0470  139.7830 C   0  0  0  0  0  3  0  0  0  0  0  0
  183.7670  177.9240  138.9510 C   0  0  0  0  0  0  0  0  0  0  0  0
  182.7050  178.6490  139.4120 C   0  0  0  0  0  0  0  0  0  0  0  0
  180.1690  175.9460  140.0630 C   0  0  0  0  0  1  0  0  0  0  0  0
  184.7380  178.8720  138.7040 C   0  0  0  0  0  0  0  0  0  0  0  0
  183.0240  179.9210  139.4380 O   0  0  0  0  0  0  0  0  0  0  0  0
  182.5280  175.8920  139.2070 C   0  0  0  0  0  3  0  0  0  0  0  0
  183.7290  176.5310  138.8400 C   0  0  0  0  0  3  0  0  0  0  0  0
  186.0640  178.6560  138.2110 N   0  0  0  0  0  2  0  0  0  0  0  0
  184.2500  180.0940  139.0140 N   0  0  0  0  0  0  0  0  0  0  0  0
  181.4220  176.6440  139.6720 C   0  0  0  0  0  0  0  0  0  0  0  0
  190.2260  177.4400  144.4160 C   0  0  0  0  0  2  0  0  0  0  0  0
  189.3300  176.9300  145.5500 C   0  0  2  0  0  3  0  0  0  0  0  0
  188.2970  177.9780  145.9760 C   0  0  2  0  0  3  0  0  0  0  0  0
  186.1040  178.4010  146.1630 C   0  0  0  0  0  2  0  0  0  0  0  0
  187.9790  176.6940  147.9790 O   0  0  0  0  0  1  0  0  0  0  0  0
  188.0430  177.9940  147.4730 C   0  0  2  0  0  3  0  0  0  0  0  0
  186.6800  178.6010  147.5500 C   0  0  0  0  0  2  0  0  0  0  0  0
  187.0600  177.7880  145.3350 O   0  0  0  0  0  0  0  0  0  0  0  0
  190.2000  176.5520  146.7450 C   0  0  0  0  0  2  0  0  0  0  0  0
  192.1380  175.1570  146.2820 N   0  0  0  0  0  2  0  0  0  0  0  0
  192.4510  175.9860  147.4560 C   0  0  0  0  0  2  0  0  0  0  0  0
  191.6690  176.5490  146.3610 C   0  0  2  0  0  3  0  0  0  0  0  0
  1  3  1  1  0  0  0
  2 11  1  6  0  0  0
  2  4  1  0  0  0  0
  3  6  1  0  0  0  0
  4  1  1  0  0  0  0
  5  6  1  0  0  0  0
  6  8  1  1  0  0  0
  6 24  1  0  0  0  0
  7 10  1  6  0  0  0
  7  1  1  0  0  0  0
  7  5  1  0  0  0  0
  9  2  1  0  0  0  0
  9 10  1  0  0  0  0
 12 11  2  0  0  0  0
 12 21  1  0  0  0  0
 14 15  1  0  0  0  0
 15 18  1  0  0  0  0
 15 13  2  0  0  0  0
 17 14  1  0  0  0  0
 17 22  2  0  0  0  0
 19 23  2  0  0  0  0
 20 14  2  0  0  0  0
 20 19  1  0  0  0  0
 21 17  1  0  0  0  0
 22 18  1  0  0  0  0
 23 13  1  0  0  0  0
 23 16  1  0  0  0  0
 25 24  1  6  0  0  0
 25 32  1  0  0  0  0
 26 25  1  1  0  0  0
 26 29  1  0  0  0  0
 27 30  1  0  0  0  0
 29 30  1  0  0  0  0
 29 28  1  6  0  0  0
 31 26  1  0  0  0  0
 31 27  1  0  0  0  0
 33 35  1  0  0  0  0
 33 34  1  0  0  0  0
 35 32  1  1  0  0  0
 35 34  1  0  0  0  0
M  END
>  <MODEL>
2

>  <REMARK>
 VINA RESULT:      -7.8      4.420      9.525
  Name = 
  7 active torsions:
  status: ('A' for Active; 'I' for Inactive)
    1  A    between atoms: C_1  and  C_14
    2  A    between atoms: C_3  and  N_25
    3  A    between atoms: C_4  and  C_7
    4  A    between atoms: C_4  and  C_9
    5  A    between atoms: C_4  and  C_18
    6  A    between atoms: C_9  and  C_27
    7  A    between atoms: C_18  and  C_28
                            x       y       z     vdW  Elec       q    Type
                         _______ _______ _______ _____ _____    ______ ____

>  <TORSDO>
F 7

$$$$
=
 OpenBabel11062413463D

 35 40  0  0  1  0  0  0  0  0999 V2000
  190.1450  176.5880  142.4760 C   0  0  2  0  0  3  0  0  0  0  0  0
  190.5320  176.6120  140.2250 C   0  0  1  0  0  3  0  0  0  0  0  0
  190.7200  176.8800  143.8230 C   0  0  0  0  0  2  0  0  0  0  0  0
  191.1050  176.8870  141.4920 O   0  0  0  0  0  0  0  0  0  0  0  0
  189.1220  178.5830  143.3280 O   0  0  0  0  0  0  0  0  0  0  0  0
  190.2310  178.2750  144.1470 C   0  0  2  0  0  0  0  0  0  0  0  0
  188.9800  177.5560  142.3770 C   0  0  1  0  0  3  0  0  0  0  0  0
  191.3460  179.2680  143.8710 C   0  0  0  0  0  1  0  0  0  0  0  0
  189.2310  177.1600  140.0220 O   0  0  0  0  0  0  0  0  0  0  0  0
  188.9550  178.1570  140.9780 C   0  0  0  0  0  2  0  0  0  0  0  0
  191.4550  177.0750  139.1480 C   0  0  0  0  0  3  0  0  0  0  0  0
  191.7940  176.3010  138.1230 C   0  0  0  0  0  3  0  0  0  0  0  0
  187.0560  175.4390  135.5810 C   0  0  0  0  0  3  0  0  0  0  0  0
  189.1770  175.6360  136.7130 C   0  0  0  0  0  0  0  0  0  0  0  0
  188.1260  174.8820  136.2740 C   0  0  0  0  0  0  0  0  0  0  0  0
  185.9800  177.4770  134.5950 C   0  0  0  0  0  1  0  0  0  0  0  0
  190.0080  174.7260  137.3330 C   0  0  0  0  0  0  0  0  0  0  0  0
  188.3220  173.6270  136.6050 O   0  0  0  0  0  0  0  0  0  0  0  0
  188.1880  177.6070  135.7810 C   0  0  0  0  0  3  0  0  0  0  0  0
  189.2570  177.0120  136.4790 C   0  0  0  0  0  3  0  0  0  0  0  0
  191.2650  174.9820  137.9670 N   0  0  0  0  0  2  0  0  0  0  0  0
  189.4540  173.4960  137.2500 N   0  0  0  0  0  0  0  0  0  0  0  0
  187.0920  176.8280  135.3380 C   0  0  0  0  0  0  0  0  0  0  0  0
  189.8560  178.3260  145.6300 C   0  0  0  0  0  2  0  0  0  0  0  0
  189.0810  177.0910  146.1000 C   0  0  2  0  0  3  0  0  0  0  0  0
  187.7310  177.4660  146.7200 C   0  0  2  0  0  3  0  0  0  0  0  0
  186.1990  179.0920  146.8970 C   0  0  0  0  0  2  0  0  0  0  0  0
  186.7600  177.1110  144.5540 O   0  0  0  0  0  1  0  0  0  0  0  0
  186.5440  176.9530  145.9240 C   0  0  2  0  0  3  0  0  0  0  0  0
  185.4590  177.8900  146.3460 C   0  0  0  0  0  2  0  0  0  0  0  0
  187.5840  178.8580  146.8560 O   0  0  0  0  0  0  0  0  0  0  0  0
  189.9210  176.3300  147.1210 C   0  0  0  0  0  2  0  0  0  0  0  0
  192.1950  175.6880  146.5460 N   0  0  0  0  0  2  0  0  0  0  0  0
  192.1590  175.9700  147.9890 C   0  0  0  0  0  2  0  0  0  0  0  0
  191.3680  176.7850  147.0730 C   0  0  2  0  0  3  0  0  0  0  0  0
  1  3  1  1  0  0  0
  2 11  1  6  0  0  0
  2  4  1  0  0  0  0
  3  6  1  0  0  0  0
  4  1  1  0  0  0  0
  5  6  1  0  0  0  0
  6  8  1  6  0  0  0
  6 24  1  0  0  0  0
  7 10  1  6  0  0  0
  7  1  1  0  0  0  0
  7  5  1  0  0  0  0
  9  2  1  0  0  0  0
  9 10  1  0  0  0  0
 12 11  2  0  0  0  0
 13 15  1  0  0  0  0
 14 17  1  0  0  0  0
 15 18  1  0  0  0  0
 15 14  2  0  0  0  0
 16 23  1  0  0  0  0
 17 21  1  0  0  0  0
 18 22  1  0  0  0  0
 19 20  2  0  0  0  0
 20 14  1  0  0  0  0
 21 12  1  0  0  0  0
 22 17  2  0  0  0  0
 23 13  2  0  0  0  0
 23 19  1  0  0  0  0
 25 24  1  1  0  0  0
 25 32  1  0  0  0  0
 26 25  1  6  0  0  0
 26 31  1  0  0  0  0
 29 28  1  6  0  0  0
 29 30  1  0  0  0  0
 29 26  1  0  0  0  0
 30 27  1  0  0  0  0
 31 27  1  0  0  0  0
 33 35  1  0  0  0  0
 33 34  1  0  0  0  0
 35 32  1  1  0  0  0
 35 34  1  0  0  0  0
M  END
>  <MODEL>
3

>  <REMARK>
 VINA RESULT:      -7.6      3.419      9.905
  Name = 
  7 active torsions:
  status: ('A' for Active; 'I' for Inactive)
    1  A    between atoms: C_1  and  C_14
    2  A    between atoms: C_3  and  N_25
    3  A    between atoms: C_4  and  C_7
    4  A    between atoms: C_4  and  C_9
    5  A    between atoms: C_4  and  C_18
    6  A    between atoms: C_9  and  C_27
    7  A    between atoms: C_18  and  C_28
                            x       y       z     vdW  Elec       q    Type
                         _______ _______ _______ _____ _____    ______ ____

>  <TORSDO>
F 7

$$$$
=
 OpenBabel11062413463D

 35 40  0  0  1  0  0  0  0  0999 V2000
  189.2160  178.1460  141.0360 C   0  0  2  0  0  3  0  0  0  0  0  0
  190.0830  177.1270  139.1850 C   0  0  1  0  0  3  0  0  0  0  0  0
  188.1450  178.0950  142.0770 C   0  0  0  0  0  2  0  0  0  0  0  0
  189.0510  177.0620  140.1550 O   0  0  0  0  0  0  0  0  0  0  0  0
  190.1960  177.4410  143.1080 O   0  0  0  0  0  0  0  0  0  0  0  0
  188.7920  177.3870  143.2480 C   0  0  2  0  0  0  0  0  0  0  0  0
  190.4910  177.9730  141.8410 C   0  0  1  0  0  3  0  0  0  0  0  0
  188.3470  175.9360  143.2570 C   0  0  0  0  0  1  0  0  0  0  0  0
  191.3950  177.3140  139.7150 O   0  0  0  0  0  0  0  0  0  0  0  0
  191.4210  177.0260  141.0940 C   0  0  0  0  0  2  0  0  0  0  0  0
  190.0460  175.9030  138.3340 C   0  0  0  0  0  3  0  0  0  0  0  0
  189.1130  175.7100  137.4070 C   0  0  0  0  0  3  0  0  0  0  0  0
  183.9080  174.2680  136.7110 C   0  0  0  0  0  3  0  0  0  0  0  0
  186.1580  175.0850  137.0140 C   0  0  0  0  0  0  0  0  0  0  0  0
  184.8410  175.3010  136.7210 C   0  0  0  0  0  0  0  0  0  0  0  0
  183.4150  171.8320  137.0370 C   0  0  0  0  0  1  0  0  0  0  0  0
  186.7320  176.3350  136.9240 C   0  0  0  0  0  0  0  0  0  0  0  0
  184.6530  176.5760  136.4780 O   0  0  0  0  0  0  0  0  0  0  0  0
  185.7310  172.7520  137.3410 C   0  0  0  0  0  3  0  0  0  0  0  0
  186.6510  173.8190  137.3440 C   0  0  0  0  0  3  0  0  0  0  0  0
  188.1020  176.6850  137.1430 N   0  0  0  0  0  2  0  0  0  0  0  0
  185.7790  177.2340  136.5910 N   0  0  0  0  0  0  0  0  0  0  0  0
  184.3690  172.9730  137.0230 C   0  0  0  0  0  0  0  0  0  0  0  0
  188.3360  178.0700  144.5400 C   0  0  0  0  0  2  0  0  0  0  0  0
  186.9540  177.6050  145.0130 C   0  0  2  0  0  3  0  0  0  0  0  0
  185.8390  178.5220  144.5020 C   0  0  2  0  0  3  0  0  0  0  0  0
  183.8230  178.5650  143.5230 C   0  0  0  0  0  2  0  0  0  0  0  0
  184.6050  177.9420  146.4770 O   0  0  0  0  0  1  0  0  0  0  0  0
  184.8970  178.9870  145.5990 C   0  0  2  0  0  3  0  0  0  0  0  0
  183.6620  179.3190  144.8280 C   0  0  0  0  0  2  0  0  0  0  0  0
  185.0620  177.9020  143.5080 O   0  0  0  0  0  0  0  0  0  0  0  0
  186.9330  177.5700  146.5380 C   0  0  0  0  0  2  0  0  0  0  0  0
  188.7450  176.7500  147.9370 N   0  0  0  0  0  2  0  0  0  0  0  0
  188.2180  177.9760  148.5560 C   0  0  0  0  0  2  0  0  0  0  0  0
  188.3060  177.8800  147.1030 C   0  0  2  0  0  3  0  0  0  0  0  0
  1  7  1  0  0  0  0
  1  3  1  1  0  0  0
  2 11  1  1  0  0  0
  2  9  1  0  0  0  0
  2  4  1  0  0  0  0
  3  6  1  0  0  0  0
  4  1  1  0  0  0  0
  5  6  1  0  0  0  0
  6  8  1  1  0  0  0
  6 24  1  0  0  0  0
  7 10  1  6  0  0  0
  7  5  1  0  0  0  0
  9 10  1  0  0  0  0
 12 11  2  0  0  0  0
 13 15  2  0  0  0  0
 13 23  1  0  0  0  0
 14 20  2  0  0  0  0
 15 14  1  0  0  0  0
 17 14  1  0  0  0  0
 17 21  1  0  0  0  0
 18 22  1  0  0  0  0
 18 15  1  0  0  0  0
 19 20  1  0  0  0  0
 21 12  1  0  0  0  0
 22 17  2  0  0  0  0
 23 16  1  0  0  0  0
 23 19  2  0  0  0  0
 25 24  1  1  0  0  0
 25 32  1  0  0  0  0
 26 25  1  1  0  0  0
 26 29  1  0  0  0  0
 27 30  1  0  0  0  0
 29 28  1  1  0  0  0
 30 29  1  0  0  0  0
 31 27  1  0  0  0  0
 31 26  1  0  0  0  0
 33 34  1  0  0  0  0
 35 32  1  6  0  0  0
 35 33  1  0  0  0  0
 35 34  1  0  0  0  0
M  END
>  <MODEL>
4

>  <REMARK>
 VINA RESULT:      -7.3      4.164     10.380
  Name = 
  7 active torsions:
  status: ('A' for Active; 'I' for Inactive)
    1  A    between atoms: C_1  and  C_14
    2  A    between atoms: C_3  and  N_25
    3  A    between atoms: C_4  and  C_7
    4  A    between atoms: C_4  and  C_9
    5  A    between atoms: C_4  and  C_18
    6  A    between atoms: C_9  and  C_27
    7  A    between atoms: C_18  and  C_28
                            x       y       z     vdW  Elec       q    Type
                         _______ _______ _______ _____ _____    ______ ____

>  <TORSDO>
F 7

$$$$
=
 OpenBabel11062413463D

 35 40  0  0  1  0  0  0  0  0999 V2000
  190.5100  176.2820  143.0320 C   0  0  2  0  0  3  0  0  0  0  0  0
  189.6350  176.8270  145.0700 C   0  0  1  0  0  3  0  0  0  0  0  0
  190.2130  176.0930  141.5800 C   0  0  0  0  0  2  0  0  0  0  0  0
  189.3250  176.6430  143.6990 O   0  0  0  0  0  0  0  0  0  0  0  0
  191.4230  178.1370  141.8160 O   0  0  0  0  0  0  0  0  0  0  0  0
  190.5730  177.4200  140.9460 C   0  0  2  0  0  0  0  0  0  0  0  0
  191.4850  177.4450  143.0380 C   0  0  1  0  0  3  0  0  0  0  0  0
  189.3030  178.2190  140.7160 C   0  0  0  0  0  1  0  0  0  0  0  0
  190.7750  177.6460  145.3240 O   0  0  0  0  0  0  0  0  0  0  0  0
  191.1210  178.3880  144.1780 C   0  0  0  0  0  2  0  0  0  0  0  0
  188.4440  177.3740  145.7830 C   0  0  0  0  0  3  0  0  0  0  0  0
  187.4370  177.9560  145.1390 C   0  0  0  0  0  3  0  0  0  0  0  0
  182.7820  178.7910  142.4380 C   0  0  0  0  0  3  0  0  0  0  0  0
  184.9340  178.4430  143.4730 C   0  0  0  0  0  0  0  0  0  0  0  0
  184.1550  178.5720  142.3580 C   0  0  0  0  0  0  0  0  0  0  0  0
  180.7530  179.1210  143.8720 C   0  0  0  0  0  1  0  0  0  0  0  0
  186.2050  178.2490  142.9740 C   0  0  0  0  0  0  0  0  0  0  0  0
  184.9050  178.4670  141.2870 O   0  0  0  0  0  0  0  0  0  0  0  0
  183.0230  178.7590  144.8800 C   0  0  0  0  0  3  0  0  0  0  0  0
  184.4100  178.5400  144.7650 C   0  0  0  0  0  3  0  0  0  0  0  0
  187.4150  178.0610  143.7140 N   0  0  0  0  0  2  0  0  0  0  0  0
  186.1550  178.2680  141.6230 N   0  0  0  0  0  0  0  0  0  0  0  0
  182.2130  178.8800  143.7250 C   0  0  0  0  0  0  0  0  0  0  0  0
  191.2560  177.1470  139.6040 C   0  0  0  0  0  2  0  0  0  0  0  0
  190.4980  176.1360  138.7350 C   0  0  2  0  0  3  0  0  0  0  0  0
  191.3750  175.5850  137.6060 C   0  0  2  0  0  3  0  0  0  0  0  0
  193.0290  174.1540  137.1210 C   0  0  0  0  0  2  0  0  0  0  0  0
  190.0030  173.6160  137.6490 O   0  0  0  0  0  1  0  0  0  0  0  0
  190.6980  174.4850  136.8070 C   0  0  2  0  0  3  0  0  0  0  0  0
  191.8680  173.7550  136.2320 C   0  0  0  0  0  2  0  0  0  0  0  0
  192.5930  175.0740  138.0880 O   0  0  0  0  0  0  0  0  0  0  0  0
  189.2630  176.8100  138.1450 C   0  0  0  0  0  2  0  0  0  0  0  0
  188.5840  178.9660  137.2480 N   0  0  0  0  0  2  0  0  0  0  0  0
  188.7280  178.0340  136.1180 C   0  0  0  0  0  2  0  0  0  0  0  0
  189.6600  177.9610  137.2390 C   0  0  2  0  0  3  0  0  0  0  0  0
  1  3  1  6  0  0  0
  1  7  1  0  0  0  0
  1  4  1  0  0  0  0
  2  9  1  0  0  0  0
  2 11  1  1  0  0  0
  4  2  1  0  0  0  0
  5  7  1  0  0  0  0
  6  8  1  6  0  0  0
  6  3  1  0  0  0  0
  6  5  1  0  0  0  0
  7 10  1  1  0  0  0
 10  9  1  0  0  0  0
 12 11  2  0  0  0  0
 13 23  1  0  0  0  0
 14 20  2  0  0  0  0
 15 13  2  0  0  0  0
 15 14  1  0  0  0  0
 17 14  1  0  0  0  0
 17 21  1  0  0  0  0
 18 22  1  0  0  0  0
 18 15  1  0  0  0  0
 20 19  1  0  0  0  0
 21 12  1  0  0  0  0
 22 17  2  0  0  0  0
 23 16  1  0  0  0  0
 23 19  2  0  0  0  0
 24  6  1  0  0  0  0
 25 32  1  6  0  0  0
 25 24  1  0  0  0  0
 26 31  1  0  0  0  0
 26 25  1  1  0  0  0
 27 31  1  0  0  0  0
 29 26  1  0  0  0  0
 29 28  1  1  0  0  0
 30 29  1  0  0  0  0
 30 27  1  0  0  0  0
 34 35  1  0  0  0  0
 34 33  1  0  0  0  0
 35 33  1  0  0  0  0
 35 32  1  1  0  0  0
M  END
>  <MODEL>
5

>  <REMARK>
 VINA RESULT:      -7.2      3.344      6.206
  Name = 
  7 active torsions:
  status: ('A' for Active; 'I' for Inactive)
    1  A    between atoms: C_1  and  C_14
    2  A    between atoms: C_3  and  N_25
    3  A    between atoms: C_4  and  C_7
    4  A    between atoms: C_4  and  C_9
    5  A    between atoms: C_4  and  C_18
    6  A    between atoms: C_9  and  C_27
    7  A    between atoms: C_18  and  C_28
                            x       y       z     vdW  Elec       q    Type
                         _______ _______ _______ _____ _____    ______ ____

>  <TORSDO>
F 7

$$$$
=
 OpenBabel11062413463D

 35 40  0  0  1  0  0  0  0  0999 V2000
  184.2460  177.5690  138.5050 C   0  0  2  0  0  3  0  0  0  0  0  0
  184.4000  178.9350  140.3290 C   0  0  1  0  0  3  0  0  0  0  0  0
  183.9700  176.1790  138.0330 C   0  0  0  0  0  2  0  0  0  0  0  0
  184.1440  177.6060  139.9080 O   0  0  0  0  0  0  0  0  0  0  0  0
  182.0790  177.5260  137.4780 O   0  0  0  0  0  0  0  0  0  0  0  0
  182.5020  176.1920  137.6630 C   0  0  2  0  0  0  0  0  0  0  0  0
  183.1230  178.3770  137.8810 C   0  0  1  0  0  3  0  0  0  0  0  0
  181.7010  175.5650  138.7900 C   0  0  0  0  0  1  0  0  0  0  0  0
  183.6780  179.9400  139.6190 O   0  0  0  0  0  0  0  0  0  0  0  0
  182.6010  179.3720  138.9090 C   0  0  0  0  0  2  0  0  0  0  0  0
  184.1360  179.0550  141.7930 C   0  0  0  0  0  3  0  0  0  0  0  0
  184.9460  178.5270  142.7050 C   0  0  0  0  0  3  0  0  0  0  0  0
  188.7370  177.2960  146.4150 C   0  0  0  0  0  3  0  0  0  0  0  0
  187.1560  177.7420  144.6490 C   0  0  0  0  0  0  0  0  0  0  0  0
  188.3640  177.2680  145.0740 C   0  0  0  0  0  0  0  0  0  0  0  0
  188.1550  177.8820  148.7820 C   0  0  0  0  0  1  0  0  0  0  0  0
  187.1730  177.5300  143.2860 C   0  0  0  0  0  0  0  0  0  0  0  0
  189.0400  176.8110  144.0470 O   0  0  0  0  0  0  0  0  0  0  0  0
  186.5560  178.3120  146.8950 C   0  0  0  0  0  3  0  0  0  0  0  0
  186.2080  178.2680  145.5300 C   0  0  0  0  0  3  0  0  0  0  0  0
  186.1450  177.8390  142.3410 N   0  0  0  0  0  2  0  0  0  0  0  0
  188.3480  176.9550  142.9440 N   0  0  0  0  0  0  0  0  0  0  0  0
  187.8140  177.8330  147.3350 C   0  0  0  0  0  0  0  0  0  0  0  0
  182.3170  175.3690  136.3860 C   0  0  0  0  0  2  0  0  0  0  0  0
  182.4210  173.8580  136.6200 C   0  0  2  0  0  3  0  0  0  0  0  0
  183.5690  173.2340  135.8190 C   0  0  2  0  0  3  0  0  0  0  0  0
  185.6440  173.5750  135.0460 C   0  0  0  0  0  2  0  0  0  0  0  0
  184.6680  172.8310  137.9130 O   0  0  0  0  0  1  0  0  0  0  0  0
  184.4350  172.3000  136.6440 C   0  0  2  0  0  3  0  0  0  0  0  0
  185.7190  172.3110  135.8810 C   0  0  0  0  0  2  0  0  0  0  0  0
  184.4100  174.2110  135.2570 O   0  0  0  0  0  0  0  0  0  0  0  0
  181.1030  173.1980  136.2280 C   0  0  0  0  0  2  0  0  0  0  0  0
  180.0140  171.0380  136.4830 N   0  0  0  0  0  2  0  0  0  0  0  0
  179.2920  172.0070  137.3220 C   0  0  0  0  0  2  0  0  0  0  0  0
  180.7440  172.0920  137.2050 C   0  0  2  0  0  3  0  0  0  0  0  0
  1  3  1  6  0  0  0
  1  4  1  0  0  0  0
  2 11  1  1  0  0  0
  4  2  1  0  0  0  0
  5  6  1  0  0  0  0
  5  7  1  0  0  0  0
  6  3  1  0  0  0  0
  6  8  1  1  0  0  0
  7  1  1  0  0  0  0
  7 10  1  1  0  0  0
  9  2  1  0  0  0  0
 10  9  1  0  0  0  0
 11 12  2  0  0  0  0
 13 23  1  0  0  0  0
 14 15  1  0  0  0  0
 14 20  2  0  0  0  0
 15 13  2  0  0  0  0
 17 14  1  0  0  0  0
 18 15  1  0  0  0  0
 19 23  2  0  0  0  0
 20 19  1  0  0  0  0
 21 12  1  0  0  0  0
 21 17  1  0  0  0  0
 22 17  2  0  0  0  0
 22 18  1  0  0  0  0
 23 16  1  0  0  0  0
 24 25  1  0  0  0  0
 24  6  1  0  0  0  0
 25 32  1  6  0  0  0
 26 25  1  1  0  0  0
 26 29  1  0  0  0  0
 27 31  1  0  0  0  0
 27 30  1  0  0  0  0
 29 28  1  1  0  0  0
 30 29  1  0  0  0  0
 31 26  1  0  0  0  0
 33 35  1  0  0  0  0
 33 34  1  0  0  0  0
 35 32  1  6  0  0  0
 35 34  1  0  0  0  0
M  END
>  <MODEL>
6

>  <REMARK>
 VINA RESULT:      -7.2      6.513      8.536
  Name = 
  7 active torsions:
  status: ('A' for Active; 'I' for Inactive)
    1  A    between atoms: C_1  and  C_14
    2  A    between atoms: C_3  and  N_25
    3  A    between atoms: C_4  and  C_7
    4  A    between atoms: C_4  and  C_9
    5  A    between atoms: C_4  and  C_18
    6  A    between atoms: C_9  and  C_27
    7  A    between atoms: C_18  and  C_28
                            x       y       z     vdW  Elec       q    Type
                         _______ _______ _______ _____ _____    ______ ____

>  <TORSDO>
F 7

$$$$
=
 OpenBabel11062413463D

 35 40  0  0  1  0  0  0  0  0999 V2000
  184.4160  179.4100  140.0840 C   0  0  2  0  0  3  0  0  0  0  0  0
  186.2300  179.0070  141.4120 C   0  0  1  0  0  3  0  0  0  0  0  0
  183.8150  179.2050  138.7310 C   0  0  0  0  0  2  0  0  0  0  0  0
  185.6880  178.8080  140.1180 O   0  0  0  0  0  0  0  0  0  0  0  0
  182.6750  177.7700  140.2600 O   0  0  0  0  0  0  0  0  0  0  0  0
  182.9410  177.9800  138.8900 C   0  0  2  0  0  0  0  0  0  0  0  0
  183.4640  178.6650  141.0030 C   0  0  1  0  0  3  0  0  0  0  0  0
  183.6740  176.7720  138.3330 C   0  0  0  0  0  1  0  0  0  0  0  0
  185.3510  178.6830  142.4890 O   0  0  0  0  0  0  0  0  0  0  0  0
  184.2770  177.8930  142.0340 C   0  0  0  0  0  2  0  0  0  0  0  0
  187.5030  178.2410  141.5440 C   0  0  0  0  0  3  0  0  0  0  0  0
  187.9600  177.8190  142.7180 C   0  0  0  0  0  3  0  0  0  0  0  0
  190.1580  176.6710  147.5670 C   0  0  0  0  0  3  0  0  0  0  0  0
  189.0410  177.2560  145.5100 C   0  0  0  0  0  0  0  0  0  0  0  0
  189.0400  177.1200  146.8690 C   0  0  0  0  0  0  0  0  0  0  0  0
  192.5360  175.8840  147.5090 C   0  0  0  0  0  1  0  0  0  0  0  0
  187.7750  177.7210  145.2180 C   0  0  0  0  0  0  0  0  0  0  0  0
  187.8700  177.4790  147.3420 O   0  0  0  0  0  0  0  0  0  0  0  0
  191.3140  176.5140  145.4090 C   0  0  0  0  0  3  0  0  0  0  0  0
  190.1670  176.9720  144.7320 C   0  0  0  0  0  3  0  0  0  0  0  0
  187.2380  178.0420  143.9310 N   0  0  0  0  0  2  0  0  0  0  0  0
  187.0770  177.8480  146.3680 N   0  0  0  0  0  0  0  0  0  0  0  0
  191.3100  176.3600  146.8160 C   0  0  0  0  0  0  0  0  0  0  0  0
  181.6490  178.2010  138.1000 C   0  0  0  0  0  2  0  0  0  0  0  0
  180.3840  177.9730  138.9360 C   0  0  2  0  0  3  0  0  0  0  0  0
  179.5250  176.8370  138.3720 C   0  0  2  0  0  3  0  0  0  0  0  0
  179.5730  174.9320  137.1940 C   0  0  0  0  0  2  0  0  0  0  0  0
  180.3430  175.4710  140.1670 O   0  0  0  0  0  1  0  0  0  0  0  0
  179.2180  175.7560  139.3920 C   0  0  2  0  0  3  0  0  0  0  0  0
  178.9310  174.5780  138.5200 C   0  0  0  0  0  2  0  0  0  0  0  0
  180.1320  176.2180  137.2650 O   0  0  0  0  0  0  0  0  0  0  0  0
  179.5700  179.2630  138.9740 C   0  0  0  0  0  2  0  0  0  0  0  0
  179.2800  181.3740  140.1460 N   0  0  0  0  0  2  0  0  0  0  0  0
  180.3340  181.5610  139.1370 C   0  0  0  0  0  2  0  0  0  0  0  0
  180.2410  180.2970  139.8600 C   0  0  2  0  0  3  0  0  0  0  0  0
  1  3  1  6  0  0  0
  1  4  1  0  0  0  0
  1  7  1  0  0  0  0
  2 11  1  6  0  0  0
  2  9  1  0  0  0  0
  3  6  1  0  0  0  0
  4  2  1  0  0  0  0
  5  7  1  0  0  0  0
  6  8  1  6  0  0  0
  6  5  1  0  0  0  0
  7 10  1  1  0  0  0
 10  9  1  0  0  0  0
 11 12  2  0  0  0  0
 12 21  1  0  0  0  0
 14 15  2  0  0  0  0
 15 18  1  0  0  0  0
 15 13  1  0  0  0  0
 17 14  1  0  0  0  0
 17 22  2  0  0  0  0
 19 23  1  0  0  0  0
 20 19  2  0  0  0  0
 20 14  1  0  0  0  0
 21 17  1  0  0  0  0
 22 18  1  0  0  0  0
 23 16  1  0  0  0  0
 23 13  2  0  0  0  0
 24  6  1  0  0  0  0
 25 24  1  6  0  0  0
 25 32  1  0  0  0  0
 26 25  1  1  0  0  0
 26 29  1  0  0  0  0
 27 31  1  0  0  0  0
 27 30  1  0  0  0  0
 29 28  1  1  0  0  0
 30 29  1  0  0  0  0
 31 26  1  0  0  0  0
 34 35  1  0  0  0  0
 34 33  1  0  0  0  0
 35 32  1  6  0  0  0
 35 33  1  0  0  0  0
M  END
>  <MODEL>
7

>  <REMARK>
 VINA RESULT:      -7.2      7.016     10.512
  Name = 
  7 active torsions:
  status: ('A' for Active; 'I' for Inactive)
    1  A    between atoms: C_1  and  C_14
    2  A    between atoms: C_3  and  N_25
    3  A    between atoms: C_4  and  C_7
    4  A    between atoms: C_4  and  C_9
    5  A    between atoms: C_4  and  C_18
    6  A    between atoms: C_9  and  C_27
    7  A    between atoms: C_18  and  C_28
                            x       y       z     vdW  Elec       q    Type
                         _______ _______ _______ _____ _____    ______ ____

>  <TORSDO>
F 7

$$$$
=
 OpenBabel11062413463D

 35 40  0  0  1  0  0  0  0  0999 V2000
  190.0610  177.8470  140.7940 C   0  0  2  0  0  3  0  0  0  0  0  0
  190.3430  176.8510  138.7580 C   0  0  1  0  0  3  0  0  0  0  0  0
  189.3870  177.7530  142.1240 C   0  0  0  0  0  2  0  0  0  0  0  0
  189.6820  176.7430  140.0080 O   0  0  0  0  0  0  0  0  0  0  0  0
  191.6930  177.2250  142.4380 O   0  0  0  0  0  0  0  0  0  0  0  0
  190.4140  177.0970  143.0210 C   0  0  2  0  0  0  0  0  0  0  0  0
  191.5350  177.7550  141.1450 C   0  0  1  0  0  3  0  0  0  0  0  0
  190.0760  175.6240  143.1670 C   0  0  0  0  0  1  0  0  0  0  0  0
  191.7430  177.1160  138.8390 O   0  0  0  0  0  0  0  0  0  0  0  0
  192.2270  176.8490  140.1350 C   0  0  0  0  0  2  0  0  0  0  0  0
  190.1020  175.6150  137.9580 C   0  0  0  0  0  3  0  0  0  0  0  0
  189.0200  175.4570  137.2040 C   0  0  0  0  0  3  0  0  0  0  0  0
  183.7240  174.2450  136.8260 C   0  0  0  0  0  3  0  0  0  0  0  0
  186.0210  174.9610  137.0040 C   0  0  0  0  0  0  0  0  0  0  0  0
  184.6960  175.2420  136.8290 C   0  0  0  0  0  0  0  0  0  0  0  0
  183.1620  171.8110  137.0340 C   0  0  0  0  0  1  0  0  0  0  0  0
  186.6360  176.1950  136.9490 C   0  0  0  0  0  0  0  0  0  0  0  0
  184.5400  176.5360  136.6840 O   0  0  0  0  0  0  0  0  0  0  0  0
  185.5280  172.6280  137.2140 C   0  0  0  0  0  3  0  0  0  0  0  0
  186.4870  173.6600  137.2130 C   0  0  0  0  0  3  0  0  0  0  0  0
  188.0310  176.4820  137.0820 N   0  0  0  0  0  2  0  0  0  0  0  0
  185.6960  177.1460  136.7500 N   0  0  0  0  0  0  0  0  0  0  0  0
  184.1570  172.9170  137.0190 C   0  0  0  0  0  0  0  0  0  0  0  0
  190.3600  177.7710  144.3940 C   0  0  0  0  0  2  0  0  0  0  0  0
  189.3540  177.1190  145.3490 C   0  0  2  0  0  3  0  0  0  0  0  0
  188.1740  178.0470  145.6540 C   0  0  2  0  0  3  0  0  0  0  0  0
  185.9400  178.2260  145.6120 C   0  0  0  0  0  2  0  0  0  0  0  0
  187.7960  176.7390  147.6300 O   0  0  0  0  0  1  0  0  0  0  0  0
  187.7680  178.0360  147.1170 C   0  0  2  0  0  3  0  0  0  0  0  0
  186.3460  178.4900  147.0480 C   0  0  0  0  0  2  0  0  0  0  0  0
  187.0370  177.7210  144.8940 O   0  0  0  0  0  0  0  0  0  0  0  0
  190.0630  176.7460  146.6460 C   0  0  0  0  0  2  0  0  0  0  0  0
  192.0630  175.3640  146.5810 N   0  0  0  0  0  2  0  0  0  0  0  0
  192.2100  176.3150  147.6940 C   0  0  0  0  0  2  0  0  0  0  0  0
  191.5680  176.7440  146.4550 C   0  0  2  0  0  3  0  0  0  0  0  0
  1  7  1  0  0  0  0
  1  3  1  1  0  0  0
  2 11  1  1  0  0  0
  2  9  1  0  0  0  0
  2  4  1  0  0  0  0
  3  6  1  0  0  0  0
  4  1  1  0  0  0  0
  5  6  1  0  0  0  0
  6  8  1  1  0  0  0
  6 24  1  0  0  0  0
  7 10  1  6  0  0  0
  7  5  1  0  0  0  0
  9 10  1  0  0  0  0
 12 11  2  0  0  0  0
 13 15  2  0  0  0  0
 13 23  1  0  0  0  0
 14 20  2  0  0  0  0
 15 14  1  0  0  0  0
 17 14  1  0  0  0  0
 17 21  1  0  0  0  0
 18 22  1  0  0  0  0
 18 15  1  0  0  0  0
 20 19  1  0  0  0  0
 21 12  1  0  0  0  0
 22 17  2  0  0  0  0
 23 16  1  0  0  0  0
 23 19  2  0  0  0  0
 25 24  1  6  0  0  0
 25 32  1  0  0  0  0
 26 25  1  1  0  0  0
 26 29  1  0  0  0  0
 27 30  1  0  0  0  0
 29 28  1  6  0  0  0
 30 29  1  0  0  0  0
 31 27  1  0  0  0  0
 31 26  1  0  0  0  0
 33 34  1  0  0  0  0
 35 33  1  0  0  0  0
 35 32  1  1  0  0  0
 35 34  1  0  0  0  0
M  END
>  <MODEL>
8

>  <REMARK>
 VINA RESULT:      -7.2      3.788      9.762
  Name = 
  7 active torsions:
  status: ('A' for Active; 'I' for Inactive)
    1  A    between atoms: C_1  and  C_14
    2  A    between atoms: C_3  and  N_25
    3  A    between atoms: C_4  and  C_7
    4  A    between atoms: C_4  and  C_9
    5  A    between atoms: C_4  and  C_18
    6  A    between atoms: C_9  and  C_27
    7  A    between atoms: C_18  and  C_28
                            x       y       z     vdW  Elec       q    Type
                         _______ _______ _______ _____ _____    ______ ____

>  <TORSDO>
F 7

$$$$
=
 OpenBabel11062413463D

 35 40  0  0  1  0  0  0  0  0999 V2000
  184.3620  179.3760  140.1160 C   0  0  2  0  0  3  0  0  0  0  0  0
  186.2310  179.0350  141.3850 C   0  0  1  0  0  3  0  0  0  0  0  0
  183.6750  179.0500  138.8300 C   0  0  0  0  0  2  0  0  0  0  0  0
  185.6060  178.7190  140.1520 O   0  0  0  0  0  0  0  0  0  0  0  0
  182.5630  177.8560  140.5720 O   0  0  0  0  0  0  0  0  0  0  0  0
  182.7580  177.8960  139.1750 C   0  0  2  0  0  0  0  0  0  0  0  0
  183.4340  178.7890  141.1640 C   0  0  1  0  0  3  0  0  0  0  0  0
  183.4040  176.5980  138.7230 C   0  0  0  0  0  1  0  0  0  0  0  0
  185.4030  178.8790  142.5360 O   0  0  0  0  0  0  0  0  0  0  0  0
  184.2700  178.0980  142.2330 C   0  0  0  0  0  2  0  0  0  0  0  0
  187.4750  178.2250  141.5360 C   0  0  0  0  0  3  0  0  0  0  0  0
  187.8900  177.7770  142.7160 C   0  0  0  0  0  3  0  0  0  0  0  0
  190.0390  176.7550  147.6140 C   0  0  0  0  0  3  0  0  0  0  0  0
  188.9420  177.2830  145.5320 C   0  0  0  0  0  0  0  0  0  0  0  0
  188.9240  177.1740  146.8930 C   0  0  0  0  0  0  0  0  0  0  0  0
  192.4300  176.0030  147.6020 C   0  0  0  0  0  1  0  0  0  0  0  0
  187.6740  177.7240  145.2140 C   0  0  0  0  0  0  0  0  0  0  0  0
  187.7430  177.5230  147.3440 O   0  0  0  0  0  0  0  0  0  0  0  0
  191.2280  176.5740  145.4750 C   0  0  0  0  0  3  0  0  0  0  0  0
  190.0820  177.0020  144.7740 C   0  0  0  0  0  3  0  0  0  0  0  0
  187.1490  178.0120  143.9150 N   0  0  0  0  0  2  0  0  0  0  0  0
  186.9580  177.8620  146.3530 N   0  0  0  0  0  0  0  0  0  0  0  0
  191.2060  176.4470  146.8840 C   0  0  0  0  0  0  0  0  0  0  0  0
  181.4330  178.0920  138.4340 C   0  0  0  0  0  2  0  0  0  0  0  0
  181.3050  179.4720  137.7810 C   0  0  2  0  0  3  0  0  0  0  0  0
  180.1340  180.2720  138.3630 C   0  0  2  0  0  3  0  0  0  0  0  0
  179.3500  181.2640  140.2120 C   0  0  0  0  0  2  0  0  0  0  0  0
  181.5220  182.2220  138.1890 O   0  0  0  0  0  1  0  0  0  0  0  0
  180.2130  181.7560  138.0550 C   0  0  2  0  0  3  0  0  0  0  0  0
  179.3840  182.3450  139.1500 C   0  0  0  0  0  2  0  0  0  0  0  0
  180.0430  180.1300  139.7590 O   0  0  0  0  0  0  0  0  0  0  0  0
  181.1110  179.2990  136.2780 C   0  0  0  0  0  2  0  0  0  0  0  0
  181.5570  177.3890  134.8390 N   0  0  0  0  0  2  0  0  0  0  0  0
  180.1730  177.8230  134.5940 C   0  0  0  0  0  2  0  0  0  0  0  0
  180.7160  177.8710  135.9470 C   0  0  2  0  0  3  0  0  0  0  0  0
  1  3  1  6  0  0  0
  1  4  1  0  0  0  0
  1  7  1  0  0  0  0
  2 11  1  1  0  0  0
  2  9  1  0  0  0  0
  3  6  1  0  0  0  0
  4  2  1  0  0  0  0
  5  7  1  0  0  0  0
  6  8  1  6  0  0  0
  6  5  1  0  0  0  0
  7 10  1  1  0  0  0
 10  9  1  0  0  0  0
 11 12  2  0  0  0  0
 12 21  1  0  0  0  0
 14 15  2  0  0  0  0
 15 18  1  0  0  0  0
 15 13  1  0  0  0  0
 17 14  1  0  0  0  0
 17 22  2  0  0  0  0
 19 23  1  0  0  0  0
 20 19  2  0  0  0  0
 20 14  1  0  0  0  0
 21 17  1  0  0  0  0
 22 18  1  0  0  0  0
 23 16  1  0  0  0  0
 23 13  2  0  0  0  0
 24  6  1  0  0  0  0
 25 32  1  6  0  0  0
 25 24  1  0  0  0  0
 26 25  1  1  0  0  0
 26 31  1  0  0  0  0
 29 28  1  1  0  0  0
 29 26  1  0  0  0  0
 29 30  1  0  0  0  0
 30 27  1  0  0  0  0
 31 27  1  0  0  0  0
 33 35  1  0  0  0  0
 34 33  1  0  0  0  0
 34 35  1  0  0  0  0
 35 32  1  6  0  0  0
M  END
>  <MODEL>
9

>  <REMARK>
 VINA RESULT:      -7.1      7.043     10.277
  Name = 
  7 active torsions:
  status: ('A' for Active; 'I' for Inactive)
    1  A    between atoms: C_1  and  C_14
    2  A    between atoms: C_3  and  N_25
    3  A    between atoms: C_4  and  C_7
    4  A    between atoms: C_4  and  C_9
    5  A    between atoms: C_4  and  C_18
    6  A    between atoms: C_9  and  C_27
    7  A    between atoms: C_18  and  C_28
                            x       y       z     vdW  Elec       q    Type
                         _______ _______ _______ _____ _____    ______ ____

>  <TORSDO>
F 7

$$$$
