=
 OpenBabel11062413253D

 30 33  0  0  1  0  0  0  0  0999 V2000
  188.5740  178.4560  140.4940 C   0  0  0  0  0  2  0  0  0  0  0  0
  188.9200  177.5440  145.3720 C   0  0  0  0  0  2  0  0  0  0  0  0
  188.4150  177.6810  142.8840 C   0  0  1  0  0  3  0  0  0  0  0  0
  186.9200  177.4030  143.1160 C   0  0  0  0  0  2  0  0  0  0  0  0
  187.4680  178.0340  145.4970 C   0  0  1  0  0  3  0  0  0  0  0  0
  186.5420  177.2290  144.5920 C   0  0  0  0  0  2  0  0  0  0  0  0
  190.2170  176.7860  141.2930 C   0  0  0  0  0  0  0  0  0  0  0  0
  189.2770  177.0220  143.9740 C   0  0  1  0  0  3  0  0  0  0  0  0
  188.8020  177.2850  141.4430 C   0  0  2  0  0  3  0  0  0  0  0  0
  191.1090  176.7400  142.4080 N   0  0  0  0  0  2  0  0  0  0  0  0
  190.6060  176.3520  140.1760 O   0  0  0  0  0  0  0  0  0  0  0  0
  190.7440  177.3000  143.6990 C   0  0  0  0  0  2  0  0  0  0  0  0
  186.9960  177.9290  146.9370 C   0  0  0  0  0  2  0  0  0  0  0  0
  184.5360  178.3310  146.9200 O   0  0  0  0  0  0  0  0  0  0  0  0
  185.8150  178.8070  147.1690 C   0  0  0  0  0  0  0  0  0  0  0  0
  185.9770  179.9920  147.5630 O   0  0  0  0  0  1  0  0  0  0  0  0
  188.1540  178.5310  138.0000 C   0  0  0  0  0  0  0  0  0  0  0  0
  189.0740  179.3760  137.8360 O   0  0  0  0  0  0  0  0  0  0  0  0
  187.8790  178.0060  139.3010 N   0  0  0  0  0  2  0  0  0  0  0  0
  189.3900  177.1800  135.6950 N   0  0  0  0  0  0  0  0  0  0  0  0
  187.7160  175.7030  136.7060 C   0  0  2  0  0  3  0  0  0  0  0  0
  185.9220  175.7190  136.9330 S   0  0  0  0  0  0  0  0  0  0  0  0
  190.0590  176.1480  135.2670 C   0  0  0  0  0  3  0  0  0  0  0  0
  185.9940  177.5200  137.3030 C   0  0  0  0  0  2  0  0  0  0  0  0
  189.4390  174.8450  135.2330 N   0  0  0  0  0  0  0  0  0  0  0  0
  187.3260  178.1050  136.8230 C   0  0  2  0  0  3  0  0  0  0  0  0
  187.9740  177.0080  136.0030 C   0  0  1  0  0  3  0  0  0  0  0  0
  188.3280  174.5930  135.8720 C   0  0  0  0  0  0  0  0  0  0  0  0
  187.8500  172.4030  136.9420 C   0  0  0  0  0  1  0  0  0  0  0  0
  187.8210  173.2890  135.8330 O   0  0  0  0  0  0  0  0  0  0  0  0
  2  5  1  0  0  0  0
  3  4  1  1  0  0  0
  3  8  1  0  0  0  0
  4  6  1  0  0  0  0
  5 13  1  1  0  0  0
  6  5  1  0  0  0  0
  7  9  1  0  0  0  0
  7 10  1  0  0  0  0
  8 12  1  6  0  0  0
  8  2  1  0  0  0  0
  9  1  1  6  0  0  0
  9  3  1  0  0  0  0
 10 12  1  0  0  0  0
 11  7  2  0  0  0  0
 13 15  1  0  0  0  0
 14 15  2  0  0  0  0
 15 16  1  0  0  0  0
 17 19  1  0  0  0  0
 18 17  2  0  0  0  0
 19  1  1  0  0  0  0
 21 28  1  6  0  0  0
 21 22  1  0  0  0  0
 22 24  1  0  0  0  0
 23 20  2  0  0  0  0
 25 23  1  0  0  0  0
 25 28  2  0  0  0  0
 26 24  1  0  0  0  0
 26 17  1  1  0  0  0
 27 20  1  1  0  0  0
 27 21  1  0  0  0  0
 27 26  1  0  0  0  0
 30 28  1  0  0  0  0
 30 29  1  0  0  0  0
M  END
>  <MODEL>
1

>  <REMARK>
 VINA RESULT:      -8.4      0.000      0.000
  Name = 
  6 active torsions:
  status: ('A' for Active; 'I' for Inactive)
    1  A    between atoms: C_6  and  N_20
    2  A    between atoms: C_6  and  C_26
    3  A    between atoms: C_8  and  C_21
    4  A    between atoms: C_11  and  C_23
    5  A    between atoms: C_14  and  C_23
    6  A    between atoms: O_17  and  C_28
                            x       y       z     vdW  Elec       q    Type
                         _______ _______ _______ _____ _____    ______ ____

>  <TORSDO>
F 6

$$$$
=
 OpenBabel11062413253D

 30 33  0  0  1  0  0  0  0  0999 V2000
  187.6550  177.2960  146.3770 C   0  0  0  0  0  2  0  0  0  0  0  0
  191.6870  176.7510  143.5160 C   0  0  0  0  0  2  0  0  0  0  0  0
  189.6480  177.4760  144.8500 C   0  0  1  0  0  3  0  0  0  0  0  0
  189.2360  178.4920  143.7720 C   0  0  0  0  0  2  0  0  0  0  0  0
  190.8100  177.1570  142.3210 C   0  0  1  0  0  3  0  0  0  0  0  0
  190.1690  178.5200  142.5550 C   0  0  0  0  0  2  0  0  0  0  0  0
  189.8970  177.5160  147.4020 C   0  0  0  0  0  0  0  0  0  0  0  0
  191.1730  177.2710  144.8650 C   0  0  1  0  0  3  0  0  0  0  0  0
  189.0500  177.8880  146.2120 C   0  0  2  0  0  3  0  0  0  0  0  0
  191.1240  176.8010  147.2450 N   0  0  0  0  0  2  0  0  0  0  0  0
  189.5440  177.8860  148.5540 O   0  0  0  0  0  0  0  0  0  0  0  0
  191.5410  176.2800  145.9530 C   0  0  0  0  0  2  0  0  0  0  0  0
  191.6350  177.1910  141.0460 C   0  0  0  0  0  2  0  0  0  0  0  0
  189.9870  177.9840  139.3520 O   0  0  0  0  0  1  0  0  0  0  0  0
  190.7720  176.9560  139.8540 C   0  0  0  0  0  0  0  0  0  0  0  0
  190.7320  175.8170  139.3180 O   0  0  0  0  0  0  0  0  0  0  0  0
  185.9030  178.2220  144.8040 C   0  0  0  0  0  0  0  0  0  0  0  0
  186.0560  177.2550  144.0100 O   0  0  0  0  0  0  0  0  0  0  0  0
  186.6480  178.2810  146.0220 N   0  0  0  0  0  2  0  0  0  0  0  0
  185.8090  179.2960  142.0640 N   0  0  0  0  0  0  0  0  0  0  0  0
  183.6210  178.3590  142.6500 C   0  0  2  0  0  3  0  0  0  0  0  0
  182.3170  178.7270  143.8490 S   0  0  0  0  0  0  0  0  0  0  0  0
  185.5890  179.0490  140.8050 C   0  0  0  0  0  3  0  0  0  0  0  0
  183.5990  179.0970  145.1160 C   0  0  0  0  0  2  0  0  0  0  0  0
  184.2530  178.7560  140.3450 N   0  0  0  0  0  0  0  0  0  0  0  0
  184.9560  179.3280  144.4440 C   0  0  2  0  0  3  0  0  0  0  0  0
  184.6610  179.4010  142.9590 C   0  0  1  0  0  3  0  0  0  0  0  0
  183.2900  178.4500  141.1730 C   0  0  0  0  0  0  0  0  0  0  0  0
  181.7850  176.9490  139.8890 C   0  0  0  0  0  1  0  0  0  0  0  0
  182.0360  178.1260  140.6420 O   0  0  0  0  0  0  0  0  0  0  0  0
  3  4  1  6  0  0  0
  3  8  1  0  0  0  0
  3  9  1  0  0  0  0
  5 13  1  6  0  0  0
  5  6  1  0  0  0  0
  5  2  1  0  0  0  0
  6  4  1  0  0  0  0
  7 11  2  0  0  0  0
  8  2  1  6  0  0  0
  8 12  1  0  0  0  0
  9  1  1  1  0  0  0
  9  7  1  0  0  0  0
 10  7  1  0  0  0  0
 12 10  1  0  0  0  0
 14 15  1  0  0  0  0
 15 13  1  0  0  0  0
 16 15  2  0  0  0  0
 17 19  1  0  0  0  0
 18 17  2  0  0  0  0
 19  1  1  0  0  0  0
 21 28  1  6  0  0  0
 21 27  1  0  0  0  0
 21 22  1  0  0  0  0
 22 24  1  0  0  0  0
 23 20  2  0  0  0  0
 25 23  1  0  0  0  0
 25 28  2  0  0  0  0
 26 17  1  6  0  0  0
 26 24  1  0  0  0  0
 27 20  1  6  0  0  0
 27 26  1  0  0  0  0
 29 30  1  0  0  0  0
 30 28  1  0  0  0  0
M  END
>  <MODEL>
2

>  <REMARK>
 VINA RESULT:      -7.9      4.081      7.031
  Name = 
  6 active torsions:
  status: ('A' for Active; 'I' for Inactive)
    1  A    between atoms: C_6  and  N_20
    2  A    between atoms: C_6  and  C_26
    3  A    between atoms: C_8  and  C_21
    4  A    between atoms: C_11  and  C_23
    5  A    between atoms: C_14  and  C_23
    6  A    between atoms: O_17  and  C_28
                            x       y       z     vdW  Elec       q    Type
                         _______ _______ _______ _____ _____    ______ ____

>  <TORSDO>
F 6

$$$$
=
 OpenBabel11062413253D

 30 33  0  0  1  0  0  0  0  0999 V2000
  184.3290  178.0640  142.5600 C   0  0  0  0  0  2  0  0  0  0  0  0
  188.6560  176.8150  144.6720 C   0  0  0  0  0  2  0  0  0  0  0  0
  186.6870  177.8010  143.4020 C   0  0  1  0  0  3  0  0  0  0  0  0
  187.5820  178.2030  142.2170 C   0  0  0  0  0  2  0  0  0  0  0  0
  189.1980  176.5670  143.2550 C   0  0  1  0  0  3  0  0  0  0  0  0
  189.0560  177.8140  142.3920 C   0  0  0  0  0  2  0  0  0  0  0  0
  184.8760  178.9580  144.8020 C   0  0  0  0  0  0  0  0  0  0  0  0
  187.4800  177.7990  144.7200 C   0  0  1  0  0  3  0  0  0  0  0  0
  185.4210  178.6850  143.4230 C   0  0  2  0  0  3  0  0  0  0  0  0
  185.4830  178.3910  145.9650 N   0  0  0  0  0  2  0  0  0  0  0  0
  183.8990  179.7420  144.9380 O   0  0  0  0  0  0  0  0  0  0  0  0
  186.5590  177.4190  145.8650 C   0  0  0  0  0  2  0  0  0  0  0  0
  190.6560  176.1460  143.3120 C   0  0  0  0  0  2  0  0  0  0  0  0
  191.7200  178.2220  144.1900 O   0  0  0  0  0  0  0  0  0  0  0  0
  191.3780  176.8910  144.3820 C   0  0  0  0  0  0  0  0  0  0  0  0
  191.7050  176.3070  145.4480 O   0  0  0  0  0  1  0  0  0  0  0  0
  183.7230  178.0590  140.1040 C   0  0  0  0  0  0  0  0  0  0  0  0
  183.1140  176.9620  140.2210 O   0  0  0  0  0  0  0  0  0  0  0  0
  184.3200  178.6790  141.2440 N   0  0  0  0  0  2  0  0  0  0  0  0
  186.3590  178.4720  138.8590 N   0  0  0  0  0  0  0  0  0  0  0  0
  185.0070  177.0000  137.4400 C   0  0  2  0  0  3  0  0  0  0  0  0
  183.4820  177.1460  136.4790 S   0  0  0  0  0  0  0  0  0  0  0  0
  187.4500  177.9210  138.4100 C   0  0  0  0  0  3  0  0  0  0  0  0
  182.7440  178.1650  137.8230 C   0  0  0  0  0  2  0  0  0  0  0  0
  187.4170  177.1160  137.2120 N   0  0  0  0  0  0  0  0  0  0  0  0
  183.8430  178.6940  138.7490 C   0  0  2  0  0  3  0  0  0  0  0  0
  185.1480  178.3670  138.0510 C   0  0  1  0  0  3  0  0  0  0  0  0
  186.2950  176.6800  136.7050 C   0  0  0  0  0  0  0  0  0  0  0  0
  187.5430  175.2290  135.1230 C   0  0  0  0  0  1  0  0  0  0  0  0
  186.3540  175.8590  135.5730 O   0  0  0  0  0  0  0  0  0  0  0  0
  3  4  1  6  0  0  0
  3  9  1  0  0  0  0
  3  8  1  0  0  0  0
  4  6  1  0  0  0  0
  5 13  1  1  0  0  0
  5  2  1  0  0  0  0
  6  5  1  0  0  0  0
  7 11  2  0  0  0  0
  7 10  1  0  0  0  0
  8  2  1  6  0  0  0
  8 12  1  0  0  0  0
  9  1  1  6  0  0  0
  9  7  1  0  0  0  0
 12 10  1  0  0  0  0
 13 15  1  0  0  0  0
 14 15  2  0  0  0  0
 15 16  1  0  0  0  0
 17 18  2  0  0  0  0
 17 19  1  0  0  0  0
 19  1  1  0  0  0  0
 21 22  1  6  0  0  0
 21 27  1  0  0  0  0
 22 24  1  0  0  0  0
 23 20  2  0  0  0  0
 24 26  1  0  0  0  0
 25 23  1  0  0  0  0
 26 17  1  1  0  0  0
 27 26  1  0  0  0  0
 27 20  1  1  0  0  0
 28 25  2  0  0  0  0
 28 21  1  0  0  0  0
 29 30  1  0  0  0  0
 30 28  1  0  0  0  0
M  END
>  <MODEL>
3

>  <REMARK>
 VINA RESULT:      -7.8      2.931      4.756
  Name = 
  6 active torsions:
  status: ('A' for Active; 'I' for Inactive)
    1  A    between atoms: C_6  and  N_20
    2  A    between atoms: C_6  and  C_26
    3  A    between atoms: C_8  and  C_21
    4  A    between atoms: C_11  and  C_23
    5  A    between atoms: C_14  and  C_23
    6  A    between atoms: O_17  and  C_28
                            x       y       z     vdW  Elec       q    Type
                         _______ _______ _______ _____ _____    ______ ____

>  <TORSDO>
F 6

$$$$
=
 OpenBabel11062413253D

 30 33  0  0  1  0  0  0  0  0999 V2000
  190.9710  177.4260  144.9760 C   0  0  0  0  0  2  0  0  0  0  0  0
  186.7550  178.6720  147.3050 C   0  0  0  0  0  2  0  0  0  0  0  0
  188.6960  177.6290  146.0360 C   0  0  1  0  0  3  0  0  0  0  0  0
  187.7460  176.8740  145.0920 C   0  0  0  0  0  2  0  0  0  0  0  0
  186.0450  178.5290  145.9490 C   0  0  1  0  0  3  0  0  0  0  0  0
  186.2600  177.1370  145.3660 C   0  0  0  0  0  2  0  0  0  0  0  0
  190.7760  177.0210  147.4100 C   0  0  0  0  0  0  0  0  0  0  0  0
  188.0490  177.8530  147.4140 C   0  0  1  0  0  3  0  0  0  0  0  0
  190.0620  176.9110  146.0860 C   0  0  2  0  0  3  0  0  0  0  0  0
  190.2220  177.7750  148.4900 N   0  0  0  0  0  2  0  0  0  0  0  0
  191.8550  176.3960  147.5860 O   0  0  0  0  0  0  0  0  0  0  0  0
  189.0230  178.5800  148.3210 C   0  0  0  0  0  2  0  0  0  0  0  0
  184.5580  178.7970  146.1000 C   0  0  0  0  0  2  0  0  0  0  0  0
  184.6410  179.9090  143.8700 O   0  0  0  0  0  0  0  0  0  0  0  0
  183.9450  179.1280  144.7830 C   0  0  0  0  0  0  0  0  0  0  0  0
  182.7850  178.7260  144.5070 O   0  0  0  0  0  1  0  0  0  0  0  0
  191.0090  177.2150  142.4550 C   0  0  0  0  0  0  0  0  0  0  0  0
  191.5300  178.3560  142.3330 O   0  0  0  0  0  0  0  0  0  0  0  0
  190.7390  176.6790  143.7520 N   0  0  0  0  0  2  0  0  0  0  0  0
  188.2650  177.2730  141.3890 N   0  0  0  0  0  0  0  0  0  0  0  0
  189.8160  178.1490  139.7040 C   0  0  2  0  0  3  0  0  0  0  0  0
  191.1900  177.4990  138.7250 S   0  0  0  0  0  0  0  0  0  0  0  0
  187.3030  177.9990  140.8970 C   0  0  0  0  0  3  0  0  0  0  0  0
  191.7660  176.5410  140.1870 C   0  0  0  0  0  2  0  0  0  0  0  0
  187.4350  178.5870  139.5850 N   0  0  0  0  0  0  0  0  0  0  0  0
  190.6450  176.4360  141.2250 C   0  0  2  0  0  3  0  0  0  0  0  0
  189.4040  176.9620  140.5320 C   0  0  1  0  0  3  0  0  0  0  0  0
  188.5870  178.6600  138.9750 C   0  0  0  0  0  0  0  0  0  0  0  0
  188.2620  178.6650  136.5130 C   0  0  0  0  0  1  0  0  0  0  0  0
  188.6390  179.2940  137.7290 O   0  0  0  0  0  0  0  0  0  0  0  0
  3  4  1  6  0  0  0
  3  9  1  0  0  0  0
  3  8  1  0  0  0  0
  4  6  1  0  0  0  0
  5 13  1  1  0  0  0
  5  2  1  0  0  0  0
  6  5  1  0  0  0  0
  7 11  2  0  0  0  0
  7 10  1  0  0  0  0
  8  2  1  6  0  0  0
  8 12  1  0  0  0  0
  9  1  1  6  0  0  0
  9  7  1  0  0  0  0
 12 10  1  0  0  0  0
 14 15  2  0  0  0  0
 15 13  1  0  0  0  0
 16 15  1  0  0  0  0
 17 19  1  0  0  0  0
 18 17  2  0  0  0  0
 19  1  1  0  0  0  0
 21 22  1  6  0  0  0
 21 27  1  0  0  0  0
 22 24  1  0  0  0  0
 23 20  2  0  0  0  0
 24 26  1  0  0  0  0
 25 23  1  0  0  0  0
 26 17  1  1  0  0  0
 27 26  1  0  0  0  0
 27 20  1  1  0  0  0
 28 25  2  0  0  0  0
 28 21  1  0  0  0  0
 29 30  1  0  0  0  0
 30 28  1  0  0  0  0
M  END
>  <MODEL>
4

>  <REMARK>
 VINA RESULT:      -7.7      3.047      5.029
  Name = 
  6 active torsions:
  status: ('A' for Active; 'I' for Inactive)
    1  A    between atoms: C_6  and  N_20
    2  A    between atoms: C_6  and  C_26
    3  A    between atoms: C_8  and  C_21
    4  A    between atoms: C_11  and  C_23
    5  A    between atoms: C_14  and  C_23
    6  A    between atoms: O_17  and  C_28
                            x       y       z     vdW  Elec       q    Type
                         _______ _______ _______ _____ _____    ______ ____

>  <TORSDO>
F 6

$$$$
=
 OpenBabel11062413253D

 30 33  0  0  1  0  0  0  0  0999 V2000
  185.6880  177.7700  142.9470 C   0  0  0  0  0  2  0  0  0  0  0  0
  188.1040  177.4320  147.2820 C   0  0  0  0  0  2  0  0  0  0  0  0
  187.1670  177.9510  144.9760 C   0  0  1  0  0  3  0  0  0  0  0  0
  188.5610  178.2950  144.4260 C   0  0  0  0  0  2  0  0  0  0  0  0
  189.3580  177.0580  146.4760 C   0  0  1  0  0  3  0  0  0  0  0  0
  189.6900  178.1380  145.4520 C   0  0  0  0  0  2  0  0  0  0  0  0
  184.8470  179.0430  144.8950 C   0  0  0  0  0  0  0  0  0  0  0  0
  187.0770  178.2460  146.4830 C   0  0  1  0  0  3  0  0  0  0  0  0
  186.0830  178.6500  144.1270 C   0  0  2  0  0  3  0  0  0  0  0  0
  184.7090  178.7370  146.2840 N   0  0  0  0  0  2  0  0  0  0  0  0
  183.9410  179.7000  144.3170 O   0  0  0  0  0  0  0  0  0  0  0  0
  185.6830  177.9140  146.9830 C   0  0  0  0  0  2  0  0  0  0  0  0
  190.5420  176.8500  147.4040 C   0  0  0  0  0  2  0  0  0  0  0  0
  192.6990  175.6000  147.4070 O   0  0  0  0  0  1  0  0  0  0  0  0
  191.6620  176.1770  146.6880 C   0  0  0  0  0  0  0  0  0  0  0  0
  191.6840  176.1560  145.4290 O   0  0  0  0  0  0  0  0  0  0  0  0
  184.2550  178.4540  140.9770 C   0  0  0  0  0  0  0  0  0  0  0  0
  183.3490  177.6430  141.3110 O   0  0  0  0  0  0  0  0  0  0  0  0
  185.4330  178.5890  141.7750 N   0  0  0  0  0  2  0  0  0  0  0  0
  186.3570  178.4410  138.9150 N   0  0  0  0  0  0  0  0  0  0  0  0
  184.2730  177.5680  137.9630 C   0  0  2  0  0  3  0  0  0  0  0  0
  182.6200  178.2150  137.6150 S   0  0  0  0  0  0  0  0  0  0  0  0
  187.0510  177.7310  138.0720 C   0  0  0  0  0  3  0  0  0  0  0  0
  182.6610  179.1470  139.2010 C   0  0  0  0  0  2  0  0  0  0  0  0
  186.4170  177.1590  136.9090 N   0  0  0  0  0  0  0  0  0  0  0  0
  184.1000  179.2520  139.7160 C   0  0  2  0  0  3  0  0  0  0  0  0
  184.9700  178.7490  138.5810 C   0  0  1  0  0  3  0  0  0  0  0  0
  185.1180  177.0810  136.8010 C   0  0  0  0  0  0  0  0  0  0  0  0
  184.1480  175.1100  135.6410 C   0  0  0  0  0  1  0  0  0  0  0  0
  184.5820  176.4620  135.6650 O   0  0  0  0  0  0  0  0  0  0  0  0
  3  4  1  6  0  0  0
  3  8  1  0  0  0  0
  4  6  1  0  0  0  0
  5  2  1  0  0  0  0
  5 13  1  1  0  0  0
  6  5  1  0  0  0  0
  7 10  1  0  0  0  0
  8 12  1  1  0  0  0
  8  2  1  0  0  0  0
  9  1  1  6  0  0  0
  9  7  1  0  0  0  0
  9  3  1  0  0  0  0
 10 12  1  0  0  0  0
 11  7  2  0  0  0  0
 15 13  1  0  0  0  0
 15 14  1  0  0  0  0
 16 15  2  0  0  0  0
 17 18  2  0  0  0  0
 17 19  1  0  0  0  0
 19  1  1  0  0  0  0
 21 28  1  6  0  0  0
 21 27  1  0  0  0  0
 22 21  1  0  0  0  0
 22 24  1  0  0  0  0
 23 20  2  0  0  0  0
 24 26  1  0  0  0  0
 25 23  1  0  0  0  0
 26 17  1  1  0  0  0
 27 20  1  1  0  0  0
 27 26  1  0  0  0  0
 28 25  2  0  0  0  0
 29 30  1  0  0  0  0
 30 28  1  0  0  0  0
M  END
>  <MODEL>
5

>  <REMARK>
 VINA RESULT:      -7.7      3.418      5.059
  Name = 
  6 active torsions:
  status: ('A' for Active; 'I' for Inactive)
    1  A    between atoms: C_6  and  N_20
    2  A    between atoms: C_6  and  C_26
    3  A    between atoms: C_8  and  C_21
    4  A    between atoms: C_11  and  C_23
    5  A    between atoms: C_14  and  C_23
    6  A    between atoms: O_17  and  C_28
                            x       y       z     vdW  Elec       q    Type
                         _______ _______ _______ _____ _____    ______ ____

>  <TORSDO>
F 6

$$$$
=
 OpenBabel11062413253D

 30 33  0  0  1  0  0  0  0  0999 V2000
  188.7340  178.5660  140.4350 C   0  0  0  0  0  2  0  0  0  0  0  0
  188.7060  177.2900  145.2420 C   0  0  0  0  0  2  0  0  0  0  0  0
  188.3490  177.6640  142.7530 C   0  0  1  0  0  3  0  0  0  0  0  0
  186.8210  177.5890  142.9050 C   0  0  0  0  0  2  0  0  0  0  0  0
  187.3330  177.9730  145.3450 C   0  0  1  0  0  3  0  0  0  0  0  0
  186.3500  177.3720  144.3490 C   0  0  0  0  0  2  0  0  0  0  0  0
  190.0840  176.6290  141.1730 C   0  0  0  0  0  0  0  0  0  0  0  0
  189.0560  176.8160  143.8250 C   0  0  1  0  0  3  0  0  0  0  0  0
  188.7480  177.3140  141.3030 C   0  0  2  0  0  3  0  0  0  0  0  0
  190.9050  176.3800  142.3160 N   0  0  0  0  0  2  0  0  0  0  0  0
  190.4630  176.2190  140.0440 O   0  0  0  0  0  0  0  0  0  0  0  0
  190.5580  176.8990  143.6290 C   0  0  0  0  0  2  0  0  0  0  0  0
  186.7810  177.8410  146.7540 C   0  0  0  0  0  2  0  0  0  0  0  0
  186.0840  180.0510  147.6760 O   0  0  0  0  0  1  0  0  0  0  0  0
  185.7440  178.8800  147.0130 C   0  0  0  0  0  0  0  0  0  0  0  0
  184.5520  178.6850  146.6570 O   0  0  0  0  0  0  0  0  0  0  0  0
  187.8470  178.2410  138.0880 C   0  0  0  0  0  0  0  0  0  0  0  0
  189.0010  177.9910  137.6490 O   0  0  0  0  0  0  0  0  0  0  0  0
  187.6430  178.5000  139.4780 N   0  0  0  0  0  2  0  0  0  0  0  0
  188.0320  177.0010  135.4240 N   0  0  0  0  0  0  0  0  0  0  0  0
  186.2200  175.9450  136.6910 C   0  0  2  0  0  3  0  0  0  0  0  0
  184.6280  176.4610  137.3780 S   0  0  0  0  0  0  0  0  0  0  0  0
  188.2090  175.9050  134.7420 C   0  0  0  0  0  3  0  0  0  0  0  0
  185.3770  178.0640  137.8840 C   0  0  0  0  0  2  0  0  0  0  0  0
  187.1960  174.8760  134.7470 N   0  0  0  0  0  0  0  0  0  0  0  0
  186.6910  178.2950  137.1320 C   0  0  2  0  0  3  0  0  0  0  0  0
  186.7430  177.2120  136.0720 C   0  0  1  0  0  3  0  0  0  0  0  0
  186.2310  174.8640  135.6270 C   0  0  0  0  0  0  0  0  0  0  0  0
  184.3270  173.6460  134.5970 C   0  0  0  0  0  1  0  0  0  0  0  0
  185.3210  173.8010  135.5990 O   0  0  0  0  0  0  0  0  0  0  0  0
  2  5  1  0  0  0  0
  3  4  1  6  0  0  0
  3  8  1  0  0  0  0
  4  6  1  0  0  0  0
  5 13  1  1  0  0  0
  6  5  1  0  0  0  0
  7  9  1  0  0  0  0
  7 10  1  0  0  0  0
  8 12  1  6  0  0  0
  8  2  1  0  0  0  0
  9  1  1  6  0  0  0
  9  3  1  0  0  0  0
 10 12  1  0  0  0  0
 11  7  2  0  0  0  0
 13 15  1  0  0  0  0
 15 14  1  0  0  0  0
 16 15  2  0  0  0  0
 17 19  1  0  0  0  0
 18 17  2  0  0  0  0
 19  1  1  0  0  0  0
 21 28  1  6  0  0  0
 21 22  1  0  0  0  0
 22 24  1  0  0  0  0
 23 25  1  0  0  0  0
 23 20  2  0  0  0  0
 25 28  2  0  0  0  0
 26 24  1  0  0  0  0
 26 17  1  1  0  0  0
 27 20  1  1  0  0  0
 27 21  1  0  0  0  0
 27 26  1  0  0  0  0
 29 30  1  0  0  0  0
 30 28  1  0  0  0  0
M  END
>  <MODEL>
6

>  <REMARK>
 VINA RESULT:      -7.6      1.303      1.455
  Name = 
  6 active torsions:
  status: ('A' for Active; 'I' for Inactive)
    1  A    between atoms: C_6  and  N_20
    2  A    between atoms: C_6  and  C_26
    3  A    between atoms: C_8  and  C_21
    4  A    between atoms: C_11  and  C_23
    5  A    between atoms: C_14  and  C_23
    6  A    between atoms: O_17  and  C_28
                            x       y       z     vdW  Elec       q    Type
                         _______ _______ _______ _____ _____    ______ ____

>  <TORSDO>
F 6

$$$$
=
 OpenBabel11062413253D

 30 33  0  0  1  0  0  0  0  0999 V2000
  190.1380  176.8110  140.5210 C   0  0  0  0  0  2  0  0  0  0  0  0
  189.1990  177.1960  145.3900 C   0  0  0  0  0  2  0  0  0  0  0  0
  189.9550  177.3670  142.9690 C   0  0  1  0  0  3  0  0  0  0  0  0
  191.3670  177.8160  143.3840 C   0  0  0  0  0  2  0  0  0  0  0  0
  190.6870  176.8940  145.6320 C   0  0  1  0  0  3  0  0  0  0  0  0
  191.5720  177.8970  144.9020 C   0  0  0  0  0  2  0  0  0  0  0  0
  188.2070  178.1650  141.2700 C   0  0  0  0  0  0  0  0  0  0  0  0
  188.9080  177.7990  144.0100 C   0  0  1  0  0  3  0  0  0  0  0  0
  189.6570  177.8450  141.5320 C   0  0  2  0  0  3  0  0  0  0  0  0
  187.2140  177.9850  142.2820 N   0  0  0  0  0  2  0  0  0  0  0  0
  187.8700  178.6490  140.1570 O   0  0  0  0  0  0  0  0  0  0  0  0
  187.5290  177.3570  143.5550 C   0  0  0  0  0  2  0  0  0  0  0  0
  190.9980  176.9210  147.1180 C   0  0  0  0  0  2  0  0  0  0  0  0
  192.3870  174.9080  146.6330 O   0  0  0  0  0  0  0  0  0  0  0  0
  192.1370  176.0130  147.4350 C   0  0  0  0  0  0  0  0  0  0  0  0
  192.8550  176.2300  148.4450 O   0  0  0  0  0  1  0  0  0  0  0  0
  189.8490  176.2890  138.0620 C   0  0  0  0  0  0  0  0  0  0  0  0
  190.6000  175.2810  138.1530 O   0  0  0  0  0  0  0  0  0  0  0  0
  189.5510  177.0740  139.2180 N   0  0  0  0  0  2  0  0  0  0  0  0
  187.6230  174.7880  136.8530 N   0  0  0  0  0  0  0  0  0  0  0  0
  186.9480  177.1200  137.1920 C   0  0  2  0  0  3  0  0  0  0  0  0
  187.4490  178.7350  136.5510 S   0  0  0  0  0  0  0  0  0  0  0  0
  186.3840  174.4020  136.9610 C   0  0  0  0  0  3  0  0  0  0  0  0
  189.2100  178.2030  136.6130 C   0  0  0  0  0  2  0  0  0  0  0  0
  185.3130  175.3630  136.8540 N   0  0  0  0  0  0  0  0  0  0  0  0
  189.2980  176.6770  136.7220 C   0  0  2  0  0  3  0  0  0  0  0  0
  187.8860  176.1760  136.4900 C   0  0  1  0  0  3  0  0  0  0  0  0
  185.5290  176.6480  136.9330 C   0  0  0  0  0  0  0  0  0  0  0  0
  183.6190  177.8250  137.9990 C   0  0  0  0  0  1  0  0  0  0  0  0
  184.4290  177.5110  136.8750 O   0  0  0  0  0  0  0  0  0  0  0  0
  2  5  1  0  0  0  0
  3  4  1  1  0  0  0
  3  8  1  0  0  0  0
  4  6  1  0  0  0  0
  5 13  1  1  0  0  0
  6  5  1  0  0  0  0
  7  9  1  0  0  0  0
  7 10  1  0  0  0  0
  8 12  1  6  0  0  0
  8  2  1  0  0  0  0
  9  1  1  6  0  0  0
  9  3  1  0  0  0  0
 10 12  1  0  0  0  0
 11  7  2  0  0  0  0
 13 15  1  0  0  0  0
 14 15  2  0  0  0  0
 15 16  1  0  0  0  0
 17 18  2  0  0  0  0
 17 19  1  0  0  0  0
 19  1  1  0  0  0  0
 20 23  2  0  0  0  0
 21 22  1  6  0  0  0
 22 24  1  0  0  0  0
 24 26  1  0  0  0  0
 25 28  2  0  0  0  0
 25 23  1  0  0  0  0
 26 17  1  1  0  0  0
 27 26  1  0  0  0  0
 27 20  1  1  0  0  0
 27 21  1  0  0  0  0
 28 21  1  0  0  0  0
 30 28  1  0  0  0  0
 30 29  1  0  0  0  0
M  END
>  <MODEL>
7

>  <REMARK>
 VINA RESULT:      -7.6      2.939      4.157
  Name = 
  6 active torsions:
  status: ('A' for Active; 'I' for Inactive)
    1  A    between atoms: C_6  and  N_20
    2  A    between atoms: C_6  and  C_26
    3  A    between atoms: C_8  and  C_21
    4  A    between atoms: C_11  and  C_23
    5  A    between atoms: C_14  and  C_23
    6  A    between atoms: O_17  and  C_28
                            x       y       z     vdW  Elec       q    Type
                         _______ _______ _______ _____ _____    ______ ____

>  <TORSDO>
F 6

$$$$
=
 OpenBabel11062413253D

 30 33  0  0  1  0  0  0  0  0999 V2000
  191.0610  177.0920  144.8080 C   0  0  0  0  0  2  0  0  0  0  0  0
  186.4240  178.5330  145.8860 C   0  0  0  0  0  2  0  0  0  0  0  0
  188.5920  177.4040  145.1910 C   0  0  1  0  0  3  0  0  0  0  0  0
  187.9120  176.7070  144.0000 C   0  0  0  0  0  2  0  0  0  0  0  0
  186.1180  178.4390  144.3830 C   0  0  1  0  0  3  0  0  0  0  0  0
  186.4230  177.0440  143.8510 C   0  0  0  0  0  2  0  0  0  0  0  0
  190.1690  176.6760  147.0780 C   0  0  0  0  0  0  0  0  0  0  0  0
  187.5930  177.6470  146.3350 C   0  0  1  0  0  3  0  0  0  0  0  0
  189.8530  176.6150  145.6050 C   0  0  2  0  0  3  0  0  0  0  0  0
  189.3680  177.4470  147.9770 N   0  0  0  0  0  2  0  0  0  0  0  0
  191.1230  175.9940  147.5370 O   0  0  0  0  0  0  0  0  0  0  0  0
  188.3060  178.3150  147.4970 C   0  0  0  0  0  2  0  0  0  0  0  0
  184.6630  178.7830  144.1160 C   0  0  0  0  0  2  0  0  0  0  0  0
  185.3610  179.6380  141.8800 O   0  0  0  0  0  0  0  0  0  0  0  0
  184.4240  178.9700  142.6570 C   0  0  0  0  0  0  0  0  0  0  0  0
  183.3610  178.5490  142.1320 O   0  0  0  0  0  1  0  0  0  0  0  0
  190.5080  177.1030  142.3390 C   0  0  0  0  0  0  0  0  0  0  0  0
  190.7210  175.8640  142.2510 O   0  0  0  0  0  0  0  0  0  0  0  0
  190.6260  177.7680  143.5980 N   0  0  0  0  0  2  0  0  0  0  0  0
  192.5250  177.5960  140.2510 N   0  0  0  0  0  0  0  0  0  0  0  0
  190.6620  176.3160  139.3020 C   0  0  2  0  0  3  0  0  0  0  0  0
  188.9020  176.5980  138.9930 S   0  0  0  0  0  0  0  0  0  0  0  0
  193.3410  177.0750  139.3800 C   0  0  0  0  0  3  0  0  0  0  0  0
  188.7700  177.4780  140.6040 C   0  0  0  0  0  2  0  0  0  0  0  0
  192.8230  176.4080  138.2090 N   0  0  0  0  0  0  0  0  0  0  0  0
  190.1620  177.8800  141.1030 C   0  0  2  0  0  3  0  0  0  0  0  0
  191.0990  177.6050  139.9440 C   0  0  1  0  0  3  0  0  0  0  0  0
  191.5700  176.0530  138.1150 C   0  0  0  0  0  0  0  0  0  0  0  0
  191.4940  175.7630  135.6500 C   0  0  0  0  0  1  0  0  0  0  0  0
  191.1600  175.3610  136.9700 O   0  0  0  0  0  0  0  0  0  0  0  0
  3  4  1  6  0  0  0
  3  9  1  0  0  0  0
  3  8  1  0  0  0  0
  5 13  1  1  0  0  0
  5  2  1  0  0  0  0
  6  4  1  0  0  0  0
  6  5  1  0  0  0  0
  7 11  2  0  0  0  0
  7 10  1  0  0  0  0
  8  2  1  6  0  0  0
  8 12  1  0  0  0  0
  9  1  1  6  0  0  0
  9  7  1  0  0  0  0
 12 10  1  0  0  0  0
 14 15  2  0  0  0  0
 15 13  1  0  0  0  0
 16 15  1  0  0  0  0
 17 19  1  0  0  0  0
 18 17  2  0  0  0  0
 19  1  1  0  0  0  0
 21 28  1  6  0  0  0
 21 27  1  0  0  0  0
 22 21  1  0  0  0  0
 22 24  1  0  0  0  0
 23 20  2  0  0  0  0
 24 26  1  0  0  0  0
 25 23  1  0  0  0  0
 26 17  1  1  0  0  0
 27 20  1  1  0  0  0
 27 26  1  0  0  0  0
 28 25  2  0  0  0  0
 29 30  1  0  0  0  0
 30 28  1  0  0  0  0
M  END
>  <MODEL>
8

>  <REMARK>
 VINA RESULT:      -7.5      3.203      4.655
  Name = 
  6 active torsions:
  status: ('A' for Active; 'I' for Inactive)
    1  A    between atoms: C_6  and  N_20
    2  A    between atoms: C_6  and  C_26
    3  A    between atoms: C_8  and  C_21
    4  A    between atoms: C_11  and  C_23
    5  A    between atoms: C_14  and  C_23
    6  A    between atoms: O_17  and  C_28
                            x       y       z     vdW  Elec       q    Type
                         _______ _______ _______ _____ _____    ______ ____

>  <TORSDO>
F 6

$$$$
=
 OpenBabel11062413253D

 30 33  0  0  1  0  0  0  0  0999 V2000
  188.3970  178.3570  140.4410 C   0  0  0  0  0  2  0  0  0  0  0  0
  188.8800  177.5710  145.3280 C   0  0  0  0  0  2  0  0  0  0  0  0
  188.3070  177.6420  142.8530 C   0  0  1  0  0  3  0  0  0  0  0  0
  186.8210  177.3610  143.1320 C   0  0  0  0  0  2  0  0  0  0  0  0
  187.4290  178.0540  145.4800 C   0  0  1  0  0  3  0  0  0  0  0  0
  186.4850  177.2220  144.6220 C   0  0  0  0  0  2  0  0  0  0  0  0
  190.0710  176.7180  141.2350 C   0  0  0  0  0  0  0  0  0  0  0  0
  189.2030  177.0150  143.9350 C   0  0  1  0  0  3  0  0  0  0  0  0
  188.6570  177.2120  141.4110 C   0  0  2  0  0  3  0  0  0  0  0  0
  190.9940  176.7050  142.3270 N   0  0  0  0  0  2  0  0  0  0  0  0
  190.4330  176.2580  140.1200 O   0  0  0  0  0  0  0  0  0  0  0  0
  190.6600  177.2950  143.6130 C   0  0  0  0  0  2  0  0  0  0  0  0
  186.9970  177.9830  146.9350 C   0  0  0  0  0  2  0  0  0  0  0  0
  185.9660  180.1220  147.6970 O   0  0  0  0  0  1  0  0  0  0  0  0
  185.8060  178.8460  147.1740 C   0  0  0  0  0  0  0  0  0  0  0  0
  184.6510  178.4090  146.9290 O   0  0  0  0  0  0  0  0  0  0  0  0
  186.2290  178.6590  139.1720 C   0  0  0  0  0  0  0  0  0  0  0  0
  186.7780  178.3300  138.0860 O   0  0  0  0  0  0  0  0  0  0  0  0
  186.9760  178.6570  140.3900 N   0  0  0  0  0  2  0  0  0  0  0  0
  184.3120  177.4900  137.2670 N   0  0  0  0  0  0  0  0  0  0  0  0
  183.5900  176.9980  139.5570 C   0  0  2  0  0  3  0  0  0  0  0  0
  183.0290  177.9540  140.9860 S   0  0  0  0  0  0  0  0  0  0  0  0
  183.7230  176.4100  136.8380 C   0  0  0  0  0  3  0  0  0  0  0  0
  184.2870  179.2420  140.6080 C   0  0  0  0  0  2  0  0  0  0  0  0
  182.7520  175.7350  137.6660 N   0  0  0  0  0  0  0  0  0  0  0  0
  184.7900  179.0840  139.1690 C   0  0  2  0  0  3  0  0  0  0  0  0
  183.8670  178.0640  138.5320 C   0  0  1  0  0  3  0  0  0  0  0  0
  182.6360  175.9930  138.9410 C   0  0  0  0  0  0  0  0  0  0  0  0
  180.3020  175.3730  139.5220 C   0  0  0  0  0  1  0  0  0  0  0  0
  181.7070  175.2550  139.6840 O   0  0  0  0  0  0  0  0  0  0  0  0
  2  5  1  0  0  0  0
  3  4  1  1  0  0  0
  3  8  1  0  0  0  0
  4  6  1  0  0  0  0
  5 13  1  1  0  0  0
  6  5  1  0  0  0  0
  7  9  1  0  0  0  0
  7 10  1  0  0  0  0
  8 12  1  6  0  0  0
  8  2  1  0  0  0  0
  9  1  1  6  0  0  0
  9  3  1  0  0  0  0
 10 12  1  0  0  0  0
 11  7  2  0  0  0  0
 13 15  1  0  0  0  0
 15 14  1  0  0  0  0
 16 15  2  0  0  0  0
 17 19  1  0  0  0  0
 18 17  2  0  0  0  0
 19  1  1  0  0  0  0
 21 28  1  6  0  0  0
 21 22  1  0  0  0  0
 23 20  2  0  0  0  0
 23 25  1  0  0  0  0
 24 22  1  0  0  0  0
 25 28  2  0  0  0  0
 26 17  1  1  0  0  0
 26 24  1  0  0  0  0
 27 20  1  6  0  0  0
 27 26  1  0  0  0  0
 27 21  1  0  0  0  0
 28 30  1  0  0  0  0
 29 30  1  0  0  0  0
M  END
>  <MODEL>
9

>  <REMARK>
 VINA RESULT:      -7.4      3.047      3.787
  Name = 
  6 active torsions:
  status: ('A' for Active; 'I' for Inactive)
    1  A    between atoms: C_6  and  N_20
    2  A    between atoms: C_6  and  C_26
    3  A    between atoms: C_8  and  C_21
    4  A    between atoms: C_11  and  C_23
    5  A    between atoms: C_14  and  C_23
    6  A    between atoms: O_17  and  C_28
                            x       y       z     vdW  Elec       q    Type
                         _______ _______ _______ _____ _____    ______ ____

>  <TORSDO>
F 6

$$$$
