=
 OpenBabel11062413323D

 28 31  0  0  1  0  0  0  0  0999 V2000
  189.4830  177.6700  140.9580 C   0  0  0  0  0  0  0  0  0  0  0  0
  188.8280  178.9230  137.7450 N   0  0  0  0  0  1  0  0  0  0  0  0
  191.5620  177.0900  142.1860 S   0  0  0  0  0  0  0  0  0  0  0  0
  190.2290  177.5440  143.1560 C   0  0  0  0  0  0  0  0  0  0  0  0
  188.5780  177.9200  139.9460 C   0  0  0  0  0  0  0  0  0  0  0  0
  190.4510  177.2220  138.3690 C   0  0  0  0  0  3  0  0  0  0  0  0
  189.0030  177.6990  138.5080 C   0  0  2  0  0  3  0  0  0  0  0  0
  187.2970  178.3580  140.3190 C   0  0  0  0  0  3  0  0  0  0  0  0
  186.9920  178.5430  141.6870 C   0  0  0  0  0  0  0  0  0  0  0  0
  191.2380  177.0220  139.3940 N   0  0  0  0  0  0  0  0  0  0  0  0
  189.1710  177.8510  142.2950 C   0  0  0  0  0  0  0  0  0  0  0  0
  190.7530  177.2470  140.7170 C   0  0  0  0  0  0  0  0  0  0  0  0
  187.9360  178.2890  142.6510 N   0  0  0  0  0  0  0  0  0  0  0  0
  191.2860  176.7480  146.5390 C   0  0  0  0  0  2  0  0  0  0  0  0
  190.2540  177.7410  144.6470 C   0  0  2  0  0  3  0  0  0  0  0  0
  191.6090  177.4050  145.2310 C   0  0  0  0  0  2  0  0  0  0  0  0
  189.2970  176.9300  145.2770 O   0  0  0  0  0  0  0  0  0  0  0  0
  189.7760  176.7430  146.5810 C   0  0  0  0  0  2  0  0  0  0  0  0
  185.6230  179.0140  142.0740 C   0  0  1  0  0  3  0  0  0  0  0  0
  183.6000  179.5680  138.8030 C   0  0  0  0  0  1  0  0  0  0  0  0
  184.5460  179.7370  139.8920 N   0  0  0  0  0  2  0  0  0  0  0  0
  183.9090  177.7740  140.9850 O   0  0  0  0  0  0  0  0  0  0  0  0
  184.6490  178.7930  140.9620 C   0  0  0  0  0  0  0  0  0  0  0  0
  185.1400  178.3490  143.3560 C   0  0  0  0  0  2  0  0  0  0  0  0
  184.7220  179.3970  144.3750 C   0  0  0  0  0  2  0  0  0  0  0  0
  184.2170  178.7920  146.6160 O   0  0  0  0  0  1  0  0  0  0  0  0
  186.1630  177.8260  145.6600 C   0  0  0  0  0  1  0  0  0  0  0  0
  185.2740  179.0530  145.7450 C   0  0  1  0  0  3  0  0  0  0  0  0
  1 11  1  0  0  0  0
  3  4  1  0  0  0  0
  5  8  2  0  0  0  0
  5  1  1  0  0  0  0
  6  7  1  0  0  0  0
  6 10  2  0  0  0  0
  7  2  1  6  0  0  0
  7  5  1  0  0  0  0
  8  9  1  0  0  0  0
  9 19  1  0  0  0  0
  9 13  2  0  0  0  0
 10 12  1  0  0  0  0
 11 13  1  0  0  0  0
 11  4  2  0  0  0  0
 12  1  2  0  0  0  0
 12  3  1  0  0  0  0
 14 18  1  0  0  0  0
 15  4  1  6  0  0  0
 15 16  1  0  0  0  0
 15 17  1  0  0  0  0
 16 14  1  0  0  0  0
 17 18  1  0  0  0  0
 19 24  1  1  0  0  0
 20 21  1  0  0  0  0
 21 23  1  0  0  0  0
 23 22  2  0  0  0  0
 23 19  1  0  0  0  0
 24 25  1  0  0  0  0
 25 28  1  0  0  0  0
 28 27  1  6  0  0  0
 28 26  1  0  0  0  0
M  END
>  <MODEL>
1

>  <REMARK>
 VINA RESULT:      -8.9      0.000      0.000
  Name = 
  6 active torsions:
  status: ('A' for Active; 'I' for Inactive)
    1  A    between atoms: C_5  and  C_11
    2  A    between atoms: C_6  and  C_15
    3  A    between atoms: C_6  and  C_25
    4  A    between atoms: C_15  and  C_16
    5  A    between atoms: C_16  and  C_17
    6  A    between atoms: C_16  and  C_21
                            x       y       z     vdW  Elec       q    Type
                         _______ _______ _______ _____ _____    ______ ____

>  <TORSDO>
F 6

$$$$
=
 OpenBabel11062413323D

 28 31  0  0  1  0  0  0  0  0999 V2000
  185.7420  178.3660  143.2250 C   0  0  2  0  0  3  0  0  0  0  0  0
  185.3770  179.2830  146.5930 N   0  0  0  0  0  1  0  0  0  0  0  0
  184.6480  179.0910  141.1170 S   0  0  0  0  0  0  0  0  0  0  0  0
  186.2390  178.4850  140.9570 C   0  0  0  0  0  0  0  0  0  0  0  0
  185.9890  178.1020  144.5570 C   0  0  0  0  0  0  0  0  0  0  0  0
  183.6140  178.9310  144.9550 C   0  0  0  0  0  3  0  0  0  0  0  0
  184.8960  178.3680  145.5740 C   0  0  0  0  0  0  0  0  0  0  0  0
  187.2520  177.5860  144.8910 C   0  0  0  0  0  3  0  0  0  0  0  0
  188.2120  177.3780  143.8750 C   0  0  0  0  0  0  0  0  0  0  0  0
  183.4790  179.1570  143.6740 N   0  0  0  0  0  0  0  0  0  0  0  0
  186.6900  178.1530  142.2380 C   0  0  0  0  0  0  0  0  0  0  0  0
  184.5580  178.8710  142.7840 C   0  0  0  0  0  0  0  0  0  0  0  0
  187.9160  177.6680  142.5660 N   0  0  0  0  0  0  0  0  0  0  0  0
  187.0950  177.3150  137.6270 C   0  0  0  0  0  2  0  0  0  0  0  0
  187.0540  178.4810  139.6930 C   0  0  2  0  0  3  0  0  0  0  0  0
  186.2040  178.1630  138.4820 C   0  0  0  0  0  2  0  0  0  0  0  0
  188.0830  177.5270  139.7630 O   0  0  0  0  0  0  0  0  0  0  0  0
  188.3690  177.1990  138.4310 C   0  0  0  0  0  2  0  0  0  0  0  0
  189.5570  176.8300  144.2420 C   0  0  1  0  0  3  0  0  0  0  0  0
  191.8940  177.4220  141.1940 C   0  0  0  0  0  1  0  0  0  0  0  0
  191.0980  177.6310  142.3920 N   0  0  0  0  0  2  0  0  0  0  0  0
  190.4210  175.4020  142.5460 O   0  0  0  0  0  0  0  0  0  0  0  0
  190.3790  176.5680  143.0220 C   0  0  0  0  0  0  0  0  0  0  0  0
  190.2970  177.7520  145.2040 C   0  0  0  0  0  2  0  0  0  0  0  0
  191.4390  177.0100  145.8800 C   0  0  0  0  0  2  0  0  0  0  0  0
  192.1060  176.9790  148.1600 O   0  0  0  0  0  1  0  0  0  0  0  0
  189.8100  177.3890  147.7240 C   0  0  0  0  0  1  0  0  0  0  0  0
  191.0610  176.6410  147.3020 C   0  0  1  0  0  3  0  0  0  0  0  0
  1 11  1  1  0  0  0
  1  5  1  0  0  0  0
  3 12  1  0  0  0  0
  4  3  1  0  0  0  0
  4 11  2  0  0  0  0
  5  8  2  0  0  0  0
  5  7  1  0  0  0  0
  6  7  2  0  0  0  0
  7  2  1  0  0  0  0
  9 19  1  0  0  0  0
  9  8  1  0  0  0  0
 10  6  1  0  0  0  0
 11 13  1  0  0  0  0
 12  1  1  0  0  0  0
 12 10  2  0  0  0  0
 13  9  2  0  0  0  0
 14 18  1  0  0  0  0
 14 16  1  0  0  0  0
 15 17  1  0  0  0  0
 15  4  1  1  0  0  0
 16 15  1  0  0  0  0
 18 17  1  0  0  0  0
 19 24  1  1  0  0  0
 20 21  1  0  0  0  0
 21 23  1  0  0  0  0
 22 23  2  0  0  0  0
 23 19  1  0  0  0  0
 24 25  1  0  0  0  0
 25 28  1  0  0  0  0
 28 27  1  1  0  0  0
 28 26  1  0  0  0  0
M  END
>  <MODEL>
2

>  <REMARK>
 VINA RESULT:      -8.7      2.921      6.832
  Name = 
  6 active torsions:
  status: ('A' for Active; 'I' for Inactive)
    1  A    between atoms: C_5  and  C_11
    2  A    between atoms: C_6  and  C_15
    3  A    between atoms: C_6  and  C_25
    4  A    between atoms: C_15  and  C_16
    5  A    between atoms: C_16  and  C_17
    6  A    between atoms: C_16  and  C_21
                            x       y       z     vdW  Elec       q    Type
                         _______ _______ _______ _____ _____    ______ ____

>  <TORSDO>
F 6

$$$$
=
 OpenBabel11062413323D

 28 31  0  0  1  0  0  0  0  0999 V2000
  185.5510  178.3470  144.2340 C   0  0  0  0  0  0  0  0  0  0  0  0
  183.7970  177.9130  141.2250 N   0  0  0  0  0  1  0  0  0  0  0  0
  184.9130  178.2120  146.6310 S   0  0  0  0  0  0  0  0  0  0  0  0
  186.5540  177.8810  146.2790 C   0  0  0  0  0  0  0  0  0  0  0  0
  185.4940  178.5020  142.8640 C   0  0  0  0  0  0  0  0  0  0  0  0
  183.0380  179.0650  143.2280 C   0  0  0  0  0  3  0  0  0  0  0  0
  184.1790  178.8980  142.2220 C   0  0  2  0  0  3  0  0  0  0  0  0
  186.6790  178.2900  142.1400 C   0  0  0  0  0  3  0  0  0  0  0  0
  187.8580  177.9160  142.8250 C   0  0  0  0  0  0  0  0  0  0  0  0
  183.1890  178.8870  144.5150 N   0  0  0  0  0  0  0  0  0  0  0  0
  186.7130  177.9840  144.8940 C   0  0  0  0  0  0  0  0  0  0  0  0
  184.4660  178.5220  145.0370 C   0  0  0  0  0  0  0  0  0  0  0  0
  187.8540  177.7660  144.1890 N   0  0  0  0  0  0  0  0  0  0  0  0
  189.3660  178.3100  148.5380 C   0  0  0  0  0  2  0  0  0  0  0  0
  187.5840  177.3990  147.2630 C   0  0  2  0  0  3  0  0  0  0  0  0
  187.8910  178.4500  148.3080 C   0  0  0  0  0  2  0  0  0  0  0  0
  188.7840  177.0690  146.6130 O   0  0  0  0  0  0  0  0  0  0  0  0
  189.7790  177.2090  147.5890 C   0  0  0  0  0  2  0  0  0  0  0  0
  189.1160  177.6890  142.0430 C   0  0  1  0  0  3  0  0  0  0  0  0
  191.7530  176.3870  144.5840 C   0  0  0  0  0  1  0  0  0  0  0  0
  190.8310  177.2470  143.8610 N   0  0  0  0  0  2  0  0  0  0  0  0
  190.1220  175.5640  142.4060 O   0  0  0  0  0  0  0  0  0  0  0  0
  190.0390  176.7660  142.7720 C   0  0  0  0  0  0  0  0  0  0  0  0
  188.8220  177.1660  140.6430 C   0  0  0  0  0  2  0  0  0  0  0  0
  189.2880  178.1620  139.5930 C   0  0  0  0  0  2  0  0  0  0  0  0
  187.1250  178.5010  138.6710 O   0  0  0  0  0  1  0  0  0  0  0  0
  188.9750  178.9540  137.2540 C   0  0  0  0  0  1  0  0  0  0  0  0
  188.4140  178.0740  138.3560 C   0  0  1  0  0  3  0  0  0  0  0  0
  1 11  1  0  0  0  0
  1 12  2  0  0  0  0
  4  3  1  0  0  0  0
  5  1  1  0  0  0  0
  6 10  2  0  0  0  0
  7  2  1  6  0  0  0
  7  5  1  0  0  0  0
  7  6  1  0  0  0  0
  8  9  1  0  0  0  0
  8  5  2  0  0  0  0
  9 13  2  0  0  0  0
 10 12  1  0  0  0  0
 11  4  2  0  0  0  0
 12  3  1  0  0  0  0
 13 11  1  0  0  0  0
 15  4  1  6  0  0  0
 15 16  1  0  0  0  0
 16 14  1  0  0  0  0
 17 15  1  0  0  0  0
 17 18  1  0  0  0  0
 18 14  1  0  0  0  0
 19 24  1  6  0  0  0
 19 23  1  0  0  0  0
 19  9  1  0  0  0  0
 21 20  1  0  0  0  0
 22 23  2  0  0  0  0
 23 21  1  0  0  0  0
 25 24  1  0  0  0  0
 28 27  1  6  0  0  0
 28 26  1  0  0  0  0
 28 25  1  0  0  0  0
M  END
>  <MODEL>
3

>  <REMARK>
 VINA RESULT:      -8.4      2.790      6.188
  Name = 
  6 active torsions:
  status: ('A' for Active; 'I' for Inactive)
    1  A    between atoms: C_5  and  C_11
    2  A    between atoms: C_6  and  C_15
    3  A    between atoms: C_6  and  C_25
    4  A    between atoms: C_15  and  C_16
    5  A    between atoms: C_16  and  C_17
    6  A    between atoms: C_16  and  C_21
                            x       y       z     vdW  Elec       q    Type
                         _______ _______ _______ _____ _____    ______ ____

>  <TORSDO>
F 6

$$$$
=
 OpenBabel11062413323D

 28 31  0  0  1  0  0  0  0  0999 V2000
  185.8930  178.1700  144.6550 C   0  0  2  0  0  3  0  0  0  0  0  0
  188.3520  178.3620  147.1520 N   0  0  0  0  0  1  0  0  0  0  0  0
  183.7030  179.2890  144.3090 S   0  0  0  0  0  0  0  0  0  0  0  0
  184.5030  178.7680  142.8900 C   0  0  0  0  0  0  0  0  0  0  0  0
  187.0230  177.6430  145.2480 C   0  0  0  0  0  0  0  0  0  0  0  0
  185.9390  178.3150  147.4520 C   0  0  0  0  0  3  0  0  0  0  0  0
  187.1400  177.6660  146.7590 C   0  0  0  0  0  0  0  0  0  0  0  0
  188.0020  177.0990  144.4000 C   0  0  0  0  0  3  0  0  0  0  0  0
  187.8090  177.1280  143.0000 C   0  0  0  0  0  0  0  0  0  0  0  0
  184.9130  178.7970  146.8000 N   0  0  0  0  0  0  0  0  0  0  0  0
  185.7130  178.1880  143.2820 C   0  0  0  0  0  0  0  0  0  0  0  0
  184.8810  178.7270  145.3740 C   0  0  0  0  0  0  0  0  0  0  0  0
  186.6700  177.6750  142.4660 N   0  0  0  0  0  0  0  0  0  0  0  0
  183.9680  177.8970  139.4050 C   0  0  0  0  0  2  0  0  0  0  0  0
  184.0590  179.0440  141.4800 C   0  0  2  0  0  3  0  0  0  0  0  0
  183.4900  177.8060  140.8220 C   0  0  0  0  0  2  0  0  0  0  0  0
  185.1330  179.4970  140.6970 O   0  0  0  0  0  0  0  0  0  0  0  0
  184.7890  179.1650  139.3790 C   0  0  0  0  0  2  0  0  0  0  0  0
  188.8620  176.5480  142.1060 C   0  0  1  0  0  3  0  0  0  0  0  0
  189.8590  177.6820  138.5250 C   0  0  0  0  0  1  0  0  0  0  0  0
  189.6080  176.8660  139.7010 N   0  0  0  0  0  2  0  0  0  0  0  0
  188.8300  178.6500  140.9910 O   0  0  0  0  0  0  0  0  0  0  0  0
  189.0890  177.4200  140.9130 C   0  0  0  0  0  0  0  0  0  0  0  0
  190.1670  176.3080  142.8550 C   0  0  0  0  0  2  0  0  0  0  0  0
  191.1750  177.3990  142.5320 C   0  0  0  0  0  2  0  0  0  0  0  0
  190.8120  179.2200  144.0140 O   0  0  0  0  0  1  0  0  0  0  0  0
  191.4960  177.1670  144.9890 C   0  0  0  0  0  1  0  0  0  0  0  0
  191.6180  178.1030  143.8010 C   0  0  1  0  0  3  0  0  0  0  0  0
  1 11  1  6  0  0  0
  1  5  1  0  0  0  0
  1 12  1  0  0  0  0
  3 12  1  0  0  0  0
  4 11  2  0  0  0  0
  4  3  1  0  0  0  0
  5  7  1  0  0  0  0
  7  2  1  0  0  0  0
  7  6  2  0  0  0  0
  8  5  2  0  0  0  0
  9  8  1  0  0  0  0
 10  6  1  0  0  0  0
 12 10  2  0  0  0  0
 13  9  2  0  0  0  0
 13 11  1  0  0  0  0
 14 16  1  0  0  0  0
 15  4  1  1  0  0  0
 16 15  1  0  0  0  0
 17 15  1  0  0  0  0
 18 14  1  0  0  0  0
 18 17  1  0  0  0  0
 19 24  1  1  0  0  0
 19  9  1  0  0  0  0
 20 21  1  0  0  0  0
 21 23  1  0  0  0  0
 23 22  2  0  0  0  0
 23 19  1  0  0  0  0
 25 24  1  0  0  0  0
 25 28  1  0  0  0  0
 28 26  1  0  0  0  0
 28 27  1  1  0  0  0
M  END
>  <MODEL>
4

>  <REMARK>
 VINA RESULT:      -8.4      2.621      6.903
  Name = 
  6 active torsions:
  status: ('A' for Active; 'I' for Inactive)
    1  A    between atoms: C_5  and  C_11
    2  A    between atoms: C_6  and  C_15
    3  A    between atoms: C_6  and  C_25
    4  A    between atoms: C_15  and  C_16
    5  A    between atoms: C_16  and  C_17
    6  A    between atoms: C_16  and  C_21
                            x       y       z     vdW  Elec       q    Type
                         _______ _______ _______ _____ _____    ______ ____

>  <TORSDO>
F 6

$$$$
=
 OpenBabel11062413323D

 28 31  0  0  1  0  0  0  0  0999 V2000
  189.2880  177.6470  140.7670 C   0  0  0  0  0  0  0  0  0  0  0  0
  189.1480  178.6630  137.4110 N   0  0  0  0  0  1  0  0  0  0  0  0
  191.1470  177.1650  142.3420 S   0  0  0  0  0  0  0  0  0  0  0  0
  189.6820  177.6810  143.0580 C   0  0  0  0  0  0  0  0  0  0  0  0
  188.5530  177.8190  139.6120 C   0  0  0  0  0  0  0  0  0  0  0  0
  190.6430  177.0190  138.3980 C   0  0  0  0  0  3  0  0  0  0  0  0
  189.1950  177.4980  138.2770 C   0  0  2  0  0  3  0  0  0  0  0  0
  187.2320  178.2770  139.7490 C   0  0  0  0  0  3  0  0  0  0  0  0
  186.7200  178.5570  141.0370 C   0  0  0  0  0  0  0  0  0  0  0  0
  191.2610  176.8960  139.5450 N   0  0  0  0  0  0  0  0  0  0  0  0
  188.7730  177.9210  142.0230 C   0  0  0  0  0  0  0  0  0  0  0  0
  190.5770  177.2130  140.7570 C   0  0  0  0  0  0  0  0  0  0  0  0
  187.5000  178.3780  142.1510 N   0  0  0  0  0  0  0  0  0  0  0  0
  190.0520  177.0320  146.6120 C   0  0  0  0  0  2  0  0  0  0  0  0
  189.4770  177.9840  144.5170 C   0  0  2  0  0  3  0  0  0  0  0  0
  190.6660  177.5530  145.3480 C   0  0  0  0  0  2  0  0  0  0  0  0
  188.3400  177.3260  145.0110 O   0  0  0  0  0  0  0  0  0  0  0  0
  188.5660  177.1870  146.3870 C   0  0  0  0  0  2  0  0  0  0  0  0
  185.3110  179.0480  141.1710 C   0  0  1  0  0  3  0  0  0  0  0  0
  183.4600  177.8610  137.9670 C   0  0  0  0  0  1  0  0  0  0  0  0
  184.1150  177.8760  139.2640 N   0  0  0  0  0  2  0  0  0  0  0  0
  184.5180  180.1750  139.2320 O   0  0  0  0  0  0  0  0  0  0  0  0
  184.6260  179.0800  139.8420 C   0  0  0  0  0  0  0  0  0  0  0  0
  184.5160  178.2140  142.1680 C   0  0  0  0  0  2  0  0  0  0  0  0
  183.1080  178.7660  142.3210 C   0  0  0  0  0  2  0  0  0  0  0  0
  181.6980  178.6280  144.2280 O   0  0  0  0  0  1  0  0  0  0  0  0
  184.0300  178.8000  144.6330 C   0  0  0  0  0  1  0  0  0  0  0  0
  182.8680  179.2150  143.7500 C   0  0  1  0  0  3  0  0  0  0  0  0
  1 11  1  0  0  0  0
  3  4  1  0  0  0  0
  5  8  2  0  0  0  0
  5  1  1  0  0  0  0
  6 10  2  0  0  0  0
  7  2  1  6  0  0  0
  7  6  1  0  0  0  0
  7  5  1  0  0  0  0
  8  9  1  0  0  0  0
  9 19  1  0  0  0  0
  9 13  2  0  0  0  0
 10 12  1  0  0  0  0
 11 13  1  0  0  0  0
 11  4  2  0  0  0  0
 12  1  2  0  0  0  0
 12  3  1  0  0  0  0
 15  4  1  6  0  0  0
 15 17  1  0  0  0  0
 15 16  1  0  0  0  0
 16 14  1  0  0  0  0
 17 18  1  0  0  0  0
 18 14  1  0  0  0  0
 19 24  1  1  0  0  0
 20 21  1  0  0  0  0
 21 23  1  0  0  0  0
 22 23  2  0  0  0  0
 23 19  1  0  0  0  0
 24 25  1  0  0  0  0
 25 28  1  0  0  0  0
 28 26  1  0  0  0  0
 28 27  1  1  0  0  0
M  END
>  <MODEL>
5

>  <REMARK>
 VINA RESULT:      -8.2      1.321      1.529
  Name = 
  6 active torsions:
  status: ('A' for Active; 'I' for Inactive)
    1  A    between atoms: C_5  and  C_11
    2  A    between atoms: C_6  and  C_15
    3  A    between atoms: C_6  and  C_25
    4  A    between atoms: C_15  and  C_16
    5  A    between atoms: C_16  and  C_17
    6  A    between atoms: C_16  and  C_21
                            x       y       z     vdW  Elec       q    Type
                         _______ _______ _______ _____ _____    ______ ____

>  <TORSDO>
F 6

$$$$
=
 OpenBabel11062413323D

 28 31  0  0  1  0  0  0  0  0999 V2000
  189.4720  177.6420  141.7410 C   0  0  0  0  0  0  0  0  0  0  0  0
  188.6580  178.9110  138.5710 N   0  0  0  0  0  1  0  0  0  0  0  0
  191.6020  177.3710  142.9890 S   0  0  0  0  0  0  0  0  0  0  0  0
  190.1950  177.5430  143.9480 C   0  0  0  0  0  0  0  0  0  0  0  0
  188.5520  177.7790  140.7200 C   0  0  0  0  0  0  0  0  0  0  0  0
  190.5410  177.4870  139.1570 C   0  0  0  0  0  3  0  0  0  0  0  0
  189.0300  177.7020  139.2840 C   0  0  2  0  0  3  0  0  0  0  0  0
  187.2090  177.9730  141.0830 C   0  0  0  0  0  3  0  0  0  0  0  0
  186.8570  178.0380  142.4500 C   0  0  0  0  0  0  0  0  0  0  0  0
  191.3360  177.3780  140.1900 N   0  0  0  0  0  0  0  0  0  0  0  0
  189.1130  177.7040  143.0770 C   0  0  0  0  0  0  0  0  0  0  0  0
  190.7990  177.4550  141.5100 C   0  0  0  0  0  0  0  0  0  0  0  0
  187.8160  177.9060  143.4230 N   0  0  0  0  0  0  0  0  0  0  0  0
  190.7630  176.3740  147.3390 C   0  0  0  0  0  2  0  0  0  0  0  0
  190.1640  177.6730  145.4460 C   0  0  2  0  0  3  0  0  0  0  0  0
  191.3390  176.9700  146.0900 C   0  0  0  0  0  2  0  0  0  0  0  0
  188.9860  177.1200  145.9720 O   0  0  0  0  0  0  0  0  0  0  0  0
  189.3050  176.7660  147.2900 C   0  0  0  0  0  2  0  0  0  0  0  0
  185.4220  178.2490  142.8250 C   0  0  1  0  0  3  0  0  0  0  0  0
  185.4660  178.4730  146.7050 C   0  0  0  0  0  1  0  0  0  0  0  0
  185.5830  177.9770  145.3440 N   0  0  0  0  0  2  0  0  0  0  0  0
  184.9520  180.0010  144.3650 O   0  0  0  0  0  0  0  0  0  0  0  0
  185.3070  178.8030  144.2090 C   0  0  0  0  0  0  0  0  0  0  0  0
  184.7030  179.1430  141.8240 C   0  0  0  0  0  2  0  0  0  0  0  0
  183.7690  178.3210  140.9490 C   0  0  0  0  0  2  0  0  0  0  0  0
  184.5480  180.0020  139.4630 O   0  0  0  0  0  1  0  0  0  0  0  0
  183.9350  177.9220  138.4980 C   0  0  0  0  0  1  0  0  0  0  0  0
  183.6410  178.9500  139.5750 C   0  0  1  0  0  3  0  0  0  0  0  0
  1 11  1  0  0  0  0
  3  4  1  0  0  0  0
  5  8  2  0  0  0  0
  5  1  1  0  0  0  0
  6  7  1  0  0  0  0
  6 10  2  0  0  0  0
  7  2  1  6  0  0  0
  7  5  1  0  0  0  0
  8  9  1  0  0  0  0
  9 19  1  0  0  0  0
  9 13  2  0  0  0  0
 10 12  1  0  0  0  0
 11 13  1  0  0  0  0
 11  4  2  0  0  0  0
 12  1  2  0  0  0  0
 12  3  1  0  0  0  0
 15  4  1  6  0  0  0
 15 17  1  0  0  0  0
 15 16  1  0  0  0  0
 16 14  1  0  0  0  0
 17 18  1  0  0  0  0
 18 14  1  0  0  0  0
 19 24  1  6  0  0  0
 19 23  1  0  0  0  0
 21 20  1  0  0  0  0
 23 22  2  0  0  0  0
 23 21  1  0  0  0  0
 25 24  1  0  0  0  0
 26 28  1  0  0  0  0
 28 27  1  6  0  0  0
 28 25  1  0  0  0  0
M  END
>  <MODEL>
6

>  <REMARK>
 VINA RESULT:      -8.1      1.377      3.330
  Name = 
  6 active torsions:
  status: ('A' for Active; 'I' for Inactive)
    1  A    between atoms: C_5  and  C_11
    2  A    between atoms: C_6  and  C_15
    3  A    between atoms: C_6  and  C_25
    4  A    between atoms: C_15  and  C_16
    5  A    between atoms: C_16  and  C_17
    6  A    between atoms: C_16  and  C_21
                            x       y       z     vdW  Elec       q    Type
                         _______ _______ _______ _____ _____    ______ ____

>  <TORSDO>
F 6

$$$$
=
 OpenBabel11062413323D

 28 31  0  0  1  0  0  0  0  0999 V2000
  189.4920  177.7820  141.0110 C   0  0  2  0  0  3  0  0  0  0  0  0
  189.9730  176.7390  144.3280 N   0  0  0  0  0  1  0  0  0  0  0  0
  190.6040  177.2370  138.8580 S   0  0  0  0  0  0  0  0  0  0  0  0
  188.9700  177.7320  138.7460 C   0  0  0  0  0  0  0  0  0  0  0  0
  189.2470  177.9650  142.3570 C   0  0  0  0  0  0  0  0  0  0  0  0
  191.6810  177.2930  142.6870 C   0  0  0  0  0  3  0  0  0  0  0  0
  190.3720  177.7330  143.3470 C   0  0  0  0  0  0  0  0  0  0  0  0
  187.9560  178.3720  142.7300 C   0  0  0  0  0  3  0  0  0  0  0  0
  186.9670  178.5570  141.7360 C   0  0  0  0  0  0  0  0  0  0  0  0
  191.8130  177.1380  141.3950 N   0  0  0  0  0  0  0  0  0  0  0  0
  188.5160  177.9710  140.0470 C   0  0  0  0  0  0  0  0  0  0  0  0
  190.7020  177.3860  140.5340 C   0  0  0  0  0  0  0  0  0  0  0  0
  187.2640  178.3500  140.4120 N   0  0  0  0  0  0  0  0  0  0  0  0
  187.5040  176.2050  135.7950 C   0  0  0  0  0  2  0  0  0  0  0  0
  188.1380  177.7350  137.4940 C   0  0  2  0  0  3  0  0  0  0  0  0
  187.4480  176.4060  137.2790 C   0  0  0  0  0  2  0  0  0  0  0  0
  188.9310  178.0000  136.3650 O   0  0  0  0  0  0  0  0  0  0  0  0
  188.2420  177.4240  135.2900 C   0  0  0  0  0  2  0  0  0  0  0  0
  185.5920  178.9870  142.1450 C   0  0  1  0  0  3  0  0  0  0  0  0
  183.6060  179.6180  138.8650 C   0  0  0  0  0  1  0  0  0  0  0  0
  184.5490  179.7530  139.9620 N   0  0  0  0  0  2  0  0  0  0  0  0
  183.8510  177.8020  141.0380 O   0  0  0  0  0  0  0  0  0  0  0  0
  184.6190  178.8010  141.0260 C   0  0  0  0  0  0  0  0  0  0  0  0
  185.1230  178.2570  143.3970 C   0  0  0  0  0  2  0  0  0  0  0  0
  184.7930  179.2500  144.5010 C   0  0  0  0  0  2  0  0  0  0  0  0
  184.5570  178.6280  146.7810 O   0  0  0  0  0  1  0  0  0  0  0  0
  186.3320  177.6140  145.5740 C   0  0  0  0  0  1  0  0  0  0  0  0
  185.5030  178.8680  145.7860 C   0  0  1  0  0  3  0  0  0  0  0  0
  1 11  1  1  0  0  0
  1  5  1  0  0  0  0
  3 12  1  0  0  0  0
  4  3  1  0  0  0  0
  4 11  2  0  0  0  0
  5  8  2  0  0  0  0
  5  7  1  0  0  0  0
  6  7  2  0  0  0  0
  7  2  1  0  0  0  0
  9 19  1  0  0  0  0
  9  8  1  0  0  0  0
 10  6  1  0  0  0  0
 11 13  1  0  0  0  0
 12  1  1  0  0  0  0
 12 10  2  0  0  0  0
 13  9  2  0  0  0  0
 14 16  1  0  0  0  0
 15  4  1  1  0  0  0
 16 15  1  0  0  0  0
 17 15  1  0  0  0  0
 18 14  1  0  0  0  0
 18 17  1  0  0  0  0
 19 24  1  1  0  0  0
 20 21  1  0  0  0  0
 21 23  1  0  0  0  0
 23 22  2  0  0  0  0
 23 19  1  0  0  0  0
 24 25  1  0  0  0  0
 25 28  1  0  0  0  0
 28 27  1  6  0  0  0
 28 26  1  0  0  0  0
M  END
>  <MODEL>
7

>  <REMARK>
 VINA RESULT:      -8.0      2.009      4.760
  Name = 
  6 active torsions:
  status: ('A' for Active; 'I' for Inactive)
    1  A    between atoms: C_5  and  C_11
    2  A    between atoms: C_6  and  C_15
    3  A    between atoms: C_6  and  C_25
    4  A    between atoms: C_15  and  C_16
    5  A    between atoms: C_16  and  C_17
    6  A    between atoms: C_16  and  C_21
                            x       y       z     vdW  Elec       q    Type
                         _______ _______ _______ _____ _____    ______ ____

>  <TORSDO>
F 6

$$$$
=
 OpenBabel11062413323D

 28 31  0  0  1  0  0  0  0  0999 V2000
  188.2690  177.5480  144.2020 C   0  0  2  0  0  3  0  0  0  0  0  0
  191.6810  177.5000  145.0270 N   0  0  0  0  0  1  0  0  0  0  0  0
  186.2360  178.3990  145.3450 S   0  0  0  0  0  0  0  0  0  0  0  0
  186.1570  178.3370  143.6370 C   0  0  0  0  0  0  0  0  0  0  0  0
  189.5390  177.0620  143.9620 C   0  0  0  0  0  0  0  0  0  0  0  0
  189.7960  177.0470  146.4960 C   0  0  0  0  0  3  0  0  0  0  0  0
  190.4420  176.7510  145.1400 C   0  0  0  0  0  0  0  0  0  0  0  0
  189.9160  176.8710  142.6230 C   0  0  0  0  0  3  0  0  0  0  0  0
  189.0090  177.1960  141.5890 C   0  0  0  0  0  0  0  0  0  0  0  0
  188.5820  177.5190  146.6210 N   0  0  0  0  0  0  0  0  0  0  0  0
  187.3880  177.8580  143.1800 C   0  0  0  0  0  0  0  0  0  0  0  0
  187.7970  177.7760  145.4570 C   0  0  0  0  0  0  0  0  0  0  0  0
  187.7620  177.6870  141.8850 N   0  0  0  0  0  0  0  0  0  0  0  0
  182.6640  178.9780  142.8750 C   0  0  0  0  0  2  0  0  0  0  0  0
  185.0330  178.8670  142.7910 C   0  0  2  0  0  3  0  0  0  0  0  0
  183.8890  179.3790  143.6390 C   0  0  0  0  0  2  0  0  0  0  0  0
  184.5300  177.8680  141.9420 O   0  0  0  0  0  0  0  0  0  0  0  0
  183.2100  178.2500  141.6680 C   0  0  0  0  0  2  0  0  0  0  0  0
  189.4220  176.9920  140.1630 C   0  0  1  0  0  3  0  0  0  0  0  0
  186.7950  178.2450  137.5880 C   0  0  0  0  0  1  0  0  0  0  0  0
  187.5510  177.4020  138.4990 N   0  0  0  0  0  2  0  0  0  0  0  0
  189.0150  179.1020  139.1420 O   0  0  0  0  0  0  0  0  0  0  0  0
  188.6610  177.8990  139.2510 C   0  0  0  0  0  0  0  0  0  0  0  0
  190.9230  177.1790  139.9810 C   0  0  0  0  0  2  0  0  0  0  0  0
  191.4250  176.3440  138.8130 C   0  0  0  0  0  2  0  0  0  0  0  0
  193.5280  177.1300  139.5910 O   0  0  0  0  0  1  0  0  0  0  0  0
  193.5630  175.5910  137.7840 C   0  0  0  0  0  1  0  0  0  0  0  0
  192.8380  176.7520  138.4400 C   0  0  1  0  0  3  0  0  0  0  0  0
  1 11  1  6  0  0  0
  1 12  1  0  0  0  0
  2  7  1  0  0  0  0
  3 12  1  0  0  0  0
  4  3  1  0  0  0  0
  5  1  1  0  0  0  0
  5  7  1  0  0  0  0
  6 10  1  0  0  0  0
  7  6  2  0  0  0  0
  8  5  2  0  0  0  0
  9 13  2  0  0  0  0
  9  8  1  0  0  0  0
 11  4  2  0  0  0  0
 12 10  2  0  0  0  0
 13 11  1  0  0  0  0
 14 16  1  0  0  0  0
 15  4  1  1  0  0  0
 15 16  1  0  0  0  0
 17 15  1  0  0  0  0
 18 17  1  0  0  0  0
 18 14  1  0  0  0  0
 19 24  1  1  0  0  0
 19  9  1  0  0  0  0
 20 21  1  0  0  0  0
 21 23  1  0  0  0  0
 22 23  2  0  0  0  0
 23 19  1  0  0  0  0
 25 24  1  0  0  0  0
 28 27  1  1  0  0  0
 28 25  1  0  0  0  0
 28 26  1  0  0  0  0
M  END
>  <MODEL>
8

>  <REMARK>
 VINA RESULT:      -8.0      2.808      6.777
  Name = 
  6 active torsions:
  status: ('A' for Active; 'I' for Inactive)
    1  A    between atoms: C_5  and  C_11
    2  A    between atoms: C_6  and  C_15
    3  A    between atoms: C_6  and  C_25
    4  A    between atoms: C_15  and  C_16
    5  A    between atoms: C_16  and  C_17
    6  A    between atoms: C_16  and  C_21
                            x       y       z     vdW  Elec       q    Type
                         _______ _______ _______ _____ _____    ______ ____

>  <TORSDO>
F 6

$$$$
=
 OpenBabel11062413323D

 28 31  0  0  1  0  0  0  0  0999 V2000
  188.9840  177.7550  141.7990 C   0  0  2  0  0  3  0  0  0  0  0  0
  188.1010  176.8120  145.0630 N   0  0  0  0  0  1  0  0  0  0  0  0
  190.8350  177.1220  140.2680 S   0  0  0  0  0  0  0  0  0  0  0  0
  189.3900  177.6390  139.5130 C   0  0  0  0  0  0  0  0  0  0  0  0
  188.2370  177.9850  142.9370 C   0  0  0  0  0  0  0  0  0  0  0  0
  190.3290  177.2860  144.2110 C   0  0  0  0  0  3  0  0  0  0  0  0
  188.8780  177.7670  144.2940 C   0  0  0  0  0  0  0  0  0  0  0  0
  186.9150  178.4230  142.7640 C   0  0  0  0  0  3  0  0  0  0  0  0
  186.3990  178.5920  141.4590 C   0  0  0  0  0  0  0  0  0  0  0  0
  190.9510  177.0870  143.0780 N   0  0  0  0  0  0  0  0  0  0  0  0
  188.4690  177.9270  140.5260 C   0  0  0  0  0  0  0  0  0  0  0  0
  190.2740  177.3240  141.8440 C   0  0  0  0  0  0  0  0  0  0  0  0
  187.1850  178.3370  140.3620 N   0  0  0  0  0  0  0  0  0  0  0  0
  187.7570  178.7810  136.4760 C   0  0  0  0  0  2  0  0  0  0  0  0
  189.1140  177.6150  138.0350 C   0  0  2  0  0  3  0  0  0  0  0  0
  188.8320  179.0020  137.4980 C   0  0  0  0  0  2  0  0  0  0  0  0
  188.0070  176.8030  137.7440 O   0  0  0  0  0  0  0  0  0  0  0  0
  187.5010  177.2930  136.5320 C   0  0  0  0  0  2  0  0  0  0  0  0
  184.9860  179.0560  141.2850 C   0  0  1  0  0  3  0  0  0  0  0  0
  183.8800  177.7410  137.8000 C   0  0  0  0  0  1  0  0  0  0  0  0
  184.2530  177.8050  139.2030 N   0  0  0  0  0  2  0  0  0  0  0  0
  184.5700  180.1180  139.1970 O   0  0  0  0  0  0  0  0  0  0  0  0
  184.5900  179.0380  139.8440 C   0  0  0  0  0  0  0  0  0  0  0  0
  184.0160  178.2330  142.1230 C   0  0  0  0  0  2  0  0  0  0  0  0
  182.6560  178.9110  142.1830 C   0  0  0  0  0  2  0  0  0  0  0  0
  181.1990  178.5190  144.0180 O   0  0  0  0  0  1  0  0  0  0  0  0
  183.4740  178.9580  144.5340 C   0  0  0  0  0  1  0  0  0  0  0  0
  182.3050  179.2660  143.6160 C   0  0  1  0  0  3  0  0  0  0  0  0
  1 11  1  6  0  0  0
  1 12  1  0  0  0  0
  1  5  1  0  0  0  0
  3 12  1  0  0  0  0
  4  3  1  0  0  0  0
  4 11  2  0  0  0  0
  5  7  1  0  0  0  0
  6  7  2  0  0  0  0
  7  2  1  0  0  0  0
  8  5  2  0  0  0  0
  9  8  1  0  0  0  0
 10  6  1  0  0  0  0
 12 10  2  0  0  0  0
 13 11  1  0  0  0  0
 13  9  2  0  0  0  0
 14 18  1  0  0  0  0
 14 16  1  0  0  0  0
 15  4  1  1  0  0  0
 16 15  1  0  0  0  0
 17 15  1  0  0  0  0
 18 17  1  0  0  0  0
 19  9  1  0  0  0  0
 19 24  1  1  0  0  0
 20 21  1  0  0  0  0
 21 23  1  0  0  0  0
 22 23  2  0  0  0  0
 23 19  1  0  0  0  0
 24 25  1  0  0  0  0
 25 28  1  0  0  0  0
 28 26  1  0  0  0  0
 28 27  1  1  0  0  0
M  END
>  <MODEL>
9

>  <REMARK>
 VINA RESULT:      -7.6      2.450      4.836
  Name = 
  6 active torsions:
  status: ('A' for Active; 'I' for Inactive)
    1  A    between atoms: C_5  and  C_11
    2  A    between atoms: C_6  and  C_15
    3  A    between atoms: C_6  and  C_25
    4  A    between atoms: C_15  and  C_16
    5  A    between atoms: C_16  and  C_17
    6  A    between atoms: C_16  and  C_21
                            x       y       z     vdW  Elec       q    Type
                         _______ _______ _______ _____ _____    ______ ____

>  <TORSDO>
F 6

$$$$
