=
 OpenBabel11062417413D

 39 41  0  0  1  0  0  0  0  0999 V2000
  193.3730  176.9830  139.5440 C   0  0  0  0  0  1  0  0  0  0  0  0
  191.0870  177.0200  138.4420 C   0  0  0  0  0  0  0  0  0  0  0  0
  192.1420  175.7630  136.1650 C   0  0  0  0  0  3  0  0  0  0  0  0
  190.2460  176.7110  137.3470 C   0  0  0  0  0  0  0  0  0  0  0  0
  192.4650  176.7020  138.3790 C   0  0  0  0  0  0  0  0  0  0  0  0
  190.7860  176.0720  136.2270 C   0  0  0  0  0  3  0  0  0  0  0  0
  192.9850  176.0810  137.2280 C   0  0  0  0  0  0  0  0  0  0  0  0
  194.6880  175.6550  137.0850 Cl  0  0  0  0  0  0  0  0  0  0  0  0
  187.7440  175.9160  137.3530 C   0  0  2  0  0  3  0  0  0  0  0  0
  186.7830  178.1850  137.6810 C   0  0  2  0  0  3  0  0  0  0  0  0
  187.6930  175.2340  136.0000 C   0  0  0  0  0  1  0  0  0  0  0  0
  189.0020  179.3720  137.4290 O   0  0  0  0  0  1  0  0  0  0  0  0
  186.5070  176.7290  137.5410 C   0  0  0  0  0  0  0  0  0  0  0  0
  188.7890  176.9830  137.3680 C   0  0  0  0  0  0  0  0  0  0  0  0
  188.2560  178.1980  137.4770 C   0  0  0  0  0  0  0  0  0  0  0  0
  185.3850  176.2490  137.5930 O   0  0  0  0  0  0  0  0  0  0  0  0
  186.4880  178.5760  139.0460 N   0  0  0  0  0  2  0  0  0  0  0  0
  185.1800  179.0820  139.0800 N   0  0  0  0  0  2  0  0  0  0  0  0
  184.3230  178.8310  140.2000 C   0  0  0  0  0  0  0  0  0  0  0  0
  183.1280  177.7170  140.1010 S   0  0  0  0  0  0  0  0  0  0  0  0
  184.5150  179.5250  141.4290 N   0  0  0  0  0  2  0  0  0  0  0  0
  185.1230  178.8930  142.5850 C   0  0  0  0  0  2  0  0  0  0  0  0
  182.9510  178.9490  143.7900 C   0  0  0  0  0  1  0  0  0  0  0  0
  185.0670  178.7070  145.0490 C   0  0  0  0  0  1  0  0  0  0  0  0
  184.4110  179.3480  143.8460 C   0  0  0  0  0  3  0  0  0  0  0  0
  190.5010  177.5980  139.7070 C   0  0  0  0  0  2  0  0  0  0  0  0
  190.0340  176.4980  140.6600 C   0  0  0  0  0  2  0  0  0  0  0  0
  191.4150  177.8140  142.2420 C   0  0  0  0  0  1  0  0  0  0  0  0
  190.2210  176.8820  142.1280 C   0  0  2  0  0  0  0  0  0  0  0  0
  190.5140  175.6100  142.9280 C   0  0  0  0  0  2  0  0  0  0  0  0
  191.6770  175.7900  143.8940 C   0  0  0  0  0  1  0  0  0  0  0  0
  189.0610  177.5520  142.6380 O   0  0  0  0  0  0  0  0  0  0  0  0
  188.8510  177.7320  145.0590 N   0  0  0  0  0  2  0  0  0  0  0  0
  187.3900  176.4240  143.7900 O   0  0  0  0  0  0  0  0  0  0  0  0
  188.3880  177.1970  143.8170 C   0  0  0  0  0  0  0  0  0  0  0  0
  188.9500  178.1490  147.4580 C   0  0  1  0  0  3  0  0  0  0  0  0
  189.3710  176.7170  147.1940 C   0  0  0  0  0  2  0  0  0  0  0  0
  188.2870  177.3540  146.3480 C   0  0  2  0  0  3  0  0  0  0  0  0
  188.1020  178.1790  148.5580 O   0  0  0  0  0  1  0  0  0  0  0  0
  2 26  1  0  0  0  0
  3  6  2  0  0  0  0
  3  7  1  0  0  0  0
  4 14  1  0  0  0  0
  4  2  2  0  0  0  0
  5  2  1  0  0  0  0
  5  1  1  0  0  0  0
  6  4  1  0  0  0  0
  7  5  2  0  0  0  0
  8  7  1  0  0  0  0
  9 11  1  6  0  0  0
  9 14  1  0  0  0  0
  9 13  1  0  0  0  0
 10 17  1  1  0  0  0
 12 15  1  0  0  0  0
 13 16  2  0  0  0  0
 13 10  1  0  0  0  0
 14 15  2  0  0  0  0
 15 10  1  0  0  0  0
 17 18  1  0  0  0  0
 18 19  1  0  0  0  0
 19 21  1  0  0  0  0
 20 19  2  0  0  0  0
 21 22  1  0  0  0  0
 22 25  1  0  0  0  0
 23 25  1  0  0  0  0
 25 24  1  0  0  0  0
 26 27  1  0  0  0  0
 27 29  1  0  0  0  0
 29 28  1  1  0  0  0
 29 32  1  0  0  0  0
 29 30  1  0  0  0  0
 30 31  1  0  0  0  0
 32 35  1  0  0  0  0
 34 35  2  0  0  0  0
 35 33  1  0  0  0  0
 36 39  1  1  0  0  0
 37 36  1  0  0  0  0
 38 33  1  6  0  0  0
 38 37  1  0  0  0  0
 38 36  1  0  0  0  0
M  END
>  <MODEL>
1

>  <REMARK>
 VINA RESULT:      -7.5      0.000      0.000
  Name = 
  14 active torsions:
  status: ('A' for Active; 'I' for Inactive)
    1  A    between atoms: C_2  and  C_14
    2  A    between atoms: C_7  and  C_24
    3  A    between atoms: N_9  and  C_31
    4  A    between atoms: C_10  and  N_21
    5  A    between atoms: C_10  and  N_38
    6  A    between atoms: N_13  and  C_17
    7  A    between atoms: N_13  and  N_21
    8  A    between atoms: C_14  and  O_26
    9  A    between atoms: C_14  and  C_36
   10  A    between atoms: C_15  and  C_27
   11  A    between atoms: C_18  and  C_20
   12  A    between atoms: C_20  and  N_38
   13  A    between atoms: C_24  and  C_36
   14  A    between atoms: O_26  and  C_34
                            x       y       z     vdW  Elec       q    Type
                         _______ _______ _______ _____ _____    ______ ____

>  <TORSDO>
F 14

$$$$
=
 OpenBabel11062417413D

 39 41  0  0  1  0  0  0  0  0999 V2000
  193.0430  176.9630  139.5740 C   0  0  0  0  0  1  0  0  0  0  0  0
  190.7470  177.1110  138.5030 C   0  0  0  0  0  0  0  0  0  0  0  0
  191.7430  175.9340  136.1570 C   0  0  0  0  0  3  0  0  0  0  0  0
  189.8860  176.8750  137.4060 C   0  0  0  0  0  0  0  0  0  0  0  0
  192.1160  176.7600  138.4080 C   0  0  0  0  0  0  0  0  0  0  0  0
  190.3960  176.2750  136.2500 C   0  0  0  0  0  3  0  0  0  0  0  0
  192.6060  176.1800  137.2240 C   0  0  0  0  0  0  0  0  0  0  0  0
  194.2950  175.7160  137.0390 Cl  0  0  0  0  0  0  0  0  0  0  0  0
  187.3640  176.1470  137.4030 C   0  0  2  0  0  3  0  0  0  0  0  0
  186.4680  178.4220  137.8520 C   0  0  2  0  0  3  0  0  0  0  0  0
  187.2800  175.5330  136.0200 C   0  0  0  0  0  1  0  0  0  0  0  0
  188.7150  179.5610  137.6300 O   0  0  0  0  0  1  0  0  0  0  0  0
  186.1510  176.9820  137.6450 C   0  0  0  0  0  0  0  0  0  0  0  0
  188.4370  177.1840  137.4570 C   0  0  0  0  0  0  0  0  0  0  0  0
  187.9380  178.4060  137.6300 C   0  0  0  0  0  0  0  0  0  0  0  0
  185.0180  176.5300  137.6880 O   0  0  0  0  0  0  0  0  0  0  0  0
  186.1980  178.7550  139.2370 N   0  0  0  0  0  2  0  0  0  0  0  0
  185.0090  179.4990  139.2830 N   0  0  0  0  0  2  0  0  0  0  0  0
  183.8680  179.0180  140.0000 C   0  0  0  0  0  0  0  0  0  0  0  0
  182.3980  178.9540  139.2810 S   0  0  0  0  0  0  0  0  0  0  0  0
  183.9960  178.5600  141.3430 N   0  0  0  0  0  2  0  0  0  0  0  0
  184.8580  179.2210  142.3050 C   0  0  0  0  0  2  0  0  0  0  0  0
  182.7160  178.8370  143.5010 C   0  0  0  0  0  1  0  0  0  0  0  0
  184.8540  178.8240  144.7440 C   0  0  0  0  0  1  0  0  0  0  0  0
  184.0960  179.4530  143.5960 C   0  0  0  0  0  3  0  0  0  0  0  0
  190.1910  177.6450  139.8010 C   0  0  0  0  0  2  0  0  0  0  0  0
  189.5660  176.5320  140.6400 C   0  0  0  0  0  2  0  0  0  0  0  0
  189.6720  175.4820  142.8830 C   0  0  0  0  0  1  0  0  0  0  0  0
  189.6670  176.8080  142.1410 C   0  0  2  0  0  0  0  0  0  0  0  0
  188.4340  177.6060  142.5710 C   0  0  0  0  0  2  0  0  0  0  0  0
  187.7850  177.0370  143.8250 C   0  0  0  0  0  1  0  0  0  0  0  0
  190.8720  177.5180  142.4550 O   0  0  0  0  0  0  0  0  0  0  0  0
  191.3890  176.9110  144.7580 N   0  0  0  0  0  2  0  0  0  0  0  0
  191.4770  179.1250  144.0180 O   0  0  0  0  0  0  0  0  0  0  0  0
  191.2530  177.9120  143.7460 C   0  0  0  0  0  0  0  0  0  0  0  0
  191.8570  175.9390  146.9420 C   0  0  1  0  0  3  0  0  0  0  0  0
  190.5540  176.7090  147.0210 C   0  0  0  0  0  2  0  0  0  0  0  0
  191.6840  177.2220  146.1500 C   0  0  2  0  0  3  0  0  0  0  0  0
  192.6140  176.2090  148.0750 O   0  0  0  0  0  1  0  0  0  0  0  0
  2 26  1  0  0  0  0
  3  6  2  0  0  0  0
  3  7  1  0  0  0  0
  4 14  1  0  0  0  0
  4  2  2  0  0  0  0
  5  2  1  0  0  0  0
  5  1  1  0  0  0  0
  6  4  1  0  0  0  0
  7  5  2  0  0  0  0
  8  7  1  0  0  0  0
  9 11  1  6  0  0  0
  9 14  1  0  0  0  0
  9 13  1  0  0  0  0
 10 17  1  1  0  0  0
 12 15  1  0  0  0  0
 13 16  2  0  0  0  0
 13 10  1  0  0  0  0
 14 15  2  0  0  0  0
 15 10  1  0  0  0  0
 17 18  1  0  0  0  0
 18 19  1  0  0  0  0
 19 21  1  0  0  0  0
 20 19  2  0  0  0  0
 21 22  1  0  0  0  0
 22 25  1  0  0  0  0
 23 25  1  0  0  0  0
 25 24  1  0  0  0  0
 26 27  1  0  0  0  0
 27 29  1  0  0  0  0
 29 32  1  0  0  0  0
 29 30  1  0  0  0  0
 29 28  1  1  0  0  0
 30 31  1  0  0  0  0
 32 35  1  0  0  0  0
 35 34  2  0  0  0  0
 35 33  1  0  0  0  0
 36 37  1  0  0  0  0
 36 39  1  1  0  0  0
 38 33  1  6  0  0  0
 38 36  1  0  0  0  0
 38 37  1  0  0  0  0
M  END
>  <MODEL>
2

>  <REMARK>
 VINA RESULT:      -7.1      1.426      1.876
  Name = 
  14 active torsions:
  status: ('A' for Active; 'I' for Inactive)
    1  A    between atoms: C_2  and  C_14
    2  A    between atoms: C_7  and  C_24
    3  A    between atoms: N_9  and  C_31
    4  A    between atoms: C_10  and  N_21
    5  A    between atoms: C_10  and  N_38
    6  A    between atoms: N_13  and  C_17
    7  A    between atoms: N_13  and  N_21
    8  A    between atoms: C_14  and  O_26
    9  A    between atoms: C_14  and  C_36
   10  A    between atoms: C_15  and  C_27
   11  A    between atoms: C_18  and  C_20
   12  A    between atoms: C_20  and  N_38
   13  A    between atoms: C_24  and  C_36
   14  A    between atoms: O_26  and  C_34
                            x       y       z     vdW  Elec       q    Type
                         _______ _______ _______ _____ _____    ______ ____

>  <TORSDO>
F 14

$$$$
=
 OpenBabel11062417413D

 39 41  0  0  1  0  0  0  0  0999 V2000
  189.1330  176.7760  146.2020 C   0  0  0  0  0  1  0  0  0  0  0  0
  187.3140  177.6090  144.6400 C   0  0  0  0  0  0  0  0  0  0  0  0
  185.9530  178.7620  146.8070 C   0  0  0  0  0  3  0  0  0  0  0  0
  186.1040  178.3100  144.4270 C   0  0  0  0  0  0  0  0  0  0  0  0
  187.8290  177.4820  145.9540 C   0  0  0  0  0  0  0  0  0  0  0  0
  185.4470  178.8900  145.5160 C   0  0  0  0  0  3  0  0  0  0  0  0
  187.1330  178.0560  147.0330 C   0  0  0  0  0  0  0  0  0  0  0  0
  187.7180  177.9400  148.6900 Cl  0  0  0  0  0  0  0  0  0  0  0  0
  186.3580  178.6020  141.8310 C   0  0  2  0  0  3  0  0  0  0  0  0
  183.9180  178.5580  141.3550 C   0  0  2  0  0  3  0  0  0  0  0  0
  187.1370  179.9030  141.7980 C   0  0  0  0  0  1  0  0  0  0  0  0
  183.2470  178.5730  143.7940 O   0  0  0  0  0  1  0  0  0  0  0  0
  185.2920  178.6410  140.7880 C   0  0  0  0  0  0  0  0  0  0  0  0
  185.5350  178.5100  143.0740 C   0  0  0  0  0  0  0  0  0  0  0  0
  184.2310  178.5550  142.8100 C   0  0  0  0  0  0  0  0  0  0  0  0
  185.5200  178.7150  139.5900 O   0  0  0  0  0  0  0  0  0  0  0  0
  183.3490  177.2750  140.9880 N   0  0  0  0  0  2  0  0  0  0  0  0
  182.3430  177.5020  140.0370 N   0  0  0  0  0  2  0  0  0  0  0  0
  180.9590  177.4330  140.4000 C   0  0  0  0  0  0  0  0  0  0  0  0
  180.0850  176.0820  140.0970 S   0  0  0  0  0  0  0  0  0  0  0  0
  180.3270  178.5270  141.0570 N   0  0  0  0  0  2  0  0  0  0  0  0
  179.0370  178.3950  141.7080 C   0  0  0  0  0  2  0  0  0  0  0  0
  179.8460  178.2600  144.0520 C   0  0  0  0  0  1  0  0  0  0  0  0
  179.7370  180.4450  142.8980 C   0  0  0  0  0  1  0  0  0  0  0  0
  179.0720  179.0950  143.0540 C   0  0  0  0  0  3  0  0  0  0  0  0
  188.1010  177.0810  143.4650 C   0  0  0  0  0  2  0  0  0  0  0  0
  189.2870  177.9860  143.1350 C   0  0  0  0  0  2  0  0  0  0  0  0
  190.2070  175.7100  142.7940 C   0  0  0  0  0  1  0  0  0  0  0  0
  190.5150  177.1940  142.6820 C   0  0  2  0  0  0  0  0  0  0  0  0
  191.6780  177.5250  143.6200 C   0  0  0  0  0  2  0  0  0  0  0  0
  191.6180  178.9590  144.1300 C   0  0  0  0  0  1  0  0  0  0  0  0
  190.8500  177.4950  141.3220 O   0  0  0  0  0  0  0  0  0  0  0  0
  190.8990  176.0930  139.3300 N   0  0  0  0  0  2  0  0  0  0  0  0
  188.9820  177.2680  139.9620 O   0  0  0  0  0  0  0  0  0  0  0  0
  190.1870  176.9730  140.2020 C   0  0  0  0  0  0  0  0  0  0  0  0
  191.3640  174.7120  137.3770 C   0  0  1  0  0  3  0  0  0  0  0  0
  191.1180  176.1360  136.9200 C   0  0  0  0  0  2  0  0  0  0  0  0
  190.3380  175.5730  138.0910 C   0  0  2  0  0  3  0  0  0  0  0  0
  190.7030  173.8400  136.5220 O   0  0  0  0  0  1  0  0  0  0  0  0
  2  5  1  0  0  0  0
  3  7  1  0  0  0  0
  4  2  2  0  0  0  0
  4  6  1  0  0  0  0
  5  1  1  0  0  0  0
  5  7  2  0  0  0  0
  6  3  2  0  0  0  0
  7  8  1  0  0  0  0
  9 11  1  1  0  0  0
  9 14  1  0  0  0  0
 10 17  1  6  0  0  0
 10 15  1  0  0  0  0
 13 10  1  0  0  0  0
 13  9  1  0  0  0  0
 14  4  1  0  0  0  0
 15 14  2  0  0  0  0
 15 12  1  0  0  0  0
 16 13  2  0  0  0  0
 18 19  1  0  0  0  0
 18 17  1  0  0  0  0
 19 21  1  0  0  0  0
 20 19  2  0  0  0  0
 21 22  1  0  0  0  0
 22 25  1  0  0  0  0
 24 25  1  0  0  0  0
 25 23  1  0  0  0  0
 26  2  1  0  0  0  0
 27 26  1  0  0  0  0
 29 28  1  1  0  0  0
 29 27  1  0  0  0  0
 29 30  1  0  0  0  0
 30 31  1  0  0  0  0
 32 29  1  0  0  0  0
 33 35  1  0  0  0  0
 34 35  2  0  0  0  0
 35 32  1  0  0  0  0
 36 39  1  6  0  0  0
 36 38  1  0  0  0  0
 37 36  1  0  0  0  0
 37 38  1  0  0  0  0
 38 33  1  1  0  0  0
M  END
>  <MODEL>
3

>  <REMARK>
 VINA RESULT:      -6.9      3.467      7.083
  Name = 
  14 active torsions:
  status: ('A' for Active; 'I' for Inactive)
    1  A    between atoms: C_2  and  C_14
    2  A    between atoms: C_7  and  C_24
    3  A    between atoms: N_9  and  C_31
    4  A    between atoms: C_10  and  N_21
    5  A    between atoms: C_10  and  N_38
    6  A    between atoms: N_13  and  C_17
    7  A    between atoms: N_13  and  N_21
    8  A    between atoms: C_14  and  O_26
    9  A    between atoms: C_14  and  C_36
   10  A    between atoms: C_15  and  C_27
   11  A    between atoms: C_18  and  C_20
   12  A    between atoms: C_20  and  N_38
   13  A    between atoms: C_24  and  C_36
   14  A    between atoms: O_26  and  C_34
                            x       y       z     vdW  Elec       q    Type
                         _______ _______ _______ _____ _____    ______ ____

>  <TORSDO>
F 14

$$$$
=
 OpenBabel11062417413D

 39 41  0  0  1  0  0  0  0  0999 V2000
  189.1460  176.7960  146.2440 C   0  0  0  0  0  1  0  0  0  0  0  0
  187.2940  177.6240  144.7190 C   0  0  0  0  0  0  0  0  0  0  0  0
  185.9680  178.7650  146.9140 C   0  0  0  0  0  3  0  0  0  0  0  0
  186.0770  178.3210  144.5310 C   0  0  0  0  0  0  0  0  0  0  0  0
  187.8340  177.4960  146.0220 C   0  0  0  0  0  0  0  0  0  0  0  0
  185.4380  178.8950  145.6330 C   0  0  0  0  0  3  0  0  0  0  0  0
  187.1560  178.0640  147.1160 C   0  0  0  0  0  0  0  0  0  0  0  0
  187.7730  177.9460  148.7610 Cl  0  0  0  0  0  0  0  0  0  0  0  0
  186.2800  178.6260  141.9310 C   0  0  2  0  0  3  0  0  0  0  0  0
  183.8330  178.5630  141.5010 C   0  0  2  0  0  3  0  0  0  0  0  0
  187.0480  179.9330  141.8900 C   0  0  0  0  0  1  0  0  0  0  0  0
  183.2060  178.5620  143.9510 O   0  0  0  0  0  1  0  0  0  0  0  0
  185.1950  178.6600  140.9080 C   0  0  0  0  0  0  0  0  0  0  0  0
  185.4810  178.5220  143.1890 C   0  0  0  0  0  0  0  0  0  0  0  0
  184.1720  178.5570  142.9490 C   0  0  0  0  0  0  0  0  0  0  0  0
  185.4010  178.7410  139.7070 O   0  0  0  0  0  0  0  0  0  0  0  0
  183.2690  177.2770  141.1380 N   0  0  0  0  0  2  0  0  0  0  0  0
  182.2050  177.5030  140.2520 N   0  0  0  0  0  2  0  0  0  0  0  0
  182.3680  177.3110  138.8420 C   0  0  0  0  0  0  0  0  0  0  0  0
  182.9050  175.8810  138.2530 S   0  0  0  0  0  0  0  0  0  0  0  0
  182.0390  178.3520  137.9260 N   0  0  0  0  0  2  0  0  0  0  0  0
  182.2430  179.7530  138.2450 C   0  0  0  0  0  2  0  0  0  0  0  0
  181.2120  182.0120  138.1860 C   0  0  0  0  0  1  0  0  0  0  0  0
  180.7490  180.3850  136.3810 C   0  0  0  0  0  1  0  0  0  0  0  0
  181.0070  180.5460  137.8630 C   0  0  0  0  0  3  0  0  0  0  0  0
  188.0610  177.1030  143.5280 C   0  0  0  0  0  2  0  0  0  0  0  0
  189.2580  177.9950  143.2000 C   0  0  0  0  0  2  0  0  0  0  0  0
  190.1350  175.7120  142.7980 C   0  0  0  0  0  1  0  0  0  0  0  0
  190.4630  177.1920  142.7060 C   0  0  2  0  0  0  0  0  0  0  0  0
  191.6510  177.4900  143.6230 C   0  0  0  0  0  2  0  0  0  0  0  0
  191.6260  178.9150  144.1590 C   0  0  0  0  0  1  0  0  0  0  0  0
  190.7730  177.5130  141.3440 O   0  0  0  0  0  0  0  0  0  0  0  0
  190.8280  176.1500  139.3250 N   0  0  0  0  0  2  0  0  0  0  0  0
  188.8850  177.2440  140.0200 O   0  0  0  0  0  0  0  0  0  0  0  0
  190.1040  176.9890  140.2280 C   0  0  0  0  0  0  0  0  0  0  0  0
  191.2530  174.7160  137.4020 C   0  0  1  0  0  3  0  0  0  0  0  0
  191.0760  176.1410  136.9170 C   0  0  0  0  0  2  0  0  0  0  0  0
  190.2580  175.6340  138.0890 C   0  0  2  0  0  3  0  0  0  0  0  0
  190.5630  173.8580  136.5550 O   0  0  0  0  0  1  0  0  0  0  0  0
  2  5  1  0  0  0  0
  3  7  1  0  0  0  0
  4  2  2  0  0  0  0
  4  6  1  0  0  0  0
  5  1  1  0  0  0  0
  5  7  2  0  0  0  0
  6  3  2  0  0  0  0
  7  8  1  0  0  0  0
  9 11  1  1  0  0  0
  9 14  1  0  0  0  0
 10 17  1  6  0  0  0
 10 15  1  0  0  0  0
 13 10  1  0  0  0  0
 13  9  1  0  0  0  0
 14  4  1  0  0  0  0
 15 14  2  0  0  0  0
 15 12  1  0  0  0  0
 16 13  2  0  0  0  0
 18 17  1  0  0  0  0
 19 18  1  0  0  0  0
 20 19  2  0  0  0  0
 21 22  1  0  0  0  0
 21 19  1  0  0  0  0
 24 25  1  0  0  0  0
 25 23  1  0  0  0  0
 25 22  1  0  0  0  0
 26  2  1  0  0  0  0
 27 26  1  0  0  0  0
 29 28  1  1  0  0  0
 29 27  1  0  0  0  0
 29 30  1  0  0  0  0
 30 31  1  0  0  0  0
 32 29  1  0  0  0  0
 33 35  1  0  0  0  0
 34 35  2  0  0  0  0
 35 32  1  0  0  0  0
 36 39  1  6  0  0  0
 36 38  1  0  0  0  0
 37 36  1  0  0  0  0
 37 38  1  0  0  0  0
 38 33  1  1  0  0  0
M  END
>  <MODEL>
4

>  <REMARK>
 VINA RESULT:      -6.7      3.450      7.289
  Name = 
  14 active torsions:
  status: ('A' for Active; 'I' for Inactive)
    1  A    between atoms: C_2  and  C_14
    2  A    between atoms: C_7  and  C_24
    3  A    between atoms: N_9  and  C_31
    4  A    between atoms: C_10  and  N_21
    5  A    between atoms: C_10  and  N_38
    6  A    between atoms: N_13  and  C_17
    7  A    between atoms: N_13  and  N_21
    8  A    between atoms: C_14  and  O_26
    9  A    between atoms: C_14  and  C_36
   10  A    between atoms: C_15  and  C_27
   11  A    between atoms: C_18  and  C_20
   12  A    between atoms: C_20  and  N_38
   13  A    between atoms: C_24  and  C_36
   14  A    between atoms: O_26  and  C_34
                            x       y       z     vdW  Elec       q    Type
                         _______ _______ _______ _____ _____    ______ ____

>  <TORSDO>
F 14

$$$$
=
 OpenBabel11062417413D

 39 41  0  0  1  0  0  0  0  0999 V2000
  189.1630  176.7870  146.1600 C   0  0  0  0  0  1  0  0  0  0  0  0
  187.3070  177.6030  144.6330 C   0  0  0  0  0  0  0  0  0  0  0  0
  185.9780  178.7460  146.8240 C   0  0  0  0  0  3  0  0  0  0  0  0
  186.0870  178.2940  144.4420 C   0  0  0  0  0  0  0  0  0  0  0  0
  187.8480  177.4820  145.9360 C   0  0  0  0  0  0  0  0  0  0  0  0
  185.4460  178.8690  145.5430 C   0  0  0  0  0  3  0  0  0  0  0  0
  187.1680  178.0500  147.0280 C   0  0  0  0  0  0  0  0  0  0  0  0
  187.7860  177.9410  148.6730 Cl  0  0  0  0  0  0  0  0  0  0  0  0
  186.2890  178.6090  141.8440 C   0  0  2  0  0  3  0  0  0  0  0  0
  183.8430  178.5040  141.4090 C   0  0  2  0  0  3  0  0  0  0  0  0
  187.0330  179.9300  141.8070 C   0  0  0  0  0  1  0  0  0  0  0  0
  183.2130  178.4860  143.8580 O   0  0  0  0  0  1  0  0  0  0  0  0
  185.2050  178.6270  140.8190 C   0  0  0  0  0  0  0  0  0  0  0  0
  185.4900  178.4880  143.1000 C   0  0  0  0  0  0  0  0  0  0  0  0
  184.1810  178.5000  142.8580 C   0  0  0  0  0  0  0  0  0  0  0  0
  185.4110  178.7140  139.6180 O   0  0  0  0  0  0  0  0  0  0  0  0
  183.3030  177.2090  141.0420 N   0  0  0  0  0  2  0  0  0  0  0  0
  182.1750  177.4220  140.2350 N   0  0  0  0  0  2  0  0  0  0  0  0
  181.7720  176.4490  139.2640 C   0  0  0  0  0  0  0  0  0  0  0  0
  182.8800  175.7260  138.3000 S   0  0  0  0  0  0  0  0  0  0  0  0
  180.4040  176.0730  139.1410 N   0  0  0  0  0  2  0  0  0  0  0  0
  179.5250  175.9710  140.2910 C   0  0  0  0  0  2  0  0  0  0  0  0
  179.1690  173.8470  139.0530 C   0  0  0  0  0  1  0  0  0  0  0  0
  179.6110  173.8100  141.4860 C   0  0  0  0  0  1  0  0  0  0  0  0
  178.9420  174.5720  140.3630 C   0  0  0  0  0  3  0  0  0  0  0  0
  188.0750  177.0800  143.4430 C   0  0  0  0  0  2  0  0  0  0  0  0
  189.2490  177.9930  143.0910 C   0  0  0  0  0  2  0  0  0  0  0  0
  190.2000  175.7210  142.8120 C   0  0  0  0  0  1  0  0  0  0  0  0
  190.5120  177.2060  142.7370 C   0  0  2  0  0  0  0  0  0  0  0  0
  191.5920  177.5330  143.7710 C   0  0  0  0  0  2  0  0  0  0  0  0
  191.5840  179.0030  144.1700 C   0  0  0  0  0  1  0  0  0  0  0  0
  190.9600  177.5180  141.4120 O   0  0  0  0  0  0  0  0  0  0  0  0
  189.4010  177.9110  139.5810 N   0  0  0  0  0  2  0  0  0  0  0  0
  190.6230  175.9280  139.7530 O   0  0  0  0  0  0  0  0  0  0  0  0
  190.3470  177.0620  140.2350 C   0  0  0  0  0  0  0  0  0  0  0  0
  189.4080  177.8330  137.1460 C   0  0  1  0  0  3  0  0  0  0  0  0
  188.2720  178.7280  137.6010 C   0  0  0  0  0  2  0  0  0  0  0  0
  188.6380  177.4990  138.4110 C   0  0  2  0  0  3  0  0  0  0  0  0
  188.9570  177.0150  136.1170 O   0  0  0  0  0  1  0  0  0  0  0  0
  2  5  1  0  0  0  0
  3  7  1  0  0  0  0
  4  2  2  0  0  0  0
  4  6  1  0  0  0  0
  5  1  1  0  0  0  0
  5  7  2  0  0  0  0
  6  3  2  0  0  0  0
  7  8  1  0  0  0  0
  9 11  1  1  0  0  0
  9 14  1  0  0  0  0
 10 17  1  6  0  0  0
 10 15  1  0  0  0  0
 13 10  1  0  0  0  0
 13  9  1  0  0  0  0
 14  4  1  0  0  0  0
 15 14  2  0  0  0  0
 15 12  1  0  0  0  0
 16 13  2  0  0  0  0
 18 17  1  0  0  0  0
 19 18  1  0  0  0  0
 20 19  2  0  0  0  0
 21 19  1  0  0  0  0
 21 22  1  0  0  0  0
 22 25  1  0  0  0  0
 23 25  1  0  0  0  0
 25 24  1  0  0  0  0
 26  2  1  0  0  0  0
 27 26  1  0  0  0  0
 29 28  1  1  0  0  0
 29 27  1  0  0  0  0
 29 30  1  0  0  0  0
 30 31  1  0  0  0  0
 32 29  1  0  0  0  0
 33 35  1  0  0  0  0
 34 35  2  0  0  0  0
 35 32  1  0  0  0  0
 36 39  1  6  0  0  0
 36 37  1  0  0  0  0
 36 38  1  0  0  0  0
 37 38  1  0  0  0  0
 38 33  1  1  0  0  0
M  END
>  <MODEL>
5

>  <REMARK>
 VINA RESULT:      -6.7      3.707      7.246
  Name = 
  14 active torsions:
  status: ('A' for Active; 'I' for Inactive)
    1  A    between atoms: C_2  and  C_14
    2  A    between atoms: C_7  and  C_24
    3  A    between atoms: N_9  and  C_31
    4  A    between atoms: C_10  and  N_21
    5  A    between atoms: C_10  and  N_38
    6  A    between atoms: N_13  and  C_17
    7  A    between atoms: N_13  and  N_21
    8  A    between atoms: C_14  and  O_26
    9  A    between atoms: C_14  and  C_36
   10  A    between atoms: C_15  and  C_27
   11  A    between atoms: C_18  and  C_20
   12  A    between atoms: C_20  and  N_38
   13  A    between atoms: C_24  and  C_36
   14  A    between atoms: O_26  and  C_34
                            x       y       z     vdW  Elec       q    Type
                         _______ _______ _______ _____ _____    ______ ____

>  <TORSDO>
F 14

$$$$
=
 OpenBabel11062417413D

 39 41  0  0  1  0  0  0  0  0999 V2000
  188.9130  176.5340  146.3970 C   0  0  0  0  0  1  0  0  0  0  0  0
  187.2180  177.5060  144.7780 C   0  0  0  0  0  0  0  0  0  0  0  0
  185.9880  178.9090  146.8760 C   0  0  0  0  0  3  0  0  0  0  0  0
  186.1020  178.3370  144.5200 C   0  0  0  0  0  0  0  0  0  0  0  0
  187.7040  177.3780  146.1020 C   0  0  0  0  0  0  0  0  0  0  0  0
  185.5100  179.0390  145.5740 C   0  0  0  0  0  3  0  0  0  0  0  0
  187.0740  178.0780  147.1470 C   0  0  0  0  0  0  0  0  0  0  0  0
  187.6290  177.9670  148.8140 Cl  0  0  0  0  0  0  0  0  0  0  0  0
  186.4260  178.6310  141.9320 C   0  0  2  0  0  3  0  0  0  0  0  0
  183.9990  178.6030  141.3910 C   0  0  2  0  0  3  0  0  0  0  0  0
  187.2140  179.9270  141.9220 C   0  0  0  0  0  1  0  0  0  0  0  0
  183.2640  178.6190  143.8110 O   0  0  0  0  0  1  0  0  0  0  0  0
  185.3880  178.6780  140.8610 C   0  0  0  0  0  0  0  0  0  0  0  0
  185.5700  178.5420  143.1520 C   0  0  0  0  0  0  0  0  0  0  0  0
  184.2730  178.5960  142.8530 C   0  0  0  0  0  0  0  0  0  0  0  0
  185.6490  178.7520  139.6700 O   0  0  0  0  0  0  0  0  0  0  0  0
  183.4330  177.3240  141.0070 N   0  0  0  0  0  2  0  0  0  0  0  0
  182.4430  177.5600  140.0410 N   0  0  0  0  0  2  0  0  0  0  0  0
  182.6470  177.1900  138.6730 C   0  0  0  0  0  0  0  0  0  0  0  0
  181.7340  177.8530  137.4860 S   0  0  0  0  0  0  0  0  0  0  0  0
  183.6660  176.2610  138.3180 N   0  0  0  0  0  2  0  0  0  0  0  0
  183.3750  174.8690  138.0280 C   0  0  0  0  0  2  0  0  0  0  0  0
  185.5090  175.3370  136.8470 C   0  0  0  0  0  1  0  0  0  0  0  0
  184.9650  173.0350  137.5680 C   0  0  0  0  0  1  0  0  0  0  0  0
  184.3930  174.3320  137.0400 C   0  0  0  0  0  3  0  0  0  0  0  0
  187.9440  176.8360  143.6370 C   0  0  0  0  0  2  0  0  0  0  0  0
  189.2250  177.5860  143.2740 C   0  0  0  0  0  2  0  0  0  0  0  0
  190.2660  175.3510  143.5310 C   0  0  0  0  0  1  0  0  0  0  0  0
  190.3160  176.6520  142.7470 C   0  0  2  0  0  0  0  0  0  0  0  0
  191.6750  177.3140  142.9820 C   0  0  0  0  0  2  0  0  0  0  0  0
  191.5510  178.6510  143.7000 C   0  0  0  0  0  1  0  0  0  0  0  0
  190.1200  176.3620  141.3570 O   0  0  0  0  0  0  0  0  0  0  0  0
  189.0660  177.7280  139.6370 N   0  0  0  0  0  2  0  0  0  0  0  0
  191.3740  177.7630  139.9950 O   0  0  0  0  0  0  0  0  0  0  0  0
  190.2460  177.2990  140.3210 C   0  0  0  0  0  0  0  0  0  0  0  0
  187.9920  178.2460  137.5120 C   0  0  1  0  0  3  0  0  0  0  0  0
  189.4200  177.8160  137.2440 C   0  0  0  0  0  2  0  0  0  0  0  0
  189.0930  178.6210  138.4870 C   0  0  2  0  0  3  0  0  0  0  0  0
  187.6940  179.3510  136.7250 O   0  0  0  0  0  1  0  0  0  0  0  0
  2  5  1  0  0  0  0
  3  7  1  0  0  0  0
  4  2  2  0  0  0  0
  4  6  1  0  0  0  0
  5  1  1  0  0  0  0
  5  7  2  0  0  0  0
  6  3  2  0  0  0  0
  7  8  1  0  0  0  0
  9 11  1  1  0  0  0
  9 14  1  0  0  0  0
 10 17  1  6  0  0  0
 10 15  1  0  0  0  0
 13 10  1  0  0  0  0
 13  9  1  0  0  0  0
 14  4  1  0  0  0  0
 15 14  2  0  0  0  0
 15 12  1  0  0  0  0
 16 13  2  0  0  0  0
 18 17  1  0  0  0  0
 19 18  1  0  0  0  0
 20 19  2  0  0  0  0
 21 19  1  0  0  0  0
 22 21  1  0  0  0  0
 23 25  1  0  0  0  0
 25 24  1  0  0  0  0
 25 22  1  0  0  0  0
 26  2  1  0  0  0  0
 27 26  1  0  0  0  0
 29 30  1  0  0  0  0
 29 27  1  0  0  0  0
 29 28  1  1  0  0  0
 30 31  1  0  0  0  0
 32 29  1  0  0  0  0
 33 35  1  0  0  0  0
 34 35  2  0  0  0  0
 35 32  1  0  0  0  0
 36 39  1  6  0  0  0
 36 38  1  0  0  0  0
 37 36  1  0  0  0  0
 37 38  1  0  0  0  0
 38 33  1  1  0  0  0
M  END
>  <MODEL>
6

>  <REMARK>
 VINA RESULT:      -6.6      3.307      7.277
  Name = 
  14 active torsions:
  status: ('A' for Active; 'I' for Inactive)
    1  A    between atoms: C_2  and  C_14
    2  A    between atoms: C_7  and  C_24
    3  A    between atoms: N_9  and  C_31
    4  A    between atoms: C_10  and  N_21
    5  A    between atoms: C_10  and  N_38
    6  A    between atoms: N_13  and  C_17
    7  A    between atoms: N_13  and  N_21
    8  A    between atoms: C_14  and  O_26
    9  A    between atoms: C_14  and  C_36
   10  A    between atoms: C_15  and  C_27
   11  A    between atoms: C_18  and  C_20
   12  A    between atoms: C_20  and  N_38
   13  A    between atoms: C_24  and  C_36
   14  A    between atoms: O_26  and  C_34
                            x       y       z     vdW  Elec       q    Type
                         _______ _______ _______ _____ _____    ______ ____

>  <TORSDO>
F 14

$$$$
=
 OpenBabel11062417413D

 39 41  0  0  1  0  0  0  0  0999 V2000
  185.9390  177.4960  146.6350 C   0  0  0  0  0  1  0  0  0  0  0  0
  187.6820  177.5530  144.7920 C   0  0  0  0  0  0  0  0  0  0  0  0
  189.7180  177.8580  146.6990 C   0  0  0  0  0  3  0  0  0  0  0  0
  189.0330  177.6430  144.3810 C   0  0  0  0  0  0  0  0  0  0  0  0
  187.3620  177.6290  146.1690 C   0  0  0  0  0  0  0  0  0  0  0  0
  190.0350  177.7800  145.3450 C   0  0  0  0  0  3  0  0  0  0  0  0
  188.3900  177.7910  147.1150 C   0  0  0  0  0  0  0  0  0  0  0  0
  188.0630  177.8880  148.8430 Cl  0  0  0  0  0  0  0  0  0  0  0  0
  190.1740  176.3640  142.3930 C   0  0  2  0  0  3  0  0  0  0  0  0
  189.4640  177.9810  140.6420 C   0  0  2  0  0  3  0  0  0  0  0  0
  191.6040  176.3370  142.8980 C   0  0  0  0  0  1  0  0  0  0  0  0
  188.5060  179.6410  142.2910 O   0  0  0  0  0  1  0  0  0  0  0  0
  190.1720  176.7050  140.9400 C   0  0  0  0  0  0  0  0  0  0  0  0
  189.4360  177.5330  142.9590 C   0  0  0  0  0  0  0  0  0  0  0  0
  189.1210  178.4220  142.0200 C   0  0  0  0  0  0  0  0  0  0  0  0
  190.6810  176.0030  140.0800 O   0  0  0  0  0  0  0  0  0  0  0  0
  188.2440  177.6690  139.9240 N   0  0  0  0  0  2  0  0  0  0  0  0
  188.0880  178.6150  138.9000 N   0  0  0  0  0  2  0  0  0  0  0  0
  188.0830  178.2170  137.5250 C   0  0  0  0  0  0  0  0  0  0  0  0
  189.4290  177.5910  136.8350 S   0  0  0  0  0  0  0  0  0  0  0  0
  186.8990  178.3320  136.7410 N   0  0  0  0  0  2  0  0  0  0  0  0
  185.7110  177.5460  137.0190 C   0  0  0  0  0  2  0  0  0  0  0  0
  185.5890  175.0710  136.8560 C   0  0  0  0  0  1  0  0  0  0  0  0
  184.4210  176.4860  135.1970 C   0  0  0  0  0  1  0  0  0  0  0  0
  185.6500  176.3640  136.0700 C   0  0  0  0  0  3  0  0  0  0  0  0
  186.5980  177.2830  143.7760 C   0  0  0  0  0  2  0  0  0  0  0  0
  185.2660  177.8950  144.2060 C   0  0  0  0  0  2  0  0  0  0  0  0
  185.2710  180.3390  143.7890 C   0  0  0  0  0  1  0  0  0  0  0  0
  184.7980  178.9980  143.2550 C   0  0  2  0  0  0  0  0  0  0  0  0
  183.2680  178.9940  143.2240 C   0  0  0  0  0  2  0  0  0  0  0  0
  182.6630  178.6420  144.5770 C   0  0  0  0  0  1  0  0  0  0  0  0
  185.3370  178.8080  141.9400 O   0  0  0  0  0  0  0  0  0  0  0  0
  183.7440  177.6520  140.5040 N   0  0  0  0  0  2  0  0  0  0  0  0
  184.6200  179.7420  139.9400 O   0  0  0  0  0  0  0  0  0  0  0  0
  184.5770  178.7850  140.7610 C   0  0  0  0  0  0  0  0  0  0  0  0
  181.5980  176.9630  139.5790 C   0  0  1  0  0  3  0  0  0  0  0  0
  182.6690  176.0120  139.0850 C   0  0  0  0  0  2  0  0  0  0  0  0
  182.9900  177.4820  139.2700 C   0  0  2  0  0  3  0  0  0  0  0  0
  180.7540  177.2860  138.5240 O   0  0  0  0  0  1  0  0  0  0  0  0
  2  5  1  0  0  0  0
  3  7  1  0  0  0  0
  4  2  2  0  0  0  0
  4  6  1  0  0  0  0
  5  1  1  0  0  0  0
  5  7  2  0  0  0  0
  6  3  2  0  0  0  0
  7  8  1  0  0  0  0
  9 11  1  1  0  0  0
  9 14  1  0  0  0  0
 10 17  1  6  0  0  0
 10 13  1  0  0  0  0
 10 15  1  0  0  0  0
 13  9  1  0  0  0  0
 14  4  1  0  0  0  0
 15 12  1  0  0  0  0
 15 14  2  0  0  0  0
 16 13  2  0  0  0  0
 18 17  1  0  0  0  0
 19 18  1  0  0  0  0
 20 19  2  0  0  0  0
 21 22  1  0  0  0  0
 21 19  1  0  0  0  0
 24 25  1  0  0  0  0
 25 23  1  0  0  0  0
 25 22  1  0  0  0  0
 26 27  1  0  0  0  0
 26  2  1  0  0  0  0
 29 28  1  1  0  0  0
 29 27  1  0  0  0  0
 30 29  1  0  0  0  0
 30 31  1  0  0  0  0
 32 29  1  0  0  0  0
 33 35  1  0  0  0  0
 34 35  2  0  0  0  0
 35 32  1  0  0  0  0
 36 39  1  6  0  0  0
 37 38  1  0  0  0  0
 37 36  1  0  0  0  0
 38 36  1  0  0  0  0
 38 33  1  1  0  0  0
M  END
>  <MODEL>
7

>  <REMARK>
 VINA RESULT:      -6.5      3.603      7.751
  Name = 
  14 active torsions:
  status: ('A' for Active; 'I' for Inactive)
    1  A    between atoms: C_2  and  C_14
    2  A    between atoms: C_7  and  C_24
    3  A    between atoms: N_9  and  C_31
    4  A    between atoms: C_10  and  N_21
    5  A    between atoms: C_10  and  N_38
    6  A    between atoms: N_13  and  C_17
    7  A    between atoms: N_13  and  N_21
    8  A    between atoms: C_14  and  O_26
    9  A    between atoms: C_14  and  C_36
   10  A    between atoms: C_15  and  C_27
   11  A    between atoms: C_18  and  C_20
   12  A    between atoms: C_20  and  N_38
   13  A    between atoms: C_24  and  C_36
   14  A    between atoms: O_26  and  C_34
                            x       y       z     vdW  Elec       q    Type
                         _______ _______ _______ _____ _____    ______ ____

>  <TORSDO>
F 14

$$$$
=
 OpenBabel11062417413D

 39 41  0  0  1  0  0  0  0  0999 V2000
  185.6740  177.5260  146.5720 C   0  0  0  0  0  1  0  0  0  0  0  0
  187.5520  177.5190  144.8650 C   0  0  0  0  0  0  0  0  0  0  0  0
  189.4430  177.8450  146.9140 C   0  0  0  0  0  3  0  0  0  0  0  0
  188.9310  177.5830  144.5560 C   0  0  0  0  0  0  0  0  0  0  0  0
  187.1300  177.6310  146.2120 C   0  0  0  0  0  0  0  0  0  0  0  0
  189.8600  177.7310  145.5900 C   0  0  0  0  0  3  0  0  0  0  0  0
  188.0860  177.8030  147.2300 C   0  0  0  0  0  0  0  0  0  0  0  0
  187.6310  177.9460  148.9250 Cl  0  0  0  0  0  0  0  0  0  0  0  0
  189.8500  176.1290  142.5730 C   0  0  2  0  0  3  0  0  0  0  0  0
  189.8590  177.9810  140.9140 C   0  0  2  0  0  3  0  0  0  0  0  0
  191.1400  175.6340  143.1990 C   0  0  0  0  0  1  0  0  0  0  0  0
  189.2660  179.7610  142.6110 O   0  0  0  0  0  1  0  0  0  0  0  0
  190.1130  176.5350  141.1610 C   0  0  0  0  0  0  0  0  0  0  0  0
  189.4390  177.4340  143.1710 C   0  0  0  0  0  0  0  0  0  0  0  0
  189.5130  178.4290  142.2900 C   0  0  0  0  0  0  0  0  0  0  0  0
  190.4810  175.7590  140.2920 O   0  0  0  0  0  0  0  0  0  0  0  0
  188.6900  178.1010  140.0650 N   0  0  0  0  0  2  0  0  0  0  0  0
  189.0600  178.8080  138.9120 N   0  0  0  0  0  2  0  0  0  0  0  0
  189.0690  178.1720  137.6290 C   0  0  0  0  0  0  0  0  0  0  0  0
  187.8200  178.3740  136.5910 S   0  0  0  0  0  0  0  0  0  0  0  0
  190.1780  177.3750  137.2230 N   0  0  0  0  0  2  0  0  0  0  0  0
  190.0340  175.9730  136.8750 C   0  0  0  0  0  2  0  0  0  0  0  0
  192.4660  176.0090  137.3830 C   0  0  0  0  0  1  0  0  0  0  0  0
  191.3670  173.9000  136.7010 C   0  0  0  0  0  1  0  0  0  0  0  0
  191.3900  175.4000  136.5070 C   0  0  0  0  0  3  0  0  0  0  0  0
  186.5440  177.2380  143.7770 C   0  0  0  0  0  2  0  0  0  0  0  0
  186.4550  178.3980  142.7860 C   0  0  0  0  0  2  0  0  0  0  0  0
  185.3080  180.2870  143.9090 C   0  0  0  0  0  1  0  0  0  0  0  0
  185.1340  179.1620  142.9030 C   0  0  2  0  0  0  0  0  0  0  0  0
  184.0630  178.2000  143.4230 C   0  0  0  0  0  2  0  0  0  0  0  0
  182.9960  178.9120  144.2420 C   0  0  0  0  0  1  0  0  0  0  0  0
  184.7500  179.7240  141.6420 O   0  0  0  0  0  0  0  0  0  0  0  0
  183.4390  178.2480  140.2140 N   0  0  0  0  0  2  0  0  0  0  0  0
  185.5570  179.0070  139.5870 O   0  0  0  0  0  0  0  0  0  0  0  0
  184.6330  178.9990  140.4470 C   0  0  0  0  0  0  0  0  0  0  0  0
  181.7740  177.1950  138.7810 C   0  0  1  0  0  3  0  0  0  0  0  0
  182.5600  176.1110  139.4920 C   0  0  0  0  0  2  0  0  0  0  0  0
  183.2550  177.3860  139.0550 C   0  0  2  0  0  3  0  0  0  0  0  0
  181.6060  176.8350  137.4500 O   0  0  0  0  0  1  0  0  0  0  0  0
  2  5  1  0  0  0  0
  3  7  1  0  0  0  0
  4  2  2  0  0  0  0
  4  6  1  0  0  0  0
  5  1  1  0  0  0  0
  5  7  2  0  0  0  0
  6  3  2  0  0  0  0
  7  8  1  0  0  0  0
  9 14  1  0  0  0  0
  9 11  1  1  0  0  0
 10 17  1  6  0  0  0
 10 13  1  0  0  0  0
 10 15  1  0  0  0  0
 13  9  1  0  0  0  0
 14  4  1  0  0  0  0
 15 12  1  0  0  0  0
 15 14  2  0  0  0  0
 16 13  2  0  0  0  0
 18 17  1  0  0  0  0
 19 18  1  0  0  0  0
 20 19  2  0  0  0  0
 21 19  1  0  0  0  0
 22 21  1  0  0  0  0
 25 24  1  0  0  0  0
 25 22  1  0  0  0  0
 25 23  1  0  0  0  0
 26  2  1  0  0  0  0
 27 29  1  0  0  0  0
 27 26  1  0  0  0  0
 29 30  1  0  0  0  0
 29 28  1  1  0  0  0
 30 31  1  0  0  0  0
 32 29  1  0  0  0  0
 33 35  1  0  0  0  0
 34 35  2  0  0  0  0
 35 32  1  0  0  0  0
 36 39  1  6  0  0  0
 36 38  1  0  0  0  0
 36 37  1  0  0  0  0
 38 37  1  0  0  0  0
 38 33  1  1  0  0  0
M  END
>  <MODEL>
8

>  <REMARK>
 VINA RESULT:      -6.5      3.283      8.141
  Name = 
  14 active torsions:
  status: ('A' for Active; 'I' for Inactive)
    1  A    between atoms: C_2  and  C_14
    2  A    between atoms: C_7  and  C_24
    3  A    between atoms: N_9  and  C_31
    4  A    between atoms: C_10  and  N_21
    5  A    between atoms: C_10  and  N_38
    6  A    between atoms: N_13  and  C_17
    7  A    between atoms: N_13  and  N_21
    8  A    between atoms: C_14  and  O_26
    9  A    between atoms: C_14  and  C_36
   10  A    between atoms: C_15  and  C_27
   11  A    between atoms: C_18  and  C_20
   12  A    between atoms: C_20  and  N_38
   13  A    between atoms: C_24  and  C_36
   14  A    between atoms: O_26  and  C_34
                            x       y       z     vdW  Elec       q    Type
                         _______ _______ _______ _____ _____    ______ ____

>  <TORSDO>
F 14

$$$$
=
 OpenBabel11062417413D

 39 41  0  0  1  0  0  0  0  0999 V2000
  185.5640  179.3500  142.0970 C   0  0  0  0  0  1  0  0  0  0  0  0
  186.7800  178.3030  140.1320 C   0  0  0  0  0  0  0  0  0  0  0  0
  184.4100  178.3250  138.6280 C   0  0  0  0  0  3  0  0  0  0  0  0
  186.7770  177.8160  138.8030 C   0  0  0  0  0  0  0  0  0  0  0  0
  185.5790  178.7910  140.7020 C   0  0  0  0  0  0  0  0  0  0  0  0
  185.5900  177.8480  138.0640 C   0  0  0  0  0  3  0  0  0  0  0  0
  184.3950  178.7880  139.9420 C   0  0  0  0  0  0  0  0  0  0  0  0
  182.8680  179.3830  140.5870 Cl  0  0  0  0  0  0  0  0  0  0  0  0
  189.2950  178.0850  138.1130 C   0  0  2  0  0  3  0  0  0  0  0  0
  189.5120  175.8060  137.1430 C   0  0  2  0  0  3  0  0  0  0  0  0
  189.1830  179.3070  137.2220 C   0  0  0  0  0  1  0  0  0  0  0  0
  187.0510  175.2670  137.3660 O   0  0  0  0  0  1  0  0  0  0  0  0
  190.1980  177.0870  137.4690 C   0  0  0  0  0  0  0  0  0  0  0  0
  188.0080  177.3290  138.1370 C   0  0  0  0  0  0  0  0  0  0  0  0
  188.1210  176.1370  137.5540 C   0  0  0  0  0  0  0  0  0  0  0  0
  191.3820  177.2900  137.2480 O   0  0  0  0  0  0  0  0  0  0  0  0
  190.0340  174.7740  138.0170 N   0  0  0  0  0  2  0  0  0  0  0  0
  190.5630  173.7510  137.2150 N   0  0  0  0  0  2  0  0  0  0  0  0
  191.8670  173.8700  136.6350 C   0  0  0  0  0  0  0  0  0  0  0  0
  192.0640  173.8190  135.0110 S   0  0  0  0  0  0  0  0  0  0  0  0
  193.0110  174.0650  137.4610 N   0  0  0  0  0  2  0  0  0  0  0  0
  194.3580  173.8070  136.9850 C   0  0  0  0  0  2  0  0  0  0  0  0
  196.4120  172.5120  137.5130 C   0  0  0  0  0  1  0  0  0  0  0  0
  195.5790  174.2240  139.0920 C   0  0  0  0  0  1  0  0  0  0  0  0
  195.1740  173.1650  138.0920 C   0  0  0  0  0  3  0  0  0  0  0  0
  188.0740  178.3900  140.9030 C   0  0  0  0  0  2  0  0  0  0  0  0
  188.3190  177.1250  141.7250 C   0  0  0  0  0  2  0  0  0  0  0  0
  190.6910  177.8470  141.6980 C   0  0  0  0  0  1  0  0  0  0  0  0
  189.6060  177.2070  142.5480 C   0  0  2  0  0  0  0  0  0  0  0  0
  190.0410  175.7860  142.9110 C   0  0  0  0  0  2  0  0  0  0  0  0
  191.4160  175.7500  143.5640 C   0  0  0  0  0  1  0  0  0  0  0  0
  189.4150  178.0010  143.7270 O   0  0  0  0  0  0  0  0  0  0  0  0
  187.2720  177.8870  144.8820 N   0  0  0  0  0  2  0  0  0  0  0  0
  189.2210  176.9930  145.8090 O   0  0  0  0  0  0  0  0  0  0  0  0
  188.6720  177.6000  144.8470 C   0  0  0  0  0  0  0  0  0  0  0  0
  185.4390  178.7330  146.2460 C   0  0  1  0  0  3  0  0  0  0  0  0
  186.6860  178.6460  147.1040 C   0  0  0  0  0  2  0  0  0  0  0  0
  186.4300  177.6020  146.0340 C   0  0  2  0  0  3  0  0  0  0  0  0
  184.3550  178.2510  146.9680 O   0  0  0  0  0  1  0  0  0  0  0  0
  2  5  1  0  0  0  0
  2 26  1  0  0  0  0
  3  7  1  0  0  0  0
  4  2  2  0  0  0  0
  5  1  1  0  0  0  0
  6  3  2  0  0  0  0
  6  4  1  0  0  0  0
  7  8  1  0  0  0  0
  7  5  2  0  0  0  0
  9 11  1  6  0  0  0
  9 14  1  0  0  0  0
 10 13  1  0  0  0  0
 10 15  1  0  0  0  0
 10 17  1  1  0  0  0
 12 15  1  0  0  0  0
 13  9  1  0  0  0  0
 14  4  1  0  0  0  0
 15 14  2  0  0  0  0
 16 13  2  0  0  0  0
 18 17  1  0  0  0  0
 19 18  1  0  0  0  0
 19 21  1  0  0  0  0
 20 19  2  0  0  0  0
 22 21  1  0  0  0  0
 22 25  1  0  0  0  0
 23 25  1  0  0  0  0
 25 24  1  0  0  0  0
 26 27  1  0  0  0  0
 27 29  1  0  0  0  0
 29 28  1  6  0  0  0
 29 30  1  0  0  0  0
 29 32  1  0  0  0  0
 30 31  1  0  0  0  0
 32 35  1  0  0  0  0
 35 33  1  0  0  0  0
 35 34  2  0  0  0  0
 36 39  1  1  0  0  0
 36 37  1  0  0  0  0
 38 33  1  6  0  0  0
 38 36  1  0  0  0  0
 38 37  1  0  0  0  0
M  END
>  <MODEL>
9

>  <REMARK>
 VINA RESULT:      -6.4      3.835      6.980
  Name = 
  14 active torsions:
  status: ('A' for Active; 'I' for Inactive)
    1  A    between atoms: C_2  and  C_14
    2  A    between atoms: C_7  and  C_24
    3  A    between atoms: N_9  and  C_31
    4  A    between atoms: C_10  and  N_21
    5  A    between atoms: C_10  and  N_38
    6  A    between atoms: N_13  and  C_17
    7  A    between atoms: N_13  and  N_21
    8  A    between atoms: C_14  and  O_26
    9  A    between atoms: C_14  and  C_36
   10  A    between atoms: C_15  and  C_27
   11  A    between atoms: C_18  and  C_20
   12  A    between atoms: C_20  and  N_38
   13  A    between atoms: C_24  and  C_36
   14  A    between atoms: O_26  and  C_34
                            x       y       z     vdW  Elec       q    Type
                         _______ _______ _______ _____ _____    ______ ____

>  <TORSDO>
F 14

$$$$
