=
 OpenBabel11062415463D

 27 29  0  0  1  0  0  0  0  0999 V2000
  185.8140  178.7020  144.2000 C   0  0  0  0  0  0  0  0  0  0  0  0
  187.6420  177.4040  145.9820 C   0  0  0  0  0  0  0  0  0  0  0  0
  187.2980  178.1320  142.3780 C   0  0  0  0  0  3  0  0  0  0  0  0
  185.5540  178.7510  145.6760 C   0  0  0  0  0  2  0  0  0  0  0  0
  186.1750  177.5230  146.3300 C   0  0  0  0  0  2  0  0  0  0  0  0
  187.0750  178.2500  143.7550 C   0  0  0  0  0  0  0  0  0  0  0  0
  188.1020  177.8120  144.7650 C   0  0  0  0  0  0  0  0  0  0  0  0
  185.0830  179.0010  141.8970 C   0  0  0  0  0  0  0  0  0  0  0  0
  184.8250  179.0910  143.2750 C   0  0  0  0  0  0  0  0  0  0  0  0
  186.3190  178.5090  141.4590 C   0  0  0  0  0  3  0  0  0  0  0  0
  191.1060  177.5690  142.3090 C   0  0  0  0  0  0  0  0  0  0  0  0
  190.3680  176.8260  145.4010 C   0  0  0  0  0  1  0  0  0  0  0  0
  191.4600  177.0420  141.1440 C   0  0  0  0  0  2  0  0  0  0  0  0
  190.1850  179.1400  144.5050 C   0  0  0  0  0  2  0  0  0  0  0  0
  191.6640  179.1530  144.1280 C   0  0  0  0  0  2  0  0  0  0  0  0
  191.8630  178.6290  142.8190 O   0  0  0  0  0  0  0  0  0  0  0  0
  189.6040  177.7220  144.4190 C   0  0  2  0  0  0  0  0  0  0  0  0
  189.8180  177.1510  142.9870 C   0  0  2  0  0  3  0  0  0  0  0  0
  190.5070  174.7810  143.1320 N   0  0  0  0  0  1  0  0  0  0  0  0
  189.4140  175.6780  142.7940 C   0  0  0  0  0  2  0  0  0  0  0  0
  184.1000  179.3950  140.9800 O   0  0  0  0  0  0  0  0  0  0  0  0
  184.2840  179.3240  139.5730 C   0  0  0  0  0  1  0  0  0  0  0  0
  182.5840  178.5720  143.8290 O   0  0  0  0  0  1  0  0  0  0  0  0
  183.5040  179.6170  143.7460 C   0  0  0  0  0  2  0  0  0  0  0  0
  188.5120  176.8180  146.9100 O   0  0  0  0  0  0  0  0  0  0  0  0
  188.9950  178.4200  148.6230 C   0  0  0  0  0  1  0  0  0  0  0  0
  188.4220  177.0540  148.3070 C   0  0  0  0  0  2  0  0  0  0  0  0
  1  4  1  0  0  0  0
  2  5  1  0  0  0  0
  2 25  1  0  0  0  0
  3  6  2  0  0  0  0
  4  5  1  0  0  0  0
  6  1  1  0  0  0  0
  6  7  1  0  0  0  0
  7  2  2  0  0  0  0
  8  9  1  0  0  0  0
  9 24  1  0  0  0  0
  9  1  2  0  0  0  0
 10  8  2  0  0  0  0
 10  3  1  0  0  0  0
 11 16  1  0  0  0  0
 11 18  1  0  0  0  0
 13 11  2  0  0  0  0
 15 14  1  0  0  0  0
 16 15  1  0  0  0  0
 17 14  1  0  0  0  0
 17  7  1  0  0  0  0
 17 12  1  1  0  0  0
 18 20  1  1  0  0  0
 18 17  1  0  0  0  0
 20 19  1  0  0  0  0
 21  8  1  0  0  0  0
 22 21  1  0  0  0  0
 24 23  1  0  0  0  0
 25 27  1  0  0  0  0
 27 26  1  0  0  0  0
M  END
>  <MODEL>
1

>  <REMARK>
 VINA RESULT:      -7.3      0.000      0.000
  Name = 
  6 active torsions:
  status: ('A' for Active; 'I' for Inactive)
    1  A    between atoms: O_2  and  C_21
    2  A    between atoms: C_4  and  O_18
    3  A    between atoms: C_9  and  C_25
    4  A    between atoms: C_16  and  C_22
    5  A    between atoms: C_17  and  C_23
    6  A    between atoms: O_18  and  C_24
                            x       y       z     vdW  Elec       q    Type
                         _______ _______ _______ _____ _____    ______ ____

>  <TORSDO>
F 6

$$$$
=
 OpenBabel11062415463D

 27 29  0  0  1  0  0  0  0  0999 V2000
  183.4570  178.5330  143.6350 C   0  0  0  0  0  0  0  0  0  0  0  0
  181.1430  179.2710  142.1180 C   0  0  0  0  0  0  0  0  0  0  0  0
  184.6900  178.4070  141.5590 C   0  0  0  0  0  3  0  0  0  0  0  0
  182.1450  178.7000  144.3400 C   0  0  0  0  0  2  0  0  0  0  0  0
  181.2870  179.6920  143.5640 C   0  0  0  0  0  2  0  0  0  0  0  0
  183.4610  178.4880  142.2240 C   0  0  0  0  0  0  0  0  0  0  0  0
  182.1620  178.6300  141.4770 C   0  0  0  0  0  0  0  0  0  0  0  0
  185.8820  178.3110  143.6710 C   0  0  0  0  0  0  0  0  0  0  0  0
  184.6620  178.4310  144.3590 C   0  0  0  0  0  0  0  0  0  0  0  0
  185.8860  178.3120  142.2700 C   0  0  0  0  0  3  0  0  0  0  0  0
  180.1000  177.6400  138.3320 C   0  0  0  0  0  0  0  0  0  0  0  0
  183.0560  177.1260  139.6200 C   0  0  0  0  0  1  0  0  0  0  0  0
  178.9780  177.0320  137.9700 C   0  0  0  0  0  2  0  0  0  0  0  0
  182.1980  179.4070  139.1180 C   0  0  0  0  0  2  0  0  0  0  0  0
  182.0120  179.0550  137.6440 C   0  0  0  0  0  2  0  0  0  0  0  0
  180.7270  178.4870  137.4120 O   0  0  0  0  0  0  0  0  0  0  0  0
  182.0070  178.1730  140.0100 C   0  0  2  0  0  0  0  0  0  0  0  0
  180.6000  177.5550  139.7600 C   0  0  2  0  0  3  0  0  0  0  0  0
  179.1580  176.3210  141.3440 N   0  0  0  0  0  1  0  0  0  0  0  0
  180.3240  176.2240  140.4810 C   0  0  0  0  0  2  0  0  0  0  0  0
  187.0770  178.2020  144.3940 O   0  0  0  0  0  0  0  0  0  0  0  0
  187.9200  177.0610  144.3220 C   0  0  0  0  0  1  0  0  0  0  0  0
  185.3060  179.5680  146.3310 O   0  0  0  0  0  1  0  0  0  0  0  0
  184.6550  178.4290  145.8560 C   0  0  0  0  0  2  0  0  0  0  0  0
  179.9680  179.6000  141.4310 O   0  0  0  0  0  0  0  0  0  0  0  0
  179.2870  181.5770  140.2640 C   0  0  0  0  0  1  0  0  0  0  0  0
  179.3060  180.8450  141.5900 C   0  0  0  0  0  2  0  0  0  0  0  0
  1  4  1  0  0  0  0
  1  9  1  0  0  0  0
  2  5  1  0  0  0  0
  3  6  1  0  0  0  0
  3 10  2  0  0  0  0
  5  4  1  0  0  0  0
  6  1  2  0  0  0  0
  7  2  2  0  0  0  0
  7  6  1  0  0  0  0
  8  9  2  0  0  0  0
  8 21  1  0  0  0  0
  9 24  1  0  0  0  0
 10  8  1  0  0  0  0
 11 18  1  0  0  0  0
 13 11  2  0  0  0  0
 14 17  1  0  0  0  0
 15 14  1  0  0  0  0
 16 15  1  0  0  0  0
 16 11  1  0  0  0  0
 17 12  1  6  0  0  0
 17  7  1  0  0  0  0
 18 17  1  0  0  0  0
 18 20  1  6  0  0  0
 20 19  1  0  0  0  0
 22 21  1  0  0  0  0
 24 23  1  0  0  0  0
 25 27  1  0  0  0  0
 25  2  1  0  0  0  0
 26 27  1  0  0  0  0
M  END
>  <MODEL>
2

>  <REMARK>
 VINA RESULT:      -6.8      3.912      8.326
  Name = 
  6 active torsions:
  status: ('A' for Active; 'I' for Inactive)
    1  A    between atoms: O_2  and  C_21
    2  A    between atoms: C_4  and  O_18
    3  A    between atoms: C_9  and  C_25
    4  A    between atoms: C_16  and  C_22
    5  A    between atoms: C_17  and  C_23
    6  A    between atoms: O_18  and  C_24
                            x       y       z     vdW  Elec       q    Type
                         _______ _______ _______ _____ _____    ______ ____

>  <TORSDO>
F 6

$$$$
=
 OpenBabel11062415463D

 27 29  0  0  1  0  0  0  0  0999 V2000
  184.9480  178.7090  144.1720 C   0  0  0  0  0  0  0  0  0  0  0  0
  187.0840  177.5540  145.6910 C   0  0  0  0  0  0  0  0  0  0  0  0
  185.8890  177.6760  142.1980 C   0  0  0  0  0  3  0  0  0  0  0  0
  185.0710  179.0420  145.6280 C   0  0  0  0  0  2  0  0  0  0  0  0
  185.7610  177.8870  146.3450 C   0  0  0  0  0  2  0  0  0  0  0  0
  186.0280  178.0540  143.5390 C   0  0  0  0  0  0  0  0  0  0  0  0
  187.2470  177.6920  144.3450 C   0  0  0  0  0  0  0  0  0  0  0  0
  183.6820  178.6780  142.0920 C   0  0  0  0  0  0  0  0  0  0  0  0
  183.7840  179.0340  143.4480 C   0  0  0  0  0  0  0  0  0  0  0  0
  184.7360  177.9890  141.4800 C   0  0  0  0  0  3  0  0  0  0  0  0
  191.0290  176.7900  144.3920 C   0  0  0  0  0  0  0  0  0  0  0  0
  188.8580  178.2620  142.4490 C   0  0  0  0  0  1  0  0  0  0  0  0
  192.1400  176.9910  145.0890 C   0  0  0  0  0  2  0  0  0  0  0  0
  188.5760  175.9160  143.2280 C   0  0  0  0  0  2  0  0  0  0  0  0
  189.9050  175.5060  142.5990 C   0  0  0  0  0  2  0  0  0  0  0  0
  190.9840  175.7100  143.5050 O   0  0  0  0  0  0  0  0  0  0  0  0
  188.6060  177.3830  143.6790 C   0  0  2  0  0  0  0  0  0  0  0  0
  189.7830  177.6040  144.6740 C   0  0  2  0  0  3  0  0  0  0  0  0
  190.9820  179.7180  144.2220 N   0  0  0  0  0  1  0  0  0  0  0  0
  190.0250  179.0630  145.0980 C   0  0  0  0  0  2  0  0  0  0  0  0
  182.5260  179.0100  141.3740 O   0  0  0  0  0  0  0  0  0  0  0  0
  181.8360  178.0800  140.5510 C   0  0  0  0  0  1  0  0  0  0  0  0
  181.6140  178.8890  144.3800 O   0  0  0  0  0  1  0  0  0  0  0  0
  182.6590  179.7720  144.1050 C   0  0  0  0  0  2  0  0  0  0  0  0
  188.1220  177.0480  146.4840 O   0  0  0  0  0  0  0  0  0  0  0  0
  188.9130  178.2060  148.4250 C   0  0  0  0  0  1  0  0  0  0  0  0
  188.0800  177.0540  147.9030 C   0  0  0  0  0  2  0  0  0  0  0  0
  1  4  1  0  0  0  0
  2  5  1  0  0  0  0
  2 25  1  0  0  0  0
  3  6  2  0  0  0  0
  4  5  1  0  0  0  0
  6  1  1  0  0  0  0
  6  7  1  0  0  0  0
  7  2  2  0  0  0  0
  8  9  1  0  0  0  0
  9 24  1  0  0  0  0
  9  1  2  0  0  0  0
 10  8  2  0  0  0  0
 10  3  1  0  0  0  0
 11 18  1  0  0  0  0
 11 13  2  0  0  0  0
 14 17  1  0  0  0  0
 15 14  1  0  0  0  0
 15 16  1  0  0  0  0
 16 11  1  0  0  0  0
 17 12  1  6  0  0  0
 17  7  1  0  0  0  0
 17 18  1  0  0  0  0
 18 20  1  6  0  0  0
 19 20  1  0  0  0  0
 21  8  1  0  0  0  0
 22 21  1  0  0  0  0
 24 23  1  0  0  0  0
 25 27  1  0  0  0  0
 27 26  1  0  0  0  0
M  END
>  <MODEL>
3

>  <REMARK>
 VINA RESULT:      -6.6      1.674      2.366
  Name = 
  6 active torsions:
  status: ('A' for Active; 'I' for Inactive)
    1  A    between atoms: O_2  and  C_21
    2  A    between atoms: C_4  and  O_18
    3  A    between atoms: C_9  and  C_25
    4  A    between atoms: C_16  and  C_22
    5  A    between atoms: C_17  and  C_23
    6  A    between atoms: O_18  and  C_24
                            x       y       z     vdW  Elec       q    Type
                         _______ _______ _______ _____ _____    ______ ____

>  <TORSDO>
F 6

$$$$
=
 OpenBabel11062415463D

 27 29  0  0  1  0  0  0  0  0999 V2000
  183.3550  178.4870  143.5250 C   0  0  0  0  0  0  0  0  0  0  0  0
  181.1730  179.0060  141.7440 C   0  0  0  0  0  0  0  0  0  0  0  0
  184.7420  178.0700  141.5890 C   0  0  0  0  0  3  0  0  0  0  0  0
  181.9940  178.7520  144.0960 C   0  0  0  0  0  2  0  0  0  0  0  0
  181.2090  179.6260  143.1240 C   0  0  0  0  0  2  0  0  0  0  0  0
  183.4660  178.2440  142.1390 C   0  0  0  0  0  0  0  0  0  0  0  0
  182.2300  178.2810  141.2800 C   0  0  0  0  0  0  0  0  0  0  0  0
  185.7670  178.2710  143.7800 C   0  0  0  0  0  0  0  0  0  0  0  0
  184.4990  178.4870  144.3470 C   0  0  0  0  0  0  0  0  0  0  0  0
  185.8780  178.0760  142.3980 C   0  0  0  0  0  3  0  0  0  0  0  0
  183.7510  177.2730  137.8460 C   0  0  0  0  0  0  0  0  0  0  0  0
  180.8300  177.8310  139.1940 C   0  0  0  0  0  1  0  0  0  0  0  0
  184.5900  177.7010  136.9120 C   0  0  0  0  0  2  0  0  0  0  0  0
  182.4020  176.1150  140.0770 C   0  0  0  0  0  2  0  0  0  0  0  0
  182.4190  175.3860  138.7360 C   0  0  0  0  0  2  0  0  0  0  0  0
  183.4280  175.9130  137.8800 O   0  0  0  0  0  0  0  0  0  0  0  0
  182.1830  177.6220  139.8840 C   0  0  2  0  0  0  0  0  0  0  0  0
  183.2890  178.2000  138.9520 C   0  0  2  0  0  3  0  0  0  0  0  0
  184.1790  180.5020  139.0940 N   0  0  0  0  0  1  0  0  0  0  0  0
  183.1130  179.6750  138.5520 C   0  0  0  0  0  2  0  0  0  0  0  0
  186.9010  178.2640  144.6020 O   0  0  0  0  0  0  0  0  0  0  0  0
  187.8220  177.1830  144.6350 C   0  0  0  0  0  1  0  0  0  0  0  0
  185.3070  179.6470  146.2450 O   0  0  0  0  0  1  0  0  0  0  0  0
  184.3760  178.6950  145.8250 C   0  0  0  0  0  2  0  0  0  0  0  0
  180.0570  179.2360  140.9290 O   0  0  0  0  0  0  0  0  0  0  0  0
  180.0270  181.3550  139.8130 C   0  0  0  0  0  1  0  0  0  0  0  0
  179.3860  180.4860  140.8760 C   0  0  0  0  0  2  0  0  0  0  0  0
  1  4  1  0  0  0  0
  1  9  1  0  0  0  0
  2  5  1  0  0  0  0
  3  6  1  0  0  0  0
  3 10  2  0  0  0  0
  5  4  1  0  0  0  0
  6  1  2  0  0  0  0
  7  2  2  0  0  0  0
  7  6  1  0  0  0  0
  8  9  2  0  0  0  0
  8 21  1  0  0  0  0
  9 24  1  0  0  0  0
 10  8  1  0  0  0  0
 11 16  1  0  0  0  0
 11 18  1  0  0  0  0
 13 11  2  0  0  0  0
 15 14  1  0  0  0  0
 16 15  1  0  0  0  0
 17 12  1  6  0  0  0
 17 14  1  0  0  0  0
 17  7  1  0  0  0  0
 18 20  1  6  0  0  0
 18 17  1  0  0  0  0
 20 19  1  0  0  0  0
 21 22  1  0  0  0  0
 24 23  1  0  0  0  0
 25  2  1  0  0  0  0
 26 27  1  0  0  0  0
 27 25  1  0  0  0  0
M  END
>  <MODEL>
4

>  <REMARK>
 VINA RESULT:      -6.4      3.415      7.707
  Name = 
  6 active torsions:
  status: ('A' for Active; 'I' for Inactive)
    1  A    between atoms: O_2  and  C_21
    2  A    between atoms: C_4  and  O_18
    3  A    between atoms: C_9  and  C_25
    4  A    between atoms: C_16  and  C_22
    5  A    between atoms: C_17  and  C_23
    6  A    between atoms: O_18  and  C_24
                            x       y       z     vdW  Elec       q    Type
                         _______ _______ _______ _____ _____    ______ ____

>  <TORSDO>
F 6

$$$$
=
 OpenBabel11062415463D

 27 29  0  0  1  0  0  0  0  0999 V2000
  188.5010  177.9110  139.8160 C   0  0  0  0  0  0  0  0  0  0  0  0
  188.1770  177.3780  142.6120 C   0  0  0  0  0  0  0  0  0  0  0  0
  190.4940  176.5420  139.8600 C   0  0  0  0  0  3  0  0  0  0  0  0
  187.3940  178.5900  140.5650 C   0  0  0  0  0  2  0  0  0  0  0  0
  186.9840  177.7170  141.7450 C   0  0  0  0  0  2  0  0  0  0  0  0
  189.5000  177.2410  140.5560 C   0  0  0  0  0  0  0  0  0  0  0  0
  189.4120  177.2100  142.0580 C   0  0  0  0  0  0  0  0  0  0  0  0
  189.5730  177.2550  137.7310 C   0  0  0  0  0  0  0  0  0  0  0  0
  188.5440  177.9310  138.4080 C   0  0  0  0  0  0  0  0  0  0  0  0
  190.5370  176.5540  138.4660 C   0  0  0  0  0  3  0  0  0  0  0  0
  191.2640  176.8890  145.4620 C   0  0  0  0  0  0  0  0  0  0  0  0
  191.9460  177.3720  142.3060 C   0  0  0  0  0  1  0  0  0  0  0  0
  191.3410  177.4460  146.6640 C   0  0  0  0  0  2  0  0  0  0  0  0
  190.7060  175.3710  143.1120 C   0  0  0  0  0  2  0  0  0  0  0  0
  191.8660  174.9690  144.0190 C   0  0  0  0  0  2  0  0  0  0  0  0
  191.7560  175.5900  145.2960 O   0  0  0  0  0  0  0  0  0  0  0  0
  190.6370  176.8950  142.9440 C   0  0  2  0  0  0  0  0  0  0  0  0
  190.5110  177.5730  144.3400 C   0  0  2  0  0  3  0  0  0  0  0  0
  191.9490  179.5810  144.2420 N   0  0  0  0  0  1  0  0  0  0  0  0
  190.5770  179.1100  144.3370 C   0  0  0  0  0  2  0  0  0  0  0  0
  189.6170  177.2840  136.3310 O   0  0  0  0  0  0  0  0  0  0  0  0
  189.7790  176.1140  135.5400 C   0  0  0  0  0  1  0  0  0  0  0  0
  186.4740  177.8210  137.2660 O   0  0  0  0  0  1  0  0  0  0  0  0
  187.5120  178.6820  137.6240 C   0  0  0  0  0  2  0  0  0  0  0  0
  187.9830  177.1870  143.9860 O   0  0  0  0  0  0  0  0  0  0  0  0
  186.8770  177.8450  146.0050 C   0  0  0  0  0  1  0  0  0  0  0  0
  186.7100  177.2910  144.6050 C   0  0  0  0  0  2  0  0  0  0  0  0
  1  6  1  0  0  0  0
  1  4  1  0  0  0  0
  2 25  1  0  0  0  0
  3  6  2  0  0  0  0
  4  5  1  0  0  0  0
  5  2  1  0  0  0  0
  6  7  1  0  0  0  0
  7  2  2  0  0  0  0
  7 17  1  0  0  0  0
  8  9  1  0  0  0  0
  8 10  2  0  0  0  0
  9  1  2  0  0  0  0
 10  3  1  0  0  0  0
 11 13  2  0  0  0  0
 14 15  1  0  0  0  0
 15 16  1  0  0  0  0
 16 11  1  0  0  0  0
 17 12  1  6  0  0  0
 17 14  1  0  0  0  0
 17 18  1  0  0  0  0
 18 20  1  6  0  0  0
 18 11  1  0  0  0  0
 19 20  1  0  0  0  0
 21  8  1  0  0  0  0
 22 21  1  0  0  0  0
 23 24  1  0  0  0  0
 24  9  1  0  0  0  0
 25 27  1  0  0  0  0
 27 26  1  0  0  0  0
M  END
>  <MODEL>
5

>  <REMARK>
 VINA RESULT:      -6.2      3.023      4.946
  Name = 
  6 active torsions:
  status: ('A' for Active; 'I' for Inactive)
    1  A    between atoms: O_2  and  C_21
    2  A    between atoms: C_4  and  O_18
    3  A    between atoms: C_9  and  C_25
    4  A    between atoms: C_16  and  C_22
    5  A    between atoms: C_17  and  C_23
    6  A    between atoms: O_18  and  C_24
                            x       y       z     vdW  Elec       q    Type
                         _______ _______ _______ _____ _____    ______ ____

>  <TORSDO>
F 6

$$$$
=
 OpenBabel11062415463D

 27 29  0  0  1  0  0  0  0  0999 V2000
  185.9960  178.2470  141.4420 C   0  0  0  0  0  0  0  0  0  0  0  0
  183.2590  178.7620  142.1130 C   0  0  0  0  0  0  0  0  0  0  0  0
  185.3500  178.2530  139.1110 C   0  0  0  0  0  3  0  0  0  0  0  0
  185.5920  178.2810  142.8850 C   0  0  0  0  0  2  0  0  0  0  0  0
  184.3770  179.1880  143.0400 C   0  0  0  0  0  2  0  0  0  0  0  0
  184.9810  178.2100  140.4610 C   0  0  0  0  0  0  0  0  0  0  0  0
  183.5370  178.2270  140.8900 C   0  0  0  0  0  0  0  0  0  0  0  0
  187.7030  178.2650  139.7050 C   0  0  0  0  0  0  0  0  0  0  0  0
  187.3540  178.2600  141.0670 C   0  0  0  0  0  0  0  0  0  0  0  0
  186.6920  178.2720  138.7350 C   0  0  0  0  0  3  0  0  0  0  0  0
  181.7370  177.9620  137.4540 C   0  0  0  0  0  0  0  0  0  0  0  0
  181.0290  177.8310  140.6380 C   0  0  0  0  0  1  0  0  0  0  0  0
  181.5080  178.6470  136.3410 C   0  0  0  0  0  2  0  0  0  0  0  0
  182.6800  176.3030  139.5750 C   0  0  0  0  0  2  0  0  0  0  0  0
  181.6250  175.7740  138.6070 C   0  0  0  0  0  2  0  0  0  0  0  0
  181.5620  176.5750  137.4310 O   0  0  0  0  0  0  0  0  0  0  0  0
  182.3990  177.7630  139.9550 C   0  0  2  0  0  0  0  0  0  0  0  0
  182.3360  178.6400  138.6700 C   0  0  2  0  0  3  0  0  0  0  0  0
  183.0420  181.0080  138.7190 N   0  0  0  0  0  1  0  0  0  0  0  0
  181.9170  180.1040  138.8870 C   0  0  0  0  0  2  0  0  0  0  0  0
  189.0540  178.2700  139.3370 O   0  0  0  0  0  0  0  0  0  0  0  0
  189.4920  178.0160  138.0090 C   0  0  0  0  0  1  0  0  0  0  0  0
  188.8270  176.9380  142.3630 O   0  0  0  0  0  1  0  0  0  0  0  0
  188.4320  178.2510  142.1060 C   0  0  0  0  0  2  0  0  0  0  0  0
  181.9330  178.9770  142.5090 O   0  0  0  0  0  0  0  0  0  0  0  0
  180.0700  178.6140  143.9690 C   0  0  0  0  0  1  0  0  0  0  0  0
  181.5310  179.0030  143.8700 C   0  0  0  0  0  2  0  0  0  0  0  0
  1  4  1  0  0  0  0
  2 25  1  0  0  0  0
  2  5  1  0  0  0  0
  3  6  1  0  0  0  0
  4  5  1  0  0  0  0
  6  7  1  0  0  0  0
  6  1  2  0  0  0  0
  7  2  2  0  0  0  0
  8  9  2  0  0  0  0
  9  1  1  0  0  0  0
  9 24  1  0  0  0  0
 10  3  2  0  0  0  0
 10  8  1  0  0  0  0
 11 18  1  0  0  0  0
 13 11  2  0  0  0  0
 14 17  1  0  0  0  0
 15 14  1  0  0  0  0
 16 11  1  0  0  0  0
 16 15  1  0  0  0  0
 17 12  1  1  0  0  0
 17  7  1  0  0  0  0
 18 20  1  1  0  0  0
 18 17  1  0  0  0  0
 19 20  1  0  0  0  0
 21  8  1  0  0  0  0
 22 21  1  0  0  0  0
 24 23  1  0  0  0  0
 25 27  1  0  0  0  0
 27 26  1  0  0  0  0
M  END
>  <MODEL>
6

>  <REMARK>
 VINA RESULT:      -6.1      3.717      7.722
  Name = 
  6 active torsions:
  status: ('A' for Active; 'I' for Inactive)
    1  A    between atoms: O_2  and  C_21
    2  A    between atoms: C_4  and  O_18
    3  A    between atoms: C_9  and  C_25
    4  A    between atoms: C_16  and  C_22
    5  A    between atoms: C_17  and  C_23
    6  A    between atoms: O_18  and  C_24
                            x       y       z     vdW  Elec       q    Type
                         _______ _______ _______ _____ _____    ______ ____

>  <TORSDO>
F 6

$$$$
=
 OpenBabel11062415463D

 27 29  0  0  1  0  0  0  0  0999 V2000
  190.8450  177.5080  141.5080 C   0  0  0  0  0  0  0  0  0  0  0  0
  191.3880  176.9640  138.7490 C   0  0  0  0  0  0  0  0  0  0  0  0
  188.5470  176.8690  141.1060 C   0  0  0  0  0  3  0  0  0  0  0  0
  192.2080  177.8040  140.9610 C   0  0  0  0  0  2  0  0  0  0  0  0
  192.4860  176.8720  139.7870 C   0  0  0  0  0  2  0  0  0  0  0  0
  189.8040  177.2190  140.5980 C   0  0  0  0  0  0  0  0  0  0  0  0
  190.0980  177.1960  139.1220 C   0  0  0  0  0  0  0  0  0  0  0  0
  189.3240  177.1910  143.3830 C   0  0  0  0  0  0  0  0  0  0  0  0
  190.6030  177.5080  142.8960 C   0  0  0  0  0  0  0  0  0  0  0  0
  188.3050  176.8620  142.4800 C   0  0  0  0  0  3  0  0  0  0  0  0
  187.0430  175.8850  137.1040 C   0  0  0  0  0  0  0  0  0  0  0  0
  189.4560  178.0640  136.8100 C   0  0  0  0  0  1  0  0  0  0  0  0
  186.5420  174.7760  136.5750 C   0  0  0  0  0  2  0  0  0  0  0  0
  187.8320  178.1180  138.6940 C   0  0  0  0  0  2  0  0  0  0  0  0
  186.6570  178.2490  137.7280 C   0  0  0  0  0  2  0  0  0  0  0  0
  186.1870  176.9690  137.3190 O   0  0  0  0  0  0  0  0  0  0  0  0
  188.9810  177.3200  138.0630 C   0  0  2  0  0  0  0  0  0  0  0  0
  188.4680  175.9190  137.6200 C   0  0  2  0  0  3  0  0  0  0  0  0
  189.8700  173.8830  137.5930 N   0  0  0  0  0  1  0  0  0  0  0  0
  189.4770  175.0610  136.8370 C   0  0  0  0  0  2  0  0  0  0  0  0
  189.0860  177.2010  144.7630 O   0  0  0  0  0  0  0  0  0  0  0  0
  187.8250  177.5360  145.3260 C   0  0  0  0  0  1  0  0  0  0  0  0
  191.6730  179.2340  144.1120 O   0  0  0  0  0  1  0  0  0  0  0  0
  191.6940  177.8620  143.8600 C   0  0  0  0  0  2  0  0  0  0  0  0
  191.7110  176.7510  137.4030 O   0  0  0  0  0  0  0  0  0  0  0  0
  192.9220  175.8800  135.5300 C   0  0  0  0  0  1  0  0  0  0  0  0
  192.9940  176.3170  136.9780 C   0  0  0  0  0  2  0  0  0  0  0  0
  1  9  1  0  0  0  0
  2  7  2  0  0  0  0
  2  5  1  0  0  0  0
  3 10  2  0  0  0  0
  4  1  1  0  0  0  0
  5  4  1  0  0  0  0
  6  3  1  0  0  0  0
  6  1  2  0  0  0  0
  7  6  1  0  0  0  0
  8 21  1  0  0  0  0
  9  8  2  0  0  0  0
  9 24  1  0  0  0  0
 10  8  1  0  0  0  0
 11 16  1  0  0  0  0
 11 18  1  0  0  0  0
 13 11  2  0  0  0  0
 15 14  1  0  0  0  0
 16 15  1  0  0  0  0
 17 12  1  6  0  0  0
 17 14  1  0  0  0  0
 17  7  1  0  0  0  0
 18 20  1  6  0  0  0
 18 17  1  0  0  0  0
 20 19  1  0  0  0  0
 21 22  1  0  0  0  0
 24 23  1  0  0  0  0
 25  2  1  0  0  0  0
 26 27  1  0  0  0  0
 27 25  1  0  0  0  0
M  END
>  <MODEL>
7

>  <REMARK>
 VINA RESULT:      -6.1      3.602      7.586
  Name = 
  6 active torsions:
  status: ('A' for Active; 'I' for Inactive)
    1  A    between atoms: O_2  and  C_21
    2  A    between atoms: C_4  and  O_18
    3  A    between atoms: C_9  and  C_25
    4  A    between atoms: C_16  and  C_22
    5  A    between atoms: C_17  and  C_23
    6  A    between atoms: O_18  and  C_24
                            x       y       z     vdW  Elec       q    Type
                         _______ _______ _______ _____ _____    ______ ____

>  <TORSDO>
F 6

$$$$
=
 OpenBabel11062415463D

 27 29  0  0  1  0  0  0  0  0999 V2000
  186.0500  178.2010  138.5450 C   0  0  0  0  0  0  0  0  0  0  0  0
  183.7470  177.4790  137.0020 C   0  0  0  0  0  0  0  0  0  0  0  0
  184.5660  178.7210  140.3820 C   0  0  0  0  0  3  0  0  0  0  0  0
  186.2250  177.8230  137.1040 C   0  0  0  0  0  2  0  0  0  0  0  0
  185.1020  176.8770  136.6990 C   0  0  0  0  0  2  0  0  0  0  0  0
  184.7430  178.4410  139.0210 C   0  0  0  0  0  0  0  0  0  0  0  0
  183.5740  178.2890  138.0840 C   0  0  0  0  0  0  0  0  0  0  0  0
  186.9610  178.6280  140.7620 C   0  0  0  0  0  0  0  0  0  0  0  0
  187.1580  178.3080  139.4070 C   0  0  0  0  0  0  0  0  0  0  0  0
  185.6590  178.8210  141.2410 C   0  0  0  0  0  3  0  0  0  0  0  0
  180.5040  179.0790  140.3360 C   0  0  0  0  0  0  0  0  0  0  0  0
  181.2610  178.8600  137.1680 C   0  0  0  0  0  1  0  0  0  0  0  0
  179.7450  178.5490  141.2870 C   0  0  0  0  0  2  0  0  0  0  0  0
  182.4430  180.4070  138.7190 C   0  0  0  0  0  2  0  0  0  0  0  0
  181.1360  181.1120  139.0730 C   0  0  0  0  0  2  0  0  0  0  0  0
  180.4860  180.4660  140.1630 O   0  0  0  0  0  0  0  0  0  0  0  0
  182.2000  178.9300  138.3780 C   0  0  2  0  0  0  0  0  0  0  0  0
  181.4940  178.2230  139.5720 C   0  0  2  0  0  3  0  0  0  0  0  0
  182.0260  175.8250  139.8440 N   0  0  0  0  0  1  0  0  0  0  0  0
  181.0570  176.7710  139.3160 C   0  0  0  0  0  2  0  0  0  0  0  0
  188.0670  178.7410  141.6140 O   0  0  0  0  0  0  0  0  0  0  0  0
  188.4280  177.7310  142.5470 C   0  0  0  0  0  1  0  0  0  0  0  0
  189.0560  179.3080  138.4070 O   0  0  0  0  0  1  0  0  0  0  0  0
  188.5490  178.1010  138.8920 C   0  0  0  0  0  2  0  0  0  0  0  0
  182.6610  177.1460  136.1830 O   0  0  0  0  0  0  0  0  0  0  0  0
  181.8480  174.8940  136.1880 C   0  0  0  0  0  1  0  0  0  0  0  0
  182.6100  175.9520  135.4170 C   0  0  0  0  0  2  0  0  0  0  0  0
  1  6  2  0  0  0  0
  1  9  1  0  0  0  0
  2  7  2  0  0  0  0
  3 10  2  0  0  0  0
  4  1  1  0  0  0  0
  5  2  1  0  0  0  0
  5  4  1  0  0  0  0
  6  3  1  0  0  0  0
  7 17  1  0  0  0  0
  7  6  1  0  0  0  0
  8 10  1  0  0  0  0
  8 21  1  0  0  0  0
  9  8  2  0  0  0  0
 11 13  2  0  0  0  0
 14 15  1  0  0  0  0
 15 16  1  0  0  0  0
 16 11  1  0  0  0  0
 17 12  1  6  0  0  0
 17 14  1  0  0  0  0
 17 18  1  0  0  0  0
 18 20  1  6  0  0  0
 18 11  1  0  0  0  0
 20 19  1  0  0  0  0
 21 22  1  0  0  0  0
 23 24  1  0  0  0  0
 24  9  1  0  0  0  0
 25  2  1  0  0  0  0
 27 25  1  0  0  0  0
 27 26  1  0  0  0  0
M  END
>  <MODEL>
8

>  <REMARK>
 VINA RESULT:      -5.9      3.904      9.221
  Name = 
  6 active torsions:
  status: ('A' for Active; 'I' for Inactive)
    1  A    between atoms: O_2  and  C_21
    2  A    between atoms: C_4  and  O_18
    3  A    between atoms: C_9  and  C_25
    4  A    between atoms: C_16  and  C_22
    5  A    between atoms: C_17  and  C_23
    6  A    between atoms: O_18  and  C_24
                            x       y       z     vdW  Elec       q    Type
                         _______ _______ _______ _____ _____    ______ ____

>  <TORSDO>
F 6

$$$$
=
 OpenBabel11062415463D

 27 29  0  0  1  0  0  0  0  0999 V2000
  187.1670  177.6900  142.5580 C   0  0  0  0  0  0  0  0  0  0  0  0
  186.0210  178.7960  140.1770 C   0  0  0  0  0  0  0  0  0  0  0  0
  189.3020  177.6470  141.4230 C   0  0  0  0  0  3  0  0  0  0  0  0
  185.6860  177.9150  142.4970 C   0  0  0  0  0  2  0  0  0  0  0  0
  185.3970  179.0580  141.5310 C   0  0  0  0  0  2  0  0  0  0  0  0
  187.9100  177.7830  141.3610 C   0  0  0  0  0  0  0  0  0  0  0  0
  187.2030  178.1240  140.0760 C   0  0  0  0  0  0  0  0  0  0  0  0
  189.2030  177.2290  143.8120 C   0  0  0  0  0  0  0  0  0  0  0  0
  187.8080  177.4000  143.7780 C   0  0  0  0  0  0  0  0  0  0  0  0
  189.9420  177.3660  142.6300 C   0  0  0  0  0  3  0  0  0  0  0  0
  187.1230  177.8650  136.1970 C   0  0  0  0  0  0  0  0  0  0  0  0
  188.7550  176.6100  138.7310 C   0  0  0  0  0  1  0  0  0  0  0  0
  186.3190  177.5500  135.1900 C   0  0  0  0  0  2  0  0  0  0  0  0
  188.6530  179.0570  138.2890 C   0  0  0  0  0  2  0  0  0  0  0  0
  189.2710  178.8720  136.9050 C   0  0  0  0  0  2  0  0  0  0  0  0
  188.2670  178.6220  135.9260 O   0  0  0  0  0  0  0  0  0  0  0  0
  187.8260  177.8290  138.6950 C   0  0  2  0  0  0  0  0  0  0  0  0
  186.7260  177.5590  137.6270 C   0  0  2  0  0  3  0  0  0  0  0  0
  186.5020  175.1520  137.1100 N   0  0  0  0  0  1  0  0  0  0  0  0
  185.9110  176.2690  137.8280 C   0  0  0  0  0  2  0  0  0  0  0  0
  189.8350  176.9330  145.0260 O   0  0  0  0  0  0  0  0  0  0  0  0
  191.1910  177.2670  145.2910 C   0  0  0  0  0  1  0  0  0  0  0  0
  186.9690  178.4750  145.7120 O   0  0  0  0  0  1  0  0  0  0  0  0
  187.0150  177.2530  145.0410 C   0  0  0  0  0  2  0  0  0  0  0  0
  185.3930  179.3040  139.0330 O   0  0  0  0  0  0  0  0  0  0  0  0
  183.1420  178.5250  138.7890 C   0  0  0  0  0  1  0  0  0  0  0  0
  184.0370  179.7250  139.0220 C   0  0  0  0  0  2  0  0  0  0  0  0
  1  9  1  0  0  0  0
  2  5  1  0  0  0  0
  3 10  2  0  0  0  0
  4  1  1  0  0  0  0
  5  4  1  0  0  0  0
  6  3  1  0  0  0  0
  6  1  2  0  0  0  0
  7  2  2  0  0  0  0
  7  6  1  0  0  0  0
  8 21  1  0  0  0  0
  9  8  2  0  0  0  0
  9 24  1  0  0  0  0
 10  8  1  0  0  0  0
 11 18  1  0  0  0  0
 13 11  2  0  0  0  0
 14 17  1  0  0  0  0
 15 14  1  0  0  0  0
 16 11  1  0  0  0  0
 16 15  1  0  0  0  0
 17 12  1  1  0  0  0
 17  7  1  0  0  0  0
 18 20  1  6  0  0  0
 18 17  1  0  0  0  0
 19 20  1  0  0  0  0
 21 22  1  0  0  0  0
 24 23  1  0  0  0  0
 25  2  1  0  0  0  0
 26 27  1  0  0  0  0
 27 25  1  0  0  0  0
M  END
>  <MODEL>
9

>  <REMARK>
 VINA RESULT:      -5.9      3.184      6.546
  Name = 
  6 active torsions:
  status: ('A' for Active; 'I' for Inactive)
    1  A    between atoms: O_2  and  C_21
    2  A    between atoms: C_4  and  O_18
    3  A    between atoms: C_9  and  C_25
    4  A    between atoms: C_16  and  C_22
    5  A    between atoms: C_17  and  C_23
    6  A    between atoms: O_18  and  C_24
                            x       y       z     vdW  Elec       q    Type
                         _______ _______ _______ _____ _____    ______ ____

>  <TORSDO>
F 6

$$$$
