=
 OpenBabel11062416463D

 28 29  0  0  1  0  0  0  0  0999 V2000
  185.9540  178.1880  142.9580 C   0  0  0  0  0  3  0  0  0  0  0  0
  183.8990  178.8480  144.0220 O   0  0  0  0  0  1  0  0  0  0  0  0
  187.1190  177.7000  145.4630 C   0  0  0  0  0  0  0  0  0  0  0  0
  184.9900  178.3810  146.6230 C   0  0  0  0  0  1  0  0  0  0  0  0
  185.7900  178.1550  145.3810 C   0  0  0  0  0  0  0  0  0  0  0  0
  187.8500  177.4960  144.2850 C   0  0  0  0  0  3  0  0  0  0  0  0
  185.2110  178.3980  144.1230 C   0  0  0  0  0  0  0  0  0  0  0  0
  187.2720  177.7350  143.0320 C   0  0  0  0  0  0  0  0  0  0  0  0
  187.7180  177.4570  146.7430 N   0  0  0  0  0  2  0  0  0  0  0  0
  189.0830  177.8410  147.0840 C   0  0  0  0  0  2  0  0  0  0  0  0
  190.0240  176.6490  146.9570 C   0  0  0  0  0  2  0  0  0  0  0  0
  192.3690  176.2260  146.8540 O   0  0  0  0  0  1  0  0  0  0  0  0
  191.3650  177.0620  146.3660 C   0  0  1  0  0  3  0  0  0  0  0  0
  191.8220  178.0920  143.9540 C   0  0  1  0  0  3  0  0  0  0  0  0
  190.9210  175.9740  144.2350 N   0  0  0  0  0  0  0  0  0  0  0  0
  191.3370  177.0110  144.8690 C   0  0  0  0  0  0  0  0  0  0  0  0
  191.6140  177.4490  142.5830 C   0  0  0  0  0  2  0  0  0  0  0  0
  191.0510  176.1850  142.8890 O   0  0  0  0  0  0  0  0  0  0  0  0
  190.9390  179.3210  144.0650 C   0  0  0  0  0  1  0  0  0  0  0  0
  187.9920  177.5320  141.8560 O   0  0  0  0  0  0  0  0  0  0  0  0
  187.7560  178.2970  140.7340 N   0  0  0  0  0  2  0  0  0  0  0  0
  189.5380  177.3680  139.5610 O   0  0  0  0  0  0  0  0  0  0  0  0
  188.5830  178.1880  139.5760 C   0  0  0  0  0  0  0  0  0  0  0  0
  188.3440  178.9830  138.4530 O   0  0  0  0  0  0  0  0  0  0  0  0
  189.1600  178.9270  137.2880 C   0  0  0  0  0  2  0  0  0  0  0  0
  188.5020  178.1150  136.2190 C   0  0  0  0  0  0  0  0  0  0  0  0
  187.0160  178.0960  136.0980 C   0  0  0  0  0  1  0  0  0  0  0  0
  189.2380  177.3420  135.4260 C   0  0  0  0  0  2  0  0  0  0  0  0
  1  8  2  0  0  0  0
  1  7  1  0  0  0  0
  2  7  1  0  0  0  0
  3  9  1  0  0  0  0
  5  3  1  0  0  0  0
  5  4  1  0  0  0  0
  6  3  2  0  0  0  0
  7  5  2  0  0  0  0
  8  6  1  0  0  0  0
  9 10  1  0  0  0  0
 11 10  1  0  0  0  0
 13 12  1  1  0  0  0
 13 11  1  0  0  0  0
 14 19  1  6  0  0  0
 14 16  1  0  0  0  0
 15 16  2  0  0  0  0
 16 13  1  0  0  0  0
 17 18  1  0  0  0  0
 17 14  1  0  0  0  0
 18 15  1  0  0  0  0
 20  8  1  0  0  0  0
 21 20  1  0  0  0  0
 22 23  2  0  0  0  0
 23 21  1  0  0  0  0
 24 23  1  0  0  0  0
 25 24  1  0  0  0  0
 26 25  1  0  0  0  0
 27 26  1  0  0  0  0
 28 26  2  0  0  0  0
M  END
>  <MODEL>
1

>  <REMARK>
 VINA RESULT:      -7.9      0.000      0.000
  Name = 
  10 active torsions:
  status: ('A' for Active; 'I' for Inactive)
    1  A    between atoms: N_2  and  O_17
    2  A    between atoms: C_3  and  C_22
    3  A    between atoms: N_4  and  C_6
    4  A    between atoms: N_4  and  C_10
    5  A    between atoms: C_6  and  C_7
    6  A    between atoms: C_7  and  C_25
    7  A    between atoms: C_12  and  O_24
    8  A    between atoms: C_16  and  C_25
    9  A    between atoms: O_17  and  C_28
   10  A    between atoms: C_22  and  O_24
                            x       y       z     vdW  Elec       q    Type
                         _______ _______ _______ _____ _____    ______ ____

>  <TORSDO>
F 10

$$$$
=
 OpenBabel11062416463D

 28 29  0  0  1  0  0  0  0  0999 V2000
  191.2370  176.6140  145.2300 C   0  0  0  0  0  3  0  0  0  0  0  0
  191.6240  176.9250  147.5850 O   0  0  0  0  0  1  0  0  0  0  0  0
  188.6280  177.6060  145.5070 C   0  0  0  0  0  0  0  0  0  0  0  0
  188.9840  177.9500  147.9760 C   0  0  0  0  0  1  0  0  0  0  0  0
  189.4700  177.5180  146.6300 C   0  0  0  0  0  0  0  0  0  0  0  0
  189.1040  177.1940  144.2550 C   0  0  0  0  0  3  0  0  0  0  0  0
  190.7770  177.0200  146.4860 C   0  0  0  0  0  0  0  0  0  0  0  0
  190.4070  176.7010  144.1120 C   0  0  0  0  0  0  0  0  0  0  0  0
  187.2910  178.1060  145.6480 N   0  0  0  0  0  2  0  0  0  0  0  0
  186.1630  177.6400  144.8490 C   0  0  0  0  0  2  0  0  0  0  0  0
  185.3740  178.8200  144.2940 C   0  0  0  0  0  2  0  0  0  0  0  0
  183.0180  178.8580  143.9260 O   0  0  0  0  0  1  0  0  0  0  0  0
  184.2160  178.3520  143.4230 C   0  0  1  0  0  3  0  0  0  0  0  0
  183.3640  178.6860  140.9230 C   0  0  1  0  0  3  0  0  0  0  0  0
  185.4870  179.3330  141.5940 N   0  0  0  0  0  0  0  0  0  0  0  0
  184.3990  178.7820  142.0000 C   0  0  0  0  0  0  0  0  0  0  0  0
  184.0860  179.3350  139.7440 C   0  0  0  0  0  2  0  0  0  0  0  0
  185.3600  179.6650  140.2720 O   0  0  0  0  0  0  0  0  0  0  0  0
  183.0750  177.2340  140.5900 C   0  0  0  0  0  1  0  0  0  0  0  0
  190.8890  176.2910  142.8690 O   0  0  0  0  0  0  0  0  0  0  0  0
  190.1730  176.5200  141.7150 N   0  0  0  0  0  2  0  0  0  0  0  0
  191.9490  177.5970  140.6670 O   0  0  0  0  0  0  0  0  0  0  0  0
  190.7540  177.2060  140.6070 C   0  0  0  0  0  0  0  0  0  0  0  0
  190.0100  177.4480  139.4500 O   0  0  0  0  0  0  0  0  0  0  0  0
  188.6510  177.8720  139.4890 C   0  0  0  0  0  2  0  0  0  0  0  0
  188.1580  178.1970  138.1150 C   0  0  0  0  0  0  0  0  0  0  0  0
  189.0030  178.9940  137.1820 C   0  0  0  0  0  1  0  0  0  0  0  0
  186.9280  177.8440  137.7530 C   0  0  0  0  0  2  0  0  0  0  0  0
  1  7  1  0  0  0  0
  3  9  1  0  0  0  0
  3  5  1  0  0  0  0
  5  4  1  0  0  0  0
  6  3  2  0  0  0  0
  7  5  2  0  0  0  0
  7  2  1  0  0  0  0
  8  6  1  0  0  0  0
  8  1  2  0  0  0  0
 10  9  1  0  0  0  0
 11 10  1  0  0  0  0
 13 12  1  1  0  0  0
 13 11  1  0  0  0  0
 14 19  1  6  0  0  0
 14 16  1  0  0  0  0
 15 16  2  0  0  0  0
 16 13  1  0  0  0  0
 17 18  1  0  0  0  0
 17 14  1  0  0  0  0
 18 15  1  0  0  0  0
 20  8  1  0  0  0  0
 21 20  1  0  0  0  0
 23 22  2  0  0  0  0
 23 21  1  0  0  0  0
 24 25  1  0  0  0  0
 24 23  1  0  0  0  0
 26 25  1  0  0  0  0
 27 26  1  0  0  0  0
 28 26  2  0  0  0  0
M  END
>  <MODEL>
2

>  <REMARK>
 VINA RESULT:      -7.8      1.915      5.564
  Name = 
  10 active torsions:
  status: ('A' for Active; 'I' for Inactive)
    1  A    between atoms: N_2  and  O_17
    2  A    between atoms: C_3  and  C_22
    3  A    between atoms: N_4  and  C_6
    4  A    between atoms: N_4  and  C_10
    5  A    between atoms: C_6  and  C_7
    6  A    between atoms: C_7  and  C_25
    7  A    between atoms: C_12  and  O_24
    8  A    between atoms: C_16  and  C_25
    9  A    between atoms: O_17  and  C_28
   10  A    between atoms: C_22  and  O_24
                            x       y       z     vdW  Elec       q    Type
                         _______ _______ _______ _____ _____    ______ ____

>  <TORSDO>
F 10

$$$$
=
 OpenBabel11062416463D

 28 29  0  0  1  0  0  0  0  0999 V2000
  187.2010  178.6240  147.7810 C   0  0  0  0  0  3  0  0  0  0  0  0
  189.2410  178.0310  148.9110 O   0  0  0  0  0  1  0  0  0  0  0  0
  188.1390  177.4380  145.4190 C   0  0  0  0  0  0  0  0  0  0  0  0
  190.2910  176.7950  146.5570 C   0  0  0  0  0  1  0  0  0  0  0  0
  188.9390  177.4310  146.5760 C   0  0  0  0  0  0  0  0  0  0  0  0
  186.8750  178.0420  145.4600 C   0  0  0  0  0  3  0  0  0  0  0  0
  188.4640  178.0270  147.7570 C   0  0  0  0  0  0  0  0  0  0  0  0
  186.4010  178.6330  146.6370 C   0  0  0  0  0  0  0  0  0  0  0  0
  188.6210  176.8380  144.2090 N   0  0  0  0  0  2  0  0  0  0  0  0
  187.9480  176.9610  142.9200 C   0  0  0  0  0  2  0  0  0  0  0  0
  188.4390  178.1950  142.1730 C   0  0  0  0  0  2  0  0  0  0  0  0
  189.6720  176.5190  141.0080 O   0  0  0  0  0  1  0  0  0  0  0  0
  189.1680  177.8140  140.8920 C   0  0  1  0  0  3  0  0  0  0  0  0
  188.4740  177.2180  138.3920 C   0  0  1  0  0  3  0  0  0  0  0  0
  187.1670  178.5790  139.7390 N   0  0  0  0  0  0  0  0  0  0  0  0
  188.2620  177.9080  139.7040 C   0  0  0  0  0  0  0  0  0  0  0  0
  187.2150  177.6200  137.6260 C   0  0  0  0  0  2  0  0  0  0  0  0
  186.5200  178.4530  138.5390 O   0  0  0  0  0  0  0  0  0  0  0  0
  189.6900  177.7830  137.6820 C   0  0  0  0  0  1  0  0  0  0  0  0
  185.1440  179.2330  146.6860 O   0  0  0  0  0  0  0  0  0  0  0  0
  184.0490  178.6460  146.0910 N   0  0  0  0  0  2  0  0  0  0  0  0
  184.1780  180.0020  144.2050 O   0  0  0  0  0  0  0  0  0  0  0  0
  183.5790  179.0780  144.8150 C   0  0  0  0  0  0  0  0  0  0  0  0
  182.4570  178.4860  144.2310 O   0  0  0  0  0  0  0  0  0  0  0  0
  181.8030  179.0410  143.0950 C   0  0  0  0  0  2  0  0  0  0  0  0
  180.3720  178.6090  143.0430 C   0  0  0  0  0  0  0  0  0  0  0  0
  179.5240  178.6730  144.2670 C   0  0  0  0  0  1  0  0  0  0  0  0
  179.8770  178.0910  141.9240 C   0  0  0  0  0  2  0  0  0  0  0  0
  3  6  2  0  0  0  0
  3  5  1  0  0  0  0
  4  5  1  0  0  0  0
  5  7  2  0  0  0  0
  6  8  1  0  0  0  0
  7  1  1  0  0  0  0
  7  2  1  0  0  0  0
  8 20  1  0  0  0  0
  8  1  2  0  0  0  0
  9  3  1  0  0  0  0
 10  9  1  0  0  0  0
 11 10  1  0  0  0  0
 13 12  1  1  0  0  0
 13 11  1  0  0  0  0
 14 19  1  6  0  0  0
 14 16  1  0  0  0  0
 16 15  2  0  0  0  0
 16 13  1  0  0  0  0
 17 14  1  0  0  0  0
 17 18  1  0  0  0  0
 18 15  1  0  0  0  0
 21 20  1  0  0  0  0
 22 23  2  0  0  0  0
 23 21  1  0  0  0  0
 24 23  1  0  0  0  0
 25 24  1  0  0  0  0
 26 25  1  0  0  0  0
 26 27  1  0  0  0  0
 28 26  2  0  0  0  0
M  END
>  <MODEL>
3

>  <REMARK>
 VINA RESULT:      -7.5      2.592      6.705
  Name = 
  10 active torsions:
  status: ('A' for Active; 'I' for Inactive)
    1  A    between atoms: N_2  and  O_17
    2  A    between atoms: C_3  and  C_22
    3  A    between atoms: N_4  and  C_6
    4  A    between atoms: N_4  and  C_10
    5  A    between atoms: C_6  and  C_7
    6  A    between atoms: C_7  and  C_25
    7  A    between atoms: C_12  and  O_24
    8  A    between atoms: C_16  and  C_25
    9  A    between atoms: O_17  and  C_28
   10  A    between atoms: C_22  and  O_24
                            x       y       z     vdW  Elec       q    Type
                         _______ _______ _______ _____ _____    ______ ____

>  <TORSDO>
F 10

$$$$
=
 OpenBabel11062416463D

 28 29  0  0  1  0  0  0  0  0999 V2000
  188.6670  177.7250  137.5190 C   0  0  0  0  0  3  0  0  0  0  0  0
  190.2070  176.7070  135.9760 O   0  0  0  0  0  1  0  0  0  0  0  0
  190.4500  177.2650  139.6350 C   0  0  0  0  0  0  0  0  0  0  0  0
  192.0960  176.1920  138.0590 C   0  0  0  0  0  1  0  0  0  0  0  0
  190.7890  176.8640  138.3290 C   0  0  0  0  0  0  0  0  0  0  0  0
  189.2190  177.8920  139.8650 C   0  0  0  0  0  3  0  0  0  0  0  0
  189.8910  177.0970  137.2730 C   0  0  0  0  0  0  0  0  0  0  0  0
  188.3270  178.1270  138.8110 C   0  0  0  0  0  0  0  0  0  0  0  0
  191.3580  177.0240  140.7180 N   0  0  0  0  0  2  0  0  0  0  0  0
  191.2080  177.6090  142.0460 C   0  0  0  0  0  2  0  0  0  0  0  0
  191.1340  176.5200  143.1090 C   0  0  0  0  0  2  0  0  0  0  0  0
  191.6990  178.3850  144.4820 O   0  0  0  0  0  1  0  0  0  0  0  0
  191.1300  177.1130  144.5110 C   0  0  1  0  0  3  0  0  0  0  0  0
  189.3620  177.7720  146.3900 C   0  0  1  0  0  3  0  0  0  0  0  0
  188.7230  176.7710  144.3990 N   0  0  0  0  0  0  0  0  0  0  0  0
  189.7410  177.1840  145.0660 C   0  0  0  0  0  0  0  0  0  0  0  0
  187.8410  177.6330  146.3650 C   0  0  0  0  0  2  0  0  0  0  0  0
  187.5840  176.9990  145.1230 O   0  0  0  0  0  0  0  0  0  0  0  0
  189.9200  176.9340  147.5250 C   0  0  0  0  0  1  0  0  0  0  0  0
  187.1000  178.7530  139.0320 O   0  0  0  0  0  0  0  0  0  0  0  0
  186.4100  178.5720  140.2100 N   0  0  0  0  0  2  0  0  0  0  0  0
  184.5690  179.7920  139.4750 O   0  0  0  0  0  0  0  0  0  0  0  0
  185.1110  179.1330  140.4010 C   0  0  0  0  0  0  0  0  0  0  0  0
  184.4300  178.9580  141.6070 O   0  0  0  0  0  0  0  0  0  0  0  0
  185.1050  178.8000  142.8510 C   0  0  0  0  0  2  0  0  0  0  0  0
  184.1430  178.8930  143.9920 C   0  0  0  0  0  0  0  0  0  0  0  0
  184.6430  178.9180  145.3960 C   0  0  0  0  0  1  0  0  0  0  0  0
  182.8340  178.8690  143.7580 C   0  0  0  0  0  2  0  0  0  0  0  0
  1  8  1  0  0  0  0
  2  7  1  0  0  0  0
  3  6  1  0  0  0  0
  3  9  1  0  0  0  0
  4  5  1  0  0  0  0
  5  3  2  0  0  0  0
  7  1  2  0  0  0  0
  7  5  1  0  0  0  0
  8 20  1  0  0  0  0
  8  6  2  0  0  0  0
  9 10  1  0  0  0  0
 10 11  1  0  0  0  0
 11 13  1  0  0  0  0
 13 12  1  6  0  0  0
 13 16  1  0  0  0  0
 14 19  1  1  0  0  0
 15 16  2  0  0  0  0
 15 18  1  0  0  0  0
 16 14  1  0  0  0  0
 17 14  1  0  0  0  0
 18 17  1  0  0  0  0
 20 21  1  0  0  0  0
 21 23  1  0  0  0  0
 22 23  2  0  0  0  0
 23 24  1  0  0  0  0
 24 25  1  0  0  0  0
 25 26  1  0  0  0  0
 26 27  1  0  0  0  0
 28 26  2  0  0  0  0
M  END
>  <MODEL>
4

>  <REMARK>
 VINA RESULT:      -7.5      2.229      6.318
  Name = 
  10 active torsions:
  status: ('A' for Active; 'I' for Inactive)
    1  A    between atoms: N_2  and  O_17
    2  A    between atoms: C_3  and  C_22
    3  A    between atoms: N_4  and  C_6
    4  A    between atoms: N_4  and  C_10
    5  A    between atoms: C_6  and  C_7
    6  A    between atoms: C_7  and  C_25
    7  A    between atoms: C_12  and  O_24
    8  A    between atoms: C_16  and  C_25
    9  A    between atoms: O_17  and  C_28
   10  A    between atoms: C_22  and  O_24
                            x       y       z     vdW  Elec       q    Type
                         _______ _______ _______ _____ _____    ______ ____

>  <TORSDO>
F 10

$$$$
=
 OpenBabel11062416463D

 28 29  0  0  1  0  0  0  0  0999 V2000
  186.7830  178.2730  147.1870 C   0  0  0  0  0  3  0  0  0  0  0  0
  188.3120  177.8940  149.0060 O   0  0  0  0  0  1  0  0  0  0  0  0
  188.6710  177.2800  145.3660 C   0  0  0  0  0  0  0  0  0  0  0  0
  190.3060  176.8640  147.2360 C   0  0  0  0  0  1  0  0  0  0  0  0
  188.9770  177.3340  146.7380 C   0  0  0  0  0  0  0  0  0  0  0  0
  187.4190  177.7270  144.9220 C   0  0  0  0  0  3  0  0  0  0  0  0
  188.0270  177.8330  147.6460 C   0  0  0  0  0  0  0  0  0  0  0  0
  186.4720  178.2210  145.8280 C   0  0  0  0  0  0  0  0  0  0  0  0
  189.6380  176.7790  144.4330 N   0  0  0  0  0  2  0  0  0  0  0  0
  190.2200  177.5800  143.3610 C   0  0  0  0  0  2  0  0  0  0  0  0
  190.1280  176.8440  142.0300 C   0  0  0  0  0  2  0  0  0  0  0  0
  188.5690  178.6090  141.6580 O   0  0  0  0  0  1  0  0  0  0  0  0
  188.9650  177.3570  141.1910 C   0  0  1  0  0  3  0  0  0  0  0  0
  188.7050  178.3520  138.7350 C   0  0  1  0  0  3  0  0  0  0  0  0
  190.2980  176.7470  139.2480 N   0  0  0  0  0  0  0  0  0  0  0  0
  189.3380  177.4430  139.7430 C   0  0  0  0  0  0  0  0  0  0  0  0
  189.5350  178.0530  137.4880 C   0  0  0  0  0  2  0  0  0  0  0  0
  190.4480  177.0590  137.9240 O   0  0  0  0  0  0  0  0  0  0  0  0
  187.2650  177.9480  138.4820 C   0  0  0  0  0  1  0  0  0  0  0  0
  185.2240  178.6650  145.3940 O   0  0  0  0  0  0  0  0  0  0  0  0
  184.9130  178.7210  144.0530 N   0  0  0  0  0  2  0  0  0  0  0  0
  182.6200  178.6800  144.4440 O   0  0  0  0  0  0  0  0  0  0  0  0
  183.5580  178.7160  143.6060 C   0  0  0  0  0  0  0  0  0  0  0  0
  183.2580  178.7540  142.2420 O   0  0  0  0  0  0  0  0  0  0  0  0
  184.2500  178.5830  141.2350 C   0  0  0  0  0  2  0  0  0  0  0  0
  183.6230  178.5160  139.8800 C   0  0  0  0  0  0  0  0  0  0  0  0
  182.9630  177.2610  139.4190 C   0  0  0  0  0  1  0  0  0  0  0  0
  183.7270  179.5500  139.0500 C   0  0  0  0  0  2  0  0  0  0  0  0
  1  7  1  0  0  0  0
  3  5  1  0  0  0  0
  5  4  1  0  0  0  0
  5  7  2  0  0  0  0
  6  3  2  0  0  0  0
  6  8  1  0  0  0  0
  7  2  1  0  0  0  0
  8  1  2  0  0  0  0
  9  3  1  0  0  0  0
 10  9  1  0  0  0  0
 11 10  1  0  0  0  0
 13 12  1  1  0  0  0
 13 11  1  0  0  0  0
 14 19  1  6  0  0  0
 14 16  1  0  0  0  0
 15 16  2  0  0  0  0
 16 13  1  0  0  0  0
 17 18  1  0  0  0  0
 17 14  1  0  0  0  0
 18 15  1  0  0  0  0
 20  8  1  0  0  0  0
 21 20  1  0  0  0  0
 23 21  1  0  0  0  0
 23 22  2  0  0  0  0
 24 23  1  0  0  0  0
 25 24  1  0  0  0  0
 26 25  1  0  0  0  0
 27 26  1  0  0  0  0
 28 26  2  0  0  0  0
M  END
>  <MODEL>
5

>  <REMARK>
 VINA RESULT:      -7.3      2.386      5.395
  Name = 
  10 active torsions:
  status: ('A' for Active; 'I' for Inactive)
    1  A    between atoms: N_2  and  O_17
    2  A    between atoms: C_3  and  C_22
    3  A    between atoms: N_4  and  C_6
    4  A    between atoms: N_4  and  C_10
    5  A    between atoms: C_6  and  C_7
    6  A    between atoms: C_7  and  C_25
    7  A    between atoms: C_12  and  O_24
    8  A    between atoms: C_16  and  C_25
    9  A    between atoms: O_17  and  C_28
   10  A    between atoms: C_22  and  O_24
                            x       y       z     vdW  Elec       q    Type
                         _______ _______ _______ _____ _____    ______ ____

>  <TORSDO>
F 10

$$$$
=
 OpenBabel11062416463D

 28 29  0  0  1  0  0  0  0  0999 V2000
  183.7730  178.9920  140.7780 C   0  0  0  0  0  3  0  0  0  0  0  0
  181.3800  178.9620  141.0200 O   0  0  0  0  0  1  0  0  0  0  0  0
  184.0780  178.8040  143.5610 C   0  0  0  0  0  0  0  0  0  0  0  0
  181.5790  178.7690  143.8650 C   0  0  0  0  0  1  0  0  0  0  0  0
  182.7910  178.8350  142.9940 C   0  0  0  0  0  0  0  0  0  0  0  0
  185.2000  178.8680  142.7240 C   0  0  0  0  0  3  0  0  0  0  0  0
  182.6440  178.9290  141.5990 C   0  0  0  0  0  0  0  0  0  0  0  0
  185.0530  178.9590  141.3340 C   0  0  0  0  0  0  0  0  0  0  0  0
  184.2350  178.7150  144.9830 N   0  0  0  0  0  2  0  0  0  0  0  0
  185.4830  179.0070  145.6800 C   0  0  0  0  0  2  0  0  0  0  0  0
  186.1760  177.7180  146.1040 C   0  0  0  0  0  2  0  0  0  0  0  0
  188.2240  177.3100  147.2560 O   0  0  0  0  0  1  0  0  0  0  0  0
  187.6900  177.8750  146.0990 C   0  0  1  0  0  3  0  0  0  0  0  0
  189.7650  177.1150  144.6120 C   0  0  1  0  0  3  0  0  0  0  0  0
  187.5760  176.6790  143.9820 N   0  0  0  0  0  0  0  0  0  0  0  0
  188.2980  177.2350  144.8880 C   0  0  0  0  0  0  0  0  0  0  0  0
  189.7680  176.3220  143.3060 C   0  0  0  0  0  2  0  0  0  0  0  0
  188.3900  176.1380  143.0240 O   0  0  0  0  0  0  0  0  0  0  0  0
  190.3750  178.4820  144.3650 C   0  0  0  0  0  1  0  0  0  0  0  0
  186.1650  179.0220  140.4940 O   0  0  0  0  0  0  0  0  0  0  0  0
  187.2530  178.2000  140.6910 N   0  0  0  0  0  2  0  0  0  0  0  0
  188.1190  178.6160  138.5710 O   0  0  0  0  0  0  0  0  0  0  0  0
  188.2320  178.0110  139.6700 C   0  0  0  0  0  0  0  0  0  0  0  0
  189.3210  177.1610  139.8750 O   0  0  0  0  0  0  0  0  0  0  0  0
  190.6440  177.5010  139.4730 C   0  0  0  0  0  2  0  0  0  0  0  0
  191.1650  176.5160  138.4770 C   0  0  0  0  0  0  0  0  0  0  0  0
  190.2280  175.6010  137.7640 C   0  0  0  0  0  1  0  0  0  0  0  0
  192.4750  176.3990  138.2850 C   0  0  0  0  0  2  0  0  0  0  0  0
  1  8  2  0  0  0  0
  1  7  1  0  0  0  0
  2  7  1  0  0  0  0
  3  9  1  0  0  0  0
  5  3  1  0  0  0  0
  5  4  1  0  0  0  0
  6  3  2  0  0  0  0
  7  5  2  0  0  0  0
  8  6  1  0  0  0  0
  9 10  1  0  0  0  0
 10 11  1  0  0  0  0
 13 11  1  0  0  0  0
 13 12  1  1  0  0  0
 14 19  1  6  0  0  0
 14 16  1  0  0  0  0
 15 16  2  0  0  0  0
 16 13  1  0  0  0  0
 17 14  1  0  0  0  0
 18 17  1  0  0  0  0
 18 15  1  0  0  0  0
 20 21  1  0  0  0  0
 20  8  1  0  0  0  0
 22 23  2  0  0  0  0
 23 24  1  0  0  0  0
 23 21  1  0  0  0  0
 25 24  1  0  0  0  0
 26 25  1  0  0  0  0
 27 26  1  0  0  0  0
 28 26  2  0  0  0  0
M  END
>  <MODEL>
6

>  <REMARK>
 VINA RESULT:      -7.2      2.514      3.338
  Name = 
  10 active torsions:
  status: ('A' for Active; 'I' for Inactive)
    1  A    between atoms: N_2  and  O_17
    2  A    between atoms: C_3  and  C_22
    3  A    between atoms: N_4  and  C_6
    4  A    between atoms: N_4  and  C_10
    5  A    between atoms: C_6  and  C_7
    6  A    between atoms: C_7  and  C_25
    7  A    between atoms: C_12  and  O_24
    8  A    between atoms: C_16  and  C_25
    9  A    between atoms: O_17  and  C_28
   10  A    between atoms: C_22  and  O_24
                            x       y       z     vdW  Elec       q    Type
                         _______ _______ _______ _____ _____    ______ ____

>  <TORSDO>
F 10

$$$$
=
 OpenBabel11062416463D

 28 29  0  0  1  0  0  0  0  0999 V2000
  184.9190  179.1330  144.9060 C   0  0  0  0  0  3  0  0  0  0  0  0
  185.2840  179.0340  147.2820 O   0  0  0  0  0  1  0  0  0  0  0  0
  187.1700  177.5160  144.4720 C   0  0  0  0  0  0  0  0  0  0  0  0
  187.5920  177.3810  146.9510 C   0  0  0  0  0  1  0  0  0  0  0  0
  186.7960  177.8660  145.7830 C   0  0  0  0  0  0  0  0  0  0  0  0
  186.4090  177.9820  143.3920 C   0  0  0  0  0  3  0  0  0  0  0  0
  185.6680  178.6770  145.9940 C   0  0  0  0  0  0  0  0  0  0  0  0
  185.2830  178.7880  143.6040 C   0  0  0  0  0  0  0  0  0  0  0  0
  188.3240  176.6950  144.2490 N   0  0  0  0  0  2  0  0  0  0  0  0
  188.8300  176.3510  142.9240 C   0  0  0  0  0  2  0  0  0  0  0  0
  190.3530  176.3910  142.9030 C   0  0  0  0  0  2  0  0  0  0  0  0
  192.2480  177.5780  142.0730 O   0  0  0  0  0  1  0  0  0  0  0  0
  190.8660  177.4490  141.9360 C   0  0  1  0  0  3  0  0  0  0  0  0
  189.7510  177.9730  139.5750 C   0  0  1  0  0  3  0  0  0  0  0  0
  190.9160  176.0080  139.9750 N   0  0  0  0  0  0  0  0  0  0  0  0
  190.5210  177.1030  140.5200 C   0  0  0  0  0  0  0  0  0  0  0  0
  189.7860  177.1410  138.2940 C   0  0  0  0  0  2  0  0  0  0  0  0
  190.5000  175.9760  138.6710 O   0  0  0  0  0  0  0  0  0  0  0  0
  188.3120  178.1170  140.0350 C   0  0  0  0  0  1  0  0  0  0  0  0
  184.5200  179.2540  142.5340 O   0  0  0  0  0  0  0  0  0  0  0  0
  185.0560  179.3620  141.2690 N   0  0  0  0  0  2  0  0  0  0  0  0
  183.2610  178.2690  140.2690 O   0  0  0  0  0  0  0  0  0  0  0  0
  184.3780  178.8330  140.1300 C   0  0  0  0  0  0  0  0  0  0  0  0
  184.9420  178.9330  138.8560 O   0  0  0  0  0  0  0  0  0  0  0  0
  184.7580  177.9350  137.8580 C   0  0  0  0  0  2  0  0  0  0  0  0
  186.0630  177.5680  137.2280 C   0  0  0  0  0  0  0  0  0  0  0  0
  186.9620  178.6280  136.6900 C   0  0  0  0  0  1  0  0  0  0  0  0
  186.3870  176.2880  137.0720 C   0  0  0  0  0  2  0  0  0  0  0  0
  1  7  1  0  0  0  0
  3  5  1  0  0  0  0
  5  7  2  0  0  0  0
  5  4  1  0  0  0  0
  6  8  1  0  0  0  0
  6  3  2  0  0  0  0
  7  2  1  0  0  0  0
  8  1  2  0  0  0  0
  9  3  1  0  0  0  0
 10  9  1  0  0  0  0
 11 10  1  0  0  0  0
 13 12  1  6  0  0  0
 13 11  1  0  0  0  0
 14 19  1  1  0  0  0
 14 16  1  0  0  0  0
 15 16  2  0  0  0  0
 16 13  1  0  0  0  0
 17 18  1  0  0  0  0
 17 14  1  0  0  0  0
 18 15  1  0  0  0  0
 20  8  1  0  0  0  0
 21 20  1  0  0  0  0
 23 22  2  0  0  0  0
 23 21  1  0  0  0  0
 24 23  1  0  0  0  0
 25 24  1  0  0  0  0
 26 25  1  0  0  0  0
 27 26  1  0  0  0  0
 28 26  2  0  0  0  0
M  END
>  <MODEL>
7

>  <REMARK>
 VINA RESULT:      -7.2      2.303      3.733
  Name = 
  10 active torsions:
  status: ('A' for Active; 'I' for Inactive)
    1  A    between atoms: N_2  and  O_17
    2  A    between atoms: C_3  and  C_22
    3  A    between atoms: N_4  and  C_6
    4  A    between atoms: N_4  and  C_10
    5  A    between atoms: C_6  and  C_7
    6  A    between atoms: C_7  and  C_25
    7  A    between atoms: C_12  and  O_24
    8  A    between atoms: C_16  and  C_25
    9  A    between atoms: O_17  and  C_28
   10  A    between atoms: C_22  and  O_24
                            x       y       z     vdW  Elec       q    Type
                         _______ _______ _______ _____ _____    ______ ____

>  <TORSDO>
F 10

$$$$
=
 OpenBabel11062416463D

 28 29  0  0  1  0  0  0  0  0999 V2000
  189.4230  177.4950  146.4360 C   0  0  0  0  0  3  0  0  0  0  0  0
  191.7240  176.8030  146.5640 O   0  0  0  0  0  1  0  0  0  0  0  0
  189.3240  176.7360  143.7370 C   0  0  0  0  0  0  0  0  0  0  0  0
  191.7290  175.9970  143.8220 C   0  0  0  0  0  1  0  0  0  0  0  0
  190.5130  176.5730  144.4710 C   0  0  0  0  0  0  0  0  0  0  0  0
  188.1960  177.2800  144.3660 C   0  0  0  0  0  3  0  0  0  0  0  0
  190.5570  176.9550  145.8230 C   0  0  0  0  0  0  0  0  0  0  0  0
  188.2400  177.6570  145.7140 C   0  0  0  0  0  0  0  0  0  0  0  0
  189.2740  176.3550  142.3560 N   0  0  0  0  0  2  0  0  0  0  0  0
  189.5960  177.2560  141.2550 C   0  0  0  0  0  2  0  0  0  0  0  0
  190.8250  176.7650  140.5000 C   0  0  0  0  0  2  0  0  0  0  0  0
  189.9650  177.8810  138.5760 O   0  0  0  0  0  1  0  0  0  0  0  0
  190.5650  176.6960  139.0020 C   0  0  1  0  0  3  0  0  0  0  0  0
  191.9520  175.6840  136.9670 C   0  0  1  0  0  3  0  0  0  0  0  0
  192.9530  176.9670  138.6170 N   0  0  0  0  0  0  0  0  0  0  0  0
  191.8340  176.4600  138.2410 C   0  0  0  0  0  0  0  0  0  0  0  0
  193.4340  175.8550  136.6380 C   0  0  0  0  0  2  0  0  0  0  0  0
  193.9280  176.6310  137.7170 O   0  0  0  0  0  0  0  0  0  0  0  0
  191.6630  174.2140  137.2090 C   0  0  0  0  0  1  0  0  0  0  0  0
  187.1210  178.1970  146.3480 O   0  0  0  0  0  0  0  0  0  0  0  0
  186.0410  178.6520  145.6230 N   0  0  0  0  0  2  0  0  0  0  0  0
  184.5400  178.2570  147.3570 O   0  0  0  0  0  0  0  0  0  0  0  0
  184.7260  178.6570  146.1770 C   0  0  0  0  0  0  0  0  0  0  0  0
  183.6380  179.1040  145.4250 O   0  0  0  0  0  0  0  0  0  0  0  0
  183.7920  179.7500  144.1650 C   0  0  0  0  0  2  0  0  0  0  0  0
  183.2100  178.9170  143.0680 C   0  0  0  0  0  0  0  0  0  0  0  0
  184.1020  178.2580  142.0720 C   0  0  0  0  0  1  0  0  0  0  0  0
  181.8910  178.8330  142.9300 C   0  0  0  0  0  2  0  0  0  0  0  0
  3  6  2  0  0  0  0
  3  5  1  0  0  0  0
  4  5  1  0  0  0  0
  5  7  2  0  0  0  0
  6  8  1  0  0  0  0
  7  1  1  0  0  0  0
  7  2  1  0  0  0  0
  8 20  1  0  0  0  0
  8  1  2  0  0  0  0
  9  3  1  0  0  0  0
 10  9  1  0  0  0  0
 11 10  1  0  0  0  0
 13 12  1  6  0  0  0
 13 11  1  0  0  0  0
 14 19  1  1  0  0  0
 14 16  1  0  0  0  0
 16 15  2  0  0  0  0
 16 13  1  0  0  0  0
 17 14  1  0  0  0  0
 17 18  1  0  0  0  0
 18 15  1  0  0  0  0
 21 23  1  0  0  0  0
 21 20  1  0  0  0  0
 23 22  2  0  0  0  0
 24 23  1  0  0  0  0
 25 24  1  0  0  0  0
 26 25  1  0  0  0  0
 27 26  1  0  0  0  0
 28 26  2  0  0  0  0
M  END
>  <MODEL>
8

>  <REMARK>
 VINA RESULT:      -7.1      2.803      6.873
  Name = 
  10 active torsions:
  status: ('A' for Active; 'I' for Inactive)
    1  A    between atoms: N_2  and  O_17
    2  A    between atoms: C_3  and  C_22
    3  A    between atoms: N_4  and  C_6
    4  A    between atoms: N_4  and  C_10
    5  A    between atoms: C_6  and  C_7
    6  A    between atoms: C_7  and  C_25
    7  A    between atoms: C_12  and  O_24
    8  A    between atoms: C_16  and  C_25
    9  A    between atoms: O_17  and  C_28
   10  A    between atoms: C_22  and  O_24
                            x       y       z     vdW  Elec       q    Type
                         _______ _______ _______ _____ _____    ______ ____

>  <TORSDO>
F 10

$$$$
=
 OpenBabel11062416463D

 28 29  0  0  1  0  0  0  0  0999 V2000
  184.7530  179.0030  145.0130 C   0  0  0  0  0  3  0  0  0  0  0  0
  185.3650  179.0220  147.3390 O   0  0  0  0  0  1  0  0  0  0  0  0
  187.0450  177.5050  144.4010 C   0  0  0  0  0  0  0  0  0  0  0  0
  187.7270  177.4970  146.8250 C   0  0  0  0  0  1  0  0  0  0  0  0
  186.7860  177.8850  145.7310 C   0  0  0  0  0  0  0  0  0  0  0  0
  186.1490  177.8820  143.3910 C   0  0  0  0  0  3  0  0  0  0  0  0
  185.6370  178.6360  146.0310 C   0  0  0  0  0  0  0  0  0  0  0  0
  185.0030  178.6270  143.6920 C   0  0  0  0  0  0  0  0  0  0  0  0
  188.2190  176.7450  144.0860 N   0  0  0  0  0  2  0  0  0  0  0  0
  189.5450  177.3330  143.9230 C   0  0  0  0  0  2  0  0  0  0  0  0
  189.5840  178.2400  142.7000 C   0  0  0  0  0  2  0  0  0  0  0  0
  190.1920  176.1350  141.7590 O   0  0  0  0  0  1  0  0  0  0  0  0
  190.0980  177.4970  141.4750 C   0  0  1  0  0  3  0  0  0  0  0  0
  189.2090  176.9010  139.0360 C   0  0  1  0  0  3  0  0  0  0  0  0
  188.2940  178.6220  140.2910 N   0  0  0  0  0  0  0  0  0  0  0  0
  189.2030  177.7140  140.2930 C   0  0  0  0  0  0  0  0  0  0  0  0
  188.0550  177.5300  138.2570 C   0  0  0  0  0  2  0  0  0  0  0  0
  187.6000  178.5650  139.1130 O   0  0  0  0  0  0  0  0  0  0  0  0
  190.5010  177.1160  138.2690 C   0  0  0  0  0  1  0  0  0  0  0  0
  184.1060  179.0040  142.6930 O   0  0  0  0  0  0  0  0  0  0  0  0
  183.8950  178.2090  141.5870 N   0  0  0  0  0  2  0  0  0  0  0  0
  184.8470  179.7530  140.1290 O   0  0  0  0  0  0  0  0  0  0  0  0
  184.2840  178.6370  140.2830 C   0  0  0  0  0  0  0  0  0  0  0  0
  184.0480  177.8300  139.1680 O   0  0  0  0  0  0  0  0  0  0  0  0
  183.0770  176.7880  139.1700 C   0  0  0  0  0  2  0  0  0  0  0  0
  181.7090  177.3380  138.9200 C   0  0  0  0  0  0  0  0  0  0  0  0
  180.5920  177.0280  139.8580 C   0  0  0  0  0  1  0  0  0  0  0  0
  181.4680  178.0370  137.8150 C   0  0  0  0  0  2  0  0  0  0  0  0
  1  7  1  0  0  0  0
  3  5  1  0  0  0  0
  5  7  2  0  0  0  0
  5  4  1  0  0  0  0
  6  8  1  0  0  0  0
  6  3  2  0  0  0  0
  7  2  1  0  0  0  0
  8  1  2  0  0  0  0
  9  3  1  0  0  0  0
 10  9  1  0  0  0  0
 11 10  1  0  0  0  0
 13 12  1  1  0  0  0
 13 11  1  0  0  0  0
 14 19  1  6  0  0  0
 14 16  1  0  0  0  0
 15 16  2  0  0  0  0
 16 13  1  0  0  0  0
 17 14  1  0  0  0  0
 17 18  1  0  0  0  0
 18 15  1  0  0  0  0
 20  8  1  0  0  0  0
 21 20  1  0  0  0  0
 22 23  2  0  0  0  0
 23 21  1  0  0  0  0
 24 25  1  0  0  0  0
 24 23  1  0  0  0  0
 26 25  1  0  0  0  0
 26 27  1  0  0  0  0
 28 26  2  0  0  0  0
M  END
>  <MODEL>
9

>  <REMARK>
 VINA RESULT:      -7.1      2.989      4.829
  Name = 
  10 active torsions:
  status: ('A' for Active; 'I' for Inactive)
    1  A    between atoms: N_2  and  O_17
    2  A    between atoms: C_3  and  C_22
    3  A    between atoms: N_4  and  C_6
    4  A    between atoms: N_4  and  C_10
    5  A    between atoms: C_6  and  C_7
    6  A    between atoms: C_7  and  C_25
    7  A    between atoms: C_12  and  O_24
    8  A    between atoms: C_16  and  C_25
    9  A    between atoms: O_17  and  C_28
   10  A    between atoms: C_22  and  O_24
                            x       y       z     vdW  Elec       q    Type
                         _______ _______ _______ _____ _____    ______ ____

>  <TORSDO>
F 10

$$$$
