=
 OpenBabel11062412323D

 33 36  0  0  1  0  0  0  0  0999 V2000
  187.2210  176.4250  136.3030 O   0  0  0  0  0  0  0  0  0  0  0  0
  182.8840  179.0570  141.9300 C   0  0  1  0  0  3  0  0  0  0  0  0
  187.4860  177.7280  138.2950 C   0  0  0  0  0  0  0  0  0  0  0  0
  186.2920  175.4760  136.7430 C   0  0  0  0  0  2  0  0  0  0  0  0
  187.3000  178.7970  136.0760 C   0  0  0  0  0  1  0  0  0  0  0  0
  186.7370  178.2860  139.3670 C   0  0  0  0  0  0  0  0  0  0  0  0
  182.6220  177.0090  139.1720 C   0  0  1  0  0  3  0  0  0  0  0  0
  188.8060  178.0910  142.4950 S   0  0  0  0  0  0  0  0  0  0  0  0
  189.3890  177.2870  139.6970 N   0  0  0  0  0  0  0  0  0  0  0  0
  183.2380  174.5990  136.8290 C   0  0  0  0  0  2  0  0  0  0  0  0
  187.2450  178.6650  142.0230 C   0  0  1  0  0  3  0  0  0  0  0  0
  187.3730  178.2970  140.5880 C   0  0  0  0  0  0  0  0  0  0  0  0
  184.4040  173.9930  136.0620 C   0  0  0  0  0  2  0  0  0  0  0  0
  188.6820  177.7950  140.7200 C   0  0  0  0  0  0  0  0  0  0  0  0
  184.0850  178.1220  141.9620 C   0  0  0  0  0  2  0  0  0  0  0  0
  185.4510  178.7860  139.2030 O   0  0  0  0  0  1  0  0  0  0  0  0
  185.0190  178.6010  142.8820 O   0  0  0  0  0  0  0  0  0  0  0  0
  180.7310  179.6640  142.8540 C   0  0  1  0  0  3  0  0  0  0  0  0
  186.8630  177.6250  136.9330 C   0  0  1  0  0  3  0  0  0  0  0  0
  181.7150  177.4870  140.2970 C   0  0  0  0  0  2  0  0  0  0  0  0
  182.0200  178.9340  140.6810 C   0  0  1  0  0  3  0  0  0  0  0  0
  182.4530  175.4980  139.0110 C   0  0  0  0  0  2  0  0  0  0  0  0
  185.3850  175.0600  135.5990 C   0  0  0  0  0  2  0  0  0  0  0  0
  188.7770  177.2640  138.4990 N   0  0  0  0  0  0  0  0  0  0  0  0
  181.9880  178.8600  143.1280 C   0  0  0  0  0  2  0  0  0  0  0  0
  183.6230  174.8730  138.2730 C   0  0  0  0  0  2  0  0  0  0  0  0
  180.4470  179.7660  141.0520 S   0  0  0  0  0  0  0  0  0  0  0  0
  186.1620  177.8260  142.6830 C   0  0  0  0  0  2  0  0  0  0  0  0
  183.4400  177.7340  137.0170 O   0  0  0  0  0  1  0  0  0  0  0  0
  182.3480  177.7970  137.8810 C   0  0  1  0  0  3  0  0  0  0  0  0
  181.0830  177.3490  137.1630 C   0  0  0  0  0  1  0  0  0  0  0  0
  179.7800  177.7150  144.0090 N   0  0  0  0  0  1  0  0  0  0  0  0
  179.5250  179.0830  143.5820 C   0  0  0  0  0  2  0  0  0  0  0  0
  1  4  1  0  0  0  0
  1 19  1  0  0  0  0
  2 15  1  6  0  0  0
  2 25  1  0  0  0  0
  3 24  2  0  0  0  0
  3  6  1  0  0  0  0
  6 12  2  0  0  0  0
  7 30  1  6  0  0  0
  7 20  1  0  0  0  0
  9 14  2  0  0  0  0
 10 26  1  0  0  0  0
 11  8  1  0  0  0  0
 11 28  1  1  0  0  0
 12 14  1  0  0  0  0
 12 11  1  0  0  0  0
 13 10  1  0  0  0  0
 14  8  1  0  0  0  0
 15 17  1  0  0  0  0
 16  6  1  0  0  0  0
 18 25  1  0  0  0  0
 18 33  1  1  0  0  0
 19  5  1  6  0  0  0
 19  3  1  0  0  0  0
 21 20  1  1  0  0  0
 21 27  1  0  0  0  0
 21  2  1  0  0  0  0
 22  7  1  0  0  0  0
 23 13  1  0  0  0  0
 23  4  1  0  0  0  0
 24  9  1  0  0  0  0
 26 22  1  0  0  0  0
 27 18  1  0  0  0  0
 28 17  1  0  0  0  0
 29 30  1  0  0  0  0
 30 31  1  6  0  0  0
 33 32  1  0  0  0  0
M  END
>  <MODEL>
1

>  <REMARK>
 VINA RESULT:      -7.2      0.000      0.000
  Name = 
  2 active torsions:
  status: ('A' for Active; 'I' for Inactive)
    1  A    between atoms: C_8  and  C_23
    2  A    between atoms: C_20  and  C_26
                            x       y       z     vdW  Elec       q    Type
                         _______ _______ _______ _____ _____    ______ ____

>  <TORSDO>
F 2

$$$$
=
 OpenBabel11062412323D

 33 36  0  0  1  0  0  0  0  0999 V2000
  188.7290  175.7260  136.4650 O   0  0  0  0  0  0  0  0  0  0  0  0
  183.1800  178.9960  140.4530 C   0  0  1  0  0  3  0  0  0  0  0  0
  188.5150  177.2590  138.2910 C   0  0  0  0  0  0  0  0  0  0  0  0
  187.6940  174.8310  136.7620 C   0  0  0  0  0  2  0  0  0  0  0  0
  188.9260  178.0530  135.9890 C   0  0  0  0  0  1  0  0  0  0  0  0
  187.5350  177.9390  139.0650 C   0  0  0  0  0  0  0  0  0  0  0  0
  183.5710  176.6300  137.9800 C   0  0  1  0  0  3  0  0  0  0  0  0
  188.7380  178.1310  142.6170 S   0  0  0  0  0  0  0  0  0  0  0  0
  189.9890  176.9980  140.1740 N   0  0  0  0  0  0  0  0  0  0  0  0
  184.6960  173.9590  136.1700 C   0  0  0  0  0  2  0  0  0  0  0  0
  187.3630  178.6370  141.6990 C   0  0  1  0  0  3  0  0  0  0  0  0
  187.8400  178.0990  140.3970 C   0  0  0  0  0  0  0  0  0  0  0  0
  186.0010  173.2700  135.8020 C   0  0  0  0  0  2  0  0  0  0  0  0
  189.0600  177.6220  140.9160 C   0  0  0  0  0  0  0  0  0  0  0  0
  184.3080  178.0770  140.9000 C   0  0  0  0  0  2  0  0  0  0  0  0
  186.3460  178.4100  138.5210 O   0  0  0  0  0  1  0  0  0  0  0  0
  184.9920  178.6670  141.9640 O   0  0  0  0  0  0  0  0  0  0  0  0
  180.8800  179.7010  140.7210 C   0  0  1  0  0  3  0  0  0  0  0  0
  188.2550  176.9900  136.8380 C   0  0  1  0  0  3  0  0  0  0  0  0
  182.4210  177.2360  138.7730 C   0  0  0  0  0  2  0  0  0  0  0  0
  182.6580  178.7200  139.0480 C   0  0  1  0  0  3  0  0  0  0  0  0
  183.4070  175.1100  137.9590 C   0  0  0  0  0  2  0  0  0  0  0  0
  187.0960  174.2780  135.4820 C   0  0  0  0  0  2  0  0  0  0  0  0
  189.7000  176.8280  138.8700 N   0  0  0  0  0  0  0  0  0  0  0  0
  182.0050  178.9410  141.3980 C   0  0  0  0  0  2  0  0  0  0  0  0
  184.7090  174.4060  137.6220 C   0  0  0  0  0  2  0  0  0  0  0  0
  181.0650  179.5840  138.9070 S   0  0  0  0  0  0  0  0  0  0  0  0
  186.1260  177.8780  142.1550 C   0  0  0  0  0  2  0  0  0  0  0  0
  184.9370  177.1280  136.0500 O   0  0  0  0  0  1  0  0  0  0  0  0
  183.6530  177.2560  136.5780 C   0  0  1  0  0  3  0  0  0  0  0  0
  182.6270  176.6900  135.6080 C   0  0  0  0  0  1  0  0  0  0  0  0
  179.5620  177.7990  141.5480 N   0  0  0  0  0  1  0  0  0  0  0  0
  179.5140  179.2060  141.1810 C   0  0  0  0  0  2  0  0  0  0  0  0
  1  4  1  0  0  0  0
  1 19  1  0  0  0  0
  2 15  1  1  0  0  0
  2 25  1  0  0  0  0
  3 24  2  0  0  0  0
  3  6  1  0  0  0  0
  6 12  2  0  0  0  0
  7 30  1  6  0  0  0
  7 20  1  0  0  0  0
  9 14  2  0  0  0  0
 10 26  1  0  0  0  0
 11 28  1  1  0  0  0
 11  8  1  0  0  0  0
 12 14  1  0  0  0  0
 12 11  1  0  0  0  0
 13 10  1  0  0  0  0
 14  8  1  0  0  0  0
 15 17  1  0  0  0  0
 16  6  1  0  0  0  0
 17 28  1  0  0  0  0
 18 33  1  6  0  0  0
 18 25  1  0  0  0  0
 19  5  1  6  0  0  0
 19  3  1  0  0  0  0
 21 20  1  1  0  0  0
 21  2  1  0  0  0  0
 22  7  1  0  0  0  0
 23 13  1  0  0  0  0
 23  4  1  0  0  0  0
 24  9  1  0  0  0  0
 26 22  1  0  0  0  0
 27 21  1  0  0  0  0
 27 18  1  0  0  0  0
 29 30  1  0  0  0  0
 30 31  1  6  0  0  0
 33 32  1  0  0  0  0
M  END
>  <MODEL>
2

>  <REMARK>
 VINA RESULT:      -6.3      1.397      1.561
  Name = 
  2 active torsions:
  status: ('A' for Active; 'I' for Inactive)
    1  A    between atoms: C_8  and  C_23
    2  A    between atoms: C_20  and  C_26
                            x       y       z     vdW  Elec       q    Type
                         _______ _______ _______ _____ _____    ______ ____

>  <TORSDO>
F 2

$$$$
=
 OpenBabel11062412323D

 33 36  0  0  1  0  0  0  0  0999 V2000
  178.9310  175.4160  138.3370 O   0  0  0  0  0  0  0  0  0  0  0  0
  186.2810  176.3540  136.7650 C   0  0  1  0  0  3  0  0  0  0  0  0
  180.6340  174.3120  137.0690 C   0  0  0  0  0  0  0  0  0  0  0  0
  179.6650  175.8090  139.4620 C   0  0  0  0  0  2  0  0  0  0  0  0
  179.0040  175.8220  135.9900 C   0  0  0  0  0  1  0  0  0  0  0  0
  182.0020  174.4340  136.6990 C   0  0  0  0  0  0  0  0  0  0  0  0
  183.8350  177.7610  138.7410 C   0  0  1  0  0  3  0  0  0  0  0  0
  183.5190  171.0010  136.5830 S   0  0  0  0  0  0  0  0  0  0  0  0
  180.7560  171.9120  137.1750 N   0  0  0  0  0  0  0  0  0  0  0  0
  181.2290  178.1630  140.9150 C   0  0  0  0  0  2  0  0  0  0  0  0
  184.0170  172.6340  136.3080 C   0  0  1  0  0  3  0  0  0  0  0  0
  182.6950  173.2500  136.6010 C   0  0  0  0  0  0  0  0  0  0  0  0
  179.8930  177.5230  141.2600 C   0  0  0  0  0  2  0  0  0  0  0  0
  182.0530  172.0200  136.8440 C   0  0  0  0  0  0  0  0  0  0  0  0
  185.5570  175.2050  137.4510 C   0  0  0  0  0  2  0  0  0  0  0  0
  182.6040  175.6620  136.4520 O   0  0  0  0  0  1  0  0  0  0  0  0
  185.9000  174.0040  136.8280 O   0  0  0  0  0  0  0  0  0  0  0  0
  188.2690  177.7280  136.6140 C   0  0  1  0  0  3  0  0  0  0  0  0
  179.8030  175.5480  137.2490 C   0  0  1  0  0  3  0  0  0  0  0  0
  185.3200  177.9750  138.4820 C   0  0  0  0  0  2  0  0  0  0  0  0
  185.6690  177.7270  137.0150 C   0  0  1  0  0  3  0  0  0  0  0  0
  183.5930  177.7660  140.2510 C   0  0  0  0  0  2  0  0  0  0  0  0
  179.1260  177.1170  140.0100 C   0  0  0  0  0  2  0  0  0  0  0  0
  180.0670  173.0630  137.2800 N   0  0  0  0  0  0  0  0  0  0  0  0
  187.7340  176.4200  137.1680 C   0  0  0  0  0  2  0  0  0  0  0  0
  182.2770  177.1040  140.6160 C   0  0  0  0  0  2  0  0  0  0  0  0
  186.9160  178.9520  136.5150 S   0  0  0  0  0  0  0  0  0  0  0  0
  185.0320  173.0510  137.3610 C   0  0  0  0  0  2  0  0  0  0  0  0
  181.7210  178.3090  137.7090 O   0  0  0  0  0  1  0  0  0  0  0  0
  182.9960  178.8020  137.9820 C   0  0  1  0  0  3  0  0  0  0  0  0
  182.8990  180.1370  138.7070 C   0  0  0  0  0  1  0  0  0  0  0  0
  188.9740  179.0000  138.5950 N   0  0  0  0  0  1  0  0  0  0  0  0
  189.4400  178.2480  137.4400 C   0  0  0  0  0  2  0  0  0  0  0  0
  1  4  1  0  0  0  0
  2 21  1  0  0  0  0
  2 25  1  1  0  0  0
  2 15  1  0  0  0  0
  3 19  1  0  0  0  0
  3 24  1  0  0  0  0
  4 23  1  0  0  0  0
  6  3  2  0  0  0  0
  7 30  1  6  0  0  0
  7 22  1  0  0  0  0
  8 14  1  0  0  0  0
  9 24  2  0  0  0  0
 10 13  1  0  0  0  0
 11  8  1  0  0  0  0
 11 12  1  0  0  0  0
 11 28  1  1  0  0  0
 12  6  1  0  0  0  0
 12 14  2  0  0  0  0
 14  9  1  0  0  0  0
 16  6  1  0  0  0  0
 17 28  1  0  0  0  0
 17 15  1  0  0  0  0
 18 25  1  0  0  0  0
 18 33  1  1  0  0  0
 19  5  1  6  0  0  0
 19  1  1  0  0  0  0
 20  7  1  0  0  0  0
 21 20  1  1  0  0  0
 22 26  1  0  0  0  0
 23 13  1  0  0  0  0
 26 10  1  0  0  0  0
 27 18  1  0  0  0  0
 27 21  1  0  0  0  0
 29 30  1  0  0  0  0
 30 31  1  1  0  0  0
 33 32  1  0  0  0  0
M  END
>  <MODEL>
3

>  <REMARK>
 VINA RESULT:      -5.3      3.598      7.506
  Name = 
  2 active torsions:
  status: ('A' for Active; 'I' for Inactive)
    1  A    between atoms: C_8  and  C_23
    2  A    between atoms: C_20  and  C_26
                            x       y       z     vdW  Elec       q    Type
                         _______ _______ _______ _____ _____    ______ ____

>  <TORSDO>
F 2

$$$$
=
 OpenBabel11062412323D

 33 36  0  0  1  0  0  0  0  0999 V2000
  187.3570  174.3770  135.7660 O   0  0  0  0  0  0  0  0  0  0  0  0
  183.0330  179.6330  139.0930 C   0  0  1  0  0  3  0  0  0  0  0  0
  187.6560  176.3710  137.0570 C   0  0  0  0  0  0  0  0  0  0  0  0
  186.2510  173.8170  136.4160 C   0  0  0  0  0  2  0  0  0  0  0  0
  187.8400  176.3950  134.5940 C   0  0  0  0  0  1  0  0  0  0  0  0
  186.9180  177.4150  137.6790 C   0  0  0  0  0  0  0  0  0  0  0  0
  182.6830  176.6400  137.4230 C   0  0  1  0  0  3  0  0  0  0  0  0
  188.6470  178.3590  140.8760 S   0  0  0  0  0  0  0  0  0  0  0  0
  189.3330  176.3700  138.7800 N   0  0  0  0  0  0  0  0  0  0  0  0
  183.1000  173.4050  136.4050 C   0  0  0  0  0  2  0  0  0  0  0  0
  187.2470  178.8420  139.9830 C   0  0  1  0  0  3  0  0  0  0  0  0
  187.4370  177.8800  138.8650 C   0  0  0  0  0  0  0  0  0  0  0  0
  184.2140  172.4040  136.1380 C   0  0  0  0  0  2  0  0  0  0  0  0
  188.6310  177.3430  139.3850 C   0  0  0  0  0  0  0  0  0  0  0  0
  184.0580  178.6770  139.6860 C   0  0  0  0  0  2  0  0  0  0  0  0
  185.7490  177.9340  137.1340 O   0  0  0  0  0  1  0  0  0  0  0  0
  184.9750  179.3990  140.4520 O   0  0  0  0  0  0  0  0  0  0  0  0
  180.9350  180.8110  139.3540 C   0  0  1  0  0  3  0  0  0  0  0  0
  187.1450  175.7620  135.7840 C   0  0  1  0  0  3  0  0  0  0  0  0
  181.7700  177.6520  138.1020 C   0  0  0  0  0  2  0  0  0  0  0  0
  182.2720  179.0800  137.8940 C   0  0  1  0  0  3  0  0  0  0  0  0
  182.2840  175.2360  137.8780 C   0  0  0  0  0  2  0  0  0  0  0  0
  185.3920  173.0520  135.4260 C   0  0  0  0  0  2  0  0  0  0  0  0
  188.8320  175.9010  137.6230 N   0  0  0  0  0  0  0  0  0  0  0  0
  182.0160  180.0700  140.1180 C   0  0  0  0  0  2  0  0  0  0  0  0
  183.3970  174.2290  137.6460 C   0  0  0  0  0  2  0  0  0  0  0  0
  180.8290  180.1590  137.6510 S   0  0  0  0  0  0  0  0  0  0  0  0
  185.9890  178.4930  140.7630 C   0  0  0  0  0  2  0  0  0  0  0  0
  183.8400  176.3720  135.3190 O   0  0  0  0  0  1  0  0  0  0  0  0
  182.6530  176.8210  135.8970 C   0  0  1  0  0  3  0  0  0  0  0  0
  181.4600  176.1460  135.2360 C   0  0  0  0  0  1  0  0  0  0  0  0
  179.6860  181.2720  141.4200 N   0  0  0  0  0  1  0  0  0  0  0  0
  179.5920  180.7360  140.0710 C   0  0  0  0  0  2  0  0  0  0  0  0
  1 19  1  0  0  0  0
  1  4  1  0  0  0  0
  2 15  1  1  0  0  0
  2 25  1  0  0  0  0
  3 24  2  0  0  0  0
  3  6  1  0  0  0  0
  6 12  2  0  0  0  0
  7 30  1  6  0  0  0
  7 22  1  0  0  0  0
  7 20  1  0  0  0  0
  9 14  2  0  0  0  0
 10 26  1  0  0  0  0
 11 28  1  1  0  0  0
 11  8  1  0  0  0  0
 12 14  1  0  0  0  0
 12 11  1  0  0  0  0
 13 10  1  0  0  0  0
 14  8  1  0  0  0  0
 15 17  1  0  0  0  0
 16  6  1  0  0  0  0
 17 28  1  0  0  0  0
 18 33  1  1  0  0  0
 18 25  1  0  0  0  0
 19  5  1  6  0  0  0
 19  3  1  0  0  0  0
 21 20  1  1  0  0  0
 21  2  1  0  0  0  0
 23 13  1  0  0  0  0
 23  4  1  0  0  0  0
 24  9  1  0  0  0  0
 26 22  1  0  0  0  0
 27 21  1  0  0  0  0
 27 18  1  0  0  0  0
 29 30  1  0  0  0  0
 30 31  1  6  0  0  0
 33 32  1  0  0  0  0
M  END
>  <MODEL>
4

>  <REMARK>
 VINA RESULT:      -4.8      2.038      2.371
  Name = 
  2 active torsions:
  status: ('A' for Active; 'I' for Inactive)
    1  A    between atoms: C_8  and  C_23
    2  A    between atoms: C_20  and  C_26
                            x       y       z     vdW  Elec       q    Type
                         _______ _______ _______ _____ _____    ______ ____

>  <TORSDO>
F 2

$$$$
=
 OpenBabel11062412323D

 33 36  0  0  1  0  0  0  0  0999 V2000
  189.7700  176.9660  138.7450 O   0  0  0  0  0  0  0  0  0  0  0  0
  182.2780  178.0800  138.6120 C   0  0  1  0  0  3  0  0  0  0  0  0
  188.1350  178.2190  139.9660 C   0  0  0  0  0  0  0  0  0  0  0  0
  189.0630  175.7800  138.5180 C   0  0  0  0  0  2  0  0  0  0  0  0
  189.5060  179.2720  138.2020 C   0  0  0  0  0  1  0  0  0  0  0  0
  186.7430  178.5070  139.9880 C   0  0  0  0  0  0  0  0  0  0  0  0
  184.6560  176.1400  137.0470 C   0  0  1  0  0  3  0  0  0  0  0  0
  185.6370  178.7860  143.5660 S   0  0  0  0  0  0  0  0  0  0  0  0
  188.3040  178.2770  142.3640 N   0  0  0  0  0  0  0  0  0  0  0  0
  187.3230  174.0830  136.4700 C   0  0  0  0  0  2  0  0  0  0  0  0
  184.9340  178.9180  141.9920 C   0  0  1  0  0  3  0  0  0  0  0  0
  186.1890  178.6520  141.2390 C   0  0  0  0  0  0  0  0  0  0  0  0
  188.7440  173.8550  136.9630 C   0  0  0  0  0  2  0  0  0  0  0  0
  186.9850  178.5300  142.3940 C   0  0  0  0  0  0  0  0  0  0  0  0
  183.1730  177.5170  139.7060 C   0  0  0  0  0  2  0  0  0  0  0  0
  185.9860  178.6340  138.8290 O   0  0  0  0  0  1  0  0  0  0  0  0
  182.9370  178.2050  140.8970 O   0  0  0  0  0  0  0  0  0  0  0  0
  180.1370  178.0290  137.4840 C   0  0  1  0  0  3  0  0  0  0  0  0
  188.8230  177.9950  138.6510 C   0  0  1  0  0  3  0  0  0  0  0  0
  183.1430  176.3060  137.0000 C   0  0  0  0  0  2  0  0  0  0  0  0
  182.7370  177.7660  137.1930 C   0  0  1  0  0  3  0  0  0  0  0  0
  184.9860  174.6490  137.1090 C   0  0  0  0  0  2  0  0  0  0  0  0
  189.4760  175.1690  137.1910 C   0  0  0  0  0  2  0  0  0  0  0  0
  188.8580  178.1270  141.1460 N   0  0  0  0  0  0  0  0  0  0  0  0
  180.8540  177.5990  138.7500 C   0  0  0  0  0  2  0  0  0  0  0  0
  186.3920  174.4020  137.6280 C   0  0  0  0  0  2  0  0  0  0  0  0
  181.3260  178.1120  136.1010 S   0  0  0  0  0  0  0  0  0  0  0  0
  183.9420  177.7870  141.7690 C   0  0  0  0  0  2  0  0  0  0  0  0
  186.5670  177.3700  136.2270 O   0  0  0  0  0  1  0  0  0  0  0  0
  185.3190  176.8660  135.8650 C   0  0  1  0  0  3  0  0  0  0  0  0
  185.4430  175.9970  134.6220 C   0  0  0  0  0  1  0  0  0  0  0  0
  179.4150  175.8980  136.4940 N   0  0  0  0  0  1  0  0  0  0  0  0
  178.9650  177.1080  137.1650 C   0  0  0  0  0  2  0  0  0  0  0  0
  2 25  1  1  0  0  0
  2 15  1  0  0  0  0
  3  6  2  0  0  0  0
  3 24  1  0  0  0  0
  4  1  1  0  0  0  0
  6 12  1  0  0  0  0
  7 30  1  6  0  0  0
  7 22  1  0  0  0  0
  9 14  1  0  0  0  0
 10 13  1  0  0  0  0
 10 26  1  0  0  0  0
 11 28  1  1  0  0  0
 11  8  1  0  0  0  0
 12 11  1  0  0  0  0
 12 14  2  0  0  0  0
 13 23  1  0  0  0  0
 14  8  1  0  0  0  0
 15 17  1  0  0  0  0
 16  6  1  0  0  0  0
 17 28  1  0  0  0  0
 18 33  1  6  0  0  0
 18 25  1  0  0  0  0
 19  5  1  1  0  0  0
 19  1  1  0  0  0  0
 19  3  1  0  0  0  0
 20  7  1  0  0  0  0
 21 20  1  1  0  0  0
 21  2  1  0  0  0  0
 22 26  1  0  0  0  0
 23  4  1  0  0  0  0
 24  9  2  0  0  0  0
 27 21  1  0  0  0  0
 27 18  1  0  0  0  0
 30 31  1  6  0  0  0
 30 29  1  0  0  0  0
 32 33  1  0  0  0  0
M  END
>  <MODEL>
5

>  <REMARK>
 VINA RESULT:      -4.5      2.609      3.779
  Name = 
  2 active torsions:
  status: ('A' for Active; 'I' for Inactive)
    1  A    between atoms: C_8  and  C_23
    2  A    between atoms: C_20  and  C_26
                            x       y       z     vdW  Elec       q    Type
                         _______ _______ _______ _____ _____    ______ ____

>  <TORSDO>
F 2

$$$$
=
 OpenBabel11062412323D

 33 36  0  0  1  0  0  0  0  0999 V2000
  181.1670  177.9470  136.9320 O   0  0  0  0  0  0  0  0  0  0  0  0
  187.8690  174.4590  136.3810 C   0  0  1  0  0  3  0  0  0  0  0  0
  182.0140  175.8180  136.2370 C   0  0  0  0  0  0  0  0  0  0  0  0
  181.9840  178.1960  138.0400 C   0  0  0  0  0  2  0  0  0  0  0  0
  181.4750  177.5840  134.5960 C   0  0  0  0  0  1  0  0  0  0  0  0
  183.2330  175.1060  136.0720 C   0  0  0  0  0  0  0  0  0  0  0  0
  186.5540  177.4140  137.5690 C   0  0  1  0  0  3  0  0  0  0  0  0
  182.6480  171.5100  136.9850 S   0  0  0  0  0  0  0  0  0  0  0  0
  180.8140  173.8440  136.9040 N   0  0  0  0  0  0  0  0  0  0  0  0
  184.5590  179.6940  139.1490 C   0  0  0  0  0  2  0  0  0  0  0  0
  183.9550  172.4970  136.4280 C   0  0  1  0  0  3  0  0  0  0  0  0
  183.1750  173.7610  136.3590 C   0  0  0  0  0  0  0  0  0  0  0  0
  183.0850  179.9640  139.4140 C   0  0  0  0  0  2  0  0  0  0  0  0
  181.9660  173.1670  136.7700 C   0  0  0  0  0  0  0  0  0  0  0  0
  186.6300  174.0960  137.1860 C   0  0  0  0  0  2  0  0  0  0  0  0
  184.4070  175.7180  135.6510 O   0  0  0  0  0  1  0  0  0  0  0  0
  186.2740  172.7730  136.9160 O   0  0  0  0  0  0  0  0  0  0  0  0
  190.2850  174.4990  136.2410 C   0  0  1  0  0  3  0  0  0  0  0  0
  181.9840  177.2990  135.9960 C   0  0  1  0  0  3  0  0  0  0  0  0
  187.9210  176.7460  137.5080 C   0  0  0  0  0  2  0  0  0  0  0  0
  188.0970  175.9570  136.2110 C   0  0  1  0  0  3  0  0  0  0  0  0
  186.3370  177.9630  138.9790 C   0  0  0  0  0  2  0  0  0  0  0  0
  182.2350  179.6860  138.1830 C   0  0  0  0  0  2  0  0  0  0  0  0
  180.8580  175.1610  136.6330 N   0  0  0  0  0  0  0  0  0  0  0  0
  189.1210  173.8720  136.9850 C   0  0  0  0  0  2  0  0  0  0  0  0
  184.8680  178.2110  139.2700 C   0  0  0  0  0  2  0  0  0  0  0  0
  189.8140  176.1620  135.6510 S   0  0  0  0  0  0  0  0  0  0  0  0
  185.0230  172.6000  137.5060 C   0  0  0  0  0  2  0  0  0  0  0  0
  187.3820  179.4790  136.6270 O   0  0  0  0  0  1  0  0  0  0  0  0
  186.4220  178.4800  136.4690 C   0  0  1  0  0  3  0  0  0  0  0  0
  186.4920  177.9020  135.0630 C   0  0  0  0  0  1  0  0  0  0  0  0
  191.2990  175.2510  138.3490 N   0  0  0  0  0  1  0  0  0  0  0  0
  191.5420  174.5420  137.1030 C   0  0  0  0  0  2  0  0  0  0  0  0
  1  4  1  0  0  0  0
  2 25  1  1  0  0  0
  2 15  1  0  0  0  0
  3 24  1  0  0  0  0
  4 23  1  0  0  0  0
  6  3  2  0  0  0  0
  6 12  1  0  0  0  0
  7 30  1  6  0  0  0
  7 22  1  0  0  0  0
 10 26  1  0  0  0  0
 10 13  1  0  0  0  0
 11  8  1  0  0  0  0
 11 28  1  1  0  0  0
 12 11  1  0  0  0  0
 12 14  2  0  0  0  0
 14  9  1  0  0  0  0
 14  8  1  0  0  0  0
 16  6  1  0  0  0  0
 17 15  1  0  0  0  0
 17 28  1  0  0  0  0
 18 25  1  0  0  0  0
 18 33  1  1  0  0  0
 19  5  1  6  0  0  0
 19  3  1  0  0  0  0
 19  1  1  0  0  0  0
 20  7  1  0  0  0  0
 21  2  1  0  0  0  0
 21 20  1  1  0  0  0
 22 26  1  0  0  0  0
 23 13  1  0  0  0  0
 24  9  2  0  0  0  0
 27 21  1  0  0  0  0
 27 18  1  0  0  0  0
 30 31  1  6  0  0  0
 30 29  1  0  0  0  0
 33 32  1  0  0  0  0
M  END
>  <MODEL>
6

>  <REMARK>
 VINA RESULT:      -4.4      3.696      7.989
  Name = 
  2 active torsions:
  status: ('A' for Active; 'I' for Inactive)
    1  A    between atoms: C_8  and  C_23
    2  A    between atoms: C_20  and  C_26
                            x       y       z     vdW  Elec       q    Type
                         _______ _______ _______ _____ _____    ______ ____

>  <TORSDO>
F 2

$$$$
=
 OpenBabel11062412323D

 33 36  0  0  1  0  0  0  0  0999 V2000
  186.3290  177.6660  135.5080 O   0  0  0  0  0  0  0  0  0  0  0  0
  186.4630  178.6200  143.0210 C   0  0  1  0  0  3  0  0  0  0  0  0
  187.9590  177.9780  137.2330 C   0  0  0  0  0  0  0  0  0  0  0  0
  185.4220  176.8250  136.1630 C   0  0  0  0  0  2  0  0  0  0  0  0
  187.2000  179.8610  135.8270 C   0  0  0  0  0  1  0  0  0  0  0  0
  188.0690  178.1940  138.6340 C   0  0  0  0  0  0  0  0  0  0  0  0
  184.1960  177.9500  140.5160 C   0  0  1  0  0  3  0  0  0  0  0  0
  191.0890  176.3530  139.8940 S   0  0  0  0  0  0  0  0  0  0  0  0
  189.9570  176.6420  137.1650 N   0  0  0  0  0  0  0  0  0  0  0  0
  182.6820  176.6140  137.7590 C   0  0  0  0  0  2  0  0  0  0  0  0
  189.8440  177.3660  140.5360 C   0  0  1  0  0  3  0  0  0  0  0  0
  189.1430  177.5880  139.2430 C   0  0  0  0  0  0  0  0  0  0  0  0
  183.0280  176.1490  136.3520 C   0  0  0  0  0  2  0  0  0  0  0  0
  190.0580  176.8250  138.4910 C   0  0  0  0  0  0  0  0  0  0  0  0
  187.0790  177.5330  142.1530 C   0  0  0  0  0  2  0  0  0  0  0  0
  187.1570  178.9630  139.3470 O   0  0  0  0  0  1  0  0  0  0  0  0
  188.4340  177.4060  142.4610 O   0  0  0  0  0  0  0  0  0  0  0  0
  185.4000  179.2200  145.1110 C   0  0  1  0  0  3  0  0  0  0  0  0
  186.7950  178.5560  136.4840 C   0  0  1  0  0  3  0  0  0  0  0  0
  184.1720  178.1050  142.0300 C   0  0  0  0  0  2  0  0  0  0  0  0
  185.1490  179.1840  142.4940 C   0  0  1  0  0  3  0  0  0  0  0  0
  183.4040  176.6970  140.1370 C   0  0  0  0  0  2  0  0  0  0  0  0
  184.0110  177.0940  135.6750 C   0  0  0  0  0  2  0  0  0  0  0  0
  188.9080  177.2240  136.5570 N   0  0  0  0  0  0  0  0  0  0  0  0
  186.2220  178.1410  144.4320 C   0  0  0  0  0  2  0  0  0  0  0  0
  183.7600  176.2020  138.7470 C   0  0  0  0  0  2  0  0  0  0  0  0
  184.3820  180.0910  143.8690 S   0  0  0  0  0  0  0  0  0  0  0  0
  188.9580  176.5650  141.4790 C   0  0  0  0  0  2  0  0  0  0  0  0
  184.2470  179.3700  138.5630 O   0  0  0  0  0  1  0  0  0  0  0  0
  183.6850  179.2270  139.8310 C   0  0  1  0  0  3  0  0  0  0  0  0
  182.1670  179.2950  139.7430 C   0  0  0  0  0  1  0  0  0  0  0  0
  185.2860  178.6120  147.4900 N   0  0  0  0  0  1  0  0  0  0  0  0
  184.5470  178.6470  146.2370 C   0  0  0  0  0  2  0  0  0  0  0  0
  1  4  1  0  0  0  0
  1 19  1  0  0  0  0
  2 15  1  6  0  0  0
  2 25  1  0  0  0  0
  3  6  1  0  0  0  0
  6 12  2  0  0  0  0
  6 16  1  0  0  0  0
  7 30  1  6  0  0  0
  7 20  1  0  0  0  0
  8 11  1  0  0  0  0
  9 14  2  0  0  0  0
 10 26  1  0  0  0  0
 11 28  1  1  0  0  0
 12 11  1  0  0  0  0
 13 10  1  0  0  0  0
 14 12  1  0  0  0  0
 14  8  1  0  0  0  0
 15 17  1  0  0  0  0
 18 33  1  1  0  0  0
 19  5  1  6  0  0  0
 19  3  1  0  0  0  0
 21 20  1  1  0  0  0
 21  2  1  0  0  0  0
 21 27  1  0  0  0  0
 22  7  1  0  0  0  0
 23  4  1  0  0  0  0
 23 13  1  0  0  0  0
 24  9  1  0  0  0  0
 24  3  2  0  0  0  0
 25 18  1  0  0  0  0
 26 22  1  0  0  0  0
 27 18  1  0  0  0  0
 28 17  1  0  0  0  0
 29 30  1  0  0  0  0
 30 31  1  6  0  0  0
 33 32  1  0  0  0  0
M  END
>  <MODEL>
7

>  <REMARK>
 VINA RESULT:      -4.2      2.473      3.186
  Name = 
  2 active torsions:
  status: ('A' for Active; 'I' for Inactive)
    1  A    between atoms: C_8  and  C_23
    2  A    between atoms: C_20  and  C_26
                            x       y       z     vdW  Elec       q    Type
                         _______ _______ _______ _____ _____    ______ ____

>  <TORSDO>
F 2

$$$$
