=
 OpenBabel11062414513D

 33 36  0  0  1  0  0  0  0  0999 V2000
  184.0950  180.0680  139.0020 C   0  0  0  0  0  2  0  0  0  0  0  0
  185.6480  178.4350  143.9510 C   0  0  0  0  0  0  0  0  0  0  0  0
  184.0230  178.7470  139.7460 C   0  0  2  0  0  3  0  0  0  0  0  0
  187.4040  178.2970  145.6110 N   0  0  0  0  0  0  0  0  0  0  0  0
  186.0450  177.8930  145.2840 C   0  0  0  0  0  2  0  0  0  0  0  0
  182.5570  178.3250  139.7630 C   0  0  1  0  0  3  0  0  0  0  0  0
  183.2260  178.8130  143.3850 C   0  0  0  0  0  2  0  0  0  0  0  0
  182.1440  178.1920  141.2200 C   0  0  0  0  0  2  0  0  0  0  0  0
  188.3820  176.9990  143.7850 C   0  0  0  0  0  0  0  0  0  0  0  0
  184.5140  179.4170  143.9520 C   0  0  0  0  0  2  0  0  0  0  0  0
  187.4200  177.0950  142.8470 C   0  0  0  0  0  3  0  0  0  0  0  0
  183.4280  178.1650  142.0160 C   0  0  1  0  0  3  0  0  0  0  0  0
  189.7390  178.2870  145.4410 N   0  0  0  0  0  1  0  0  0  0  0  0
  188.4550  177.8990  144.9610 C   0  0  0  0  0  0  0  0  0  0  0  0
  182.6890  180.6330  138.9970 C   0  0  0  0  0  2  0  0  0  0  0  0
  185.8700  178.4510  141.4160 C   0  0  0  0  0  2  0  0  0  0  0  0
  186.2670  178.0220  142.8190 C   0  0  0  0  0  0  0  0  0  0  0  0
  181.7570  179.4400  139.1010 C   0  0  1  0  0  3  0  0  0  0  0  0
  184.4350  178.9370  141.1930 C   0  0  1  0  0  3  0  0  0  0  0  0
  180.0830  179.5880  137.2320 C   0  0  0  0  0  0  0  0  0  0  0  0
  181.2960  179.0470  137.7670 N   0  0  0  0  0  0  0  0  0  0  0  0
  179.6480  179.2020  135.9700 O   0  0  0  0  0  0  0  0  0  0  0  0
  179.4000  180.4130  137.8960 O   0  0  0  0  0  1  0  0  0  0  0  0
  182.0330  178.2020  137.0050 O   0  0  0  0  0  1  0  0  0  0  0  0
  189.4200  176.0680  143.6280 O   0  0  0  0  0  0  0  0  0  0  0  0
  190.2410  175.9830  142.4670 C   0  0  0  0  0  2  0  0  0  0  0  0
  190.8920  177.3260  142.1820 C   0  0  0  0  0  2  0  0  0  0  0  0
  191.2690  177.4190  140.7070 C   0  0  0  0  0  2  0  0  0  0  0  0
  190.7350  175.7960  138.9370 N   0  0  0  0  0  1  0  0  0  0  0  0
  190.1920  176.8580  139.7720 C   0  0  2  0  0  3  0  0  0  0  0  0
  188.8480  178.8120  139.4970 O   0  0  0  0  0  1  0  0  0  0  0  0
  189.5410  177.9200  138.9400 C   0  0  0  0  0  0  0  0  0  0  0  0
  189.7240  177.9510  137.5620 O   0  0  0  0  0  0  0  0  0  0  0  0
  2 10  1  0  0  0  0
  2  5  1  0  0  0  0
  3  1  1  6  0  0  0
  3  6  1  0  0  0  0
  3 19  1  0  0  0  0
  5  4  1  0  0  0  0
  6  8  1  1  0  0  0
  7 10  1  0  0  0  0
  9 14  1  0  0  0  0
 11  9  2  0  0  0  0
 12  8  1  6  0  0  0
 12  7  1  0  0  0  0
 14 13  1  0  0  0  0
 14  4  2  0  0  0  0
 15  1  1  0  0  0  0
 15 18  1  0  0  0  0
 16 17  1  0  0  0  0
 17 11  1  0  0  0  0
 17  2  2  0  0  0  0
 18 21  1  6  0  0  0
 18  6  1  0  0  0  0
 19 16  1  6  0  0  0
 19 12  1  0  0  0  0
 20 21  1  0  0  0  0
 20 23  1  0  0  0  0
 22 20  2  0  0  0  0
 24 21  1  0  0  0  0
 25  9  1  0  0  0  0
 26 25  1  0  0  0  0
 27 26  1  0  0  0  0
 28 27  1  0  0  0  0
 30 29  1  6  0  0  0
 30 28  1  0  0  0  0
 32 31  1  0  0  0  0
 32 30  1  0  0  0  0
 33 32  2  0  0  0  0
M  END
>  <MODEL>
1

>  <REMARK>
 VINA RESULT:      -7.7      0.000      0.000
  Name = 
  7 active torsions:
  status: ('A' for Active; 'I' for Inactive)
    1  A    between atoms: C_5  and  C_6
    2  A    between atoms: C_5  and  C_13
    3  A    between atoms: C_6  and  CA_24
    4  A    between atoms: N_9  and  C_32
    5  A    between atoms: C_13  and  O_22
    6  A    between atoms: C_18  and  O_22
    7  A    between atoms: CA_24  and  C_29
                            x       y       z     vdW  Elec       q    Type
                         _______ _______ _______ _____ _____    ______ ____

>  <TORSDO>
F 7

$$$$
=
 OpenBabel11062414513D

 33 36  0  0  1  0  0  0  0  0999 V2000
  184.6840  179.6250  139.5080 C   0  0  0  0  0  2  0  0  0  0  0  0
  184.3460  178.7680  144.8670 C   0  0  0  0  0  0  0  0  0  0  0  0
  184.3890  178.4060  140.3630 C   0  0  2  0  0  3  0  0  0  0  0  0
  185.3630  178.9970  147.0520 N   0  0  0  0  0  0  0  0  0  0  0  0
  184.2400  178.4350  146.3180 C   0  0  0  0  0  2  0  0  0  0  0  0
  183.0400  177.8590  139.9110 C   0  0  1  0  0  3  0  0  0  0  0  0
  182.2960  178.8530  143.4120 C   0  0  0  0  0  2  0  0  0  0  0  0
  182.1200  177.8730  141.1200 C   0  0  0  0  0  2  0  0  0  0  0  0
  186.9980  177.5750  145.9190 C   0  0  0  0  0  0  0  0  0  0  0  0
  183.2580  179.6370  144.3110 C   0  0  0  0  0  2  0  0  0  0  0  0
  186.4510  177.4660  144.6940 C   0  0  0  0  0  3  0  0  0  0  0  0
  183.0160  178.0610  142.3230 C   0  0  1  0  0  3  0  0  0  0  0  0
  187.5930  179.1760  147.7430 N   0  0  0  0  0  1  0  0  0  0  0  0
  186.5950  178.6170  146.8940 C   0  0  0  0  0  0  0  0  0  0  0  0
  183.3610  180.0560  138.9090 C   0  0  0  0  0  2  0  0  0  0  0  0
  185.4940  178.4880  142.6130 C   0  0  0  0  0  2  0  0  0  0  0  0
  185.3570  178.2750  144.1110 C   0  0  0  0  0  0  0  0  0  0  0  0
  182.5020  178.8060  138.8440 C   0  0  1  0  0  3  0  0  0  0  0  0
  184.2280  178.8120  141.8150 C   0  0  1  0  0  3  0  0  0  0  0  0
  181.6160  178.5410  136.5080 C   0  0  0  0  0  0  0  0  0  0  0  0
  182.5840  178.2110  137.5090 N   0  0  0  0  0  0  0  0  0  0  0  0
  181.6960  177.9630  135.2460 O   0  0  0  0  0  0  0  0  0  0  0  0
  180.6850  179.3520  136.7580 O   0  0  0  0  0  1  0  0  0  0  0  0
  183.6030  177.3740  137.1900 O   0  0  0  0  0  1  0  0  0  0  0  0
  188.0550  176.7280  146.2900 O   0  0  0  0  0  0  0  0  0  0  0  0
  189.4150  177.1430  146.3630 C   0  0  0  0  0  2  0  0  0  0  0  0
  189.7470  178.0690  145.2050 C   0  0  0  0  0  2  0  0  0  0  0  0
  190.5990  177.3310  144.1770 C   0  0  0  0  0  2  0  0  0  0  0  0
  190.2910  175.2480  142.9070 N   0  0  0  0  0  1  0  0  0  0  0  0
  189.7690  176.5890  143.1260 C   0  0  2  0  0  3  0  0  0  0  0  0
  188.8960  178.3410  141.7580 O   0  0  0  0  0  1  0  0  0  0  0  0
  189.6630  177.3440  141.8370 C   0  0  0  0  0  0  0  0  0  0  0  0
  190.4290  176.9760  140.7350 O   0  0  0  0  0  0  0  0  0  0  0  0
  2  5  1  0  0  0  0
  3  1  1  6  0  0  0
  3 19  1  0  0  0  0
  5  4  1  0  0  0  0
  6  3  1  0  0  0  0
  6  8  1  1  0  0  0
  7 10  1  0  0  0  0
  9 25  1  0  0  0  0
  9 14  1  0  0  0  0
 10  2  1  0  0  0  0
 11  9  2  0  0  0  0
 12  8  1  6  0  0  0
 12  7  1  0  0  0  0
 14  4  2  0  0  0  0
 14 13  1  0  0  0  0
 15  1  1  0  0  0  0
 16 17  1  0  0  0  0
 17 11  1  0  0  0  0
 17  2  2  0  0  0  0
 18 21  1  6  0  0  0
 18 15  1  0  0  0  0
 18  6  1  0  0  0  0
 19 12  1  0  0  0  0
 19 16  1  1  0  0  0
 20 23  1  0  0  0  0
 20 21  1  0  0  0  0
 22 20  2  0  0  0  0
 24 21  1  0  0  0  0
 25 26  1  0  0  0  0
 27 26  1  0  0  0  0
 28 27  1  0  0  0  0
 30 29  1  6  0  0  0
 30 28  1  0  0  0  0
 31 32  1  0  0  0  0
 32 30  1  0  0  0  0
 33 32  2  0  0  0  0
M  END
>  <MODEL>
2

>  <REMARK>
 VINA RESULT:      -7.3      1.842      2.325
  Name = 
  7 active torsions:
  status: ('A' for Active; 'I' for Inactive)
    1  A    between atoms: C_5  and  C_6
    2  A    between atoms: C_5  and  C_13
    3  A    between atoms: C_6  and  CA_24
    4  A    between atoms: N_9  and  C_32
    5  A    between atoms: C_13  and  O_22
    6  A    between atoms: C_18  and  O_22
    7  A    between atoms: CA_24  and  C_29
                            x       y       z     vdW  Elec       q    Type
                         _______ _______ _______ _____ _____    ______ ____

>  <TORSDO>
F 7

$$$$
=
 OpenBabel11062414513D

 33 36  0  0  1  0  0  0  0  0999 V2000
  190.1310  178.9560  144.4240 C   0  0  0  0  0  2  0  0  0  0  0  0
  187.1820  178.2690  139.9070 C   0  0  0  0  0  0  0  0  0  0  0  0
  189.2510  177.8360  143.9010 C   0  0  2  0  0  3  0  0  0  0  0  0
  185.5020  179.1410  138.3980 N   0  0  0  0  0  0  0  0  0  0  0  0
  186.3400  177.9920  138.7060 C   0  0  0  0  0  2  0  0  0  0  0  0
  190.1080  176.5750  143.8650 C   0  0  1  0  0  3  0  0  0  0  0  0
  189.3600  177.0590  140.2590 C   0  0  0  0  0  2  0  0  0  0  0  0
  190.1250  176.0820  142.4280 C   0  0  0  0  0  2  0  0  0  0  0  0
  184.2140  178.9340  140.4660 C   0  0  0  0  0  0  0  0  0  0  0  0
  188.6640  178.2950  139.6790 C   0  0  0  0  0  2  0  0  0  0  0  0
  185.1510  178.4740  141.3170 C   0  0  0  0  0  3  0  0  0  0  0  0
  189.0040  176.8130  141.7240 C   0  0  1  0  0  3  0  0  0  0  0  0
  183.7310  180.6410  138.7070 N   0  0  0  0  0  1  0  0  0  0  0  0
  184.5440  179.5650  139.1660 C   0  0  0  0  0  0  0  0  0  0  0  0
  191.5620  178.4900  144.2530 C   0  0  0  0  0  2  0  0  0  0  0  0
  187.4000  178.6450  142.4140 C   0  0  0  0  0  2  0  0  0  0  0  0
  186.6190  178.4480  141.1260 C   0  0  0  0  0  0  0  0  0  0  0  0
  191.5170  176.9730  144.2900 C   0  0  1  0  0  3  0  0  0  0  0  0
  188.8370  178.1190  142.4700 C   0  0  1  0  0  3  0  0  0  0  0  0
  192.2980  175.1590  145.8450 C   0  0  0  0  0  0  0  0  0  0  0  0
  191.8240  176.4950  145.6390 N   0  0  0  0  0  0  0  0  0  0  0  0
  192.5770  174.7110  147.1300 O   0  0  0  0  0  1  0  0  0  0  0  0
  192.4640  174.3800  144.8680 O   0  0  0  0  0  0  0  0  0  0  0  0
  191.7070  177.3230  146.7060 O   0  0  0  0  0  1  0  0  0  0  0  0
  182.8600  178.9000  140.8340 O   0  0  0  0  0  0  0  0  0  0  0  0
  182.3670  178.2140  141.9810 C   0  0  0  0  0  2  0  0  0  0  0  0
  182.3620  179.1390  143.1870 C   0  0  0  0  0  2  0  0  0  0  0  0
  183.0840  178.4750  144.3540 C   0  0  0  0  0  2  0  0  0  0  0  0
  184.7180  180.2940  144.0860 N   0  0  0  0  0  1  0  0  0  0  0  0
  184.0890  179.4000  145.0480 C   0  0  2  0  0  3  0  0  0  0  0  0
  185.7910  177.7420  145.2790 O   0  0  0  0  0  0  0  0  0  0  0  0
  185.1160  178.6480  145.8370 C   0  0  0  0  0  0  0  0  0  0  0  0
  185.3560  178.9630  147.1700 O   0  0  0  0  0  1  0  0  0  0  0  0
  2 17  2  0  0  0  0
  3  1  1  6  0  0  0
  4  5  1  0  0  0  0
  4 14  2  0  0  0  0
  5  2  1  0  0  0  0
  6  8  1  6  0  0  0
  6  3  1  0  0  0  0
  6 18  1  0  0  0  0
  9 25  1  0  0  0  0
  9 11  2  0  0  0  0
 10  2  1  0  0  0  0
 10  7  1  0  0  0  0
 12  7  1  6  0  0  0
 12  8  1  0  0  0  0
 12 19  1  0  0  0  0
 13 14  1  0  0  0  0
 14  9  1  0  0  0  0
 15 18  1  0  0  0  0
 15  1  1  0  0  0  0
 17 11  1  0  0  0  0
 17 16  1  0  0  0  0
 18 21  1  1  0  0  0
 19 16  1  1  0  0  0
 19  3  1  0  0  0  0
 20 22  1  0  0  0  0
 21 20  1  0  0  0  0
 21 24  1  0  0  0  0
 23 20  2  0  0  0  0
 25 26  1  0  0  0  0
 26 27  1  0  0  0  0
 27 28  1  0  0  0  0
 28 30  1  0  0  0  0
 30 29  1  6  0  0  0
 30 32  1  0  0  0  0
 31 32  2  0  0  0  0
 32 33  1  0  0  0  0
M  END
>  <MODEL>
3

>  <REMARK>
 VINA RESULT:      -7.3      3.114      9.189
  Name = 
  7 active torsions:
  status: ('A' for Active; 'I' for Inactive)
    1  A    between atoms: C_5  and  C_6
    2  A    between atoms: C_5  and  C_13
    3  A    between atoms: C_6  and  CA_24
    4  A    between atoms: N_9  and  C_32
    5  A    between atoms: C_13  and  O_22
    6  A    between atoms: C_18  and  O_22
    7  A    between atoms: CA_24  and  C_29
                            x       y       z     vdW  Elec       q    Type
                         _______ _______ _______ _____ _____    ______ ____

>  <TORSDO>
F 7

$$$$
=
 OpenBabel11062414513D

 33 36  0  0  1  0  0  0  0  0999 V2000
  189.2180  175.7150  142.9390 C   0  0  0  0  0  2  0  0  0  0  0  0
  189.5960  176.9330  137.6520 C   0  0  0  0  0  0  0  0  0  0  0  0
  189.7630  176.9030  142.1680 C   0  0  2  0  0  3  0  0  0  0  0  0
  190.2940  176.2600  135.4340 N   0  0  0  0  0  0  0  0  0  0  0  0
  189.7490  177.3510  136.2280 C   0  0  0  0  0  2  0  0  0  0  0  0
  189.0380  178.1410  142.6850 C   0  0  1  0  0  3  0  0  0  0  0  0
  187.9080  178.0500  139.1470 C   0  0  0  0  0  2  0  0  0  0  0  0
  188.3340  178.7790  141.4990 C   0  0  0  0  0  2  0  0  0  0  0  0
  192.4350  176.2820  136.6140 C   0  0  0  0  0  0  0  0  0  0  0  0
  188.1920  176.8970  138.1790 C   0  0  0  0  0  2  0  0  0  0  0  0
  192.0490  176.6290  137.8570 C   0  0  0  0  0  3  0  0  0  0  0  0
  188.9430  178.1510  140.2660 C   0  0  1  0  0  3  0  0  0  0  0  0
  191.9420  174.7770  134.6810 N   0  0  0  0  0  1  0  0  0  0  0  0
  191.4910  175.7810  135.5870 C   0  0  0  0  0  0  0  0  0  0  0  0
  187.9020  176.1630  143.5400 C   0  0  0  0  0  2  0  0  0  0  0  0
  190.6220  176.2950  139.8910 C   0  0  0  0  0  2  0  0  0  0  0  0
  190.6780  176.6420  138.4130 C   0  0  0  0  0  0  0  0  0  0  0  0
  188.0060  177.6690  143.7030 C   0  0  1  0  0  3  0  0  0  0  0  0
  189.4140  176.7790  140.6980 C   0  0  1  0  0  3  0  0  0  0  0  0
  187.4720  177.9190  146.1460 C   0  0  0  0  0  0  0  0  0  0  0  0
  188.4140  177.9980  145.0700 N   0  0  0  0  0  0  0  0  0  0  0  0
  187.8660  178.2430  147.4390 O   0  0  0  0  0  1  0  0  0  0  0  0
  186.2830  177.5590  145.9330 O   0  0  0  0  0  0  0  0  0  0  0  0
  189.6980  178.3380  145.3430 O   0  0  0  0  0  1  0  0  0  0  0  0
  193.7960  176.3090  136.2720 O   0  0  0  0  0  0  0  0  0  0  0  0
  194.6940  175.2280  136.5040 C   0  0  0  0  0  2  0  0  0  0  0  0
  194.4050  174.5810  137.8480 C   0  0  0  0  0  2  0  0  0  0  0  0
  195.5420  173.6380  138.2270 C   0  0  0  0  0  2  0  0  0  0  0  0
  195.8980  175.3260  139.9800 N   0  0  0  0  0  1  0  0  0  0  0  0
  196.5270  174.2520  139.2270 C   0  0  2  0  0  3  0  0  0  0  0  0
  198.1770  174.1830  137.5020 O   0  0  0  0  0  0  0  0  0  0  0  0
  197.7930  174.7180  138.5760 C   0  0  0  0  0  0  0  0  0  0  0  0
  198.5300  175.7610  139.1280 O   0  0  0  0  0  1  0  0  0  0  0  0
  1 15  1  0  0  0  0
  2 10  1  0  0  0  0
  2 17  2  0  0  0  0
  3  6  1  0  0  0  0
  3  1  1  1  0  0  0
  4 14  2  0  0  0  0
  4  5  1  0  0  0  0
  5  2  1  0  0  0  0
  6  8  1  6  0  0  0
  6 18  1  0  0  0  0
  9 11  2  0  0  0  0
 10  7  1  0  0  0  0
 11 17  1  0  0  0  0
 12  7  1  6  0  0  0
 12 19  1  0  0  0  0
 12  8  1  0  0  0  0
 13 14  1  0  0  0  0
 14  9  1  0  0  0  0
 15 18  1  0  0  0  0
 17 16  1  0  0  0  0
 18 21  1  1  0  0  0
 19 16  1  6  0  0  0
 19  3  1  0  0  0  0
 20 22  1  0  0  0  0
 21 24  1  0  0  0  0
 21 20  1  0  0  0  0
 23 20  2  0  0  0  0
 25 26  1  0  0  0  0
 25  9  1  0  0  0  0
 26 27  1  0  0  0  0
 27 28  1  0  0  0  0
 28 30  1  0  0  0  0
 30 29  1  6  0  0  0
 31 32  2  0  0  0  0
 32 33  1  0  0  0  0
 32 30  1  0  0  0  0
M  END
>  <MODEL>
4

>  <REMARK>
 VINA RESULT:      -7.1      5.195      8.559
  Name = 
  7 active torsions:
  status: ('A' for Active; 'I' for Inactive)
    1  A    between atoms: C_5  and  C_6
    2  A    between atoms: C_5  and  C_13
    3  A    between atoms: C_6  and  CA_24
    4  A    between atoms: N_9  and  C_32
    5  A    between atoms: C_13  and  O_22
    6  A    between atoms: C_18  and  O_22
    7  A    between atoms: CA_24  and  C_29
                            x       y       z     vdW  Elec       q    Type
                         _______ _______ _______ _____ _____    ______ ____

>  <TORSDO>
F 7

$$$$
=
 OpenBabel11062414513D

 33 36  0  0  1  0  0  0  0  0999 V2000
  183.7560  180.1110  139.0170 C   0  0  0  0  0  2  0  0  0  0  0  0
  183.6270  178.7660  144.2850 C   0  0  0  0  0  0  0  0  0  0  0  0
  183.6470  178.7960  139.7660 C   0  0  2  0  0  3  0  0  0  0  0  0
  184.6370  178.9490  146.4760 N   0  0  0  0  0  0  0  0  0  0  0  0
  183.5910  178.2990  145.7020 C   0  0  0  0  0  2  0  0  0  0  0  0
  182.3790  178.1070  139.2740 C   0  0  1  0  0  3  0  0  0  0  0  0
  181.5610  178.6880  142.8500 C   0  0  0  0  0  2  0  0  0  0  0  0
  181.4860  177.8900  140.4840 C   0  0  0  0  0  2  0  0  0  0  0  0
  186.4350  177.8690  145.2190 C   0  0  0  0  0  0  0  0  0  0  0  0
  182.4200  179.5190  143.8100 C   0  0  0  0  0  2  0  0  0  0  0  0
  185.8880  177.7890  143.9910 C   0  0  0  0  0  3  0  0  0  0  0  0
  182.3670  178.0980  141.6940 C   0  0  1  0  0  3  0  0  0  0  0  0
  186.8320  179.3770  147.1710 N   0  0  0  0  0  1  0  0  0  0  0  0
  185.9080  178.7590  146.2810 C   0  0  0  0  0  0  0  0  0  0  0  0
  182.3770  180.4040  138.4630 C   0  0  0  0  0  2  0  0  0  0  0  0
  184.7650  178.8400  142.0100 C   0  0  0  0  0  2  0  0  0  0  0  0
  184.6830  178.4840  143.4850 C   0  0  0  0  0  0  0  0  0  0  0  0
  181.6980  179.0560  138.2950 C   0  0  1  0  0  3  0  0  0  0  0  0
  183.4540  179.0510  141.2480 C   0  0  1  0  0  3  0  0  0  0  0  0
  180.9340  179.0440  135.9010 C   0  0  0  0  0  0  0  0  0  0  0  0
  181.8400  178.5930  136.9130 N   0  0  0  0  0  0  0  0  0  0  0  0
  181.0710  178.5910  134.5940 O   0  0  0  0  0  0  0  0  0  0  0  0
  180.0080  179.8510  136.1820 O   0  0  0  0  0  1  0  0  0  0  0  0
  182.8580  177.7660  136.5660 O   0  0  0  0  0  1  0  0  0  0  0  0
  187.6040  177.1490  145.5110 O   0  0  0  0  0  0  0  0  0  0  0  0
  188.6840  176.9860  144.5970 C   0  0  0  0  0  2  0  0  0  0  0  0
  189.9030  177.7550  145.0790 C   0  0  0  0  0  2  0  0  0  0  0  0
  190.9650  176.7830  145.5830 C   0  0  0  0  0  2  0  0  0  0  0  0
  190.1640  177.5700  147.7710 N   0  0  0  0  0  1  0  0  0  0  0  0
  190.8490  176.4860  147.0820 C   0  0  2  0  0  3  0  0  0  0  0  0
  192.8900  175.2610  147.2660 O   0  0  0  0  0  0  0  0  0  0  0  0
  192.1740  176.1960  147.7160 C   0  0  0  0  0  0  0  0  0  0  0  0
  192.6380  176.9700  148.7740 O   0  0  0  0  0  1  0  0  0  0  0  0
  2  5  1  0  0  0  0
  3  1  1  6  0  0  0
  3 19  1  0  0  0  0
  5  4  1  0  0  0  0
  6  3  1  0  0  0  0
  6  8  1  1  0  0  0
  7 10  1  0  0  0  0
  9 25  1  0  0  0  0
  9 14  1  0  0  0  0
 10  2  1  0  0  0  0
 11  9  2  0  0  0  0
 12  8  1  6  0  0  0
 12  7  1  0  0  0  0
 14  4  2  0  0  0  0
 14 13  1  0  0  0  0
 15  1  1  0  0  0  0
 16 17  1  0  0  0  0
 17 11  1  0  0  0  0
 17  2  2  0  0  0  0
 18 21  1  6  0  0  0
 18 15  1  0  0  0  0
 18  6  1  0  0  0  0
 19 12  1  0  0  0  0
 19 16  1  1  0  0  0
 20 23  1  0  0  0  0
 20 21  1  0  0  0  0
 22 20  2  0  0  0  0
 24 21  1  0  0  0  0
 26 27  1  0  0  0  0
 26 25  1  0  0  0  0
 27 28  1  0  0  0  0
 28 30  1  0  0  0  0
 30 32  1  0  0  0  0
 30 29  1  1  0  0  0
 31 32  2  0  0  0  0
 32 33  1  0  0  0  0
M  END
>  <MODEL>
5

>  <REMARK>
 VINA RESULT:      -7.0      3.069      4.189
  Name = 
  7 active torsions:
  status: ('A' for Active; 'I' for Inactive)
    1  A    between atoms: C_5  and  C_6
    2  A    between atoms: C_5  and  C_13
    3  A    between atoms: C_6  and  CA_24
    4  A    between atoms: N_9  and  C_32
    5  A    between atoms: C_13  and  O_22
    6  A    between atoms: C_18  and  O_22
    7  A    between atoms: CA_24  and  C_29
                            x       y       z     vdW  Elec       q    Type
                         _______ _______ _______ _____ _____    ______ ____

>  <TORSDO>
F 7

$$$$
=
 OpenBabel11062414513D

 33 36  0  0  1  0  0  0  0  0999 V2000
  189.5360  179.3160  142.9700 C   0  0  0  0  0  2  0  0  0  0  0  0
  189.3420  177.1510  137.9850 C   0  0  0  0  0  0  0  0  0  0  0  0
  189.0570  177.9860  142.4170 C   0  0  2  0  0  3  0  0  0  0  0  0
  188.6760  177.3830  135.6700 N   0  0  0  0  0  0  0  0  0  0  0  0
  189.2410  176.4770  136.6570 C   0  0  0  0  0  2  0  0  0  0  0  0
  189.8170  176.8940  143.1630 C   0  0  1  0  0  3  0  0  0  0  0  0
  191.0330  176.3950  139.6880 C   0  0  0  0  0  2  0  0  0  0  0  0
  190.5750  176.0830  142.1250 C   0  0  0  0  0  2  0  0  0  0  0  0
  186.5070  177.4830  136.7950 C   0  0  0  0  0  0  0  0  0  0  0  0
  190.7290  177.3410  138.5220 C   0  0  0  0  0  2  0  0  0  0  0  0
  186.8740  177.3810  138.0870 C   0  0  0  0  0  3  0  0  0  0  0  0
  189.9740  176.4530  140.7880 C   0  0  1  0  0  3  0  0  0  0  0  0
  186.9910  178.6340  134.6310 N   0  0  0  0  0  1  0  0  0  0  0  0
  187.4570  177.8300  135.7110 C   0  0  0  0  0  0  0  0  0  0  0  0
  190.8530  179.0400  143.6670 C   0  0  0  0  0  2  0  0  0  0  0  0
  188.2340  178.1370  140.0530 C   0  0  0  0  0  2  0  0  0  0  0  0
  188.2300  177.5280  138.6610 C   0  0  0  0  0  0  0  0  0  0  0  0
  190.8030  177.5850  144.0970 C   0  0  1  0  0  3  0  0  0  0  0  0
  189.4390  177.8580  140.9550 C   0  0  1  0  0  3  0  0  0  0  0  0
  191.1280  176.7180  146.4340 C   0  0  0  0  0  0  0  0  0  0  0  0
  190.3730  177.4900  145.4940 N   0  0  0  0  0  0  0  0  0  0  0  0
  190.7070  176.6260  147.7550 O   0  0  0  0  0  1  0  0  0  0  0  0
  192.1750  176.1160  146.0750 O   0  0  0  0  0  0  0  0  0  0  0  0
  189.2800  178.1680  145.9250 O   0  0  0  0  0  1  0  0  0  0  0  0
  185.1570  177.3360  136.4380 O   0  0  0  0  0  0  0  0  0  0  0  0
  184.1680  176.7740  137.2950 C   0  0  0  0  0  2  0  0  0  0  0  0
  183.3460  177.8750  137.9440 C   0  0  0  0  0  2  0  0  0  0  0  0
  183.4580  177.7810  139.4620 C   0  0  0  0  0  2  0  0  0  0  0  0
  184.5580  179.9630  139.1850 N   0  0  0  0  0  1  0  0  0  0  0  0
  183.8470  179.1070  140.1230 C   0  0  2  0  0  3  0  0  0  0  0  0
  185.6280  179.6540  141.6160 O   0  0  0  0  0  0  0  0  0  0  0  0
  184.6340  178.9150  141.3820 C   0  0  0  0  0  0  0  0  0  0  0  0
  184.2580  177.9520  142.3130 O   0  0  0  0  0  1  0  0  0  0  0  0
  1 15  1  0  0  0  0
  2 10  1  0  0  0  0
  2 17  2  0  0  0  0
  3  1  1  1  0  0  0
  3  6  1  0  0  0  0
  4 14  2  0  0  0  0
  4  5  1  0  0  0  0
  5  2  1  0  0  0  0
  6  8  1  6  0  0  0
  6 18  1  0  0  0  0
  9 11  2  0  0  0  0
 10  7  1  0  0  0  0
 11 17  1  0  0  0  0
 12  7  1  6  0  0  0
 12 19  1  0  0  0  0
 12  8  1  0  0  0  0
 13 14  1  0  0  0  0
 14  9  1  0  0  0  0
 15 18  1  0  0  0  0
 17 16  1  0  0  0  0
 18 21  1  1  0  0  0
 19 16  1  6  0  0  0
 19  3  1  0  0  0  0
 20 22  1  0  0  0  0
 21 24  1  0  0  0  0
 21 20  1  0  0  0  0
 23 20  2  0  0  0  0
 25  9  1  0  0  0  0
 25 26  1  0  0  0  0
 26 27  1  0  0  0  0
 27 28  1  0  0  0  0
 28 30  1  0  0  0  0
 30 29  1  6  0  0  0
 30 32  1  0  0  0  0
 32 31  2  0  0  0  0
 32 33  1  0  0  0  0
M  END
>  <MODEL>
6

>  <REMARK>
 VINA RESULT:      -6.8      2.905      9.021
  Name = 
  7 active torsions:
  status: ('A' for Active; 'I' for Inactive)
    1  A    between atoms: C_5  and  C_6
    2  A    between atoms: C_5  and  C_13
    3  A    between atoms: C_6  and  CA_24
    4  A    between atoms: N_9  and  C_32
    5  A    between atoms: C_13  and  O_22
    6  A    between atoms: C_18  and  O_22
    7  A    between atoms: CA_24  and  C_29
                            x       y       z     vdW  Elec       q    Type
                         _______ _______ _______ _____ _____    ______ ____

>  <TORSDO>
F 7

$$$$
=
 OpenBabel11062414513D

 33 36  0  0  1  0  0  0  0  0999 V2000
  194.4040  176.7030  136.0720 C   0  0  0  0  0  2  0  0  0  0  0  0
  189.1490  175.6830  137.0310 C   0  0  0  0  0  0  0  0  0  0  0  0
  193.6540  176.0000  137.1890 C   0  0  2  0  0  3  0  0  0  0  0  0
  186.8910  176.5350  137.2060 N   0  0  0  0  0  0  0  0  0  0  0  0
  187.7350  175.3630  137.3830 C   0  0  0  0  0  2  0  0  0  0  0  0
  194.2330  174.5930  137.2980 C   0  0  1  0  0  3  0  0  0  0  0  0
  190.7320  173.8730  136.2870 C   0  0  0  0  0  2  0  0  0  0  0  0
  193.0900  173.6170  137.0700 C   0  0  0  0  0  2  0  0  0  0  0  0
  188.0020  177.7810  138.9910 C   0  0  0  0  0  0  0  0  0  0  0  0
  189.7190  174.9410  135.8590 C   0  0  0  0  0  2  0  0  0  0  0  0
  189.2670  177.3310  138.8810 C   0  0  0  0  0  3  0  0  0  0  0  0
  191.8200  174.4250  137.2060 C   0  0  1  0  0  3  0  0  0  0  0  0
  186.0400  178.6560  137.7160 N   0  0  0  0  0  1  0  0  0  0  0  0
  186.9900  177.6140  137.9220 C   0  0  0  0  0  0  0  0  0  0  0  0
  195.0610  175.6150  135.2470 C   0  0  0  0  0  2  0  0  0  0  0  0
  191.3340  176.8870  137.5330 C   0  0  0  0  0  2  0  0  0  0  0  0
  189.8670  176.5690  137.7630 C   0  0  0  0  0  0  0  0  0  0  0  0
  195.2670  174.4420  136.1890 C   0  0  1  0  0  3  0  0  0  0  0  0
  192.1930  175.8400  136.8190 C   0  0  1  0  0  3  0  0  0  0  0  0
  197.2890  173.2410  137.0750 C   0  0  0  0  0  0  0  0  0  0  0  0
  196.6310  174.4620  136.7220 N   0  0  0  0  0  0  0  0  0  0  0  0
  198.5800  173.2710  137.5900 O   0  0  0  0  0  1  0  0  0  0  0  0
  196.7090  172.1320  136.9240 O   0  0  0  0  0  0  0  0  0  0  0  0
  197.3040  175.6330  136.8480 O   0  0  0  0  0  1  0  0  0  0  0  0
  187.6180  178.5150  140.1250 O   0  0  0  0  0  0  0  0  0  0  0  0
  188.3050  178.4650  141.3710 C   0  0  0  0  0  2  0  0  0  0  0  0
  187.3900  177.9240  142.4570 C   0  0  0  0  0  2  0  0  0  0  0  0
  188.0710  176.7690  143.1840 C   0  0  0  0  0  2  0  0  0  0  0  0
  190.1620  175.5670  142.7050 N   0  0  0  0  0  1  0  0  0  0  0  0
  189.6000  176.8400  143.1300 C   0  0  2  0  0  3  0  0  0  0  0  0
  189.6620  178.2260  145.0750 O   0  0  0  0  0  1  0  0  0  0  0  0
  190.2020  177.2890  144.4260 C   0  0  0  0  0  0  0  0  0  0  0  0
  191.3310  176.6590  144.9390 O   0  0  0  0  0  0  0  0  0  0  0  0
  2  5  1  0  0  0  0
  2 17  2  0  0  0  0
  3  1  1  6  0  0  0
  3  6  1  0  0  0  0
  4  5  1  0  0  0  0
  4 14  2  0  0  0  0
  6  8  1  6  0  0  0
  8 12  1  0  0  0  0
  9 25  1  0  0  0  0
 10  7  1  0  0  0  0
 10  2  1  0  0  0  0
 11  9  2  0  0  0  0
 12  7  1  6  0  0  0
 13 14  1  0  0  0  0
 14  9  1  0  0  0  0
 15  1  1  0  0  0  0
 15 18  1  0  0  0  0
 16 17  1  0  0  0  0
 17 11  1  0  0  0  0
 18 21  1  1  0  0  0
 18  6  1  0  0  0  0
 19  3  1  0  0  0  0
 19 12  1  0  0  0  0
 19 16  1  1  0  0  0
 20 22  1  0  0  0  0
 21 24  1  0  0  0  0
 21 20  1  0  0  0  0
 23 20  2  0  0  0  0
 25 26  1  0  0  0  0
 26 27  1  0  0  0  0
 27 28  1  0  0  0  0
 30 29  1  1  0  0  0
 30 28  1  0  0  0  0
 30 32  1  0  0  0  0
 32 33  2  0  0  0  0
 32 31  1  0  0  0  0
M  END
>  <MODEL>
7

>  <REMARK>
 VINA RESULT:      -6.7      4.739     10.552
  Name = 
  7 active torsions:
  status: ('A' for Active; 'I' for Inactive)
    1  A    between atoms: C_5  and  C_6
    2  A    between atoms: C_5  and  C_13
    3  A    between atoms: C_6  and  CA_24
    4  A    between atoms: N_9  and  C_32
    5  A    between atoms: C_13  and  O_22
    6  A    between atoms: C_18  and  O_22
    7  A    between atoms: CA_24  and  C_29
                            x       y       z     vdW  Elec       q    Type
                         _______ _______ _______ _____ _____    ______ ____

>  <TORSDO>
F 7

$$$$
=
 OpenBabel11062414513D

 33 36  0  0  1  0  0  0  0  0999 V2000
  189.4040  175.6360  142.9900 C   0  0  0  0  0  2  0  0  0  0  0  0
  189.9960  176.7880  137.7080 C   0  0  0  0  0  0  0  0  0  0  0  0
  189.9450  176.8300  142.2260 C   0  0  2  0  0  3  0  0  0  0  0  0
  190.8230  176.1070  135.5370 N   0  0  0  0  0  0  0  0  0  0  0  0
  190.2040  177.1900  136.2860 C   0  0  0  0  0  2  0  0  0  0  0  0
  189.1540  178.0500  142.6880 C   0  0  1  0  0  3  0  0  0  0  0  0
  188.2000  177.8670  139.1020 C   0  0  0  0  0  2  0  0  0  0  0  0
  188.4860  178.6450  141.4590 C   0  0  0  0  0  2  0  0  0  0  0  0
  192.9020  176.2210  136.8180 C   0  0  0  0  0  0  0  0  0  0  0  0
  188.5700  176.7100  138.1670 C   0  0  0  0  0  2  0  0  0  0  0  0
  192.4460  176.5730  138.0350 C   0  0  0  0  0  3  0  0  0  0  0  0
  189.1760  178.0210  140.2670 C   0  0  1  0  0  3  0  0  0  0  0  0
  192.5550  174.6720  134.8890 N   0  0  0  0  0  1  0  0  0  0  0  0
  192.0270  175.6720  135.7550 C   0  0  0  0  0  0  0  0  0  0  0  0
  188.0460  176.0460  143.5200 C   0  0  0  0  0  2  0  0  0  0  0  0
  190.9330  176.2190  140.0040 C   0  0  0  0  0  2  0  0  0  0  0  0
  191.0490  176.5460  138.5250 C   0  0  0  0  0  0  0  0  0  0  0  0
  188.0900  177.5570  143.6620 C   0  0  1  0  0  3  0  0  0  0  0  0
  189.6720  176.6730  140.7430 C   0  0  1  0  0  3  0  0  0  0  0  0
  187.4150  177.8810  146.0620 C   0  0  0  0  0  0  0  0  0  0  0  0
  188.4200  177.9200  145.0420 N   0  0  0  0  0  0  0  0  0  0  0  0
  187.7350  178.2370  147.3660 O   0  0  0  0  0  1  0  0  0  0  0  0
  186.2370  177.5270  145.7880 O   0  0  0  0  0  0  0  0  0  0  0  0
  189.6890  178.2550  145.3820 O   0  0  0  0  0  1  0  0  0  0  0  0
  194.2770  176.2900  136.5410 O   0  0  0  0  0  0  0  0  0  0  0  0
  194.8410  177.1260  135.5350 C   0  0  0  0  0  2  0  0  0  0  0  0
  195.7910  176.3270  134.6580 C   0  0  0  0  0  2  0  0  0  0  0  0
  196.2670  175.0850  135.4030 C   0  0  0  0  0  2  0  0  0  0  0  0
  198.6680  174.5690  135.2690 N   0  0  0  0  0  1  0  0  0  0  0  0
  197.6460  175.2570  136.0450 C   0  0  2  0  0  3  0  0  0  0  0  0
  198.0550  175.6280  138.3690 O   0  0  0  0  0  1  0  0  0  0  0  0
  197.6740  174.8220  137.4780 C   0  0  0  0  0  0  0  0  0  0  0  0
  197.2490  173.5470  137.8400 O   0  0  0  0  0  0  0  0  0  0  0  0
  1 15  1  0  0  0  0
  2 10  1  0  0  0  0
  2 17  2  0  0  0  0
  3  6  1  0  0  0  0
  3  1  1  1  0  0  0
  4 14  2  0  0  0  0
  4  5  1  0  0  0  0
  5  2  1  0  0  0  0
  6  8  1  6  0  0  0
  6 18  1  0  0  0  0
  9 11  2  0  0  0  0
 10  7  1  0  0  0  0
 11 17  1  0  0  0  0
 12  7  1  6  0  0  0
 12 19  1  0  0  0  0
 12  8  1  0  0  0  0
 13 14  1  0  0  0  0
 14  9  1  0  0  0  0
 15 18  1  0  0  0  0
 17 16  1  0  0  0  0
 18 21  1  1  0  0  0
 19 16  1  6  0  0  0
 19  3  1  0  0  0  0
 20 22  1  0  0  0  0
 21 24  1  0  0  0  0
 21 20  1  0  0  0  0
 23 20  2  0  0  0  0
 25  9  1  0  0  0  0
 26 25  1  0  0  0  0
 27 28  1  0  0  0  0
 27 26  1  0  0  0  0
 28 30  1  0  0  0  0
 30 29  1  6  0  0  0
 30 32  1  0  0  0  0
 32 33  2  0  0  0  0
 32 31  1  0  0  0  0
M  END
>  <MODEL>
8

>  <REMARK>
 VINA RESULT:      -6.6      5.290      8.840
  Name = 
  7 active torsions:
  status: ('A' for Active; 'I' for Inactive)
    1  A    between atoms: C_5  and  C_6
    2  A    between atoms: C_5  and  C_13
    3  A    between atoms: C_6  and  CA_24
    4  A    between atoms: N_9  and  C_32
    5  A    between atoms: C_13  and  O_22
    6  A    between atoms: C_18  and  O_22
    7  A    between atoms: CA_24  and  C_29
                            x       y       z     vdW  Elec       q    Type
                         _______ _______ _______ _____ _____    ______ ____

>  <TORSDO>
F 7

$$$$
=
 OpenBabel11062414513D

 33 36  0  0  1  0  0  0  0  0999 V2000
  187.1410  178.7210  136.8030 C   0  0  0  0  0  2  0  0  0  0  0  0
  182.3750  177.6780  139.2040 C   0  0  0  0  0  0  0  0  0  0  0  0
  186.6400  177.6150  137.7120 C   0  0  2  0  0  3  0  0  0  0  0  0
  180.5550  178.4730  140.5870 N   0  0  0  0  0  0  0  0  0  0  0  0
  181.1110  177.3130  139.9090 C   0  0  0  0  0  2  0  0  0  0  0  0
  186.8760  176.2970  136.9820 C   0  0  1  0  0  3  0  0  0  0  0  0
  183.1690  176.3570  137.2150 C   0  0  0  0  0  2  0  0  0  0  0  0
  185.5250  175.6190  136.8300 C   0  0  0  0  0  2  0  0  0  0  0  0
  182.4340  178.6440  142.1420 C   0  0  0  0  0  0  0  0  0  0  0  0
  182.3530  177.5570  137.7100 C   0  0  0  0  0  2  0  0  0  0  0  0
  183.4560  178.2280  141.3690 C   0  0  0  0  0  3  0  0  0  0  0  0
  184.5890  176.3360  137.7770 C   0  0  1  0  0  3  0  0  0  0  0  0
  180.4320  180.1360  142.2310 N   0  0  0  0  0  1  0  0  0  0  0  0
  181.1260  179.0700  141.5900 C   0  0  0  0  0  0  0  0  0  0  0  0
  187.2280  178.1260  135.4130 C   0  0  0  0  0  2  0  0  0  0  0  0
  184.8250  178.3640  139.2720 C   0  0  0  0  0  2  0  0  0  0  0  0
  183.4740  178.0610  139.8990 C   0  0  0  0  0  0  0  0  0  0  0  0
  187.4400  176.6350  135.6080 C   0  0  1  0  0  3  0  0  0  0  0  0
  185.1420  177.7380  137.9110 C   0  0  1  0  0  3  0  0  0  0  0  0
  189.2950  175.0080  135.1290 C   0  0  0  0  0  0  0  0  0  0  0  0
  188.8670  176.3170  135.5220 N   0  0  0  0  0  0  0  0  0  0  0  0
  190.6510  174.7130  135.0610 O   0  0  0  0  0  1  0  0  0  0  0  0
  188.4520  174.1150  134.8450 O   0  0  0  0  0  0  0  0  0  0  0  0
  189.8010  177.2690  135.7690 O   0  0  0  0  0  1  0  0  0  0  0  0
  182.6120  178.7650  143.5290 O   0  0  0  0  0  0  0  0  0  0  0  0
  183.7350  179.4010  144.1310 C   0  0  0  0  0  2  0  0  0  0  0  0
  184.1750  178.6350  145.3680 C   0  0  0  0  0  2  0  0  0  0  0  0
  185.6460  178.9130  145.6550 C   0  0  0  0  0  2  0  0  0  0  0  0
  187.2950  177.6600  146.9820 N   0  0  0  0  0  1  0  0  0  0  0  0
  186.4900  177.6390  145.7700 C   0  0  2  0  0  3  0  0  0  0  0  0
  186.8310  177.4880  143.4110 O   0  0  0  0  0  0  0  0  0  0  0  0
  187.3400  177.4000  144.5610 C   0  0  0  0  0  0  0  0  0  0  0  0
  188.6960  177.1170  144.6930 O   0  0  0  0  0  1  0  0  0  0  0  0
  2 17  2  0  0  0  0
  2  5  1  0  0  0  0
  3  1  1  6  0  0  0
  3 19  1  0  0  0  0
  4 14  2  0  0  0  0
  5  4  1  0  0  0  0
  6  8  1  6  0  0  0
  6  3  1  0  0  0  0
  7 10  1  0  0  0  0
  7 12  1  0  0  0  0
  9 25  1  0  0  0  0
 10  2  1  0  0  0  0
 11  9  2  0  0  0  0
 12  8  1  6  0  0  0
 12 19  1  0  0  0  0
 14  9  1  0  0  0  0
 14 13  1  0  0  0  0
 15 18  1  0  0  0  0
 15  1  1  0  0  0  0
 16 17  1  0  0  0  0
 17 11  1  0  0  0  0
 18 21  1  1  0  0  0
 18  6  1  0  0  0  0
 19 16  1  1  0  0  0
 20 21  1  0  0  0  0
 21 24  1  0  0  0  0
 22 20  1  0  0  0  0
 23 20  2  0  0  0  0
 25 26  1  0  0  0  0
 26 27  1  0  0  0  0
 27 28  1  0  0  0  0
 28 30  1  0  0  0  0
 30 29  1  1  0  0  0
 31 32  2  0  0  0  0
 32 33  1  0  0  0  0
 32 30  1  0  0  0  0
M  END
>  <MODEL>
9

>  <REMARK>
 VINA RESULT:      -6.5      3.281      7.189
  Name = 
  7 active torsions:
  status: ('A' for Active; 'I' for Inactive)
    1  A    between atoms: C_5  and  C_6
    2  A    between atoms: C_5  and  C_13
    3  A    between atoms: C_6  and  CA_24
    4  A    between atoms: N_9  and  C_32
    5  A    between atoms: C_13  and  O_22
    6  A    between atoms: C_18  and  O_22
    7  A    between atoms: CA_24  and  C_29
                            x       y       z     vdW  Elec       q    Type
                         _______ _______ _______ _____ _____    ______ ____

>  <TORSDO>
F 7

$$$$
