=
 OpenBabel11062416453D

 28 31  0  0  1  0  0  0  0  0999 V2000
  189.4090  177.3250  141.4880 C   0  0  1  0  0  3  0  0  0  0  0  0
  190.7070  176.1140  139.8490 O   0  0  0  0  0  0  0  0  0  0  0  0
  190.2530  177.4080  140.2130 C   0  0  1  0  0  3  0  0  0  0  0  0
  189.4930  178.0380  139.0430 C   0  0  0  0  0  2  0  0  0  0  0  0
  189.2830  175.1470  137.1900 C   0  0  0  0  0  3  0  0  0  0  0  0
  189.7970  177.0780  137.9930 C   0  0  2  0  0  3  0  0  0  0  0  0
  190.3610  174.8910  137.8540 N   0  0  0  0  0  0  0  0  0  0  0  0
  188.8710  176.5020  137.3070 N   0  0  0  0  0  2  0  0  0  0  0  0
  190.8170  176.1370  138.4490 C   0  0  2  0  0  3  0  0  0  0  0  0
  191.4590  176.5750  144.6190 C   0  0  0  0  0  0  0  0  0  0  0  0
  190.2290  177.4990  142.7300 C   0  0  0  0  0  0  0  0  0  0  0  0
  191.7340  177.8730  145.0620 C   0  0  0  0  0  3  0  0  0  0  0  0
  190.5120  178.7900  143.1840 C   0  0  0  0  0  3  0  0  0  0  0  0
  191.2640  178.9780  144.3470 C   0  0  0  0  0  3  0  0  0  0  0  0
  190.7010  176.3920  143.4500 C   0  0  0  0  0  3  0  0  0  0  0  0
  191.9400  175.4900  145.3580 O   0  0  0  0  0  0  0  0  0  0  0  0
  192.3210  175.5900  146.7260 C   0  0  0  0  0  2  0  0  0  0  0  0
  191.2290  175.3380  147.5360 F   0  0  0  0  0  0  0  0  0  0  0  0
  188.2910  178.2630  141.4560 N   0  0  0  0  0  2  0  0  0  0  0  0
  187.1290  177.5710  141.9890 C   0  0  0  0  0  2  0  0  0  0  0  0
  186.7400  178.1720  143.3250 C   0  0  0  0  0  2  0  0  0  0  0  0
  187.0240  177.1720  144.4290 C   0  0  0  0  0  2  0  0  0  0  0  0
  188.4930  176.9850  146.4230 C   0  0  0  0  0  2  0  0  0  0  0  0
  186.7920  178.6860  147.9550 C   0  0  0  0  0  3  0  0  0  0  0  0
  186.3390  178.2190  146.5950 C   0  0  0  0  0  2  0  0  0  0  0  0
  187.5170  177.8840  145.6760 C   0  0  2  0  0  3  0  0  0  0  0  0
  188.0200  178.4290  148.4320 C   0  0  0  0  0  3  0  0  0  0  0  0
  189.0820  177.7500  147.6060 C   0  0  0  0  0  2  0  0  0  0  0  0
  1 19  1  6  0  0  0
  1 11  1  0  0  0  0
  2  3  1  0  0  0  0
  3  1  1  1  0  0  0
  4  3  1  0  0  0  0
  5  8  1  0  0  0  0
  5  7  2  0  0  0  0
  6  9  1  0  0  0  0
  6  4  1  1  0  0  0
  8  6  1  0  0  0  0
  9  7  1  6  0  0  0
  9  2  1  0  0  0  0
 10 12  1  0  0  0  0
 10 16  1  0  0  0  0
 11 13  2  0  0  0  0
 11 15  1  0  0  0  0
 13 14  1  0  0  0  0
 14 12  2  0  0  0  0
 15 10  2  0  0  0  0
 16 17  1  0  0  0  0
 17 18  1  0  0  0  0
 19 20  1  0  0  0  0
 20 21  1  0  0  0  0
 21 22  1  0  0  0  0
 23 28  1  0  0  0  0
 24 27  2  0  0  0  0
 25 24  1  0  0  0  0
 26 22  1  6  0  0  0
 26 23  1  0  0  0  0
 26 25  1  0  0  0  0
 28 27  1  0  0  0  0
M  END
>  <MODEL>
1

>  <REMARK>
 VINA RESULT:      -7.7      0.000      0.000
  Name = 
  9 active torsions:
  status: ('A' for Active; 'I' for Inactive)
    1  A    between atoms: C_3  and  O_21
    2  A    between atoms: C_5  and  C_8
    3  A    between atoms: C_6  and  O_21
    4  A    between atoms: C_8  and  C_9
    5  A    between atoms: C_8  and  N_26
    6  A    between atoms: C_13  and  C_18
    7  A    between atoms: C_18  and  C_27
    8  A    between atoms: C_25  and  N_26
    9  A    between atoms: C_25  and  C_27
                            x       y       z     vdW  Elec       q    Type
                         _______ _______ _______ _____ _____    ______ ____

>  <TORSDO>
F 9

$$$$
=
 OpenBabel11062416453D

 28 31  0  0  1  0  0  0  0  0999 V2000
  187.7140  177.1770  144.7840 C   0  0  1  0  0  3  0  0  0  0  0  0
  188.9680  176.7450  146.8030 O   0  0  0  0  0  0  0  0  0  0  0  0
  188.6470  177.7500  145.8550 C   0  0  1  0  0  3  0  0  0  0  0  0
  189.9320  178.3340  145.2650 C   0  0  0  0  0  2  0  0  0  0  0  0
  192.0160  175.9210  146.5570 C   0  0  0  0  0  3  0  0  0  0  0  0
  190.9180  177.7270  146.1470 C   0  0  2  0  0  3  0  0  0  0  0  0
  191.0740  175.8770  147.4400 N   0  0  0  0  0  0  0  0  0  0  0  0
  191.9100  177.0420  145.6900 N   0  0  0  0  0  2  0  0  0  0  0  0
  190.2550  177.0660  147.2670 C   0  0  2  0  0  3  0  0  0  0  0  0
  184.3430  178.6250  143.7300 C   0  0  0  0  0  0  0  0  0  0  0  0
  186.3440  177.7820  144.8350 C   0  0  0  0  0  0  0  0  0  0  0  0
  183.7990  178.9440  144.9790 C   0  0  0  0  0  3  0  0  0  0  0  0
  185.7880  178.1060  146.0770 C   0  0  0  0  0  3  0  0  0  0  0  0
  184.5190  178.6840  146.1490 C   0  0  0  0  0  3  0  0  0  0  0  0
  185.6210  178.0460  143.6630 C   0  0  0  0  0  3  0  0  0  0  0  0
  183.6010  178.9000  142.5780 O   0  0  0  0  0  0  0  0  0  0  0  0
  184.0370  178.5470  141.2700 C   0  0  0  0  0  2  0  0  0  0  0  0
  183.5440  177.2990  140.9330 F   0  0  0  0  0  0  0  0  0  0  0  0
  188.2930  177.2890  143.4490 N   0  0  0  0  0  2  0  0  0  0  0  0
  188.7310  175.9610  143.0540 C   0  0  0  0  0  2  0  0  0  0  0  0
  190.1370  176.0300  142.4920 C   0  0  0  0  0  2  0  0  0  0  0  0
  190.2970  177.3070  141.6900 C   0  0  0  0  0  2  0  0  0  0  0  0
  191.2990  176.9780  139.4420 C   0  0  0  0  0  2  0  0  0  0  0  0
  189.0250  178.1220  138.1550 C   0  0  0  0  0  3  0  0  0  0  0  0
  189.1350  178.1870  139.6570 C   0  0  0  0  0  2  0  0  0  0  0  0
  189.9950  177.0540  140.2240 C   0  0  2  0  0  3  0  0  0  0  0  0
  189.9010  177.4420  137.3980 C   0  0  0  0  0  3  0  0  0  0  0  0
  190.9990  176.5980  137.9930 C   0  0  0  0  0  2  0  0  0  0  0  0
  1 19  1  6  0  0  0
  1 11  1  0  0  0  0
  3  1  1  6  0  0  0
  3  2  1  0  0  0  0
  4  3  1  0  0  0  0
  5  7  2  0  0  0  0
  6  4  1  6  0  0  0
  6  9  1  0  0  0  0
  8  6  1  0  0  0  0
  8  5  1  0  0  0  0
  9  2  1  6  0  0  0
  9  7  1  0  0  0  0
 10 12  1  0  0  0  0
 11 13  2  0  0  0  0
 12 14  2  0  0  0  0
 13 14  1  0  0  0  0
 15 10  2  0  0  0  0
 15 11  1  0  0  0  0
 16 10  1  0  0  0  0
 17 16  1  0  0  0  0
 18 17  1  0  0  0  0
 20 19  1  0  0  0  0
 21 20  1  0  0  0  0
 22 21  1  0  0  0  0
 23 26  1  0  0  0  0
 24 25  1  0  0  0  0
 25 26  1  0  0  0  0
 26 22  1  1  0  0  0
 27 28  1  0  0  0  0
 27 24  2  0  0  0  0
 28 23  1  0  0  0  0
M  END
>  <MODEL>
2

>  <REMARK>
 VINA RESULT:      -7.4      3.404      7.621
  Name = 
  9 active torsions:
  status: ('A' for Active; 'I' for Inactive)
    1  A    between atoms: C_3  and  O_21
    2  A    between atoms: C_5  and  C_8
    3  A    between atoms: C_6  and  O_21
    4  A    between atoms: C_8  and  C_9
    5  A    between atoms: C_8  and  N_26
    6  A    between atoms: C_13  and  C_18
    7  A    between atoms: C_18  and  C_27
    8  A    between atoms: C_25  and  N_26
    9  A    between atoms: C_25  and  C_27
                            x       y       z     vdW  Elec       q    Type
                         _______ _______ _______ _____ _____    ______ ____

>  <TORSDO>
F 9

$$$$
=
 OpenBabel11062416453D

 28 31  0  0  1  0  0  0  0  0999 V2000
  188.5960  177.6740  140.5910 C   0  0  1  0  0  3  0  0  0  0  0  0
  188.4890  176.6170  138.4210 O   0  0  0  0  0  0  0  0  0  0  0  0
  189.2000  177.5770  139.1870 C   0  0  1  0  0  3  0  0  0  0  0  0
  189.2070  178.9200  138.4550 C   0  0  0  0  0  2  0  0  0  0  0  0
  186.8440  178.0350  136.1150 C   0  0  0  0  0  3  0  0  0  0  0  0
  188.6610  178.5150  137.1680 C   0  0  2  0  0  3  0  0  0  0  0  0
  187.3290  176.8660  136.3750 N   0  0  0  0  0  0  0  0  0  0  0  0
  187.6290  179.0910  136.6540 N   0  0  0  0  0  2  0  0  0  0  0  0
  188.5800  177.0590  137.0910 C   0  0  2  0  0  3  0  0  0  0  0  0
  190.2950  177.7010  144.0090 C   0  0  0  0  0  0  0  0  0  0  0  0
  189.6330  177.5730  141.6680 C   0  0  0  0  0  0  0  0  0  0  0  0
  191.6120  177.4050  143.6430 C   0  0  0  0  0  3  0  0  0  0  0  0
  190.9540  177.2790  141.3160 C   0  0  0  0  0  3  0  0  0  0  0  0
  191.9410  177.1930  142.3010 C   0  0  0  0  0  3  0  0  0  0  0  0
  189.3070  177.7870  143.0150 C   0  0  0  0  0  3  0  0  0  0  0  0
  189.9980  177.9110  145.3590 O   0  0  0  0  0  0  0  0  0  0  0  0
  190.4900  177.0760  146.4010 C   0  0  0  0  0  2  0  0  0  0  0  0
  189.4300  176.5260  147.1000 F   0  0  0  0  0  0  0  0  0  0  0  0
  187.7860  178.8770  140.7470 N   0  0  0  0  0  2  0  0  0  0  0  0
  186.3940  178.4840  140.6070 C   0  0  0  0  0  2  0  0  0  0  0  0
  185.5340  179.2810  141.5680 C   0  0  0  0  0  2  0  0  0  0  0  0
  184.8500  178.3340  142.5360 C   0  0  0  0  0  2  0  0  0  0  0  0
  186.2020  177.5960  144.4840 C   0  0  0  0  0  2  0  0  0  0  0  0
  184.3590  178.7580  146.3250 C   0  0  0  0  0  3  0  0  0  0  0  0
  184.0030  178.6990  144.8610 C   0  0  0  0  0  2  0  0  0  0  0  0
  185.2440  178.6600  143.9650 C   0  0  2  0  0  3  0  0  0  0  0  0
  185.5640  178.3900  146.7880 C   0  0  0  0  0  3  0  0  0  0  0  0
  186.6950  177.9930  145.8740 C   0  0  0  0  0  2  0  0  0  0  0  0
  1 19  1  6  0  0  0
  1 11  1  0  0  0  0
  2  3  1  0  0  0  0
  3  1  1  1  0  0  0
  4  3  1  0  0  0  0
  5  7  2  0  0  0  0
  5  8  1  0  0  0  0
  6  4  1  1  0  0  0
  8  6  1  0  0  0  0
  9  7  1  6  0  0  0
  9  6  1  0  0  0  0
  9  2  1  0  0  0  0
 10 16  1  0  0  0  0
 11 15  1  0  0  0  0
 12 10  1  0  0  0  0
 13 11  2  0  0  0  0
 13 14  1  0  0  0  0
 14 12  2  0  0  0  0
 15 10  2  0  0  0  0
 16 17  1  0  0  0  0
 17 18  1  0  0  0  0
 20 19  1  0  0  0  0
 20 21  1  0  0  0  0
 21 22  1  0  0  0  0
 23 28  1  0  0  0  0
 24 27  2  0  0  0  0
 25 24  1  0  0  0  0
 26 22  1  6  0  0  0
 26 23  1  0  0  0  0
 26 25  1  0  0  0  0
 28 27  1  0  0  0  0
M  END
>  <MODEL>
3

>  <REMARK>
 VINA RESULT:      -7.3      1.909      2.541
  Name = 
  9 active torsions:
  status: ('A' for Active; 'I' for Inactive)
    1  A    between atoms: C_3  and  O_21
    2  A    between atoms: C_5  and  C_8
    3  A    between atoms: C_6  and  O_21
    4  A    between atoms: C_8  and  C_9
    5  A    between atoms: C_8  and  N_26
    6  A    between atoms: C_13  and  C_18
    7  A    between atoms: C_18  and  C_27
    8  A    between atoms: C_25  and  N_26
    9  A    between atoms: C_25  and  C_27
                            x       y       z     vdW  Elec       q    Type
                         _______ _______ _______ _____ _____    ______ ____

>  <TORSDO>
F 9

$$$$
=
 OpenBabel11062416453D

 28 31  0  0  1  0  0  0  0  0999 V2000
  187.1510  177.1130  144.9390 C   0  0  1  0  0  3  0  0  0  0  0  0
  188.9770  178.3830  143.9960 O   0  0  0  0  0  0  0  0  0  0  0  0
  187.9050  177.5150  143.6670 C   0  0  1  0  0  3  0  0  0  0  0  0
  188.4360  176.3080  142.8910 C   0  0  0  0  0  2  0  0  0  0  0  0
  191.7570  176.9390  143.5290 C   0  0  0  0  0  3  0  0  0  0  0  0
  189.8030  176.7420  142.6460 C   0  0  2  0  0  3  0  0  0  0  0  0
  191.2980  178.1440  143.6050 N   0  0  0  0  0  0  0  0  0  0  0  0
  190.8170  176.0220  142.9850 N   0  0  0  0  0  2  0  0  0  0  0  0
  189.9640  178.1430  143.0260 C   0  0  2  0  0  3  0  0  0  0  0  0
  189.9440  177.3530  147.5290 C   0  0  0  0  0  0  0  0  0  0  0  0
  187.9140  177.4440  146.1850 C   0  0  0  0  0  0  0  0  0  0  0  0
  189.2910  178.0600  148.5450 C   0  0  0  0  0  3  0  0  0  0  0  0
  187.2740  178.1490  147.2090 C   0  0  0  0  0  3  0  0  0  0  0  0
  187.9610  178.4580  148.3860 C   0  0  0  0  0  3  0  0  0  0  0  0
  189.2480  177.0450  146.3490 C   0  0  0  0  0  3  0  0  0  0  0  0
  191.2740  176.9660  147.7200 O   0  0  0  0  0  0  0  0  0  0  0  0
  191.8680  175.8680  147.0370 C   0  0  0  0  0  2  0  0  0  0  0  0
  193.0450  175.5060  147.6680 F   0  0  0  0  0  0  0  0  0  0  0  0
  185.8090  177.6840  144.9730 N   0  0  0  0  0  2  0  0  0  0  0  0
  185.5830  178.3360  143.6930 C   0  0  0  0  0  2  0  0  0  0  0  0
  184.5500  179.4340  143.8510 C   0  0  0  0  0  2  0  0  0  0  0  0
  183.2730  178.8460  144.4210 C   0  0  0  0  0  2  0  0  0  0  0  0
  180.8400  178.4960  144.0660 C   0  0  0  0  0  2  0  0  0  0  0  0
  181.1180  178.7470  141.2380 C   0  0  0  0  0  3  0  0  0  0  0  0
  182.3540  178.6820  142.1000 C   0  0  0  0  0  2  0  0  0  0  0  0
  182.0920  179.1750  143.5260 C   0  0  2  0  0  3  0  0  0  0  0  0
  179.8820  178.8080  141.7570 C   0  0  0  0  0  3  0  0  0  0  0  0
  179.6320  178.9300  143.2390 C   0  0  0  0  0  2  0  0  0  0  0  0
  1 19  1  1  0  0  0
  1 11  1  0  0  0  0
  3  2  1  0  0  0  0
  3  1  1  1  0  0  0
  4  3  1  0  0  0  0
  5  7  2  0  0  0  0
  6  4  1  1  0  0  0
  6  8  1  0  0  0  0
  6  9  1  0  0  0  0
  8  5  1  0  0  0  0
  9  7  1  1  0  0  0
  9  2  1  0  0  0  0
 10 16  1  0  0  0  0
 10 12  1  0  0  0  0
 11 15  1  0  0  0  0
 11 13  2  0  0  0  0
 13 14  1  0  0  0  0
 14 12  2  0  0  0  0
 15 10  2  0  0  0  0
 17 18  1  0  0  0  0
 17 16  1  0  0  0  0
 20 21  1  0  0  0  0
 20 19  1  0  0  0  0
 21 22  1  0  0  0  0
 24 27  2  0  0  0  0
 24 25  1  0  0  0  0
 25 26  1  0  0  0  0
 26 23  1  0  0  0  0
 26 22  1  1  0  0  0
 27 28  1  0  0  0  0
 28 23  1  0  0  0  0
M  END
>  <MODEL>
4

>  <REMARK>
 VINA RESULT:      -7.3      3.423      5.560
  Name = 
  9 active torsions:
  status: ('A' for Active; 'I' for Inactive)
    1  A    between atoms: C_3  and  O_21
    2  A    between atoms: C_5  and  C_8
    3  A    between atoms: C_6  and  O_21
    4  A    between atoms: C_8  and  C_9
    5  A    between atoms: C_8  and  N_26
    6  A    between atoms: C_13  and  C_18
    7  A    between atoms: C_18  and  C_27
    8  A    between atoms: C_25  and  N_26
    9  A    between atoms: C_25  and  C_27
                            x       y       z     vdW  Elec       q    Type
                         _______ _______ _______ _____ _____    ______ ____

>  <TORSDO>
F 9

$$$$
=
 OpenBabel11062416453D

 28 31  0  0  1  0  0  0  0  0999 V2000
  189.2000  177.5110  140.6880 C   0  0  1  0  0  3  0  0  0  0  0  0
  190.6180  175.9420  139.5200 O   0  0  0  0  0  0  0  0  0  0  0  0
  190.2480  177.3090  139.5890 C   0  0  1  0  0  3  0  0  0  0  0  0
  189.7610  177.7820  138.2180 C   0  0  0  0  0  2  0  0  0  0  0  0
  189.5620  174.6390  136.8330 C   0  0  0  0  0  3  0  0  0  0  0  0
  190.1340  176.6360  137.4030 C   0  0  2  0  0  3  0  0  0  0  0  0
  190.4830  174.4220  137.7130 N   0  0  0  0  0  0  0  0  0  0  0  0
  189.2790  176.0210  136.6600 N   0  0  0  0  0  2  0  0  0  0  0  0
  190.9610  175.7150  138.1770 C   0  0  2  0  0  3  0  0  0  0  0  0
  189.6300  177.1530  144.4640 C   0  0  0  0  0  0  0  0  0  0  0  0
  189.8020  177.5100  142.0600 C   0  0  0  0  0  0  0  0  0  0  0  0
  190.9630  177.5540  144.6090 C   0  0  0  0  0  3  0  0  0  0  0  0
  191.1330  177.9090  142.2190 C   0  0  0  0  0  3  0  0  0  0  0  0
  191.7130  177.9290  143.4900 C   0  0  0  0  0  3  0  0  0  0  0  0
  189.0520  177.1350  143.1840 C   0  0  0  0  0  3  0  0  0  0  0  0
  188.9050  176.7870  145.6010 O   0  0  0  0  0  0  0  0  0  0  0  0
  189.3050  177.1350  146.9220 C   0  0  0  0  0  2  0  0  0  0  0  0
  188.5740  178.2250  147.3610 F   0  0  0  0  0  0  0  0  0  0  0  0
  188.4040  178.7120  140.4600 N   0  0  0  0  0  2  0  0  0  0  0  0
  187.0050  178.3190  140.4960 C   0  0  0  0  0  2  0  0  0  0  0  0
  186.2730  179.1160  141.5570 C   0  0  0  0  0  2  0  0  0  0  0  0
  184.8880  178.5320  141.7600 C   0  0  0  0  0  2  0  0  0  0  0  0
  183.7420  179.3150  143.8190 C   0  0  0  0  0  2  0  0  0  0  0  0
  185.7710  178.2030  145.4870 C   0  0  0  0  0  3  0  0  0  0  0  0
  185.9730  178.2270  143.9930 C   0  0  0  0  0  2  0  0  0  0  0  0
  184.6460  178.2400  143.2300 C   0  0  2  0  0  3  0  0  0  0  0  0
  184.6190  178.5810  146.0630 C   0  0  0  0  0  3  0  0  0  0  0  0
  183.3980  178.9520  145.2610 C   0  0  0  0  0  2  0  0  0  0  0  0
  1 19  1  6  0  0  0
  1 11  1  0  0  0  0
  2  3  1  0  0  0  0
  3  1  1  1  0  0  0
  4  3  1  0  0  0  0
  5  7  2  0  0  0  0
  6  9  1  0  0  0  0
  6  4  1  1  0  0  0
  8  5  1  0  0  0  0
  8  6  1  0  0  0  0
  9  7  1  6  0  0  0
  9  2  1  0  0  0  0
 10 12  1  0  0  0  0
 10 16  1  0  0  0  0
 11 13  2  0  0  0  0
 11 15  1  0  0  0  0
 13 14  1  0  0  0  0
 14 12  2  0  0  0  0
 15 10  2  0  0  0  0
 16 17  1  0  0  0  0
 17 18  1  0  0  0  0
 19 20  1  0  0  0  0
 20 21  1  0  0  0  0
 21 22  1  0  0  0  0
 23 28  1  0  0  0  0
 24 27  2  0  0  0  0
 25 24  1  0  0  0  0
 26 22  1  6  0  0  0
 26 23  1  0  0  0  0
 26 25  1  0  0  0  0
 28 27  1  0  0  0  0
M  END
>  <MODEL>
5

>  <REMARK>
 VINA RESULT:      -7.2      1.751      2.651
  Name = 
  9 active torsions:
  status: ('A' for Active; 'I' for Inactive)
    1  A    between atoms: C_3  and  O_21
    2  A    between atoms: C_5  and  C_8
    3  A    between atoms: C_6  and  O_21
    4  A    between atoms: C_8  and  C_9
    5  A    between atoms: C_8  and  N_26
    6  A    between atoms: C_13  and  C_18
    7  A    between atoms: C_18  and  C_27
    8  A    between atoms: C_25  and  N_26
    9  A    between atoms: C_25  and  C_27
                            x       y       z     vdW  Elec       q    Type
                         _______ _______ _______ _____ _____    ______ ____

>  <TORSDO>
F 9

$$$$
=
 OpenBabel11062416453D

 28 31  0  0  1  0  0  0  0  0999 V2000
  188.4890  178.1440  141.0020 C   0  0  1  0  0  3  0  0  0  0  0  0
  189.4490  178.5390  138.8200 O   0  0  0  0  0  0  0  0  0  0  0  0
  188.2200  178.4240  139.5200 C   0  0  1  0  0  3  0  0  0  0  0  0
  187.3510  177.3480  138.8650 C   0  0  0  0  0  2  0  0  0  0  0  0
  189.8440  176.0810  136.8610 C   0  0  0  0  0  3  0  0  0  0  0  0
  188.1190  177.0980  137.6550 C   0  0  2  0  0  3  0  0  0  0  0  0
  190.2710  177.2940  136.9840 N   0  0  0  0  0  0  0  0  0  0  0  0
  188.5130  175.9140  137.3310 N   0  0  0  0  0  2  0  0  0  0  0  0
  189.1780  178.0930  137.5150 C   0  0  2  0  0  3  0  0  0  0  0  0
  186.0510  177.9870  143.9340 C   0  0  0  0  0  0  0  0  0  0  0  0
  187.2650  178.3180  141.8480 C   0  0  0  0  0  0  0  0  0  0  0  0
  184.9440  178.6420  143.3820 C   0  0  0  0  0  3  0  0  0  0  0  0
  186.1520  178.9710  141.3090 C   0  0  0  0  0  3  0  0  0  0  0  0
  184.9950  179.1340  142.0750 C   0  0  0  0  0  3  0  0  0  0  0  0
  187.2110  177.8250  143.1590 C   0  0  0  0  0  3  0  0  0  0  0  0
  185.9680  177.5020  145.2420 O   0  0  0  0  0  0  0  0  0  0  0  0
  185.3760  178.2380  146.3070 C   0  0  0  0  0  2  0  0  0  0  0  0
  186.0280  179.4490  146.4590 F   0  0  0  0  0  0  0  0  0  0  0  0
  189.0880  176.8280  141.2010 N   0  0  0  0  0  2  0  0  0  0  0  0
  190.5040  177.0310  141.4600 C   0  0  0  0  0  2  0  0  0  0  0  0
  190.8410  176.5750  142.8650 C   0  0  0  0  0  2  0  0  0  0  0  0
  191.6200  177.6650  143.5750 C   0  0  0  0  0  2  0  0  0  0  0  0
  191.6140  176.3880  145.7040 C   0  0  0  0  0  2  0  0  0  0  0  0
  189.2800  177.7460  146.6250 C   0  0  0  0  0  3  0  0  0  0  0  0
  189.7440  177.9510  145.2040 C   0  0  0  0  0  2  0  0  0  0  0  0
  191.2480  177.7110  145.0460 C   0  0  2  0  0  3  0  0  0  0  0  0
  189.9890  177.0360  147.5170 C   0  0  0  0  0  3  0  0  0  0  0  0
  191.3560  176.4810  147.2070 C   0  0  0  0  0  2  0  0  0  0  0  0
  1 19  1  6  0  0  0
  1 11  1  0  0  0  0
  2  3  1  0  0  0  0
  3  1  1  1  0  0  0
  4  3  1  0  0  0  0
  5  7  2  0  0  0  0
  5  8  1  0  0  0  0
  6  4  1  1  0  0  0
  8  6  1  0  0  0  0
  9  7  1  1  0  0  0
  9  6  1  0  0  0  0
  9  2  1  0  0  0  0
 10 16  1  0  0  0  0
 11 15  1  0  0  0  0
 12 10  1  0  0  0  0
 13 11  2  0  0  0  0
 13 14  1  0  0  0  0
 14 12  2  0  0  0  0
 15 10  2  0  0  0  0
 16 17  1  0  0  0  0
 17 18  1  0  0  0  0
 19 20  1  0  0  0  0
 20 21  1  0  0  0  0
 21 22  1  0  0  0  0
 23 28  1  0  0  0  0
 24 27  2  0  0  0  0
 25 24  1  0  0  0  0
 26 22  1  6  0  0  0
 26 25  1  0  0  0  0
 26 23  1  0  0  0  0
 28 27  1  0  0  0  0
M  END
>  <MODEL>
6

>  <REMARK>
 VINA RESULT:      -6.9      2.260      4.098
  Name = 
  9 active torsions:
  status: ('A' for Active; 'I' for Inactive)
    1  A    between atoms: C_3  and  O_21
    2  A    between atoms: C_5  and  C_8
    3  A    between atoms: C_6  and  O_21
    4  A    between atoms: C_8  and  C_9
    5  A    between atoms: C_8  and  N_26
    6  A    between atoms: C_13  and  C_18
    7  A    between atoms: C_18  and  C_27
    8  A    between atoms: C_25  and  N_26
    9  A    between atoms: C_25  and  C_27
                            x       y       z     vdW  Elec       q    Type
                         _______ _______ _______ _____ _____    ______ ____

>  <TORSDO>
F 9

$$$$
=
 OpenBabel11062416453D

 28 31  0  0  1  0  0  0  0  0999 V2000
  185.6650  179.0040  142.2330 C   0  0  1  0  0  3  0  0  0  0  0  0
  184.6120  179.6060  140.1430 O   0  0  0  0  0  0  0  0  0  0  0  0
  184.3490  179.1700  141.4670 C   0  0  1  0  0  3  0  0  0  0  0  0
  183.5210  177.8840  141.4340 C   0  0  0  0  0  2  0  0  0  0  0  0
  183.9290  177.3140  138.0660 C   0  0  0  0  0  3  0  0  0  0  0  0
  183.1840  177.8320  140.0190 C   0  0  2  0  0  3  0  0  0  0  0  0
  184.0530  178.6000  138.0760 N   0  0  0  0  0  0  0  0  0  0  0  0
  183.4410  176.7960  139.2960 N   0  0  0  0  0  2  0  0  0  0  0  0
  183.5700  179.0770  139.3630 C   0  0  2  0  0  3  0  0  0  0  0  0
  186.1640  177.8260  145.8290 C   0  0  0  0  0  0  0  0  0  0  0  0
  185.4500  178.7620  143.6950 C   0  0  0  0  0  0  0  0  0  0  0  0
  184.9910  178.3070  146.4210 C   0  0  0  0  0  3  0  0  0  0  0  0
  184.2820  179.2360  144.3000 C   0  0  0  0  0  3  0  0  0  0  0  0
  184.0530  179.0110  145.6600 C   0  0  0  0  0  3  0  0  0  0  0  0
  186.3880  178.0550  144.4610 C   0  0  0  0  0  3  0  0  0  0  0  0
  187.0810  177.1220  146.6150 O   0  0  0  0  0  0  0  0  0  0  0  0
  187.5650  177.6050  147.8630 C   0  0  0  0  0  2  0  0  0  0  0  0
  188.2040  178.8180  147.6800 F   0  0  0  0  0  0  0  0  0  0  0  0
  186.5040  177.9670  141.6420 N   0  0  0  0  0  2  0  0  0  0  0  0
  187.6270  178.6310  141.0000 C   0  0  0  0  0  2  0  0  0  0  0  0
  188.9170  178.2520  141.7010 C   0  0  0  0  0  2  0  0  0  0  0  0
  188.8670  176.7870  142.0910 C   0  0  0  0  0  2  0  0  0  0  0  0
  189.8560  177.9200  144.0670 C   0  0  0  0  0  2  0  0  0  0  0  0
  191.6990  175.7850  144.4900 C   0  0  0  0  0  3  0  0  0  0  0  0
  190.8570  175.7980  143.2390 C   0  0  0  0  0  2  0  0  0  0  0  0
  189.5500  176.5710  143.4300 C   0  0  2  0  0  3  0  0  0  0  0  0
  191.5360  176.6800  145.4770 C   0  0  0  0  0  3  0  0  0  0  0  0
  190.4260  177.7010  145.4660 C   0  0  0  0  0  2  0  0  0  0  0  0
  1 19  1  6  0  0  0
  1 11  1  0  0  0  0
  2  3  1  0  0  0  0
  3  1  1  6  0  0  0
  4  3  1  0  0  0  0
  5  7  2  0  0  0  0
  5  8  1  0  0  0  0
  6  4  1  1  0  0  0
  8  6  1  0  0  0  0
  9  7  1  6  0  0  0
  9  6  1  0  0  0  0
  9  2  1  0  0  0  0
 10 12  1  0  0  0  0
 10 16  1  0  0  0  0
 11 13  2  0  0  0  0
 11 15  1  0  0  0  0
 13 14  1  0  0  0  0
 14 12  2  0  0  0  0
 15 10  2  0  0  0  0
 16 17  1  0  0  0  0
 18 17  1  0  0  0  0
 20 19  1  0  0  0  0
 20 21  1  0  0  0  0
 21 22  1  0  0  0  0
 23 28  1  0  0  0  0
 24 27  2  0  0  0  0
 25 26  1  0  0  0  0
 25 24  1  0  0  0  0
 26 22  1  6  0  0  0
 26 23  1  0  0  0  0
 28 27  1  0  0  0  0
M  END
>  <MODEL>
7

>  <REMARK>
 VINA RESULT:      -6.8      3.205      5.447
  Name = 
  9 active torsions:
  status: ('A' for Active; 'I' for Inactive)
    1  A    between atoms: C_3  and  O_21
    2  A    between atoms: C_5  and  C_8
    3  A    between atoms: C_6  and  O_21
    4  A    between atoms: C_8  and  C_9
    5  A    between atoms: C_8  and  N_26
    6  A    between atoms: C_13  and  C_18
    7  A    between atoms: C_18  and  C_27
    8  A    between atoms: C_25  and  N_26
    9  A    between atoms: C_25  and  C_27
                            x       y       z     vdW  Elec       q    Type
                         _______ _______ _______ _____ _____    ______ ____

>  <TORSDO>
F 9

$$$$
=
 OpenBabel11062416453D

 28 31  0  0  1  0  0  0  0  0999 V2000
  189.5560  177.5800  140.5840 C   0  0  1  0  0  3  0  0  0  0  0  0
  191.3840  177.7900  142.1500 O   0  0  0  0  0  0  0  0  0  0  0  0
  190.5360  176.8510  141.5080 C   0  0  1  0  0  3  0  0  0  0  0  0
  189.8280  175.9920  142.5570 C   0  0  0  0  0  2  0  0  0  0  0  0
  190.7290  177.9400  145.2460 C   0  0  0  0  0  3  0  0  0  0  0  0
  190.5510  176.3980  143.7530 C   0  0  2  0  0  3  0  0  0  0  0  0
  191.7160  178.2060  144.4550 N   0  0  0  0  0  0  0  0  0  0  0  0
  189.9430  176.8440  144.7980 N   0  0  0  0  0  2  0  0  0  0  0  0
  191.7060  177.2150  143.3910 C   0  0  2  0  0  3  0  0  0  0  0  0
  188.5650  176.4490  137.0760 C   0  0  0  0  0  0  0  0  0  0  0  0
  189.6320  177.0920  139.1700 C   0  0  0  0  0  0  0  0  0  0  0  0
  189.8210  176.1470  136.5400 C   0  0  0  0  0  3  0  0  0  0  0  0
  190.8810  176.7860  138.6210 C   0  0  0  0  0  3  0  0  0  0  0  0
  190.9760  176.3160  137.3080 C   0  0  0  0  0  3  0  0  0  0  0  0
  188.4750  176.9200  138.3960 C   0  0  0  0  0  3  0  0  0  0  0  0
  187.4280  176.2660  136.2840 O   0  0  0  0  0  0  0  0  0  0  0  0
  186.6580  177.3460  135.7690 C   0  0  0  0  0  2  0  0  0  0  0  0
  187.4720  178.4450  135.5630 F   0  0  0  0  0  0  0  0  0  0  0  0
  188.1900  177.5200  141.0920 N   0  0  0  0  0  2  0  0  0  0  0  0
  187.8050  178.8720  141.4630 C   0  0  0  0  0  2  0  0  0  0  0  0
  186.2950  178.9790  141.5220 C   0  0  0  0  0  2  0  0  0  0  0  0
  185.7500  177.9130  142.4540 C   0  0  0  0  0  2  0  0  0  0  0  0
  186.5260  177.3840  144.7530 C   0  0  0  0  0  2  0  0  0  0  0  0
  184.3360  178.7910  145.9190 C   0  0  0  0  0  3  0  0  0  0  0  0
  184.3600  178.5670  144.4290 C   0  0  0  0  0  2  0  0  0  0  0  0
  185.7850  178.3980  143.8920 C   0  0  2  0  0  3  0  0  0  0  0  0
  185.3650  178.4560  146.7150 C   0  0  0  0  0  3  0  0  0  0  0  0
  186.6700  177.9320  146.1710 C   0  0  0  0  0  2  0  0  0  0  0  0
  1 19  1  1  0  0  0
  3  1  1  1  0  0  0
  3  2  1  0  0  0  0
  3  4  1  0  0  0  0
  6  4  1  6  0  0  0
  6  8  1  0  0  0  0
  7  5  2  0  0  0  0
  8  5  1  0  0  0  0
  9  2  1  6  0  0  0
  9  6  1  0  0  0  0
  9  7  1  0  0  0  0
 10 15  1  0  0  0  0
 11  1  1  0  0  0  0
 12 10  2  0  0  0  0
 12 14  1  0  0  0  0
 13 11  1  0  0  0  0
 14 13  2  0  0  0  0
 15 11  2  0  0  0  0
 16 10  1  0  0  0  0
 17 16  1  0  0  0  0
 18 17  1  0  0  0  0
 19 20  1  0  0  0  0
 20 21  1  0  0  0  0
 21 22  1  0  0  0  0
 23 28  1  0  0  0  0
 24 27  2  0  0  0  0
 25 24  1  0  0  0  0
 26 22  1  6  0  0  0
 26 25  1  0  0  0  0
 26 23  1  0  0  0  0
 28 27  1  0  0  0  0
M  END
>  <MODEL>
8

>  <REMARK>
 VINA RESULT:      -6.7      3.205      6.084
  Name = 
  9 active torsions:
  status: ('A' for Active; 'I' for Inactive)
    1  A    between atoms: C_3  and  O_21
    2  A    between atoms: C_5  and  C_8
    3  A    between atoms: C_6  and  O_21
    4  A    between atoms: C_8  and  C_9
    5  A    between atoms: C_8  and  N_26
    6  A    between atoms: C_13  and  C_18
    7  A    between atoms: C_18  and  C_27
    8  A    between atoms: C_25  and  N_26
    9  A    between atoms: C_25  and  C_27
                            x       y       z     vdW  Elec       q    Type
                         _______ _______ _______ _____ _____    ______ ____

>  <TORSDO>
F 9

$$$$
=
 OpenBabel11062416453D

 28 31  0  0  1  0  0  0  0  0999 V2000
  190.1340  177.5020  140.5800 C   0  0  1  0  0  3  0  0  0  0  0  0
  191.5390  177.9620  142.4900 O   0  0  0  0  0  0  0  0  0  0  0  0
  190.9980  176.9150  141.7000 C   0  0  1  0  0  3  0  0  0  0  0  0
  190.2260  175.9410  142.5910 C   0  0  0  0  0  2  0  0  0  0  0  0
  190.2350  177.9600  145.3770 C   0  0  0  0  0  3  0  0  0  0  0  0
  190.6110  176.4330  143.9060 C   0  0  2  0  0  3  0  0  0  0  0  0
  191.3120  178.3870  144.8060 N   0  0  0  0  0  0  0  0  0  0  0  0
  189.7370  176.7640  144.7920 N   0  0  0  0  0  2  0  0  0  0  0  0
  191.6770  177.4230  143.7800 C   0  0  2  0  0  3  0  0  0  0  0  0
  192.1880  176.3340  137.5820 C   0  0  0  0  0  0  0  0  0  0  0  0
  190.5100  176.9720  139.2300 C   0  0  0  0  0  0  0  0  0  0  0  0
  191.1670  176.0060  136.6840 C   0  0  0  0  0  3  0  0  0  0  0  0
  189.5000  176.6410  138.3220 C   0  0  0  0  0  3  0  0  0  0  0  0
  189.8270  176.1570  137.0520 C   0  0  0  0  0  3  0  0  0  0  0  0
  191.8540  176.8200  138.8570 C   0  0  0  0  0  3  0  0  0  0  0  0
  193.5180  176.1750  137.1840 O   0  0  0  0  0  0  0  0  0  0  0  0
  194.2250  174.9460  137.3080 C   0  0  0  0  0  2  0  0  0  0  0  0
  193.3890  173.9760  137.8310 F   0  0  0  0  0  0  0  0  0  0  0  0
  188.7110  177.3150  140.8430 N   0  0  0  0  0  2  0  0  0  0  0  0
  188.0880  178.6280  140.8140 C   0  0  0  0  0  2  0  0  0  0  0  0
  186.8380  178.6240  141.6710 C   0  0  0  0  0  2  0  0  0  0  0  0
  187.0500  177.7150  142.8670 C   0  0  0  0  0  2  0  0  0  0  0  0
  184.9620  178.9560  143.3820 C   0  0  0  0  0  2  0  0  0  0  0  0
  185.3080  178.5670  146.1870 C   0  0  0  0  0  3  0  0  0  0  0  0
  186.4160  178.1730  145.2430 C   0  0  0  0  0  2  0  0  0  0  0  0
  185.8940  177.8430  143.8420 C   0  0  2  0  0  3  0  0  0  0  0  0
  184.1100  178.9890  145.7520 C   0  0  0  0  0  3  0  0  0  0  0  0
  183.7360  178.9990  144.2920 C   0  0  0  0  0  2  0  0  0  0  0  0
  1 19  1  1  0  0  0
  3  1  1  6  0  0  0
  3  2  1  0  0  0  0
  3  4  1  0  0  0  0
  6  4  1  6  0  0  0
  6  8  1  0  0  0  0
  7  5  2  0  0  0  0
  8  5  1  0  0  0  0
  9  2  1  6  0  0  0
  9  6  1  0  0  0  0
  9  7  1  0  0  0  0
 10 15  1  0  0  0  0
 11  1  1  0  0  0  0
 12 14  1  0  0  0  0
 12 10  2  0  0  0  0
 13 11  1  0  0  0  0
 14 13  2  0  0  0  0
 15 11  2  0  0  0  0
 16 17  1  0  0  0  0
 16 10  1  0  0  0  0
 17 18  1  0  0  0  0
 20 19  1  0  0  0  0
 20 21  1  0  0  0  0
 21 22  1  0  0  0  0
 23 26  1  0  0  0  0
 23 28  1  0  0  0  0
 25 24  1  0  0  0  0
 26 22  1  6  0  0  0
 26 25  1  0  0  0  0
 27 24  2  0  0  0  0
 28 27  1  0  0  0  0
M  END
>  <MODEL>
9

>  <REMARK>
 VINA RESULT:      -6.7      2.842      5.739
  Name = 
  9 active torsions:
  status: ('A' for Active; 'I' for Inactive)
    1  A    between atoms: C_3  and  O_21
    2  A    between atoms: C_5  and  C_8
    3  A    between atoms: C_6  and  O_21
    4  A    between atoms: C_8  and  C_9
    5  A    between atoms: C_8  and  N_26
    6  A    between atoms: C_13  and  C_18
    7  A    between atoms: C_18  and  C_27
    8  A    between atoms: C_25  and  N_26
    9  A    between atoms: C_25  and  C_27
                            x       y       z     vdW  Elec       q    Type
                         _______ _______ _______ _____ _____    ______ ____

>  <TORSDO>
F 9

$$$$
