=
 OpenBabel11062414433D

 27 30  0  0  1  0  0  0  0  0999 V2000
  181.5000  178.4000  141.2770 N   0  0  0  0  0  2  0  0  0  0  0  0
  184.8280  179.3120  141.8250 N   0  0  0  0  0  0  0  0  0  0  0  0
  182.2280  179.1570  143.3770 N   0  0  0  0  0  0  0  0  0  0  0  0
  183.1930  179.4110  144.3990 C   0  0  0  0  0  3  0  0  0  0  0  0
  184.4740  179.0870  144.2280 C   0  0  0  0  0  0  0  0  0  0  0  0
  184.9590  178.4030  142.9780 C   0  0  1  0  0  3  0  0  0  0  0  0
  183.9400  178.1420  141.9370 C   0  0  1  0  0  3  0  0  0  0  0  0
  182.5320  178.5970  142.2470 C   0  0  0  0  0  0  0  0  0  0  0  0
  187.1240  178.5620  141.6570 C   0  0  0  0  0  1  0  0  0  0  0  0
  185.8760  178.9490  140.8900 C   0  0  0  0  0  2  0  0  0  0  0  0
  185.4550  179.3570  145.3180 C   0  0  0  0  0  2  0  0  0  0  0  0
  185.2670  177.9430  147.0890 O   0  0  0  0  0  1  0  0  0  0  0  0
  185.9170  178.1070  145.9080 N   0  0  0  0  0  0  0  0  0  0  0  0
  187.3540  178.2180  146.1700 C   0  0  1  0  0  3  0  0  0  0  0  0
  189.7830  176.7910  146.5930 N   0  0  2  0  0  0  0  0  0  0  0  0
  187.7660  177.6750  147.5750 C   0  0  0  0  0  2  0  0  0  0  0  0
  188.1590  177.6070  145.0040 C   0  0  0  0  0  2  0  0  0  0  0  0
  191.8610  175.8190  147.5840 C   0  0  0  0  0  1  0  0  0  0  0  0
  189.6050  177.6470  145.4380 C   0  0  2  0  0  3  0  0  0  0  0  0
  189.2940  177.5610  147.7270 C   0  0  0  0  0  2  0  0  0  0  0  0
  191.1730  176.6330  146.5970 N   0  0  0  0  0  0  0  0  0  0  0  0
  191.6520  176.7660  145.2640 C   0  0  0  0  0  2  0  0  0  0  0  0
  190.7090  177.3010  144.5010 C   0  0  0  0  0  2  0  0  0  0  0  0
  181.7580  177.8400  140.0680 O   0  0  0  0  0  0  0  0  0  0  0  0
  181.4180  178.8210  139.1340 C   0  0  1  0  0  3  0  0  0  0  0  0
  182.6680  179.5540  138.6940 C   0  0  0  0  0  1  0  0  0  0  0  0
  180.8190  178.2230  138.0270 O   0  0  0  0  0  1  0  0  0  0  0  0
  1  8  1  0  0  0  0
  2  7  1  0  0  0  0
  2  6  1  0  0  0  0
  3  4  1  0  0  0  0
  5  4  2  0  0  0  0
  5 11  1  0  0  0  0
  6  5  1  1  0  0  0
  7  8  1  1  0  0  0
  7  6  1  0  0  0  0
  8  3  2  0  0  0  0
 10  9  1  0  0  0  0
 10  2  1  0  0  0  0
 11 13  1  0  0  0  0
 13 12  1  0  0  0  0
 14 13  1  6  0  0  0
 14 16  1  0  0  0  0
 15 21  1  0  0  0  0
 15 20  1  1  0  0  0
 16 20  1  0  0  0  0
 17 19  1  0  0  0  0
 17 14  1  0  0  0  0
 19 23  1  6  0  0  0
 19 15  1  0  0  0  0
 21 18  1  0  0  0  0
 22 21  1  0  0  0  0
 23 22  1  0  0  0  0
 24  1  1  0  0  0  0
 25 26  1  6  0  0  0
 25 24  1  0  0  0  0
 27 25  1  0  0  0  0
M  END
>  <MODEL>
1

>  <REMARK>
 VINA RESULT:      -7.8      0.000      0.000
  Name = 
  6 active torsions:
  status: ('A' for Active; 'I' for Inactive)
    1  A    between atoms: C_1  and  C_17
    2  A    between atoms: C_1  and  N_25
    3  A    between atoms: C_2  and  N_25
    4  A    between atoms: O_3  and  C_4
    5  A    between atoms: O_3  and  N_8
    6  A    between atoms: N_10  and  C_22
                            x       y       z     vdW  Elec       q    Type
                         _______ _______ _______ _____ _____    ______ ____

>  <TORSDO>
F 6

$$$$
=
 OpenBabel11062414433D

 27 30  0  0  1  0  0  0  0  0999 V2000
  190.2540  177.2350  147.8060 N   0  0  0  0  0  2  0  0  0  0  0  0
  189.0080  176.5720  144.6110 N   0  0  0  0  0  0  0  0  0  0  0  0
  187.9560  177.3600  147.3430 N   0  0  0  0  0  0  0  0  0  0  0  0
  186.8110  177.5180  146.5030 C   0  0  0  0  0  3  0  0  0  0  0  0
  186.9440  177.7320  145.1950 C   0  0  0  0  0  0  0  0  0  0  0  0
  188.2960  177.8610  144.5460 C   0  0  1  0  0  3  0  0  0  0  0  0
  189.4670  177.7030  145.4360 C   0  0  1  0  0  3  0  0  0  0  0  0
  189.1710  177.4240  146.8930 C   0  0  0  0  0  0  0  0  0  0  0  0
  191.0350  177.4840  143.6510 C   0  0  0  0  0  1  0  0  0  0  0  0
  189.8810  176.5230  143.4530 C   0  0  0  0  0  2  0  0  0  0  0  0
  185.7280  177.9020  144.3490 C   0  0  0  0  0  2  0  0  0  0  0  0
  184.4860  179.0930  145.8360 O   0  0  0  0  0  1  0  0  0  0  0  0
  185.0920  179.1840  144.6240 N   0  0  0  0  0  0  0  0  0  0  0  0
  184.0710  179.4270  143.6020 C   0  0  1  0  0  3  0  0  0  0  0  0
  182.1500  178.2350  141.8680 N   0  0  2  0  0  0  0  0  0  0  0  0
  184.4570  178.8540  142.2000 C   0  0  0  0  0  2  0  0  0  0  0  0
  182.6880  178.9640  144.1060 C   0  0  0  0  0  2  0  0  0  0  0  0
  180.8870  177.4290  139.8680 C   0  0  0  0  0  1  0  0  0  0  0  0
  181.7480  179.1290  142.9350 C   0  0  2  0  0  3  0  0  0  0  0  0
  183.2740  178.8890  141.2150 C   0  0  0  0  0  2  0  0  0  0  0  0
  180.9930  178.2200  141.0820 N   0  0  0  0  0  0  0  0  0  0  0  0
  179.8690  178.4730  141.9170 C   0  0  0  0  0  2  0  0  0  0  0  0
  180.2780  178.9480  143.0860 C   0  0  0  0  0  2  0  0  0  0  0  0
  191.5460  177.2690  147.3940 O   0  0  0  0  0  0  0  0  0  0  0  0
  192.0440  175.9900  147.6530 C   0  0  1  0  0  3  0  0  0  0  0  0
  192.3350  175.2870  146.3430 C   0  0  0  0  0  1  0  0  0  0  0  0
  193.2180  176.0880  148.3970 O   0  0  0  0  0  1  0  0  0  0  0  0
  2  7  1  0  0  0  0
  4  3  1  0  0  0  0
  5  4  2  0  0  0  0
  6  2  1  0  0  0  0
  6  5  1  1  0  0  0
  6  7  1  0  0  0  0
  7  8  1  1  0  0  0
  8  3  2  0  0  0  0
  8  1  1  0  0  0  0
 10  9  1  0  0  0  0
 10  2  1  0  0  0  0
 11 13  1  0  0  0  0
 11  5  1  0  0  0  0
 13 12  1  0  0  0  0
 14 17  1  0  0  0  0
 14 13  1  1  0  0  0
 15 20  1  6  0  0  0
 15 19  1  0  0  0  0
 16 14  1  0  0  0  0
 18 21  1  0  0  0  0
 19 23  1  1  0  0  0
 19 17  1  0  0  0  0
 20 16  1  0  0  0  0
 21 15  1  0  0  0  0
 21 22  1  0  0  0  0
 22 23  1  0  0  0  0
 24 25  1  0  0  0  0
 24  1  1  0  0  0  0
 25 26  1  6  0  0  0
 25 27  1  0  0  0  0
M  END
>  <MODEL>
2

>  <REMARK>
 VINA RESULT:      -7.5      2.565      8.838
  Name = 
  6 active torsions:
  status: ('A' for Active; 'I' for Inactive)
    1  A    between atoms: C_1  and  C_17
    2  A    between atoms: C_1  and  N_25
    3  A    between atoms: C_2  and  N_25
    4  A    between atoms: O_3  and  C_4
    5  A    between atoms: O_3  and  N_8
    6  A    between atoms: N_10  and  C_22
                            x       y       z     vdW  Elec       q    Type
                         _______ _______ _______ _____ _____    ______ ____

>  <TORSDO>
F 6

$$$$
=
 OpenBabel11062414433D

 27 30  0  0  1  0  0  0  0  0999 V2000
  190.1830  177.4520  147.1420 N   0  0  0  0  0  2  0  0  0  0  0  0
  189.3670  176.3690  143.9230 N   0  0  0  0  0  0  0  0  0  0  0  0
  188.0000  177.6580  146.3020 N   0  0  0  0  0  0  0  0  0  0  0  0
  187.0110  177.7580  145.2750 C   0  0  0  0  0  3  0  0  0  0  0  0
  187.3560  177.7470  143.9880 C   0  0  0  0  0  0  0  0  0  0  0  0
  188.7950  177.6760  143.5530 C   0  0  1  0  0  3  0  0  0  0  0  0
  189.8020  177.5830  144.6340 C   0  0  1  0  0  3  0  0  0  0  0  0
  189.2690  177.5650  146.0490 C   0  0  0  0  0  0  0  0  0  0  0  0
  191.1470  177.3430  142.6020 C   0  0  0  0  0  1  0  0  0  0  0  0
  190.3930  176.0740  142.9410 C   0  0  0  0  0  2  0  0  0  0  0  0
  186.3000  177.8620  142.9420 C   0  0  0  0  0  2  0  0  0  0  0  0
  185.6770  179.7450  141.8310 O   0  0  0  0  0  1  0  0  0  0  0  0
  186.6860  178.8430  141.9350 N   0  0  0  0  0  0  0  0  0  0  0  0
  186.8420  178.1560  140.6500 C   0  0  1  0  0  3  0  0  0  0  0  0
  187.3910  178.4660  137.8720 N   0  0  2  0  0  0  0  0  0  0  0  0
  185.7290  178.5260  139.6180 C   0  0  0  0  0  2  0  0  0  0  0  0
  188.2760  178.3440  140.1150 C   0  0  0  0  0  2  0  0  0  0  0  0
  187.2280  178.5240  135.3790 C   0  0  0  0  0  1  0  0  0  0  0  0
  188.2850  177.7240  138.7380 C   0  0  2  0  0  3  0  0  0  0  0  0
  186.0530  178.0030  138.2060 C   0  0  0  0  0  2  0  0  0  0  0  0
  187.8210  178.0360  136.6120 N   0  0  0  0  0  0  0  0  0  0  0  0
  189.1940  177.6750  136.6960 C   0  0  0  0  0  2  0  0  0  0  0  0
  189.5480  177.5530  137.9680 C   0  0  0  0  0  2  0  0  0  0  0  0
  191.5190  177.3300  146.9430 O   0  0  0  0  0  0  0  0  0  0  0  0
  191.8430  176.0600  147.4250 C   0  0  1  0  0  3  0  0  0  0  0  0
  192.2580  175.1720  146.2700 C   0  0  0  0  0  1  0  0  0  0  0  0
  192.8960  176.1600  148.3330 O   0  0  0  0  0  1  0  0  0  0  0  0
  2  7  1  0  0  0  0
  4  3  1  0  0  0  0
  5  4  2  0  0  0  0
  6  2  1  0  0  0  0
  6  5  1  1  0  0  0
  6  7  1  0  0  0  0
  7  8  1  1  0  0  0
  8  3  2  0  0  0  0
  8  1  1  0  0  0  0
  9 10  1  0  0  0  0
 10  2  1  0  0  0  0
 11  5  1  0  0  0  0
 12 13  1  0  0  0  0
 13 11  1  0  0  0  0
 14 13  1  1  0  0  0
 15 20  1  1  0  0  0
 15 19  1  0  0  0  0
 16 14  1  0  0  0  0
 17 14  1  0  0  0  0
 18 21  1  0  0  0  0
 19 23  1  6  0  0  0
 19 17  1  0  0  0  0
 20 16  1  0  0  0  0
 21 22  1  0  0  0  0
 21 15  1  0  0  0  0
 22 23  1  0  0  0  0
 24  1  1  0  0  0  0
 24 25  1  0  0  0  0
 25 26  1  6  0  0  0
 25 27  1  0  0  0  0
M  END
>  <MODEL>
3

>  <REMARK>
 VINA RESULT:      -7.3      3.487      8.535
  Name = 
  6 active torsions:
  status: ('A' for Active; 'I' for Inactive)
    1  A    between atoms: C_1  and  C_17
    2  A    between atoms: C_1  and  N_25
    3  A    between atoms: C_2  and  N_25
    4  A    between atoms: O_3  and  C_4
    5  A    between atoms: O_3  and  N_8
    6  A    between atoms: N_10  and  C_22
                            x       y       z     vdW  Elec       q    Type
                         _______ _______ _______ _____ _____    ______ ____

>  <TORSDO>
F 6

$$$$
=
 OpenBabel11062414433D

 27 30  0  0  1  0  0  0  0  0999 V2000
  181.1040  178.4530  140.9500 N   0  0  0  0  0  2  0  0  0  0  0  0
  184.4660  179.3260  141.3150 N   0  0  0  0  0  0  0  0  0  0  0  0
  181.9630  179.1630  143.0170 N   0  0  0  0  0  0  0  0  0  0  0  0
  182.9910  179.3880  143.9840 C   0  0  0  0  0  3  0  0  0  0  0  0
  184.2560  179.0570  143.7290 C   0  0  0  0  0  0  0  0  0  0  0  0
  184.6580  178.3930  142.4400 C   0  0  1  0  0  3  0  0  0  0  0  0
  183.5760  178.1620  141.4570 C   0  0  1  0  0  3  0  0  0  0  0  0
  182.1930  178.6230  141.8600 C   0  0  0  0  0  0  0  0  0  0  0  0
  186.7550  178.6050  140.9930 C   0  0  0  0  0  1  0  0  0  0  0  0
  185.4530  178.9730  140.3120 C   0  0  0  0  0  2  0  0  0  0  0  0
  185.3020  179.2970  144.7640 C   0  0  0  0  0  2  0  0  0  0  0  0
  185.1170  178.9750  147.0070 O   0  0  0  0  0  1  0  0  0  0  0  0
  185.2030  178.3070  145.8280 N   0  0  0  0  0  0  0  0  0  0  0  0
  186.4250  177.4990  145.8300 C   0  0  1  0  0  3  0  0  0  0  0  0
  189.2610  177.5270  145.5570 N   0  0  2  0  0  0  0  0  0  0  0  0
  187.1270  177.4460  144.4350 C   0  0  0  0  0  2  0  0  0  0  0  0
  187.3550  177.9380  146.9800 C   0  0  0  0  0  2  0  0  0  0  0  0
  191.6050  177.1860  144.7590 C   0  0  0  0  0  1  0  0  0  0  0  0
  188.6280  177.1470  146.8040 C   0  0  2  0  0  3  0  0  0  0  0  0
  188.5300  176.8160  144.5180 C   0  0  0  0  0  2  0  0  0  0  0  0
  190.5550  177.0330  145.7520 N   0  0  0  0  0  0  0  0  0  0  0  0
  190.8340  177.0190  147.1460 C   0  0  0  0  0  2  0  0  0  0  0  0
  189.7070  177.1680  147.8300 C   0  0  0  0  0  2  0  0  0  0  0  0
  181.2830  177.9150  139.7180 O   0  0  0  0  0  0  0  0  0  0  0  0
  180.5290  176.7390  139.7210 C   0  0  1  0  0  3  0  0  0  0  0  0
  179.2990  176.9300  140.5830 C   0  0  0  0  0  1  0  0  0  0  0  0
  180.1390  176.4320  138.4180 O   0  0  0  0  0  1  0  0  0  0  0  0
  1  8  1  0  0  0  0
  2  7  1  0  0  0  0
  2  6  1  0  0  0  0
  3  4  1  0  0  0  0
  5  4  2  0  0  0  0
  5 11  1  0  0  0  0
  6  5  1  1  0  0  0
  7  8  1  1  0  0  0
  7  6  1  0  0  0  0
  8  3  2  0  0  0  0
 10  9  1  0  0  0  0
 10  2  1  0  0  0  0
 11 13  1  0  0  0  0
 13 12  1  0  0  0  0
 14 13  1  6  0  0  0
 14 17  1  0  0  0  0
 15 20  1  6  0  0  0
 15 21  1  0  0  0  0
 15 19  1  0  0  0  0
 16 20  1  0  0  0  0
 16 14  1  0  0  0  0
 18 21  1  0  0  0  0
 19 17  1  1  0  0  0
 19 23  1  0  0  0  0
 21 22  1  0  0  0  0
 22 23  1  0  0  0  0
 24 25  1  0  0  0  0
 24  1  1  0  0  0  0
 25 26  1  1  0  0  0
 27 25  1  0  0  0  0
M  END
>  <MODEL>
4

>  <REMARK>
 VINA RESULT:      -7.3      1.184      1.899
  Name = 
  6 active torsions:
  status: ('A' for Active; 'I' for Inactive)
    1  A    between atoms: C_1  and  C_17
    2  A    between atoms: C_1  and  N_25
    3  A    between atoms: C_2  and  N_25
    4  A    between atoms: O_3  and  C_4
    5  A    between atoms: O_3  and  N_8
    6  A    between atoms: N_10  and  C_22
                            x       y       z     vdW  Elec       q    Type
                         _______ _______ _______ _____ _____    ______ ____

>  <TORSDO>
F 6

$$$$
=
 OpenBabel11062414433D

 27 30  0  0  1  0  0  0  0  0999 V2000
  190.1030  177.2190  147.6420 N   0  0  0  0  0  2  0  0  0  0  0  0
  187.9730  176.7760  144.9090 N   0  0  0  0  0  0  0  0  0  0  0  0
  187.8120  177.7090  147.7880 N   0  0  0  0  0  0  0  0  0  0  0  0
  186.5250  178.0510  147.2710 C   0  0  0  0  0  3  0  0  0  0  0  0
  186.3400  178.2460  145.9660 C   0  0  0  0  0  0  0  0  0  0  0  0
  187.4770  178.1610  144.9830 C   0  0  1  0  0  3  0  0  0  0  0  0
  188.8020  177.8150  145.5430 C   0  0  1  0  0  3  0  0  0  0  0  0
  188.8600  177.5810  147.0360 C   0  0  0  0  0  0  0  0  0  0  0  0
  190.0030  176.7020  143.5900 C   0  0  0  0  0  1  0  0  0  0  0  0
  188.4920  176.5930  143.5660 C   0  0  0  0  0  2  0  0  0  0  0  0
  184.9860  178.6110  145.4600 C   0  0  0  0  0  2  0  0  0  0  0  0
  185.0110  180.3350  143.9780 O   0  0  0  0  0  1  0  0  0  0  0  0
  185.0520  178.9800  144.0520 N   0  0  0  0  0  0  0  0  0  0  0  0
  183.8750  178.4330  143.3710 C   0  0  1  0  0  3  0  0  0  0  0  0
  181.6740  179.0080  141.6550 N   0  0  2  0  0  0  0  0  0  0  0  0
  182.5290  179.0140  143.9100 C   0  0  0  0  0  2  0  0  0  0  0  0
  184.0380  178.5550  141.8410 C   0  0  0  0  0  2  0  0  0  0  0  0
  179.3870  179.3630  140.7120 C   0  0  0  0  0  1  0  0  0  0  0  0
  182.7260  178.0970  141.2510 C   0  0  2  0  0  3  0  0  0  0  0  0
  181.3340  178.6290  143.0180 C   0  0  0  0  0  2  0  0  0  0  0  0
  180.6730  178.6880  140.7310 N   0  0  0  0  0  0  0  0  0  0  0  0
  181.2860  178.2010  139.5440 C   0  0  0  0  0  2  0  0  0  0  0  0
  182.5570  177.9050  139.7840 C   0  0  0  0  0  2  0  0  0  0  0  0
  191.2300  177.0480  146.9070 O   0  0  0  0  0  0  0  0  0  0  0  0
  191.7720  175.8380  147.3470 C   0  0  1  0  0  3  0  0  0  0  0  0
  192.3130  175.0660  146.1610 C   0  0  0  0  0  1  0  0  0  0  0  0
  192.8060  176.0890  148.2470 O   0  0  0  0  0  1  0  0  0  0  0  0
  2  6  1  0  0  0  0
  2  7  1  0  0  0  0
  4  3  1  0  0  0  0
  5  4  2  0  0  0  0
  6  7  1  0  0  0  0
  6  5  1  1  0  0  0
  7  8  1  1  0  0  0
  8  1  1  0  0  0  0
  8  3  2  0  0  0  0
 10  9  1  0  0  0  0
 10  2  1  0  0  0  0
 11  5  1  0  0  0  0
 12 13  1  0  0  0  0
 13 11  1  0  0  0  0
 14 16  1  0  0  0  0
 14 13  1  1  0  0  0
 15 20  1  1  0  0  0
 17 14  1  0  0  0  0
 18 21  1  0  0  0  0
 19 23  1  6  0  0  0
 19 15  1  0  0  0  0
 19 17  1  0  0  0  0
 20 16  1  0  0  0  0
 21 15  1  0  0  0  0
 22 23  1  0  0  0  0
 22 21  1  0  0  0  0
 24 25  1  0  0  0  0
 24  1  1  0  0  0  0
 25 26  1  6  0  0  0
 25 27  1  0  0  0  0
M  END
>  <MODEL>
5

>  <REMARK>
 VINA RESULT:      -7.1      2.456      8.746
  Name = 
  6 active torsions:
  status: ('A' for Active; 'I' for Inactive)
    1  A    between atoms: C_1  and  C_17
    2  A    between atoms: C_1  and  N_25
    3  A    between atoms: C_2  and  N_25
    4  A    between atoms: O_3  and  C_4
    5  A    between atoms: O_3  and  N_8
    6  A    between atoms: N_10  and  C_22
                            x       y       z     vdW  Elec       q    Type
                         _______ _______ _______ _____ _____    ______ ____

>  <TORSDO>
F 6

$$$$
=
 OpenBabel11062414433D

 27 30  0  0  1  0  0  0  0  0999 V2000
  193.8910  176.3390  137.4280 N   0  0  0  0  0  2  0  0  0  0  0  0
  190.7060  175.7370  138.7290 N   0  0  0  0  0  0  0  0  0  0  0  0
  193.2860  177.0880  139.5690 N   0  0  0  0  0  0  0  0  0  0  0  0
  192.3710  177.4880  140.5910 C   0  0  0  0  0  3  0  0  0  0  0  0
  191.0580  177.5110  140.3650 C   0  0  0  0  0  0  0  0  0  0  0  0
  190.4790  177.1640  139.0190 C   0  0  1  0  0  3  0  0  0  0  0  0
  191.4460  176.7620  137.9740 C   0  0  1  0  0  3  0  0  0  0  0  0
  192.9030  176.7410  138.3790 C   0  0  0  0  0  0  0  0  0  0  0  0
  188.7010  176.4860  137.5960 C   0  0  0  0  0  1  0  0  0  0  0  0
  189.6100  175.3080  137.8800 C   0  0  0  0  0  2  0  0  0  0  0  0
  190.1310  177.9420  141.4490 C   0  0  0  0  0  2  0  0  0  0  0  0
  187.9290  177.8550  140.8870 O   0  0  0  0  0  1  0  0  0  0  0  0
  188.9260  177.1220  141.4450 N   0  0  0  0  0  0  0  0  0  0  0  0
  188.5670  176.8120  142.8320 C   0  0  1  0  0  3  0  0  0  0  0  0
  188.3920  177.8140  145.4940 N   0  0  2  0  0  0  0  0  0  0  0  0
  189.7930  176.8210  143.8000 C   0  0  0  0  0  2  0  0  0  0  0  0
  187.4000  177.7090  143.2950 C   0  0  0  0  0  2  0  0  0  0  0  0
  188.7260  178.2270  147.9360 C   0  0  0  0  0  1  0  0  0  0  0  0
  187.2090  177.4090  144.7620 C   0  0  2  0  0  3  0  0  0  0  0  0
  189.3640  176.7530  145.2780 C   0  0  0  0  0  2  0  0  0  0  0  0
  187.9000  177.8470  146.8020 N   0  0  0  0  0  0  0  0  0  0  0  0
  186.5060  178.1270  146.7600 C   0  0  0  0  0  2  0  0  0  0  0  0
  186.0530  177.9560  145.5250 C   0  0  0  0  0  2  0  0  0  0  0  0
  193.5530  175.9440  136.1750 O   0  0  0  0  0  0  0  0  0  0  0  0
  194.7660  175.8170  135.4940 C   0  0  1  0  0  3  0  0  0  0  0  0
  195.0490  177.0900  134.7250 C   0  0  0  0  0  1  0  0  0  0  0  0
  195.7930  175.5900  136.4090 O   0  0  0  0  0  1  0  0  0  0  0  0
  1  8  1  0  0  0  0
  2  6  1  0  0  0  0
  3  4  1  0  0  0  0
  5  4  2  0  0  0  0
  5 11  1  0  0  0  0
  6  5  1  1  0  0  0
  7  8  1  1  0  0  0
  7  2  1  0  0  0  0
  7  6  1  0  0  0  0
  8  3  2  0  0  0  0
  9 10  1  0  0  0  0
 10  2  1  0  0  0  0
 12 13  1  0  0  0  0
 13 11  1  0  0  0  0
 14 13  1  6  0  0  0
 14 17  1  0  0  0  0
 14 16  1  0  0  0  0
 15 20  1  1  0  0  0
 15 21  1  0  0  0  0
 16 20  1  0  0  0  0
 19 17  1  6  0  0  0
 19 15  1  0  0  0  0
 19 23  1  0  0  0  0
 21 18  1  0  0  0  0
 22 21  1  0  0  0  0
 23 22  1  0  0  0  0
 24  1  1  0  0  0  0
 25 26  1  1  0  0  0
 25 24  1  0  0  0  0
 25 27  1  0  0  0  0
M  END
>  <MODEL>
6

>  <REMARK>
 VINA RESULT:      -7.0      6.301      8.296
  Name = 
  6 active torsions:
  status: ('A' for Active; 'I' for Inactive)
    1  A    between atoms: C_1  and  C_17
    2  A    between atoms: C_1  and  N_25
    3  A    between atoms: C_2  and  N_25
    4  A    between atoms: O_3  and  C_4
    5  A    between atoms: O_3  and  N_8
    6  A    between atoms: N_10  and  C_22
                            x       y       z     vdW  Elec       q    Type
                         _______ _______ _______ _____ _____    ______ ____

>  <TORSDO>
F 6

$$$$
=
 OpenBabel11062414433D

 27 30  0  0  1  0  0  0  0  0999 V2000
  191.4690  177.1650  146.0370 N   0  0  0  0  0  2  0  0  0  0  0  0
  188.3890  178.5140  146.9860 N   0  0  0  0  0  0  0  0  0  0  0  0
  189.7080  177.3880  144.4990 N   0  0  0  0  0  0  0  0  0  0  0  0
  188.3400  177.5110  144.1060 C   0  0  0  0  0  3  0  0  0  0  0  0
  187.3640  177.5150  145.0120 C   0  0  0  0  0  0  0  0  0  0  0  0
  187.6450  177.3470  146.4810 C   0  0  1  0  0  3  0  0  0  0  0  0
  189.0670  177.2120  146.8650 C   0  0  1  0  0  3  0  0  0  0  0  0
  190.0740  177.2640  145.7380 C   0  0  0  0  0  0  0  0  0  0  0  0
  187.7040  177.3040  148.9690 C   0  0  0  0  0  1  0  0  0  0  0  0
  188.0270  178.6630  148.3830 C   0  0  0  0  0  2  0  0  0  0  0  0
  185.9460  177.6360  144.5660 C   0  0  0  0  0  2  0  0  0  0  0  0
  184.8270  178.9710  146.0270 O   0  0  0  0  0  1  0  0  0  0  0  0
  185.4460  178.9810  144.8190 N   0  0  0  0  0  0  0  0  0  0  0  0
  184.4620  179.3150  143.7860 C   0  0  1  0  0  3  0  0  0  0  0  0
  182.5600  178.2850  141.9310 N   0  0  2  0  0  0  0  0  0  0  0  0
  184.8730  178.8160  142.3630 C   0  0  0  0  0  2  0  0  0  0  0  0
  183.0530  178.8630  144.2230 C   0  0  0  0  0  2  0  0  0  0  0  0
  181.3350  177.6380  139.8510 C   0  0  0  0  0  1  0  0  0  0  0  0
  182.1530  179.1240  143.0390 C   0  0  2  0  0  3  0  0  0  0  0  0
  183.7200  178.9450  141.3500 C   0  0  0  0  0  2  0  0  0  0  0  0
  181.4270  178.3510  141.1140 N   0  0  0  0  0  0  0  0  0  0  0  0
  180.2870  178.5850  141.9310 C   0  0  0  0  0  2  0  0  0  0  0  0
  180.6740  178.9780  143.1380 C   0  0  0  0  0  2  0  0  0  0  0  0
  191.9170  177.0560  147.3120 O   0  0  0  0  0  0  0  0  0  0  0  0
  192.2600  175.7100  147.4640 C   0  0  1  0  0  3  0  0  0  0  0  0
  192.3420  175.0540  146.1020 C   0  0  0  0  0  1  0  0  0  0  0  0
  193.4960  175.6120  148.1000 O   0  0  0  0  0  1  0  0  0  0  0  0
  1 24  1  0  0  0  0
  2 10  1  0  0  0  0
  3  8  2  0  0  0  0
  4  3  1  0  0  0  0
  4  5  2  0  0  0  0
  6  5  1  6  0  0  0
  6  7  1  0  0  0  0
  6  2  1  0  0  0  0
  7  8  1  6  0  0  0
  7  2  1  0  0  0  0
  8  1  1  0  0  0  0
 10  9  1  0  0  0  0
 11 13  1  0  0  0  0
 11  5  1  0  0  0  0
 13 12  1  0  0  0  0
 14 17  1  0  0  0  0
 14 13  1  1  0  0  0
 15 20  1  6  0  0  0
 15 19  1  0  0  0  0
 16 14  1  0  0  0  0
 18 21  1  0  0  0  0
 19 23  1  1  0  0  0
 19 17  1  0  0  0  0
 20 16  1  0  0  0  0
 21 22  1  0  0  0  0
 21 15  1  0  0  0  0
 22 23  1  0  0  0  0
 24 25  1  0  0  0  0
 25 26  1  6  0  0  0
 25 27  1  0  0  0  0
M  END
>  <MODEL>
7

>  <REMARK>
 VINA RESULT:      -7.0      2.568      8.961
  Name = 
  6 active torsions:
  status: ('A' for Active; 'I' for Inactive)
    1  A    between atoms: C_1  and  C_17
    2  A    between atoms: C_1  and  N_25
    3  A    between atoms: C_2  and  N_25
    4  A    between atoms: O_3  and  C_4
    5  A    between atoms: O_3  and  N_8
    6  A    between atoms: N_10  and  C_22
                            x       y       z     vdW  Elec       q    Type
                         _______ _______ _______ _____ _____    ______ ____

>  <TORSDO>
F 6

$$$$
=
 OpenBabel11062414433D

 27 30  0  0  1  0  0  0  0  0999 V2000
  188.7360  178.3870  136.5410 N   0  0  0  0  0  2  0  0  0  0  0  0
  191.4570  177.0930  138.3080 N   0  0  0  0  0  0  0  0  0  0  0  0
  188.7780  178.3860  138.8890 N   0  0  0  0  0  0  0  0  0  0  0  0
  189.1960  177.9310  140.1760 C   0  0  0  0  0  3  0  0  0  0  0  0
  190.0600  176.9250  140.3000 C   0  0  0  0  0  0  0  0  0  0  0  0
  190.6010  176.1920  139.1020 C   0  0  1  0  0  3  0  0  0  0  0  0
  190.1480  176.6750  137.7790 C   0  0  1  0  0  3  0  0  0  0  0  0
  189.1970  177.8520  137.7830 C   0  0  0  0  0  0  0  0  0  0  0  0
  191.9430  174.8300  137.5940 C   0  0  0  0  0  1  0  0  0  0  0  0
  192.4510  176.2560  137.6620 C   0  0  0  0  0  2  0  0  0  0  0  0
  190.4690  176.4670  141.6590 C   0  0  0  0  0  2  0  0  0  0  0  0
  191.6960  177.8870  142.9430 O   0  0  0  0  0  1  0  0  0  0  0  0
  190.4190  177.5750  142.6050 N   0  0  0  0  0  0  0  0  0  0  0  0
  189.7060  177.1310  143.8060 C   0  0  1  0  0  3  0  0  0  0  0  0
  188.6460  177.9110  146.3330 N   0  0  2  0  0  0  0  0  0  0  0  0
  190.5850  177.1850  145.0970 C   0  0  0  0  0  2  0  0  0  0  0  0
  188.3610  177.8750  143.9360 C   0  0  0  0  0  2  0  0  0  0  0  0
  188.2000  178.1720  148.7780 C   0  0  0  0  0  1  0  0  0  0  0  0
  187.7830  177.4500  145.2640 C   0  0  2  0  0  3  0  0  0  0  0  0
  189.7530  176.9670  146.3740 C   0  0  0  0  0  2  0  0  0  0  0  0
  187.7910  177.8000  147.4350 N   0  0  0  0  0  0  0  0  0  0  0  0
  186.4490  177.9470  146.9880 C   0  0  0  0  0  2  0  0  0  0  0  0
  186.4000  177.8260  145.6680 C   0  0  0  0  0  2  0  0  0  0  0  0
  189.1540  177.8860  135.3520 O   0  0  0  0  0  0  0  0  0  0  0  0
  187.9890  177.4870  134.6950 C   0  0  1  0  0  3  0  0  0  0  0  0
  187.8500  175.9810  134.7830 C   0  0  0  0  0  1  0  0  0  0  0  0
  186.8840  178.0900  135.2950 O   0  0  0  0  0  1  0  0  0  0  0  0
  1  8  1  0  0  0  0
  2  6  1  0  0  0  0
  3  4  1  0  0  0  0
  4  5  2  0  0  0  0
  5 11  1  0  0  0  0
  6  5  1  1  0  0  0
  7  8  1  1  0  0  0
  7  2  1  0  0  0  0
  7  6  1  0  0  0  0
  8  3  2  0  0  0  0
  9 10  1  0  0  0  0
 10  2  1  0  0  0  0
 11 13  1  0  0  0  0
 13 12  1  0  0  0  0
 14 13  1  6  0  0  0
 14 17  1  0  0  0  0
 14 16  1  0  0  0  0
 15 20  1  1  0  0  0
 15 21  1  0  0  0  0
 16 20  1  0  0  0  0
 19 17  1  6  0  0  0
 19 23  1  0  0  0  0
 19 15  1  0  0  0  0
 21 18  1  0  0  0  0
 22 21  1  0  0  0  0
 23 22  1  0  0  0  0
 24  1  1  0  0  0  0
 25 26  1  1  0  0  0
 25 27  1  0  0  0  0
 25 24  1  0  0  0  0
M  END
>  <MODEL>
8

>  <REMARK>
 VINA RESULT:      -7.0      4.882      6.370
  Name = 
  6 active torsions:
  status: ('A' for Active; 'I' for Inactive)
    1  A    between atoms: C_1  and  C_17
    2  A    between atoms: C_1  and  N_25
    3  A    between atoms: C_2  and  N_25
    4  A    between atoms: O_3  and  C_4
    5  A    between atoms: O_3  and  N_8
    6  A    between atoms: N_10  and  C_22
                            x       y       z     vdW  Elec       q    Type
                         _______ _______ _______ _____ _____    ______ ____

>  <TORSDO>
F 6

$$$$
=
 OpenBabel11062414433D

 27 30  0  0  1  0  0  0  0  0999 V2000
  182.4560  177.7450  140.1650 N   0  0  0  0  0  2  0  0  0  0  0  0
  181.9600  178.2450  143.5860 N   0  0  0  0  0  0  0  0  0  0  0  0
  184.2680  177.9310  141.6460 N   0  0  0  0  0  0  0  0  0  0  0  0
  184.9190  178.3360  142.8510 C   0  0  0  0  0  3  0  0  0  0  0  0
  184.2630  179.0190  143.7880 C   0  0  0  0  0  0  0  0  0  0  0  0
  182.8280  179.4350  143.6080 C   0  0  1  0  0  3  0  0  0  0  0  0
  182.1770  179.0130  142.3480 C   0  0  1  0  0  3  0  0  0  0  0  0
  183.0260  178.2070  141.3900 C   0  0  0  0  0  0  0  0  0  0  0  0
  180.0230  179.6300  143.1450 C   0  0  0  0  0  1  0  0  0  0  0  0
  180.6730  178.6610  144.1110 C   0  0  0  0  0  2  0  0  0  0  0  0
  184.9750  179.4350  145.0310 C   0  0  0  0  0  2  0  0  0  0  0  0
  184.7880  178.2380  146.9550 O   0  0  0  0  0  1  0  0  0  0  0  0
  185.4410  178.2660  145.7660 N   0  0  0  0  0  0  0  0  0  0  0  0
  186.8770  178.4150  146.0170 C   0  0  1  0  0  3  0  0  0  0  0  0
  189.3370  177.0530  146.4740 N   0  0  2  0  0  0  0  0  0  0  0  0
  187.3050  177.9250  147.4370 C   0  0  0  0  0  2  0  0  0  0  0  0
  187.6900  177.7850  144.8680 C   0  0  0  0  0  2  0  0  0  0  0  0
  191.4390  176.1560  147.4850 C   0  0  0  0  0  1  0  0  0  0  0  0
  189.1360  177.8680  145.2930 C   0  0  2  0  0  3  0  0  0  0  0  0
  188.8370  177.8480  147.5850 C   0  0  0  0  0  2  0  0  0  0  0  0
  190.7300  176.9250  146.4770 N   0  0  0  0  0  0  0  0  0  0  0  0
  191.2010  177.0260  145.1380 C   0  0  0  0  0  2  0  0  0  0  0  0
  190.2440  177.5170  144.3630 C   0  0  0  0  0  2  0  0  0  0  0  0
  181.1580  177.9820  139.8490 O   0  0  0  0  0  0  0  0  0  0  0  0
  180.5130  176.7550  140.0140 C   0  0  1  0  0  3  0  0  0  0  0  0
  179.1520  176.9790  140.6390 C   0  0  0  0  0  1  0  0  0  0  0  0
  180.3570  176.1390  138.7730 O   0  0  0  0  0  1  0  0  0  0  0  0
  1  8  1  0  0  0  0
  2  6  1  0  0  0  0
  2 10  1  0  0  0  0
  3  4  1  0  0  0  0
  4  5  2  0  0  0  0
  5 11  1  0  0  0  0
  6  5  1  6  0  0  0
  7  8  1  6  0  0  0
  7  2  1  0  0  0  0
  7  6  1  0  0  0  0
  8  3  2  0  0  0  0
  9 10  1  0  0  0  0
 11 13  1  0  0  0  0
 13 12  1  0  0  0  0
 14 13  1  6  0  0  0
 14 16  1  0  0  0  0
 15 21  1  0  0  0  0
 15 20  1  1  0  0  0
 16 20  1  0  0  0  0
 17 19  1  0  0  0  0
 17 14  1  0  0  0  0
 19 23  1  6  0  0  0
 19 15  1  0  0  0  0
 21 18  1  0  0  0  0
 22 21  1  0  0  0  0
 23 22  1  0  0  0  0
 24 25  1  0  0  0  0
 24  1  1  0  0  0  0
 25 26  1  6  0  0  0
 27 25  1  0  0  0  0
M  END
>  <MODEL>
9

>  <REMARK>
 VINA RESULT:      -7.0      1.352      2.516
  Name = 
  6 active torsions:
  status: ('A' for Active; 'I' for Inactive)
    1  A    between atoms: C_1  and  C_17
    2  A    between atoms: C_1  and  N_25
    3  A    between atoms: C_2  and  N_25
    4  A    between atoms: O_3  and  C_4
    5  A    between atoms: O_3  and  N_8
    6  A    between atoms: N_10  and  C_22
                            x       y       z     vdW  Elec       q    Type
                         _______ _______ _______ _____ _____    ______ ____

>  <TORSDO>
F 6

$$$$
