=
 OpenBabel11062415343D

 35 39  0  0  1  0  0  0  0  0999 V2000
  190.5450  177.8760  145.9010 C   0  0  2  0  0  0  0  0  0  0  0  0
  191.4160  178.0290  142.4030 C   0  0  0  0  0  3  0  0  0  0  0  0
  190.5870  177.2850  141.4430 C   0  0  0  0  0  0  0  0  0  0  0  0
  186.9160  178.0800  141.9420 C   0  0  2  0  0  3  0  0  0  0  0  0
  191.1200  176.9260  140.3150 N   0  0  0  0  0  0  0  0  0  0  0  0
  187.2690  176.8780  145.0610 C   0  0  0  0  0  2  0  0  0  0  0  0
  187.9540  177.9020  145.9850 C   0  0  1  0  0  3  0  0  0  0  0  0
  185.8730  178.9890  146.8610 C   0  0  0  0  0  3  0  0  0  0  0  0
  189.3500  175.9650  146.9780 C   0  0  0  0  0  2  0  0  0  0  0  0
  185.3900  179.3670  145.4950 C   0  0  0  0  0  2  0  0  0  0  0  0
  186.3490  177.5310  144.0300 C   0  0  2  0  0  3  0  0  0  0  0  0
  190.4600  178.7800  144.7110 C   0  0  0  0  0  3  0  0  0  0  0  0
  187.0360  178.4920  143.2750 O   0  0  0  0  0  0  0  0  0  0  0  0
  189.1460  176.9950  141.7520 C   0  0  0  0  0  2  0  0  0  0  0  0
  187.0210  178.3360  147.0800 C   0  0  0  0  0  3  0  0  0  0  0  0
  189.2830  177.4410  146.6300 C   0  0  2  0  0  0  0  0  0  0  0  0
  185.0880  178.1280  144.6570 C   0  0  0  0  0  2  0  0  0  0  0  0
  190.9500  178.4170  143.5590 C   0  0  0  0  0  0  0  0  0  0  0  0
  191.6870  177.9580  146.6990 O   0  0  0  0  0  1  0  0  0  0  0  0
  188.2750  178.1380  141.2660 C   0  0  0  0  0  2  0  0  0  0  0  0
  190.0330  176.4640  145.7170 C   0  0  1  0  0  3  0  0  0  0  0  0
  185.2840  179.8310  141.8330 O   0  0  0  0  0  1  0  0  0  0  0  0
  185.9580  178.9670  141.2130 C   0  0  0  0  0  0  0  0  0  0  0  0
  185.8380  178.8610  139.8340 O   0  0  0  0  0  0  0  0  0  0  0  0
  190.4000  176.2040  139.2750 C   0  0  0  0  0  2  0  0  0  0  0  0
  190.5040  176.9460  137.9860 C   0  0  0  0  0  0  0  0  0  0  0  0
  191.4000  176.6810  137.2010 O   0  0  0  0  0  0  0  0  0  0  0  0
  189.5540  178.0560  137.6760 C   0  0  0  0  0  2  0  0  0  0  0  0
  188.2380  177.6200  137.8520 O   0  0  0  0  0  0  0  0  0  0  0  0
  185.5590  176.0860  137.0420 C   0  0  0  0  0  2  0  0  0  0  0  0
  186.0960  177.4040  135.0550 O   0  0  0  0  0  0  0  0  0  0  0  0
  187.8870  177.0250  136.6390 C   0  0  2  0  0  3  0  0  0  0  0  0
  187.1250  178.0390  135.7710 C   0  0  0  0  0  2  0  0  0  0  0  0
  187.0500  175.7660  136.8980 C   0  0  0  0  0  2  0  0  0  0  0  0
  185.0900  177.1100  135.9960 C   0  0  0  0  0  2  0  0  0  0  0  0
  1 16  1  0  0  0  0
  1 19  1  1  0  0  0
  2 18  2  0  0  0  0
  3 14  1  0  0  0  0
  3  2  1  0  0  0  0
  4 23  1  6  0  0  0
  4 13  1  0  0  0  0
  5  3  2  0  0  0  0
  7  6  1  1  0  0  0
  7 16  1  0  0  0  0
  7 15  1  0  0  0  0
  8 15  2  0  0  0  0
 10  8  1  0  0  0  0
 11 17  1  1  0  0  0
 11  6  1  0  0  0  0
 12  1  1  0  0  0  0
 13 11  1  0  0  0  0
 16  9  1  1  0  0  0
 17 10  1  0  0  0  0
 18 12  2  0  0  0  0
 20 14  1  0  0  0  0
 20  4  1  0  0  0  0
 21  1  1  0  0  0  0
 21 16  1  0  0  0  0
 21  9  1  1  0  0  0
 23 22  1  0  0  0  0
 24 23  2  0  0  0  0
 25  5  1  0  0  0  0
 26 25  1  0  0  0  0
 27 26  2  0  0  0  0
 28 29  1  0  0  0  0
 28 26  1  0  0  0  0
 31 33  1  0  0  0  0
 31 35  1  0  0  0  0
 32 34  1  0  0  0  0
 32 29  1  1  0  0  0
 33 32  1  0  0  0  0
 34 30  1  0  0  0  0
 35 30  1  0  0  0  0
M  END
>  <MODEL>
1

>  <REMARK>
 VINA RESULT:      -7.8      0.000      0.000
  Name = 
  6 active torsions:
  status: ('A' for Active; 'I' for Inactive)
    1  A    between atoms: C_5  and  C_28
    2  A    between atoms: C_6  and  C_19
    3  A    between atoms: C_6  and  C_20
    4  A    between atoms: N_7  and  C_20
    5  A    between atoms: O_9  and  C_16
    6  A    between atoms: O_9  and  C_19
                            x       y       z     vdW  Elec       q    Type
                         _______ _______ _______ _____ _____    ______ ____

>  <TORSDO>
F 6

$$$$
=
 OpenBabel11062415343D

 35 39  0  0  1  0  0  0  0  0999 V2000
  190.5470  177.8770  145.8690 C   0  0  2  0  0  0  0  0  0  0  0  0
  191.3970  178.0100  142.3660 C   0  0  0  0  0  3  0  0  0  0  0  0
  190.5590  177.2670  141.4130 C   0  0  0  0  0  0  0  0  0  0  0  0
  186.8950  178.0820  141.9310 C   0  0  2  0  0  3  0  0  0  0  0  0
  191.0840  176.9000  140.2840 N   0  0  0  0  0  0  0  0  0  0  0  0
  187.2610  176.8910  145.0520 C   0  0  0  0  0  2  0  0  0  0  0  0
  187.9560  177.9170  145.9680 C   0  0  1  0  0  3  0  0  0  0  0  0
  185.8860  179.0170  146.8520 C   0  0  0  0  0  3  0  0  0  0  0  0
  189.3480  175.9770  146.9620 C   0  0  0  0  0  2  0  0  0  0  0  0
  185.3960  179.3920  145.4870 C   0  0  0  0  0  2  0  0  0  0  0  0
  186.3370  177.5450  144.0240 C   0  0  2  0  0  3  0  0  0  0  0  0
  190.4590  178.7770  144.6760 C   0  0  0  0  0  3  0  0  0  0  0  0
  187.0250  178.4990  143.2610 O   0  0  0  0  0  0  0  0  0  0  0  0
  189.1190  176.9850  141.7320 C   0  0  0  0  0  2  0  0  0  0  0  0
  187.0310  178.3590  147.0660 C   0  0  0  0  0  3  0  0  0  0  0  0
  189.2860  177.4520  146.6070 C   0  0  2  0  0  0  0  0  0  0  0  0
  185.0830  178.1510  144.6560 C   0  0  0  0  0  2  0  0  0  0  0  0
  190.9400  178.4060  143.5220 C   0  0  0  0  0  0  0  0  0  0  0  0
  191.6940  177.9570  146.6600 O   0  0  0  0  0  1  0  0  0  0  0  0
  188.2500  178.1310  141.2470 C   0  0  0  0  0  2  0  0  0  0  0  0
  190.0260  176.4670  145.6940 C   0  0  1  0  0  3  0  0  0  0  0  0
  185.2560  179.8270  141.8270 O   0  0  0  0  0  1  0  0  0  0  0  0
  185.9370  178.9700  141.2040 C   0  0  0  0  0  0  0  0  0  0  0  0
  185.8250  178.8750  139.8230 O   0  0  0  0  0  0  0  0  0  0  0  0
  190.3540  176.1770  139.2510 C   0  0  0  0  0  2  0  0  0  0  0  0
  190.6100  176.8060  137.9230 C   0  0  0  0  0  0  0  0  0  0  0  0
  189.9950  177.8080  137.5960 O   0  0  0  0  0  0  0  0  0  0  0  0
  191.5710  176.1800  136.9660 C   0  0  0  0  0  2  0  0  0  0  0  0
  192.2680  175.1470  137.5970 O   0  0  0  0  0  0  0  0  0  0  0  0
  194.9630  173.7250  136.6500 C   0  0  0  0  0  2  0  0  0  0  0  0
  195.2940  176.0650  136.0290 O   0  0  0  0  0  0  0  0  0  0  0  0
  193.5870  175.5970  137.6800 C   0  0  2  0  0  3  0  0  0  0  0  0
  193.9610  176.3330  136.3840 C   0  0  0  0  0  2  0  0  0  0  0  0
  194.5260  174.4140  137.9450 C   0  0  0  0  0  2  0  0  0  0  0  0
  195.3110  174.7410  135.5490 C   0  0  0  0  0  2  0  0  0  0  0  0
  1 16  1  0  0  0  0
  1 19  1  1  0  0  0
  2 18  2  0  0  0  0
  3 14  1  0  0  0  0
  3  2  1  0  0  0  0
  4 23  1  6  0  0  0
  4 13  1  0  0  0  0
  5  3  2  0  0  0  0
  7  6  1  1  0  0  0
  7 16  1  0  0  0  0
  7 15  1  0  0  0  0
  8 15  2  0  0  0  0
 10  8  1  0  0  0  0
 11 17  1  1  0  0  0
 11  6  1  0  0  0  0
 12  1  1  0  0  0  0
 13 11  1  0  0  0  0
 16  9  1  1  0  0  0
 17 10  1  0  0  0  0
 18 12  2  0  0  0  0
 20 14  1  0  0  0  0
 20  4  1  0  0  0  0
 21  1  1  0  0  0  0
 21 16  1  0  0  0  0
 21  9  1  1  0  0  0
 23 22  1  0  0  0  0
 24 23  2  0  0  0  0
 25  5  1  0  0  0  0
 26 25  1  0  0  0  0
 27 26  2  0  0  0  0
 28 29  1  0  0  0  0
 28 26  1  0  0  0  0
 30 34  1  0  0  0  0
 31 33  1  0  0  0  0
 32 29  1  6  0  0  0
 32 34  1  0  0  0  0
 33 32  1  0  0  0  0
 35 31  1  0  0  0  0
 35 30  1  0  0  0  0
M  END
>  <MODEL>
2

>  <REMARK>
 VINA RESULT:      -7.7      2.003      3.665
  Name = 
  6 active torsions:
  status: ('A' for Active; 'I' for Inactive)
    1  A    between atoms: C_5  and  C_28
    2  A    between atoms: C_6  and  C_19
    3  A    between atoms: C_6  and  C_20
    4  A    between atoms: N_7  and  C_20
    5  A    between atoms: O_9  and  C_16
    6  A    between atoms: O_9  and  C_19
                            x       y       z     vdW  Elec       q    Type
                         _______ _______ _______ _____ _____    ______ ____

>  <TORSDO>
F 6

$$$$
=
 OpenBabel11062415343D

 35 39  0  0  1  0  0  0  0  0999 V2000
  190.5550  177.9010  145.8950 C   0  0  2  0  0  0  0  0  0  0  0  0
  191.5000  178.0660  142.4180 C   0  0  0  0  0  3  0  0  0  0  0  0
  190.7030  177.3110  141.4390 C   0  0  0  0  0  0  0  0  0  0  0  0
  187.0110  178.0570  141.8580 C   0  0  2  0  0  3  0  0  0  0  0  0
  191.2660  176.9590  140.3240 N   0  0  0  0  0  0  0  0  0  0  0  0
  187.3120  176.8580  144.9830 C   0  0  0  0  0  2  0  0  0  0  0  0
  187.9620  177.8920  145.9220 C   0  0  1  0  0  3  0  0  0  0  0  0
  185.8490  178.9500  146.7520 C   0  0  0  0  0  3  0  0  0  0  0  0
  189.3620  175.9730  146.9460 C   0  0  0  0  0  2  0  0  0  0  0  0
  185.3900  179.3210  145.3760 C   0  0  0  0  0  2  0  0  0  0  0  0
  186.4060  177.4990  143.9320 C   0  0  2  0  0  3  0  0  0  0  0  0
  190.4840  178.8040  144.7040 C   0  0  0  0  0  3  0  0  0  0  0  0
  187.0970  178.4690  143.1930 O   0  0  0  0  0  0  0  0  0  0  0  0
  189.2600  177.0020  141.7170 C   0  0  0  0  0  2  0  0  0  0  0  0
  187.0000  178.3120  146.9960 C   0  0  0  0  0  3  0  0  0  0  0  0
  189.2830  177.4480  146.5960 C   0  0  2  0  0  0  0  0  0  0  0  0
  185.1230  178.0790  144.5320 C   0  0  0  0  0  2  0  0  0  0  0  0
  191.0040  178.4480  143.5620 C   0  0  0  0  0  0  0  0  0  0  0  0
  191.6780  177.9980  146.7180 O   0  0  0  0  0  1  0  0  0  0  0  0
  188.3840  178.1330  141.2120 C   0  0  0  0  0  2  0  0  0  0  0  0
  190.0660  176.4820  145.7000 C   0  0  1  0  0  3  0  0  0  0  0  0
  185.9530  178.8390  139.8560 O   0  0  0  0  0  0  0  0  0  0  0  0
  186.0580  178.9300  141.1070 C   0  0  0  0  0  0  0  0  0  0  0  0
  185.2540  179.8240  141.8010 O   0  0  0  0  0  1  0  0  0  0  0  0
  190.5790  176.2280  139.2680 C   0  0  0  0  0  2  0  0  0  0  0  0
  191.5480  175.8690  138.1930 C   0  0  0  0  0  0  0  0  0  0  0  0
  192.6500  176.3930  138.1670 O   0  0  0  0  0  0  0  0  0  0  0  0
  191.1560  174.9160  137.1120 C   0  0  0  0  0  2  0  0  0  0  0  0
  190.0930  174.1190  137.5420 O   0  0  0  0  0  0  0  0  0  0  0  0
  187.4630  172.3660  137.0990 C   0  0  0  0  0  2  0  0  0  0  0  0
  186.7930  174.6060  136.3870 O   0  0  0  0  0  0  0  0  0  0  0  0
  189.1680  174.1520  136.4960 C   0  0  2  0  0  3  0  0  0  0  0  0
  188.0190  175.1070  136.8570 C   0  0  0  0  0  2  0  0  0  0  0  0
  188.6530  172.7360  136.2100 C   0  0  0  0  0  2  0  0  0  0  0  0
  186.4630  173.5280  137.2310 C   0  0  0  0  0  2  0  0  0  0  0  0
  1 16  1  0  0  0  0
  1 19  1  1  0  0  0
  2 18  2  0  0  0  0
  3 14  1  0  0  0  0
  3  2  1  0  0  0  0
  4 23  1  6  0  0  0
  4 13  1  0  0  0  0
  5  3  2  0  0  0  0
  7  6  1  1  0  0  0
  7 16  1  0  0  0  0
  7 15  1  0  0  0  0
  8 15  2  0  0  0  0
 10  8  1  0  0  0  0
 11 17  1  1  0  0  0
 11  6  1  0  0  0  0
 12  1  1  0  0  0  0
 13 11  1  0  0  0  0
 16  9  1  1  0  0  0
 17 10  1  0  0  0  0
 18 12  2  0  0  0  0
 20 14  1  0  0  0  0
 20  4  1  0  0  0  0
 21  1  1  0  0  0  0
 21 16  1  0  0  0  0
 21  9  1  1  0  0  0
 22 23  2  0  0  0  0
 23 24  1  0  0  0  0
 25  5  1  0  0  0  0
 26 25  1  0  0  0  0
 27 26  2  0  0  0  0
 28 29  1  0  0  0  0
 28 26  1  0  0  0  0
 30 35  1  0  0  0  0
 31 33  1  0  0  0  0
 31 35  1  0  0  0  0
 32 33  1  0  0  0  0
 32 29  1  1  0  0  0
 34 32  1  0  0  0  0
 34 30  1  0  0  0  0
M  END
>  <MODEL>
3

>  <REMARK>
 VINA RESULT:      -7.5      1.402      1.857
  Name = 
  6 active torsions:
  status: ('A' for Active; 'I' for Inactive)
    1  A    between atoms: C_5  and  C_28
    2  A    between atoms: C_6  and  C_19
    3  A    between atoms: C_6  and  C_20
    4  A    between atoms: N_7  and  C_20
    5  A    between atoms: O_9  and  C_16
    6  A    between atoms: O_9  and  C_19
                            x       y       z     vdW  Elec       q    Type
                         _______ _______ _______ _____ _____    ______ ____

>  <TORSDO>
F 6

$$$$
=
 OpenBabel11062415343D

 35 39  0  0  1  0  0  0  0  0999 V2000
  187.0530  175.9680  135.7350 C   0  0  2  0  0  0  0  0  0  0  0  0
  187.4030  178.4760  138.3050 C   0  0  0  0  0  3  0  0  0  0  0  0
  188.0470  178.0950  139.5710 C   0  0  0  0  0  0  0  0  0  0  0  0
  191.3590  176.3720  138.9250 C   0  0  2  0  0  3  0  0  0  0  0  0
  187.7630  178.7770  140.6380 N   0  0  0  0  0  0  0  0  0  0  0  0
  189.6130  174.0560  137.2260 C   0  0  0  0  0  2  0  0  0  0  0  0
  189.2280  174.5600  135.8220 C   0  0  1  0  0  3  0  0  0  0  0  0
  191.2190  173.6580  134.5980 C   0  0  0  0  0  3  0  0  0  0  0  0
  186.8890  173.5130  136.1680 C   0  0  0  0  0  2  0  0  0  0  0  0
  192.1950  174.4030  135.4560 C   0  0  0  0  0  2  0  0  0  0  0  0
  190.9840  174.5570  137.6810 C   0  0  2  0  0  3  0  0  0  0  0  0
  187.8770  177.1620  136.1010 C   0  0  0  0  0  3  0  0  0  0  0  0
  191.0560  175.9560  137.6230 O   0  0  0  0  0  0  0  0  0  0  0  0
  189.0430  176.9720  139.6050 C   0  0  0  0  0  2  0  0  0  0  0  0
  189.8930  173.7300  134.7610 C   0  0  0  0  0  3  0  0  0  0  0  0
  187.7110  174.6130  135.5220 C   0  0  2  0  0  0  0  0  0  0  0  0
  192.1350  173.9180  136.9010 C   0  0  0  0  0  2  0  0  0  0  0  0
  187.6360  177.8330  137.1930 C   0  0  0  0  0  0  0  0  0  0  0  0
  185.8940  176.1840  134.9890 O   0  0  0  0  0  1  0  0  0  0  0  0
  190.4350  177.5080  139.3260 C   0  0  0  0  0  2  0  0  0  0  0  0
  186.9030  174.8970  136.7940 C   0  0  1  0  0  3  0  0  0  0  0  0
  193.4910  176.8930  137.9640 O   0  0  0  0  0  0  0  0  0  0  0  0
  192.7790  176.8340  139.0010 C   0  0  0  0  0  0  0  0  0  0  0  0
  193.3060  177.2360  140.2210 O   0  0  0  0  0  1  0  0  0  0  0  0
  188.3480  178.5130  141.9450 C   0  0  0  0  0  2  0  0  0  0  0  0
  187.3370  177.8590  142.8250 C   0  0  0  0  0  0  0  0  0  0  0  0
  186.1760  177.7770  142.4610 O   0  0  0  0  0  0  0  0  0  0  0  0
  187.7260  177.3580  144.1770 C   0  0  0  0  0  2  0  0  0  0  0  0
  188.9780  176.7400  144.1150 O   0  0  0  0  0  0  0  0  0  0  0  0
  189.6780  176.7400  147.2290 C   0  0  0  0  0  2  0  0  0  0  0  0
  191.8250  177.1900  146.1520 O   0  0  0  0  0  0  0  0  0  0  0  0
  189.8320  177.5780  144.8340 C   0  0  2  0  0  3  0  0  0  0  0  0
  191.2320  176.9490  144.9010 C   0  0  0  0  0  2  0  0  0  0  0  0
  189.2610  177.8280  146.2350 C   0  0  0  0  0  2  0  0  0  0  0  0
  191.1580  176.3540  147.0670 C   0  0  0  0  0  2  0  0  0  0  0  0
  1 19  1  6  0  0  0
  1 12  1  0  0  0  0
  1 21  1  0  0  0  0
  2  3  1  0  0  0  0
  3 14  1  0  0  0  0
  3  5  2  0  0  0  0
  4 23  1  6  0  0  0
  4 20  1  0  0  0  0
  5 25  1  0  0  0  0
  6 11  1  0  0  0  0
  7 15  1  6  0  0  0
  7  6  1  0  0  0  0
  8 15  2  0  0  0  0
  8 10  1  0  0  0  0
 10 17  1  0  0  0  0
 11 17  1  6  0  0  0
 12 18  2  0  0  0  0
 13 11  1  0  0  0  0
 13  4  1  0  0  0  0
 16  1  1  0  0  0  0
 16  7  1  0  0  0  0
 16  9  1  6  0  0  0
 16 21  1  0  0  0  0
 18  2  2  0  0  0  0
 20 14  1  0  0  0  0
 21  9  1  6  0  0  0
 22 23  2  0  0  0  0
 23 24  1  0  0  0  0
 25 26  1  0  0  0  0
 26 28  1  0  0  0  0
 27 26  2  0  0  0  0
 29 28  1  0  0  0  0
 31 35  1  0  0  0  0
 32 29  1  6  0  0  0
 32 33  1  0  0  0  0
 32 34  1  0  0  0  0
 33 31  1  0  0  0  0
 34 30  1  0  0  0  0
 35 30  1  0  0  0  0
M  END
>  <MODEL>
4

>  <REMARK>
 VINA RESULT:      -7.4      2.266      9.252
  Name = 
  6 active torsions:
  status: ('A' for Active; 'I' for Inactive)
    1  A    between atoms: C_5  and  C_28
    2  A    between atoms: C_6  and  C_19
    3  A    between atoms: C_6  and  C_20
    4  A    between atoms: N_7  and  C_20
    5  A    between atoms: O_9  and  C_16
    6  A    between atoms: O_9  and  C_19
                            x       y       z     vdW  Elec       q    Type
                         _______ _______ _______ _____ _____    ______ ____

>  <TORSDO>
F 6

$$$$
=
 OpenBabel11062415343D

 35 39  0  0  1  0  0  0  0  0999 V2000
  190.7210  177.6910  142.7140 C   0  0  2  0  0  0  0  0  0  0  0  0
  187.7780  179.0380  141.1210 C   0  0  0  0  0  3  0  0  0  0  0  0
  186.4740  178.4380  141.4380 C   0  0  0  0  0  0  0  0  0  0  0  0
  185.9780  178.2100  145.1880 C   0  0  2  0  0  3  0  0  0  0  0  0
  185.5160  178.5490  140.5690 N   0  0  0  0  0  0  0  0  0  0  0  0
  188.7210  176.2690  145.2460 C   0  0  0  0  0  2  0  0  0  0  0  0
  190.0080  177.1100  145.1380 C   0  0  1  0  0  3  0  0  0  0  0  0
  190.4130  177.4010  147.5930 C   0  0  0  0  0  3  0  0  0  0  0  0
  190.9450  175.3330  143.5090 C   0  0  0  0  0  2  0  0  0  0  0  0
  189.0780  178.0390  147.8270 C   0  0  0  0  0  2  0  0  0  0  0  0
  187.6220  176.9680  146.0460 C   0  0  2  0  0  3  0  0  0  0  0  0
  189.7850  178.8570  142.7780 C   0  0  0  0  0  3  0  0  0  0  0  0
  187.3390  178.2350  145.5160 O   0  0  0  0  0  0  0  0  0  0  0  0
  186.2560  177.7550  142.7580 C   0  0  0  0  0  2  0  0  0  0  0  0
  190.8290  176.9870  146.3900 C   0  0  0  0  0  3  0  0  0  0  0  0
  190.9160  176.7920  143.9260 C   0  0  2  0  0  0  0  0  0  0  0  0
  187.9440  177.0600  147.5390 C   0  0  0  0  0  2  0  0  0  0  0  0
  188.7890  178.9620  141.9420 C   0  0  0  0  0  0  0  0  0  0  0  0
  191.8300  177.7930  141.8720 O   0  0  0  0  0  1  0  0  0  0  0  0
  185.7820  178.7640  143.7870 C   0  0  0  0  0  2  0  0  0  0  0  0
  190.0920  176.3150  142.7250 C   0  0  1  0  0  3  0  0  0  0  0  0
  183.9400  179.0780  146.0990 O   0  0  0  0  0  0  0  0  0  0  0  0
  185.1970  179.0300  146.1630 C   0  0  0  0  0  0  0  0  0  0  0  0
  185.8610  179.7170  147.1700 O   0  0  0  0  0  1  0  0  0  0  0  0
  184.1760  178.0160  140.7730 C   0  0  0  0  0  2  0  0  0  0  0  0
  183.5270  177.7720  139.4520 C   0  0  0  0  0  0  0  0  0  0  0  0
  182.3400  178.0120  139.3040 O   0  0  0  0  0  0  0  0  0  0  0  0
  184.3080  177.1770  138.3270 C   0  0  0  0  0  2  0  0  0  0  0  0
  184.8890  178.1910  137.5610 O   0  0  0  0  0  0  0  0  0  0  0  0
  188.0770  178.0620  137.6310 C   0  0  0  0  0  2  0  0  0  0  0  0
  187.4180  175.7900  137.0150 O   0  0  0  0  0  0  0  0  0  0  0  0
  185.7710  177.5350  136.7000 C   0  0  2  0  0  3  0  0  0  0  0  0
  186.0750  176.1320  137.2470 C   0  0  0  0  0  2  0  0  0  0  0  0
  187.0510  178.3640  136.5350 C   0  0  0  0  0  2  0  0  0  0  0  0
  188.1770  176.5550  137.9220 C   0  0  0  0  0  2  0  0  0  0  0  0
  1 19  1  6  0  0  0
  1 21  1  0  0  0  0
  1 12  1  0  0  0  0
  1 16  1  0  0  0  0
  2  3  1  0  0  0  0
  2 18  2  0  0  0  0
  3 14  1  0  0  0  0
  4 13  1  0  0  0  0
  4 23  1  1  0  0  0
  5 25  1  0  0  0  0
  5  3  2  0  0  0  0
  7  6  1  1  0  0  0
  7 15  1  0  0  0  0
  8 10  1  0  0  0  0
 11  6  1  6  0  0  0
 11 17  1  0  0  0  0
 13 11  1  0  0  0  0
 14 20  1  0  0  0  0
 15  8  2  0  0  0  0
 16  9  1  1  0  0  0
 16  7  1  0  0  0  0
 17 10  1  0  0  0  0
 18 12  2  0  0  0  0
 20  4  1  0  0  0  0
 21  9  1  6  0  0  0
 21 16  1  0  0  0  0
 22 23  2  0  0  0  0
 23 24  1  0  0  0  0
 26 25  1  0  0  0  0
 27 26  2  0  0  0  0
 28 26  1  0  0  0  0
 29 28  1  0  0  0  0
 30 35  1  0  0  0  0
 31 33  1  0  0  0  0
 31 35  1  0  0  0  0
 32 33  1  0  0  0  0
 32 29  1  1  0  0  0
 34 32  1  0  0  0  0
 34 30  1  0  0  0  0
M  END
>  <MODEL>
5

>  <REMARK>
 VINA RESULT:      -7.1      2.282      4.329
  Name = 
  6 active torsions:
  status: ('A' for Active; 'I' for Inactive)
    1  A    between atoms: C_5  and  C_28
    2  A    between atoms: C_6  and  C_19
    3  A    between atoms: C_6  and  C_20
    4  A    between atoms: N_7  and  C_20
    5  A    between atoms: O_9  and  C_16
    6  A    between atoms: O_9  and  C_19
                            x       y       z     vdW  Elec       q    Type
                         _______ _______ _______ _____ _____    ______ ____

>  <TORSDO>
F 6

$$$$
=
 OpenBabel11062415343D

 35 39  0  0  1  0  0  0  0  0999 V2000
  190.8880  177.6390  142.8710 C   0  0  2  0  0  0  0  0  0  0  0  0
  188.1340  179.1250  141.0770 C   0  0  0  0  0  3  0  0  0  0  0  0
  186.7860  178.5740  141.2830 C   0  0  0  0  0  0  0  0  0  0  0  0
  185.9920  178.3200  144.9790 C   0  0  2  0  0  3  0  0  0  0  0  0
  185.9040  178.7340  140.3450 N   0  0  0  0  0  0  0  0  0  0  0  0
  188.6430  176.2680  145.2190 C   0  0  0  0  0  2  0  0  0  0  0  0
  189.9670  177.0570  145.2240 C   0  0  1  0  0  3  0  0  0  0  0  0
  190.1910  177.3010  147.7070 C   0  0  0  0  0  3  0  0  0  0  0  0
  190.9560  175.2640  143.6440 C   0  0  0  0  0  2  0  0  0  0  0  0
  188.8680  177.9890  147.8470 C   0  0  0  0  0  2  0  0  0  0  0  0
  187.5140  177.0020  145.9430 C   0  0  2  0  0  3  0  0  0  0  0  0
  189.9980  178.8410  142.8810 C   0  0  0  0  0  3  0  0  0  0  0  0
  187.3230  178.2850  145.4120 O   0  0  0  0  0  0  0  0  0  0  0  0
  186.4390  177.8840  142.5710 C   0  0  0  0  0  2  0  0  0  0  0  0
  190.6820  176.8860  146.5340 C   0  0  0  0  0  3  0  0  0  0  0  0
  190.9530  176.7180  144.0810 C   0  0  2  0  0  0  0  0  0  0  0  0
  187.7220  177.0610  147.4570 C   0  0  0  0  0  2  0  0  0  0  0  0
  189.0740  178.9970  141.9730 C   0  0  0  0  0  0  0  0  0  0  0  0
  192.0620  177.7060  142.1190 O   0  0  0  0  0  1  0  0  0  0  0  0
  185.9270  178.8980  143.5770 C   0  0  0  0  0  2  0  0  0  0  0  0
  190.2060  176.2900  142.8120 C   0  0  1  0  0  3  0  0  0  0  0  0
  185.7170  179.8240  146.8230 O   0  0  0  0  0  1  0  0  0  0  0  0
  185.1700  179.1590  145.9040 C   0  0  0  0  0  0  0  0  0  0  0  0
  183.7960  179.2350  145.7240 O   0  0  0  0  0  0  0  0  0  0  0  0
  184.5310  178.2540  140.4360 C   0  0  0  0  0  2  0  0  0  0  0  0
  183.6020  179.2820  139.8850 C   0  0  0  0  0  0  0  0  0  0  0  0
  184.0150  180.1120  139.0910 O   0  0  0  0  0  0  0  0  0  0  0  0
  182.1830  179.3390  140.3460 C   0  0  0  0  0  2  0  0  0  0  0  0
  181.6810  178.0450  140.5070 O   0  0  0  0  0  0  0  0  0  0  0  0
  180.0490  178.5530  143.2020 C   0  0  0  0  0  2  0  0  0  0  0  0
  178.9510  180.0110  141.5760 O   0  0  0  0  0  0  0  0  0  0  0  0
  180.3070  178.2090  140.6970 C   0  0  2  0  0  3  0  0  0  0  0  0
  179.9560  179.7050  140.6440 C   0  0  0  0  0  2  0  0  0  0  0  0
  179.8860  177.5800  142.0310 C   0  0  0  0  0  2  0  0  0  0  0  0
  179.5670  179.9690  142.8420 C   0  0  0  0  0  2  0  0  0  0  0  0
  1 19  1  6  0  0  0
  1 12  1  0  0  0  0
  1 16  1  0  0  0  0
  2  3  1  0  0  0  0
  2 18  2  0  0  0  0
  3 14  1  0  0  0  0
  4 13  1  0  0  0  0
  4 23  1  1  0  0  0
  5 25  1  0  0  0  0
  5  3  2  0  0  0  0
  7  6  1  1  0  0  0
  7 15  1  0  0  0  0
  8 10  1  0  0  0  0
 11  6  1  6  0  0  0
 11 17  1  0  0  0  0
 13 11  1  0  0  0  0
 14 20  1  0  0  0  0
 15  8  2  0  0  0  0
 16  9  1  1  0  0  0
 16  7  1  0  0  0  0
 17 10  1  0  0  0  0
 18 12  2  0  0  0  0
 20  4  1  0  0  0  0
 21  1  1  0  0  0  0
 21  9  1  6  0  0  0
 21 16  1  0  0  0  0
 23 22  1  0  0  0  0
 24 23  2  0  0  0  0
 26 28  1  0  0  0  0
 26 25  1  0  0  0  0
 27 26  2  0  0  0  0
 28 29  1  0  0  0  0
 31 35  1  0  0  0  0
 32 29  1  1  0  0  0
 32 34  1  0  0  0  0
 33 32  1  0  0  0  0
 33 31  1  0  0  0  0
 34 30  1  0  0  0  0
 35 30  1  0  0  0  0
M  END
>  <MODEL>
6

>  <REMARK>
 VINA RESULT:      -7.1      3.300      5.646
  Name = 
  6 active torsions:
  status: ('A' for Active; 'I' for Inactive)
    1  A    between atoms: C_5  and  C_28
    2  A    between atoms: C_6  and  C_19
    3  A    between atoms: C_6  and  C_20
    4  A    between atoms: N_7  and  C_20
    5  A    between atoms: O_9  and  C_16
    6  A    between atoms: O_9  and  C_19
                            x       y       z     vdW  Elec       q    Type
                         _______ _______ _______ _____ _____    ______ ____

>  <TORSDO>
F 6

$$$$
=
 OpenBabel11062415343D

 35 39  0  0  1  0  0  0  0  0999 V2000
  183.6050  172.8300  136.6290 C   0  0  2  0  0  0  0  0  0  0  0  0
  186.7880  174.4930  136.9710 C   0  0  0  0  0  3  0  0  0  0  0  0
  186.8770  175.9150  136.6060 C   0  0  0  0  0  0  0  0  0  0  0  0
  184.1380  177.9090  138.3010 C   0  0  2  0  0  3  0  0  0  0  0  0
  188.0340  176.3910  136.2570 N   0  0  0  0  0  0  0  0  0  0  0  0
  181.9530  175.9450  136.6710 C   0  0  0  0  0  2  0  0  0  0  0  0
  181.8200  174.5680  137.3490 C   0  0  1  0  0  3  0  0  0  0  0  0
  179.8880  175.1260  138.8430 C   0  0  0  0  0  3  0  0  0  0  0  0
  181.8320  173.4910  134.9970 C   0  0  0  0  0  2  0  0  0  0  0  0
  180.6130  176.2570  139.5040 C   0  0  0  0  0  2  0  0  0  0  0  0
  182.1640  177.0800  137.6730 C   0  0  2  0  0  3  0  0  0  0  0  0
  184.5130  173.4180  137.6620 C   0  0  0  0  0  3  0  0  0  0  0  0
  183.2700  176.8280  138.4960 O   0  0  0  0  0  0  0  0  0  0  0  0
  185.6620  176.7940  136.6830 C   0  0  0  0  0  2  0  0  0  0  0  0
  180.4290  174.3690  137.8800 C   0  0  0  0  0  3  0  0  0  0  0  0
  182.1840  173.3490  136.4670 C   0  0  2  0  0  0  0  0  0  0  0  0
  180.9160  177.3720  138.5080 C   0  0  0  0  0  2  0  0  0  0  0  0
  185.6590  173.9430  137.3250 C   0  0  0  0  0  0  0  0  0  0  0  0
  183.7820  171.4860  136.2980 O   0  0  0  0  0  1  0  0  0  0  0  0
  185.5490  177.3960  138.0710 C   0  0  0  0  0  2  0  0  0  0  0  0
  183.2680  173.7080  135.4440 C   0  0  1  0  0  3  0  0  0  0  0  0
  184.6430  179.9510  139.4480 O   0  0  0  0  0  0  0  0  0  0  0  0
  184.1240  178.8050  139.4980 C   0  0  0  0  0  0  0  0  0  0  0  0
  183.4990  178.3840  140.6640 O   0  0  0  0  0  1  0  0  0  0  0  0
  188.2570  177.7840  135.8930 C   0  0  0  0  0  2  0  0  0  0  0  0
  188.8810  178.5070  137.0380 C   0  0  0  0  0  0  0  0  0  0  0  0
  188.7050  179.7070  137.1680 O   0  0  0  0  0  0  0  0  0  0  0  0
  189.7720  177.7820  137.9920 C   0  0  0  0  0  2  0  0  0  0  0  0
  189.7250  178.3940  139.2470 O   0  0  0  0  0  0  0  0  0  0  0  0
  190.6610  177.5050  142.1660 C   0  0  0  0  0  2  0  0  0  0  0  0
  188.2220  177.5260  142.3210 O   0  0  0  0  0  0  0  0  0  0  0  0
  189.1820  177.4310  140.1010 C   0  0  2  0  0  3  0  0  0  0  0  0
  188.1600  178.0950  141.0380 C   0  0  0  0  0  2  0  0  0  0  0  0
  190.3010  176.7410  140.8890 C   0  0  0  0  0  2  0  0  0  0  0  0
  189.4100  178.0090  142.9040 C   0  0  0  0  0  2  0  0  0  0  0  0
  1 19  1  6  0  0  0
  1 12  1  0  0  0  0
  2 18  2  0  0  0  0
  3 14  1  0  0  0  0
  3  2  1  0  0  0  0
  4 13  1  0  0  0  0
  4 23  1  1  0  0  0
  5  3  2  0  0  0  0
  7  6  1  6  0  0  0
  7 15  1  0  0  0  0
  8 10  1  0  0  0  0
 11  6  1  1  0  0  0
 11 13  1  0  0  0  0
 11 17  1  0  0  0  0
 14 20  1  0  0  0  0
 15  8  2  0  0  0  0
 16  9  1  6  0  0  0
 16  1  1  0  0  0  0
 16  7  1  0  0  0  0
 17 10  1  0  0  0  0
 18 12  2  0  0  0  0
 20  4  1  0  0  0  0
 21  9  1  6  0  0  0
 21 16  1  0  0  0  0
 21  1  1  0  0  0  0
 22 23  2  0  0  0  0
 23 24  1  0  0  0  0
 25  5  1  0  0  0  0
 25 26  1  0  0  0  0
 26 27  2  0  0  0  0
 26 28  1  0  0  0  0
 28 29  1  0  0  0  0
 30 35  1  0  0  0  0
 31 35  1  0  0  0  0
 32 29  1  6  0  0  0
 32 34  1  0  0  0  0
 32 33  1  0  0  0  0
 33 31  1  0  0  0  0
 34 30  1  0  0  0  0
M  END
>  <MODEL>
7

>  <REMARK>
 VINA RESULT:      -6.8      3.276      8.162
  Name = 
  6 active torsions:
  status: ('A' for Active; 'I' for Inactive)
    1  A    between atoms: C_5  and  C_28
    2  A    between atoms: C_6  and  C_19
    3  A    between atoms: C_6  and  C_20
    4  A    between atoms: N_7  and  C_20
    5  A    between atoms: O_9  and  C_16
    6  A    between atoms: O_9  and  C_19
                            x       y       z     vdW  Elec       q    Type
                         _______ _______ _______ _____ _____    ______ ____

>  <TORSDO>
F 6

$$$$
=
 OpenBabel11062415343D

 35 39  0  0  1  0  0  0  0  0999 V2000
  182.9080  178.3320  139.8480 C   0  0  2  0  0  0  0  0  0  0  0  0
  186.0380  179.3090  141.3510 C   0  0  0  0  0  3  0  0  0  0  0  0
  187.1990  178.4220  141.1890 C   0  0  0  0  0  0  0  0  0  0  0  0
  187.6940  177.5110  137.5450 C   0  0  2  0  0  3  0  0  0  0  0  0
  188.1470  178.4780  142.0740 N   0  0  0  0  0  0  0  0  0  0  0  0
  184.6180  176.1620  137.6550 C   0  0  0  0  0  2  0  0  0  0  0  0
  183.5250  177.2460  137.5750 C   0  0  1  0  0  3  0  0  0  0  0  0
  183.2230  177.2190  135.0880 C   0  0  0  0  0  3  0  0  0  0  0  0
  182.2260  175.9680  139.4110 C   0  0  0  0  0  2  0  0  0  0  0  0
  184.6620  177.5370  134.8220 C   0  0  0  0  0  2  0  0  0  0  0  0
  185.8470  176.4970  136.8100 C   0  0  2  0  0  3  0  0  0  0  0  0
  184.0600  179.2660  139.6500 C   0  0  0  0  0  3  0  0  0  0  0  0
  186.3710  177.7500  137.1540 O   0  0  0  0  0  0  0  0  0  0  0  0
  187.2950  177.5100  140.0000 C   0  0  0  0  0  2  0  0  0  0  0  0
  182.7150  177.0900  136.3200 C   0  0  0  0  0  3  0  0  0  0  0  0
  182.5540  177.3080  138.7780 C   0  0  2  0  0  0  0  0  0  0  0  0
  185.5720  176.4120  135.3070 C   0  0  0  0  0  2  0  0  0  0  0  0
  185.0440  179.3040  140.5050 C   0  0  0  0  0  0  0  0  0  0  0  0
  181.8300  178.7810  140.6120 O   0  0  0  0  0  1  0  0  0  0  0  0
  187.9770  178.2300  138.8520 C   0  0  0  0  0  2  0  0  0  0  0  0
  183.2480  176.8750  140.0750 C   0  0  1  0  0  3  0  0  0  0  0  0
  189.1600  179.1410  136.5780 O   0  0  0  0  0  1  0  0  0  0  0  0
  188.6390  177.9970  136.4930 C   0  0  0  0  0  0  0  0  0  0  0  0
  188.9730  177.1670  135.4320 O   0  0  0  0  0  0  0  0  0  0  0  0
  189.3560  177.6670  142.0160 C   0  0  0  0  0  2  0  0  0  0  0  0
  189.3200  176.6360  143.0920 C   0  0  0  0  0  0  0  0  0  0  0  0
  188.5910  175.6640  142.9810 O   0  0  0  0  0  0  0  0  0  0  0  0
  190.1270  176.8170  144.3360 C   0  0  0  0  0  2  0  0  0  0  0  0
  189.5530  177.8070  145.1370 O   0  0  0  0  0  0  0  0  0  0  0  0
  188.9550  178.0360  148.2640 C   0  0  0  0  0  2  0  0  0  0  0  0
  186.7320  177.8850  147.2580 O   0  0  0  0  0  0  0  0  0  0  0  0
  188.6010  177.1400  145.9110 C   0  0  2  0  0  3  0  0  0  0  0  0
  187.3180  177.9830  145.9850 C   0  0  0  0  0  2  0  0  0  0  0  0
  189.1680  176.8580  147.3080 C   0  0  0  0  0  2  0  0  0  0  0  0
  187.5480  178.6420  148.1210 C   0  0  0  0  0  2  0  0  0  0  0  0
  1 21  1  0  0  0  0
  1 19  1  1  0  0  0
  3  2  1  0  0  0  0
  3  5  2  0  0  0  0
  4 23  1  6  0  0  0
  4 20  1  0  0  0  0
  7 15  1  6  0  0  0
  7  6  1  0  0  0  0
  7 16  1  0  0  0  0
  8 15  2  0  0  0  0
 10  8  1  0  0  0  0
 10 17  1  0  0  0  0
 11 17  1  6  0  0  0
 11 13  1  0  0  0  0
 11  6  1  0  0  0  0
 12  1  1  0  0  0  0
 12 18  2  0  0  0  0
 13  4  1  0  0  0  0
 14  3  1  0  0  0  0
 16  9  1  6  0  0  0
 16  1  1  0  0  0  0
 16 21  1  0  0  0  0
 18  2  2  0  0  0  0
 20 14  1  0  0  0  0
 21  9  1  1  0  0  0
 23 22  1  0  0  0  0
 24 23  2  0  0  0  0
 25  5  1  0  0  0  0
 25 26  1  0  0  0  0
 26 28  1  0  0  0  0
 27 26  2  0  0  0  0
 28 29  1  0  0  0  0
 31 35  1  0  0  0  0
 32 29  1  6  0  0  0
 32 33  1  0  0  0  0
 32 34  1  0  0  0  0
 33 31  1  0  0  0  0
 34 30  1  0  0  0  0
 35 30  1  0  0  0  0
M  END
>  <MODEL>
8

>  <REMARK>
 VINA RESULT:      -6.7      2.279      8.457
  Name = 
  6 active torsions:
  status: ('A' for Active; 'I' for Inactive)
    1  A    between atoms: C_5  and  C_28
    2  A    between atoms: C_6  and  C_19
    3  A    between atoms: C_6  and  C_20
    4  A    between atoms: N_7  and  C_20
    5  A    between atoms: O_9  and  C_16
    6  A    between atoms: O_9  and  C_19
                            x       y       z     vdW  Elec       q    Type
                         _______ _______ _______ _____ _____    ______ ____

>  <TORSDO>
F 6

$$$$
=
 OpenBabel11062415343D

 35 39  0  0  1  0  0  0  0  0999 V2000
  190.4610  177.7640  142.5300 C   0  0  2  0  0  0  0  0  0  0  0  0
  187.4110  179.0030  141.0550 C   0  0  0  0  0  3  0  0  0  0  0  0
  186.1400  178.3720  141.4410 C   0  0  0  0  0  0  0  0  0  0  0  0
  185.8240  178.1930  145.2130 C   0  0  2  0  0  3  0  0  0  0  0  0
  185.1400  178.4430  140.6160 N   0  0  0  0  0  0  0  0  0  0  0  0
  188.6200  176.3290  145.1740 C   0  0  0  0  0  2  0  0  0  0  0  0
  189.8760  177.2030  144.9940 C   0  0  1  0  0  3  0  0  0  0  0  0
  190.3850  177.5450  147.4230 C   0  0  0  0  0  3  0  0  0  0  0  0
  190.7860  175.4260  143.3500 C   0  0  0  0  0  2  0  0  0  0  0  0
  189.0450  178.1500  147.7090 C   0  0  0  0  0  2  0  0  0  0  0  0
  187.5390  177.0110  146.0130 C   0  0  2  0  0  3  0  0  0  0  0  0
  189.4960  178.9040  142.6200 C   0  0  0  0  0  3  0  0  0  0  0  0
  187.1970  178.2600  145.4780 O   0  0  0  0  0  0  0  0  0  0  0  0
  186.0020  177.7060  142.7800 C   0  0  0  0  0  2  0  0  0  0  0  0
  190.7570  177.1230  146.2080 C   0  0  0  0  0  3  0  0  0  0  0  0
  190.7360  176.8900  143.7460 C   0  0  2  0  0  0  0  0  0  0  0  0
  187.9270  177.1360  147.4880 C   0  0  0  0  0  2  0  0  0  0  0  0
  188.4610  178.9680  141.8300 C   0  0  0  0  0  0  0  0  0  0  0  0
  191.5260  177.8820  141.6370 O   0  0  0  0  0  1  0  0  0  0  0  0
  185.5470  178.7180  143.8150 C   0  0  0  0  0  2  0  0  0  0  0  0
  189.8710  176.3710  142.5910 C   0  0  1  0  0  3  0  0  0  0  0  0
  183.8060  179.0030  146.2190 O   0  0  0  0  0  0  0  0  0  0  0  0
  185.0650  179.0070  146.2110 C   0  0  0  0  0  0  0  0  0  0  0  0
  185.7560  179.7470  147.1610 O   0  0  0  0  0  1  0  0  0  0  0  0
  183.8260  177.8770  140.8900 C   0  0  0  0  0  2  0  0  0  0  0  0
  182.7680  178.8060  140.3990 C   0  0  0  0  0  0  0  0  0  0  0  0
  181.8970  179.1930  141.1610 O   0  0  0  0  0  0  0  0  0  0  0  0
  182.7330  179.2170  138.9640 C   0  0  0  0  0  2  0  0  0  0  0  0
  182.3920  180.5680  138.8630 O   0  0  0  0  0  0  0  0  0  0  0  0
  180.8060  182.5410  136.9200 C   0  0  0  0  0  2  0  0  0  0  0  0
  179.8570  180.3460  136.4170 O   0  0  0  0  0  0  0  0  0  0  0  0
  181.0390  180.5770  138.5170 C   0  0  2  0  0  3  0  0  0  0  0  0
  180.8320  179.7530  137.2370 C   0  0  0  0  0  2  0  0  0  0  0  0
  180.5560  182.0220  138.3390 C   0  0  0  0  0  2  0  0  0  0  0  0
  180.4620  181.4870  135.8550 C   0  0  0  0  0  2  0  0  0  0  0  0
  1 19  1  6  0  0  0
  1 21  1  0  0  0  0
  1 12  1  0  0  0  0
  1 16  1  0  0  0  0
  2  3  1  0  0  0  0
  2 18  2  0  0  0  0
  3 14  1  0  0  0  0
  4 13  1  0  0  0  0
  4 23  1  1  0  0  0
  5 25  1  0  0  0  0
  5  3  2  0  0  0  0
  7  6  1  1  0  0  0
  7 15  1  0  0  0  0
  8 10  1  0  0  0  0
 11  6  1  6  0  0  0
 11 17  1  0  0  0  0
 13 11  1  0  0  0  0
 14 20  1  0  0  0  0
 15  8  2  0  0  0  0
 16  9  1  1  0  0  0
 16  7  1  0  0  0  0
 17 10  1  0  0  0  0
 18 12  2  0  0  0  0
 20  4  1  0  0  0  0
 21  9  1  6  0  0  0
 21 16  1  0  0  0  0
 23 22  2  0  0  0  0
 23 24  1  0  0  0  0
 26 25  1  0  0  0  0
 26 27  2  0  0  0  0
 28 26  1  0  0  0  0
 29 28  1  0  0  0  0
 30 34  1  0  0  0  0
 31 33  1  0  0  0  0
 32 29  1  6  0  0  0
 33 32  1  0  0  0  0
 34 32  1  0  0  0  0
 35 31  1  0  0  0  0
 35 30  1  0  0  0  0
M  END
>  <MODEL>
9

>  <REMARK>
 VINA RESULT:      -6.7      3.555      5.525
  Name = 
  6 active torsions:
  status: ('A' for Active; 'I' for Inactive)
    1  A    between atoms: C_5  and  C_28
    2  A    between atoms: C_6  and  C_19
    3  A    between atoms: C_6  and  C_20
    4  A    between atoms: N_7  and  C_20
    5  A    between atoms: O_9  and  C_16
    6  A    between atoms: O_9  and  C_19
                            x       y       z     vdW  Elec       q    Type
                         _______ _______ _______ _____ _____    ______ ____

>  <TORSDO>
F 6

$$$$
