=
 OpenBabel11062413033D

 38 43  0  0  1  0  0  0  0  0999 V2000
  187.7900  177.4610  143.9970 C   0  0  1  0  0  0  0  0  0  0  0  0
  188.7890  178.6070  144.0660 C   0  0  0  0  0  2  0  0  0  0  0  0
  188.4390  177.8480  145.3390 C   0  0  2  0  0  3  0  0  0  0  0  0
  183.3910  179.2760  145.4910 O   0  0  0  0  0  1  0  0  0  0  0  0
  183.9240  178.5490  144.4270 C   0  0  2  0  0  3  0  0  0  0  0  0
  185.3360  178.1070  144.7620 C   0  0  0  0  0  0  0  0  0  0  0  0
  184.6900  178.7420  142.0740 C   0  0  0  0  0  0  0  0  0  0  0  0
  185.6020  177.8250  145.9620 O   0  0  0  0  0  0  0  0  0  0  0  0
  183.8560  179.3950  143.1560 C   0  0  0  0  0  2  0  0  0  0  0  0
  183.9310  177.8420  141.1370 C   0  0  0  0  0  2  0  0  0  0  0  0
  184.4690  179.1830  140.6520 C   0  0  0  0  0  2  0  0  0  0  0  0
  186.3720  177.9400  143.6930 C   0  0  0  0  0  0  0  0  0  0  0  0
  186.0540  178.2600  142.4290 C   0  0  0  0  0  3  0  0  0  0  0  0
  192.0410  176.5800  145.8180 C   0  0  0  0  0  2  0  0  0  0  0  0
  190.9130  177.5120  145.3800 C   0  0  0  0  0  2  0  0  0  0  0  0
  189.5630  176.9130  145.7610 C   0  0  1  0  0  3  0  0  0  0  0  0
  191.9840  176.3130  147.3290 C   0  0  2  0  0  3  0  0  0  0  0  0
  189.5080  176.7250  147.2780 C   0  0  0  0  0  2  0  0  0  0  0  0
  192.9510  175.3660  147.6630 O   0  0  0  0  0  1  0  0  0  0  0  0
  190.6130  175.7810  147.7310 C   0  0  0  0  0  2  0  0  0  0  0  0
  188.3720  176.3810  143.1960 N   0  0  0  0  0  2  0  0  0  0  0  0
  188.2930  176.7070  141.7760 C   0  0  0  0  0  2  0  0  0  0  0  0
  188.2730  179.1830  140.1460 O   0  0  0  0  0  1  0  0  0  0  0  0
  191.9280  177.1060  140.5150 C   0  0  0  0  0  3  0  0  0  0  0  0
  189.5480  177.4520  141.3160 C   0  0  2  0  0  3  0  0  0  0  0  0
  190.6700  176.6880  138.5270 C   0  0  0  0  0  2  0  0  0  0  0  0
  189.3610  178.3170  140.0420 C   0  0  1  0  0  3  0  0  0  0  0  0
  190.7990  176.5550  141.3440 C   0  0  2  0  0  3  0  0  0  0  0  0
  191.8410  177.1680  139.2310 N   0  0  0  0  0  0  0  0  0  0  0  0
  189.4780  177.6530  138.6400 C   0  0  2  0  0  3  0  0  0  0  0  0
  191.2290  176.3840  142.6440 F   0  0  0  0  0  0  0  0  0  0  0  0
  186.9370  177.7920  138.2500 C   0  0  0  0  0  2  0  0  0  0  0  0
  186.0330  177.0820  137.2810 C   0  0  0  0  0  2  0  0  0  0  0  0
  188.2170  176.4470  136.7790 N   0  0  0  0  0  0  0  0  0  0  0  0
  188.1840  176.9620  138.1530 C   0  0  1  0  0  3  0  0  0  0  0  0
  186.8680  176.2320  136.4270 N   0  0  0  0  0  2  0  0  0  0  0  0
  188.7220  177.4600  135.8460 C   0  0  0  0  0  2  0  0  0  0  0  0
  189.8060  176.9380  135.1300 O   0  0  0  0  0  1  0  0  0  0  0  0
  1 21  1  6  0  0  0
  1  2  1  0  0  0  0
  1  3  1  0  0  0  0
  3  2  1  6  0  0  0
  3 16  1  0  0  0  0
  5  6  1  0  0  0  0
  5  4  1  1  0  0  0
  6  8  2  0  0  0  0
  7 13  1  0  0  0  0
  7  9  1  0  0  0  0
  9  5  1  0  0  0  0
 10  7  1  0  0  0  0
 11 10  1  0  0  0  0
 11  7  1  0  0  0  0
 12  1  1  0  0  0  0
 12  6  1  0  0  0  0
 13 12  2  0  0  0  0
 14 17  1  0  0  0  0
 15 14  1  0  0  0  0
 16 15  1  1  0  0  0
 16 18  1  0  0  0  0
 17 19  1  6  0  0  0
 17 20  1  0  0  0  0
 18 20  1  0  0  0  0
 22 21  1  0  0  0  0
 24 28  1  0  0  0  0
 25 28  1  0  0  0  0
 25 22  1  6  0  0  0
 26 29  1  0  0  0  0
 27 23  1  1  0  0  0
 27 25  1  0  0  0  0
 28 31  1  1  0  0  0
 29 24  2  0  0  0  0
 30 26  1  1  0  0  0
 30 27  1  0  0  0  0
 33 32  1  0  0  0  0
 34 35  1  0  0  0  0
 35 32  1  6  0  0  0
 35 30  1  0  0  0  0
 36 34  1  0  0  0  0
 36 33  1  0  0  0  0
 37 34  1  0  0  0  0
 38 37  1  0  0  0  0
M  END
>  <MODEL>
1

>  <REMARK>
 VINA RESULT:      -8.3      0.000      0.000
  Name = 
  7 active torsions:
  status: ('A' for Active; 'I' for Inactive)
    1  A    between atoms: C_2  and  N_32
    2  A    between atoms: C_2  and  C_33
    3  A    between atoms: C_7  and  N_14
    4  A    between atoms: C_11  and  C_17
    5  A    between atoms: C_15  and  C_28
    6  A    between atoms: C_17  and  N_32
    7  A    between atoms: C_25  and  C_34
                            x       y       z     vdW  Elec       q    Type
                         _______ _______ _______ _____ _____    ______ ____

>  <TORSDO>
F 7

$$$$
=
 OpenBabel11062413033D

 38 43  0  0  1  0  0  0  0  0999 V2000
  183.9950  178.2380  138.7530 C   0  0  1  0  0  0  0  0  0  0  0  0
  183.8540  176.8080  138.2510 C   0  0  0  0  0  2  0  0  0  0  0  0
  184.6870  177.7980  137.4490 C   0  0  2  0  0  3  0  0  0  0  0  0
  181.4910  182.4800  137.9710 O   0  0  0  0  0  1  0  0  0  0  0  0
  181.3220  181.2640  138.6310 C   0  0  2  0  0  3  0  0  0  0  0  0
  182.6400  180.5150  138.6760 C   0  0  0  0  0  0  0  0  0  0  0  0
  180.2250  179.0440  138.4570 C   0  0  0  0  0  0  0  0  0  0  0  0
  183.7020  181.1870  138.7770 O   0  0  0  0  0  0  0  0  0  0  0  0
  180.2140  180.4670  137.9420 C   0  0  0  0  0  2  0  0  0  0  0  0
  179.2810  178.7680  139.5960 C   0  0  0  0  0  2  0  0  0  0  0  0
  179.0060  178.1960  138.2100 C   0  0  0  0  0  2  0  0  0  0  0  0
  182.6840  179.0170  138.6700 C   0  0  0  0  0  0  0  0  0  0  0  0
  181.5340  178.3380  138.5510 C   0  0  0  0  0  3  0  0  0  0  0  0
  188.0220  175.8860  137.2580 C   0  0  0  0  0  2  0  0  0  0  0  0
  186.5230  176.1410  137.1090 C   0  0  0  0  0  2  0  0  0  0  0  0
  186.1780  177.5390  137.6120 C   0  0  1  0  0  3  0  0  0  0  0  0
  188.8410  176.9420  136.5020 C   0  0  2  0  0  3  0  0  0  0  0  0
  186.9540  178.5720  136.7930 C   0  0  0  0  0  2  0  0  0  0  0  0
  190.1960  176.7450  136.7650 O   0  0  0  0  0  1  0  0  0  0  0  0
  188.4520  178.3470  136.9470 C   0  0  0  0  0  2  0  0  0  0  0  0
  184.7440  178.2200  140.0120 N   0  0  0  0  0  2  0  0  0  0  0  0
  183.8820  177.7850  141.1050 C   0  0  0  0  0  2  0  0  0  0  0  0
  185.9400  179.8740  141.5440 O   0  0  0  0  0  1  0  0  0  0  0  0
  183.1120  179.2320  144.6100 C   0  0  0  0  0  3  0  0  0  0  0  0
  183.8190  178.8470  142.2060 C   0  0  2  0  0  3  0  0  0  0  0  0
  185.2280  178.1570  144.8810 C   0  0  0  0  0  2  0  0  0  0  0  0
  185.1940  179.4240  142.6330 C   0  0  1  0  0  3  0  0  0  0  0  0
  182.8730  178.4410  143.3510 C   0  0  2  0  0  3  0  0  0  0  0  0
  184.2000  179.0940  145.2850 N   0  0  0  0  0  0  0  0  0  0  0  0
  186.0510  178.6650  143.6860 C   0  0  2  0  0  3  0  0  0  0  0  0
  181.5600  178.5980  142.9570 F   0  0  0  0  0  0  0  0  0  0  0  0
  187.8400  177.9110  141.9940 C   0  0  0  0  0  2  0  0  0  0  0  0
  188.8230  176.7740  142.0180 C   0  0  0  0  0  2  0  0  0  0  0  0
  187.7230  176.7760  144.0700 N   0  0  0  0  0  0  0  0  0  0  0  0
  186.9060  177.5170  143.1020 C   0  0  1  0  0  3  0  0  0  0  0  0
  188.6780  176.0790  143.3010 N   0  0  0  0  0  2  0  0  0  0  0  0
  188.4850  177.6900  144.9290 C   0  0  0  0  0  2  0  0  0  0  0  0
  188.4020  177.2590  146.2580 O   0  0  0  0  0  1  0  0  0  0  0  0
  1 21  1  1  0  0  0
  2  1  1  0  0  0  0
  3 16  1  0  0  0  0
  3  2  1  1  0  0  0
  3  1  1  0  0  0  0
  5  4  1  6  0  0  0
  5  6  1  0  0  0  0
  6  8  2  0  0  0  0
  7 13  1  0  0  0  0
  7 10  1  0  0  0  0
  9  7  1  0  0  0  0
  9  5  1  0  0  0  0
 11  7  1  0  0  0  0
 11 10  1  0  0  0  0
 12  6  1  0  0  0  0
 12  1  1  0  0  0  0
 13 12  2  0  0  0  0
 15 14  1  0  0  0  0
 15 16  1  0  0  0  0
 16 18  1  6  0  0  0
 17 19  1  1  0  0  0
 17 20  1  0  0  0  0
 17 14  1  0  0  0  0
 18 20  1  0  0  0  0
 21 22  1  0  0  0  0
 24 29  2  0  0  0  0
 25 22  1  6  0  0  0
 25 27  1  0  0  0  0
 25 28  1  0  0  0  0
 26 29  1  0  0  0  0
 27 23  1  6  0  0  0
 27 30  1  0  0  0  0
 28 31  1  6  0  0  0
 28 24  1  0  0  0  0
 30 26  1  1  0  0  0
 32 33  1  0  0  0  0
 33 36  1  0  0  0  0
 34 37  1  0  0  0  0
 35 32  1  6  0  0  0
 35 30  1  0  0  0  0
 35 34  1  0  0  0  0
 36 34  1  0  0  0  0
 37 38  1  0  0  0  0
M  END
>  <MODEL>
2

>  <REMARK>
 VINA RESULT:      -8.2      3.413      7.890
  Name = 
  7 active torsions:
  status: ('A' for Active; 'I' for Inactive)
    1  A    between atoms: C_2  and  N_32
    2  A    between atoms: C_2  and  C_33
    3  A    between atoms: C_7  and  N_14
    4  A    between atoms: C_11  and  C_17
    5  A    between atoms: C_15  and  C_28
    6  A    between atoms: C_17  and  N_32
    7  A    between atoms: C_25  and  C_34
                            x       y       z     vdW  Elec       q    Type
                         _______ _______ _______ _____ _____    ______ ____

>  <TORSDO>
F 7

$$$$
=
 OpenBabel11062413033D

 38 43  0  0  1  0  0  0  0  0999 V2000
  184.4800  178.7270  141.2400 C   0  0  1  0  0  0  0  0  0  0  0  0
  183.8040  177.4600  140.7360 C   0  0  0  0  0  2  0  0  0  0  0  0
  182.9500  178.6700  141.0840 C   0  0  2  0  0  3  0  0  0  0  0  0
  184.1690  179.0280  146.2090 O   0  0  0  0  0  1  0  0  0  0  0  0
  185.1450  179.0120  145.2130 C   0  0  2  0  0  3  0  0  0  0  0  0
  184.4960  179.1730  143.8530 C   0  0  0  0  0  0  0  0  0  0  0  0
  186.8150  177.5580  144.0920 C   0  0  0  0  0  0  0  0  0  0  0  0
  183.4680  179.8990  143.7670 O   0  0  0  0  0  0  0  0  0  0  0  0
  185.9600  177.7240  145.3300 C   0  0  0  0  0  2  0  0  0  0  0  0
  188.2200  178.0840  144.2090 C   0  0  0  0  0  2  0  0  0  0  0  0
  187.9600  176.5830  144.1520 C   0  0  0  0  0  2  0  0  0  0  0  0
  185.0920  178.5490  142.6280 C   0  0  0  0  0  0  0  0  0  0  0  0
  186.1800  177.7750  142.7610 C   0  0  0  0  0  3  0  0  0  0  0  0
  181.6500  179.0640  137.4830 C   0  0  0  0  0  2  0  0  0  0  0  0
  182.1750  178.3570  138.7310 C   0  0  0  0  0  2  0  0  0  0  0  0
  182.4410  179.3760  139.8350 C   0  0  1  0  0  3  0  0  0  0  0  0
  180.3730  179.8600  137.7930 C   0  0  2  0  0  3  0  0  0  0  0  0
  181.1370  180.1020  140.1720 C   0  0  0  0  0  2  0  0  0  0  0  0
  180.0000  180.5840  136.6610 O   0  0  0  0  0  1  0  0  0  0  0  0
  180.6090  180.8310  138.9440 C   0  0  0  0  0  2  0  0  0  0  0  0
  185.2980  179.2820  140.1580 N   0  0  0  0  0  2  0  0  0  0  0  0
  185.8160  178.2090  139.3150 C   0  0  0  0  0  2  0  0  0  0  0  0
  186.5770  178.6720  136.4870 O   0  0  0  0  0  1  0  0  0  0  0  0
  189.6790  178.0000  139.2700 C   0  0  0  0  0  3  0  0  0  0  0  0
  187.2360  178.5260  138.8410 C   0  0  2  0  0  3  0  0  0  0  0  0
  188.9830  176.1100  137.9850 C   0  0  0  0  0  2  0  0  0  0  0  0
  187.5270  178.1490  137.3640 C   0  0  1  0  0  3  0  0  0  0  0  0
  188.3000  178.1000  139.8680 C   0  0  2  0  0  3  0  0  0  0  0  0
  189.9630  177.0910  138.4030 N   0  0  0  0  0  0  0  0  0  0  0  0
  187.9440  176.6920  137.0120 C   0  0  2  0  0  3  0  0  0  0  0  0
  188.3240  178.9900  140.9210 F   0  0  0  0  0  0  0  0  0  0  0  0
  185.5520  176.2760  136.1550 C   0  0  0  0  0  2  0  0  0  0  0  0
  184.8510  175.0200  135.7180 C   0  0  0  0  0  2  0  0  0  0  0  0
  187.0660  174.4530  136.1620 N   0  0  0  0  0  0  0  0  0  0  0  0
  186.7600  175.7140  136.8490 C   0  0  1  0  0  3  0  0  0  0  0  0
  185.8160  173.9190  135.7830 N   0  0  0  0  0  2  0  0  0  0  0  0
  187.7960  174.6960  134.9130 C   0  0  0  0  0  2  0  0  0  0  0  0
  189.0190  174.0140  134.9470 O   0  0  0  0  0  1  0  0  0  0  0  0
  1 21  1  6  0  0  0
  1 12  1  0  0  0  0
  2  1  1  0  0  0  0
  3  2  1  6  0  0  0
  3  1  1  0  0  0  0
  5  9  1  0  0  0  0
  5  4  1  1  0  0  0
  6  5  1  0  0  0  0
  7 11  1  0  0  0  0
  7 10  1  0  0  0  0
  7  9  1  0  0  0  0
  8  6  2  0  0  0  0
 11 10  1  0  0  0  0
 12 13  2  0  0  0  0
 12  6  1  0  0  0  0
 13  7  1  0  0  0  0
 14 17  1  0  0  0  0
 14 15  1  0  0  0  0
 16 15  1  6  0  0  0
 16 18  1  0  0  0  0
 16  3  1  0  0  0  0
 17 19  1  6  0  0  0
 17 20  1  0  0  0  0
 20 18  1  0  0  0  0
 22 21  1  0  0  0  0
 24 28  1  0  0  0  0
 25 22  1  1  0  0  0
 25 28  1  0  0  0  0
 26 29  1  0  0  0  0
 27 23  1  6  0  0  0
 27 25  1  0  0  0  0
 28 31  1  1  0  0  0
 29 24  2  0  0  0  0
 30 27  1  0  0  0  0
 30 26  1  1  0  0  0
 33 36  1  0  0  0  0
 33 32  1  0  0  0  0
 34 35  1  0  0  0  0
 35 32  1  6  0  0  0
 35 30  1  0  0  0  0
 36 34  1  0  0  0  0
 37 38  1  0  0  0  0
 37 34  1  0  0  0  0
M  END
>  <MODEL>
3

>  <REMARK>
 VINA RESULT:      -8.1      2.890      6.651
  Name = 
  7 active torsions:
  status: ('A' for Active; 'I' for Inactive)
    1  A    between atoms: C_2  and  N_32
    2  A    between atoms: C_2  and  C_33
    3  A    between atoms: C_7  and  N_14
    4  A    between atoms: C_11  and  C_17
    5  A    between atoms: C_15  and  C_28
    6  A    between atoms: C_17  and  N_32
    7  A    between atoms: C_25  and  C_34
                            x       y       z     vdW  Elec       q    Type
                         _______ _______ _______ _____ _____    ______ ____

>  <TORSDO>
F 7

$$$$
=
 OpenBabel11062413033D

 38 43  0  0  1  0  0  0  0  0999 V2000
  184.9320  178.7200  141.5500 C   0  0  1  0  0  0  0  0  0  0  0  0
  184.3770  179.6690  142.6020 C   0  0  0  0  0  2  0  0  0  0  0  0
  184.7520  178.2490  143.0040 C   0  0  2  0  0  3  0  0  0  0  0  0
  182.8570  179.2560  137.0460 O   0  0  0  0  0  1  0  0  0  0  0  0
  182.5150  178.7890  138.3140 C   0  0  2  0  0  3  0  0  0  0  0  0
  183.5850  179.1830  139.3140 C   0  0  0  0  0  0  0  0  0  0  0  0
  182.2160  176.7230  139.6570 C   0  0  0  0  0  0  0  0  0  0  0  0
  184.1800  180.2820  139.1460 O   0  0  0  0  0  0  0  0  0  0  0  0
  182.2940  177.2780  138.2500 C   0  0  0  0  0  2  0  0  0  0  0  0
  180.8250  176.5850  140.2140 C   0  0  0  0  0  2  0  0  0  0  0  0
  181.6330  175.3470  139.8400 C   0  0  0  0  0  2  0  0  0  0  0  0
  183.8860  178.3290  140.5080 C   0  0  0  0  0  0  0  0  0  0  0  0
  183.2390  177.1620  140.6460 C   0  0  0  0  0  3  0  0  0  0  0  0
  187.0800  178.4730  146.0610 C   0  0  0  0  0  2  0  0  0  0  0  0
  185.7780  178.5240  145.2640 C   0  0  0  0  0  2  0  0  0  0  0  0
  186.0520  178.2140  143.7960 C   0  0  1  0  0  3  0  0  0  0  0  0
  187.7610  177.1030  145.9230 C   0  0  2  0  0  3  0  0  0  0  0  0
  186.6630  176.8160  143.6840 C   0  0  0  0  0  2  0  0  0  0  0  0
  189.0000  177.1420  146.5620 O   0  0  0  0  0  1  0  0  0  0  0  0
  187.9740  176.7530  144.4550 C   0  0  0  0  0  2  0  0  0  0  0  0
  186.2350  179.2230  141.1080 N   0  0  0  0  0  2  0  0  0  0  0  0
  186.8770  178.2540  140.2250 C   0  0  0  0  0  2  0  0  0  0  0  0
  188.1210  179.1520  137.6880 O   0  0  0  0  0  1  0  0  0  0  0  0
  190.6850  177.8550  140.7800 C   0  0  0  0  0  3  0  0  0  0  0  0
  188.3640  178.5730  140.0540 C   0  0  2  0  0  3  0  0  0  0  0  0
  190.1780  176.2510  139.0850 C   0  0  0  0  0  2  0  0  0  0  0  0
  188.8950  178.4390  138.6030 C   0  0  1  0  0  3  0  0  0  0  0  0
  189.2270  177.9220  141.1510 C   0  0  2  0  0  3  0  0  0  0  0  0
  191.0930  177.0930  139.8250 N   0  0  0  0  0  0  0  0  0  0  0  0
  189.3340  177.0440  138.0720 C   0  0  2  0  0  3  0  0  0  0  0  0
  189.0900  178.6170  142.3350 F   0  0  0  0  0  0  0  0  0  0  0  0
  187.1140  176.9060  136.7750 C   0  0  0  0  0  2  0  0  0  0  0  0
  186.4700  175.7820  136.0120 C   0  0  0  0  0  2  0  0  0  0  0  0
  188.5640  175.0330  136.7030 N   0  0  0  0  0  0  0  0  0  0  0  0
  188.1730  176.1700  137.5450 C   0  0  1  0  0  3  0  0  0  0  0  0
  187.3850  174.6370  136.0360 N   0  0  0  0  0  2  0  0  0  0  0  0
  189.5010  175.4500  135.6540 C   0  0  0  0  0  2  0  0  0  0  0  0
  190.6780  174.6980  135.7530 O   0  0  0  0  0  1  0  0  0  0  0  0
  1 21  1  6  0  0  0
  1  2  1  0  0  0  0
  1  3  1  0  0  0  0
  3  2  1  1  0  0  0
  3 16  1  0  0  0  0
  5  4  1  6  0  0  0
  5  6  1  0  0  0  0
  6 12  1  0  0  0  0
  7 11  1  0  0  0  0
  7 10  1  0  0  0  0
  7 13  1  0  0  0  0
  8  6  2  0  0  0  0
  9  5  1  0  0  0  0
  9  7  1  0  0  0  0
 11 10  1  0  0  0  0
 12 13  2  0  0  0  0
 12  1  1  0  0  0  0
 15 14  1  0  0  0  0
 16 18  1  1  0  0  0
 16 15  1  0  0  0  0
 17 14  1  0  0  0  0
 17 19  1  1  0  0  0
 18 20  1  0  0  0  0
 20 17  1  0  0  0  0
 22 21  1  0  0  0  0
 24 28  1  0  0  0  0
 25 22  1  6  0  0  0
 25 28  1  0  0  0  0
 26 29  1  0  0  0  0
 27 23  1  6  0  0  0
 27 25  1  0  0  0  0
 28 31  1  1  0  0  0
 29 24  2  0  0  0  0
 30 27  1  0  0  0  0
 30 26  1  1  0  0  0
 33 36  1  0  0  0  0
 33 32  1  0  0  0  0
 34 35  1  0  0  0  0
 35 32  1  6  0  0  0
 35 30  1  0  0  0  0
 36 34  1  0  0  0  0
 37 38  1  0  0  0  0
 37 34  1  0  0  0  0
M  END
>  <MODEL>
4

>  <REMARK>
 VINA RESULT:      -7.9      2.397      3.975
  Name = 
  7 active torsions:
  status: ('A' for Active; 'I' for Inactive)
    1  A    between atoms: C_2  and  N_32
    2  A    between atoms: C_2  and  C_33
    3  A    between atoms: C_7  and  N_14
    4  A    between atoms: C_11  and  C_17
    5  A    between atoms: C_15  and  C_28
    6  A    between atoms: C_17  and  N_32
    7  A    between atoms: C_25  and  C_34
                            x       y       z     vdW  Elec       q    Type
                         _______ _______ _______ _____ _____    ______ ____

>  <TORSDO>
F 7

$$$$
=
 OpenBabel11062413033D

 38 43  0  0  1  0  0  0  0  0999 V2000
  185.5740  178.6010  142.1770 C   0  0  1  0  0  0  0  0  0  0  0  0
  185.6920  179.3630  143.4890 C   0  0  0  0  0  2  0  0  0  0  0  0
  186.0710  177.8890  143.4480 C   0  0  2  0  0  3  0  0  0  0  0  0
  180.7160  179.6330  142.6420 O   0  0  0  0  0  1  0  0  0  0  0  0
  181.5350  178.6190  142.1470 C   0  0  2  0  0  3  0  0  0  0  0  0
  182.9670  178.8520  142.5870 C   0  0  0  0  0  0  0  0  0  0  0  0
  182.4780  177.6690  140.0560 C   0  0  0  0  0  0  0  0  0  0  0  0
  183.1640  179.3750  143.7170 O   0  0  0  0  0  0  0  0  0  0  0  0
  181.3890  178.5520  140.6270 C   0  0  0  0  0  2  0  0  0  0  0  0
  182.0890  176.2320  139.8400 C   0  0  0  0  0  2  0  0  0  0  0  0
  182.3070  177.1590  138.6500 C   0  0  0  0  0  2  0  0  0  0  0  0
  184.1220  178.4120  141.7400 C   0  0  0  0  0  0  0  0  0  0  0  0
  183.8730  177.8690  140.5390 C   0  0  0  0  0  3  0  0  0  0  0  0
  189.6360  177.8770  144.8970 C   0  0  0  0  0  2  0  0  0  0  0  0
  188.1240  178.0860  144.8560 C   0  0  0  0  0  2  0  0  0  0  0  0
  187.5800  177.6960  143.4850 C   0  0  1  0  0  3  0  0  0  0  0  0
  190.0040  176.4220  144.5720 C   0  0  2  0  0  3  0  0  0  0  0  0
  187.8990  176.2240  143.2190 C   0  0  0  0  0  2  0  0  0  0  0  0
  191.3920  176.3060  144.5000 O   0  0  0  0  0  1  0  0  0  0  0  0
  189.4050  176.0010  143.2350 C   0  0  0  0  0  2  0  0  0  0  0  0
  186.5460  179.1500  141.2280 N   0  0  0  0  0  2  0  0  0  0  0  0
  186.7160  178.2420  140.0980 C   0  0  0  0  0  2  0  0  0  0  0  0
  187.0750  179.0110  137.2570 O   0  0  0  0  0  1  0  0  0  0  0  0
  190.4580  177.6040  139.3510 C   0  0  0  0  0  3  0  0  0  0  0  0
  188.0720  178.4600  139.4230 C   0  0  2  0  0  3  0  0  0  0  0  0
  189.3180  176.0070  137.9910 C   0  0  0  0  0  2  0  0  0  0  0  0
  188.0720  178.2650  137.8840 C   0  0  1  0  0  3  0  0  0  0  0  0
  189.2180  177.7740  140.1890 C   0  0  2  0  0  3  0  0  0  0  0  0
  190.4760  176.8010  138.3450 N   0  0  0  0  0  0  0  0  0  0  0  0
  188.2260  176.8350  137.2920 C   0  0  2  0  0  3  0  0  0  0  0  0
  189.5300  178.4980  141.3220 F   0  0  0  0  0  0  0  0  0  0  0  0
  185.7010  176.8110  136.7900 C   0  0  0  0  0  2  0  0  0  0  0  0
  184.7800  175.7090  136.3460 C   0  0  0  0  0  2  0  0  0  0  0  0
  186.9380  174.8340  136.3710 N   0  0  0  0  0  0  0  0  0  0  0  0
  186.9090  176.0300  137.2220 C   0  0  1  0  0  3  0  0  0  0  0  0
  185.5860  174.5010  136.1450 N   0  0  0  0  0  2  0  0  0  0  0  0
  187.5050  175.1380  135.0520 C   0  0  0  0  0  2  0  0  0  0  0  0
  188.6550  174.3650  134.8490 O   0  0  0  0  0  1  0  0  0  0  0  0
  1 21  1  6  0  0  0
  1  3  1  0  0  0  0
  1  2  1  0  0  0  0
  3 16  1  0  0  0  0
  3  2  1  1  0  0  0
  5  6  1  0  0  0  0
  5  4  1  6  0  0  0
  6  8  2  0  0  0  0
  7 13  1  0  0  0  0
  7  9  1  0  0  0  0
  9  5  1  0  0  0  0
 10  7  1  0  0  0  0
 11 10  1  0  0  0  0
 11  7  1  0  0  0  0
 12  1  1  0  0  0  0
 12  6  1  0  0  0  0
 13 12  2  0  0  0  0
 15 14  1  0  0  0  0
 16 18  1  1  0  0  0
 16 15  1  0  0  0  0
 17 19  1  6  0  0  0
 17 14  1  0  0  0  0
 18 20  1  0  0  0  0
 20 17  1  0  0  0  0
 22 21  1  0  0  0  0
 24 28  1  0  0  0  0
 25 22  1  1  0  0  0
 25 28  1  0  0  0  0
 26 29  1  0  0  0  0
 27 23  1  1  0  0  0
 27 25  1  0  0  0  0
 28 31  1  1  0  0  0
 29 24  2  0  0  0  0
 30 27  1  0  0  0  0
 30 26  1  1  0  0  0
 33 32  1  0  0  0  0
 34 35  1  0  0  0  0
 35 32  1  6  0  0  0
 35 30  1  0  0  0  0
 36 33  1  0  0  0  0
 36 34  1  0  0  0  0
 37 34  1  0  0  0  0
 38 37  1  0  0  0  0
M  END
>  <MODEL>
5

>  <REMARK>
 VINA RESULT:      -7.7      2.049      3.006
  Name = 
  7 active torsions:
  status: ('A' for Active; 'I' for Inactive)
    1  A    between atoms: C_2  and  N_32
    2  A    between atoms: C_2  and  C_33
    3  A    between atoms: C_7  and  N_14
    4  A    between atoms: C_11  and  C_17
    5  A    between atoms: C_15  and  C_28
    6  A    between atoms: C_17  and  N_32
    7  A    between atoms: C_25  and  C_34
                            x       y       z     vdW  Elec       q    Type
                         _______ _______ _______ _____ _____    ______ ____

>  <TORSDO>
F 7

$$$$
=
 OpenBabel11062413033D

 38 43  0  0  1  0  0  0  0  0999 V2000
  187.2750  177.8500  143.9390 C   0  0  1  0  0  0  0  0  0  0  0  0
  186.5180  176.5750  143.5940 C   0  0  0  0  0  2  0  0  0  0  0  0
  185.7650  177.7390  144.2220 C   0  0  2  0  0  3  0  0  0  0  0  0
  188.3060  177.6680  148.8160 O   0  0  0  0  0  1  0  0  0  0  0  0
  188.9640  177.8900  147.6070 C   0  0  2  0  0  3  0  0  0  0  0  0
  187.9520  178.0660  146.4930 C   0  0  0  0  0  0  0  0  0  0  0  0
  190.4310  176.8150  145.9170 C   0  0  0  0  0  0  0  0  0  0  0  0
  186.8570  178.6280  146.7680 O   0  0  0  0  0  0  0  0  0  0  0  0
  189.9350  176.7380  147.3460 C   0  0  0  0  0  2  0  0  0  0  0  0
  191.7360  177.5400  145.7310 C   0  0  0  0  0  2  0  0  0  0  0  0
  191.6620  176.0280  145.5550 C   0  0  0  0  0  2  0  0  0  0  0  0
  188.2620  177.6490  145.0870 C   0  0  0  0  0  0  0  0  0  0  0  0
  189.4330  177.0460  144.8350 C   0  0  0  0  0  3  0  0  0  0  0  0
  183.9410  178.3750  140.8940 C   0  0  0  0  0  2  0  0  0  0  0  0
  184.8200  177.6530  141.9130 C   0  0  0  0  0  2  0  0  0  0  0  0
  184.9020  178.4660  143.2010 C   0  0  1  0  0  3  0  0  0  0  0  0
  182.5340  178.6270  141.4550 C   0  0  2  0  0  3  0  0  0  0  0  0
  183.4940  178.6390  143.7740 C   0  0  0  0  0  2  0  0  0  0  0  0
  181.8080  179.3930  140.5440 O   0  0  0  0  0  1  0  0  0  0  0  0
  182.6090  179.3780  142.7800 C   0  0  0  0  0  2  0  0  0  0  0  0
  187.7340  178.4720  142.6950 N   0  0  0  0  0  2  0  0  0  0  0  0
  188.2120  177.4520  141.7670 C   0  0  0  0  0  2  0  0  0  0  0  0
  188.2880  179.3780  139.5130 O   0  0  0  0  0  1  0  0  0  0  0  0
  191.7700  177.1200  140.2840 C   0  0  0  0  0  3  0  0  0  0  0  0
  189.4900  177.9120  141.0620 C   0  0  2  0  0  3  0  0  0  0  0  0
  190.3440  176.3060  138.5500 C   0  0  0  0  0  2  0  0  0  0  0  0
  189.2880  178.4100  139.6070 C   0  0  1  0  0  3  0  0  0  0  0  0
  190.6590  176.9340  141.2840 C   0  0  2  0  0  3  0  0  0  0  0  0
  191.5980  176.8380  139.0390 N   0  0  0  0  0  0  0  0  0  0  0  0
  189.2490  177.3810  138.4420 C   0  0  2  0  0  3  0  0  0  0  0  0
  191.1640  177.0830  142.5590 F   0  0  0  0  0  0  0  0  0  0  0  0
  186.7440  177.6630  137.9180 C   0  0  0  0  0  2  0  0  0  0  0  0
  185.7440  176.7350  137.2860 C   0  0  0  0  0  2  0  0  0  0  0  0
  187.8180  175.6820  137.1860 N   0  0  0  0  0  0  0  0  0  0  0  0
  187.8700  176.7180  138.2240 C   0  0  1  0  0  3  0  0  0  0  0  0
  186.4490  175.5110  136.8930 N   0  0  0  0  0  2  0  0  0  0  0  0
  188.4410  176.1490  135.9420 C   0  0  0  0  0  2  0  0  0  0  0  0
  189.1620  175.1010  135.3580 O   0  0  0  0  0  1  0  0  0  0  0  0
  1 21  1  6  0  0  0
  1  3  1  0  0  0  0
  1 12  1  0  0  0  0
  2  1  1  0  0  0  0
  3  2  1  6  0  0  0
  5  4  1  1  0  0  0
  6  8  2  0  0  0  0
  6  5  1  0  0  0  0
  7  9  1  0  0  0  0
  9  5  1  0  0  0  0
 10  7  1  0  0  0  0
 11 10  1  0  0  0  0
 11  7  1  0  0  0  0
 12  6  1  0  0  0  0
 13 12  2  0  0  0  0
 13  7  1  0  0  0  0
 14 17  1  0  0  0  0
 14 15  1  0  0  0  0
 16 15  1  6  0  0  0
 16 18  1  0  0  0  0
 16  3  1  0  0  0  0
 17 19  1  6  0  0  0
 17 20  1  0  0  0  0
 20 18  1  0  0  0  0
 22 21  1  0  0  0  0
 24 28  1  0  0  0  0
 25 28  1  0  0  0  0
 25 22  1  6  0  0  0
 26 29  1  0  0  0  0
 27 23  1  1  0  0  0
 27 25  1  0  0  0  0
 28 31  1  1  0  0  0
 29 24  2  0  0  0  0
 30 26  1  1  0  0  0
 30 27  1  0  0  0  0
 33 32  1  0  0  0  0
 34 35  1  0  0  0  0
 35 32  1  6  0  0  0
 35 30  1  0  0  0  0
 36 34  1  0  0  0  0
 36 33  1  0  0  0  0
 37 34  1  0  0  0  0
 38 37  1  0  0  0  0
M  END
>  <MODEL>
6

>  <REMARK>
 VINA RESULT:      -7.6      1.440      5.313
  Name = 
  7 active torsions:
  status: ('A' for Active; 'I' for Inactive)
    1  A    between atoms: C_2  and  N_32
    2  A    between atoms: C_2  and  C_33
    3  A    between atoms: C_7  and  N_14
    4  A    between atoms: C_11  and  C_17
    5  A    between atoms: C_15  and  C_28
    6  A    between atoms: C_17  and  N_32
    7  A    between atoms: C_25  and  C_34
                            x       y       z     vdW  Elec       q    Type
                         _______ _______ _______ _____ _____    ______ ____

>  <TORSDO>
F 7

$$$$
=
 OpenBabel11062413033D

 38 43  0  0  1  0  0  0  0  0999 V2000
  182.6450  176.8120  138.4800 C   0  0  1  0  0  0  0  0  0  0  0  0
  183.5150  177.9390  137.9420 C   0  0  0  0  0  2  0  0  0  0  0  0
  182.0300  177.9230  137.6100 C   0  0  2  0  0  3  0  0  0  0  0  0
  181.2220  172.5880  136.2400 O   0  0  0  0  0  1  0  0  0  0  0  0
  182.2930  173.0740  136.9890 C   0  0  2  0  0  3  0  0  0  0  0  0
  181.9320  174.4180  137.5920 C   0  0  0  0  0  0  0  0  0  0  0  0
  184.6140  173.9340  136.8100 C   0  0  0  0  0  0  0  0  0  0  0  0
  180.7350  174.6120  137.9370 O   0  0  0  0  0  0  0  0  0  0  0  0
  183.5360  173.1410  136.1020 C   0  0  0  0  0  2  0  0  0  0  0  0
  185.6030  173.1130  137.5930 C   0  0  0  0  0  2  0  0  0  0  0  0
  186.0270  173.8090  136.3040 C   0  0  0  0  0  2  0  0  0  0  0  0
  182.9750  175.4650  137.8390 C   0  0  0  0  0  0  0  0  0  0  0  0
  184.2360  175.2250  137.4490 C   0  0  0  0  0  3  0  0  0  0  0  0
  181.1770  181.3700  139.0930 C   0  0  0  0  0  2  0  0  0  0  0  0
  181.9550  180.3210  138.3010 C   0  0  0  0  0  2  0  0  0  0  0  0
  181.2640  178.9660  138.4120 C   0  0  1  0  0  3  0  0  0  0  0  0
  179.7260  181.4710  138.6030 C   0  0  2  0  0  3  0  0  0  0  0  0
  179.8450  179.0800  137.8500 C   0  0  0  0  0  2  0  0  0  0  0  0
  179.0230  182.3480  139.4300 O   0  0  0  0  0  1  0  0  0  0  0  0
  179.0470  180.1060  138.6420 C   0  0  0  0  0  2  0  0  0  0  0  0
  182.5890  176.9200  139.9400 N   0  0  0  0  0  2  0  0  0  0  0  0
  183.8330  177.4840  140.4520 C   0  0  0  0  0  2  0  0  0  0  0  0
  185.6810  179.7530  140.9330 O   0  0  0  0  0  1  0  0  0  0  0  0
  182.4890  179.2140  143.6410 C   0  0  0  0  0  3  0  0  0  0  0  0
  183.5510  178.6430  141.4110 C   0  0  2  0  0  3  0  0  0  0  0  0
  184.6050  178.3310  144.3120 C   0  0  0  0  0  2  0  0  0  0  0  0
  184.8150  179.3600  141.9540 C   0  0  1  0  0  3  0  0  0  0  0  0
  182.4780  178.2860  142.4560 C   0  0  2  0  0  3  0  0  0  0  0  0
  183.4760  179.2250  144.4680 N   0  0  0  0  0  0  0  0  0  0  0  0
  185.5580  178.7760  143.1900 C   0  0  2  0  0  3  0  0  0  0  0  0
  181.2280  178.3040  141.8740 F   0  0  0  0  0  0  0  0  0  0  0  0
  187.7230  178.0440  142.0040 C   0  0  0  0  0  2  0  0  0  0  0  0
  188.6930  176.9320  142.2900 C   0  0  0  0  0  2  0  0  0  0  0  0
  187.1220  176.9340  144.0090 N   0  0  0  0  0  0  0  0  0  0  0  0
  186.5540  177.6420  142.8560 C   0  0  1  0  0  3  0  0  0  0  0  0
  188.2520  176.2510  143.5110 N   0  0  0  0  0  2  0  0  0  0  0  0
  187.6310  177.8780  145.0110 C   0  0  0  0  0  2  0  0  0  0  0  0
  188.5550  177.2290  145.8380 O   0  0  0  0  0  1  0  0  0  0  0  0
  1 21  1  1  0  0  0
  2  1  1  0  0  0  0
  3  2  1  1  0  0  0
  3 16  1  0  0  0  0
  3  1  1  0  0  0  0
  5  4  1  6  0  0  0
  5  6  1  0  0  0  0
  6 12  1  0  0  0  0
  6  8  2  0  0  0  0
  7 13  1  0  0  0  0
  7 10  1  0  0  0  0
  9  7  1  0  0  0  0
  9  5  1  0  0  0  0
 11  7  1  0  0  0  0
 11 10  1  0  0  0  0
 12  1  1  0  0  0  0
 13 12  2  0  0  0  0
 15 16  1  0  0  0  0
 15 14  1  0  0  0  0
 16 18  1  6  0  0  0
 17 20  1  0  0  0  0
 17 14  1  0  0  0  0
 17 19  1  1  0  0  0
 18 20  1  0  0  0  0
 21 22  1  0  0  0  0
 24 29  2  0  0  0  0
 25 22  1  1  0  0  0
 25 27  1  0  0  0  0
 25 28  1  0  0  0  0
 26 29  1  0  0  0  0
 27 23  1  6  0  0  0
 27 30  1  0  0  0  0
 28 31  1  6  0  0  0
 28 24  1  0  0  0  0
 30 26  1  1  0  0  0
 32 33  1  0  0  0  0
 33 36  1  0  0  0  0
 34 37  1  0  0  0  0
 35 32  1  1  0  0  0
 35 30  1  0  0  0  0
 35 34  1  0  0  0  0
 36 34  1  0  0  0  0
 37 38  1  0  0  0  0
M  END
>  <MODEL>
7

>  <REMARK>
 VINA RESULT:      -7.6      4.457      9.440
  Name = 
  7 active torsions:
  status: ('A' for Active; 'I' for Inactive)
    1  A    between atoms: C_2  and  N_32
    2  A    between atoms: C_2  and  C_33
    3  A    between atoms: C_7  and  N_14
    4  A    between atoms: C_11  and  C_17
    5  A    between atoms: C_15  and  C_28
    6  A    between atoms: C_17  and  N_32
    7  A    between atoms: C_25  and  C_34
                            x       y       z     vdW  Elec       q    Type
                         _______ _______ _______ _____ _____    ______ ____

>  <TORSDO>
F 7

$$$$
=
 OpenBabel11062413033D

 38 43  0  0  1  0  0  0  0  0999 V2000
  186.2880  178.1230  142.0770 C   0  0  1  0  0  0  0  0  0  0  0  0
  186.0770  179.5330  142.6110 C   0  0  0  0  0  2  0  0  0  0  0  0
  185.0380  178.9280  141.6770 C   0  0  2  0  0  3  0  0  0  0  0  0
  188.2910  178.9850  137.5910 O   0  0  0  0  0  1  0  0  0  0  0  0
  188.4670  178.1270  138.6760 C   0  0  2  0  0  3  0  0  0  0  0  0
  187.2930  178.2530  139.6270 C   0  0  0  0  0  0  0  0  0  0  0  0
  189.8720  177.7210  140.6810 C   0  0  0  0  0  0  0  0  0  0  0  0
  186.1540  178.4860  139.1390 O   0  0  0  0  0  0  0  0  0  0  0  0
  189.8060  178.4330  139.3460 C   0  0  0  0  0  2  0  0  0  0  0  0
  190.5490  176.3780  140.6580 C   0  0  0  0  0  2  0  0  0  0  0  0
  191.2200  177.5690  141.3330 C   0  0  0  0  0  2  0  0  0  0  0  0
  187.4610  178.0400  141.1010 C   0  0  0  0  0  0  0  0  0  0  0  0
  188.6900  177.8040  141.5840 C   0  0  0  0  0  3  0  0  0  0  0  0
  182.3060  179.0030  144.3870 C   0  0  0  0  0  2  0  0  0  0  0  0
  183.5740  179.4130  143.6410 C   0  0  0  0  0  2  0  0  0  0  0  0
  183.7820  178.5100  142.4290 C   0  0  1  0  0  3  0  0  0  0  0  0
  181.0790  179.0570  143.4650 C   0  0  2  0  0  3  0  0  0  0  0  0
  182.5780  178.6390  141.4950 C   0  0  0  0  0  2  0  0  0  0  0  0
  179.9700  178.5600  144.1490 O   0  0  0  0  0  1  0  0  0  0  0  0
  181.3060  178.2140  142.2150 C   0  0  0  0  0  2  0  0  0  0  0  0
  186.2170  177.1830  143.1980 N   0  0  0  0  0  2  0  0  0  0  0  0
  187.5080  177.1020  143.8720 C   0  0  0  0  0  2  0  0  0  0  0  0
  189.8180  178.8160  144.5910 O   0  0  0  0  0  1  0  0  0  0  0  0
  186.8120  178.2520  147.4990 C   0  0  0  0  0  3  0  0  0  0  0  0
  187.5510  178.0350  145.0840 C   0  0  2  0  0  3  0  0  0  0  0  0
  188.7460  176.8650  147.6960 C   0  0  0  0  0  2  0  0  0  0  0  0
  188.9750  178.3610  145.6050 C   0  0  1  0  0  3  0  0  0  0  0  0
  186.5140  177.6460  146.1530 C   0  0  2  0  0  3  0  0  0  0  0  0
  187.8430  177.8880  148.1790 N   0  0  0  0  0  0  0  0  0  0  0  0
  189.6770  177.3770  146.5840 C   0  0  2  0  0  3  0  0  0  0  0  0
  185.2520  178.0290  145.7500 F   0  0  0  0  0  0  0  0  0  0  0  0
  191.1080  176.5260  144.6200 C   0  0  0  0  0  2  0  0  0  0  0  0
  192.0560  175.3650  144.5030 C   0  0  0  0  0  2  0  0  0  0  0  0
  191.3540  175.4590  146.7210 N   0  0  0  0  0  0  0  0  0  0  0  0
  190.3870  176.1910  145.8940 C   0  0  1  0  0  3  0  0  0  0  0  0
  192.1360  174.7140  145.8140 N   0  0  0  0  0  2  0  0  0  0  0  0
  192.2790  176.3790  147.3920 C   0  0  0  0  0  2  0  0  0  0  0  0
  192.8890  175.7250  148.4690 O   0  0  0  0  0  1  0  0  0  0  0  0
  1  2  1  0  0  0  0
  1 21  1  1  0  0  0
  3  1  1  0  0  0  0
  3 16  1  0  0  0  0
  3  2  1  1  0  0  0
  5  4  1  6  0  0  0
  5  9  1  0  0  0  0
  5  6  1  0  0  0  0
  6 12  1  0  0  0  0
  7 11  1  0  0  0  0
  7 13  1  0  0  0  0
  8  6  2  0  0  0  0
  9  7  1  0  0  0  0
 10  7  1  0  0  0  0
 10 11  1  0  0  0  0
 12 13  2  0  0  0  0
 12  1  1  0  0  0  0
 15 14  1  0  0  0  0
 16 18  1  6  0  0  0
 16 15  1  0  0  0  0
 17 19  1  1  0  0  0
 17 14  1  0  0  0  0
 18 20  1  0  0  0  0
 20 17  1  0  0  0  0
 21 22  1  0  0  0  0
 24 29  2  0  0  0  0
 25 22  1  6  0  0  0
 25 27  1  0  0  0  0
 25 28  1  0  0  0  0
 26 29  1  0  0  0  0
 27 23  1  6  0  0  0
 27 30  1  0  0  0  0
 28 31  1  6  0  0  0
 28 24  1  0  0  0  0
 30 26  1  1  0  0  0
 33 32  1  0  0  0  0
 33 36  1  0  0  0  0
 34 37  1  0  0  0  0
 35 32  1  6  0  0  0
 35 30  1  0  0  0  0
 35 34  1  0  0  0  0
 36 34  1  0  0  0  0
 37 38  1  0  0  0  0
M  END
>  <MODEL>
8

>  <REMARK>
 VINA RESULT:      -7.5      2.822      8.079
  Name = 
  7 active torsions:
  status: ('A' for Active; 'I' for Inactive)
    1  A    between atoms: C_2  and  N_32
    2  A    between atoms: C_2  and  C_33
    3  A    between atoms: C_7  and  N_14
    4  A    between atoms: C_11  and  C_17
    5  A    between atoms: C_15  and  C_28
    6  A    between atoms: C_17  and  N_32
    7  A    between atoms: C_25  and  C_34
                            x       y       z     vdW  Elec       q    Type
                         _______ _______ _______ _____ _____    ______ ____

>  <TORSDO>
F 7

$$$$
=
 OpenBabel11062413033D

 38 43  0  0  1  0  0  0  0  0999 V2000
  186.1570  176.1920  136.6380 C   0  0  1  0  0  0  0  0  0  0  0  0
  186.3740  175.8690  135.1670 C   0  0  0  0  0  2  0  0  0  0  0  0
  186.3620  174.7360  136.1820 C   0  0  2  0  0  3  0  0  0  0  0  0
  188.8110  180.3750  137.2180 O   0  0  0  0  0  1  0  0  0  0  0  0
  188.9830  178.9960  137.3240 C   0  0  2  0  0  3  0  0  0  0  0  0
  187.7880  178.2800  136.7250 C   0  0  0  0  0  0  0  0  0  0  0  0
  189.1080  177.1280  138.9550 C   0  0  0  0  0  0  0  0  0  0  0  0
  187.2170  178.8070  135.7310 O   0  0  0  0  0  0  0  0  0  0  0  0
  189.2150  178.6290  138.7900 C   0  0  0  0  0  2  0  0  0  0  0  0
  190.4130  176.3820  138.8890 C   0  0  0  0  0  2  0  0  0  0  0  0
  189.6660  176.5150  140.2110 C   0  0  0  0  0  2  0  0  0  0  0  0
  187.3340  176.9510  137.2480 C   0  0  0  0  0  0  0  0  0  0  0  0
  187.9600  176.4280  138.3130 C   0  0  0  0  0  3  0  0  0  0  0  0
  183.6900  172.3840  134.7190 C   0  0  0  0  0  2  0  0  0  0  0  0
  184.9800  173.2000  134.7800 C   0  0  0  0  0  2  0  0  0  0  0  0
  185.0700  173.9340  136.1150 C   0  0  1  0  0  3  0  0  0  0  0  0
  183.6110  171.3850  135.8830 C   0  0  2  0  0  3  0  0  0  0  0  0
  185.0610  172.9100  137.2510 C   0  0  0  0  0  2  0  0  0  0  0  0
  182.3700  170.7500  135.8580 O   0  0  0  0  0  1  0  0  0  0  0  0
  183.7730  172.1010  137.2200 C   0  0  0  0  0  2  0  0  0  0  0  0
  184.7990  176.7130  136.8080 N   0  0  0  0  0  2  0  0  0  0  0  0
  184.5370  176.9890  138.2170 C   0  0  0  0  0  2  0  0  0  0  0  0
  184.9290  179.7950  139.0930 O   0  0  0  0  0  1  0  0  0  0  0  0
  180.9920  178.2730  139.0850 C   0  0  0  0  0  3  0  0  0  0  0  0
  183.4110  178.0150  138.3710 C   0  0  2  0  0  3  0  0  0  0  0  0
  182.1290  178.2540  141.1850 C   0  0  0  0  0  2  0  0  0  0  0  0
  183.7130  179.1680  139.3640 C   0  0  1  0  0  3  0  0  0  0  0  0
  182.0320  177.3460  138.5140 C   0  0  2  0  0  3  0  0  0  0  0  0
  181.0640  178.6840  140.3040 N   0  0  0  0  0  0  0  0  0  0  0  0
  183.4640  178.9560  140.8850 C   0  0  2  0  0  3  0  0  0  0  0  0
  181.6030  176.8800  137.2890 F   0  0  0  0  0  0  0  0  0  0  0  0
  185.9920  178.7840  141.3430 C   0  0  0  0  0  2  0  0  0  0  0  0
  186.7610  178.2700  142.5280 C   0  0  0  0  0  2  0  0  0  0  0  0
  184.5010  178.1940  143.0880 N   0  0  0  0  0  0  0  0  0  0  0  0
  184.6190  178.2450  141.6250 C   0  0  1  0  0  3  0  0  0  0  0  0
  185.7940  177.8780  143.5580 N   0  0  0  0  0  2  0  0  0  0  0  0
  184.1830  179.5160  143.6390 C   0  0  0  0  0  2  0  0  0  0  0  0
  183.7630  179.3790  144.9670 O   0  0  0  0  0  1  0  0  0  0  0  0
  1 21  1  1  0  0  0
  1 12  1  0  0  0  0
  2  1  1  0  0  0  0
  3  2  1  6  0  0  0
  3  1  1  0  0  0  0
  5  4  1  1  0  0  0
  5  9  1  0  0  0  0
  6 12  1  0  0  0  0
  6  5  1  0  0  0  0
  7 11  1  0  0  0  0
  8  6  2  0  0  0  0
  9  7  1  0  0  0  0
 10  7  1  0  0  0  0
 10 11  1  0  0  0  0
 12 13  2  0  0  0  0
 13  7  1  0  0  0  0
 14 15  1  0  0  0  0
 14 17  1  0  0  0  0
 16 15  1  6  0  0  0
 16  3  1  0  0  0  0
 16 18  1  0  0  0  0
 17 19  1  1  0  0  0
 17 20  1  0  0  0  0
 20 18  1  0  0  0  0
 21 22  1  0  0  0  0
 24 29  2  0  0  0  0
 25 22  1  1  0  0  0
 25 28  1  0  0  0  0
 25 27  1  0  0  0  0
 27 23  1  1  0  0  0
 27 30  1  0  0  0  0
 28 31  1  6  0  0  0
 28 24  1  0  0  0  0
 29 26  1  0  0  0  0
 30 26  1  6  0  0  0
 30 35  1  0  0  0  0
 32 33  1  0  0  0  0
 33 36  1  0  0  0  0
 34 36  1  0  0  0  0
 34 37  1  0  0  0  0
 35 32  1  1  0  0  0
 35 34  1  0  0  0  0
 37 38  1  0  0  0  0
M  END
>  <MODEL>
9

>  <REMARK>
 VINA RESULT:      -7.2      4.012      9.302
  Name = 
  7 active torsions:
  status: ('A' for Active; 'I' for Inactive)
    1  A    between atoms: C_2  and  N_32
    2  A    between atoms: C_2  and  C_33
    3  A    between atoms: C_7  and  N_14
    4  A    between atoms: C_11  and  C_17
    5  A    between atoms: C_15  and  C_28
    6  A    between atoms: C_17  and  N_32
    7  A    between atoms: C_25  and  C_34
                            x       y       z     vdW  Elec       q    Type
                         _______ _______ _______ _____ _____    ______ ____

>  <TORSDO>
F 7

$$$$
