=
 OpenBabel11062413023D

 38 42  0  0  1  0  0  0  0  0999 V2000
  186.2270  176.6710  136.2680 C   0  0  0  0  0  3  0  0  0  0  0  0
  189.1130  179.1370  138.1120 C   0  0  0  0  0  1  0  0  0  0  0  0
  188.1020  176.8080  137.9790 C   0  0  2  0  0  3  0  0  0  0  0  0
  185.8490  177.8280  138.3700 C   0  0  0  0  0  0  0  0  0  0  0  0
  184.0560  177.6180  136.7490 C   0  0  0  0  0  3  0  0  0  0  0  0
  184.9090  176.9250  135.8890 C   0  0  0  0  0  3  0  0  0  0  0  0
  186.3620  178.3210  139.6160 N   0  0  0  0  0  0  0  0  0  0  0  0
  184.5040  178.0650  138.0010 C   0  0  0  0  0  0  0  0  0  0  0  0
  187.6270  178.3400  139.9170 C   0  0  0  0  0  0  0  0  0  0  0  0
  189.0780  176.4440  136.8640 C   0  0  0  0  0  1  0  0  0  0  0  0
  186.7090  177.1340  137.4960 C   0  0  0  0  0  0  0  0  0  0  0  0
  188.6590  177.9120  138.8960 C   0  0  2  0  0  3  0  0  0  0  0  0
  183.5880  178.7470  138.8830 N   0  0  0  0  0  0  0  0  0  0  0  0
  183.4540  180.2010  138.8010 C   0  0  0  0  0  2  0  0  0  0  0  0
  182.1370  180.5350  138.4850 O   0  0  0  0  0  1  0  0  0  0  0  0
  182.6000  177.9830  139.6490 C   0  0  2  0  0  3  0  0  0  0  0  0
  183.8270  178.2440  141.8440 C   0  0  0  0  0  3  0  0  0  0  0  0
  181.5120  178.8170  141.6970 N   0  0  0  0  0  0  0  0  0  0  0  0
  182.6520  179.0860  143.7780 C   0  0  0  0  0  3  0  0  0  0  0  0
  182.6410  178.3450  141.1040 C   0  0  0  0  0  0  0  0  0  0  0  0
  181.4920  179.1820  143.0060 C   0  0  0  0  0  3  0  0  0  0  0  0
  183.8250  178.6140  143.1890 C   0  0  0  0  0  3  0  0  0  0  0  0
  182.7190  176.4790  139.3990 C   0  0  1  0  0  3  0  0  0  0  0  0
  181.5580  175.7840  139.9450 C   0  0  0  0  0  2  0  0  0  0  0  0
  181.6320  176.0540  138.5030 N   0  0  0  0  0  2  0  0  0  0  0  0
  188.0000  178.8590  141.1620 O   0  0  0  0  0  0  0  0  0  0  0  0
  188.8940  178.2580  142.0590 C   0  0  0  0  0  0  0  0  0  0  0  0
  189.8830  178.8870  142.5190 O   0  0  0  0  0  0  0  0  0  0  0  0
  188.6660  176.8420  142.4920 C   0  0  2  0  0  3  0  0  0  0  0  0
  187.6240  177.9050  146.5990 C   0  0  0  0  0  2  0  0  0  0  0  0
  188.9420  177.1760  146.3410 C   0  0  0  0  0  2  0  0  0  0  0  0
  186.9480  177.5100  144.2240 C   0  0  0  0  0  2  0  0  0  0  0  0
  189.3480  177.3190  144.8770 C   0  0  0  0  0  2  0  0  0  0  0  0
  186.5310  177.3620  145.6810 C   0  0  0  0  0  2  0  0  0  0  0  0
  188.2550  176.7510  143.9680 C   0  0  0  0  0  3  0  0  0  0  0  0
  189.9050  176.0490  142.2080 C   0  0  0  0  0  0  0  0  0  0  0  0
  190.6400  176.2780  141.0520 O   0  0  0  0  0  0  0  0  0  0  0  0
  190.2500  175.1300  142.9950 O   0  0  0  0  0  1  0  0  0  0  0  0
  1 11  1  0  0  0  0
  3 10  1  6  0  0  0
  3 12  1  0  0  0  0
  4  7  1  0  0  0  0
  5  8  2  0  0  0  0
  6  1  2  0  0  0  0
  6  5  1  0  0  0  0
  7  9  2  0  0  0  0
  8  4  1  0  0  0  0
  8 13  1  0  0  0  0
  9 26  1  0  0  0  0
 11  3  1  0  0  0  0
 11  4  2  0  0  0  0
 12  2  1  6  0  0  0
 12  9  1  0  0  0  0
 14 13  1  0  0  0  0
 15 14  1  0  0  0  0
 16 13  1  6  0  0  0
 16 20  1  0  0  0  0
 17 22  1  0  0  0  0
 18 21  2  0  0  0  0
 20 18  1  0  0  0  0
 20 17  2  0  0  0  0
 21 19  1  0  0  0  0
 22 19  2  0  0  0  0
 23 16  1  1  0  0  0
 23 24  1  0  0  0  0
 25 23  1  0  0  0  0
 25 24  1  0  0  0  0
 26 27  1  0  0  0  0
 27 28  2  0  0  0  0
 29 27  1  1  0  0  0
 29 35  1  0  0  0  0
 31 30  1  0  0  0  0
 32 34  1  0  0  0  0
 33 31  1  0  0  0  0
 34 30  1  0  0  0  0
 35 32  1  0  0  0  0
 35 33  1  0  0  0  0
 36 29  1  0  0  0  0
 36 38  1  0  0  0  0
 37 36  2  0  0  0  0
M  END
>  <MODEL>
1

>  <REMARK>
 VINA RESULT:      -8.2      0.000      0.000
  Name = 
  10 active torsions:
  status: ('A' for Active; 'I' for Inactive)
    1  A    between atoms: C_3  and  C_7
    2  A    between atoms: C_3  and  N_10
    3  A    between atoms: C_3  and  C_31
    4  A    between atoms: N_10  and  C_13
    5  A    between atoms: N_10  and  C_21
    6  A    between atoms: C_14  and  O_26
    7  A    between atoms: C_14  and  C_30
    8  A    between atoms: C_23  and  C_30
    9  A    between atoms: C_25  and  C_30
   10  A    between atoms: O_26  and  C_28
                            x       y       z     vdW  Elec       q    Type
                         _______ _______ _______ _____ _____    ______ ____

>  <TORSDO>
F 10

$$$$
=
 OpenBabel11062413023D

 38 42  0  0  1  0  0  0  0  0999 V2000
  184.7820  178.8280  139.8870 C   0  0  0  0  0  3  0  0  0  0  0  0
  186.8450  176.8780  143.0100 C   0  0  0  0  0  1  0  0  0  0  0  0
  186.1970  179.1100  141.9800 C   0  0  2  0  0  3  0  0  0  0  0  0
  187.1560  178.3180  139.8070 C   0  0  0  0  0  0  0  0  0  0  0  0
  185.7950  178.1280  137.8070 C   0  0  0  0  0  3  0  0  0  0  0  0
  184.6700  178.5240  138.5310 C   0  0  0  0  0  3  0  0  0  0  0  0
  188.4110  178.1760  140.4890 N   0  0  0  0  0  0  0  0  0  0  0  0
  187.0520  178.0340  138.4260 C   0  0  0  0  0  0  0  0  0  0  0  0
  188.5330  178.1980  141.7840 C   0  0  0  0  0  0  0  0  0  0  0  0
  184.9060  179.1150  142.7920 C   0  0  0  0  0  1  0  0  0  0  0  0
  186.0160  178.7100  140.5360 C   0  0  0  0  0  0  0  0  0  0  0  0
  187.3060  178.2880  142.6630 C   0  0  2  0  0  3  0  0  0  0  0  0
  188.2030  177.6570  137.6420 N   0  0  0  0  0  0  0  0  0  0  0  0
  188.9870  178.6920  136.9690 C   0  0  0  0  0  2  0  0  0  0  0  0
  188.9170  179.8810  137.6940 O   0  0  0  0  0  1  0  0  0  0  0  0
  188.7520  176.3030  137.7470 C   0  0  2  0  0  3  0  0  0  0  0  0
  191.0530  176.0760  136.7240 C   0  0  0  0  0  3  0  0  0  0  0  0
  190.8260  176.6420  139.0340 N   0  0  0  0  0  0  0  0  0  0  0  0
  193.0100  176.4470  138.0880 C   0  0  0  0  0  3  0  0  0  0  0  0
  190.2480  176.3280  137.8440 C   0  0  0  0  0  0  0  0  0  0  0  0
  192.1760  176.7030  139.1790 C   0  0  0  0  0  3  0  0  0  0  0  0
  192.4410  176.1340  136.8540 C   0  0  0  0  0  3  0  0  0  0  0  0
  188.2360  175.3880  136.6360 C   0  0  1  0  0  3  0  0  0  0  0  0
  188.4070  173.9890  137.0150 C   0  0  0  0  0  2  0  0  0  0  0  0
  187.0860  174.6210  137.1400 N   0  0  0  0  0  2  0  0  0  0  0  0
  189.8130  178.0350  142.3260 O   0  0  0  0  0  0  0  0  0  0  0  0
  190.1800  178.3310  143.6460 C   0  0  0  0  0  0  0  0  0  0  0  0
  190.6650  179.4520  143.9550 O   0  0  0  0  0  0  0  0  0  0  0  0
  189.9820  177.3030  144.7170 C   0  0  2  0  0  3  0  0  0  0  0  0
  187.8110  177.7360  148.4830 C   0  0  0  0  0  2  0  0  0  0  0  0
  187.2110  178.3440  147.2160 C   0  0  0  0  0  2  0  0  0  0  0  0
  189.9320  177.2650  147.2450 C   0  0  0  0  0  2  0  0  0  0  0  0
  187.8290  177.7010  145.9770 C   0  0  0  0  0  2  0  0  0  0  0  0
  189.3280  177.9100  148.4850 C   0  0  0  0  0  2  0  0  0  0  0  0
  189.3460  177.9010  145.9790 C   0  0  0  0  0  3  0  0  0  0  0  0
  191.3020  176.6580  145.0110 C   0  0  0  0  0  0  0  0  0  0  0  0
  192.0840  177.0990  146.0710 O   0  0  0  0  0  1  0  0  0  0  0  0
  191.7330  175.7480  144.2550 O   0  0  0  0  0  0  0  0  0  0  0  0
  1 11  1  0  0  0  0
  3 12  1  0  0  0  0
  3 10  1  1  0  0  0
  4  7  1  0  0  0  0
  4 11  2  0  0  0  0
  5  8  2  0  0  0  0
  5  6  1  0  0  0  0
  6  1  2  0  0  0  0
  7  9  2  0  0  0  0
  8  4  1  0  0  0  0
  9 26  1  0  0  0  0
  9 12  1  0  0  0  0
 11  3  1  0  0  0  0
 12  2  1  6  0  0  0
 13  8  1  0  0  0  0
 14 13  1  0  0  0  0
 14 15  1  0  0  0  0
 16 13  1  6  0  0  0
 16 20  1  0  0  0  0
 17 22  2  0  0  0  0
 17 20  1  0  0  0  0
 18 21  1  0  0  0  0
 19 21  2  0  0  0  0
 20 18  2  0  0  0  0
 22 19  1  0  0  0  0
 23 24  1  0  0  0  0
 23 25  1  0  0  0  0
 23 16  1  1  0  0  0
 24 25  1  0  0  0  0
 26 27  1  0  0  0  0
 27 28  2  0  0  0  0
 29 27  1  6  0  0  0
 29 36  1  0  0  0  0
 29 35  1  0  0  0  0
 30 34  1  0  0  0  0
 31 30  1  0  0  0  0
 32 34  1  0  0  0  0
 33 35  1  0  0  0  0
 33 31  1  0  0  0  0
 35 32  1  0  0  0  0
 36 37  1  0  0  0  0
 38 36  2  0  0  0  0
M  END
>  <MODEL>
2

>  <REMARK>
 VINA RESULT:      -8.1      2.727      5.748
  Name = 
  10 active torsions:
  status: ('A' for Active; 'I' for Inactive)
    1  A    between atoms: C_3  and  C_7
    2  A    between atoms: C_3  and  N_10
    3  A    between atoms: C_3  and  C_31
    4  A    between atoms: N_10  and  C_13
    5  A    between atoms: N_10  and  C_21
    6  A    between atoms: C_14  and  O_26
    7  A    between atoms: C_14  and  C_30
    8  A    between atoms: C_23  and  C_30
    9  A    between atoms: C_25  and  C_30
   10  A    between atoms: O_26  and  C_28
                            x       y       z     vdW  Elec       q    Type
                         _______ _______ _______ _____ _____    ______ ____

>  <TORSDO>
F 10

$$$$
=
 OpenBabel11062413023D

 38 42  0  0  1  0  0  0  0  0999 V2000
  187.3310  177.8070  147.0440 C   0  0  0  0  0  3  0  0  0  0  0  0
  184.8900  179.9980  144.3880 C   0  0  0  0  0  1  0  0  0  0  0  0
  185.1350  177.8750  145.7640 C   0  0  2  0  0  3  0  0  0  0  0  0
  187.3350  177.4690  144.6380 C   0  0  0  0  0  0  0  0  0  0  0  0
  189.4060  177.3380  145.8960 C   0  0  0  0  0  3  0  0  0  0  0  0
  188.7110  177.6140  147.0750 C   0  0  0  0  0  3  0  0  0  0  0  0
  186.6180  177.4440  143.3950 N   0  0  0  0  0  0  0  0  0  0  0  0
  188.7310  177.2470  144.6680 C   0  0  0  0  0  0  0  0  0  0  0  0
  185.3930  177.8580  143.2610 C   0  0  0  0  0  0  0  0  0  0  0  0
  184.5140  178.5770  146.9670 C   0  0  0  0  0  1  0  0  0  0  0  0
  186.6390  177.7550  145.8290 C   0  0  0  0  0  0  0  0  0  0  0  0
  184.6720  178.4910  144.4310 C   0  0  2  0  0  3  0  0  0  0  0  0
  189.4710  176.9240  143.4720 N   0  0  0  0  0  0  0  0  0  0  0  0
  189.3820  175.5770  142.9110 C   0  0  0  0  0  2  0  0  0  0  0  0
  190.5920  174.9090  143.0940 O   0  0  0  0  0  1  0  0  0  0  0  0
  190.0730  177.9910  142.6710 C   0  0  2  0  0  3  0  0  0  0  0  0
  190.6670  177.2160  140.3380 C   0  0  0  0  0  3  0  0  0  0  0  0
  188.5450  178.2330  140.7530 N   0  0  0  0  0  0  0  0  0  0  0  0
  189.0770  177.4970  138.5440 C   0  0  0  0  0  3  0  0  0  0  0  0
  189.7570  177.8230  141.2150 C   0  0  0  0  0  0  0  0  0  0  0  0
  188.1910  178.0870  139.4480 C   0  0  0  0  0  3  0  0  0  0  0  0
  190.3220  177.0590  138.9960 C   0  0  0  0  0  3  0  0  0  0  0  0
  191.5700  178.1430  142.9470 C   0  0  1  0  0  3  0  0  0  0  0  0
  191.8000  179.2250  143.8990 C   0  0  0  0  0  2  0  0  0  0  0  0
  191.8310  177.8310  144.3610 N   0  0  0  0  0  2  0  0  0  0  0  0
  184.8110  177.7920  141.9910 O   0  0  0  0  0  0  0  0  0  0  0  0
  184.5570  178.8890  141.1550 C   0  0  0  0  0  0  0  0  0  0  0  0
  185.4690  179.7010  140.8460 O   0  0  0  0  0  0  0  0  0  0  0  0
  183.1780  179.0980  140.6080 C   0  0  2  0  0  3  0  0  0  0  0  0
  179.4630  178.3190  142.7690 C   0  0  0  0  0  2  0  0  0  0  0  0
  180.7290  178.6160  143.5710 C   0  0  0  0  0  2  0  0  0  0  0  0
  180.8280  178.1680  140.6800 C   0  0  0  0  0  2  0  0  0  0  0  0
  181.7620  179.3130  142.6890 C   0  0  0  0  0  2  0  0  0  0  0  0
  179.7970  177.4620  141.5510 C   0  0  0  0  0  2  0  0  0  0  0  0
  182.1050  178.4350  141.4840 C   0  0  0  0  0  3  0  0  0  0  0  0
  183.1400  178.5880  139.2000 C   0  0  0  0  0  0  0  0  0  0  0  0
  183.6140  177.3180  138.8950 O   0  0  0  0  0  1  0  0  0  0  0  0
  182.7300  179.3380  138.2770 O   0  0  0  0  0  0  0  0  0  0  0  0
  1  6  1  0  0  0  0
  3 11  1  0  0  0  0
  3 10  1  1  0  0  0
  4  8  2  0  0  0  0
  4 11  1  0  0  0  0
  5  6  2  0  0  0  0
  7  4  1  0  0  0  0
  8  5  1  0  0  0  0
  9  7  2  0  0  0  0
  9 12  1  0  0  0  0
 11  1  2  0  0  0  0
 12  2  1  1  0  0  0
 12  3  1  0  0  0  0
 13  8  1  0  0  0  0
 14 15  1  0  0  0  0
 14 13  1  0  0  0  0
 16 13  1  1  0  0  0
 17 20  1  0  0  0  0
 18 20  2  0  0  0  0
 19 22  1  0  0  0  0
 19 21  2  0  0  0  0
 20 16  1  0  0  0  0
 21 18  1  0  0  0  0
 22 17  2  0  0  0  0
 23 16  1  1  0  0  0
 23 24  1  0  0  0  0
 23 25  1  0  0  0  0
 24 25  1  0  0  0  0
 26  9  1  0  0  0  0
 27 26  1  0  0  0  0
 28 27  2  0  0  0  0
 29 36  1  6  0  0  0
 29 27  1  0  0  0  0
 29 35  1  0  0  0  0
 30 31  1  0  0  0  0
 32 35  1  0  0  0  0
 32 34  1  0  0  0  0
 33 31  1  0  0  0  0
 34 30  1  0  0  0  0
 35 33  1  0  0  0  0
 37 36  1  0  0  0  0
 38 36  2  0  0  0  0
M  END
>  <MODEL>
3

>  <REMARK>
 VINA RESULT:      -8.0      2.525      8.279
  Name = 
  10 active torsions:
  status: ('A' for Active; 'I' for Inactive)
    1  A    between atoms: C_3  and  C_7
    2  A    between atoms: C_3  and  N_10
    3  A    between atoms: C_3  and  C_31
    4  A    between atoms: N_10  and  C_13
    5  A    between atoms: N_10  and  C_21
    6  A    between atoms: C_14  and  O_26
    7  A    between atoms: C_14  and  C_30
    8  A    between atoms: C_23  and  C_30
    9  A    between atoms: C_25  and  C_30
   10  A    between atoms: O_26  and  C_28
                            x       y       z     vdW  Elec       q    Type
                         _______ _______ _______ _____ _____    ______ ____

>  <TORSDO>
F 10

$$$$
=
 OpenBabel11062413023D

 38 42  0  0  1  0  0  0  0  0999 V2000
  182.9180  177.8630  136.9800 C   0  0  0  0  0  3  0  0  0  0  0  0
  183.3800  177.5150  141.1600 C   0  0  0  0  0  1  0  0  0  0  0  0
  182.9850  179.0900  139.2060 C   0  0  2  0  0  3  0  0  0  0  0  0
  185.0420  178.1660  138.1200 C   0  0  0  0  0  0  0  0  0  0  0  0
  184.9580  177.0620  135.9600 C   0  0  0  0  0  3  0  0  0  0  0  0
  183.5730  177.2240  135.9280 C   0  0  0  0  0  3  0  0  0  0  0  0
  185.7710  178.6140  139.2720 N   0  0  0  0  0  0  0  0  0  0  0  0
  185.7130  177.5410  137.0430 C   0  0  0  0  0  0  0  0  0  0  0  0
  185.2050  178.9850  140.3830 C   0  0  0  0  0  0  0  0  0  0  0  0
  181.4810  178.8610  139.3190 C   0  0  0  0  0  1  0  0  0  0  0  0
  183.6430  178.3200  138.0870 C   0  0  0  0  0  0  0  0  0  0  0  0
  183.7060  178.8700  140.5480 C   0  0  2  0  0  3  0  0  0  0  0  0
  187.1480  177.3910  137.0300 N   0  0  0  0  0  0  0  0  0  0  0  0
  187.9950  178.5700  136.8510 C   0  0  0  0  0  2  0  0  0  0  0  0
  187.2130  179.6530  136.4490 O   0  0  0  0  0  1  0  0  0  0  0  0
  187.7600  176.1360  137.4730 C   0  0  2  0  0  3  0  0  0  0  0  0
  189.3770  176.6660  139.3440 C   0  0  0  0  0  3  0  0  0  0  0  0
  190.2010  176.2260  137.1450 N   0  0  0  0  0  0  0  0  0  0  0  0
  191.7490  176.7100  138.8980 C   0  0  0  0  0  3  0  0  0  0  0  0
  189.1480  176.3620  137.9950 C   0  0  0  0  0  0  0  0  0  0  0  0
  191.4830  176.3960  137.5630 C   0  0  0  0  0  3  0  0  0  0  0  0
  190.6860  176.8430  139.7910 C   0  0  0  0  0  3  0  0  0  0  0  0
  187.6900  175.0530  136.3960 C   0  0  1  0  0  3  0  0  0  0  0  0
  188.1280  173.7720  136.9400 C   0  0  0  0  0  2  0  0  0  0  0  0
  186.6930  174.0460  136.7910 N   0  0  0  0  0  2  0  0  0  0  0  0
  186.0300  179.3900  141.4380 O   0  0  0  0  0  0  0  0  0  0  0  0
  187.1440  178.6850  141.9150 C   0  0  0  0  0  0  0  0  0  0  0  0
  188.2970  178.8900  141.4500 O   0  0  0  0  0  0  0  0  0  0  0  0
  186.9680  177.6760  143.0070 C   0  0  2  0  0  3  0  0  0  0  0  0
  184.7720  178.2510  146.7400 C   0  0  0  0  0  2  0  0  0  0  0  0
  184.3020  178.9940  145.4900 C   0  0  0  0  0  2  0  0  0  0  0  0
  186.8390  177.5340  145.5290 C   0  0  0  0  0  2  0  0  0  0  0  0
  184.8580  178.3240  144.2360 C   0  0  0  0  0  2  0  0  0  0  0  0
  186.2970  178.2030  146.7850 C   0  0  0  0  0  2  0  0  0  0  0  0
  186.3870  178.3030  144.2820 C   0  0  0  0  0  3  0  0  0  0  0  0
  188.2870  177.0130  143.2640 C   0  0  0  0  0  0  0  0  0  0  0  0
  189.3400  177.7270  143.8210 O   0  0  0  0  0  1  0  0  0  0  0  0
  188.4590  175.8150  142.9180 O   0  0  0  0  0  0  0  0  0  0  0  0
  1 11  1  0  0  0  0
  3 10  1  1  0  0  0
  3 12  1  0  0  0  0
  4  7  1  0  0  0  0
  5  8  2  0  0  0  0
  6  5  1  0  0  0  0
  6  1  2  0  0  0  0
  7  9  2  0  0  0  0
  8  4  1  0  0  0  0
  9 12  1  0  0  0  0
  9 26  1  0  0  0  0
 11  4  2  0  0  0  0
 11  3  1  0  0  0  0
 12  2  1  6  0  0  0
 13  8  1  0  0  0  0
 14 13  1  0  0  0  0
 15 14  1  0  0  0  0
 16 13  1  6  0  0  0
 16 20  1  0  0  0  0
 17 22  1  0  0  0  0
 18 21  2  0  0  0  0
 18 20  1  0  0  0  0
 19 22  2  0  0  0  0
 20 17  2  0  0  0  0
 21 19  1  0  0  0  0
 23 25  1  0  0  0  0
 23 24  1  0  0  0  0
 23 16  1  1  0  0  0
 25 24  1  0  0  0  0
 26 27  1  0  0  0  0
 28 27  2  0  0  0  0
 29 27  1  6  0  0  0
 29 36  1  0  0  0  0
 29 35  1  0  0  0  0
 30 34  1  0  0  0  0
 31 30  1  0  0  0  0
 32 34  1  0  0  0  0
 33 35  1  0  0  0  0
 33 31  1  0  0  0  0
 35 32  1  0  0  0  0
 36 37  1  0  0  0  0
 38 36  2  0  0  0  0
M  END
>  <MODEL>
4

>  <REMARK>
 VINA RESULT:      -7.7      2.150      5.277
  Name = 
  10 active torsions:
  status: ('A' for Active; 'I' for Inactive)
    1  A    between atoms: C_3  and  C_7
    2  A    between atoms: C_3  and  N_10
    3  A    between atoms: C_3  and  C_31
    4  A    between atoms: N_10  and  C_13
    5  A    between atoms: N_10  and  C_21
    6  A    between atoms: C_14  and  O_26
    7  A    between atoms: C_14  and  C_30
    8  A    between atoms: C_23  and  C_30
    9  A    between atoms: C_25  and  C_30
   10  A    between atoms: O_26  and  C_28
                            x       y       z     vdW  Elec       q    Type
                         _______ _______ _______ _____ _____    ______ ____

>  <TORSDO>
F 10

$$$$
=
 OpenBabel11062413023D

 38 42  0  0  1  0  0  0  0  0999 V2000
  191.4800  176.4800  139.7060 C   0  0  0  0  0  3  0  0  0  0  0  0
  190.2440  178.9670  142.8830 C   0  0  0  0  0  1  0  0  0  0  0  0
  190.4030  176.5870  142.0060 C   0  0  2  0  0  3  0  0  0  0  0  0
  189.2170  177.3350  139.9320 C   0  0  0  0  0  0  0  0  0  0  0  0
  190.2440  177.1540  137.7410 C   0  0  0  0  0  3  0  0  0  0  0  0
  191.4080  176.6520  138.3240 C   0  0  0  0  0  3  0  0  0  0  0  0
  188.1230  177.7210  140.7760 N   0  0  0  0  0  0  0  0  0  0  0  0
  189.1310  177.4870  138.5280 C   0  0  0  0  0  0  0  0  0  0  0  0
  188.2130  177.8230  142.0700 C   0  0  0  0  0  0  0  0  0  0  0  0
  191.7970  176.4530  142.6100 C   0  0  0  0  0  1  0  0  0  0  0  0
  190.3970  176.8360  140.5170 C   0  0  0  0  0  0  0  0  0  0  0  0
  189.5450  177.6200  142.7580 C   0  0  2  0  0  3  0  0  0  0  0  0
  187.9280  177.9680  137.8930 N   0  0  0  0  0  0  0  0  0  0  0  0
  187.9460  179.2530  137.1950 C   0  0  0  0  0  2  0  0  0  0  0  0
  189.0570  179.9930  137.6000 O   0  0  0  0  0  1  0  0  0  0  0  0
  186.7890  177.0680  137.6980 C   0  0  2  0  0  3  0  0  0  0  0  0
  187.5230  176.2140  135.4340 C   0  0  0  0  0  3  0  0  0  0  0  0
  187.0970  174.6720  137.2090 N   0  0  0  0  0  0  0  0  0  0  0  0
  187.8020  173.8420  135.0840 C   0  0  0  0  0  3  0  0  0  0  0  0
  187.1310  175.9530  136.7550 C   0  0  0  0  0  0  0  0  0  0  0  0
  187.4180  173.6210  136.4080 C   0  0  0  0  0  3  0  0  0  0  0  0
  187.8550  175.1480  134.5980 C   0  0  0  0  0  3  0  0  0  0  0  0
  185.5210  177.8240  137.3020 C   0  0  1  0  0  3  0  0  0  0  0  0
  184.3630  176.9390  137.3700 C   0  0  0  0  0  2  0  0  0  0  0  0
  184.6180  177.8890  138.4610 N   0  0  0  0  0  2  0  0  0  0  0  0
  187.0740  178.2210  142.7790 O   0  0  0  0  0  0  0  0  0  0  0  0
  186.6110  177.6390  143.9670 C   0  0  0  0  0  0  0  0  0  0  0  0
  186.3160  176.4150  144.0240 O   0  0  0  0  0  0  0  0  0  0  0  0
  186.4750  178.4790  145.1990 C   0  0  2  0  0  3  0  0  0  0  0  0
  189.3700  177.8800  148.4150 C   0  0  0  0  0  2  0  0  0  0  0  0
  189.4180  176.9510  147.2020 C   0  0  0  0  0  2  0  0  0  0  0  0
  187.2090  178.8320  147.5930 C   0  0  0  0  0  2  0  0  0  0  0  0
  188.6920  177.5880  146.0200 C   0  0  0  0  0  2  0  0  0  0  0  0
  187.9220  178.1990  148.7800 C   0  0  0  0  0  2  0  0  0  0  0  0
  187.2360  177.8820  146.3900 C   0  0  0  0  0  3  0  0  0  0  0  0
  185.0180  178.6550  145.5000 C   0  0  0  0  0  0  0  0  0  0  0  0
  184.1660  179.2250  144.5620 O   0  0  0  0  0  0  0  0  0  0  0  0
  184.5740  178.3360  146.6330 O   0  0  0  0  0  1  0  0  0  0  0  0
  1 11  1  0  0  0  0
  3 10  1  1  0  0  0
  3 12  1  0  0  0  0
  4 11  2  0  0  0  0
  4  7  1  0  0  0  0
  5  6  1  0  0  0  0
  5  8  2  0  0  0  0
  6  1  2  0  0  0  0
  7  9  2  0  0  0  0
  8  4  1  0  0  0  0
  9 12  1  0  0  0  0
  9 26  1  0  0  0  0
 11  3  1  0  0  0  0
 12  2  1  6  0  0  0
 13  8  1  0  0  0  0
 14 15  1  0  0  0  0
 14 13  1  0  0  0  0
 16 13  1  6  0  0  0
 17 20  1  0  0  0  0
 19 21  2  0  0  0  0
 20 18  2  0  0  0  0
 20 16  1  0  0  0  0
 21 18  1  0  0  0  0
 22 19  1  0  0  0  0
 22 17  2  0  0  0  0
 23 24  1  0  0  0  0
 23 16  1  1  0  0  0
 23 25  1  0  0  0  0
 24 25  1  0  0  0  0
 26 27  1  0  0  0  0
 27 28  2  0  0  0  0
 29 27  1  6  0  0  0
 29 36  1  0  0  0  0
 29 35  1  0  0  0  0
 30 34  1  0  0  0  0
 31 30  1  0  0  0  0
 32 34  1  0  0  0  0
 33 35  1  0  0  0  0
 33 31  1  0  0  0  0
 35 32  1  0  0  0  0
 36 38  1  0  0  0  0
 37 36  2  0  0  0  0
M  END
>  <MODEL>
5

>  <REMARK>
 VINA RESULT:      -7.2      2.672      5.668
  Name = 
  10 active torsions:
  status: ('A' for Active; 'I' for Inactive)
    1  A    between atoms: C_3  and  C_7
    2  A    between atoms: C_3  and  N_10
    3  A    between atoms: C_3  and  C_31
    4  A    between atoms: N_10  and  C_13
    5  A    between atoms: N_10  and  C_21
    6  A    between atoms: C_14  and  O_26
    7  A    between atoms: C_14  and  C_30
    8  A    between atoms: C_23  and  C_30
    9  A    between atoms: C_25  and  C_30
   10  A    between atoms: O_26  and  C_28
                            x       y       z     vdW  Elec       q    Type
                         _______ _______ _______ _____ _____    ______ ____

>  <TORSDO>
F 10

$$$$
=
 OpenBabel11062413023D

 38 42  0  0  1  0  0  0  0  0999 V2000
  189.3080  174.3730  135.5540 C   0  0  0  0  0  3  0  0  0  0  0  0
  192.3860  176.4170  137.5930 C   0  0  0  0  0  1  0  0  0  0  0  0
  190.7710  174.4540  137.6310 C   0  0  2  0  0  3  0  0  0  0  0  0
  188.8950  176.0660  137.2460 C   0  0  0  0  0  0  0  0  0  0  0  0
  187.4690  175.9190  135.2880 C   0  0  0  0  0  3  0  0  0  0  0  0
  188.2250  174.8460  134.8140 C   0  0  0  0  0  3  0  0  0  0  0  0
  189.2810  176.7060  138.4710 N   0  0  0  0  0  0  0  0  0  0  0  0
  187.7800  176.5330  136.5110 C   0  0  0  0  0  0  0  0  0  0  0  0
  190.4120  176.4830  139.0750 C   0  0  0  0  0  0  0  0  0  0  0  0
  191.7890  173.5970  136.8860 C   0  0  0  0  0  1  0  0  0  0  0  0
  189.6600  174.9890  136.7600 C   0  0  0  0  0  0  0  0  0  0  0  0
  191.4440  175.5750  138.4440 C   0  0  2  0  0  3  0  0  0  0  0  0
  186.9570  177.6170  136.9930 N   0  0  0  0  0  0  0  0  0  0  0  0
  187.1740  178.9690  136.4830 C   0  0  0  0  0  2  0  0  0  0  0  0
  188.3190  179.5140  137.0650 O   0  0  0  0  0  1  0  0  0  0  0  0
  185.7420  177.3310  137.7600 C   0  0  2  0  0  3  0  0  0  0  0  0
  184.0420  176.9170  135.9350 C   0  0  0  0  0  3  0  0  0  0  0  0
  184.7640  175.1120  137.3230 N   0  0  0  0  0  0  0  0  0  0  0  0
  183.1670  174.6920  135.5970 C   0  0  0  0  0  3  0  0  0  0  0  0
  184.8160  176.4310  136.9970 C   0  0  0  0  0  0  0  0  0  0  0  0
  183.9610  174.2420  136.6540 C   0  0  0  0  0  3  0  0  0  0  0  0
  183.2120  176.0390  135.2370 C   0  0  0  0  0  3  0  0  0  0  0  0
  185.0650  178.6080  138.2580 C   0  0  1  0  0  3  0  0  0  0  0  0
  184.1710  178.3050  139.3710 C   0  0  0  0  0  2  0  0  0  0  0  0
  185.4990  178.8760  139.6380 N   0  0  0  0  0  2  0  0  0  0  0  0
  190.6750  177.1820  140.2580 O   0  0  0  0  0  0  0  0  0  0  0  0
  189.7230  177.5230  141.2290 C   0  0  0  0  0  0  0  0  0  0  0  0
  188.9100  178.4680  141.0450 O   0  0  0  0  0  0  0  0  0  0  0  0
  189.6600  176.7450  142.5070 C   0  0  2  0  0  3  0  0  0  0  0  0
  187.0890  177.4460  145.9690 C   0  0  0  0  0  2  0  0  0  0  0  0
  186.4770  177.5300  144.5710 C   0  0  0  0  0  2  0  0  0  0  0  0
  189.3710  177.3110  144.9550 C   0  0  0  0  0  2  0  0  0  0  0  0
  187.3640  176.8080  143.5610 C   0  0  0  0  0  2  0  0  0  0  0  0
  188.4960  178.0390  145.9670 C   0  0  0  0  0  2  0  0  0  0  0  0
  188.7640  177.4270  143.5520 C   0  0  0  0  0  3  0  0  0  0  0  0
  191.0550  176.5450  143.0160 C   0  0  0  0  0  0  0  0  0  0  0  0
  191.9250  177.6210  143.1340 O   0  0  0  0  0  0  0  0  0  0  0  0
  191.4600  175.3840  143.2820 O   0  0  0  0  0  1  0  0  0  0  0  0
  1 11  1  0  0  0  0
  3 10  1  6  0  0  0
  3 12  1  0  0  0  0
  4  7  1  0  0  0  0
  5  8  2  0  0  0  0
  6  5  1  0  0  0  0
  6  1  2  0  0  0  0
  7  9  2  0  0  0  0
  8 13  1  0  0  0  0
  8  4  1  0  0  0  0
  9 26  1  0  0  0  0
 11  4  2  0  0  0  0
 11  3  1  0  0  0  0
 12  2  1  6  0  0  0
 12  9  1  0  0  0  0
 14 13  1  0  0  0  0
 14 15  1  0  0  0  0
 16 13  1  6  0  0  0
 17 20  1  0  0  0  0
 19 21  2  0  0  0  0
 20 18  2  0  0  0  0
 20 16  1  0  0  0  0
 21 18  1  0  0  0  0
 22 19  1  0  0  0  0
 22 17  2  0  0  0  0
 23 16  1  1  0  0  0
 23 24  1  0  0  0  0
 23 25  1  0  0  0  0
 24 25  1  0  0  0  0
 26 27  1  0  0  0  0
 28 27  2  0  0  0  0
 29 27  1  6  0  0  0
 29 36  1  0  0  0  0
 29 35  1  0  0  0  0
 31 30  1  0  0  0  0
 32 34  1  0  0  0  0
 33 31  1  0  0  0  0
 34 30  1  0  0  0  0
 35 33  1  0  0  0  0
 35 32  1  0  0  0  0
 36 37  2  0  0  0  0
 36 38  1  0  0  0  0
M  END
>  <MODEL>
6

>  <REMARK>
 VINA RESULT:      -7.2      2.334      4.311
  Name = 
  10 active torsions:
  status: ('A' for Active; 'I' for Inactive)
    1  A    between atoms: C_3  and  C_7
    2  A    between atoms: C_3  and  N_10
    3  A    between atoms: C_3  and  C_31
    4  A    between atoms: N_10  and  C_13
    5  A    between atoms: N_10  and  C_21
    6  A    between atoms: C_14  and  O_26
    7  A    between atoms: C_14  and  C_30
    8  A    between atoms: C_23  and  C_30
    9  A    between atoms: C_25  and  C_30
   10  A    between atoms: O_26  and  C_28
                            x       y       z     vdW  Elec       q    Type
                         _______ _______ _______ _____ _____    ______ ____

>  <TORSDO>
F 10

$$$$
=
 OpenBabel11062413023D

 38 42  0  0  1  0  0  0  0  0999 V2000
  186.8640  177.7380  146.7840 C   0  0  0  0  0  3  0  0  0  0  0  0
  185.0540  180.1250  143.8120 C   0  0  0  0  0  1  0  0  0  0  0  0
  184.9550  177.9470  145.1180 C   0  0  2  0  0  3  0  0  0  0  0  0
  187.3120  177.4840  144.4100 C   0  0  0  0  0  0  0  0  0  0  0  0
  189.1010  177.2180  146.0280 C   0  0  0  0  0  3  0  0  0  0  0  0
  188.2060  177.4830  147.0650 C   0  0  0  0  0  3  0  0  0  0  0  0
  186.8440  177.5330  143.0540 N   0  0  0  0  0  0  0  0  0  0  0  0
  188.6680  177.1990  144.6930 C   0  0  0  0  0  0  0  0  0  0  0  0
  185.6810  178.0060  142.7100 C   0  0  0  0  0  0  0  0  0  0  0  0
  184.1430  178.6350  146.2120 C   0  0  0  0  0  1  0  0  0  0  0  0
  186.4140  177.7590  145.4600 C   0  0  0  0  0  0  0  0  0  0  0  0
  184.7760  178.6290  143.7500 C   0  0  2  0  0  3  0  0  0  0  0  0
  189.6090  176.8850  143.6440 N   0  0  0  0  0  0  0  0  0  0  0  0
  189.7740  175.4970  143.2160 C   0  0  0  0  0  2  0  0  0  0  0  0
  191.0390  175.0390  143.5830 O   0  0  0  0  0  1  0  0  0  0  0  0
  190.1800  177.9570  142.8250 C   0  0  2  0  0  3  0  0  0  0  0  0
  191.0650  177.1260  140.6070 C   0  0  0  0  0  3  0  0  0  0  0  0
  188.8130  177.9060  140.7760 N   0  0  0  0  0  0  0  0  0  0  0  0
  189.6200  177.1130  138.6720 C   0  0  0  0  0  3  0  0  0  0  0  0
  190.0160  177.6700  141.3620 C   0  0  0  0  0  0  0  0  0  0  0  0
  188.5960  177.6450  139.4590 C   0  0  0  0  0  3  0  0  0  0  0  0
  190.8610  176.8520  139.2540 C   0  0  0  0  0  3  0  0  0  0  0  0
  191.6240  178.2720  143.2180 C   0  0  1  0  0  3  0  0  0  0  0  0
  191.6810  179.5260  143.9630 C   0  0  0  0  0  2  0  0  0  0  0  0
  191.7390  178.2480  144.6850 N   0  0  0  0  0  2  0  0  0  0  0  0
  185.3490  178.0090  141.3510 O   0  0  0  0  0  0  0  0  0  0  0  0
  184.2260  178.6350  140.7910 C   0  0  0  0  0  0  0  0  0  0  0  0
  184.3200  179.7490  140.2100 O   0  0  0  0  0  0  0  0  0  0  0  0
  182.8890  177.9650  140.8720 C   0  0  2  0  0  3  0  0  0  0  0  0
  181.8540  175.5660  137.3710 C   0  0  0  0  0  2  0  0  0  0  0  0
  181.2090  175.2220  138.7130 C   0  0  0  0  0  2  0  0  0  0  0  0
  183.3910  177.1640  138.5270 C   0  0  0  0  0  2  0  0  0  0  0  0
  181.3040  176.4110  139.6650 C   0  0  0  0  0  2  0  0  0  0  0  0
  183.3100  175.9780  137.5750 C   0  0  0  0  0  2  0  0  0  0  0  0
  182.7690  176.8000  139.8790 C   0  0  0  0  0  3  0  0  0  0  0  0
  181.8240  178.9960  140.6540 C   0  0  0  0  0  0  0  0  0  0  0  0
  181.6540  179.5830  139.4070 O   0  0  0  0  0  0  0  0  0  0  0  0
  181.1150  179.3730  141.6220 O   0  0  0  0  0  1  0  0  0  0  0  0
  1  6  1  0  0  0  0
  3 11  1  0  0  0  0
  3 10  1  1  0  0  0
  4  8  2  0  0  0  0
  4 11  1  0  0  0  0
  5  6  2  0  0  0  0
  7  4  1  0  0  0  0
  8  5  1  0  0  0  0
  9  7  2  0  0  0  0
  9 12  1  0  0  0  0
 11  1  2  0  0  0  0
 12  2  1  1  0  0  0
 12  3  1  0  0  0  0
 13  8  1  0  0  0  0
 14 15  1  0  0  0  0
 14 13  1  0  0  0  0
 16 13  1  1  0  0  0
 17 20  1  0  0  0  0
 18 20  2  0  0  0  0
 19 22  1  0  0  0  0
 19 21  2  0  0  0  0
 20 16  1  0  0  0  0
 21 18  1  0  0  0  0
 22 17  2  0  0  0  0
 23 16  1  1  0  0  0
 23 24  1  0  0  0  0
 23 25  1  0  0  0  0
 24 25  1  0  0  0  0
 26  9  1  0  0  0  0
 27 29  1  0  0  0  0
 27 26  1  0  0  0  0
 28 27  2  0  0  0  0
 29 36  1  6  0  0  0
 30 34  1  0  0  0  0
 30 31  1  0  0  0  0
 31 33  1  0  0  0  0
 32 35  1  0  0  0  0
 33 35  1  0  0  0  0
 34 32  1  0  0  0  0
 35 29  1  0  0  0  0
 36 38  1  0  0  0  0
 37 36  2  0  0  0  0
M  END
>  <MODEL>
7

>  <REMARK>
 VINA RESULT:      -7.1      2.502      8.591
  Name = 
  10 active torsions:
  status: ('A' for Active; 'I' for Inactive)
    1  A    between atoms: C_3  and  C_7
    2  A    between atoms: C_3  and  N_10
    3  A    between atoms: C_3  and  C_31
    4  A    between atoms: N_10  and  C_13
    5  A    between atoms: N_10  and  C_21
    6  A    between atoms: C_14  and  O_26
    7  A    between atoms: C_14  and  C_30
    8  A    between atoms: C_23  and  C_30
    9  A    between atoms: C_25  and  C_30
   10  A    between atoms: O_26  and  C_28
                            x       y       z     vdW  Elec       q    Type
                         _______ _______ _______ _____ _____    ______ ____

>  <TORSDO>
F 10

$$$$
=
 OpenBabel11062413023D

 38 42  0  0  1  0  0  0  0  0999 V2000
  183.0570  179.2580  144.3560 C   0  0  0  0  0  3  0  0  0  0  0  0
  186.2160  176.5840  145.1780 C   0  0  0  0  0  1  0  0  0  0  0  0
  185.5460  179.0080  144.8110 C   0  0  2  0  0  3  0  0  0  0  0  0
  184.5020  178.3280  142.6390 C   0  0  0  0  0  0  0  0  0  0  0  0
  182.1350  178.6460  142.2070 C   0  0  0  0  0  3  0  0  0  0  0  0
  181.9650  179.1520  143.4960 C   0  0  0  0  0  3  0  0  0  0  0  0
  185.8000  177.8700  142.2340 N   0  0  0  0  0  0  0  0  0  0  0  0
  183.4010  178.2430  141.7540 C   0  0  0  0  0  0  0  0  0  0  0  0
  186.7950  177.7080  143.0560 C   0  0  0  0  0  0  0  0  0  0  0  0
  185.2370  179.1530  146.2970 C   0  0  0  0  0  1  0  0  0  0  0  0
  184.3240  178.8320  143.9420 C   0  0  0  0  0  0  0  0  0  0  0  0
  186.5960  177.9150  144.5420 C   0  0  2  0  0  3  0  0  0  0  0  0
  183.5530  177.7590  140.4030 N   0  0  0  0  0  0  0  0  0  0  0  0
  182.9460  176.4840  140.0220 C   0  0  0  0  0  2  0  0  0  0  0  0
  181.5610  176.6270  139.9450 O   0  0  0  0  0  1  0  0  0  0  0  0
  184.0550  178.6500  139.3560 C   0  0  2  0  0  3  0  0  0  0  0  0
  182.5520  180.6560  139.0210 C   0  0  0  0  0  3  0  0  0  0  0  0
  182.3020  178.7330  137.6260 N   0  0  0  0  0  0  0  0  0  0  0  0
  180.8800  180.6200  137.2800 C   0  0  0  0  0  3  0  0  0  0  0  0
  182.9320  179.3560  138.6570 C   0  0  0  0  0  0  0  0  0  0  0  0
  181.2920  179.3300  136.9390 C   0  0  0  0  0  3  0  0  0  0  0  0
  181.5180  181.2840  138.3280 C   0  0  0  0  0  3  0  0  0  0  0  0
  185.0030  177.9310  138.3960 C   0  0  1  0  0  3  0  0  0  0  0  0
  185.7550  178.9010  137.6070 C   0  0  0  0  0  2  0  0  0  0  0  0
  186.3920  178.2520  138.7610 N   0  0  0  0  0  2  0  0  0  0  0  0
  188.0080  177.2420  142.5370 O   0  0  0  0  0  0  0  0  0  0  0  0
  189.2540  177.8630  142.7030 C   0  0  0  0  0  0  0  0  0  0  0  0
  189.4130  179.0880  142.4570 O   0  0  0  0  0  0  0  0  0  0  0  0
  190.4200  177.0610  143.1930 C   0  0  2  0  0  3  0  0  0  0  0  0
  190.8730  177.1360  147.5370 C   0  0  0  0  0  2  0  0  0  0  0  0
  191.5100  175.9900  146.7520 C   0  0  0  0  0  2  0  0  0  0  0  0
  189.6840  177.8830  145.4680 C   0  0  0  0  0  2  0  0  0  0  0  0
  191.6620  176.3750  145.2830 C   0  0  0  0  0  2  0  0  0  0  0  0
  189.5190  177.5020  146.9330 C   0  0  0  0  0  2  0  0  0  0  0  0
  190.2960  176.7170  144.6830 C   0  0  0  0  0  3  0  0  0  0  0  0
  191.6790  177.8180  142.8990 C   0  0  0  0  0  0  0  0  0  0  0  0
  192.0560  178.8960  143.6910 O   0  0  0  0  0  1  0  0  0  0  0  0
  192.3700  177.5120  141.8930 O   0  0  0  0  0  0  0  0  0  0  0  0
  3 10  1  1  0  0  0
  4 11  2  0  0  0  0
  5  6  1  0  0  0  0
  6  1  2  0  0  0  0
  7  4  1  0  0  0  0
  7  9  2  0  0  0  0
  8  5  2  0  0  0  0
  8  4  1  0  0  0  0
  9 12  1  0  0  0  0
 11  1  1  0  0  0  0
 11  3  1  0  0  0  0
 12  3  1  0  0  0  0
 12  2  1  6  0  0  0
 13  8  1  0  0  0  0
 14 13  1  0  0  0  0
 15 14  1  0  0  0  0
 16 13  1  1  0  0  0
 18 20  2  0  0  0  0
 19 22  1  0  0  0  0
 20 17  1  0  0  0  0
 20 16  1  0  0  0  0
 21 19  2  0  0  0  0
 21 18  1  0  0  0  0
 22 17  2  0  0  0  0
 23 25  1  0  0  0  0
 23 16  1  1  0  0  0
 24 23  1  0  0  0  0
 24 25  1  0  0  0  0
 26 27  1  0  0  0  0
 26  9  1  0  0  0  0
 28 27  2  0  0  0  0
 29 27  1  1  0  0  0
 29 35  1  0  0  0  0
 31 30  1  0  0  0  0
 32 34  1  0  0  0  0
 33 31  1  0  0  0  0
 34 30  1  0  0  0  0
 35 33  1  0  0  0  0
 35 32  1  0  0  0  0
 36 29  1  0  0  0  0
 36 37  1  0  0  0  0
 38 36  2  0  0  0  0
M  END
>  <MODEL>
8

>  <REMARK>
 VINA RESULT:      -7.1      2.071      4.933
  Name = 
  10 active torsions:
  status: ('A' for Active; 'I' for Inactive)
    1  A    between atoms: C_3  and  C_7
    2  A    between atoms: C_3  and  N_10
    3  A    between atoms: C_3  and  C_31
    4  A    between atoms: N_10  and  C_13
    5  A    between atoms: N_10  and  C_21
    6  A    between atoms: C_14  and  O_26
    7  A    between atoms: C_14  and  C_30
    8  A    between atoms: C_23  and  C_30
    9  A    between atoms: C_25  and  C_30
   10  A    between atoms: O_26  and  C_28
                            x       y       z     vdW  Elec       q    Type
                         _______ _______ _______ _____ _____    ______ ____

>  <TORSDO>
F 10

$$$$
=
 OpenBabel11062413023D

 38 42  0  0  1  0  0  0  0  0999 V2000
  182.3380  178.8680  143.9440 C   0  0  0  0  0  3  0  0  0  0  0  0
  186.2360  177.2510  143.8860 C   0  0  0  0  0  1  0  0  0  0  0  0
  184.8240  179.3440  144.1800 C   0  0  2  0  0  3  0  0  0  0  0  0
  183.7530  178.8610  141.9690 C   0  0  0  0  0  0  0  0  0  0  0  0
  181.3650  178.4810  141.7650 C   0  0  0  0  0  3  0  0  0  0  0  0
  181.2240  178.6060  143.1480 C   0  0  0  0  0  3  0  0  0  0  0  0
  185.0630  178.9500  141.3900 N   0  0  0  0  0  0  0  0  0  0  0  0
  182.6210  178.6200  141.1550 C   0  0  0  0  0  0  0  0  0  0  0  0
  186.1610  178.9410  142.0870 C   0  0  0  0  0  0  0  0  0  0  0  0
  184.6880  179.0490  145.6700 C   0  0  0  0  0  1  0  0  0  0  0  0
  183.6070  178.9780  143.3650 C   0  0  0  0  0  0  0  0  0  0  0  0
  186.1080  178.7390  143.5850 C   0  0  2  0  0  3  0  0  0  0  0  0
  182.7300  178.5230  139.7190 N   0  0  0  0  0  0  0  0  0  0  0  0
  183.1980  179.6760  138.9510 C   0  0  0  0  0  2  0  0  0  0  0  0
  182.1460  180.5720  138.7610 O   0  0  0  0  0  1  0  0  0  0  0  0
  182.6500  177.2150  139.0640 C   0  0  2  0  0  3  0  0  0  0  0  0
  184.6890  176.8990  137.6020 C   0  0  0  0  0  3  0  0  0  0  0  0
  182.6070  177.5410  136.6220 N   0  0  0  0  0  0  0  0  0  0  0  0
  184.5140  177.2350  135.2170 C   0  0  0  0  0  3  0  0  0  0  0  0
  183.3330  177.2330  137.7290 C   0  0  0  0  0  0  0  0  0  0  0  0
  183.1640  177.5530  135.3820 C   0  0  0  0  0  3  0  0  0  0  0  0
  185.2780  176.9050  136.3370 C   0  0  0  0  0  3  0  0  0  0  0  0
  181.2150  176.6920  138.9990 C   0  0  1  0  0  3  0  0  0  0  0  0
  181.1920  175.3510  138.4250 C   0  0  0  0  0  2  0  0  0  0  0  0
  181.0890  175.5220  139.8810 N   0  0  0  0  0  2  0  0  0  0  0  0
  187.3770  179.0210  141.4000 O   0  0  0  0  0  0  0  0  0  0  0  0
  187.8430  178.0900  140.4610 C   0  0  0  0  0  0  0  0  0  0  0  0
  187.3750  178.0490  139.2930 O   0  0  0  0  0  0  0  0  0  0  0  0
  188.9270  177.1310  140.8470 C   0  0  2  0  0  3  0  0  0  0  0  0
  191.3830  177.0190  144.4570 C   0  0  0  0  0  2  0  0  0  0  0  0
  189.8770  176.7970  144.5870 C   0  0  0  0  0  2  0  0  0  0  0  0
  191.0730  177.6800  142.0660 C   0  0  0  0  0  2  0  0  0  0  0  0
  189.2830  176.4000  143.2390 C   0  0  0  0  0  2  0  0  0  0  0  0
  191.6720  178.0880  143.4050 C   0  0  0  0  0  2  0  0  0  0  0  0
  189.5580  177.4890  142.1990 C   0  0  0  0  0  3  0  0  0  0  0  0
  189.9460  177.0930  139.7490 C   0  0  0  0  0  0  0  0  0  0  0  0
  190.2150  178.2290  138.9970 O   0  0  0  0  0  0  0  0  0  0  0  0
  190.5200  176.0090  139.4690 O   0  0  0  0  0  1  0  0  0  0  0  0
  3 10  1  1  0  0  0
  4 11  2  0  0  0  0
  5  6  1  0  0  0  0
  6  1  2  0  0  0  0
  7  4  1  0  0  0  0
  7  9  2  0  0  0  0
  8  5  2  0  0  0  0
  8  4  1  0  0  0  0
  9 12  1  0  0  0  0
 11  1  1  0  0  0  0
 11  3  1  0  0  0  0
 12  2  1  6  0  0  0
 12  3  1  0  0  0  0
 13  8  1  0  0  0  0
 14 13  1  0  0  0  0
 15 14  1  0  0  0  0
 16 13  1  6  0  0  0
 17 20  1  0  0  0  0
 18 20  2  0  0  0  0
 19 21  2  0  0  0  0
 19 22  1  0  0  0  0
 20 16  1  0  0  0  0
 21 18  1  0  0  0  0
 22 17  2  0  0  0  0
 23 16  1  1  0  0  0
 23 25  1  0  0  0  0
 24 23  1  0  0  0  0
 24 25  1  0  0  0  0
 26  9  1  0  0  0  0
 27 29  1  0  0  0  0
 27 26  1  0  0  0  0
 28 27  2  0  0  0  0
 29 36  1  6  0  0  0
 29 35  1  0  0  0  0
 30 31  1  0  0  0  0
 32 35  1  0  0  0  0
 32 34  1  0  0  0  0
 33 31  1  0  0  0  0
 34 30  1  0  0  0  0
 35 33  1  0  0  0  0
 37 36  2  0  0  0  0
 38 36  1  0  0  0  0
M  END
>  <MODEL>
9

>  <REMARK>
 VINA RESULT:      -7.1      1.666      4.906
  Name = 
  10 active torsions:
  status: ('A' for Active; 'I' for Inactive)
    1  A    between atoms: C_3  and  C_7
    2  A    between atoms: C_3  and  N_10
    3  A    between atoms: C_3  and  C_31
    4  A    between atoms: N_10  and  C_13
    5  A    between atoms: N_10  and  C_21
    6  A    between atoms: C_14  and  O_26
    7  A    between atoms: C_14  and  C_30
    8  A    between atoms: C_23  and  C_30
    9  A    between atoms: C_25  and  C_30
   10  A    between atoms: O_26  and  C_28
                            x       y       z     vdW  Elec       q    Type
                         _______ _______ _______ _____ _____    ______ ____

>  <TORSDO>
F 10

$$$$
