=
 OpenBabel11062415103D

 55 57  0  0  1  0  0  0  0  0999 V2000
  187.8160  177.1220  142.9370 C   0  0  0  0  0  0  0  0  0  0  0  0
  190.0040  177.1380  141.1900 C   0  0  0  0  0  0  0  0  0  0  0  0
  187.8370  177.9970  141.8480 C   0  0  0  0  0  3  0  0  0  0  0  0
  188.9310  178.0200  140.9670 C   0  0  0  0  0  0  0  0  0  0  0  0
  189.9840  176.2690  142.2850 C   0  0  0  0  0  3  0  0  0  0  0  0
  188.8960  176.2630  143.1580 C   0  0  0  0  0  3  0  0  0  0  0  0
  192.0670  177.1300  139.6140 N   0  0  0  0  0  0  0  0  0  0  0  0
  191.1480  177.1310  140.3170 C   0  0  0  0  0  0  0  0  0  0  0  0
  186.6490  177.1070  143.8690 C   0  0  0  0  0  2  0  0  0  0  0  0
  185.8020  178.3850  143.8240 C   0  0  1  0  0  3  0  0  0  0  0  0
  184.4090  178.2040  143.2070 C   0  0  2  0  0  3  0  0  0  0  0  0
  184.4830  178.2860  141.8150 O   0  0  0  0  0  1  0  0  0  0  0  0
  183.8190  180.4490  143.7700 O   0  0  0  0  0  0  0  0  0  0  0  0
  183.4620  179.2400  143.7230 C   0  0  0  0  0  0  0  0  0  0  0  0
  181.0430  178.8370  143.5290 C   0  0  0  0  0  0  0  0  0  0  0  0
  180.9430  179.3460  142.1250 C   0  0  0  0  0  1  0  0  0  0  0  0
  182.1690  178.8200  144.1850 N   0  0  0  0  0  0  0  0  0  0  0  0
  178.9320  179.1740  144.5610 O   0  0  0  0  0  1  0  0  0  0  0  0
  179.6520  177.0050  144.4560 O   0  0  0  0  0  0  0  0  0  0  0  0
  179.8240  178.3600  144.2020 C   0  0  0  0  0  0  0  0  0  0  0  0
  185.7960  179.0890  145.0730 O   0  0  0  0  0  0  0  0  0  0  0  0
  184.6780  178.1420  146.8770 O   0  0  0  0  0  0  0  0  0  0  0  0
  185.7640  178.4880  146.3390 C   0  0  0  0  0  0  0  0  0  0  0  0
  188.0280  178.1090  147.6400 C   0  0  0  0  0  0  0  0  0  0  0  0
  186.9940  178.2810  147.0450 C   0  0  0  0  0  0  0  0  0  0  0  0
  189.2650  177.9030  148.3540 C   0  0  0  0  0  3  0  0  0  0  0  0
  190.3200  177.3950  147.7940 N   0  0  0  0  0  0  0  0  0  0  0  0
  191.6150  176.0950  146.1810 C   0  0  0  0  0  1  0  0  0  0  0  0
  190.3880  176.9670  146.4000 C   0  0  2  0  0  3  0  0  0  0  0  0
  190.4660  178.1920  145.5070 C   0  0  0  0  0  2  0  0  0  0  0  0
  191.6660  178.1890  144.7950 O   0  0  0  0  0  1  0  0  0  0  0  0
  188.9760  178.8920  139.8630 O   0  0  0  0  0  0  0  0  0  0  0  0
  188.9820  179.3420  137.5870 O   0  0  0  0  0  0  0  0  0  0  0  0
  188.7050  178.5500  138.5300 C   0  0  0  0  0  0  0  0  0  0  0  0
  186.8610  177.0130  137.9670 N   0  0  0  0  0  0  0  0  0  0  0  0
  188.1090  177.2290  138.2610 C   0  0  0  0  0  3  0  0  0  0  0  0
  185.8400  178.0450  137.8490 C   0  0  0  0  0  2  0  0  0  0  0  0
  184.4530  177.4420  138.0390 C   0  0  2  0  0  3  0  0  0  0  0  0
  184.0320  175.1990  137.1360 N   0  0  0  0  0  2  0  0  0  0  0  0
  184.1280  174.5020  135.8670 C   0  0  1  0  0  3  0  0  0  0  0  0
  183.9840  176.6220  136.8320 C   0  0  2  0  0  3  0  0  0  0  0  0
  184.9430  176.9800  135.3170 S   0  0  0  0  0  0  0  0  0  0  0  0
  185.1590  175.2120  135.0200 C   0  0  0  0  0  2  0  0  0  0  0  0
  184.5420  173.0600  136.1120 C   0  0  0  0  0  2  0  0  0  0  0  0
  186.5100  171.6750  135.5490 C   0  0  0  0  0  1  0  0  0  0  0  0
  186.0500  172.9330  136.2530 C   0  0  2  0  0  3  0  0  0  0  0  0
  186.4000  172.8540  137.6020 O   0  0  0  0  0  1  0  0  0  0  0  0
  183.2500  178.7570  138.4060 S   0  0  0  0  0  0  0  0  0  0  0  0
  180.7540  177.5940  137.8990 C   0  0  0  0  0  0  0  0  0  0  0  0
  179.8790  175.7330  139.1840 C   0  0  0  0  0  3  0  0  0  0  0  0
  179.7400  176.6650  138.1530 C   0  0  0  0  0  3  0  0  0  0  0  0
  181.9210  177.5850  138.6860 C   0  0  0  0  0  0  0  0  0  0  0  0
  181.0340  175.7270  139.9680 C   0  0  0  0  0  3  0  0  0  0  0  0
  182.0520  176.6500  139.7200 C   0  0  0  0  0  3  0  0  0  0  0  0
  180.5320  178.7440  136.5900 Cl  0  0  0  0  0  0  0  0  0  0  0  0
  1  6  1  0  0  0  0
  1  9  1  0  0  0  0
  2  5  1  0  0  0  0
  3  1  2  0  0  0  0
  4  2  2  0  0  0  0
  4  3  1  0  0  0  0
  5  6  2  0  0  0  0
  7  8  3  0  0  0  0
  8  2  1  0  0  0  0
 10  9  1  1  0  0  0
 10 21  1  0  0  0  0
 11 12  1  6  0  0  0
 11 14  1  0  0  0  0
 11 10  1  0  0  0  0
 14 13  2  0  0  0  0
 14 17  1  0  0  0  0
 15 17  2  0  0  0  0
 15 20  1  0  0  0  0
 16 15  1  0  0  0  0
 20 19  2  0  0  0  0
 20 18  1  0  0  0  0
 21 23  1  0  0  0  0
 23 22  2  0  0  0  0
 23 25  1  0  0  0  0
 24 26  1  0  0  0  0
 25 24  3  0  0  0  0
 27 26  2  0  0  0  0
 29 28  1  1  0  0  0
 29 27  1  0  0  0  0
 30 29  1  0  0  0  0
 31 30  1  0  0  0  0
 32  4  1  0  0  0  0
 33 34  2  0  0  0  0
 34 32  1  0  0  0  0
 35 36  2  0  0  0  0
 36 34  1  0  0  0  0
 37 35  1  0  0  0  0
 38 37  1  6  0  0  0
 38 48  1  0  0  0  0
 40 44  1  1  0  0  0
 40 39  1  0  0  0  0
 41 39  1  0  0  0  0
 41 38  1  1  0  0  0
 42 41  1  0  0  0  0
 43 42  1  0  0  0  0
 43 40  1  0  0  0  0
 44 46  1  0  0  0  0
 46 45  1  6  0  0  0
 46 47  1  0  0  0  0
 48 52  1  0  0  0  0
 49 51  2  0  0  0  0
 49 52  1  0  0  0  0
 50 53  2  0  0  0  0
 51 50  1  0  0  0  0
 52 54  2  0  0  0  0
 54 53  1  0  0  0  0
 55 49  1  0  0  0  0
M  END
>  <MODEL>
1

>  <REMARK>
 VINA RESULT:      -7.2      0.000      0.000
  Name = 
  23 active torsions:
  status: ('A' for Active; 'I' for Inactive)
    1  A    between atoms: N_1  and  C_44
    2  A    between atoms: C_3  and  C_40
    3  A    between atoms: CA_4  and  C_51
    4  A    between atoms: C_5  and  C_37
    5  A    between atoms: O_8  and  C_37
    6  A    between atoms: O_8  and  C_47
    7  A    between atoms: S_10  and  C_22
    8  A    between atoms: S_10  and  C_25
    9  A    between atoms: C_11  and  C_12
   10  A    between atoms: C_11  and  C_34
   11  A    between atoms: C_12  and  N_42
   12  A    between atoms: C_13  and  C_27
   13  A    between atoms: C_13  and  C_34
   14  A    between atoms: C_14  and  C_49
   15  A    between atoms: C_18  and  O_38
   16  A    between atoms: C_18  and  C_48
   17  A    between atoms: C_20  and  C_49
   18  A    between atoms: C_22  and  C_26
   19  A    between atoms: C_22  and  C_44
   20  A    between atoms: C_23  and  CA_29
   21  A    between atoms: CA_29  and  N_55
   22  A    between atoms: C_34  and  O_38
   23  A    between atoms: C_36  and  C_54
                            x       y       z     vdW  Elec       q    Type
                         _______ _______ _______ _____ _____    ______ ____

>  <TORSDO>
F 23

$$$$
=
 OpenBabel11062415103D

 55 57  0  0  1  0  0  0  0  0999 V2000
  187.6680  177.2660  142.9040 C   0  0  0  0  0  0  0  0  0  0  0  0
  185.2820  178.4250  143.8020 C   0  0  0  0  0  0  0  0  0  0  0  0
  186.9320  178.1000  142.0590 C   0  0  0  0  0  3  0  0  0  0  0  0
  185.7300  178.6840  142.4940 C   0  0  0  0  0  0  0  0  0  0  0  0
  186.0160  177.5840  144.6440 C   0  0  0  0  0  3  0  0  0  0  0  0
  187.2030  177.0030  144.1960 C   0  0  0  0  0  3  0  0  0  0  0  0
  183.0630  179.4520  144.6770 N   0  0  0  0  0  0  0  0  0  0  0  0
  184.0540  178.9960  144.2880 C   0  0  0  0  0  0  0  0  0  0  0  0
  188.9430  176.6500  142.4320 C   0  0  0  0  0  2  0  0  0  0  0  0
  190.1080  177.6410  142.3200 C   0  0  1  0  0  3  0  0  0  0  0  0
  190.9300  177.8050  143.6050 C   0  0  2  0  0  3  0  0  0  0  0  0
  192.0570  178.5930  143.3610 O   0  0  0  0  0  1  0  0  0  0  0  0
  191.1940  175.4380  143.4350 O   0  0  0  0  0  0  0  0  0  0  0  0
  191.3530  176.4740  144.1370 C   0  0  0  0  0  0  0  0  0  0  0  0
  191.2860  176.5910  146.5940 C   0  0  0  0  0  0  0  0  0  0  0  0
  189.8310  176.9380  146.6630 C   0  0  0  0  0  1  0  0  0  0  0  0
  191.9040  176.4060  145.4620 N   0  0  0  0  0  0  0  0  0  0  0  0
  192.6370  175.4020  148.1420 O   0  0  0  0  0  0  0  0  0  0  0  0
  192.1220  177.5560  148.7200 O   0  0  0  0  0  1  0  0  0  0  0  0
  192.0500  176.4780  147.8460 C   0  0  0  0  0  0  0  0  0  0  0  0
  190.9030  177.4310  141.1460 O   0  0  0  0  0  0  0  0  0  0  0  0
  189.6000  178.2690  139.4140 O   0  0  0  0  0  0  0  0  0  0  0  0
  190.4130  177.4020  139.8330 C   0  0  0  0  0  0  0  0  0  0  0  0
  191.1820  175.4650  138.2150 C   0  0  0  0  0  0  0  0  0  0  0  0
  190.8320  176.3490  138.9540 C   0  0  0  0  0  0  0  0  0  0  0  0
  191.5990  174.4060  137.3280 C   0  0  0  0  0  3  0  0  0  0  0  0
  192.8280  174.2670  136.9340 N   0  0  0  0  0  0  0  0  0  0  0  0
  194.1520  176.2010  136.2460 C   0  0  0  0  0  1  0  0  0  0  0  0
  193.9230  175.1510  137.3230 C   0  0  2  0  0  3  0  0  0  0  0  0
  195.1850  174.3280  137.5120 C   0  0  0  0  0  2  0  0  0  0  0  0
  195.2380  173.8250  138.8120 O   0  0  0  0  0  1  0  0  0  0  0  0
  184.9720  179.5270  141.6610 O   0  0  0  0  0  0  0  0  0  0  0  0
  184.5660  179.9130  139.4100 O   0  0  0  0  0  0  0  0  0  0  0  0
  184.4100  179.1790  140.4250 C   0  0  0  0  0  0  0  0  0  0  0  0
  183.2380  177.3630  139.2380 N   0  0  0  0  0  0  0  0  0  0  0  0
  183.6520  177.9170  140.3390 C   0  0  0  0  0  3  0  0  0  0  0  0
  183.4580  177.8940  137.9010 C   0  0  0  0  0  2  0  0  0  0  0  0
  183.9060  176.7850  136.9560 C   0  0  2  0  0  3  0  0  0  0  0  0
  185.7850  175.8260  135.7000 N   0  0  0  0  0  2  0  0  0  0  0  0
  187.2310  175.9300  135.6600 C   0  0  1  0  0  3  0  0  0  0  0  0
  185.2940  177.0310  136.3560 C   0  0  2  0  0  3  0  0  0  0  0  0
  186.5070  177.6180  137.5930 S   0  0  0  0  0  0  0  0  0  0  0  0
  187.7040  176.3950  137.0180 C   0  0  0  0  0  2  0  0  0  0  0  0
  187.8260  174.5710  135.3260 C   0  0  0  0  0  2  0  0  0  0  0  0
  188.2820  172.7020  136.8770 C   0  0  0  0  0  1  0  0  0  0  0  0
  187.1930  173.4690  136.1580 C   0  0  2  0  0  3  0  0  0  0  0  0
  186.4860  172.5920  135.3340 O   0  0  0  0  0  1  0  0  0  0  0  0
  182.6810  176.5680  135.6280 S   0  0  0  0  0  0  0  0  0  0  0  0
  181.0630  174.8630  137.1500 C   0  0  0  0  0  0  0  0  0  0  0  0
  181.3740  172.4590  137.2150 C   0  0  0  0  0  3  0  0  0  0  0  0
  180.6820  173.6030  137.6210 C   0  0  0  0  0  3  0  0  0  0  0  0
  182.1480  174.9760  136.2590 C   0  0  0  0  0  0  0  0  0  0  0  0
  182.4520  172.5710  136.3360 C   0  0  0  0  0  3  0  0  0  0  0  0
  182.8380  173.8260  135.8590 C   0  0  0  0  0  3  0  0  0  0  0  0
  180.1610  176.2700  137.6880 Cl  0  0  0  0  0  0  0  0  0  0  0  0
  1  6  1  0  0  0  0
  2  8  1  0  0  0  0
  2  5  1  0  0  0  0
  3  4  1  0  0  0  0
  3  1  2  0  0  0  0
  4  2  2  0  0  0  0
  6  5  2  0  0  0  0
  8  7  3  0  0  0  0
  9  1  1  0  0  0  0
 10  9  1  1  0  0  0
 10 11  1  0  0  0  0
 11 12  1  6  0  0  0
 11 14  1  0  0  0  0
 13 14  2  0  0  0  0
 14 17  1  0  0  0  0
 15 16  1  0  0  0  0
 15 20  1  0  0  0  0
 17 15  2  0  0  0  0
 20 18  2  0  0  0  0
 20 19  1  0  0  0  0
 21 10  1  0  0  0  0
 22 23  2  0  0  0  0
 23 21  1  0  0  0  0
 24 25  3  0  0  0  0
 25 23  1  0  0  0  0
 26 24  1  0  0  0  0
 27 29  1  0  0  0  0
 27 26  2  0  0  0  0
 29 28  1  6  0  0  0
 29 30  1  0  0  0  0
 30 31  1  0  0  0  0
 32  4  1  0  0  0  0
 33 34  2  0  0  0  0
 34 32  1  0  0  0  0
 35 36  2  0  0  0  0
 36 34  1  0  0  0  0
 37 35  1  0  0  0  0
 38 37  1  1  0  0  0
 39 41  1  0  0  0  0
 40 44  1  1  0  0  0
 40 39  1  0  0  0  0
 40 43  1  0  0  0  0
 41 38  1  1  0  0  0
 41 42  1  0  0  0  0
 43 42  1  0  0  0  0
 44 46  1  0  0  0  0
 46 45  1  6  0  0  0
 47 46  1  0  0  0  0
 48 52  1  0  0  0  0
 48 38  1  0  0  0  0
 49 51  1  0  0  0  0
 49 55  1  0  0  0  0
 50 51  2  0  0  0  0
 52 49  2  0  0  0  0
 53 50  1  0  0  0  0
 54 52  1  0  0  0  0
 54 53  2  0  0  0  0
M  END
>  <MODEL>
2

>  <REMARK>
 VINA RESULT:      -7.0      2.700      7.054
  Name = 
  23 active torsions:
  status: ('A' for Active; 'I' for Inactive)
    1  A    between atoms: N_1  and  C_44
    2  A    between atoms: C_3  and  C_40
    3  A    between atoms: CA_4  and  C_51
    4  A    between atoms: C_5  and  C_37
    5  A    between atoms: O_8  and  C_37
    6  A    between atoms: O_8  and  C_47
    7  A    between atoms: S_10  and  C_22
    8  A    between atoms: S_10  and  C_25
    9  A    between atoms: C_11  and  C_12
   10  A    between atoms: C_11  and  C_34
   11  A    between atoms: C_12  and  N_42
   12  A    between atoms: C_13  and  C_27
   13  A    between atoms: C_13  and  C_34
   14  A    between atoms: C_14  and  C_49
   15  A    between atoms: C_18  and  O_38
   16  A    between atoms: C_18  and  C_48
   17  A    between atoms: C_20  and  C_49
   18  A    between atoms: C_22  and  C_26
   19  A    between atoms: C_22  and  C_44
   20  A    between atoms: C_23  and  CA_29
   21  A    between atoms: CA_29  and  N_55
   22  A    between atoms: C_34  and  O_38
   23  A    between atoms: C_36  and  C_54
                            x       y       z     vdW  Elec       q    Type
                         _______ _______ _______ _____ _____    ______ ____

>  <TORSDO>
F 23

$$$$
=
 OpenBabel11062415103D

 55 57  0  0  1  0  0  0  0  0999 V2000
  187.4850  177.2220  142.9180 C   0  0  0  0  0  0  0  0  0  0  0  0
  185.1790  178.7190  143.4520 C   0  0  0  0  0  0  0  0  0  0  0  0
  186.9110  178.0070  141.9150 C   0  0  0  0  0  3  0  0  0  0  0  0
  185.7510  178.7580  142.1660 C   0  0  0  0  0  0  0  0  0  0  0  0
  185.7510  177.9260  144.4520 C   0  0  0  0  0  3  0  0  0  0  0  0
  186.8980  177.1780  144.1860 C   0  0  0  0  0  3  0  0  0  0  0  0
  183.0290  180.0700  143.9920 N   0  0  0  0  0  0  0  0  0  0  0  0
  183.9880  179.4660  143.7530 C   0  0  0  0  0  0  0  0  0  0  0  0
  188.7180  176.4260  142.6400 C   0  0  0  0  0  2  0  0  0  0  0  0
  189.8760  177.2540  142.0690 C   0  0  1  0  0  3  0  0  0  0  0  0
  191.1430  177.2580  142.9350 C   0  0  2  0  0  3  0  0  0  0  0  0
  192.2740  177.4370  142.1360 O   0  0  0  0  0  1  0  0  0  0  0  0
  190.8390  174.9040  143.1990 O   0  0  0  0  0  0  0  0  0  0  0  0
  191.2650  175.9800  143.7010 C   0  0  0  0  0  0  0  0  0  0  0  0
  191.2930  176.4600  146.1130 C   0  0  0  0  0  0  0  0  0  0  0  0
  189.9120  177.0370  146.1430 C   0  0  0  0  0  1  0  0  0  0  0  0
  191.8400  176.0190  145.0160 N   0  0  0  0  0  0  0  0  0  0  0  0
  191.9060  177.2870  148.2530 O   0  0  0  0  0  1  0  0  0  0  0  0
  193.0000  175.3980  147.5650 O   0  0  0  0  0  0  0  0  0  0  0  0
  192.0700  176.4100  147.3620 C   0  0  0  0  0  0  0  0  0  0  0  0
  190.1210  176.9820  140.6840 O   0  0  0  0  0  0  0  0  0  0  0  0
  189.1370  178.8960  139.8070 O   0  0  0  0  0  0  0  0  0  0  0  0
  189.6900  177.7790  139.6140 C   0  0  0  0  0  0  0  0  0  0  0  0
  190.0090  176.9040  137.1460 C   0  0  0  0  0  0  0  0  0  0  0  0
  189.8630  177.3030  138.2730 C   0  0  0  0  0  0  0  0  0  0  0  0
  190.1810  176.4290  135.7950 C   0  0  0  0  0  3  0  0  0  0  0  0
  190.3280  175.1700  135.5090 N   0  0  0  0  0  0  0  0  0  0  0  0
  191.7300  173.4750  136.5690 C   0  0  0  0  0  1  0  0  0  0  0  0
  190.3440  174.0980  136.4990 C   0  0  2  0  0  3  0  0  0  0  0  0
  189.3280  173.0410  136.1040 C   0  0  0  0  0  2  0  0  0  0  0  0
  189.4140  172.7820  134.7350 O   0  0  0  0  0  1  0  0  0  0  0  0
  185.1540  179.5570  141.1730 O   0  0  0  0  0  0  0  0  0  0  0  0
  185.9330  178.6830  139.1700 O   0  0  0  0  0  0  0  0  0  0  0  0
  184.9920  179.2110  139.8240 C   0  0  0  0  0  0  0  0  0  0  0  0
  182.6390  178.6890  139.3030 N   0  0  0  0  0  0  0  0  0  0  0  0
  183.6800  179.4610  139.1990 C   0  0  0  0  0  3  0  0  0  0  0  0
  182.5920  177.4470  140.0610 C   0  0  0  0  0  2  0  0  0  0  0  0
  181.1870  176.8550  140.0220 C   0  0  2  0  0  3  0  0  0  0  0  0
  182.3980  175.2050  138.6670 N   0  0  0  0  0  2  0  0  0  0  0  0
  182.2120  174.4620  137.4340 C   0  0  1  0  0  3  0  0  0  0  0  0
  181.0770  175.6310  139.1060 C   0  0  2  0  0  3  0  0  0  0  0  0
  179.9930  175.9230  137.6610 S   0  0  0  0  0  0  0  0  0  0  0  0
  181.2520  175.2380  136.5620 C   0  0  0  0  0  2  0  0  0  0  0  0
  183.5520  174.3000  136.7350 C   0  0  0  0  0  2  0  0  0  0  0  0
  185.9470  174.0090  137.2690 C   0  0  0  0  0  1  0  0  0  0  0  0
  184.5450  173.5510  137.6070 C   0  0  2  0  0  3  0  0  0  0  0  0
  184.4460  172.1780  137.3760 O   0  0  0  0  0  1  0  0  0  0  0  0
  179.9910  178.1270  139.5110 S   0  0  0  0  0  0  0  0  0  0  0  0
  179.6840  180.1240  141.4500 C   0  0  0  0  0  0  0  0  0  0  0  0
  179.5210  179.6470  143.8210 C   0  0  0  0  0  3  0  0  0  0  0  0
  179.5420  180.5660  142.7690 C   0  0  0  0  0  3  0  0  0  0  0  0
  179.8020  178.7470  141.1840 C   0  0  0  0  0  0  0  0  0  0  0  0
  179.6430  178.2820  143.5590 C   0  0  0  0  0  3  0  0  0  0  0  0
  179.7840  177.8330  142.2440 C   0  0  0  0  0  3  0  0  0  0  0  0
  179.7020  181.3180  140.1620 Cl  0  0  0  0  0  0  0  0  0  0  0  0
  1  6  1  0  0  0  0
  2  8  1  0  0  0  0
  2  5  1  0  0  0  0
  3  4  1  0  0  0  0
  3  1  2  0  0  0  0
  4  2  2  0  0  0  0
  6  5  2  0  0  0  0
  8  7  3  0  0  0  0
  9  1  1  0  0  0  0
 10  9  1  1  0  0  0
 10 11  1  0  0  0  0
 11 12  1  6  0  0  0
 11 14  1  0  0  0  0
 13 14  2  0  0  0  0
 14 17  1  0  0  0  0
 15 16  1  0  0  0  0
 15 20  1  0  0  0  0
 17 15  2  0  0  0  0
 20 19  2  0  0  0  0
 20 18  1  0  0  0  0
 21 10  1  0  0  0  0
 23 22  2  0  0  0  0
 23 21  1  0  0  0  0
 24 25  3  0  0  0  0
 25 23  1  0  0  0  0
 26 24  1  0  0  0  0
 27 26  2  0  0  0  0
 27 29  1  0  0  0  0
 29 28  1  6  0  0  0
 30 29  1  0  0  0  0
 31 30  1  0  0  0  0
 32  4  1  0  0  0  0
 33 34  2  0  0  0  0
 34 32  1  0  0  0  0
 35 37  1  0  0  0  0
 36 35  2  0  0  0  0
 36 34  1  0  0  0  0
 38 37  1  6  0  0  0
 39 41  1  0  0  0  0
 40 44  1  6  0  0  0
 40 39  1  0  0  0  0
 41 38  1  6  0  0  0
 42 41  1  0  0  0  0
 43 40  1  0  0  0  0
 43 42  1  0  0  0  0
 44 46  1  0  0  0  0
 46 45  1  6  0  0  0
 47 46  1  0  0  0  0
 48 38  1  0  0  0  0
 48 52  1  0  0  0  0
 49 51  1  0  0  0  0
 51 50  2  0  0  0  0
 52 49  2  0  0  0  0
 52 54  1  0  0  0  0
 53 50  1  0  0  0  0
 54 53  2  0  0  0  0
 55 49  1  0  0  0  0
M  END
>  <MODEL>
3

>  <REMARK>
 VINA RESULT:      -6.9      2.724      7.313
  Name = 
  23 active torsions:
  status: ('A' for Active; 'I' for Inactive)
    1  A    between atoms: N_1  and  C_44
    2  A    between atoms: C_3  and  C_40
    3  A    between atoms: CA_4  and  C_51
    4  A    between atoms: C_5  and  C_37
    5  A    between atoms: O_8  and  C_37
    6  A    between atoms: O_8  and  C_47
    7  A    between atoms: S_10  and  C_22
    8  A    between atoms: S_10  and  C_25
    9  A    between atoms: C_11  and  C_12
   10  A    between atoms: C_11  and  C_34
   11  A    between atoms: C_12  and  N_42
   12  A    between atoms: C_13  and  C_27
   13  A    between atoms: C_13  and  C_34
   14  A    between atoms: C_14  and  C_49
   15  A    between atoms: C_18  and  O_38
   16  A    between atoms: C_18  and  C_48
   17  A    between atoms: C_20  and  C_49
   18  A    between atoms: C_22  and  C_26
   19  A    between atoms: C_22  and  C_44
   20  A    between atoms: C_23  and  CA_29
   21  A    between atoms: CA_29  and  N_55
   22  A    between atoms: C_34  and  O_38
   23  A    between atoms: C_36  and  C_54
                            x       y       z     vdW  Elec       q    Type
                         _______ _______ _______ _____ _____    ______ ____

>  <TORSDO>
F 23

$$$$
=
 OpenBabel11062415103D

 55 57  0  0  1  0  0  0  0  0999 V2000
  187.4790  177.0830  143.3680 C   0  0  0  0  0  0  0  0  0  0  0  0
  185.2390  178.7260  143.7160 C   0  0  0  0  0  0  0  0  0  0  0  0
  187.0380  177.8970  142.3220 C   0  0  0  0  0  3  0  0  0  0  0  0
  185.9110  178.7220  142.4800 C   0  0  0  0  0  0  0  0  0  0  0  0
  185.6780  177.9050  144.7590 C   0  0  0  0  0  3  0  0  0  0  0  0
  186.7920  177.0830  144.5850 C   0  0  0  0  0  3  0  0  0  0  0  0
  183.1420  180.2110  144.0890 N   0  0  0  0  0  0  0  0  0  0  0  0
  184.0770  179.5500  143.9210 C   0  0  0  0  0  0  0  0  0  0  0  0
  188.6760  176.2080  143.1890 C   0  0  0  0  0  2  0  0  0  0  0  0
  189.8960  176.9360  142.6110 C   0  0  1  0  0  3  0  0  0  0  0  0
  190.9330  177.3690  143.6560 C   0  0  2  0  0  3  0  0  0  0  0  0
  191.9440  178.1190  143.0520 O   0  0  0  0  0  1  0  0  0  0  0  0
  191.5720  175.0690  143.7390 O   0  0  0  0  0  0  0  0  0  0  0  0
  191.5270  176.1790  144.3380 C   0  0  0  0  0  0  0  0  0  0  0  0
  191.3090  176.5760  146.7560 C   0  0  0  0  0  0  0  0  0  0  0  0
  189.8260  176.7740  146.7180 C   0  0  0  0  0  1  0  0  0  0  0  0
  192.0060  176.3260  145.6840 N   0  0  0  0  0  0  0  0  0  0  0  0
  191.9190  177.7460  148.7300 O   0  0  0  0  0  1  0  0  0  0  0  0
  192.7870  175.6400  148.5140 O   0  0  0  0  0  0  0  0  0  0  0  0
  192.0090  176.6920  148.0450 C   0  0  0  0  0  0  0  0  0  0  0  0
  190.4600  176.2590  141.4810 O   0  0  0  0  0  0  0  0  0  0  0  0
  191.5240  177.8020  140.1060 O   0  0  0  0  0  0  0  0  0  0  0  0
  190.7140  176.8440  140.2320 C   0  0  0  0  0  0  0  0  0  0  0  0
  189.4350  175.9440  138.1080 C   0  0  0  0  0  0  0  0  0  0  0  0
  190.0200  176.3550  139.0770 C   0  0  0  0  0  0  0  0  0  0  0  0
  188.7320  175.4530  136.9470 C   0  0  0  0  0  3  0  0  0  0  0  0
  187.6920  176.0530  136.4520 N   0  0  0  0  0  0  0  0  0  0  0  0
  185.5910  177.1670  137.0100 C   0  0  0  0  0  1  0  0  0  0  0  0
  187.1090  177.2740  137.0000 C   0  0  2  0  0  3  0  0  0  0  0  0
  187.5320  178.4550  136.1450 C   0  0  0  0  0  2  0  0  0  0  0  0
  187.3840  179.6430  136.8630 O   0  0  0  0  0  1  0  0  0  0  0  0
  185.4480  179.5510  141.4420 O   0  0  0  0  0  0  0  0  0  0  0  0
  184.5800  179.8810  139.3160 O   0  0  0  0  0  0  0  0  0  0  0  0
  184.6970  179.1410  140.3310 C   0  0  0  0  0  0  0  0  0  0  0  0
  182.8910  177.5170  139.9030 N   0  0  0  0  0  0  0  0  0  0  0  0
  184.0680  177.8080  140.3740 C   0  0  0  0  0  3  0  0  0  0  0  0
  181.9970  178.4610  139.2480 C   0  0  0  0  0  2  0  0  0  0  0  0
  180.6200  177.8360  139.0500 C   0  0  2  0  0  3  0  0  0  0  0  0
  180.8110  175.6860  137.8810 N   0  0  0  0  0  2  0  0  0  0  0  0
  181.2010  175.1890  136.5750 C   0  0  1  0  0  3  0  0  0  0  0  0
  180.4830  177.0950  137.7150 C   0  0  2  0  0  3  0  0  0  0  0  0
  181.5040  177.8310  136.3880 S   0  0  0  0  0  0  0  0  0  0  0  0
  182.1380  176.1980  135.9520 C   0  0  0  0  0  2  0  0  0  0  0  0
  181.8940  173.8450  136.7320 C   0  0  0  0  0  2  0  0  0  0  0  0
  184.0660  172.6690  136.8010 C   0  0  0  0  0  1  0  0  0  0  0  0
  183.3880  174.0130  136.9470 C   0  0  2  0  0  3  0  0  0  0  0  0
  183.6360  174.5130  138.2270 O   0  0  0  0  0  1  0  0  0  0  0  0
  179.3330  179.1150  139.1890 S   0  0  0  0  0  0  0  0  0  0  0  0
  179.2820  180.3670  141.6920 C   0  0  0  0  0  0  0  0  0  0  0  0
  179.6650  179.1790  143.7710 C   0  0  0  0  0  3  0  0  0  0  0  0
  179.3880  180.3650  143.0870 C   0  0  0  0  0  3  0  0  0  0  0  0
  179.4530  179.1670  140.9770 C   0  0  0  0  0  0  0  0  0  0  0  0
  179.8400  177.9890  143.0620 C   0  0  0  0  0  3  0  0  0  0  0  0
  179.7350  177.9830  141.6690 C   0  0  0  0  0  3  0  0  0  0  0  0
  178.9310  181.8830  140.8790 Cl  0  0  0  0  0  0  0  0  0  0  0  0
  1  6  1  0  0  0  0
  2  8  1  0  0  0  0
  2  5  1  0  0  0  0
  3  4  1  0  0  0  0
  3  1  2  0  0  0  0
  4  2  2  0  0  0  0
  6  5  2  0  0  0  0
  8  7  3  0  0  0  0
  9  1  1  0  0  0  0
 10  9  1  1  0  0  0
 10 11  1  0  0  0  0
 11 12  1  6  0  0  0
 11 14  1  0  0  0  0
 13 14  2  0  0  0  0
 14 17  1  0  0  0  0
 15 20  1  0  0  0  0
 16 15  1  0  0  0  0
 17 15  2  0  0  0  0
 20 19  2  0  0  0  0
 20 18  1  0  0  0  0
 21 10  1  0  0  0  0
 22 23  2  0  0  0  0
 23 21  1  0  0  0  0
 24 25  3  0  0  0  0
 25 23  1  0  0  0  0
 26 24  1  0  0  0  0
 27 26  2  0  0  0  0
 27 29  1  0  0  0  0
 29 28  1  6  0  0  0
 30 31  1  0  0  0  0
 30 29  1  0  0  0  0
 32  4  1  0  0  0  0
 33 34  2  0  0  0  0
 34 36  1  0  0  0  0
 34 32  1  0  0  0  0
 35 36  2  0  0  0  0
 37 35  1  0  0  0  0
 38 48  1  0  0  0  0
 38 37  1  6  0  0  0
 40 44  1  1  0  0  0
 40 39  1  0  0  0  0
 41 39  1  0  0  0  0
 41 38  1  1  0  0  0
 42 41  1  0  0  0  0
 43 42  1  0  0  0  0
 43 40  1  0  0  0  0
 44 46  1  0  0  0  0
 46 45  1  1  0  0  0
 46 47  1  0  0  0  0
 48 52  1  0  0  0  0
 49 51  1  0  0  0  0
 51 50  2  0  0  0  0
 52 54  1  0  0  0  0
 52 49  2  0  0  0  0
 53 50  1  0  0  0  0
 54 53  2  0  0  0  0
 55 49  1  0  0  0  0
M  END
>  <MODEL>
4

>  <REMARK>
 VINA RESULT:      -6.8      2.665      7.239
  Name = 
  23 active torsions:
  status: ('A' for Active; 'I' for Inactive)
    1  A    between atoms: N_1  and  C_44
    2  A    between atoms: C_3  and  C_40
    3  A    between atoms: CA_4  and  C_51
    4  A    between atoms: C_5  and  C_37
    5  A    between atoms: O_8  and  C_37
    6  A    between atoms: O_8  and  C_47
    7  A    between atoms: S_10  and  C_22
    8  A    between atoms: S_10  and  C_25
    9  A    between atoms: C_11  and  C_12
   10  A    between atoms: C_11  and  C_34
   11  A    between atoms: C_12  and  N_42
   12  A    between atoms: C_13  and  C_27
   13  A    between atoms: C_13  and  C_34
   14  A    between atoms: C_14  and  C_49
   15  A    between atoms: C_18  and  O_38
   16  A    between atoms: C_18  and  C_48
   17  A    between atoms: C_20  and  C_49
   18  A    between atoms: C_22  and  C_26
   19  A    between atoms: C_22  and  C_44
   20  A    between atoms: C_23  and  CA_29
   21  A    between atoms: CA_29  and  N_55
   22  A    between atoms: C_34  and  O_38
   23  A    between atoms: C_36  and  C_54
                            x       y       z     vdW  Elec       q    Type
                         _______ _______ _______ _____ _____    ______ ____

>  <TORSDO>
F 23

$$$$
=
 OpenBabel11062415103D

 55 57  0  0  1  0  0  0  0  0999 V2000
  187.9780  177.0170  142.7590 C   0  0  0  0  0  0  0  0  0  0  0  0
  190.0410  177.1140  140.8690 C   0  0  0  0  0  0  0  0  0  0  0  0
  187.9060  177.9110  141.6880 C   0  0  0  0  0  3  0  0  0  0  0  0
  188.9360  177.9750  140.7350 C   0  0  0  0  0  0  0  0  0  0  0  0
  190.1150  176.2260  141.9460 C   0  0  0  0  0  3  0  0  0  0  0  0
  189.0890  176.1790  142.8900 C   0  0  0  0  0  3  0  0  0  0  0  0
  191.9940  177.1740  139.1590 N   0  0  0  0  0  0  0  0  0  0  0  0
  191.1230  177.1490  139.9210 C   0  0  0  0  0  0  0  0  0  0  0  0
  186.8780  176.9580  143.7670 C   0  0  0  0  0  2  0  0  0  0  0  0
  186.0090  178.2220  143.8130 C   0  0  1  0  0  3  0  0  0  0  0  0
  184.5540  178.0100  143.3720 C   0  0  2  0  0  3  0  0  0  0  0  0
  184.4840  177.8780  141.9840 O   0  0  0  0  0  1  0  0  0  0  0  0
  184.1690  180.3210  143.8380 O   0  0  0  0  0  0  0  0  0  0  0  0
  183.6960  179.1510  143.8140 C   0  0  0  0  0  0  0  0  0  0  0  0
  181.2750  178.8480  143.4980 C   0  0  0  0  0  0  0  0  0  0  0  0
  181.3030  179.1330  142.0280 C   0  0  0  0  0  1  0  0  0  0  0  0
  182.3500  178.8770  144.2340 N   0  0  0  0  0  0  0  0  0  0  0  0
  179.6680  177.3570  144.4100 O   0  0  0  0  0  0  0  0  0  0  0  0
  179.0990  179.5740  144.4410 O   0  0  0  0  0  1  0  0  0  0  0  0
  179.9850  178.5460  144.1390 C   0  0  0  0  0  0  0  0  0  0  0  0
  186.1430  178.9410  145.0450 O   0  0  0  0  0  0  0  0  0  0  0  0
  185.1580  178.1300  146.9870 O   0  0  0  0  0  0  0  0  0  0  0  0
  186.2010  178.3590  146.3190 C   0  0  0  0  0  0  0  0  0  0  0  0
  188.5550  177.7620  147.3530 C   0  0  0  0  0  0  0  0  0  0  0  0
  187.4800  178.0340  146.8790 C   0  0  0  0  0  0  0  0  0  0  0  0
  189.8400  177.4370  147.9210 C   0  0  0  0  0  3  0  0  0  0  0  0
  190.8590  177.0890  147.1950 N   0  0  0  0  0  0  0  0  0  0  0  0
  191.7370  175.8390  145.2890 C   0  0  0  0  0  1  0  0  0  0  0  0
  190.8330  176.9780  145.7400 C   0  0  2  0  0  3  0  0  0  0  0  0
  191.3130  178.2830  145.1320 C   0  0  0  0  0  2  0  0  0  0  0  0
  190.2560  178.9290  144.4900 O   0  0  0  0  0  1  0  0  0  0  0  0
  188.8860  178.8660  139.6480 O   0  0  0  0  0  0  0  0  0  0  0  0
  188.7230  179.3530  137.3850 O   0  0  0  0  0  0  0  0  0  0  0  0
  188.5180  178.5460  138.3340 C   0  0  0  0  0  0  0  0  0  0  0  0
  186.6740  177.0300  137.7130 N   0  0  0  0  0  0  0  0  0  0  0  0
  187.9030  177.2280  138.0890 C   0  0  0  0  0  3  0  0  0  0  0  0
  185.6970  178.0800  137.4640 C   0  0  0  0  0  2  0  0  0  0  0  0
  184.3150  177.4770  137.2410 C   0  0  2  0  0  3  0  0  0  0  0  0
  182.2240  178.7620  137.2000 N   0  0  0  0  0  2  0  0  0  0  0  0
  181.5760  179.8090  137.9680 C   0  0  1  0  0  3  0  0  0  0  0  0
  183.2210  178.1560  138.0720 C   0  0  2  0  0  3  0  0  0  0  0  0
  183.8860  179.4010  139.2350 S   0  0  0  0  0  0  0  0  0  0  0  0
  182.6490  180.5960  138.6840 C   0  0  0  0  0  2  0  0  0  0  0  0
  180.7910  180.7110  137.0290 C   0  0  0  0  0  2  0  0  0  0  0  0
  178.9310  182.3370  137.0840 C   0  0  0  0  0  1  0  0  0  0  0  0
  180.2110  181.9070  137.7660 C   0  0  2  0  0  3  0  0  0  0  0  0
  181.1170  182.9680  137.7470 O   0  0  0  0  0  1  0  0  0  0  0  0
  184.3520  175.6930  137.5970 S   0  0  0  0  0  0  0  0  0  0  0  0
  181.6040  175.4580  137.1160 C   0  0  0  0  0  0  0  0  0  0  0  0
  179.9370  175.6340  138.8680 C   0  0  0  0  0  3  0  0  0  0  0  0
  180.2660  175.4440  137.5240 C   0  0  0  0  0  3  0  0  0  0  0  0
  182.6220  175.6610  138.0670 C   0  0  0  0  0  0  0  0  0  0  0  0
  180.9460  175.8410  139.8110 C   0  0  0  0  0  3  0  0  0  0  0  0
  182.2840  175.8540  139.4120 C   0  0  0  0  0  3  0  0  0  0  0  0
  181.9660  175.2120  135.4150 Cl  0  0  0  0  0  0  0  0  0  0  0  0
  1  6  1  0  0  0  0
  1  9  1  0  0  0  0
  2  5  1  0  0  0  0
  3  1  2  0  0  0  0
  4  2  2  0  0  0  0
  4  3  1  0  0  0  0
  5  6  2  0  0  0  0
  7  8  3  0  0  0  0
  8  2  1  0  0  0  0
 10  9  1  1  0  0  0
 10 21  1  0  0  0  0
 11 12  1  6  0  0  0
 11 10  1  0  0  0  0
 11 14  1  0  0  0  0
 14 13  2  0  0  0  0
 14 17  1  0  0  0  0
 15 20  1  0  0  0  0
 15 17  2  0  0  0  0
 16 15  1  0  0  0  0
 20 18  2  0  0  0  0
 20 19  1  0  0  0  0
 21 23  1  0  0  0  0
 23 25  1  0  0  0  0
 23 22  2  0  0  0  0
 24 26  1  0  0  0  0
 25 24  3  0  0  0  0
 27 26  2  0  0  0  0
 29 28  1  1  0  0  0
 29 27  1  0  0  0  0
 30 29  1  0  0  0  0
 31 30  1  0  0  0  0
 32  4  1  0  0  0  0
 33 34  2  0  0  0  0
 34 32  1  0  0  0  0
 35 36  2  0  0  0  0
 36 34  1  0  0  0  0
 37 35  1  0  0  0  0
 38 37  1  1  0  0  0
 38 48  1  0  0  0  0
 39 40  1  0  0  0  0
 39 41  1  0  0  0  0
 40 44  1  6  0  0  0
 40 43  1  0  0  0  0
 41 38  1  6  0  0  0
 41 42  1  0  0  0  0
 43 42  1  0  0  0  0
 44 46  1  0  0  0  0
 46 45  1  6  0  0  0
 47 46  1  0  0  0  0
 48 52  1  0  0  0  0
 49 51  2  0  0  0  0
 49 52  1  0  0  0  0
 50 53  2  0  0  0  0
 51 50  1  0  0  0  0
 52 54  2  0  0  0  0
 54 53  1  0  0  0  0
 55 49  1  0  0  0  0
M  END
>  <MODEL>
5

>  <REMARK>
 VINA RESULT:      -6.8      1.895      3.535
  Name = 
  23 active torsions:
  status: ('A' for Active; 'I' for Inactive)
    1  A    between atoms: N_1  and  C_44
    2  A    between atoms: C_3  and  C_40
    3  A    between atoms: CA_4  and  C_51
    4  A    between atoms: C_5  and  C_37
    5  A    between atoms: O_8  and  C_37
    6  A    between atoms: O_8  and  C_47
    7  A    between atoms: S_10  and  C_22
    8  A    between atoms: S_10  and  C_25
    9  A    between atoms: C_11  and  C_12
   10  A    between atoms: C_11  and  C_34
   11  A    between atoms: C_12  and  N_42
   12  A    between atoms: C_13  and  C_27
   13  A    between atoms: C_13  and  C_34
   14  A    between atoms: C_14  and  C_49
   15  A    between atoms: C_18  and  O_38
   16  A    between atoms: C_18  and  C_48
   17  A    between atoms: C_20  and  C_49
   18  A    between atoms: C_22  and  C_26
   19  A    between atoms: C_22  and  C_44
   20  A    between atoms: C_23  and  CA_29
   21  A    between atoms: CA_29  and  N_55
   22  A    between atoms: C_34  and  O_38
   23  A    between atoms: C_36  and  C_54
                            x       y       z     vdW  Elec       q    Type
                         _______ _______ _______ _____ _____    ______ ____

>  <TORSDO>
F 23

$$$$
=
 OpenBabel11062415103D

 55 57  0  0  1  0  0  0  0  0999 V2000
  187.6020  177.3980  143.0770 C   0  0  0  0  0  0  0  0  0  0  0  0
  185.1100  178.5740  143.5760 C   0  0  0  0  0  0  0  0  0  0  0  0
  186.9470  178.1080  142.0680 C   0  0  0  0  0  3  0  0  0  0  0  0
  185.6930  178.6980  142.3020 C   0  0  0  0  0  0  0  0  0  0  0  0
  185.7640  177.8570  144.5830 C   0  0  0  0  0  3  0  0  0  0  0  0
  187.0040  177.2680  144.3340 C   0  0  0  0  0  3  0  0  0  0  0  0
  182.7920  179.6280  144.0850 N   0  0  0  0  0  0  0  0  0  0  0  0
  183.8250  179.1560  143.8590 C   0  0  0  0  0  0  0  0  0  0  0  0
  188.9330  176.7740  142.8170 C   0  0  0  0  0  2  0  0  0  0  0  0
  190.0030  177.7660  142.3440 C   0  0  1  0  0  3  0  0  0  0  0  0
  190.9430  178.2640  143.4500 C   0  0  2  0  0  3  0  0  0  0  0  0
  192.2420  178.3960  142.9570 O   0  0  0  0  0  1  0  0  0  0  0  0
  191.7060  176.3240  144.6150 O   0  0  0  0  0  0  0  0  0  0  0  0
  190.9380  177.3250  144.6130 C   0  0  0  0  0  0  0  0  0  0  0  0
  190.1040  177.1390  146.9190 C   0  0  0  0  0  0  0  0  0  0  0  0
  191.2180  176.2550  147.3850 C   0  0  0  0  0  1  0  0  0  0  0  0
  190.0250  177.5730  145.6930 N   0  0  0  0  0  0  0  0  0  0  0  0
  187.9000  176.9970  147.7930 O   0  0  0  0  0  0  0  0  0  0  0  0
  189.3030  178.4530  148.8650 O   0  0  0  0  0  1  0  0  0  0  0  0
  189.0470  177.5140  147.8730 C   0  0  0  0  0  0  0  0  0  0  0  0
  190.6820  177.3250  141.1610 O   0  0  0  0  0  0  0  0  0  0  0  0
  189.4080  178.3260  139.4950 O   0  0  0  0  0  0  0  0  0  0  0  0
  190.1610  177.3840  139.8610 C   0  0  0  0  0  0  0  0  0  0  0  0
  190.7400  175.4550  138.1560 C   0  0  0  0  0  0  0  0  0  0  0  0
  190.4770  176.3360  138.9350 C   0  0  0  0  0  0  0  0  0  0  0  0
  191.0530  174.3990  137.2240 C   0  0  0  0  0  3  0  0  0  0  0  0
  192.0970  174.4340  136.4520 N   0  0  0  0  0  0  0  0  0  0  0  0
  193.3990  175.8880  134.9840 C   0  0  0  0  0  1  0  0  0  0  0  0
  193.0640  175.5270  136.4230 C   0  0  2  0  0  3  0  0  0  0  0  0
  194.3260  175.0950  137.1480 C   0  0  0  0  0  2  0  0  0  0  0  0
  194.3720  175.6760  138.4160 O   0  0  0  0  0  1  0  0  0  0  0  0
  185.0140  179.4180  141.3010 O   0  0  0  0  0  0  0  0  0  0  0  0
  186.0250  178.7170  139.3340 O   0  0  0  0  0  0  0  0  0  0  0  0
  184.9850  179.1050  139.9350 C   0  0  0  0  0  0  0  0  0  0  0  0
  183.0540  178.2340  138.6730 N   0  0  0  0  0  0  0  0  0  0  0  0
  183.6980  179.2190  139.2260 C   0  0  0  0  0  3  0  0  0  0  0  0
  183.4960  176.8470  138.6670 C   0  0  0  0  0  2  0  0  0  0  0  0
  182.6790  176.0350  137.6670 C   0  0  2  0  0  3  0  0  0  0  0  0
  184.8180  175.4380  136.6210 N   0  0  0  0  0  2  0  0  0  0  0  0
  185.5620  175.7470  135.4150 C   0  0  1  0  0  3  0  0  0  0  0  0
  183.4260  175.7720  136.3550 C   0  0  2  0  0  3  0  0  0  0  0  0
  183.3240  177.1780  135.1880 S   0  0  0  0  0  0  0  0  0  0  0  0
  185.1080  177.1000  134.9190 C   0  0  0  0  0  2  0  0  0  0  0  0
  187.0500  175.7670  135.7290 C   0  0  0  0  0  2  0  0  0  0  0  0
  186.7960  173.5330  134.7050 C   0  0  0  0  0  1  0  0  0  0  0  0
  187.6610  174.3820  135.6110 C   0  0  2  0  0  3  0  0  0  0  0  0
  187.7320  173.7800  136.8680 O   0  0  0  0  0  1  0  0  0  0  0  0
  181.1000  176.8730  137.3300 S   0  0  0  0  0  0  0  0  0  0  0  0
  179.8010  176.6290  139.7980 C   0  0  0  0  0  0  0  0  0  0  0  0
  178.9320  174.5240  140.6300 C   0  0  0  0  0  3  0  0  0  0  0  0
  179.1430  175.8950  140.7910 C   0  0  0  0  0  3  0  0  0  0  0  0
  180.2480  175.9800  138.6310 C   0  0  0  0  0  0  0  0  0  0  0  0
  179.3800  173.8790  139.4760 C   0  0  0  0  0  3  0  0  0  0  0  0
  180.0360  174.6050  138.4790 C   0  0  0  0  0  3  0  0  0  0  0  0
  180.0400  178.3510  140.0460 Cl  0  0  0  0  0  0  0  0  0  0  0  0
  1  6  1  0  0  0  0
  2  8  1  0  0  0  0
  2  5  1  0  0  0  0
  3  4  1  0  0  0  0
  3  1  2  0  0  0  0
  4  2  2  0  0  0  0
  6  5  2  0  0  0  0
  8  7  3  0  0  0  0
  9  1  1  0  0  0  0
 10  9  1  1  0  0  0
 10 11  1  0  0  0  0
 11 12  1  6  0  0  0
 11 14  1  0  0  0  0
 14 13  2  0  0  0  0
 14 17  1  0  0  0  0
 15 16  1  0  0  0  0
 15 20  1  0  0  0  0
 17 15  2  0  0  0  0
 18 20  2  0  0  0  0
 20 19  1  0  0  0  0
 21 10  1  0  0  0  0
 22 23  2  0  0  0  0
 23 21  1  0  0  0  0
 24 25  3  0  0  0  0
 25 23  1  0  0  0  0
 26 24  1  0  0  0  0
 27 26  2  0  0  0  0
 29 28  1  6  0  0  0
 29 27  1  0  0  0  0
 29 30  1  0  0  0  0
 30 31  1  0  0  0  0
 32  4  1  0  0  0  0
 33 34  2  0  0  0  0
 34 32  1  0  0  0  0
 35 36  2  0  0  0  0
 36 34  1  0  0  0  0
 37 35  1  0  0  0  0
 38 37  1  1  0  0  0
 40 44  1  1  0  0  0
 40 39  1  0  0  0  0
 41 39  1  0  0  0  0
 41 38  1  1  0  0  0
 42 41  1  0  0  0  0
 43 42  1  0  0  0  0
 43 40  1  0  0  0  0
 46 45  1  6  0  0  0
 46 44  1  0  0  0  0
 46 47  1  0  0  0  0
 48 38  1  0  0  0  0
 48 52  1  0  0  0  0
 49 55  1  0  0  0  0
 49 51  1  0  0  0  0
 50 51  2  0  0  0  0
 52 49  2  0  0  0  0
 53 50  1  0  0  0  0
 54 52  1  0  0  0  0
 54 53  2  0  0  0  0
M  END
>  <MODEL>
6

>  <REMARK>
 VINA RESULT:      -6.7      2.488      6.576
  Name = 
  23 active torsions:
  status: ('A' for Active; 'I' for Inactive)
    1  A    between atoms: N_1  and  C_44
    2  A    between atoms: C_3  and  C_40
    3  A    between atoms: CA_4  and  C_51
    4  A    between atoms: C_5  and  C_37
    5  A    between atoms: O_8  and  C_37
    6  A    between atoms: O_8  and  C_47
    7  A    between atoms: S_10  and  C_22
    8  A    between atoms: S_10  and  C_25
    9  A    between atoms: C_11  and  C_12
   10  A    between atoms: C_11  and  C_34
   11  A    between atoms: C_12  and  N_42
   12  A    between atoms: C_13  and  C_27
   13  A    between atoms: C_13  and  C_34
   14  A    between atoms: C_14  and  C_49
   15  A    between atoms: C_18  and  O_38
   16  A    between atoms: C_18  and  C_48
   17  A    between atoms: C_20  and  C_49
   18  A    between atoms: C_22  and  C_26
   19  A    between atoms: C_22  and  C_44
   20  A    between atoms: C_23  and  CA_29
   21  A    between atoms: CA_29  and  N_55
   22  A    between atoms: C_34  and  O_38
   23  A    between atoms: C_36  and  C_54
                            x       y       z     vdW  Elec       q    Type
                         _______ _______ _______ _____ _____    ______ ____

>  <TORSDO>
F 23

$$$$
=
 OpenBabel11062415103D

 55 57  0  0  1  0  0  0  0  0999 V2000
  191.6550  176.8250  139.4690 C   0  0  0  0  0  0  0  0  0  0  0  0
  192.3360  174.9800  137.4760 C   0  0  0  0  0  0  0  0  0  0  0  0
  190.6880  175.9540  138.9610 C   0  0  0  0  0  3  0  0  0  0  0  0
  191.0140  175.0270  137.9560 C   0  0  0  0  0  0  0  0  0  0  0  0
  193.2990  175.8580  137.9810 C   0  0  0  0  0  3  0  0  0  0  0  0
  192.9600  176.7810  138.9710 C   0  0  0  0  0  3  0  0  0  0  0  0
  193.0130  173.3040  135.6120 N   0  0  0  0  0  0  0  0  0  0  0  0
  192.7130  174.0520  136.4430 C   0  0  0  0  0  0  0  0  0  0  0  0
  191.2980  177.8080  140.5350 C   0  0  0  0  0  2  0  0  0  0  0  0
  190.0800  177.3990  141.3740 C   0  0  1  0  0  3  0  0  0  0  0  0
  190.4220  176.7150  142.7040 C   0  0  2  0  0  3  0  0  0  0  0  0
  189.3640  175.9030  143.1160 O   0  0  0  0  0  1  0  0  0  0  0  0
  191.6990  178.5130  143.6210 O   0  0  0  0  0  0  0  0  0  0  0  0
  190.7190  177.7300  143.7600 C   0  0  0  0  0  0  0  0  0  0  0  0
  190.1540  177.2740  146.1100 C   0  0  0  0  0  0  0  0  0  0  0  0
  191.4290  176.5480  146.4080 C   0  0  0  0  0  1  0  0  0  0  0  0
  189.8900  177.7650  144.9320 N   0  0  0  0  0  0  0  0  0  0  0  0
  188.0410  176.8290  147.0990 O   0  0  0  0  0  0  0  0  0  0  0  0
  189.4200  178.2200  148.2830 O   0  0  0  0  0  1  0  0  0  0  0  0
  189.1520  177.4190  147.1790 C   0  0  0  0  0  0  0  0  0  0  0  0
  189.1130  178.4510  141.4940 O   0  0  0  0  0  0  0  0  0  0  0  0
  187.9620  178.6110  139.4820 O   0  0  0  0  0  0  0  0  0  0  0  0
  187.9360  178.5570  140.7410 C   0  0  0  0  0  0  0  0  0  0  0  0
  185.6170  178.6840  141.9930 C   0  0  0  0  0  0  0  0  0  0  0  0
  186.6750  178.6250  141.4210 C   0  0  0  0  0  0  0  0  0  0  0  0
  184.3500  178.7560  142.6800 C   0  0  0  0  0  3  0  0  0  0  0  0
  184.2540  178.7430  143.9750 N   0  0  0  0  0  0  0  0  0  0  0  0
  186.1900  177.3850  144.5890 C   0  0  0  0  0  1  0  0  0  0  0  0
  185.3930  178.6480  144.8840 C   0  0  2  0  0  3  0  0  0  0  0  0
  184.8860  178.6110  146.3140 C   0  0  0  0  0  2  0  0  0  0  0  0
  185.6990  179.3990  147.1300 O   0  0  0  0  0  1  0  0  0  0  0  0
  190.0580  174.1390  137.4290 O   0  0  0  0  0  0  0  0  0  0  0  0
  189.0650  173.4650  135.4440 O   0  0  0  0  0  0  0  0  0  0  0  0
  189.2510  174.3680  136.3060 C   0  0  0  0  0  0  0  0  0  0  0  0
  187.4020  175.9780  136.5740 N   0  0  0  0  0  0  0  0  0  0  0  0
  188.6050  175.6860  136.1740 C   0  0  0  0  0  3  0  0  0  0  0  0
  186.4900  175.0480  137.2240 C   0  0  0  0  0  2  0  0  0  0  0  0
  185.1280  175.0740  136.5390 C   0  0  2  0  0  3  0  0  0  0  0  0
  183.8780  176.8250  137.7190 N   0  0  0  0  0  2  0  0  0  0  0  0
  182.8940  177.8490  137.4200 C   0  0  1  0  0  3  0  0  0  0  0  0
  184.5220  176.4790  136.4600 C   0  0  2  0  0  3  0  0  0  0  0  0
  183.3440  176.6660  135.0730 S   0  0  0  0  0  0  0  0  0  0  0  0
  182.1370  177.4220  136.1830 C   0  0  0  0  0  2  0  0  0  0  0  0
  181.9450  177.9980  138.5980 C   0  0  0  0  0  2  0  0  0  0  0  0
  183.3280  179.9840  139.0990 C   0  0  0  0  0  1  0  0  0  0  0  0
  181.9220  179.4270  139.1130 C   0  0  2  0  0  3  0  0  0  0  0  0
  181.4310  179.4590  140.4200 O   0  0  0  0  0  1  0  0  0  0  0  0
  183.9830  173.9470  137.3930 S   0  0  0  0  0  0  0  0  0  0  0  0
  183.3550  171.9040  135.5840 C   0  0  0  0  0  0  0  0  0  0  0  0
  185.0280  170.4540  134.5970 C   0  0  0  0  0  3  0  0  0  0  0  0
  183.6940  170.8430  134.7380 C   0  0  0  0  0  3  0  0  0  0  0  0
  184.3640  172.5830  136.2920 C   0  0  0  0  0  0  0  0  0  0  0  0
  186.0290  171.1230  135.3030 C   0  0  0  0  0  3  0  0  0  0  0  0
  185.6980  172.1850  136.1480 C   0  0  0  0  0  3  0  0  0  0  0  0
  181.6640  172.3570  135.7260 Cl  0  0  0  0  0  0  0  0  0  0  0  0
  1  9  1  0  0  0  0
  2  4  2  0  0  0  0
  2  5  1  0  0  0  0
  3  1  2  0  0  0  0
  4  3  1  0  0  0  0
  5  6  2  0  0  0  0
  6  1  1  0  0  0  0
  7  8  3  0  0  0  0
  8  2  1  0  0  0  0
 10  9  1  1  0  0  0
 10 21  1  0  0  0  0
 10 11  1  0  0  0  0
 11 12  1  1  0  0  0
 11 14  1  0  0  0  0
 13 14  2  0  0  0  0
 14 17  1  0  0  0  0
 15 16  1  0  0  0  0
 15 20  1  0  0  0  0
 17 15  2  0  0  0  0
 18 20  2  0  0  0  0
 20 19  1  0  0  0  0
 22 23  2  0  0  0  0
 23 25  1  0  0  0  0
 23 21  1  0  0  0  0
 24 26  1  0  0  0  0
 25 24  3  0  0  0  0
 26 27  2  0  0  0  0
 27 29  1  0  0  0  0
 29 28  1  6  0  0  0
 29 30  1  0  0  0  0
 30 31  1  0  0  0  0
 32  4  1  0  0  0  0
 33 34  2  0  0  0  0
 34 32  1  0  0  0  0
 35 37  1  0  0  0  0
 36 34  1  0  0  0  0
 36 35  2  0  0  0  0
 38 37  1  1  0  0  0
 38 48  1  0  0  0  0
 40 39  1  0  0  0  0
 40 44  1  1  0  0  0
 41 38  1  1  0  0  0
 41 39  1  0  0  0  0
 42 43  1  0  0  0  0
 42 41  1  0  0  0  0
 43 40  1  0  0  0  0
 44 46  1  0  0  0  0
 46 45  1  1  0  0  0
 46 47  1  0  0  0  0
 49 55  1  0  0  0  0
 49 52  1  0  0  0  0
 50 51  1  0  0  0  0
 50 53  2  0  0  0  0
 51 49  2  0  0  0  0
 52 48  1  0  0  0  0
 53 54  1  0  0  0  0
 54 52  2  0  0  0  0
M  END
>  <MODEL>
7

>  <REMARK>
 VINA RESULT:      -6.4      2.538      6.510
  Name = 
  23 active torsions:
  status: ('A' for Active; 'I' for Inactive)
    1  A    between atoms: N_1  and  C_44
    2  A    between atoms: C_3  and  C_40
    3  A    between atoms: CA_4  and  C_51
    4  A    between atoms: C_5  and  C_37
    5  A    between atoms: O_8  and  C_37
    6  A    between atoms: O_8  and  C_47
    7  A    between atoms: S_10  and  C_22
    8  A    between atoms: S_10  and  C_25
    9  A    between atoms: C_11  and  C_12
   10  A    between atoms: C_11  and  C_34
   11  A    between atoms: C_12  and  N_42
   12  A    between atoms: C_13  and  C_27
   13  A    between atoms: C_13  and  C_34
   14  A    between atoms: C_14  and  C_49
   15  A    between atoms: C_18  and  O_38
   16  A    between atoms: C_18  and  C_48
   17  A    between atoms: C_20  and  C_49
   18  A    between atoms: C_22  and  C_26
   19  A    between atoms: C_22  and  C_44
   20  A    between atoms: C_23  and  CA_29
   21  A    between atoms: CA_29  and  N_55
   22  A    between atoms: C_34  and  O_38
   23  A    between atoms: C_36  and  C_54
                            x       y       z     vdW  Elec       q    Type
                         _______ _______ _______ _____ _____    ______ ____

>  <TORSDO>
F 23

$$$$
=
 OpenBabel11062415103D

 55 57  0  0  1  0  0  0  0  0999 V2000
  187.4310  177.2250  143.4720 C   0  0  0  0  0  0  0  0  0  0  0  0
  185.0680  178.6950  143.7790 C   0  0  0  0  0  0  0  0  0  0  0  0
  186.8980  177.9280  142.3890 C   0  0  0  0  0  3  0  0  0  0  0  0
  185.7090  178.6650  142.5270 C   0  0  0  0  0  0  0  0  0  0  0  0
  185.6000  177.9840  144.8590 C   0  0  0  0  0  3  0  0  0  0  0  0
  186.7760  177.2490  144.7060 C   0  0  0  0  0  3  0  0  0  0  0  0
  182.8610  180.0220  144.1110 N   0  0  0  0  0  0  0  0  0  0  0  0
  183.8460  179.4310  143.9650 C   0  0  0  0  0  0  0  0  0  0  0  0
  188.6940  176.4440  143.3140 C   0  0  0  0  0  2  0  0  0  0  0  0
  189.8430  177.2410  142.6840 C   0  0  1  0  0  3  0  0  0  0  0  0
  190.9830  177.5880  143.6510 C   0  0  2  0  0  3  0  0  0  0  0  0
  192.0180  178.2280  142.9670 O   0  0  0  0  0  1  0  0  0  0  0  0
  191.4680  175.2500  143.7130 O   0  0  0  0  0  0  0  0  0  0  0  0
  191.5050  176.3570  144.3180 C   0  0  0  0  0  0  0  0  0  0  0  0
  191.3300  176.6290  146.7570 C   0  0  0  0  0  0  0  0  0  0  0  0
  189.8380  176.7570  146.7630 C   0  0  0  0  0  1  0  0  0  0  0  0
  192.0110  176.4630  145.6580 N   0  0  0  0  0  0  0  0  0  0  0  0
  192.8350  175.7940  148.3920 O   0  0  0  0  0  0  0  0  0  0  0  0
  191.8790  177.8190  148.8630 O   0  0  0  0  0  1  0  0  0  0  0  0
  192.0560  176.7180  148.0340 C   0  0  0  0  0  0  0  0  0  0  0  0
  190.2870  176.6820  141.4410 O   0  0  0  0  0  0  0  0  0  0  0  0
  189.3230  178.2470  140.0190 O   0  0  0  0  0  0  0  0  0  0  0  0
  189.9280  177.1520  140.1700 C   0  0  0  0  0  0  0  0  0  0  0  0
  190.4980  175.6870  138.0500 C   0  0  0  0  0  0  0  0  0  0  0  0
  190.2390  176.3560  139.0180 C   0  0  0  0  0  0  0  0  0  0  0  0
  190.8060  174.8860  136.8900 C   0  0  0  0  0  3  0  0  0  0  0  0
  189.9120  174.1760  136.2720 N   0  0  0  0  0  0  0  0  0  0  0  0
  188.0820  172.6360  136.7660 C   0  0  0  0  0  1  0  0  0  0  0  0
  188.5090  174.0930  136.6680 C   0  0  2  0  0  3  0  0  0  0  0  0
  187.6570  174.8070  135.6350 C   0  0  0  0  0  2  0  0  0  0  0  0
  188.4420  175.6940  134.8980 O   0  0  0  0  0  1  0  0  0  0  0  0
  185.1520  179.3820  141.4520 O   0  0  0  0  0  0  0  0  0  0  0  0
  184.4060  179.2890  139.2570 O   0  0  0  0  0  0  0  0  0  0  0  0
  184.3400  178.8520  140.4400 C   0  0  0  0  0  0  0  0  0  0  0  0
  182.8560  176.9450  139.9440 N   0  0  0  0  0  0  0  0  0  0  0  0
  183.4220  177.7530  140.7920 C   0  0  0  0  0  3  0  0  0  0  0  0
  183.0380  176.9880  138.5010 C   0  0  0  0  0  2  0  0  0  0  0  0
  181.7050  177.2390  137.8050 C   0  0  2  0  0  3  0  0  0  0  0  0
  181.7220  174.7850  137.8440 N   0  0  0  0  0  2  0  0  0  0  0  0
  181.4290  173.6810  136.9490 C   0  0  1  0  0  3  0  0  0  0  0  0
  181.0330  175.9530  137.3120 C   0  0  2  0  0  3  0  0  0  0  0  0
  180.9400  175.8570  135.4880 S   0  0  0  0  0  0  0  0  0  0  0  0
  181.5930  174.1740  135.5300 C   0  0  0  0  0  2  0  0  0  0  0  0
  182.3880  172.5350  137.2280 C   0  0  0  0  0  2  0  0  0  0  0  0
  184.2130  171.3360  136.0720 C   0  0  0  0  0  1  0  0  0  0  0  0
  183.6880  172.7010  136.4600 C   0  0  2  0  0  3  0  0  0  0  0  0
  184.6370  173.3460  137.2560 O   0  0  0  0  0  1  0  0  0  0  0  0
  181.9360  178.3940  136.4190 S   0  0  0  0  0  0  0  0  0  0  0  0
  180.6860  180.8910  136.6280 C   0  0  0  0  0  0  0  0  0  0  0  0
  179.9600  181.8310  138.7410 C   0  0  0  0  0  3  0  0  0  0  0  0
  180.0880  181.9260  137.3540 C   0  0  0  0  0  3  0  0  0  0  0  0
  181.1570  179.7480  137.3010 C   0  0  0  0  0  0  0  0  0  0  0  0
  180.4320  180.7000  139.4100 C   0  0  0  0  0  3  0  0  0  0  0  0
  181.0290  179.6610  138.6920 C   0  0  0  0  0  3  0  0  0  0  0  0
  180.8220  181.0570  134.8850 Cl  0  0  0  0  0  0  0  0  0  0  0  0
  1  6  1  0  0  0  0
  2  8  1  0  0  0  0
  2  5  1  0  0  0  0
  3  4  1  0  0  0  0
  3  1  2  0  0  0  0
  4  2  2  0  0  0  0
  6  5  2  0  0  0  0
  8  7  3  0  0  0  0
  9  1  1  0  0  0  0
 10  9  1  1  0  0  0
 10 11  1  0  0  0  0
 11 12  1  6  0  0  0
 11 14  1  0  0  0  0
 13 14  2  0  0  0  0
 14 17  1  0  0  0  0
 15 16  1  0  0  0  0
 15 20  1  0  0  0  0
 17 15  2  0  0  0  0
 20 18  2  0  0  0  0
 20 19  1  0  0  0  0
 21 10  1  0  0  0  0
 22 23  2  0  0  0  0
 23 21  1  0  0  0  0
 24 25  3  0  0  0  0
 25 23  1  0  0  0  0
 26 24  1  0  0  0  0
 27 29  1  0  0  0  0
 27 26  2  0  0  0  0
 29 28  1  6  0  0  0
 30 29  1  0  0  0  0
 31 30  1  0  0  0  0
 32  4  1  0  0  0  0
 33 34  2  0  0  0  0
 34 36  1  0  0  0  0
 34 32  1  0  0  0  0
 35 36  2  0  0  0  0
 37 35  1  0  0  0  0
 38 37  1  6  0  0  0
 40 44  1  1  0  0  0
 40 39  1  0  0  0  0
 41 38  1  6  0  0  0
 41 39  1  0  0  0  0
 42 43  1  0  0  0  0
 42 41  1  0  0  0  0
 43 40  1  0  0  0  0
 46 45  1  1  0  0  0
 46 44  1  0  0  0  0
 46 47  1  0  0  0  0
 48 52  1  0  0  0  0
 48 38  1  0  0  0  0
 49 52  2  0  0  0  0
 49 51  1  0  0  0  0
 50 53  1  0  0  0  0
 51 50  2  0  0  0  0
 52 54  1  0  0  0  0
 54 53  2  0  0  0  0
 55 49  1  0  0  0  0
M  END
>  <MODEL>
8

>  <REMARK>
 VINA RESULT:      -6.2      2.656      7.225
  Name = 
  23 active torsions:
  status: ('A' for Active; 'I' for Inactive)
    1  A    between atoms: N_1  and  C_44
    2  A    between atoms: C_3  and  C_40
    3  A    between atoms: CA_4  and  C_51
    4  A    between atoms: C_5  and  C_37
    5  A    between atoms: O_8  and  C_37
    6  A    between atoms: O_8  and  C_47
    7  A    between atoms: S_10  and  C_22
    8  A    between atoms: S_10  and  C_25
    9  A    between atoms: C_11  and  C_12
   10  A    between atoms: C_11  and  C_34
   11  A    between atoms: C_12  and  N_42
   12  A    between atoms: C_13  and  C_27
   13  A    between atoms: C_13  and  C_34
   14  A    between atoms: C_14  and  C_49
   15  A    between atoms: C_18  and  O_38
   16  A    between atoms: C_18  and  C_48
   17  A    between atoms: C_20  and  C_49
   18  A    between atoms: C_22  and  C_26
   19  A    between atoms: C_22  and  C_44
   20  A    between atoms: C_23  and  CA_29
   21  A    between atoms: CA_29  and  N_55
   22  A    between atoms: C_34  and  O_38
   23  A    between atoms: C_36  and  C_54
                            x       y       z     vdW  Elec       q    Type
                         _______ _______ _______ _____ _____    ______ ____

>  <TORSDO>
F 23

$$$$
=
 OpenBabel11062415103D

 55 57  0  0  1  0  0  0  0  0999 V2000
  188.0120  178.2420  141.3240 C   0  0  0  0  0  0  0  0  0  0  0  0
  187.8680  177.6500  138.5910 C   0  0  0  0  0  0  0  0  0  0  0  0
  186.8710  178.5810  140.5930 C   0  0  0  0  0  3  0  0  0  0  0  0
  186.7870  178.2950  139.2190 C   0  0  0  0  0  0  0  0  0  0  0  0
  189.0120  177.3180  139.3240 C   0  0  0  0  0  3  0  0  0  0  0  0
  189.0860  177.6160  140.6850 C   0  0  0  0  0  3  0  0  0  0  0  0
  187.7990  177.0940  136.0560 N   0  0  0  0  0  0  0  0  0  0  0  0
  187.8300  177.3440  137.1860 C   0  0  0  0  0  0  0  0  0  0  0  0
  188.0910  178.5520  142.7830 C   0  0  0  0  0  2  0  0  0  0  0  0
  189.1200  177.7040  143.5430 C   0  0  1  0  0  3  0  0  0  0  0  0
  190.2460  178.5100  144.2030 C   0  0  2  0  0  3  0  0  0  0  0  0
  190.5790  179.6110  143.4110 O   0  0  0  0  0  1  0  0  0  0  0  0
  192.0620  177.1710  143.4200 O   0  0  0  0  0  0  0  0  0  0  0  0
  191.4550  177.6570  144.4130 C   0  0  0  0  0  0  0  0  0  0  0  0
  192.0420  176.2210  146.3230 C   0  0  0  0  0  0  0  0  0  0  0  0
  191.7780  174.9370  145.6000 C   0  0  0  0  0  1  0  0  0  0  0  0
  191.8780  177.3840  145.7590 N   0  0  0  0  0  0  0  0  0  0  0  0
  193.2650  175.2630  148.1190 O   0  0  0  0  0  0  0  0  0  0  0  0
  192.0260  177.1170  148.6350 O   0  0  0  0  0  1  0  0  0  0  0  0
  192.4820  176.1700  147.7260 C   0  0  0  0  0  0  0  0  0  0  0  0
  188.5090  176.7420  144.4120 O   0  0  0  0  0  0  0  0  0  0  0  0
  188.9550  176.6480  146.6910 O   0  0  0  0  0  0  0  0  0  0  0  0
  188.1730  176.9640  145.7550 C   0  0  0  0  0  0  0  0  0  0  0  0
  185.8310  178.0340  146.3330 C   0  0  0  0  0  0  0  0  0  0  0  0
  186.9010  177.5470  146.0690 C   0  0  0  0  0  0  0  0  0  0  0  0
  184.5500  178.6160  146.6500 C   0  0  0  0  0  3  0  0  0  0  0  0
  183.7050  178.9900  145.7370 N   0  0  0  0  0  0  0  0  0  0  0  0
  184.7070  180.0960  143.8030 C   0  0  0  0  0  1  0  0  0  0  0  0
  183.9430  178.8780  144.3010 C   0  0  2  0  0  3  0  0  0  0  0  0
  182.6090  178.7830  143.5820 C   0  0  0  0  0  2  0  0  0  0  0  0
  182.8150  178.6490  142.2080 O   0  0  0  0  0  1  0  0  0  0  0  0
  185.6490  178.6260  138.4610 O   0  0  0  0  0  0  0  0  0  0  0  0
  184.0490  180.1730  139.1170 O   0  0  0  0  0  0  0  0  0  0  0  0
  184.3880  178.9660  138.9710 C   0  0  0  0  0  0  0  0  0  0  0  0
  182.3830  177.5680  138.6460 N   0  0  0  0  0  0  0  0  0  0  0  0
  183.4600  177.8710  139.3080 C   0  0  0  0  0  3  0  0  0  0  0  0
  181.9140  178.2580  137.4530 C   0  0  0  0  0  2  0  0  0  0  0  0
  180.3940  178.1780  137.3560 C   0  0  2  0  0  3  0  0  0  0  0  0
  180.3530  180.6250  137.1610 N   0  0  0  0  0  2  0  0  0  0  0  0
  180.0410  181.7760  137.9860 C   0  0  1  0  0  3  0  0  0  0  0  0
  179.6960  179.4770  137.7730 C   0  0  2  0  0  3  0  0  0  0  0  0
  179.6150  179.6870  139.5880 S   0  0  0  0  0  0  0  0  0  0  0  0
  180.2280  181.3790  139.4320 C   0  0  0  0  0  2  0  0  0  0  0  0
  180.9700  182.9240  137.6250 C   0  0  0  0  0  2  0  0  0  0  0  0
  180.8520  184.3610  135.6190 C   0  0  0  0  0  1  0  0  0  0  0  0
  180.2150  184.0600  136.9580 C   0  0  2  0  0  3  0  0  0  0  0  0
  180.2680  185.2050  137.7560 O   0  0  0  0  0  1  0  0  0  0  0  0
  179.7820  176.7900  138.3610 S   0  0  0  0  0  0  0  0  0  0  0  0
  179.9440  174.2400  137.2160 C   0  0  0  0  0  0  0  0  0  0  0  0
  180.1330  173.8750  134.8270 C   0  0  0  0  0  3  0  0  0  0  0  0
  180.0520  173.3700  136.1270 C   0  0  0  0  0  3  0  0  0  0  0  0
  179.9140  175.6310  136.9990 C   0  0  0  0  0  0  0  0  0  0  0  0
  180.1080  175.2540  134.6110 C   0  0  0  0  0  3  0  0  0  0  0  0
  179.9990  176.1300  135.6940 C   0  0  0  0  0  3  0  0  0  0  0  0
  179.8430  173.5560  138.8310 Cl  0  0  0  0  0  0  0  0  0  0  0  0
  1  9  1  0  0  0  0
  2  4  2  0  0  0  0
  2  5  1  0  0  0  0
  3  1  2  0  0  0  0
  4  3  1  0  0  0  0
  5  6  2  0  0  0  0
  6  1  1  0  0  0  0
  7  8  3  0  0  0  0
  8  2  1  0  0  0  0
 10  9  1  1  0  0  0
 10 11  1  0  0  0  0
 10 21  1  0  0  0  0
 11 12  1  6  0  0  0
 11 14  1  0  0  0  0
 13 14  2  0  0  0  0
 14 17  1  0  0  0  0
 15 20  1  0  0  0  0
 16 15  1  0  0  0  0
 17 15  2  0  0  0  0
 20 18  2  0  0  0  0
 20 19  1  0  0  0  0
 21 23  1  0  0  0  0
 23 25  1  0  0  0  0
 23 22  2  0  0  0  0
 24 26  1  0  0  0  0
 25 24  3  0  0  0  0
 27 26  2  0  0  0  0
 29 28  1  6  0  0  0
 29 27  1  0  0  0  0
 30 29  1  0  0  0  0
 31 30  1  0  0  0  0
 32 34  1  0  0  0  0
 32  4  1  0  0  0  0
 34 33  2  0  0  0  0
 34 36  1  0  0  0  0
 35 36  2  0  0  0  0
 37 35  1  0  0  0  0
 38 37  1  1  0  0  0
 38 48  1  0  0  0  0
 39 41  1  0  0  0  0
 39 40  1  0  0  0  0
 40 44  1  6  0  0  0
 40 43  1  0  0  0  0
 41 38  1  1  0  0  0
 41 42  1  0  0  0  0
 43 42  1  0  0  0  0
 46 45  1  6  0  0  0
 46 44  1  0  0  0  0
 46 47  1  0  0  0  0
 49 55  1  0  0  0  0
 50 51  1  0  0  0  0
 51 49  2  0  0  0  0
 52 49  1  0  0  0  0
 52 48  1  0  0  0  0
 53 50  2  0  0  0  0
 53 54  1  0  0  0  0
 54 52  2  0  0  0  0
M  END
>  <MODEL>
9

>  <REMARK>
 VINA RESULT:      -6.2      3.207      7.295
  Name = 
  23 active torsions:
  status: ('A' for Active; 'I' for Inactive)
    1  A    between atoms: N_1  and  C_44
    2  A    between atoms: C_3  and  C_40
    3  A    between atoms: CA_4  and  C_51
    4  A    between atoms: C_5  and  C_37
    5  A    between atoms: O_8  and  C_37
    6  A    between atoms: O_8  and  C_47
    7  A    between atoms: S_10  and  C_22
    8  A    between atoms: S_10  and  C_25
    9  A    between atoms: C_11  and  C_12
   10  A    between atoms: C_11  and  C_34
   11  A    between atoms: C_12  and  N_42
   12  A    between atoms: C_13  and  C_27
   13  A    between atoms: C_13  and  C_34
   14  A    between atoms: C_14  and  C_49
   15  A    between atoms: C_18  and  O_38
   16  A    between atoms: C_18  and  C_48
   17  A    between atoms: C_20  and  C_49
   18  A    between atoms: C_22  and  C_26
   19  A    between atoms: C_22  and  C_44
   20  A    between atoms: C_23  and  CA_29
   21  A    between atoms: CA_29  and  N_55
   22  A    between atoms: C_34  and  O_38
   23  A    between atoms: C_36  and  C_54
                            x       y       z     vdW  Elec       q    Type
                         _______ _______ _______ _____ _____    ______ ____

>  <TORSDO>
F 23

$$$$
