=
 OpenBabel11062415443D

 27 29  0  0  1  0  0  0  0  0999 V2000
  186.0080  178.6240  141.1360 C   0  0  0  0  0  0  0  0  0  0  0  0
  184.8960  178.9180  143.2420 C   0  0  0  0  0  0  0  0  0  0  0  0
  186.0040  178.1360  145.2600 C   0  0  0  0  0  0  0  0  0  0  0  0
  187.0770  177.8700  143.0780 C   0  0  0  0  0  0  0  0  0  0  0  0
  188.1870  177.2520  143.7010 C   0  0  0  0  0  0  0  0  0  0  0  0
  184.8410  178.6130  146.0350 C   0  0  0  0  0  0  0  0  0  0  0  0
  184.9030  179.0790  141.8590 C   0  0  0  0  0  3  0  0  0  0  0  0
  183.7510  179.3830  144.0500 C   0  0  0  0  0  3  0  0  0  0  0  0
  186.0330  178.7610  139.8850 O   0  0  0  0  0  0  0  0  0  0  0  0
  184.8000  178.4840  147.2880 O   0  0  0  0  0  0  0  0  0  0  0  0
  185.9920  178.3080  143.8680 C   0  0  0  0  0  0  0  0  0  0  0  0
  183.7460  179.2320  145.3430 N   0  0  0  0  0  0  0  0  0  0  0  0
  187.1010  177.5260  145.8710 C   0  0  0  0  0  3  0  0  0  0  0  0
  187.0350  178.0470  141.7570 O   0  0  0  0  0  0  0  0  0  0  0  0
  188.1790  177.0890  145.0970 C   0  0  0  0  0  3  0  0  0  0  0  0
  189.5810  175.5260  142.8470 O   0  0  0  0  0  0  0  0  0  0  0  0
  190.2640  177.6800  142.3120 N   0  0  0  0  0  2  0  0  0  0  0  0
  189.3660  176.7650  142.9410 C   0  0  0  0  0  0  0  0  0  0  0  0
  191.3780  177.2250  141.5940 N   0  0  0  0  0  2  0  0  0  0  0  0
  191.1810  177.6380  140.2150 C   0  0  0  0  0  2  0  0  0  0  0  0
  190.4190  176.5630  139.4480 C   0  0  2  0  0  3  0  0  0  0  0  0
  191.2530  176.0750  138.2630 C   0  0  1  0  0  3  0  0  0  0  0  0
  192.7010  176.5120  138.4090 C   0  0  0  0  0  1  0  0  0  0  0  0
  191.2140  174.6810  138.1860 O   0  0  0  0  0  1  0  0  0  0  0  0
  189.0920  177.1320  138.9510 C   0  0  0  0  0  2  0  0  0  0  0  0
  189.1480  178.6470  138.8300 C   0  0  0  0  0  2  0  0  0  0  0  0
  188.5730  179.0500  137.6260 O   0  0  0  0  0  1  0  0  0  0  0  0
  1 14  1  0  0  0  0
  1  7  1  0  0  0  0
  2 11  1  0  0  0  0
  2  8  1  0  0  0  0
  3 13  1  0  0  0  0
  3  6  1  0  0  0  0
  4  5  2  0  0  0  0
  4 11  1  0  0  0  0
  5 15  1  0  0  0  0
  6 10  2  0  0  0  0
  7  2  2  0  0  0  0
  8 12  2  0  0  0  0
  9  1  2  0  0  0  0
 11  3  2  0  0  0  0
 12  6  1  0  0  0  0
 14  4  1  0  0  0  0
 15 13  2  0  0  0  0
 16 18  2  0  0  0  0
 17 18  1  0  0  0  0
 18  5  1  0  0  0  0
 19 17  1  0  0  0  0
 20 19  1  0  0  0  0
 21 25  1  6  0  0  0
 21 20  1  0  0  0  0
 22 23  1  1  0  0  0
 22 21  1  0  0  0  0
 24 22  1  0  0  0  0
 26 25  1  0  0  0  0
 27 26  1  0  0  0  0
M  END
>  <MODEL>
1

>  <REMARK>
 VINA RESULT:      -8.7      0.000      0.000
  Name = 
  7 active torsions:
  status: ('A' for Active; 'I' for Inactive)
    1  A    between atoms: C_3  and  C_25
    2  A    between atoms: C_4  and  C_14
    3  A    between atoms: N_5  and  N_18
    4  A    between atoms: N_5  and  C_22
    5  A    between atoms: C_9  and  C_19
    6  A    between atoms: C_14  and  C_25
    7  A    between atoms: C_22  and  C_25
                            x       y       z     vdW  Elec       q    Type
                         _______ _______ _______ _____ _____    ______ ____

>  <TORSDO>
F 7

$$$$
=
 OpenBabel11062415443D

 27 29  0  0  1  0  0  0  0  0999 V2000
  188.0630  177.4930  143.1460 C   0  0  0  0  0  0  0  0  0  0  0  0
  190.0130  176.8680  144.3970 C   0  0  0  0  0  0  0  0  0  0  0  0
  190.0000  177.1920  146.8070 C   0  0  0  0  0  0  0  0  0  0  0  0
  188.0490  177.8060  145.4670 C   0  0  0  0  0  0  0  0  0  0  0  0
  187.3800  178.2330  146.6380 C   0  0  0  0  0  0  0  0  0  0  0  0
  191.3700  176.6420  146.8480 C   0  0  0  0  0  0  0  0  0  0  0  0
  189.3590  176.9710  143.1720 C   0  0  0  0  0  3  0  0  0  0  0  0
  191.3830  176.3230  144.4770 C   0  0  0  0  0  3  0  0  0  0  0  0
  187.4550  177.5940  142.0480 O   0  0  0  0  0  0  0  0  0  0  0  0
  191.9930  176.5340  147.9370 O   0  0  0  0  0  0  0  0  0  0  0  0
  189.3580  177.2870  145.5630 C   0  0  0  0  0  0  0  0  0  0  0  0
  191.9940  176.2270  145.6230 N   0  0  0  0  0  0  0  0  0  0  0  0
  189.3370  177.6140  147.9610 C   0  0  0  0  0  3  0  0  0  0  0  0
  187.4660  177.8850  144.2700 O   0  0  0  0  0  0  0  0  0  0  0  0
  188.0420  178.1290  147.8740 C   0  0  0  0  0  3  0  0  0  0  0  0
  185.6570  179.6300  147.4920 O   0  0  0  0  0  0  0  0  0  0  0  0
  185.0600  178.3850  145.6260 N   0  0  0  0  0  2  0  0  0  0  0  0
  186.0040  178.7880  146.6200 C   0  0  0  0  0  0  0  0  0  0  0  0
  183.7600  178.9060  145.6050 N   0  0  0  0  0  2  0  0  0  0  0  0
  183.5920  179.5510  144.3140 C   0  0  0  0  0  2  0  0  0  0  0  0
  183.0320  178.5600  143.3000 C   0  0  2  0  0  3  0  0  0  0  0  0
  183.9840  178.4320  142.1110 C   0  0  1  0  0  3  0  0  0  0  0  0
  183.2080  178.3530  140.8070 C   0  0  0  0  0  1  0  0  0  0  0  0
  184.8390  179.5350  142.0540 O   0  0  0  0  0  1  0  0  0  0  0  0
  181.6620  179.0360  142.8220 C   0  0  0  0  0  2  0  0  0  0  0  0
  180.5720  178.6800  143.8200 C   0  0  0  0  0  2  0  0  0  0  0  0
  179.5110  178.0560  143.1640 O   0  0  0  0  0  1  0  0  0  0  0  0
  1  7  1  0  0  0  0
  1 14  1  0  0  0  0
  2  8  1  0  0  0  0
  2 11  1  0  0  0  0
  3  6  1  0  0  0  0
  3 13  1  0  0  0  0
  4 11  1  0  0  0  0
  4  5  2  0  0  0  0
  5 15  1  0  0  0  0
  6 10  2  0  0  0  0
  7  2  2  0  0  0  0
  8 12  2  0  0  0  0
  9  1  2  0  0  0  0
 11  3  2  0  0  0  0
 12  6  1  0  0  0  0
 14  4  1  0  0  0  0
 15 13  2  0  0  0  0
 17 18  1  0  0  0  0
 18  5  1  0  0  0  0
 18 16  2  0  0  0  0
 19 17  1  0  0  0  0
 20 19  1  0  0  0  0
 21 25  1  6  0  0  0
 21 20  1  0  0  0  0
 22 23  1  6  0  0  0
 22 21  1  0  0  0  0
 24 22  1  0  0  0  0
 25 26  1  0  0  0  0
 27 26  1  0  0  0  0
M  END
>  <MODEL>
2

>  <REMARK>
 VINA RESULT:      -8.7      3.127      6.904
  Name = 
  7 active torsions:
  status: ('A' for Active; 'I' for Inactive)
    1  A    between atoms: C_3  and  C_25
    2  A    between atoms: C_4  and  C_14
    3  A    between atoms: N_5  and  N_18
    4  A    between atoms: N_5  and  C_22
    5  A    between atoms: C_9  and  C_19
    6  A    between atoms: C_14  and  C_25
    7  A    between atoms: C_22  and  C_25
                            x       y       z     vdW  Elec       q    Type
                         _______ _______ _______ _____ _____    ______ ____

>  <TORSDO>
F 7

$$$$
=
 OpenBabel11062415443D

 27 29  0  0  1  0  0  0  0  0999 V2000
  190.9430  176.8650  146.3480 C   0  0  0  0  0  0  0  0  0  0  0  0
  188.8650  177.6520  147.2550 C   0  0  0  0  0  0  0  0  0  0  0  0
  186.9650  177.9030  145.7580 C   0  0  0  0  0  0  0  0  0  0  0  0
  189.1140  177.1050  144.9050 C   0  0  0  0  0  0  0  0  0  0  0  0
  188.5610  177.0060  143.6060 C   0  0  0  0  0  0  0  0  0  0  0  0
  186.1690  178.3670  146.9110 C   0  0  0  0  0  0  0  0  0  0  0  0
  190.1990  177.3020  147.4470 C   0  0  0  0  0  3  0  0  0  0  0  0
  188.0370  178.1200  148.3840 C   0  0  0  0  0  3  0  0  0  0  0  0
  192.1500  176.5440  146.5020 O   0  0  0  0  0  0  0  0  0  0  0  0
  184.9590  178.6920  146.7750 O   0  0  0  0  0  0  0  0  0  0  0  0
  188.3070  177.5550  145.9720 C   0  0  0  0  0  0  0  0  0  0  0  0
  186.7900  178.4460  148.2030 N   0  0  0  0  0  0  0  0  0  0  0  0
  186.4220  177.8020  144.4760 C   0  0  0  0  0  3  0  0  0  0  0  0
  190.3870  176.7830  145.1400 O   0  0  0  0  0  0  0  0  0  0  0  0
  187.2140  177.3590  143.4140 C   0  0  0  0  0  3  0  0  0  0  0  0
  190.1500  175.5810  142.5600 O   0  0  0  0  0  0  0  0  0  0  0  0
  189.1960  177.1660  141.1570 N   0  0  0  0  0  2  0  0  0  0  0  0
  189.3430  176.5420  142.4330 C   0  0  0  0  0  0  0  0  0  0  0  0
  189.9320  176.7320  140.0470 N   0  0  0  0  0  2  0  0  0  0  0  0
  190.0280  177.8640  139.1430 C   0  0  0  0  0  2  0  0  0  0  0  0
  189.7790  177.4130  137.7070 C   0  0  2  0  0  3  0  0  0  0  0  0
  188.8990  178.4320  136.9840 C   0  0  1  0  0  3  0  0  0  0  0  0
  187.4460  177.9870  136.9880 C   0  0  0  0  0  1  0  0  0  0  0  0
  188.9850  179.6780  137.6090 O   0  0  0  0  0  1  0  0  0  0  0  0
  189.0990  176.0460  137.7100 C   0  0  0  0  0  2  0  0  0  0  0  0
  189.9040  175.0250  136.9220 C   0  0  0  0  0  2  0  0  0  0  0  0
  190.6390  174.2220  137.7940 O   0  0  0  0  0  1  0  0  0  0  0  0
  1  9  2  0  0  0  0
  1  7  1  0  0  0  0
  2  7  2  0  0  0  0
  2  8  1  0  0  0  0
  3 11  1  0  0  0  0
  3  6  1  0  0  0  0
  4 14  1  0  0  0  0
  4 11  2  0  0  0  0
  5  4  1  0  0  0  0
  6 12  1  0  0  0  0
 10  6  2  0  0  0  0
 11  2  1  0  0  0  0
 12  8  2  0  0  0  0
 13  3  2  0  0  0  0
 14  1  1  0  0  0  0
 15  5  2  0  0  0  0
 15 13  1  0  0  0  0
 17 18  1  0  0  0  0
 18 16  2  0  0  0  0
 18  5  1  0  0  0  0
 19 17  1  0  0  0  0
 20 19  1  0  0  0  0
 21 25  1  1  0  0  0
 21 20  1  0  0  0  0
 22 23  1  1  0  0  0
 22 24  1  0  0  0  0
 22 21  1  0  0  0  0
 26 25  1  0  0  0  0
 26 27  1  0  0  0  0
M  END
>  <MODEL>
3

>  <REMARK>
 VINA RESULT:      -8.5      2.109      4.235
  Name = 
  7 active torsions:
  status: ('A' for Active; 'I' for Inactive)
    1  A    between atoms: C_3  and  C_25
    2  A    between atoms: C_4  and  C_14
    3  A    between atoms: N_5  and  N_18
    4  A    between atoms: N_5  and  C_22
    5  A    between atoms: C_9  and  C_19
    6  A    between atoms: C_14  and  C_25
    7  A    between atoms: C_22  and  C_25
                            x       y       z     vdW  Elec       q    Type
                         _______ _______ _______ _____ _____    ______ ____

>  <TORSDO>
F 7

$$$$
=
 OpenBabel11062415443D

 27 29  0  0  1  0  0  0  0  0999 V2000
  189.2280  177.0790  146.7880 C   0  0  0  0  0  0  0  0  0  0  0  0
  187.0000  177.9660  146.6790 C   0  0  0  0  0  0  0  0  0  0  0  0
  185.9560  178.2160  144.4970 C   0  0  0  0  0  0  0  0  0  0  0  0
  188.2230  177.3190  144.6860 C   0  0  0  0  0  0  0  0  0  0  0  0
  188.2860  177.1850  143.2790 C   0  0  0  0  0  0  0  0  0  0  0  0
  184.7580  178.7500  145.1770 C   0  0  0  0  0  0  0  0  0  0  0  0
  188.1000  177.5830  147.4420 C   0  0  0  0  0  3  0  0  0  0  0  0
  185.7860  178.5040  147.3230 C   0  0  0  0  0  3  0  0  0  0  0  0
  190.2320  176.7270  147.4610 O   0  0  0  0  0  0  0  0  0  0  0  0
  183.7450  179.1070  144.5190 O   0  0  0  0  0  0  0  0  0  0  0  0
  187.0530  177.8360  145.2840 C   0  0  0  0  0  0  0  0  0  0  0  0
  184.7580  178.8620  146.6080 N   0  0  0  0  0  0  0  0  0  0  0  0
  186.0210  178.0810  143.1090 C   0  0  0  0  0  3  0  0  0  0  0  0
  189.2500  176.9670  145.4610 O   0  0  0  0  0  0  0  0  0  0  0  0
  187.1750  177.5720  142.5100 C   0  0  0  0  0  3  0  0  0  0  0  0
  189.8270  175.4510  142.7570 O   0  0  0  0  0  0  0  0  0  0  0  0
  190.2430  177.4730  141.6940 N   0  0  0  0  0  2  0  0  0  0  0  0
  189.4790  176.6500  142.5760 C   0  0  0  0  0  0  0  0  0  0  0  0
  191.3700  176.9730  141.0280 N   0  0  0  0  0  2  0  0  0  0  0  0
  191.2480  177.3820  139.6400 C   0  0  0  0  0  2  0  0  0  0  0  0
  190.4950  176.3230  138.8420 C   0  0  2  0  0  3  0  0  0  0  0  0
  191.4150  175.7100  137.7860 C   0  0  1  0  0  3  0  0  0  0  0  0
  192.8360  176.2240  137.9470 C   0  0  0  0  0  1  0  0  0  0  0  0
  191.4270  174.3190  137.9030 O   0  0  0  0  0  1  0  0  0  0  0  0
  189.2790  176.9560  138.1710 C   0  0  0  0  0  2  0  0  0  0  0  0
  189.1790  178.4390  138.4900 C   0  0  0  0  0  2  0  0  0  0  0  0
  188.0370  178.6860  139.2520 O   0  0  0  0  0  1  0  0  0  0  0  0
  1  7  1  0  0  0  0
  1  9  2  0  0  0  0
  2  8  1  0  0  0  0
  2  7  2  0  0  0  0
  3  6  1  0  0  0  0
  3 11  1  0  0  0  0
  4 11  2  0  0  0  0
  4 14  1  0  0  0  0
  5  4  1  0  0  0  0
  6 12  1  0  0  0  0
 10  6  2  0  0  0  0
 11  2  1  0  0  0  0
 12  8  2  0  0  0  0
 13  3  2  0  0  0  0
 14  1  1  0  0  0  0
 15 13  1  0  0  0  0
 15  5  2  0  0  0  0
 17 18  1  0  0  0  0
 18 16  2  0  0  0  0
 18  5  1  0  0  0  0
 19 17  1  0  0  0  0
 20 19  1  0  0  0  0
 21 25  1  6  0  0  0
 21 20  1  0  0  0  0
 22 24  1  0  0  0  0
 22 23  1  1  0  0  0
 22 21  1  0  0  0  0
 25 26  1  0  0  0  0
 26 27  1  0  0  0  0
M  END
>  <MODEL>
4

>  <REMARK>
 VINA RESULT:      -8.5      1.549      3.132
  Name = 
  7 active torsions:
  status: ('A' for Active; 'I' for Inactive)
    1  A    between atoms: C_3  and  C_25
    2  A    between atoms: C_4  and  C_14
    3  A    between atoms: N_5  and  N_18
    4  A    between atoms: N_5  and  C_22
    5  A    between atoms: C_9  and  C_19
    6  A    between atoms: C_14  and  C_25
    7  A    between atoms: C_22  and  C_25
                            x       y       z     vdW  Elec       q    Type
                         _______ _______ _______ _____ _____    ______ ____

>  <TORSDO>
F 7

$$$$
=
 OpenBabel11062415443D

 27 29  0  0  1  0  0  0  0  0999 V2000
  191.0270  176.7740  146.6210 C   0  0  0  0  0  0  0  0  0  0  0  0
  188.9250  177.6670  147.3580 C   0  0  0  0  0  0  0  0  0  0  0  0
  187.1290  177.9010  145.7360 C   0  0  0  0  0  0  0  0  0  0  0  0
  189.2980  176.9980  145.0570 C   0  0  0  0  0  0  0  0  0  0  0  0
  188.8220  176.8520  143.7330 C   0  0  0  0  0  0  0  0  0  0  0  0
  186.2800  178.4450  146.8150 C   0  0  0  0  0  0  0  0  0  0  0  0
  190.2330  177.2870  147.6490 C   0  0  0  0  0  3  0  0  0  0  0  0
  188.0470  178.2150  148.4110 C   0  0  0  0  0  3  0  0  0  0  0  0
  192.2120  176.4250  146.8640 O   0  0  0  0  0  0  0  0  0  0  0  0
  185.0920  178.7990  146.5890 O   0  0  0  0  0  0  0  0  0  0  0  0
  188.4430  177.5240  146.0500 C   0  0  0  0  0  0  0  0  0  0  0  0
  186.8240  178.5700  148.1380 N   0  0  0  0  0  0  0  0  0  0  0  0
  186.6610  177.7540  144.4290 C   0  0  0  0  0  3  0  0  0  0  0  0
  190.5430  176.6500  145.3860 O   0  0  0  0  0  0  0  0  0  0  0  0
  187.5010  177.2360  143.4410 C   0  0  0  0  0  3  0  0  0  0  0  0
  190.3250  175.2530  142.8190 O   0  0  0  0  0  0  0  0  0  0  0  0
  189.7190  176.9580  141.3640 N   0  0  0  0  0  2  0  0  0  0  0  0
  189.6570  176.3070  142.6340 C   0  0  0  0  0  0  0  0  0  0  0  0
  190.5060  176.4480  140.3240 N   0  0  0  0  0  2  0  0  0  0  0  0
  189.9670  176.9910  139.0890 C   0  0  0  0  0  2  0  0  0  0  0  0
  190.6680  176.3640  137.8890 C   0  0  2  0  0  3  0  0  0  0  0  0
  189.7670  175.3080  137.2480 C   0  0  1  0  0  3  0  0  0  0  0  0
  189.7880  175.4320  135.7340 C   0  0  0  0  0  1  0  0  0  0  0  0
  190.1980  174.0270  137.5970 O   0  0  0  0  0  1  0  0  0  0  0  0
  191.9810  175.7260  138.3380 C   0  0  0  0  0  2  0  0  0  0  0  0
  193.1740  176.3750  137.6560 C   0  0  0  0  0  2  0  0  0  0  0  0
  194.3430  175.6870  137.9830 O   0  0  0  0  0  1  0  0  0  0  0  0
  1  9  2  0  0  0  0
  1  7  1  0  0  0  0
  2  7  2  0  0  0  0
  2  8  1  0  0  0  0
  3 11  1  0  0  0  0
  3  6  1  0  0  0  0
  4 14  1  0  0  0  0
  4 11  2  0  0  0  0
  5  4  1  0  0  0  0
  6 12  1  0  0  0  0
 10  6  2  0  0  0  0
 11  2  1  0  0  0  0
 12  8  2  0  0  0  0
 13  3  2  0  0  0  0
 14  1  1  0  0  0  0
 15  5  2  0  0  0  0
 15 13  1  0  0  0  0
 17 18  1  0  0  0  0
 18 16  2  0  0  0  0
 18  5  1  0  0  0  0
 19 17  1  0  0  0  0
 20 19  1  0  0  0  0
 21 25  1  1  0  0  0
 21 20  1  0  0  0  0
 22 23  1  6  0  0  0
 22 24  1  0  0  0  0
 22 21  1  0  0  0  0
 26 27  1  0  0  0  0
 26 25  1  0  0  0  0
M  END
>  <MODEL>
5

>  <REMARK>
 VINA RESULT:      -8.3      2.493      4.212
  Name = 
  7 active torsions:
  status: ('A' for Active; 'I' for Inactive)
    1  A    between atoms: C_3  and  C_25
    2  A    between atoms: C_4  and  C_14
    3  A    between atoms: N_5  and  N_18
    4  A    between atoms: N_5  and  C_22
    5  A    between atoms: C_9  and  C_19
    6  A    between atoms: C_14  and  C_25
    7  A    between atoms: C_22  and  C_25
                            x       y       z     vdW  Elec       q    Type
                         _______ _______ _______ _____ _____    ______ ____

>  <TORSDO>
F 7

$$$$
=
 OpenBabel11062415443D

 27 29  0  0  1  0  0  0  0  0999 V2000
  185.7500  178.7340  141.0560 C   0  0  0  0  0  0  0  0  0  0  0  0
  184.7320  178.9740  143.2160 C   0  0  0  0  0  0  0  0  0  0  0  0
  185.9240  178.1330  145.1620 C   0  0  0  0  0  0  0  0  0  0  0  0
  186.9000  177.9240  142.9290 C   0  0  0  0  0  0  0  0  0  0  0  0
  188.0330  177.2850  143.4850 C   0  0  0  0  0  0  0  0  0  0  0  0
  184.7980  178.5920  146.0000 C   0  0  0  0  0  0  0  0  0  0  0  0
  184.6790  179.1730  141.8400 C   0  0  0  0  0  3  0  0  0  0  0  0
  183.6250  179.4200  144.0870 C   0  0  0  0  0  3  0  0  0  0  0  0
  185.7210  178.9060  139.8100 O   0  0  0  0  0  0  0  0  0  0  0  0
  184.8110  178.4290  147.2490 O   0  0  0  0  0  0  0  0  0  0  0  0
  185.8520  178.3430  143.7770 C   0  0  0  0  0  0  0  0  0  0  0  0
  183.6760  179.2330  145.3740 N   0  0  0  0  0  0  0  0  0  0  0  0
  187.0440  177.5030  145.7070 C   0  0  0  0  0  3  0  0  0  0  0  0
  186.8010  178.1380  141.6160 O   0  0  0  0  0  0  0  0  0  0  0  0
  188.0850  177.0850  144.8750 C   0  0  0  0  0  3  0  0  0  0  0  0
  189.6720  175.6770  142.8710 O   0  0  0  0  0  0  0  0  0  0  0  0
  189.7250  177.6380  141.6300 N   0  0  0  0  0  2  0  0  0  0  0  0
  189.1760  176.8170  142.6610 C   0  0  0  0  0  0  0  0  0  0  0  0
  190.8030  177.2000  140.8500 N   0  0  0  0  0  2  0  0  0  0  0  0
  190.2360  176.6100  139.6500 C   0  0  0  0  0  2  0  0  0  0  0  0
  190.7000  177.3780  138.4170 C   0  0  2  0  0  3  0  0  0  0  0  0
  189.5170  178.1060  137.7770 C   0  0  1  0  0  3  0  0  0  0  0  0
  188.4000  177.1300  137.4490 C   0  0  0  0  0  1  0  0  0  0  0  0
  189.0190  179.0780  138.6470 O   0  0  0  0  0  1  0  0  0  0  0  0
  191.3200  176.4090  137.4130 C   0  0  0  0  0  2  0  0  0  0  0  0
  192.6210  175.8240  137.9390 C   0  0  0  0  0  2  0  0  0  0  0  0
  193.5120  176.8500  138.2530 O   0  0  0  0  0  1  0  0  0  0  0  0
  1 14  1  0  0  0  0
  1  7  1  0  0  0  0
  2 11  1  0  0  0  0
  2  8  1  0  0  0  0
  3 13  1  0  0  0  0
  3  6  1  0  0  0  0
  4  5  2  0  0  0  0
  4 11  1  0  0  0  0
  5 15  1  0  0  0  0
  6 10  2  0  0  0  0
  7  2  2  0  0  0  0
  8 12  2  0  0  0  0
  9  1  2  0  0  0  0
 11  3  2  0  0  0  0
 12  6  1  0  0  0  0
 14  4  1  0  0  0  0
 15 13  2  0  0  0  0
 17 18  1  0  0  0  0
 18 16  2  0  0  0  0
 18  5  1  0  0  0  0
 19 17  1  0  0  0  0
 20 19  1  0  0  0  0
 21 25  1  6  0  0  0
 21 20  1  0  0  0  0
 22 23  1  1  0  0  0
 22 21  1  0  0  0  0
 22 24  1  0  0  0  0
 25 26  1  0  0  0  0
 26 27  1  0  0  0  0
M  END
>  <MODEL>
6

>  <REMARK>
 VINA RESULT:      -8.2      0.890      2.076
  Name = 
  7 active torsions:
  status: ('A' for Active; 'I' for Inactive)
    1  A    between atoms: C_3  and  C_25
    2  A    between atoms: C_4  and  C_14
    3  A    between atoms: N_5  and  N_18
    4  A    between atoms: N_5  and  C_22
    5  A    between atoms: C_9  and  C_19
    6  A    between atoms: C_14  and  C_25
    7  A    between atoms: C_22  and  C_25
                            x       y       z     vdW  Elec       q    Type
                         _______ _______ _______ _____ _____    ______ ____

>  <TORSDO>
F 7

$$$$
=
 OpenBabel11062415443D

 27 29  0  0  1  0  0  0  0  0999 V2000
  188.0200  177.7290  142.6130 C   0  0  0  0  0  0  0  0  0  0  0  0
  189.8570  177.0920  144.0190 C   0  0  0  0  0  0  0  0  0  0  0  0
  189.5700  177.2110  146.4310 C   0  0  0  0  0  0  0  0  0  0  0  0
  187.7410  177.8440  144.9360 C   0  0  0  0  0  0  0  0  0  0  0  0
  186.9290  178.1400  146.0560 C   0  0  0  0  0  0  0  0  0  0  0  0
  190.9570  176.7230  146.5800 C   0  0  0  0  0  0  0  0  0  0  0  0
  189.3320  177.2670  142.7420 C   0  0  0  0  0  3  0  0  0  0  0  0
  191.2390  176.6060  144.2070 C   0  0  0  0  0  3  0  0  0  0  0  0
  187.5270  177.8940  141.4670 O   0  0  0  0  0  0  0  0  0  0  0  0
  191.4650  176.5530  147.7190 O   0  0  0  0  0  0  0  0  0  0  0  0
  189.0600  177.3810  145.1360 C   0  0  0  0  0  0  0  0  0  0  0  0
  191.7290  176.4420  145.4020 N   0  0  0  0  0  0  0  0  0  0  0  0
  188.7660  177.5020  147.5340 C   0  0  0  0  0  3  0  0  0  0  0  0
  187.2850  177.9960  143.6920 O   0  0  0  0  0  0  0  0  0  0  0  0
  187.4610  177.9620  147.3450 C   0  0  0  0  0  3  0  0  0  0  0  0
  184.7380  178.5070  146.8990 O   0  0  0  0  0  0  0  0  0  0  0  0
  185.0760  179.2430  144.7240 N   0  0  0  0  0  2  0  0  0  0  0  0
  185.5340  178.6300  145.9300 C   0  0  0  0  0  0  0  0  0  0  0  0
  183.7600  179.7070  144.6000 N   0  0  0  0  0  2  0  0  0  0  0  0
  183.0000  178.6410  143.9730 C   0  0  0  0  0  2  0  0  0  0  0  0
  182.5000  179.0850  142.6030 C   0  0  2  0  0  3  0  0  0  0  0  0
  180.9740  179.0100  142.5510 C   0  0  1  0  0  3  0  0  0  0  0  0
  180.4170  178.4890  143.8650 C   0  0  0  0  0  1  0  0  0  0  0  0
  180.4350  180.2750  142.3090 O   0  0  0  0  0  1  0  0  0  0  0  0
  183.1030  178.1900  141.5230 C   0  0  0  0  0  2  0  0  0  0  0  0
  183.5410  179.0000  140.3130 C   0  0  0  0  0  2  0  0  0  0  0  0
  184.8180  179.5190  140.5240 O   0  0  0  0  0  1  0  0  0  0  0  0
  1  7  1  0  0  0  0
  1 14  1  0  0  0  0
  2  8  1  0  0  0  0
  2 11  1  0  0  0  0
  3  6  1  0  0  0  0
  3 13  1  0  0  0  0
  4 11  1  0  0  0  0
  4  5  2  0  0  0  0
  5 15  1  0  0  0  0
  6 10  2  0  0  0  0
  7  2  2  0  0  0  0
  8 12  2  0  0  0  0
  9  1  2  0  0  0  0
 11  3  2  0  0  0  0
 12  6  1  0  0  0  0
 14  4  1  0  0  0  0
 15 13  2  0  0  0  0
 17 18  1  0  0  0  0
 18  5  1  0  0  0  0
 18 16  2  0  0  0  0
 19 17  1  0  0  0  0
 20 19  1  0  0  0  0
 21 25  1  6  0  0  0
 21 20  1  0  0  0  0
 22 21  1  0  0  0  0
 22 23  1  1  0  0  0
 24 22  1  0  0  0  0
 26 27  1  0  0  0  0
 26 25  1  0  0  0  0
M  END
>  <MODEL>
7

>  <REMARK>
 VINA RESULT:      -8.2      2.927      6.861
  Name = 
  7 active torsions:
  status: ('A' for Active; 'I' for Inactive)
    1  A    between atoms: C_3  and  C_25
    2  A    between atoms: C_4  and  C_14
    3  A    between atoms: N_5  and  N_18
    4  A    between atoms: N_5  and  C_22
    5  A    between atoms: C_9  and  C_19
    6  A    between atoms: C_14  and  C_25
    7  A    between atoms: C_22  and  C_25
                            x       y       z     vdW  Elec       q    Type
                         _______ _______ _______ _____ _____    ______ ____

>  <TORSDO>
F 7

$$$$
=
 OpenBabel11062415443D

 27 29  0  0  1  0  0  0  0  0999 V2000
  185.5670  178.1320  142.9390 C   0  0  0  0  0  0  0  0  0  0  0  0
  185.7620  178.3680  145.3200 C   0  0  0  0  0  0  0  0  0  0  0  0
  187.8780  177.7960  146.3750 C   0  0  0  0  0  0  0  0  0  0  0  0
  187.6050  177.5810  143.9540 C   0  0  0  0  0  0  0  0  0  0  0  0
  188.9390  177.1220  143.8450 C   0  0  0  0  0  0  0  0  0  0  0  0
  187.2810  178.1600  147.6760 C   0  0  0  0  0  0  0  0  0  0  0  0
  184.9920  178.4790  144.1650 C   0  0  0  0  0  3  0  0  0  0  0  0
  185.2000  178.7230  146.6390 C   0  0  0  0  0  3  0  0  0  0  0  0
  184.8880  178.2250  141.8850 O   0  0  0  0  0  0  0  0  0  0  0  0
  187.9470  178.0730  148.7410 O   0  0  0  0  0  0  0  0  0  0  0  0
  187.0850  177.9150  145.2230 C   0  0  0  0  0  0  0  0  0  0  0  0
  185.9210  178.6190  147.7180 N   0  0  0  0  0  0  0  0  0  0  0  0
  189.1930  177.3440  146.2640 C   0  0  0  0  0  3  0  0  0  0  0  0
  186.8270  177.7040  142.8770 O   0  0  0  0  0  0  0  0  0  0  0  0
  189.7150  177.0100  145.0120 C   0  0  0  0  0  3  0  0  0  0  0  0
  190.1160  175.6280  142.4200 O   0  0  0  0  0  0  0  0  0  0  0  0
  189.5340  177.6490  141.4380 N   0  0  0  0  0  2  0  0  0  0  0  0
  189.5590  176.7510  142.5480 C   0  0  0  0  0  0  0  0  0  0  0  0
  190.1170  177.3040  140.2120 N   0  0  0  0  0  2  0  0  0  0  0  0
  189.1040  177.5220  139.1940 C   0  0  0  0  0  2  0  0  0  0  0  0
  189.7350  177.4740  137.8060 C   0  0  2  0  0  3  0  0  0  0  0  0
  189.0700  178.5040  136.8930 C   0  0  1  0  0  3  0  0  0  0  0  0
  187.6450  178.0910  136.5650 C   0  0  0  0  0  1  0  0  0  0  0  0
  189.0400  179.7540  137.5140 O   0  0  0  0  0  1  0  0  0  0  0  0
  189.5730  176.0740  137.2180 C   0  0  0  0  0  2  0  0  0  0  0  0
  190.9220  175.4260  136.9530 C   0  0  0  0  0  2  0  0  0  0  0  0
  191.2200  174.5140  137.9660 O   0  0  0  0  0  1  0  0  0  0  0  0
  1  7  1  0  0  0  0
  2  8  1  0  0  0  0
  3  6  1  0  0  0  0
  4 11  1  0  0  0  0
  5  4  2  0  0  0  0
  5 15  1  0  0  0  0
  6 12  1  0  0  0  0
  6 10  2  0  0  0  0
  7  2  2  0  0  0  0
  8 12  2  0  0  0  0
  9  1  2  0  0  0  0
 11  2  1  0  0  0  0
 11  3  2  0  0  0  0
 13  3  1  0  0  0  0
 14  1  1  0  0  0  0
 14  4  1  0  0  0  0
 15 13  2  0  0  0  0
 16 18  2  0  0  0  0
 17 18  1  0  0  0  0
 18  5  1  0  0  0  0
 19 17  1  0  0  0  0
 20 19  1  0  0  0  0
 21 25  1  6  0  0  0
 21 20  1  0  0  0  0
 22 23  1  1  0  0  0
 22 24  1  0  0  0  0
 22 21  1  0  0  0  0
 26 25  1  0  0  0  0
 26 27  1  0  0  0  0
M  END
>  <MODEL>
8

>  <REMARK>
 VINA RESULT:      -8.1      1.611      2.844
  Name = 
  7 active torsions:
  status: ('A' for Active; 'I' for Inactive)
    1  A    between atoms: C_3  and  C_25
    2  A    between atoms: C_4  and  C_14
    3  A    between atoms: N_5  and  N_18
    4  A    between atoms: N_5  and  C_22
    5  A    between atoms: C_9  and  C_19
    6  A    between atoms: C_14  and  C_25
    7  A    between atoms: C_22  and  C_25
                            x       y       z     vdW  Elec       q    Type
                         _______ _______ _______ _____ _____    ______ ____

>  <TORSDO>
F 7

$$$$
=
 OpenBabel11062415443D

 27 29  0  0  1  0  0  0  0  0999 V2000
  186.3460  178.6430  141.3930 C   0  0  0  0  0  0  0  0  0  0  0  0
  183.9880  178.6950  140.9530 C   0  0  0  0  0  0  0  0  0  0  0  0
  182.4540  178.7350  142.8400 C   0  0  0  0  0  0  0  0  0  0  0  0
  184.8710  178.6820  143.2120 C   0  0  0  0  0  0  0  0  0  0  0  0
  184.6560  178.6900  144.6100 C   0  0  0  0  0  0  0  0  0  0  0  0
  181.3340  178.7580  141.8780 C   0  0  0  0  0  0  0  0  0  0  0  0
  185.2940  178.6640  140.4730 C   0  0  0  0  0  3  0  0  0  0  0  0
  182.8420  178.7180  140.0210 C   0  0  0  0  0  3  0  0  0  0  0  0
  187.5340  178.6160  140.9790 O   0  0  0  0  0  0  0  0  0  0  0  0
  180.1390  178.7860  142.2750 O   0  0  0  0  0  0  0  0  0  0  0  0
  183.7630  178.7050  142.3370 C   0  0  0  0  0  0  0  0  0  0  0  0
  181.6210  178.7470  140.4710 N   0  0  0  0  0  0  0  0  0  0  0  0
  182.2450  178.7440  144.2200 C   0  0  0  0  0  3  0  0  0  0  0  0
  186.1040  178.6520  142.7030 O   0  0  0  0  0  0  0  0  0  0  0  0
  183.3360  178.7210  145.0930 C   0  0  0  0  0  3  0  0  0  0  0  0
  185.6850  179.3620  146.6440 O   0  0  0  0  0  0  0  0  0  0  0  0
  186.9300  177.8710  145.3730 N   0  0  0  0  0  2  0  0  0  0  0  0
  185.7660  178.6680  145.5940 C   0  0  0  0  0  0  0  0  0  0  0  0
  187.9810  177.8470  146.2990 N   0  0  0  0  0  2  0  0  0  0  0  0
  188.9780  176.9310  145.7730 C   0  0  0  0  0  2  0  0  0  0  0  0
  190.2900  177.6660  145.5260 C   0  0  2  0  0  3  0  0  0  0  0  0
  190.2390  178.3900  144.1800 C   0  0  1  0  0  3  0  0  0  0  0  0
  191.4940  179.2210  143.9690 C   0  0  0  0  0  1  0  0  0  0  0  0
  190.1360  177.4670  143.1370 O   0  0  0  0  0  1  0  0  0  0  0  0
  191.4470  176.6690  145.5380 C   0  0  0  0  0  2  0  0  0  0  0  0
  191.6710  176.0980  146.9290 C   0  0  0  0  0  2  0  0  0  0  0  0
  191.7850  177.1330  147.8560 O   0  0  0  0  0  1  0  0  0  0  0  0
  1 14  1  0  0  0  0
  2 11  1  0  0  0  0
  3 13  1  0  0  0  0
  4  5  2  0  0  0  0
  5 15  1  0  0  0  0
  5 18  1  0  0  0  0
  6 10  2  0  0  0  0
  6  3  1  0  0  0  0
  7  2  2  0  0  0  0
  7  1  1  0  0  0  0
  8 12  2  0  0  0  0
  8  2  1  0  0  0  0
  9  1  2  0  0  0  0
 11  3  2  0  0  0  0
 11  4  1  0  0  0  0
 12  6  1  0  0  0  0
 13 15  2  0  0  0  0
 14  4  1  0  0  0  0
 17 18  1  0  0  0  0
 17 19  1  0  0  0  0
 18 16  2  0  0  0  0
 20 19  1  0  0  0  0
 21 25  1  6  0  0  0
 21 20  1  0  0  0  0
 22 23  1  6  0  0  0
 22 21  1  0  0  0  0
 24 22  1  0  0  0  0
 25 26  1  0  0  0  0
 26 27  1  0  0  0  0
M  END
>  <MODEL>
9

>  <REMARK>
 VINA RESULT:      -8.0      3.334      5.428
  Name = 
  7 active torsions:
  status: ('A' for Active; 'I' for Inactive)
    1  A    between atoms: C_3  and  C_25
    2  A    between atoms: C_4  and  C_14
    3  A    between atoms: N_5  and  N_18
    4  A    between atoms: N_5  and  C_22
    5  A    between atoms: C_9  and  C_19
    6  A    between atoms: C_14  and  C_25
    7  A    between atoms: C_22  and  C_25
                            x       y       z     vdW  Elec       q    Type
                         _______ _______ _______ _____ _____    ______ ____

>  <TORSDO>
F 7

$$$$
