=
 OpenBabel11062413593D

 53 58  0  0  1  0  0  0  0  0999 V2000
  184.5000  177.9410  139.3450 C   0  0  1  0  0  3  0  0  0  0  0  0
  181.1260  178.7620  140.8000 C   0  0  1  0  0  0  0  0  0  0  0  0
  180.8110  173.8750  136.3070 C   0  0  0  0  0  2  0  0  0  0  0  0
  185.0900  178.6770  138.2830 O   0  0  0  0  0  0  0  0  0  0  0  0
  181.1030  178.1170  142.0730 O   0  0  0  0  0  0  0  0  0  0  0  0
  181.6850  178.9440  143.0600 C   0  0  2  0  0  3  0  0  0  0  0  0
  182.6530  175.7580  140.4470 C   0  0  0  0  0  1  0  0  0  0  0  0
  182.3040  176.5780  139.2160 C   0  0  2  0  0  3  0  0  0  0  0  0
  183.9410  172.0070  136.9500 C   0  0  0  0  0  2  0  0  0  0  0  0
  186.9280  179.3050  137.0650 O   0  0  0  0  0  0  0  0  0  0  0  0
  187.8700  175.2040  134.8140 C   0  0  0  0  0  2  0  0  0  0  0  0
  178.9310  180.0070  141.8500 C   0  0  0  0  0  2  0  0  0  0  0  0
  179.1650  179.6160  139.2370 C   0  0  0  0  0  1  0  0  0  0  0  0
  182.4960  178.8610  140.2760 N   0  0  1  0  0  0  0  0  0  0  0  0
  182.6730  175.7910  137.9710 C   0  0  0  0  0  2  0  0  0  0  0  0
  187.7510  176.4760  137.4030 C   0  0  2  0  0  3  0  0  0  0  0  0
  180.6440  180.0140  143.4480 C   0  0  0  0  0  2  0  0  0  0  0  0
  187.2720  177.4240  138.4910 C   0  0  0  0  0  2  0  0  0  0  0  0
  186.7180  175.2950  135.4760 C   0  0  0  0  0  0  0  0  0  0  0  0
  183.0980  179.4510  142.6170 C   0  0  0  0  0  2  0  0  0  0  0  0
  179.3470  179.5260  143.1260 O   0  0  0  0  0  0  0  0  0  0  0  0
  184.7060  173.2960  136.6950 C   0  0  0  0  0  2  0  0  0  0  0  0
  179.7630  179.5210  140.6250 C   0  0  2  0  0  0  0  0  0  0  0  0
  180.9340  180.3190  140.7140 C   0  0  0  0  0  2  0  0  0  0  0  0
  182.5520  172.0830  136.3330 C   0  0  0  0  0  2  0  0  0  0  0  0
  186.4290  178.5200  137.9140 C   0  0  0  0  0  0  0  0  0  0  0  0
  184.8050  178.6420  140.6870 C   0  0  1  0  0  3  0  0  0  0  0  0
  186.6380  175.8760  136.7480 O   0  0  0  0  0  0  0  0  0  0  0  0
  183.4540  178.6440  141.3510 C   0  0  2  0  0  3  0  0  0  0  0  0
  181.6490  172.9590  137.1860 C   0  0  0  0  0  2  0  0  0  0  0  0
  181.6410  175.0330  135.7530 C   0  0  2  0  0  3  0  0  0  0  0  0
  182.9590  177.9780  139.2050 C   0  0  1  0  0  3  0  0  0  0  0  0
  188.5520  175.4850  137.9700 O   0  0  0  0  0  1  0  0  0  0  0  0
  185.4740  174.7810  134.8340 C   0  0  0  0  0  2  0  0  0  0  0  0
  181.7630  176.1610  136.7960 C   0  0  2  0  0  3  0  0  0  0  0  0
  185.1760  173.3500  135.2500 C   0  0  0  0  0  2  0  0  0  0  0  0
  179.6660  175.2460  134.7720 C   0  0  0  0  0  1  0  0  0  0  0  0
  181.0260  175.5140  134.5950 O   0  0  0  0  0  0  0  0  0  0  0  0
  180.9440  178.2620  136.3540 C   0  0  0  0  0  1  0  0  0  0  0  0
  182.0690  177.4270  136.2390 O   0  0  0  0  0  0  0  0  0  0  0  0
  185.8340  178.0300  141.4430 O   0  0  0  0  0  0  0  0  0  0  0  0
  186.6990  179.0090  141.9660 C   0  0  0  0  0  2  0  0  0  0  0  0
  188.1420  178.5710  141.7890 C   0  0  0  0  0  2  0  0  0  0  0  0
  188.2830  177.0950  142.1180 C   0  0  0  0  0  2  0  0  0  0  0  0
  189.7150  176.6380  141.8990 C   0  0  0  0  0  2  0  0  0  0  0  0
  190.3810  176.4090  143.1730 N   0  0  0  0  0  2  0  0  0  0  0  0
  191.1460  177.5530  143.4550 N   0  0  0  0  0  2  0  0  0  0  0  0
  187.7610  177.7990  146.5330 C   0  0  0  0  0  1  0  0  0  0  0  0
  189.0020  177.2710  145.8410 C   0  0  1  0  0  3  0  0  0  0  0  0
  189.6120  178.3020  145.1050 O   0  0  0  0  0  0  0  0  0  0  0  0
  189.9730  176.7480  146.8700 C   0  0  0  0  0  2  0  0  0  0  0  0
  191.5330  176.6090  145.9940 S   0  0  0  0  0  0  0  0  0  0  0  0
  190.9500  177.9180  144.8590 C   0  0  1  0  0  3  0  0  0  0  0  0
  1  4  1  6  0  0  0
  1 27  1  0  0  0  0
  2 24  1  1  0  0  0
  2  5  1  0  0  0  0
  3 30  1  0  0  0  0
  5  6  1  0  0  0  0
  6 20  1  6  0  0  0
  6 17  1  0  0  0  0
  8  7  1  1  0  0  0
 10 26  2  0  0  0  0
 11 19  2  0  0  0  0
 12 21  1  0  0  0  0
 13 23  1  0  0  0  0
 14  2  1  0  0  0  0
 14 29  1  0  0  0  0
 15  8  1  0  0  0  0
 16 33  1  0  0  0  0
 16 18  1  0  0  0  0
 19 28  1  0  0  0  0
 21 17  1  0  0  0  0
 22  9  1  0  0  0  0
 23 24  1  0  0  0  0
 23  2  1  0  0  0  0
 23 12  1  0  0  0  0
 25  9  1  0  0  0  0
 25 30  1  0  0  0  0
 26  4  1  0  0  0  0
 26 18  1  0  0  0  0
 27 29  1  0  0  0  0
 27 41  1  0  0  0  0
 28 16  1  0  0  0  0
 29 20  1  0  0  0  0
 31  3  1  0  0  0  0
 31 35  1  0  0  0  0
 32  8  1  0  0  0  0
 32  1  1  0  0  0  0
 32 14  1  0  0  0  0
 34 36  1  0  0  0  0
 34 19  1  0  0  0  0
 35 15  1  0  0  0  0
 36 22  1  0  0  0  0
 38 37  1  0  0  0  0
 38 31  1  0  0  0  0
 40 39  1  0  0  0  0
 40 35  1  0  0  0  0
 41 42  1  0  0  0  0
 43 42  1  0  0  0  0
 43 44  1  0  0  0  0
 45 44  1  0  0  0  0
 45 46  1  0  0  0  0
 46 47  1  0  0  0  0
 47 53  1  0  0  0  0
 49 48  1  0  0  0  0
 49 51  1  0  0  0  0
 50 49  1  0  0  0  0
 52 51  1  0  0  0  0
 53 50  1  0  0  0  0
 53 52  1  0  0  0  0
M  END
>  <MODEL>
1

>  <REMARK>
 VINA RESULT:      -5.8      0.000      0.000
  Name = 
  10 active torsions:
  status: ('A' for Active; 'I' for Inactive)
    1  A    between atoms: C_1  and  O_8
    2  A    between atoms: C_1  and  C_16
    3  A    between atoms: N_3  and  C_9
    4  A    between atoms: N_3  and  N_17
    5  A    between atoms: O_8  and  C_40
    6  A    between atoms: C_9  and  C_48
    7  A    between atoms: O_15  and  C_46
    8  A    between atoms: C_16  and  C_48
    9  A    between atoms: N_17  and  C_41
   10  A    between atoms: O_50  and  C_52
                            x       y       z     vdW  Elec       q    Type
                         _______ _______ _______ _____ _____    ______ ____

>  <TORSDO>
F 10

$$$$
=
 OpenBabel11062413593D

 53 58  0  0  1  0  0  0  0  0999 V2000
  185.1100  177.2340  137.8750 C   0  0  1  0  0  3  0  0  0  0  0  0
  186.3550  174.1050  136.1930 C   0  0  1  0  0  0  0  0  0  0  0  0
  179.8090  174.9520  135.4120 C   0  0  0  0  0  2  0  0  0  0  0  0
  184.8020  177.3050  139.2600 O   0  0  0  0  0  0  0  0  0  0  0  0
  186.9480  174.5490  134.9740 O   0  0  0  0  0  0  0  0  0  0  0  0
  188.2950  174.9240  135.1840 C   0  0  2  0  0  3  0  0  0  0  0  0
  184.4120  176.5930  134.9610 C   0  0  0  0  0  1  0  0  0  0  0  0
  183.9150  175.7510  136.1240 C   0  0  2  0  0  3  0  0  0  0  0  0
  179.5290  178.6210  135.0130 C   0  0  0  0  0  2  0  0  0  0  0  0
  184.4540  178.5210  141.1720 O   0  0  0  0  0  0  0  0  0  0  0  0
  180.2870  180.5820  140.0920 C   0  0  0  0  0  2  0  0  0  0  0  0
  187.6820  171.8110  135.5240 C   0  0  0  0  0  2  0  0  0  0  0  0
  185.4300  171.7320  136.9240 C   0  0  0  0  0  1  0  0  0  0  0  0
  186.1670  175.2190  137.1330 N   0  0  1  0  0  0  0  0  0  0  0  0
  182.5030  176.1800  136.4840 C   0  0  0  0  0  2  0  0  0  0  0  0
  183.0750  180.4190  139.3590 C   0  0  2  0  0  3  0  0  0  0  0  0
  189.1330  173.6320  135.2620 C   0  0  0  0  0  2  0  0  0  0  0  0
  184.4500  179.8020  139.1610 C   0  0  0  0  0  2  0  0  0  0  0  0
  180.7250  179.6150  139.2890 C   0  0  0  0  0  0  0  0  0  0  0  0
  188.4260  175.9320  136.3730 C   0  0  0  0  0  2  0  0  0  0  0  0
  188.4310  172.5900  134.5940 O   0  0  0  0  0  0  0  0  0  0  0  0
  180.2120  178.7720  136.3630 C   0  0  0  0  0  2  0  0  0  0  0  0
  186.5250  172.5470  136.2660 C   0  0  2  0  0  0  0  0  0  0  0  0
  187.2220  173.3130  137.2360 C   0  0  0  0  0  2  0  0  0  0  0  0
  178.9320  177.2290  134.8720 C   0  0  0  0  0  2  0  0  0  0  0  0
  184.5750  178.5170  139.9190 C   0  0  0  0  0  0  0  0  0  0  0  0
  186.6230  177.4660  137.6730 C   0  0  1  0  0  3  0  0  0  0  0  0
  182.0650  179.5330  138.8890 O   0  0  0  0  0  0  0  0  0  0  0  0
  186.9840  176.3540  136.7250 C   0  0  2  0  0  3  0  0  0  0  0  0
  180.0300  176.2160  134.5940 C   0  0  0  0  0  2  0  0  0  0  0  0
  180.1860  175.1620  136.8780 C   0  0  2  0  0  3  0  0  0  0  0  0
  184.8430  175.8000  137.3580 C   0  0  1  0  0  3  0  0  0  0  0  0
  183.0020  181.6260  138.6620 O   0  0  0  0  0  1  0  0  0  0  0  0
  179.7620  178.5780  138.8160 C   0  0  0  0  0  2  0  0  0  0  0  0
  181.7070  175.0120  137.0760 C   0  0  2  0  0  3  0  0  0  0  0  0
  179.1730  178.9330  137.4610 C   0  0  0  0  0  2  0  0  0  0  0  0
  178.9350  174.9620  138.6960 C   0  0  0  0  0  1  0  0  0  0  0  0
  179.5060  174.2220  137.6570 O   0  0  0  0  0  0  0  0  0  0  0  0
  181.8670  175.8320  139.2160 C   0  0  0  0  0  1  0  0  0  0  0  0
  182.0860  174.7050  138.4050 O   0  0  0  0  0  0  0  0  0  0  0  0
  186.9570  178.7640  137.2150 O   0  0  0  0  0  0  0  0  0  0  0  0
  188.2530  178.7650  136.6650 C   0  0  0  0  0  2  0  0  0  0  0  0
  189.2480  179.2840  137.6870 C   0  0  0  0  0  2  0  0  0  0  0  0
  188.9670  178.6680  139.0470 C   0  0  0  0  0  2  0  0  0  0  0  0
  190.1260  177.7860  139.4790 C   0  0  0  0  0  2  0  0  0  0  0  0
  189.6660  176.7370  140.3770 N   0  0  0  0  0  2  0  0  0  0  0  0
  188.6560  177.2900  141.1810 N   0  0  0  0  0  2  0  0  0  0  0  0
  191.3430  177.3890  144.8920 C   0  0  0  0  0  1  0  0  0  0  0  0
  190.1310  177.6540  144.0210 C   0  0  1  0  0  3  0  0  0  0  0  0
  190.0550  176.6870  143.0020 O   0  0  0  0  0  0  0  0  0  0  0  0
  188.8790  177.5950  144.8620 C   0  0  0  0  0  2  0  0  0  0  0  0
  187.5410  177.4460  143.6750 S   0  0  0  0  0  0  0  0  0  0  0  0
  188.7290  176.6850  142.5120 C   0  0  1  0  0  3  0  0  0  0  0  0
  1  4  1  1  0  0  0
  2 23  1  0  0  0  0
  2 14  1  0  0  0  0
  2 24  1  1  0  0  0
  3 31  1  0  0  0  0
  4 26  1  0  0  0  0
  5  6  1  0  0  0  0
  5  2  1  0  0  0  0
  6 17  1  1  0  0  0
  6 20  1  0  0  0  0
  8  7  1  6  0  0  0
  8 15  1  0  0  0  0
  8 32  1  0  0  0  0
  9 22  1  0  0  0  0
 12 23  1  0  0  0  0
 14 32  1  0  0  0  0
 15 35  1  0  0  0  0
 18 16  1  0  0  0  0
 18 26  1  0  0  0  0
 19 11  2  0  0  0  0
 20 29  1  0  0  0  0
 21 17  1  0  0  0  0
 21 12  1  0  0  0  0
 22 36  1  0  0  0  0
 23 13  1  0  0  0  0
 23 24  1  0  0  0  0
 25  9  1  0  0  0  0
 26 10  2  0  0  0  0
 27  1  1  0  0  0  0
 28 19  1  0  0  0  0
 28 16  1  0  0  0  0
 29 14  1  0  0  0  0
 29 27  1  0  0  0  0
 30 25  1  0  0  0  0
 30  3  1  0  0  0  0
 31 35  1  0  0  0  0
 31 38  1  0  0  0  0
 32  1  1  0  0  0  0
 33 16  1  0  0  0  0
 34 19  1  0  0  0  0
 35 40  1  0  0  0  0
 36 34  1  0  0  0  0
 38 37  1  0  0  0  0
 40 39  1  0  0  0  0
 41 27  1  0  0  0  0
 42 41  1  0  0  0  0
 42 43  1  0  0  0  0
 43 44  1  0  0  0  0
 44 45  1  0  0  0  0
 45 46  1  0  0  0  0
 46 47  1  0  0  0  0
 47 53  1  0  0  0  0
 49 51  1  0  0  0  0
 49 48  1  0  0  0  0
 50 49  1  0  0  0  0
 52 51  1  0  0  0  0
 53 50  1  0  0  0  0
 53 52  1  0  0  0  0
M  END
>  <MODEL>
2

>  <REMARK>
 VINA RESULT:      -4.7      2.357      6.652
  Name = 
  10 active torsions:
  status: ('A' for Active; 'I' for Inactive)
    1  A    between atoms: C_1  and  O_8
    2  A    between atoms: C_1  and  C_16
    3  A    between atoms: N_3  and  C_9
    4  A    between atoms: N_3  and  N_17
    5  A    between atoms: O_8  and  C_40
    6  A    between atoms: C_9  and  C_48
    7  A    between atoms: O_15  and  C_46
    8  A    between atoms: C_16  and  C_48
    9  A    between atoms: N_17  and  C_41
   10  A    between atoms: O_50  and  C_52
                            x       y       z     vdW  Elec       q    Type
                         _______ _______ _______ _____ _____    ______ ____

>  <TORSDO>
F 10

$$$$
=
 OpenBabel11062413593D

 53 58  0  0  1  0  0  0  0  0999 V2000
  185.3590  178.3710  140.8000 C   0  0  1  0  0  3  0  0  0  0  0  0
  181.9080  179.2050  139.5490 C   0  0  1  0  0  0  0  0  0  0  0  0
  185.4530  175.7970  135.0780 C   0  0  0  0  0  2  0  0  0  0  0  0
  186.4480  179.2820  140.7470 O   0  0  0  0  0  0  0  0  0  0  0  0
  181.0470  178.2490  140.1670 O   0  0  0  0  0  0  0  0  0  0  0  0
  180.6480  178.6950  141.4470 C   0  0  2  0  0  3  0  0  0  0  0  0
  183.5370  176.2340  139.5750 C   0  0  0  0  0  1  0  0  0  0  0  0
  184.0930  177.3940  138.7660 C   0  0  2  0  0  3  0  0  0  0  0  0
  187.3440  173.4310  137.2050 C   0  0  0  0  0  2  0  0  0  0  0  0
  188.5170  179.9690  141.4570 O   0  0  0  0  0  0  0  0  0  0  0  0
  191.2290  176.5420  139.5410 C   0  0  0  0  0  2  0  0  0  0  0  0
  179.5100  180.3970  139.0000 C   0  0  0  0  0  2  0  0  0  0  0  0
  181.5910  180.6980  137.3840 C   0  0  0  0  0  1  0  0  0  0  0  0
  183.2140  179.2610  140.2200 N   0  0  1  0  0  0  0  0  0  0  0  0
  185.3280  176.9310  138.0120 C   0  0  0  0  0  2  0  0  0  0  0  0
  189.1480  177.0720  141.4700 C   0  0  2  0  0  3  0  0  0  0  0  0
  179.5370  179.7470  141.2510 C   0  0  0  0  0  2  0  0  0  0  0  0
  187.9330  177.7450  142.0900 C   0  0  0  0  0  2  0  0  0  0  0  0
  189.9530  176.6010  139.1670 C   0  0  0  0  0  0  0  0  0  0  0  0
  181.8810  179.1120  142.3150 C   0  0  0  0  0  2  0  0  0  0  0  0
  178.9310  179.5390  139.9810 O   0  0  0  0  0  0  0  0  0  0  0  0
  187.9120  174.6290  137.9500 C   0  0  0  0  0  2  0  0  0  0  0  0
  181.0150  180.1540  138.6750 C   0  0  2  0  0  0  0  0  0  0  0  0
  181.6680  180.7380  139.7920 C   0  0  0  0  0  2  0  0  0  0  0  0
  186.8250  173.8520  135.8380 C   0  0  0  0  0  2  0  0  0  0  0  0
  187.6500  179.0570  141.4240 C   0  0  0  0  0  0  0  0  0  0  0  0
  184.5280  178.6370  142.0730 C   0  0  1  0  0  3  0  0  0  0  0  0
  188.9200  176.8220  140.0870 O   0  0  0  0  0  0  0  0  0  0  0  0
  183.1230  178.6370  141.5340 C   0  0  2  0  0  3  0  0  0  0  0  0
  185.4970  174.5760  135.9840 C   0  0  0  0  0  2  0  0  0  0  0  0
  186.2950  176.9420  135.6400 C   0  0  2  0  0  3  0  0  0  0  0  0
  184.3980  178.6460  139.6180 C   0  0  1  0  0  3  0  0  0  0  0  0
  189.3980  175.8680  142.1300 O   0  0  0  0  0  1  0  0  0  0  0  0
  189.6150  176.4470  137.7220 C   0  0  0  0  0  2  0  0  0  0  0  0
  185.5060  177.7210  136.7120 C   0  0  2  0  0  3  0  0  0  0  0  0
  189.2680  175.0090  137.3760 C   0  0  0  0  0  2  0  0  0  0  0  0
  188.0370  177.9390  134.7050 C   0  0  0  0  0  1  0  0  0  0  0  0
  186.6530  177.7950  134.5940 O   0  0  0  0  0  0  0  0  0  0  0  0
  187.2220  178.9790  137.5810 C   0  0  0  0  0  1  0  0  0  0  0  0
  185.9790  179.0390  136.9270 O   0  0  0  0  0  0  0  0  0  0  0  0
  184.7580  177.7140  143.1220 O   0  0  0  0  0  0  0  0  0  0  0  0
  184.3460  178.2650  144.3510 C   0  0  0  0  0  2  0  0  0  0  0  0
  185.5280  178.9100  145.0500 C   0  0  0  0  0  2  0  0  0  0  0  0
  185.4770  178.6160  146.5390 C   0  0  0  0  0  2  0  0  0  0  0  0
  186.8410  178.8400  147.1710 C   0  0  0  0  0  2  0  0  0  0  0  0
  187.3650  177.5960  147.7160 N   0  0  0  0  0  2  0  0  0  0  0  0
  188.7560  177.7490  147.8430 N   0  0  0  0  0  2  0  0  0  0  0  0
  190.9840  178.4720  143.9040 C   0  0  0  0  0  1  0  0  0  0  0  0
  190.7780  178.1200  145.3650 C   0  0  1  0  0  3  0  0  0  0  0  0
  189.4500  177.7060  145.5730 O   0  0  0  0  0  0  0  0  0  0  0  0
  191.7170  177.0040  145.7550 C   0  0  0  0  0  2  0  0  0  0  0  0
  191.0610  176.3780  147.3030 S   0  0  0  0  0  0  0  0  0  0  0  0
  189.4140  176.9810  146.7860 C   0  0  1  0  0  3  0  0  0  0  0  0
  1  4  1  6  0  0  0
  1 27  1  0  0  0  0
  2 24  1  1  0  0  0
  2  5  1  0  0  0  0
  2 14  1  0  0  0  0
  3 31  1  0  0  0  0
  3 30  1  0  0  0  0
  4 26  1  0  0  0  0
  5  6  1  0  0  0  0
  6 17  1  6  0  0  0
  6 20  1  0  0  0  0
  8  7  1  1  0  0  0
  8 32  1  0  0  0  0
  9 22  1  0  0  0  0
 12 21  1  0  0  0  0
 13 23  1  0  0  0  0
 14 29  1  0  0  0  0
 15  8  1  0  0  0  0
 16 18  1  0  0  0  0
 16 33  1  0  0  0  0
 19 11  2  0  0  0  0
 19 28  1  0  0  0  0
 21 17  1  0  0  0  0
 23 12  1  0  0  0  0
 23  2  1  0  0  0  0
 23 24  1  0  0  0  0
 25 30  1  0  0  0  0
 25  9  1  0  0  0  0
 26 10  2  0  0  0  0
 26 18  1  0  0  0  0
 27 41  1  0  0  0  0
 28 16  1  0  0  0  0
 29 27  1  0  0  0  0
 29 20  1  0  0  0  0
 31 35  1  0  0  0  0
 32 14  1  0  0  0  0
 32  1  1  0  0  0  0
 34 19  1  0  0  0  0
 35 40  1  0  0  0  0
 35 15  1  0  0  0  0
 36 34  1  0  0  0  0
 36 22  1  0  0  0  0
 38 37  1  0  0  0  0
 38 31  1  0  0  0  0
 40 39  1  0  0  0  0
 41 42  1  0  0  0  0
 42 43  1  0  0  0  0
 43 44  1  0  0  0  0
 44 45  1  0  0  0  0
 45 46  1  0  0  0  0
 46 47  1  0  0  0  0
 48 49  1  0  0  0  0
 49 50  1  0  0  0  0
 49 51  1  0  0  0  0
 50 53  1  0  0  0  0
 51 52  1  0  0  0  0
 53 52  1  0  0  0  0
 53 47  1  0  0  0  0
M  END
>  <MODEL>
3

>  <REMARK>
 VINA RESULT:      -4.2      2.473      3.907
  Name = 
  10 active torsions:
  status: ('A' for Active; 'I' for Inactive)
    1  A    between atoms: C_1  and  O_8
    2  A    between atoms: C_1  and  C_16
    3  A    between atoms: N_3  and  C_9
    4  A    between atoms: N_3  and  N_17
    5  A    between atoms: O_8  and  C_40
    6  A    between atoms: C_9  and  C_48
    7  A    between atoms: O_15  and  C_46
    8  A    between atoms: C_16  and  C_48
    9  A    between atoms: N_17  and  C_41
   10  A    between atoms: O_50  and  C_52
                            x       y       z     vdW  Elec       q    Type
                         _______ _______ _______ _____ _____    ______ ____

>  <TORSDO>
F 10

$$$$
