=
 OpenBabel11062414343D

 31 36  0  0  1  0  0  0  0  0999 V2000
  188.9580  177.0050  144.9730 C   0  0  0  0  0  0  0  0  0  0  0  0
  189.7990  177.0040  143.8480 C   0  0  0  0  0  0  0  0  0  0  0  0
  191.7130  177.0010  145.2900 N   0  0  0  0  0  0  0  0  0  0  0  0
  191.1890  177.0050  144.0360 C   0  0  0  0  0  3  0  0  0  0  0  0
  190.9180  176.9980  146.3930 C   0  0  0  0  0  0  0  0  0  0  0  0
  189.5300  177.0000  146.2540 C   0  0  0  0  0  3  0  0  0  0  0  0
  191.5020  176.9940  147.6900 N   0  0  0  0  0  1  0  0  0  0  0  0
  190.7710  177.0750  137.7730 C   0  0  0  0  0  2  0  0  0  0  0  0
  190.2460  176.6100  141.4210 C   0  0  0  0  0  2  0  0  0  0  0  0
  189.7540  176.8160  140.0150 C   0  0  0  0  0  0  0  0  0  0  0  0
  187.9180  178.3150  140.7910 C   0  0  0  0  0  2  0  0  0  0  0  0
  187.0340  178.1240  137.9350 C   0  0  0  0  0  2  0  0  0  0  0  0
  189.5190  177.8240  137.2920 C   0  0  2  0  0  3  0  0  0  0  0  0
  186.7930  177.7680  136.4430 C   0  0  0  0  0  2  0  0  0  0  0  0
  188.7680  177.6840  139.7130 C   0  0  0  0  0  0  0  0  0  0  0  0
  188.6410  178.3930  142.1310 C   0  0  0  0  0  2  0  0  0  0  0  0
  187.9610  178.2350  135.7200 N   0  0  2  0  0  0  0  0  0  0  0  0
  188.6320  177.4320  134.7090 C   0  0  0  0  0  2  0  0  0  0  0  0
  190.4530  176.1010  138.9020 C   0  0  0  0  0  2  0  0  0  0  0  0
  188.4550  177.9220  138.3300 N   0  0  0  0  0  0  0  0  0  0  0  0
  188.8770  177.1360  136.1150 C   0  0  1  0  0  3  0  0  0  0  0  0
  189.2110  177.0220  142.4690 C   0  0  2  0  0  3  0  0  0  0  0  0
  187.5690  177.0080  144.7980 O   0  0  0  0  0  0  0  0  0  0  0  0
  186.6570  177.5180  145.7660 C   0  0  0  0  0  2  0  0  0  0  0  0
  185.9150  178.7290  145.2140 C   0  0  0  0  0  2  0  0  0  0  0  0
  182.3470  178.8780  143.8050 C   0  0  0  0  0  2  0  0  0  0  0  0
  182.7590  178.8270  142.4370 O   0  0  0  0  0  0  0  0  0  0  0  0
  184.0530  178.4400  142.0600 C   0  0  0  0  0  3  0  0  0  0  0  0
  184.6740  178.3060  144.4450 C   0  0  2  0  0  3  0  0  0  0  0  0
  184.9930  178.2100  142.9800 C   0  0  0  0  0  3  0  0  0  0  0  0
  183.5210  179.2800  144.6930 C   0  0  0  0  0  2  0  0  0  0  0  0
  1  6  1  0  0  0  0
  2  4  1  0  0  0  0
  2  1  2  0  0  0  0
  3  5  1  0  0  0  0
  4  3  2  0  0  0  0
  5  7  1  0  0  0  0
  6  5  2  0  0  0  0
  8 19  1  0  0  0  0
  9 22  1  0  0  0  0
 10  9  1  0  0  0  0
 11 16  1  0  0  0  0
 12 20  1  0  0  0  0
 13  8  1  1  0  0  0
 13 20  1  0  0  0  0
 14 12  1  0  0  0  0
 15 10  2  0  0  0  0
 15 11  1  0  0  0  0
 16 22  1  0  0  0  0
 17 18  1  6  0  0  0
 17 21  1  0  0  0  0
 17 14  1  0  0  0  0
 19 10  1  0  0  0  0
 20 15  1  0  0  0  0
 21 18  1  6  0  0  0
 21 13  1  0  0  0  0
 22  2  1  1  0  0  0
 23  1  1  0  0  0  0
 23 24  1  0  0  0  0
 25 24  1  0  0  0  0
 26 31  1  0  0  0  0
 27 26  1  0  0  0  0
 28 27  1  0  0  0  0
 28 30  2  0  0  0  0
 29 31  1  0  0  0  0
 29 25  1  1  0  0  0
 30 29  1  0  0  0  0
M  END
>  <MODEL>
1

>  <REMARK>
 VINA RESULT:      -9.5      0.000      0.000
  Name = 
  5 active torsions:
  status: ('A' for Active; 'I' for Inactive)
    1  A    between atoms: C_1  and  O_28
    2  A    between atoms: C_7  and  C_30
    3  A    between atoms: C_20  and  C_24
    4  A    between atoms: C_20  and  O_28
    5  A    between atoms: C_24  and  C_25
                            x       y       z     vdW  Elec       q    Type
                         _______ _______ _______ _____ _____    ______ ____

>  <TORSDO>
F 5

$$$$
=
 OpenBabel11062414343D

 31 36  0  0  1  0  0  0  0  0999 V2000
  190.4820  177.5060  144.9360 C   0  0  0  0  0  0  0  0  0  0  0  0
  189.1850  177.5150  145.4720 C   0  0  0  0  0  0  0  0  0  0  0  0
  190.0480  176.6950  147.5510 N   0  0  0  0  0  0  0  0  0  0  0  0
  188.9920  177.0970  146.7970 C   0  0  0  0  0  3  0  0  0  0  0  0
  191.3130  176.6820  147.0540 C   0  0  0  0  0  0  0  0  0  0  0  0
  191.5520  177.0870  145.7400 C   0  0  0  0  0  3  0  0  0  0  0  0
  192.3950  176.2550  147.8730 N   0  0  0  0  0  1  0  0  0  0  0  0
  183.1450  178.6290  145.0970 C   0  0  0  0  0  2  0  0  0  0  0  0
  186.8280  178.3470  145.4930 C   0  0  0  0  0  2  0  0  0  0  0  0
  185.5850  178.5860  144.6810 C   0  0  0  0  0  0  0  0  0  0  0  0
  186.5470  177.4000  142.7100 C   0  0  0  0  0  2  0  0  0  0  0  0
  184.0950  178.4370  141.3350 C   0  0  0  0  0  2  0  0  0  0  0  0
  182.8870  178.3120  143.6160 C   0  0  2  0  0  3  0  0  0  0  0  0
  182.8000  179.1720  140.8950 C   0  0  0  0  0  2  0  0  0  0  0  0
  185.4080  178.0550  143.4550 C   0  0  0  0  0  0  0  0  0  0  0  0
  187.6190  176.8550  143.6470 C   0  0  0  0  0  2  0  0  0  0  0  0
  181.7300  178.6340  141.7130 N   0  0  2  0  0  0  0  0  0  0  0  0
  180.7290  179.4770  142.3520 C   0  0  0  0  0  2  0  0  0  0  0  0
  184.4660  179.3630  145.3000 C   0  0  0  0  0  2  0  0  0  0  0  0
  184.1340  178.2190  142.8070 N   0  0  0  0  0  0  0  0  0  0  0  0
  182.0530  179.3790  142.9560 C   0  0  1  0  0  3  0  0  0  0  0  0
  188.0240  177.9470  144.6270 C   0  0  2  0  0  3  0  0  0  0  0  0
  190.6870  177.9180  143.6130 O   0  0  0  0  0  0  0  0  0  0  0  0
  191.4990  177.2040  142.6860 C   0  0  0  0  0  2  0  0  0  0  0  0
  190.6320  176.4560  141.6810 C   0  0  0  0  0  2  0  0  0  0  0  0
  190.2300  177.2160  137.9390 C   0  0  0  0  0  2  0  0  0  0  0  0
  188.9500  177.8350  138.0820 O   0  0  0  0  0  0  0  0  0  0  0  0
  188.4550  178.2490  139.3270 C   0  0  0  0  0  3  0  0  0  0  0  0
  190.4430  177.2680  140.4100 C   0  0  2  0  0  3  0  0  0  0  0  0
  189.1200  177.9770  140.4520 C   0  0  0  0  0  3  0  0  0  0  0  0
  190.5480  176.3750  139.1720 C   0  0  0  0  0  2  0  0  0  0  0  0
  1  2  2  0  0  0  0
  1  6  1  0  0  0  0
  2  4  1  0  0  0  0
  4  3  2  0  0  0  0
  5  3  1  0  0  0  0
  5  7  1  0  0  0  0
  6  5  2  0  0  0  0
  8 19  1  0  0  0  0
 10 19  1  0  0  0  0
 10  9  1  0  0  0  0
 11 15  1  0  0  0  0
 11 16  1  0  0  0  0
 12 20  1  0  0  0  0
 13  8  1  1  0  0  0
 14 12  1  0  0  0  0
 15 10  2  0  0  0  0
 16 22  1  0  0  0  0
 17 14  1  6  0  0  0
 17 18  1  0  0  0  0
 17 21  1  0  0  0  0
 20 15  1  0  0  0  0
 20 13  1  0  0  0  0
 21 18  1  1  0  0  0
 21 13  1  0  0  0  0
 22  2  1  1  0  0  0
 22  9  1  0  0  0  0
 23  1  1  0  0  0  0
 24 23  1  0  0  0  0
 25 24  1  0  0  0  0
 26 27  1  0  0  0  0
 26 31  1  0  0  0  0
 27 28  1  0  0  0  0
 28 30  2  0  0  0  0
 29 30  1  0  0  0  0
 29 25  1  1  0  0  0
 31 29  1  0  0  0  0
M  END
>  <MODEL>
2

>  <REMARK>
 VINA RESULT:      -9.3      2.768      6.384
  Name = 
  5 active torsions:
  status: ('A' for Active; 'I' for Inactive)
    1  A    between atoms: C_1  and  O_28
    2  A    between atoms: C_7  and  C_30
    3  A    between atoms: C_20  and  C_24
    4  A    between atoms: C_20  and  O_28
    5  A    between atoms: C_24  and  C_25
                            x       y       z     vdW  Elec       q    Type
                         _______ _______ _______ _____ _____    ______ ____

>  <TORSDO>
F 5

$$$$
=
 OpenBabel11062414343D

 31 36  0  0  1  0  0  0  0  0999 V2000
  184.4520  179.1300  143.6850 C   0  0  0  0  0  0  0  0  0  0  0  0
  184.7720  178.8020  142.3580 C   0  0  0  0  0  0  0  0  0  0  0  0
  182.4380  178.7040  141.8280 N   0  0  0  0  0  0  0  0  0  0  0  0
  183.7340  178.5880  141.4390 C   0  0  0  0  0  3  0  0  0  0  0  0
  182.1050  179.0240  143.1060 C   0  0  0  0  0  0  0  0  0  0  0  0
  183.1040  179.2430  144.0560 C   0  0  0  0  0  3  0  0  0  0  0  0
  180.7360  179.1370  143.4780 N   0  0  0  0  0  1  0  0  0  0  0  0
  188.8020  176.9650  138.0870 C   0  0  0  0  0  2  0  0  0  0  0  0
  186.3250  178.4310  140.4350 C   0  0  0  0  0  2  0  0  0  0  0  0
  187.7270  178.0820  140.0150 C   0  0  0  0  0  0  0  0  0  0  0  0
  188.3800  177.5420  142.3610 C   0  0  0  0  0  2  0  0  0  0  0  0
  191.1250  177.3470  141.1760 C   0  0  0  0  0  2  0  0  0  0  0  0
  190.0080  176.6050  138.9670 C   0  0  2  0  0  3  0  0  0  0  0  0
  192.4050  177.4020  140.2980 C   0  0  0  0  0  2  0  0  0  0  0  0
  188.6310  177.5650  140.8710 C   0  0  0  0  0  0  0  0  0  0  0  0
  186.8940  177.5370  142.7010 C   0  0  0  0  0  2  0  0  0  0  0  0
  192.2300  176.4020  139.2630 N   0  0  2  0  0  0  0  0  0  0  0  0
  192.5370  176.6590  137.8630 C   0  0  0  0  0  2  0  0  0  0  0  0
  188.0970  178.2260  138.5730 C   0  0  0  0  0  2  0  0  0  0  0  0
  189.9020  177.1310  140.3560 N   0  0  0  0  0  0  0  0  0  0  0  0
  191.2890  177.1750  138.4140 C   0  0  1  0  0  3  0  0  0  0  0  0
  186.2060  178.6630  141.9420 C   0  0  2  0  0  3  0  0  0  0  0  0
  185.4800  179.3420  144.6130 O   0  0  0  0  0  0  0  0  0  0  0  0
  185.3840  178.9800  145.9870 C   0  0  0  0  0  2  0  0  0  0  0  0
  186.2150  177.7350  146.2710 C   0  0  0  0  0  2  0  0  0  0  0  0
  189.2450  178.1510  148.5920 C   0  0  0  0  0  2  0  0  0  0  0  0
  190.1130  177.3390  147.7980 O   0  0  0  0  0  0  0  0  0  0  0  0
  189.8060  176.9900  146.4750 C   0  0  0  0  0  3  0  0  0  0  0  0
  187.6200  178.1060  146.7190 C   0  0  2  0  0  3  0  0  0  0  0  0
  188.6270  177.3130  145.9380 C   0  0  0  0  0  3  0  0  0  0  0  0
  187.7890  177.8810  148.2230 C   0  0  0  0  0  2  0  0  0  0  0  0
  1  6  1  0  0  0  0
  1 23  1  0  0  0  0
  2  1  2  0  0  0  0
  3  5  1  0  0  0  0
  4  3  2  0  0  0  0
  4  2  1  0  0  0  0
  5  7  1  0  0  0  0
  5  6  2  0  0  0  0
  8 19  1  0  0  0  0
  9 22  1  0  0  0  0
 10  9  1  0  0  0  0
 10 15  2  0  0  0  0
 11 16  1  0  0  0  0
 13  8  1  6  0  0  0
 13 20  1  0  0  0  0
 14 12  1  0  0  0  0
 15 11  1  0  0  0  0
 17 18  1  6  0  0  0
 17 14  1  0  0  0  0
 19 10  1  0  0  0  0
 20 15  1  0  0  0  0
 20 12  1  0  0  0  0
 21 18  1  6  0  0  0
 21 13  1  0  0  0  0
 21 17  1  0  0  0  0
 22  2  1  1  0  0  0
 22 16  1  0  0  0  0
 23 24  1  0  0  0  0
 24 25  1  0  0  0  0
 27 26  1  0  0  0  0
 28 27  1  0  0  0  0
 29 25  1  6  0  0  0
 29 31  1  0  0  0  0
 30 28  2  0  0  0  0
 30 29  1  0  0  0  0
 31 26  1  0  0  0  0
M  END
>  <MODEL>
3

>  <REMARK>
 VINA RESULT:      -8.9      2.765      5.730
  Name = 
  5 active torsions:
  status: ('A' for Active; 'I' for Inactive)
    1  A    between atoms: C_1  and  O_28
    2  A    between atoms: C_7  and  C_30
    3  A    between atoms: C_20  and  C_24
    4  A    between atoms: C_20  and  O_28
    5  A    between atoms: C_24  and  C_25
                            x       y       z     vdW  Elec       q    Type
                         _______ _______ _______ _____ _____    ______ ____

>  <TORSDO>
F 5

$$$$
=
 OpenBabel11062414343D

 31 36  0  0  1  0  0  0  0  0999 V2000
  186.5900  177.5120  145.0650 C   0  0  0  0  0  0  0  0  0  0  0  0
  185.3870  178.2360  145.0550 C   0  0  0  0  0  0  0  0  0  0  0  0
  185.9120  179.1220  147.2180 N   0  0  0  0  0  0  0  0  0  0  0  0
  185.0660  179.0400  146.1580 C   0  0  0  0  0  3  0  0  0  0  0  0
  187.0830  178.4330  147.2490 C   0  0  0  0  0  0  0  0  0  0  0  0
  187.4430  177.6180  146.1750 C   0  0  0  0  0  3  0  0  0  0  0  0
  187.9430  178.5430  148.3760 N   0  0  0  0  0  1  0  0  0  0  0  0
  184.1850  179.7000  139.2010 C   0  0  0  0  0  2  0  0  0  0  0  0
  185.1590  178.5030  142.5800 C   0  0  0  0  0  2  0  0  0  0  0  0
  184.2050  178.6080  141.4220 C   0  0  0  0  0  0  0  0  0  0  0  0
  182.2370  178.7320  142.9490 C   0  0  0  0  0  2  0  0  0  0  0  0
  180.6880  178.5040  140.3950 C   0  0  0  0  0  2  0  0  0  0  0  0
  182.6490  179.7050  139.2170 C   0  0  2  0  0  3  0  0  0  0  0  0
  180.1820  178.2930  138.9420 C   0  0  0  0  0  2  0  0  0  0  0  0
  182.8860  178.8300  141.5890 C   0  0  0  0  0  0  0  0  0  0  0  0
  183.2210  178.9980  144.0830 C   0  0  0  0  0  2  0  0  0  0  0  0
  180.6750  179.4200  138.1740 N   0  0  2  0  0  0  0  0  0  0  0  0
  181.2830  179.2700  136.8600 C   0  0  0  0  0  2  0  0  0  0  0  0
  184.7600  178.5590  140.0340 C   0  0  0  0  0  2  0  0  0  0  0  0
  182.0700  179.0550  140.4260 N   0  0  0  0  0  0  0  0  0  0  0  0
  182.0790  178.9560  138.0400 C   0  0  1  0  0  3  0  0  0  0  0  0
  184.4550  178.1290  143.8860 C   0  0  2  0  0  3  0  0  0  0  0  0
  186.9200  176.7020  143.9720 O   0  0  0  0  0  0  0  0  0  0  0  0
  188.2600  176.4320  143.5700 C   0  0  0  0  0  2  0  0  0  0  0  0
  188.8260  177.6030  142.7760 C   0  0  0  0  0  2  0  0  0  0  0  0
  188.4920  178.1760  138.9940 C   0  0  0  0  0  2  0  0  0  0  0  0
  189.8470  177.8270  138.7030 O   0  0  0  0  0  0  0  0  0  0  0  0
  190.6600  177.1510  139.6250 C   0  0  0  0  0  3  0  0  0  0  0  0
  188.8420  177.2960  141.2870 C   0  0  2  0  0  3  0  0  0  0  0  0
  190.2280  176.9050  140.8640 C   0  0  0  0  0  3  0  0  0  0  0  0
  188.3390  178.4940  140.4780 C   0  0  0  0  0  2  0  0  0  0  0  0
  1  6  1  0  0  0  0
  2  1  2  0  0  0  0
  2  4  1  0  0  0  0
  3  5  1  0  0  0  0
  4  3  2  0  0  0  0
  5  7  1  0  0  0  0
  6  5  2  0  0  0  0
  8 19  1  0  0  0  0
  9 22  1  0  0  0  0
 10 15  2  0  0  0  0
 10  9  1  0  0  0  0
 11 16  1  0  0  0  0
 12 20  1  0  0  0  0
 13  8  1  1  0  0  0
 13 20  1  0  0  0  0
 14 12  1  0  0  0  0
 15 11  1  0  0  0  0
 17 18  1  6  0  0  0
 17 14  1  0  0  0  0
 19 10  1  0  0  0  0
 20 15  1  0  0  0  0
 21 18  1  6  0  0  0
 21 17  1  0  0  0  0
 21 13  1  0  0  0  0
 22 16  1  0  0  0  0
 22  2  1  1  0  0  0
 23  1  1  0  0  0  0
 24 23  1  0  0  0  0
 25 24  1  0  0  0  0
 26 31  1  0  0  0  0
 27 26  1  0  0  0  0
 27 28  1  0  0  0  0
 28 30  2  0  0  0  0
 29 25  1  1  0  0  0
 30 29  1  0  0  0  0
 31 29  1  0  0  0  0
M  END
>  <MODEL>
4

>  <REMARK>
 VINA RESULT:      -8.7      3.306      6.035
  Name = 
  5 active torsions:
  status: ('A' for Active; 'I' for Inactive)
    1  A    between atoms: C_1  and  O_28
    2  A    between atoms: C_7  and  C_30
    3  A    between atoms: C_20  and  C_24
    4  A    between atoms: C_20  and  O_28
    5  A    between atoms: C_24  and  C_25
                            x       y       z     vdW  Elec       q    Type
                         _______ _______ _______ _____ _____    ______ ____

>  <TORSDO>
F 5

$$$$
=
 OpenBabel11062414343D

 31 36  0  0  1  0  0  0  0  0999 V2000
  188.8670  176.9980  145.2970 C   0  0  0  0  0  0  0  0  0  0  0  0
  187.7890  177.4900  146.0500 C   0  0  0  0  0  0  0  0  0  0  0  0
  189.2470  177.7880  147.9280 N   0  0  0  0  0  0  0  0  0  0  0  0
  188.0070  177.8800  147.3790 C   0  0  0  0  0  3  0  0  0  0  0  0
  190.3060  177.3180  147.2170 C   0  0  0  0  0  0  0  0  0  0  0  0
  190.1350  176.9150  145.8920 C   0  0  0  0  0  3  0  0  0  0  0  0
  191.5900  177.2350  147.8240 N   0  0  0  0  0  1  0  0  0  0  0  0
  184.3320  179.1060  141.2240 C   0  0  0  0  0  2  0  0  0  0  0  0
  186.5040  177.7690  143.9250 C   0  0  0  0  0  2  0  0  0  0  0  0
  185.1630  178.0660  143.3100 C   0  0  0  0  0  0  0  0  0  0  0  0
  184.1820  178.6400  145.5300 C   0  0  0  0  0  2  0  0  0  0  0  0
  181.6200  178.7250  143.9790 C   0  0  0  0  0  2  0  0  0  0  0  0
  183.0070  179.4490  141.9230 C   0  0  2  0  0  3  0  0  0  0  0  0
  180.4730  178.6120  142.9380 C   0  0  0  0  0  2  0  0  0  0  0  0
  184.1370  178.5750  144.0210 C   0  0  0  0  0  0  0  0  0  0  0  0
  185.6070  178.6980  146.0680 C   0  0  0  0  0  2  0  0  0  0  0  0
  180.7610  179.5930  141.9090 N   0  0  2  0  0  0  0  0  0  0  0  0
  180.6550  179.2950  140.4880 C   0  0  0  0  0  2  0  0  0  0  0  0
  184.9970  177.8780  141.8350 C   0  0  0  0  0  2  0  0  0  0  0  0
  182.9380  178.9590  143.3270 N   0  0  0  0  0  0  0  0  0  0  0  0
  181.8290  178.8290  141.2170 C   0  0  1  0  0  3  0  0  0  0  0  0
  186.4220  177.5760  145.4400 C   0  0  2  0  0  3  0  0  0  0  0  0
  188.6610  176.6020  143.9700 O   0  0  0  0  0  0  0  0  0  0  0  0
  189.7110  176.1800  143.1050 C   0  0  0  0  0  2  0  0  0  0  0  0
  190.0920  177.2990  142.1430 C   0  0  0  0  0  2  0  0  0  0  0  0
  187.7560  178.2520  139.2480 C   0  0  0  0  0  2  0  0  0  0  0  0
  188.7680  178.1520  138.2440 O   0  0  0  0  0  0  0  0  0  0  0  0
  189.9910  177.5060  138.4760 C   0  0  0  0  0  3  0  0  0  0  0  0
  189.3330  177.1750  140.8310 C   0  0  2  0  0  3  0  0  0  0  0  0
  190.3050  177.0530  139.6930 C   0  0  0  0  0  3  0  0  0  0  0  0
  188.3960  178.3670  140.6290 C   0  0  0  0  0  2  0  0  0  0  0  0
  1  6  2  0  0  0  0
  1  2  1  0  0  0  0
  2  4  2  0  0  0  0
  4  3  1  0  0  0  0
  5  7  1  0  0  0  0
  5  3  2  0  0  0  0
  6  5  1  0  0  0  0
  8 19  1  0  0  0  0
  9 22  1  0  0  0  0
 10  9  1  0  0  0  0
 10 15  2  0  0  0  0
 11 16  1  0  0  0  0
 13  8  1  6  0  0  0
 13 20  1  0  0  0  0
 14 12  1  0  0  0  0
 15 11  1  0  0  0  0
 17 18  1  6  0  0  0
 17 14  1  0  0  0  0
 19 10  1  0  0  0  0
 20 12  1  0  0  0  0
 20 15  1  0  0  0  0
 21 18  1  6  0  0  0
 21 17  1  0  0  0  0
 21 13  1  0  0  0  0
 22  2  1  1  0  0  0
 22 16  1  0  0  0  0
 23  1  1  0  0  0  0
 24 23  1  0  0  0  0
 25 24  1  0  0  0  0
 26 31  1  0  0  0  0
 27 28  1  0  0  0  0
 27 26  1  0  0  0  0
 28 30  2  0  0  0  0
 29 25  1  1  0  0  0
 30 29  1  0  0  0  0
 31 29  1  0  0  0  0
M  END
>  <MODEL>
5

>  <REMARK>
 VINA RESULT:      -8.7      2.825      6.178
  Name = 
  5 active torsions:
  status: ('A' for Active; 'I' for Inactive)
    1  A    between atoms: C_1  and  O_28
    2  A    between atoms: C_7  and  C_30
    3  A    between atoms: C_20  and  C_24
    4  A    between atoms: C_20  and  O_28
    5  A    between atoms: C_24  and  C_25
                            x       y       z     vdW  Elec       q    Type
                         _______ _______ _______ _____ _____    ______ ____

>  <TORSDO>
F 5

$$$$
=
 OpenBabel11062414343D

 31 36  0  0  1  0  0  0  0  0999 V2000
  182.8290  178.2530  141.2760 C   0  0  0  0  0  0  0  0  0  0  0  0
  183.4640  178.5230  142.4990 C   0  0  0  0  0  0  0  0  0  0  0  0
  181.5380  179.7530  143.2180 N   0  0  0  0  0  0  0  0  0  0  0  0
  182.7910  179.2870  143.4630 C   0  0  0  0  0  3  0  0  0  0  0  0
  180.9030  179.5010  142.0440 C   0  0  0  0  0  0  0  0  0  0  0  0
  181.5350  178.7480  141.0540 C   0  0  0  0  0  3  0  0  0  0  0  0
  179.5910  180.0060  141.8220 N   0  0  0  0  0  1  0  0  0  0  0  0
  188.1410  177.9090  146.4490 C   0  0  0  0  0  2  0  0  0  0  0  0
  185.1450  177.9370  144.2530 C   0  0  0  0  0  2  0  0  0  0  0  0
  186.5900  177.6310  144.5410 C   0  0  0  0  0  0  0  0  0  0  0  0
  187.2640  178.2360  142.2180 C   0  0  0  0  0  2  0  0  0  0  0  0
  189.9150  177.1380  143.0810 C   0  0  0  0  0  2  0  0  0  0  0  0
  189.3340  177.8980  145.4810 C   0  0  2  0  0  3  0  0  0  0  0  0
  191.1110  176.4420  143.7860 C   0  0  0  0  0  2  0  0  0  0  0  0
  187.5730  177.8780  143.6530 C   0  0  0  0  0  0  0  0  0  0  0  0
  185.8930  178.8820  142.0610 C   0  0  0  0  0  2  0  0  0  0  0  0
  191.4220  177.2500  144.9490 N   0  0  2  0  0  0  0  0  0  0  0  0
  191.6810  176.6740  146.2600 C   0  0  0  0  0  2  0  0  0  0  0  0
  186.9540  177.1250  145.9010 C   0  0  0  0  0  2  0  0  0  0  0  0
  188.9380  177.6860  144.0610 N   0  0  0  0  0  0  0  0  0  0  0  0
  190.3010  176.7880  145.8040 C   0  0  1  0  0  3  0  0  0  0  0  0
  184.8510  178.0150  142.7540 C   0  0  2  0  0  3  0  0  0  0  0  0
  183.4920  177.4940  140.3040 O   0  0  0  0  0  0  0  0  0  0  0  0
  183.5860  177.8790  138.9360 C   0  0  0  0  0  2  0  0  0  0  0  0
  184.7970  178.7770  138.7160 C   0  0  0  0  0  2  0  0  0  0  0  0
  188.0320  177.1250  137.4690 C   0  0  0  0  0  2  0  0  0  0  0  0
  187.3880  175.9300  137.0210 O   0  0  0  0  0  0  0  0  0  0  0  0
  185.9980  175.8500  136.8480 C   0  0  0  0  0  3  0  0  0  0  0  0
  185.7840  178.1350  137.7530 C   0  0  2  0  0  3  0  0  0  0  0  0
  185.2050  176.8620  137.2060 C   0  0  0  0  0  3  0  0  0  0  0  0
  187.1260  177.8770  138.4400 C   0  0  0  0  0  2  0  0  0  0  0  0
  1  2  1  0  0  0  0
  2  4  2  0  0  0  0
  3  4  1  0  0  0  0
  5  3  2  0  0  0  0
  6  1  2  0  0  0  0
  6  5  1  0  0  0  0
  7  5  1  0  0  0  0
  9 10  1  0  0  0  0
 10 19  1  0  0  0  0
 11 15  1  0  0  0  0
 12 14  1  0  0  0  0
 12 20  1  0  0  0  0
 13 21  1  0  0  0  0
 13  8  1  1  0  0  0
 15 20  1  0  0  0  0
 15 10  2  0  0  0  0
 16 11  1  0  0  0  0
 16 22  1  0  0  0  0
 17 14  1  6  0  0  0
 17 21  1  0  0  0  0
 17 18  1  0  0  0  0
 19  8  1  0  0  0  0
 20 13  1  0  0  0  0
 21 18  1  1  0  0  0
 22  2  1  1  0  0  0
 22  9  1  0  0  0  0
 23  1  1  0  0  0  0
 24 23  1  0  0  0  0
 25 24  1  0  0  0  0
 26 31  1  0  0  0  0
 27 26  1  0  0  0  0
 28 27  1  0  0  0  0
 28 30  2  0  0  0  0
 29 31  1  0  0  0  0
 29 25  1  1  0  0  0
 30 29  1  0  0  0  0
M  END
>  <MODEL>
6

>  <REMARK>
 VINA RESULT:      -8.6      3.151      7.921
  Name = 
  5 active torsions:
  status: ('A' for Active; 'I' for Inactive)
    1  A    between atoms: C_1  and  O_28
    2  A    between atoms: C_7  and  C_30
    3  A    between atoms: C_20  and  C_24
    4  A    between atoms: C_20  and  O_28
    5  A    between atoms: C_24  and  C_25
                            x       y       z     vdW  Elec       q    Type
                         _______ _______ _______ _____ _____    ______ ____

>  <TORSDO>
F 5

$$$$
=
 OpenBabel11062414343D

 31 36  0  0  1  0  0  0  0  0999 V2000
  190.7900  176.8520  138.9230 C   0  0  0  0  0  0  0  0  0  0  0  0
  191.4180  177.1500  140.1420 C   0  0  0  0  0  0  0  0  0  0  0  0
  193.5560  176.8280  139.1090 N   0  0  0  0  0  0  0  0  0  0  0  0
  192.8180  177.1280  140.2110 C   0  0  0  0  0  3  0  0  0  0  0  0
  192.9690  176.5400  137.9180 C   0  0  0  0  0  0  0  0  0  0  0  0
  191.5780  176.5460  137.8030 C   0  0  0  0  0  3  0  0  0  0  0  0
  193.7730  176.2300  136.7860 N   0  0  0  0  0  1  0  0  0  0  0  0
  190.9630  177.1290  146.2780 C   0  0  0  0  0  2  0  0  0  0  0  0
  191.4600  177.5050  142.6160 C   0  0  0  0  0  2  0  0  0  0  0  0
  190.6400  177.6130  143.8730 C   0  0  0  0  0  0  0  0  0  0  0  0
  188.5650  176.9230  142.6740 C   0  0  0  0  0  2  0  0  0  0  0  0
  187.2500  177.6550  145.2650 C   0  0  0  0  0  2  0  0  0  0  0  0
  189.4430  176.9800  146.4520 C   0  0  2  0  0  3  0  0  0  0  0  0
  186.8630  178.1840  146.6730 C   0  0  0  0  0  2  0  0  0  0  0  0
  189.3470  177.2360  143.9280 C   0  0  0  0  0  0  0  0  0  0  0  0
  189.4600  176.4670  141.5280 C   0  0  0  0  0  2  0  0  0  0  0  0
  187.5580  177.3410  147.6270 N   0  0  2  0  0  0  0  0  0  0  0  0
  188.2660  177.8770  148.7800 C   0  0  0  0  0  2  0  0  0  0  0  0
  191.3150  178.0660  145.1290 C   0  0  0  0  0  2  0  0  0  0  0  0
  188.6780  177.2430  145.2010 N   0  0  0  0  0  0  0  0  0  0  0  0
  188.9020  177.9500  147.4710 C   0  0  1  0  0  3  0  0  0  0  0  0
  190.5950  177.4670  141.3550 C   0  0  2  0  0  3  0  0  0  0  0  0
  189.3910  176.8660  138.8430 O   0  0  0  0  0  0  0  0  0  0  0  0
  188.6610  177.7800  138.0310 C   0  0  0  0  0  2  0  0  0  0  0  0
  187.1780  177.4300  138.0320 C   0  0  0  0  0  2  0  0  0  0  0  0
  184.0820  179.4080  139.1450 C   0  0  0  0  0  2  0  0  0  0  0  0
  184.4040  179.3580  140.5370 O   0  0  0  0  0  0  0  0  0  0  0  0
  185.6810  179.0030  140.9960 C   0  0  0  0  0  3  0  0  0  0  0  0
  186.3550  178.5390  138.6680 C   0  0  2  0  0  3  0  0  0  0  0  0
  186.6220  178.5870  140.1450 C   0  0  0  0  0  3  0  0  0  0  0  0
  184.8650  178.3420  138.3850 C   0  0  0  0  0  2  0  0  0  0  0  0
  1  2  1  0  0  0  0
  2  4  2  0  0  0  0
  3  4  1  0  0  0  0
  5  3  2  0  0  0  0
  6  5  1  0  0  0  0
  6  1  2  0  0  0  0
  7  5  1  0  0  0  0
  9 10  1  0  0  0  0
 10 15  2  0  0  0  0
 10 19  1  0  0  0  0
 11 15  1  0  0  0  0
 12 14  1  0  0  0  0
 13  8  1  6  0  0  0
 13 21  1  0  0  0  0
 15 20  1  0  0  0  0
 16 11  1  0  0  0  0
 17 14  1  6  0  0  0
 17 18  1  0  0  0  0
 19  8  1  0  0  0  0
 20 12  1  0  0  0  0
 20 13  1  0  0  0  0
 21 17  1  0  0  0  0
 21 18  1  1  0  0  0
 22  2  1  6  0  0  0
 22 16  1  0  0  0  0
 22  9  1  0  0  0  0
 23  1  1  0  0  0  0
 24 25  1  0  0  0  0
 24 23  1  0  0  0  0
 26 27  1  0  0  0  0
 27 28  1  0  0  0  0
 29 25  1  1  0  0  0
 29 30  1  0  0  0  0
 30 28  2  0  0  0  0
 31 29  1  0  0  0  0
 31 26  1  0  0  0  0
M  END
>  <MODEL>
7

>  <REMARK>
 VINA RESULT:      -8.4      2.670      7.195
  Name = 
  5 active torsions:
  status: ('A' for Active; 'I' for Inactive)
    1  A    between atoms: C_1  and  O_28
    2  A    between atoms: C_7  and  C_30
    3  A    between atoms: C_20  and  C_24
    4  A    between atoms: C_20  and  O_28
    5  A    between atoms: C_24  and  C_25
                            x       y       z     vdW  Elec       q    Type
                         _______ _______ _______ _____ _____    ______ ____

>  <TORSDO>
F 5

$$$$
=
 OpenBabel11062414343D

 31 36  0  0  1  0  0  0  0  0999 V2000
  186.7500  177.4840  144.7920 C   0  0  0  0  0  0  0  0  0  0  0  0
  185.5420  178.1930  144.8850 C   0  0  0  0  0  0  0  0  0  0  0  0
  186.1640  178.9450  147.0740 N   0  0  0  0  0  0  0  0  0  0  0  0
  185.2690  178.9220  146.0520 C   0  0  0  0  0  3  0  0  0  0  0  0
  187.3410  178.2690  147.0040 C   0  0  0  0  0  0  0  0  0  0  0  0
  187.6550  177.5280  145.8630 C   0  0  0  0  0  3  0  0  0  0  0  0
  188.2540  178.3160  148.0930 N   0  0  0  0  0  1  0  0  0  0  0  0
  184.1830  179.7580  139.0930 C   0  0  0  0  0  2  0  0  0  0  0  0
  185.2240  178.4860  142.4240 C   0  0  0  0  0  2  0  0  0  0  0  0
  184.2290  178.6560  141.3080 C   0  0  0  0  0  0  0  0  0  0  0  0
  182.3420  178.8980  142.9200 C   0  0  0  0  0  2  0  0  0  0  0  0
  180.6720  178.7800  140.4360 C   0  0  0  0  0  2  0  0  0  0  0  0
  182.6520  179.8600  139.1750 C   0  0  2  0  0  3  0  0  0  0  0  0
  180.0910  178.6080  139.0060 C   0  0  0  0  0  2  0  0  0  0  0  0
  182.9350  178.9610  141.5330 C   0  0  0  0  0  0  0  0  0  0  0  0
  183.3890  179.0950  144.0110 C   0  0  0  0  0  2  0  0  0  0  0  0
  180.6210  179.7050  138.2190 N   0  0  2  0  0  0  0  0  0  0  0  0
  181.1600  179.5230  136.8790 C   0  0  0  0  0  2  0  0  0  0  0  0
  184.7200  178.5790  139.8970 C   0  0  0  0  0  2  0  0  0  0  0  0
  182.0860  179.2420  140.4070 N   0  0  0  0  0  0  0  0  0  0  0  0
  181.9850  179.1540  138.0230 C   0  0  1  0  0  3  0  0  0  0  0  0
  184.5550  178.1510  143.7580 C   0  0  2  0  0  3  0  0  0  0  0  0
  187.0340  176.7500  143.6330 O   0  0  0  0  0  0  0  0  0  0  0  0
  188.1280  177.0380  142.7690 C   0  0  0  0  0  2  0  0  0  0  0  0
  189.2400  176.0130  142.9540 C   0  0  0  0  0  2  0  0  0  0  0  0
  191.6650  178.8160  143.9580 C   0  0  0  0  0  2  0  0  0  0  0  0
  191.9830  178.2450  145.2300 O   0  0  0  0  0  0  0  0  0  0  0  0
  191.6820  176.9130  145.5480 C   0  0  0  0  0  3  0  0  0  0  0  0
  190.5380  176.6850  143.3730 C   0  0  2  0  0  3  0  0  0  0  0  0
  190.9790  176.1520  144.7060 C   0  0  0  0  0  3  0  0  0  0  0  0
  190.3760  178.2060  143.4160 C   0  0  0  0  0  2  0  0  0  0  0  0
  1  2  2  0  0  0  0
  1  6  1  0  0  0  0
  2  4  1  0  0  0  0
  4  3  2  0  0  0  0
  5  3  1  0  0  0  0
  5  7  1  0  0  0  0
  6  5  2  0  0  0  0
  8 19  1  0  0  0  0
  9 22  1  0  0  0  0
 10 15  2  0  0  0  0
 10  9  1  0  0  0  0
 11 16  1  0  0  0  0
 13  8  1  6  0  0  0
 13 20  1  0  0  0  0
 14 12  1  0  0  0  0
 15 11  1  0  0  0  0
 17 18  1  6  0  0  0
 17 14  1  0  0  0  0
 19 10  1  0  0  0  0
 20 12  1  0  0  0  0
 20 15  1  0  0  0  0
 21 18  1  6  0  0  0
 21 17  1  0  0  0  0
 21 13  1  0  0  0  0
 22 16  1  0  0  0  0
 22  2  1  1  0  0  0
 23  1  1  0  0  0  0
 24 25  1  0  0  0  0
 24 23  1  0  0  0  0
 26 27  1  0  0  0  0
 27 28  1  0  0  0  0
 29 25  1  1  0  0  0
 29 31  1  0  0  0  0
 29 30  1  0  0  0  0
 30 28  2  0  0  0  0
 31 26  1  0  0  0  0
M  END
>  <MODEL>
8

>  <REMARK>
 VINA RESULT:      -8.2      3.560      6.299
  Name = 
  5 active torsions:
  status: ('A' for Active; 'I' for Inactive)
    1  A    between atoms: C_1  and  O_28
    2  A    between atoms: C_7  and  C_30
    3  A    between atoms: C_20  and  C_24
    4  A    between atoms: C_20  and  O_28
    5  A    between atoms: C_24  and  C_25
                            x       y       z     vdW  Elec       q    Type
                         _______ _______ _______ _____ _____    ______ ____

>  <TORSDO>
F 5

$$$$
=
 OpenBabel11062414343D

 31 36  0  0  1  0  0  0  0  0999 V2000
  190.9260  176.9640  138.8610 C   0  0  0  0  0  0  0  0  0  0  0  0
  191.5260  177.1760  140.1130 C   0  0  0  0  0  0  0  0  0  0  0  0
  193.6830  176.8320  139.1280 N   0  0  0  0  0  0  0  0  0  0  0  0
  192.9220  177.1010  140.2210 C   0  0  0  0  0  3  0  0  0  0  0  0
  193.1250  176.6270  137.9060 C   0  0  0  0  0  0  0  0  0  0  0  0
  191.7390  176.6890  137.7510 C   0  0  0  0  0  3  0  0  0  0  0  0
  193.9530  176.3470  136.7840 N   0  0  0  0  0  1  0  0  0  0  0  0
  191.0110  177.1660  146.2430 C   0  0  0  0  0  2  0  0  0  0  0  0
  191.5260  177.5460  142.5840 C   0  0  0  0  0  2  0  0  0  0  0  0
  190.6890  177.6210  143.8320 C   0  0  0  0  0  0  0  0  0  0  0  0
  188.6620  176.8250  142.6180 C   0  0  0  0  0  2  0  0  0  0  0  0
  187.2870  177.5060  145.1910 C   0  0  0  0  0  2  0  0  0  0  0  0
  189.4990  176.9450  146.4040 C   0  0  2  0  0  3  0  0  0  0  0  0
  186.8620  178.0230  146.5930 C   0  0  0  0  0  2  0  0  0  0  0  0
  189.4150  177.1820  143.8770 C   0  0  0  0  0  0  0  0  0  0  0  0
  189.5900  176.4070  141.4830 C   0  0  0  0  0  2  0  0  0  0  0  0
  187.5870  177.2200  147.5580 N   0  0  2  0  0  0  0  0  0  0  0  0
  188.2560  177.7960  148.7150 C   0  0  0  0  0  2  0  0  0  0  0  0
  191.3290  178.1130  145.0920 C   0  0  0  0  0  2  0  0  0  0  0  0
  188.7350  177.1630  145.1440 N   0  0  0  0  0  0  0  0  0  0  0  0
  188.9010  177.8920  147.4110 C   0  0  1  0  0  3  0  0  0  0  0  0
  190.6770  177.4600  141.3150 C   0  0  2  0  0  3  0  0  0  0  0  0
  189.5330  177.0330  138.7400 O   0  0  0  0  0  0  0  0  0  0  0  0
  188.8350  178.2140  138.3580 C   0  0  0  0  0  2  0  0  0  0  0  0
  187.3360  178.0380  138.5610 C   0  0  0  0  0  2  0  0  0  0  0  0
  186.6640  177.7010  134.7950 C   0  0  0  0  0  2  0  0  0  0  0  0
  186.7930  176.2780  134.7800 O   0  0  0  0  0  0  0  0  0  0  0  0
  186.7640  175.5120  135.9550 C   0  0  0  0  0  3  0  0  0  0  0  0
  186.6580  177.5950  137.2730 C   0  0  2  0  0  3  0  0  0  0  0  0
  186.7260  176.1000  137.1530 C   0  0  0  0  0  3  0  0  0  0  0  0
  187.2970  178.2740  136.0600 C   0  0  0  0  0  2  0  0  0  0  0  0
  1  2  1  0  0  0  0
  2  4  2  0  0  0  0
  3  4  1  0  0  0  0
  5  3  2  0  0  0  0
  6  5  1  0  0  0  0
  6  1  2  0  0  0  0
  7  5  1  0  0  0  0
  9 10  1  0  0  0  0
 10 15  2  0  0  0  0
 10 19  1  0  0  0  0
 11 15  1  0  0  0  0
 12 14  1  0  0  0  0
 13  8  1  6  0  0  0
 13 21  1  0  0  0  0
 15 20  1  0  0  0  0
 16 11  1  0  0  0  0
 17 14  1  6  0  0  0
 17 18  1  0  0  0  0
 19  8  1  0  0  0  0
 20 12  1  0  0  0  0
 20 13  1  0  0  0  0
 21 17  1  0  0  0  0
 21 18  1  1  0  0  0
 22  2  1  6  0  0  0
 22 16  1  0  0  0  0
 22  9  1  0  0  0  0
 23  1  1  0  0  0  0
 24 25  1  0  0  0  0
 24 23  1  0  0  0  0
 26 31  1  0  0  0  0
 27 26  1  0  0  0  0
 27 28  1  0  0  0  0
 28 30  2  0  0  0  0
 29 25  1  1  0  0  0
 30 29  1  0  0  0  0
 31 29  1  0  0  0  0
M  END
>  <MODEL>
9

>  <REMARK>
 VINA RESULT:      -8.0      3.178      7.805
  Name = 
  5 active torsions:
  status: ('A' for Active; 'I' for Inactive)
    1  A    between atoms: C_1  and  O_28
    2  A    between atoms: C_7  and  C_30
    3  A    between atoms: C_20  and  C_24
    4  A    between atoms: C_20  and  O_28
    5  A    between atoms: C_24  and  C_25
                            x       y       z     vdW  Elec       q    Type
                         _______ _______ _______ _____ _____    ______ ____

>  <TORSDO>
F 5

$$$$
