=
 OpenBabel11062416463D

 28 31  0  0  1  0  0  0  0  0999 V2000
  184.8930  178.6390  146.2320 C   0  0  0  0  0  3  0  0  0  0  0  0
  189.8060  177.1600  144.9950 C   0  0  0  0  0  0  0  0  0  0  0  0
  185.6940  178.5380  147.3780 C   0  0  0  0  0  3  0  0  0  0  0  0
  187.5660  177.8800  145.9650 C   0  0  0  0  0  0  0  0  0  0  0  0
  190.6590  177.1680  147.6640 N   0  0  0  0  0  0  0  0  0  0  0  0
  188.1760  177.9530  148.4310 S   0  0  0  0  0  0  0  0  0  0  0  0
  191.1200  176.8050  145.3350 C   0  0  0  0  0  3  0  0  0  0  0  0
  185.4140  178.3510  144.9530 C   0  0  0  0  0  0  0  0  0  0  0  0
  188.9210  177.5140  146.0320 C   0  0  0  0  0  0  0  0  0  0  0  0
  187.0210  178.1560  147.2190 C   0  0  0  0  0  0  0  0  0  0  0  0
  189.3860  177.5090  147.3460 C   0  0  0  0  0  0  0  0  0  0  0  0
  191.5310  176.8170  146.6780 C   0  0  0  0  0  3  0  0  0  0  0  0
  186.7660  177.9790  144.8250 C   0  0  0  0  0  3  0  0  0  0  0  0
  189.4130  178.2870  142.8860 O   0  0  0  0  0  0  0  0  0  0  0  0
  189.4420  176.4050  141.4420 C   0  0  0  0  0  2  0  0  0  0  0  0
  189.8240  177.8670  141.6080 C   0  0  1  0  0  3  0  0  0  0  0  0
  189.4180  177.1460  143.6200 N   0  0  0  0  0  0  0  0  0  0  0  0
  189.3590  175.9210  142.8570 C   0  0  1  0  0  3  0  0  0  0  0  0
  188.1330  175.2910  143.0700 O   0  0  0  0  0  1  0  0  0  0  0  0
  189.1400  178.7020  140.5460 C   0  0  0  0  0  1  0  0  0  0  0  0
  184.5780  178.4820  143.7360 C   0  0  0  0  0  0  0  0  0  0  0  0
  183.3420  178.6830  143.8660 O   0  0  0  0  0  0  0  0  0  0  0  0
  185.0940  178.3760  142.4360 O   0  0  0  0  0  0  0  0  0  0  0  0
  184.4220  178.8390  141.2630 C   0  0  2  0  0  3  0  0  0  0  0  0
  183.4380  177.8020  140.7310 C   0  0  0  0  0  1  0  0  0  0  0  0
  185.3300  179.2720  140.2740 O   0  0  0  0  0  0  0  0  0  0  0  0
  184.9590  178.7100  139.0420 C   0  0  0  0  0  2  0  0  0  0  0  0
  186.1950  178.2260  138.3150 C   0  0  0  0  0  1  0  0  0  0  0  0
  1  3  1  0  0  0  0
  2  7  2  0  0  0  0
  2  9  1  0  0  0  0
  4  9  1  0  0  0  0
  4 10  1  0  0  0  0
  7 12  1  0  0  0  0
  8  1  2  0  0  0  0
  9 11  2  0  0  0  0
 10  3  2  0  0  0  0
 10  6  1  0  0  0  0
 11  5  1  0  0  0  0
 11  6  1  0  0  0  0
 12  5  2  0  0  0  0
 13  8  1  0  0  0  0
 13  4  2  0  0  0  0
 14 17  1  0  0  0  0
 15 16  1  0  0  0  0
 15 18  1  0  0  0  0
 16 20  1  6  0  0  0
 16 14  1  0  0  0  0
 17  2  1  0  0  0  0
 18 19  1  6  0  0  0
 18 17  1  0  0  0  0
 21 22  2  0  0  0  0
 21  8  1  0  0  0  0
 23 21  1  0  0  0  0
 24 25  1  6  0  0  0
 24 23  1  0  0  0  0
 26 24  1  0  0  0  0
 27 26  1  0  0  0  0
 28 27  1  0  0  0  0
M  END
>  <MODEL>
1

>  <REMARK>
 VINA RESULT:      -8.7      0.000      0.000
  Name = 
  6 active torsions:
  status: ('A' for Active; 'I' for Inactive)
    1  A    between atoms: C_2  and  N_16
    2  A    between atoms: C_9  and  O_15
    3  A    between atoms: C_9  and  O_18
    4  A    between atoms: C_11  and  C_12
    5  A    between atoms: C_12  and  O_15
    6  A    between atoms: O_18  and  C_27
                            x       y       z     vdW  Elec       q    Type
                         _______ _______ _______ _____ _____    ______ ____

>  <TORSDO>
F 6

$$$$
=
 OpenBabel11062416463D

 28 31  0  0  1  0  0  0  0  0999 V2000
  184.5980  178.6140  144.6940 C   0  0  0  0  0  3  0  0  0  0  0  0
  188.2500  178.0710  140.9230 C   0  0  0  0  0  0  0  0  0  0  0  0
  184.0350  178.7680  143.4190 C   0  0  0  0  0  3  0  0  0  0  0  0
  186.2340  178.3890  142.4440 C   0  0  0  0  0  0  0  0  0  0  0  0
  186.4190  178.5270  138.8510 N   0  0  0  0  0  0  0  0  0  0  0  0
  184.4430  178.8070  140.6910 S   0  0  0  0  0  0  0  0  0  0  0  0
  188.6620  178.0730  139.5820 C   0  0  0  0  0  3  0  0  0  0  0  0
  185.9760  178.3600  144.8540 C   0  0  0  0  0  0  0  0  0  0  0  0
  186.8910  178.3130  141.2040 C   0  0  0  0  0  0  0  0  0  0  0  0
  184.8720  178.6540  142.3150 C   0  0  0  0  0  0  0  0  0  0  0  0
  186.0130  178.5310  140.1450 C   0  0  0  0  0  0  0  0  0  0  0  0
  187.7300  178.3010  138.5560 C   0  0  0  0  0  3  0  0  0  0  0  0
  186.7940  178.2380  143.7140 C   0  0  0  0  0  3  0  0  0  0  0  0
  189.7980  178.8560  142.6140 O   0  0  0  0  0  0  0  0  0  0  0  0
  190.0530  176.8480  143.8520 C   0  0  0  0  0  2  0  0  0  0  0  0
  189.9500  178.3630  143.9230 C   0  0  1  0  0  3  0  0  0  0  0  0
  189.2190  177.8280  141.9450 N   0  0  0  0  0  0  0  0  0  0  0  0
  189.3690  176.5290  142.5590 C   0  0  1  0  0  3  0  0  0  0  0  0
  190.1960  175.7280  141.7710 O   0  0  0  0  0  1  0  0  0  0  0  0
  191.2030  178.9370  144.5480 C   0  0  0  0  0  1  0  0  0  0  0  0
  186.5710  178.1710  146.1990 C   0  0  0  0  0  0  0  0  0  0  0  0
  185.8300  178.2760  147.2120 O   0  0  0  0  0  0  0  0  0  0  0  0
  187.9300  177.8940  146.4040 O   0  0  0  0  0  0  0  0  0  0  0  0
  188.4610  177.2980  147.5890 C   0  0  2  0  0  3  0  0  0  0  0  0
  188.9200  178.3520  148.5930 C   0  0  0  0  0  1  0  0  0  0  0  0
  189.4730  176.3590  147.2980 O   0  0  0  0  0  0  0  0  0  0  0  0
  190.7230  176.9550  147.5300 C   0  0  0  0  0  2  0  0  0  0  0  0
  191.8230  175.9830  147.1590 C   0  0  0  0  0  1  0  0  0  0  0  0
  1  8  1  0  0  0  0
  2  9  1  0  0  0  0
  2 17  1  0  0  0  0
  3  1  2  0  0  0  0
  4 13  1  0  0  0  0
  5 11  1  0  0  0  0
  6 10  1  0  0  0  0
  7  2  2  0  0  0  0
  8 21  1  0  0  0  0
  9  4  1  0  0  0  0
 10  4  2  0  0  0  0
 10  3  1  0  0  0  0
 11  6  1  0  0  0  0
 11  9  2  0  0  0  0
 12  5  2  0  0  0  0
 12  7  1  0  0  0  0
 13  8  2  0  0  0  0
 14 16  1  0  0  0  0
 15 16  1  0  0  0  0
 16 20  1  6  0  0  0
 17 18  1  0  0  0  0
 17 14  1  0  0  0  0
 18 19  1  6  0  0  0
 18 15  1  0  0  0  0
 21 23  1  0  0  0  0
 21 22  2  0  0  0  0
 23 24  1  0  0  0  0
 24 25  1  1  0  0  0
 26 27  1  0  0  0  0
 26 24  1  0  0  0  0
 28 27  1  0  0  0  0
M  END
>  <MODEL>
2

>  <REMARK>
 VINA RESULT:      -8.5      2.808      6.027
  Name = 
  6 active torsions:
  status: ('A' for Active; 'I' for Inactive)
    1  A    between atoms: C_2  and  N_16
    2  A    between atoms: C_9  and  O_15
    3  A    between atoms: C_9  and  O_18
    4  A    between atoms: C_11  and  C_12
    5  A    between atoms: C_12  and  O_15
    6  A    between atoms: O_18  and  C_27
                            x       y       z     vdW  Elec       q    Type
                         _______ _______ _______ _____ _____    ______ ____

>  <TORSDO>
F 6

$$$$
=
 OpenBabel11062416463D

 28 31  0  0  1  0  0  0  0  0999 V2000
  185.0340  178.6450  145.9210 C   0  0  0  0  0  3  0  0  0  0  0  0
  190.0140  177.0700  145.1650 C   0  0  0  0  0  0  0  0  0  0  0  0
  185.7270  178.5610  147.1370 C   0  0  0  0  0  3  0  0  0  0  0  0
  187.7070  177.8430  145.9130 C   0  0  0  0  0  0  0  0  0  0  0  0
  190.6240  177.1330  147.8990 N   0  0  0  0  0  0  0  0  0  0  0  0
  188.0960  177.9700  148.4210 S   0  0  0  0  0  0  0  0  0  0  0  0
  191.2870  176.7050  145.6300 C   0  0  0  0  0  3  0  0  0  0  0  0
  185.6630  178.3190  144.7010 C   0  0  0  0  0  0  0  0  0  0  0  0
  189.0450  177.4610  146.1100 C   0  0  0  0  0  0  0  0  0  0  0  0
  187.0570  178.1580  147.1060 C   0  0  0  0  0  0  0  0  0  0  0  0
  189.3910  177.4820  147.4600 C   0  0  0  0  0  0  0  0  0  0  0  0
  191.5750  176.7450  147.0040 C   0  0  0  0  0  3  0  0  0  0  0  0
  187.0150  177.9250  144.7040 C   0  0  0  0  0  3  0  0  0  0  0  0
  188.9550  177.9560  143.1730 O   0  0  0  0  0  0  0  0  0  0  0  0
  190.2920  176.8880  141.5300 C   0  0  0  0  0  2  0  0  0  0  0  0
  189.5470  178.1570  141.9130 C   0  0  1  0  0  3  0  0  0  0  0  0
  189.7500  177.0270  143.7610 N   0  0  0  0  0  0  0  0  0  0  0  0
  190.5640  176.2490  142.8570 C   0  0  1  0  0  3  0  0  0  0  0  0
  190.1230  174.9260  142.8440 O   0  0  0  0  0  1  0  0  0  0  0  0
  188.4790  178.4590  140.8840 C   0  0  0  0  0  1  0  0  0  0  0  0
  184.9410  178.4300  143.4110 C   0  0  0  0  0  0  0  0  0  0  0  0
  185.4040  177.8360  142.4010 O   0  0  0  0  0  0  0  0  0  0  0  0
  183.7670  179.1800  143.2510 O   0  0  0  0  0  0  0  0  0  0  0  0
  182.4990  178.6270  142.8920 C   0  0  2  0  0  3  0  0  0  0  0  0
  182.2920  178.6290  141.3810 C   0  0  0  0  0  1  0  0  0  0  0  0
  181.4380  179.2540  143.5790 O   0  0  0  0  0  0  0  0  0  0  0  0
  180.2890  178.4560  143.4620 C   0  0  0  0  0  2  0  0  0  0  0  0
  179.1940  179.0150  144.3440 C   0  0  0  0  0  1  0  0  0  0  0  0
  1  3  1  0  0  0  0
  2  7  2  0  0  0  0
  2  9  1  0  0  0  0
  4  9  1  0  0  0  0
  4 10  1  0  0  0  0
  7 12  1  0  0  0  0
  8 13  1  0  0  0  0
  8  1  2  0  0  0  0
  9 11  2  0  0  0  0
 10  3  2  0  0  0  0
 10  6  1  0  0  0  0
 11  5  1  0  0  0  0
 11  6  1  0  0  0  0
 12  5  2  0  0  0  0
 13  4  2  0  0  0  0
 14 17  1  0  0  0  0
 15 16  1  0  0  0  0
 15 18  1  0  0  0  0
 16 20  1  6  0  0  0
 16 14  1  0  0  0  0
 17  2  1  0  0  0  0
 18 19  1  6  0  0  0
 18 17  1  0  0  0  0
 21  8  1  0  0  0  0
 22 21  2  0  0  0  0
 23 21  1  0  0  0  0
 24 25  1  6  0  0  0
 24 23  1  0  0  0  0
 24 26  1  0  0  0  0
 27 26  1  0  0  0  0
 27 28  1  0  0  0  0
M  END
>  <MODEL>
3

>  <REMARK>
 VINA RESULT:      -8.3      1.573      2.547
  Name = 
  6 active torsions:
  status: ('A' for Active; 'I' for Inactive)
    1  A    between atoms: C_2  and  N_16
    2  A    between atoms: C_9  and  O_15
    3  A    between atoms: C_9  and  O_18
    4  A    between atoms: C_11  and  C_12
    5  A    between atoms: C_12  and  O_15
    6  A    between atoms: O_18  and  C_27
                            x       y       z     vdW  Elec       q    Type
                         _______ _______ _______ _____ _____    ______ ____

>  <TORSDO>
F 6

$$$$
=
 OpenBabel11062416463D

 28 31  0  0  1  0  0  0  0  0999 V2000
  184.4950  179.1400  142.8250 C   0  0  0  0  0  3  0  0  0  0  0  0
  188.7020  177.3680  145.4720 C   0  0  0  0  0  0  0  0  0  0  0  0
  184.2760  179.1830  144.2090 C   0  0  0  0  0  3  0  0  0  0  0  0
  186.5110  178.2790  144.5520 C   0  0  0  0  0  0  0  0  0  0  0  0
  187.4920  177.7350  147.9730 N   0  0  0  0  0  0  0  0  0  0  0  0
  185.2740  178.6880  146.7330 S   0  0  0  0  0  0  0  0  0  0  0  0
  189.3740  177.0290  146.6560 C   0  0  0  0  0  3  0  0  0  0  0  0
  185.7100  178.6580  142.2960 C   0  0  0  0  0  0  0  0  0  0  0  0
  187.3980  177.8900  145.5710 C   0  0  0  0  0  0  0  0  0  0  0  0
  185.2950  178.7460  145.0480 C   0  0  0  0  0  0  0  0  0  0  0  0
  186.8350  178.0610  146.8330 C   0  0  0  0  0  0  0  0  0  0  0  0
  188.7530  177.2230  147.9010 C   0  0  0  0  0  3  0  0  0  0  0  0
  186.7270  178.2350  143.1730 C   0  0  0  0  0  3  0  0  0  0  0  0
  190.2420  178.0820  143.7420 O   0  0  0  0  0  0  0  0  0  0  0  0
  190.5780  176.0000  142.6550 C   0  0  0  0  0  2  0  0  0  0  0  0
  191.2230  177.3020  143.1020 C   0  0  1  0  0  3  0  0  0  0  0  0
  189.3620  177.1670  144.2200 N   0  0  0  0  0  0  0  0  0  0  0  0
  189.4110  175.8710  143.5840 C   0  0  1  0  0  3  0  0  0  0  0  0
  188.2430  175.6610  142.8500 O   0  0  0  0  0  1  0  0  0  0  0  0
  191.7700  178.0460  141.9020 C   0  0  0  0  0  1  0  0  0  0  0  0
  185.9560  178.6350  140.8340 C   0  0  0  0  0  0  0  0  0  0  0  0
  184.9720  178.5370  140.0540 O   0  0  0  0  0  0  0  0  0  0  0  0
  187.2380  178.7020  140.2700 O   0  0  0  0  0  0  0  0  0  0  0  0
  187.6350  178.0070  139.0870 C   0  0  2  0  0  3  0  0  0  0  0  0
  188.9610  177.2770  139.2810 C   0  0  0  0  0  1  0  0  0  0  0  0
  187.6500  178.8540  137.9590 O   0  0  0  0  0  0  0  0  0  0  0  0
  187.4020  178.0840  136.8110 C   0  0  0  0  0  2  0  0  0  0  0  0
  186.0000  177.5210  136.8730 C   0  0  0  0  0  1  0  0  0  0  0  0
  1  3  1  0  0  0  0
  2  9  2  0  0  0  0
  2  7  1  0  0  0  0
  3 10  2  0  0  0  0
  4 10  1  0  0  0  0
  4  9  1  0  0  0  0
  6 11  1  0  0  0  0
  7 12  2  0  0  0  0
  8  1  2  0  0  0  0
  8 13  1  0  0  0  0
  9 11  1  0  0  0  0
 10  6  1  0  0  0  0
 11  5  2  0  0  0  0
 12  5  1  0  0  0  0
 13  4  2  0  0  0  0
 14 17  1  0  0  0  0
 15 16  1  0  0  0  0
 15 18  1  0  0  0  0
 16 20  1  6  0  0  0
 16 14  1  0  0  0  0
 17  2  1  0  0  0  0
 18 19  1  6  0  0  0
 18 17  1  0  0  0  0
 21  8  1  0  0  0  0
 22 21  2  0  0  0  0
 23 21  1  0  0  0  0
 24 25  1  1  0  0  0
 24 23  1  0  0  0  0
 26 24  1  0  0  0  0
 27 28  1  0  0  0  0
 27 26  1  0  0  0  0
M  END
>  <MODEL>
4

>  <REMARK>
 VINA RESULT:      -8.2      1.818      2.823
  Name = 
  6 active torsions:
  status: ('A' for Active; 'I' for Inactive)
    1  A    between atoms: C_2  and  N_16
    2  A    between atoms: C_9  and  O_15
    3  A    between atoms: C_9  and  O_18
    4  A    between atoms: C_11  and  C_12
    5  A    between atoms: C_12  and  O_15
    6  A    between atoms: O_18  and  C_27
                            x       y       z     vdW  Elec       q    Type
                         _______ _______ _______ _____ _____    ______ ____

>  <TORSDO>
F 6

$$$$
=
 OpenBabel11062416463D

 28 31  0  0  1  0  0  0  0  0999 V2000
  185.0110  178.5640  144.7040 C   0  0  0  0  0  3  0  0  0  0  0  0
  188.7970  177.8730  141.0930 C   0  0  0  0  0  0  0  0  0  0  0  0
  184.5330  178.8320  143.4130 C   0  0  0  0  0  3  0  0  0  0  0  0
  186.7390  178.3000  142.5280 C   0  0  0  0  0  0  0  0  0  0  0  0
  187.1290  178.5980  138.9610 N   0  0  0  0  0  0  0  0  0  0  0  0
  185.0900  178.9670  140.7140 S   0  0  0  0  0  0  0  0  0  0  0  0
  189.2800  177.9030  139.7760 C   0  0  0  0  0  3  0  0  0  0  0  0
  186.3500  178.1760  144.9170 C   0  0  0  0  0  0  0  0  0  0  0  0
  187.4520  178.2250  141.3190 C   0  0  0  0  0  0  0  0  0  0  0  0
  185.4150  178.6950  142.3460 C   0  0  0  0  0  0  0  0  0  0  0  0
  186.6560  178.5750  140.2310 C   0  0  0  0  0  0  0  0  0  0  0  0
  188.4280  178.2670  138.7190 C   0  0  0  0  0  3  0  0  0  0  0  0
  187.2140  178.0360  143.8140 C   0  0  0  0  0  3  0  0  0  0  0  0
  189.8140  176.1910  142.5120 O   0  0  0  0  0  0  0  0  0  0  0  0
  191.6800  177.4330  143.2890 C   0  0  0  0  0  2  0  0  0  0  0  0
  191.1750  176.0700  142.8450 C   0  0  1  0  0  3  0  0  0  0  0  0
  189.6840  177.4910  142.1470 N   0  0  0  0  0  0  0  0  0  0  0  0
  190.7230  178.3740  142.6250 C   0  0  1  0  0  3  0  0  0  0  0  0
  190.1950  179.2560  143.5690 O   0  0  0  0  0  1  0  0  0  0  0  0
  191.3440  175.0670  143.9670 C   0  0  0  0  0  1  0  0  0  0  0  0
  186.8530  177.8670  146.2770 C   0  0  0  0  0  0  0  0  0  0  0  0
  186.0590  177.9500  147.2520 O   0  0  0  0  0  0  0  0  0  0  0  0
  188.1800  177.4990  146.5400 O   0  0  0  0  0  0  0  0  0  0  0  0
  188.6600  177.0710  147.8150 C   0  0  2  0  0  3  0  0  0  0  0  0
  189.0770  178.2530  148.6860 C   0  0  0  0  0  1  0  0  0  0  0  0
  189.6840  176.1070  147.6960 O   0  0  0  0  0  0  0  0  0  0  0  0
  190.8790  176.7570  147.3460 C   0  0  0  0  0  2  0  0  0  0  0  0
  192.0340  175.7880  147.4660 C   0  0  0  0  0  1  0  0  0  0  0  0
  1  8  1  0  0  0  0
  2  9  1  0  0  0  0
  2 17  1  0  0  0  0
  3  1  2  0  0  0  0
  4 13  1  0  0  0  0
  5 11  1  0  0  0  0
  6 10  1  0  0  0  0
  7  2  2  0  0  0  0
  8 21  1  0  0  0  0
  9  4  1  0  0  0  0
 10  4  2  0  0  0  0
 10  3  1  0  0  0  0
 11  6  1  0  0  0  0
 11  9  2  0  0  0  0
 12  5  2  0  0  0  0
 12  7  1  0  0  0  0
 13  8  2  0  0  0  0
 14 16  1  0  0  0  0
 16 15  1  0  0  0  0
 16 20  1  1  0  0  0
 17 14  1  0  0  0  0
 17 18  1  0  0  0  0
 18 15  1  0  0  0  0
 18 19  1  1  0  0  0
 21 23  1  0  0  0  0
 21 22  2  0  0  0  0
 23 24  1  0  0  0  0
 24 25  1  6  0  0  0
 26 24  1  0  0  0  0
 27 28  1  0  0  0  0
 27 26  1  0  0  0  0
M  END
>  <MODEL>
5

>  <REMARK>
 VINA RESULT:      -8.1      2.915      6.116
  Name = 
  6 active torsions:
  status: ('A' for Active; 'I' for Inactive)
    1  A    between atoms: C_2  and  N_16
    2  A    between atoms: C_9  and  O_15
    3  A    between atoms: C_9  and  O_18
    4  A    between atoms: C_11  and  C_12
    5  A    between atoms: C_12  and  O_15
    6  A    between atoms: O_18  and  C_27
                            x       y       z     vdW  Elec       q    Type
                         _______ _______ _______ _____ _____    ______ ____

>  <TORSDO>
F 6

$$$$
=
 OpenBabel11062416463D

 28 31  0  0  1  0  0  0  0  0999 V2000
  184.9610  178.8570  140.5820 C   0  0  0  0  0  3  0  0  0  0  0  0
  187.2690  177.9980  145.2490 C   0  0  0  0  0  0  0  0  0  0  0  0
  184.0550  179.0420  141.6350 C   0  0  0  0  0  3  0  0  0  0  0  0
  185.8310  178.4910  143.2090 C   0  0  0  0  0  0  0  0  0  0  0  0
  184.9230  178.5100  146.6920 N   0  0  0  0  0  0  0  0  0  0  0  0
  183.6240  179.0010  144.3600 S   0  0  0  0  0  0  0  0  0  0  0  0
  187.2460  177.9010  146.6490 C   0  0  0  0  0  3  0  0  0  0  0  0
  186.2970  178.4780  140.8300 C   0  0  0  0  0  0  0  0  0  0  0  0
  186.0790  178.3520  144.5850 C   0  0  0  0  0  0  0  0  0  0  0  0
  184.5120  178.8510  142.9340 C   0  0  0  0  0  0  0  0  0  0  0  0
  184.9350  178.6020  145.3400 C   0  0  0  0  0  0  0  0  0  0  0  0
  186.0610  178.1630  147.3560 C   0  0  0  0  0  3  0  0  0  0  0  0
  186.7310  178.3050  142.1580 C   0  0  0  0  0  3  0  0  0  0  0  0
  189.4240  178.7030  144.3920 O   0  0  0  0  0  0  0  0  0  0  0  0
  190.4190  176.5730  144.0770 C   0  0  0  0  0  2  0  0  0  0  0  0
  190.6470  178.0170  144.4960 C   0  0  1  0  0  3  0  0  0  0  0  0
  188.4910  177.7320  144.5560 N   0  0  0  0  0  0  0  0  0  0  0  0
  188.9530  176.3850  144.3170 C   0  0  1  0  0  3  0  0  0  0  0  0
  188.3480  175.8760  143.1680 O   0  0  0  0  0  1  0  0  0  0  0  0
  191.6780  178.6600  143.5930 C   0  0  0  0  0  1  0  0  0  0  0  0
  187.2650  178.3060  139.7200 C   0  0  0  0  0  0  0  0  0  0  0  0
  186.8280  178.1860  138.5450 O   0  0  0  0  0  0  0  0  0  0  0  0
  188.6530  178.2550  139.9150 O   0  0  0  0  0  0  0  0  0  0  0  0
  189.4980  177.2150  139.4190 C   0  0  2  0  0  3  0  0  0  0  0  0
  190.5100  176.7630  140.4680 C   0  0  0  0  0  1  0  0  0  0  0  0
  190.1130  177.5720  138.2010 O   0  0  0  0  0  0  0  0  0  0  0  0
  190.4120  176.4020  137.4840 C   0  0  0  0  0  2  0  0  0  0  0  0
  189.1350  175.6400  137.2060 C   0  0  0  0  0  1  0  0  0  0  0  0
  1  8  2  0  0  0  0
  1  3  1  0  0  0  0
  2  7  1  0  0  0  0
  3 10  2  0  0  0  0
  4  9  1  0  0  0  0
  5 12  1  0  0  0  0
  6 11  1  0  0  0  0
  7 12  2  0  0  0  0
  8 13  1  0  0  0  0
  9  2  2  0  0  0  0
  9 11  1  0  0  0  0
 10  4  1  0  0  0  0
 10  6  1  0  0  0  0
 11  5  2  0  0  0  0
 13  4  2  0  0  0  0
 14 16  1  0  0  0  0
 14 17  1  0  0  0  0
 15 18  1  0  0  0  0
 15 16  1  0  0  0  0
 16 20  1  6  0  0  0
 17  2  1  0  0  0  0
 18 19  1  6  0  0  0
 18 17  1  0  0  0  0
 21 23  1  0  0  0  0
 21  8  1  0  0  0  0
 22 21  2  0  0  0  0
 24 23  1  0  0  0  0
 24 25  1  1  0  0  0
 26 24  1  0  0  0  0
 27 26  1  0  0  0  0
 28 27  1  0  0  0  0
M  END
>  <MODEL>
6

>  <REMARK>
 VINA RESULT:      -7.9      2.559      4.577
  Name = 
  6 active torsions:
  status: ('A' for Active; 'I' for Inactive)
    1  A    between atoms: C_2  and  N_16
    2  A    between atoms: C_9  and  O_15
    3  A    between atoms: C_9  and  O_18
    4  A    between atoms: C_11  and  C_12
    5  A    between atoms: C_12  and  O_15
    6  A    between atoms: O_18  and  C_27
                            x       y       z     vdW  Elec       q    Type
                         _______ _______ _______ _____ _____    ______ ____

>  <TORSDO>
F 6

$$$$
=
 OpenBabel11062416463D

 28 31  0  0  1  0  0  0  0  0999 V2000
  183.6460  178.9510  143.5670 C   0  0  0  0  0  3  0  0  0  0  0  0
  188.5490  177.4210  144.7820 C   0  0  0  0  0  0  0  0  0  0  0  0
  183.8500  178.9620  144.9540 C   0  0  0  0  0  3  0  0  0  0  0  0
  186.1340  178.2010  144.5870 C   0  0  0  0  0  0  0  0  0  0  0  0
  188.1250  177.6790  147.5400 N   0  0  0  0  0  0  0  0  0  0  0  0
  185.5860  178.5020  147.0490 S   0  0  0  0  0  0  0  0  0  0  0  0
  189.5640  177.1130  145.7010 C   0  0  0  0  0  3  0  0  0  0  0  0
  184.6740  178.5550  142.6850 C   0  0  0  0  0  0  0  0  0  0  0  0
  187.3060  177.8570  145.2820 C   0  0  0  0  0  0  0  0  0  0  0  0
  185.0970  178.5820  145.4370 C   0  0  0  0  0  0  0  0  0  0  0  0
  187.1380  177.9760  146.6600 C   0  0  0  0  0  0  0  0  0  0  0  0
  189.3340  177.2500  147.0800 C   0  0  0  0  0  3  0  0  0  0  0  0
  185.9290  178.1870  143.2060 C   0  0  0  0  0  3  0  0  0  0  0  0
  188.1910  178.0690  142.4750 O   0  0  0  0  0  0  0  0  0  0  0  0
  190.1320  177.1080  141.5080 C   0  0  0  0  0  2  0  0  0  0  0  0
  189.1720  178.2860  141.4900 C   0  0  1  0  0  3  0  0  0  0  0  0
  188.8130  177.2800  143.3850 N   0  0  0  0  0  0  0  0  0  0  0  0
  189.9740  176.5720  142.8980 C   0  0  1  0  0  3  0  0  0  0  0  0
  189.7070  175.2040  142.8490 O   0  0  0  0  0  1  0  0  0  0  0  0
  188.5200  178.3990  140.1290 C   0  0  0  0  0  1  0  0  0  0  0  0
  184.4710  178.5660  141.2160 C   0  0  0  0  0  0  0  0  0  0  0  0
  185.0910  179.4150  140.5230 O   0  0  0  0  0  0  0  0  0  0  0  0
  183.6050  177.6830  140.5550 O   0  0  0  0  0  0  0  0  0  0  0  0
  182.3600  178.0640  139.9660 C   0  0  2  0  0  3  0  0  0  0  0  0
  182.4900  178.2720  138.4600 C   0  0  0  0  0  1  0  0  0  0  0  0
  181.7920  179.1820  140.6140 O   0  0  0  0  0  0  0  0  0  0  0  0
  180.7100  178.7490  141.3960 C   0  0  0  0  0  2  0  0  0  0  0  0
  180.0830  179.9380  142.0930 C   0  0  0  0  0  1  0  0  0  0  0  0
  1  3  1  0  0  0  0
  2  9  2  0  0  0  0
  2  7  1  0  0  0  0
  3 10  2  0  0  0  0
  4  9  1  0  0  0  0
  4 10  1  0  0  0  0
  7 12  2  0  0  0  0
  8 13  1  0  0  0  0
  8  1  2  0  0  0  0
  9 11  1  0  0  0  0
 10  6  1  0  0  0  0
 11  6  1  0  0  0  0
 11  5  2  0  0  0  0
 12  5  1  0  0  0  0
 13  4  2  0  0  0  0
 14 17  1  0  0  0  0
 15 18  1  0  0  0  0
 16 20  1  6  0  0  0
 16 15  1  0  0  0  0
 16 14  1  0  0  0  0
 17  2  1  0  0  0  0
 18 19  1  6  0  0  0
 18 17  1  0  0  0  0
 21  8  1  0  0  0  0
 22 21  2  0  0  0  0
 23 21  1  0  0  0  0
 24 25  1  6  0  0  0
 24 23  1  0  0  0  0
 24 26  1  0  0  0  0
 26 27  1  0  0  0  0
 27 28  1  0  0  0  0
M  END
>  <MODEL>
7

>  <REMARK>
 VINA RESULT:      -7.8      1.761      2.747
  Name = 
  6 active torsions:
  status: ('A' for Active; 'I' for Inactive)
    1  A    between atoms: C_2  and  N_16
    2  A    between atoms: C_9  and  O_15
    3  A    between atoms: C_9  and  O_18
    4  A    between atoms: C_11  and  C_12
    5  A    between atoms: C_12  and  O_15
    6  A    between atoms: O_18  and  C_27
                            x       y       z     vdW  Elec       q    Type
                         _______ _______ _______ _____ _____    ______ ____

>  <TORSDO>
F 6

$$$$
=
 OpenBabel11062416463D

 28 31  0  0  1  0  0  0  0  0999 V2000
  184.2200  179.0800  143.3010 C   0  0  0  0  0  3  0  0  0  0  0  0
  188.6920  177.3900  145.5370 C   0  0  0  0  0  0  0  0  0  0  0  0
  184.1390  179.1360  144.7000 C   0  0  0  0  0  3  0  0  0  0  0  0
  186.4090  178.2640  144.8290 C   0  0  0  0  0  0  0  0  0  0  0  0
  187.7310  177.7720  148.1420 N   0  0  0  0  0  0  0  0  0  0  0  0
  185.3880  178.6840  147.1180 S   0  0  0  0  0  0  0  0  0  0  0  0
  189.4830  177.0740  146.6530 C   0  0  0  0  0  3  0  0  0  0  0  0
  185.3840  178.6070  142.6600 C   0  0  0  0  0  0  0  0  0  0  0  0
  187.3970  177.8980  145.7590 C   0  0  0  0  0  0  0  0  0  0  0  0
  185.2420  178.7220  145.4380 C   0  0  0  0  0  0  0  0  0  0  0  0
  186.9590  178.0770  147.0700 C   0  0  0  0  0  0  0  0  0  0  0  0
  188.9850  177.2740  147.9510 C   0  0  0  0  0  3  0  0  0  0  0  0
  186.4880  178.2060  143.4360 C   0  0  0  0  0  3  0  0  0  0  0  0
  190.0490  178.1000  143.6590 O   0  0  0  0  0  0  0  0  0  0  0  0
  190.2940  176.0120  142.5610 C   0  0  0  0  0  2  0  0  0  0  0  0
  190.9690  177.3220  142.9320 C   0  0  1  0  0  3  0  0  0  0  0  0
  189.2270  177.1840  144.2280 N   0  0  0  0  0  0  0  0  0  0  0  0
  189.2240  175.8820  143.6010 C   0  0  1  0  0  3  0  0  0  0  0  0
  187.9930  175.6570  142.9870 O   0  0  0  0  0  1  0  0  0  0  0  0
  191.3890  178.0590  141.6780 C   0  0  0  0  0  1  0  0  0  0  0  0
  185.4840  178.5700  141.1810 C   0  0  0  0  0  0  0  0  0  0  0  0
  186.6160  178.7050  140.6440 O   0  0  0  0  0  0  0  0  0  0  0  0
  184.3730  178.4070  140.3410 O   0  0  0  0  0  0  0  0  0  0  0  0
  184.2150  179.0560  139.0780 C   0  0  2  0  0  3  0  0  0  0  0  0
  182.7830  179.5390  138.8680 C   0  0  0  0  0  1  0  0  0  0  0  0
  184.6710  178.2510  138.0130 O   0  0  0  0  0  0  0  0  0  0  0  0
  183.5800  177.5420  137.4830 C   0  0  0  0  0  2  0  0  0  0  0  0
  183.7210  176.0730  137.8170 C   0  0  0  0  0  1  0  0  0  0  0  0
  1  3  1  0  0  0  0
  2  9  2  0  0  0  0
  2  7  1  0  0  0  0
  3 10  2  0  0  0  0
  4 10  1  0  0  0  0
  4  9  1  0  0  0  0
  7 12  2  0  0  0  0
  8  1  2  0  0  0  0
  8 13  1  0  0  0  0
  9 11  1  0  0  0  0
 10  6  1  0  0  0  0
 11  6  1  0  0  0  0
 11  5  2  0  0  0  0
 12  5  1  0  0  0  0
 13  4  2  0  0  0  0
 14 17  1  0  0  0  0
 15 16  1  0  0  0  0
 15 18  1  0  0  0  0
 16 20  1  6  0  0  0
 16 14  1  0  0  0  0
 17  2  1  0  0  0  0
 18 19  1  6  0  0  0
 18 17  1  0  0  0  0
 21  8  1  0  0  0  0
 22 21  2  0  0  0  0
 23 21  1  0  0  0  0
 24 25  1  6  0  0  0
 24 23  1  0  0  0  0
 26 24  1  0  0  0  0
 27 28  1  0  0  0  0
 27 26  1  0  0  0  0
M  END
>  <MODEL>
8

>  <REMARK>
 VINA RESULT:      -7.7      1.692      2.400
  Name = 
  6 active torsions:
  status: ('A' for Active; 'I' for Inactive)
    1  A    between atoms: C_2  and  N_16
    2  A    between atoms: C_9  and  O_15
    3  A    between atoms: C_9  and  O_18
    4  A    between atoms: C_11  and  C_12
    5  A    between atoms: C_12  and  O_15
    6  A    between atoms: O_18  and  C_27
                            x       y       z     vdW  Elec       q    Type
                         _______ _______ _______ _____ _____    ______ ____

>  <TORSDO>
F 6

$$$$
=
 OpenBabel11062416463D

 28 31  0  0  1  0  0  0  0  0999 V2000
  185.0980  178.8140  140.4880 C   0  0  0  0  0  3  0  0  0  0  0  0
  187.1810  178.0090  145.2700 C   0  0  0  0  0  0  0  0  0  0  0  0
  184.1420  179.0120  141.4950 C   0  0  0  0  0  3  0  0  0  0  0  0
  185.8410  178.4780  143.1580 C   0  0  0  0  0  0  0  0  0  0  0  0
  184.7690  178.5400  146.5940 N   0  0  0  0  0  0  0  0  0  0  0  0
  183.5830  179.0030  144.1970 S   0  0  0  0  0  0  0  0  0  0  0  0
  187.0910  177.9290  146.6680 C   0  0  0  0  0  3  0  0  0  0  0  0
  186.4200  178.4370  140.8040 C   0  0  0  0  0  0  0  0  0  0  0  0
  186.0240  178.3560  144.5460 C   0  0  0  0  0  0  0  0  0  0  0  0
  184.5370  178.8360  142.8170 C   0  0  0  0  0  0  0  0  0  0  0  0
  184.8460  178.6160  145.2430 C   0  0  0  0  0  0  0  0  0  0  0  0
  185.8740  178.2010  147.3150 C   0  0  0  0  0  3  0  0  0  0  0  0
  186.7900  178.2790  142.1530 C   0  0  0  0  0  3  0  0  0  0  0  0
  189.3890  178.6940  144.5400 O   0  0  0  0  0  0  0  0  0  0  0  0
  190.3670  176.5530  144.2440 C   0  0  0  0  0  2  0  0  0  0  0  0
  190.5940  177.9860  144.6990 C   0  0  1  0  0  3  0  0  0  0  0  0
  188.4340  177.7350  144.6390 N   0  0  0  0  0  0  0  0  0  0  0  0
  188.8880  176.3840  144.4020 C   0  0  1  0  0  3  0  0  0  0  0  0
  188.3370  175.9030  143.2150 O   0  0  0  0  0  1  0  0  0  0  0  0
  191.6820  178.6260  143.8630 C   0  0  0  0  0  1  0  0  0  0  0  0
  187.4390  178.2520  139.7440 C   0  0  0  0  0  0  0  0  0  0  0  0
  188.5760  177.8140  140.0630 O   0  0  0  0  0  0  0  0  0  0  0  0
  187.2070  178.5550  138.3950 O   0  0  0  0  0  0  0  0  0  0  0  0
  187.3360  177.6180  137.3240 C   0  0  2  0  0  3  0  0  0  0  0  0
  187.4050  178.3160  135.9690 C   0  0  0  0  0  1  0  0  0  0  0  0
  186.3310  176.6290  137.3660 O   0  0  0  0  0  0  0  0  0  0  0  0
  185.1060  177.2130  137.0080 C   0  0  0  0  0  2  0  0  0  0  0  0
  183.9810  176.5240  137.7480 C   0  0  0  0  0  1  0  0  0  0  0  0
  1  8  2  0  0  0  0
  1  3  1  0  0  0  0
  2  7  1  0  0  0  0
  3 10  2  0  0  0  0
  4  9  1  0  0  0  0
  5 12  1  0  0  0  0
  6 11  1  0  0  0  0
  7 12  2  0  0  0  0
  8 13  1  0  0  0  0
  9 11  1  0  0  0  0
  9  2  2  0  0  0  0
 10  4  1  0  0  0  0
 10  6  1  0  0  0  0
 11  5  2  0  0  0  0
 13  4  2  0  0  0  0
 14 17  1  0  0  0  0
 14 16  1  0  0  0  0
 15 18  1  0  0  0  0
 15 16  1  0  0  0  0
 16 20  1  6  0  0  0
 17  2  1  0  0  0  0
 18 19  1  6  0  0  0
 18 17  1  0  0  0  0
 21 22  2  0  0  0  0
 21  8  1  0  0  0  0
 23 21  1  0  0  0  0
 24 25  1  6  0  0  0
 24 26  1  0  0  0  0
 24 23  1  0  0  0  0
 27 26  1  0  0  0  0
 27 28  1  0  0  0  0
M  END
>  <MODEL>
9

>  <REMARK>
 VINA RESULT:      -7.6      2.485      4.381
  Name = 
  6 active torsions:
  status: ('A' for Active; 'I' for Inactive)
    1  A    between atoms: C_2  and  N_16
    2  A    between atoms: C_9  and  O_15
    3  A    between atoms: C_9  and  O_18
    4  A    between atoms: C_11  and  C_12
    5  A    between atoms: C_12  and  O_15
    6  A    between atoms: O_18  and  C_27
                            x       y       z     vdW  Elec       q    Type
                         _______ _______ _______ _____ _____    ______ ____

>  <TORSDO>
F 6

$$$$
