=
 OpenBabel11062415463D

 27 30  0  0  1  0  0  0  0  0999 V2000
  184.9370  178.7180  145.5140 C   0  0  0  0  0  3  0  0  0  0  0  0
  186.9300  177.7560  146.5200 C   0  0  0  0  0  0  0  0  0  0  0  0
  185.5000  178.5720  144.2430 C   0  0  0  0  0  0  0  0  0  0  0  0
  186.7710  178.0030  144.1080 C   0  0  0  0  0  3  0  0  0  0  0  0
  185.6480  178.3160  146.6460 C   0  0  0  0  0  3  0  0  0  0  0  0
  187.4900  177.6040  145.2390 C   0  0  0  0  0  0  0  0  0  0  0  0
  183.3640  178.4360  141.2290 C   0  0  0  0  0  2  0  0  0  0  0  0
  184.7550  178.8690  140.8060 C   0  0  2  0  0  3  0  0  0  0  0  0
  184.7250  178.9690  143.0300 C   0  0  1  0  0  0  0  0  0  0  0  0
  185.3880  179.4770  141.9040 O   0  0  0  0  0  0  0  0  0  0  0  0
  183.4440  178.3250  142.7260 C   0  0  1  0  0  3  0  0  0  0  0  0
  183.5120  179.6190  143.2980 O   0  0  0  0  0  0  0  0  0  0  0  0
  184.6570  179.8130  139.7040 N   0  0  0  0  0  2  0  0  0  0  0  0
  185.3690  179.2950  138.6760 O   0  0  0  0  0  1  0  0  0  0  0  0
  188.2980  178.2590  148.5220 C   0  0  0  0  0  1  0  0  0  0  0  0
  187.6550  177.3450  147.6460 O   0  0  0  0  0  0  0  0  0  0  0  0
  188.8380  176.9880  145.0640 C   0  0  0  0  0  2  0  0  0  0  0  0
  189.8870  178.0730  144.8910 C   0  0  0  0  0  2  0  0  0  0  0  0
  191.2660  177.4520  144.6860 C   0  0  1  0  0  3  0  0  0  0  0  0
  191.6530  177.1110  147.1380 N   0  0  0  0  0  0  0  0  0  0  0  0
  192.1550  176.0790  147.8460 C   0  0  0  0  0  3  0  0  0  0  0  0
  192.4940  175.0500  147.0440 N   0  0  0  0  0  0  0  0  0  0  0  0
  191.7030  176.6490  145.8760 C   0  0  0  0  0  0  0  0  0  0  0  0
  192.2140  175.4080  145.8030 N   0  0  0  0  0  2  0  0  0  0  0  0
  191.3120  176.6560  143.4610 N   0  0  0  0  0  0  0  0  0  0  0  0
  191.5890  177.1560  142.3220 C   0  0  0  0  0  0  0  0  0  0  0  0
  191.8570  177.6430  141.2160 O   0  0  0  0  0  0  0  0  0  0  0  0
  1  5  1  0  0  0  0
  2  5  2  0  0  0  0
  2 16  1  0  0  0  0
  3  1  2  0  0  0  0
  4  3  1  0  0  0  0
  4  6  2  0  0  0  0
  6  2  1  0  0  0  0
  8 13  1  6  0  0  0
  8  7  1  0  0  0  0
  8 10  1  0  0  0  0
  9 12  1  0  0  0  0
  9  3  1  1  0  0  0
 10  9  1  0  0  0  0
 11  7  1  6  0  0  0
 11  9  1  0  0  0  0
 11 12  1  0  0  0  0
 14 13  1  0  0  0  0
 16 15  1  0  0  0  0
 17  6  1  0  0  0  0
 18 17  1  0  0  0  0
 19 18  1  1  0  0  0
 19 23  1  0  0  0  0
 20 21  1  0  0  0  0
 22 21  2  0  0  0  0
 23 20  2  0  0  0  0
 24 23  1  0  0  0  0
 24 22  1  0  0  0  0
 25 19  1  0  0  0  0
 26 25  2  0  0  0  0
 27 26  2  0  0  0  0
M  END
>  <MODEL>
1

>  <REMARK>
 VINA RESULT:      -8.8      0.000      0.000
  Name = 
  8 active torsions:
  status: ('A' for Active; 'I' for Inactive)
    1  A    between atoms: N_1  and  C_11
    2  A    between atoms: N_4  and  C_14
    3  A    between atoms: C_7  and  O_12
    4  A    between atoms: C_8  and  C_15
    5  A    between atoms: C_11  and  C_17
    6  A    between atoms: C_11  and  C_22
    7  A    between atoms: C_16  and  C_17
    8  A    between atoms: C_16  and  C_27
                            x       y       z     vdW  Elec       q    Type
                         _______ _______ _______ _____ _____    ______ ____

>  <TORSDO>
F 8

$$$$
=
 OpenBabel11062415463D

 27 30  0  0  1  0  0  0  0  0999 V2000
  185.8140  178.3170  146.7420 C   0  0  0  0  0  3  0  0  0  0  0  0
  184.8430  178.5980  144.5310 C   0  0  0  0  0  0  0  0  0  0  0  0
  186.9800  177.8000  146.1710 C   0  0  0  0  0  0  0  0  0  0  0  0
  187.0850  177.6960  144.7800 C   0  0  0  0  0  3  0  0  0  0  0  0
  184.7500  178.7110  145.9280 C   0  0  0  0  0  3  0  0  0  0  0  0
  186.0200  178.0830  143.9600 C   0  0  0  0  0  0  0  0  0  0  0  0
  189.9990  177.9660  148.2970 C   0  0  0  0  0  2  0  0  0  0  0  0
  190.3470  177.1930  147.0400 C   0  0  2  0  0  3  0  0  0  0  0  0
  188.1310  177.4120  147.0390 C   0  0  1  0  0  0  0  0  0  0  0  0
  189.1700  176.6230  146.5240 O   0  0  0  0  0  0  0  0  0  0  0  0
  188.5320  178.2640  148.1620 C   0  0  1  0  0  3  0  0  0  0  0  0
  187.7830  177.0770  148.3570 O   0  0  0  0  0  0  0  0  0  0  0  0
  191.3060  176.1480  147.3600 N   0  0  0  0  0  2  0  0  0  0  0  0
  192.2890  176.7250  148.0890 O   0  0  0  0  0  1  0  0  0  0  0  0
  182.4220  178.8560  144.0750 C   0  0  0  0  0  1  0  0  0  0  0  0
  183.7860  178.9920  143.7010 O   0  0  0  0  0  0  0  0  0  0  0  0
  186.1660  177.9750  142.4790 C   0  0  0  0  0  2  0  0  0  0  0  0
  187.4560  178.6410  142.0330 C   0  0  0  0  0  2  0  0  0  0  0  0
  188.2920  177.6770  141.1970 C   0  0  1  0  0  3  0  0  0  0  0  0
  189.5310  178.1880  139.0810 N   0  0  0  0  0  0  0  0  0  0  0  0
  189.1260  178.6250  137.8700 C   0  0  0  0  0  3  0  0  0  0  0  0
  187.7910  178.7990  137.8320 N   0  0  0  0  0  0  0  0  0  0  0  0
  188.3750  178.1050  139.7610 C   0  0  0  0  0  0  0  0  0  0  0  0
  187.3150  178.4750  139.0220 N   0  0  0  0  0  2  0  0  0  0  0  0
  189.6220  177.4940  141.7740 N   0  0  0  0  0  0  0  0  0  0  0  0
  189.9970  176.4020  142.3150 C   0  0  0  0  0  0  0  0  0  0  0  0
  190.3590  175.3420  142.8400 O   0  0  0  0  0  0  0  0  0  0  0  0
  2  5  1  0  0  0  0
  3  1  1  0  0  0  0
  4  3  2  0  0  0  0
  5  1  2  0  0  0  0
  6  2  2  0  0  0  0
  6  4  1  0  0  0  0
  8 13  1  1  0  0  0
  8  7  1  0  0  0  0
  9  3  1  6  0  0  0
  9 11  1  0  0  0  0
  9 12  1  0  0  0  0
 10  9  1  0  0  0  0
 10  8  1  0  0  0  0
 11  7  1  1  0  0  0
 11 12  1  0  0  0  0
 13 14  1  0  0  0  0
 16 15  1  0  0  0  0
 16  2  1  0  0  0  0
 17  6  1  0  0  0  0
 18 17  1  0  0  0  0
 19 25  1  0  0  0  0
 19 18  1  1  0  0  0
 20 23  2  0  0  0  0
 21 20  1  0  0  0  0
 22 21  2  0  0  0  0
 22 24  1  0  0  0  0
 23 19  1  0  0  0  0
 24 23  1  0  0  0  0
 25 26  2  0  0  0  0
 26 27  2  0  0  0  0
M  END
>  <MODEL>
2

>  <REMARK>
 VINA RESULT:      -8.6      2.522      6.735
  Name = 
  8 active torsions:
  status: ('A' for Active; 'I' for Inactive)
    1  A    between atoms: N_1  and  C_11
    2  A    between atoms: N_4  and  C_14
    3  A    between atoms: C_7  and  O_12
    4  A    between atoms: C_8  and  C_15
    5  A    between atoms: C_11  and  C_17
    6  A    between atoms: C_11  and  C_22
    7  A    between atoms: C_16  and  C_17
    8  A    between atoms: C_16  and  C_27
                            x       y       z     vdW  Elec       q    Type
                         _______ _______ _______ _____ _____    ______ ____

>  <TORSDO>
F 8

$$$$
=
 OpenBabel11062415463D

 27 30  0  0  1  0  0  0  0  0999 V2000
  184.9860  178.7720  145.7000 C   0  0  0  0  0  3  0  0  0  0  0  0
  187.0010  177.8070  146.6590 C   0  0  0  0  0  0  0  0  0  0  0  0
  185.5150  178.6160  144.4150 C   0  0  0  0  0  0  0  0  0  0  0  0
  186.7800  178.0420  144.2510 C   0  0  0  0  0  3  0  0  0  0  0  0
  185.7250  178.3740  146.8160 C   0  0  0  0  0  3  0  0  0  0  0  0
  187.5270  177.6460  145.3650 C   0  0  0  0  0  0  0  0  0  0  0  0
  183.2660  178.4790  141.4860 C   0  0  0  0  0  2  0  0  0  0  0  0
  184.6540  178.8500  141.0010 C   0  0  2  0  0  3  0  0  0  0  0  0
  184.7110  179.0090  143.2210 C   0  0  1  0  0  0  0  0  0  0  0  0
  185.3490  179.4630  142.0580 O   0  0  0  0  0  0  0  0  0  0  0  0
  183.3970  178.4060  142.9810 C   0  0  1  0  0  3  0  0  0  0  0  0
  183.5320  179.7110  143.5150 O   0  0  0  0  0  0  0  0  0  0  0  0
  184.5490  179.7680  139.8780 N   0  0  0  0  0  2  0  0  0  0  0  0
  185.3550  179.2900  138.9010 O   0  0  0  0  0  1  0  0  0  0  0  0
  188.4490  178.3140  148.6040 C   0  0  0  0  0  1  0  0  0  0  0  0
  187.7540  177.4000  147.7680 O   0  0  0  0  0  0  0  0  0  0  0  0
  188.8670  177.0240  145.1590 C   0  0  0  0  0  2  0  0  0  0  0  0
  189.6180  177.7570  144.0600 C   0  0  0  0  0  2  0  0  0  0  0  0
  190.0690  176.7790  142.9790 C   0  0  1  0  0  3  0  0  0  0  0  0
  188.6180  177.8930  141.2670 N   0  0  0  0  0  0  0  0  0  0  0  0
  188.7930  178.1520  139.9540 C   0  0  0  0  0  3  0  0  0  0  0  0
  189.9950  177.7210  139.5230 N   0  0  0  0  0  0  0  0  0  0  0  0
  189.7740  177.2920  141.5990 C   0  0  0  0  0  0  0  0  0  0  0  0
  190.6130  177.1760  140.5560 N   0  0  0  0  0  2  0  0  0  0  0  0
  191.4820  176.4390  143.1290 N   0  0  0  0  0  0  0  0  0  0  0  0
  191.8900  175.4970  143.8840 C   0  0  0  0  0  0  0  0  0  0  0  0
  192.2850  174.5810  144.6170 O   0  0  0  0  0  0  0  0  0  0  0  0
  1  5  1  0  0  0  0
  2  5  2  0  0  0  0
  2 16  1  0  0  0  0
  3  1  2  0  0  0  0
  4  3  1  0  0  0  0
  4  6  2  0  0  0  0
  6  2  1  0  0  0  0
  8 13  1  6  0  0  0
  8  7  1  0  0  0  0
  8 10  1  0  0  0  0
  9 12  1  0  0  0  0
  9  3  1  1  0  0  0
 10  9  1  0  0  0  0
 11  7  1  6  0  0  0
 11  9  1  0  0  0  0
 11 12  1  0  0  0  0
 14 13  1  0  0  0  0
 16 15  1  0  0  0  0
 17  6  1  0  0  0  0
 18 17  1  0  0  0  0
 19 25  1  0  0  0  0
 19 18  1  1  0  0  0
 20 23  2  0  0  0  0
 21 20  1  0  0  0  0
 22 21  2  0  0  0  0
 22 24  1  0  0  0  0
 23 19  1  0  0  0  0
 24 23  1  0  0  0  0
 25 26  2  0  0  0  0
 26 27  2  0  0  0  0
M  END
>  <MODEL>
3

>  <REMARK>
 VINA RESULT:      -8.5      1.865      3.224
  Name = 
  8 active torsions:
  status: ('A' for Active; 'I' for Inactive)
    1  A    between atoms: N_1  and  C_11
    2  A    between atoms: N_4  and  C_14
    3  A    between atoms: C_7  and  O_12
    4  A    between atoms: C_8  and  C_15
    5  A    between atoms: C_11  and  C_17
    6  A    between atoms: C_11  and  C_22
    7  A    between atoms: C_16  and  C_17
    8  A    between atoms: C_16  and  C_27
                            x       y       z     vdW  Elec       q    Type
                         _______ _______ _______ _____ _____    ______ ____

>  <TORSDO>
F 8

$$$$
=
 OpenBabel11062415463D

 27 30  0  0  1  0  0  0  0  0999 V2000
  184.4200  178.9440  142.6160 C   0  0  0  0  0  3  0  0  0  0  0  0
  185.5490  178.1530  144.6190 C   0  0  0  0  0  0  0  0  0  0  0  0
  185.5430  178.6200  141.8480 C   0  0  0  0  0  0  0  0  0  0  0  0
  186.6620  178.0480  142.4620 C   0  0  0  0  0  3  0  0  0  0  0  0
  184.4230  178.7160  143.9930 C   0  0  0  0  0  3  0  0  0  0  0  0
  186.6730  177.8220  143.8420 C   0  0  0  0  0  0  0  0  0  0  0  0
  184.8850  178.1850  138.2370 C   0  0  0  0  0  2  0  0  0  0  0  0
  186.3790  178.0540  138.4660 C   0  0  2  0  0  3  0  0  0  0  0  0
  185.5260  178.8310  140.3700 C   0  0  1  0  0  0  0  0  0  0  0  0
  186.7170  178.7620  139.6330 O   0  0  0  0  0  0  0  0  0  0  0  0
  184.3250  178.5180  139.5900 C   0  0  1  0  0  3  0  0  0  0  0  0
  184.6640  179.8500  139.9340 O   0  0  0  0  0  0  0  0  0  0  0  0
  187.0970  178.6040  137.3270 N   0  0  0  0  0  2  0  0  0  0  0  0
  188.2710  179.0860  137.7960 O   0  0  0  0  0  1  0  0  0  0  0  0
  185.8700  178.9250  146.9500 C   0  0  0  0  0  1  0  0  0  0  0  0
  185.5660  177.9150  145.9990 O   0  0  0  0  0  0  0  0  0  0  0  0
  187.8750  177.1980  144.4670 C   0  0  0  0  0  2  0  0  0  0  0  0
  188.5390  176.2490  143.4840 C   0  0  0  0  0  2  0  0  0  0  0  0
  190.0540  176.4250  143.5140 C   0  0  1  0  0  3  0  0  0  0  0  0
  191.8600  177.2690  141.9960 N   0  0  0  0  0  0  0  0  0  0  0  0
  191.8840  177.5500  140.6770 C   0  0  0  0  0  3  0  0  0  0  0  0
  190.6900  177.3090  140.1000 N   0  0  0  0  0  0  0  0  0  0  0  0
  190.5980  176.8440  142.1790 C   0  0  0  0  0  0  0  0  0  0  0  0
  189.8780  176.8670  141.0440 N   0  0  0  0  0  2  0  0  0  0  0  0
  190.4590  177.3540  144.5670 N   0  0  0  0  0  0  0  0  0  0  0  0
  191.2530  177.0280  145.5090 C   0  0  0  0  0  0  0  0  0  0  0  0
  192.0250  176.7110  146.4230 O   0  0  0  0  0  0  0  0  0  0  0  0
  1  5  1  0  0  0  0
  2 16  1  0  0  0  0
  3  4  1  0  0  0  0
  3  1  2  0  0  0  0
  4  6  2  0  0  0  0
  5  2  2  0  0  0  0
  6 17  1  0  0  0  0
  6  2  1  0  0  0  0
  7  8  1  0  0  0  0
  8 13  1  6  0  0  0
  8 10  1  0  0  0  0
  9  3  1  1  0  0  0
 10  9  1  0  0  0  0
 11  7  1  6  0  0  0
 11 12  1  0  0  0  0
 11  9  1  0  0  0  0
 12  9  1  0  0  0  0
 13 14  1  0  0  0  0
 16 15  1  0  0  0  0
 18 17  1  0  0  0  0
 19 18  1  6  0  0  0
 19 25  1  0  0  0  0
 20 23  2  0  0  0  0
 21 20  1  0  0  0  0
 22 21  2  0  0  0  0
 22 24  1  0  0  0  0
 23 19  1  0  0  0  0
 24 23  1  0  0  0  0
 25 26  2  0  0  0  0
 26 27  2  0  0  0  0
M  END
>  <MODEL>
4

>  <REMARK>
 VINA RESULT:      -8.3      2.245      3.683
  Name = 
  8 active torsions:
  status: ('A' for Active; 'I' for Inactive)
    1  A    between atoms: N_1  and  C_11
    2  A    between atoms: N_4  and  C_14
    3  A    between atoms: C_7  and  O_12
    4  A    between atoms: C_8  and  C_15
    5  A    between atoms: C_11  and  C_17
    6  A    between atoms: C_11  and  C_22
    7  A    between atoms: C_16  and  C_17
    8  A    between atoms: C_16  and  C_27
                            x       y       z     vdW  Elec       q    Type
                         _______ _______ _______ _____ _____    ______ ____

>  <TORSDO>
F 8

$$$$
=
 OpenBabel11062415463D

 27 30  0  0  1  0  0  0  0  0999 V2000
  184.7830  178.9310  142.7230 C   0  0  0  0  0  3  0  0  0  0  0  0
  185.8270  178.0490  144.7340 C   0  0  0  0  0  0  0  0  0  0  0  0
  185.8930  178.5390  141.9680 C   0  0  0  0  0  0  0  0  0  0  0  0
  186.9630  177.8890  142.5920 C   0  0  0  0  0  3  0  0  0  0  0  0
  184.7510  178.6920  144.0980 C   0  0  0  0  0  3  0  0  0  0  0  0
  186.9380  177.6510  143.9700 C   0  0  0  0  0  0  0  0  0  0  0  0
  185.3640  178.1110  138.3350 C   0  0  0  0  0  2  0  0  0  0  0  0
  186.8540  178.0420  138.6090 C   0  0  2  0  0  3  0  0  0  0  0  0
  185.9110  178.7640  140.4920 C   0  0  1  0  0  0  0  0  0  0  0  0
  187.1260  178.7520  139.7910 O   0  0  0  0  0  0  0  0  0  0  0  0
  184.7490  178.4070  139.6740 C   0  0  1  0  0  3  0  0  0  0  0  0
  185.0210  179.7490  140.0390 O   0  0  0  0  0  0  0  0  0  0  0  0
  187.5820  178.6330  137.4970 N   0  0  0  0  0  2  0  0  0  0  0  0
  188.6850  179.2220  138.0160 O   0  0  0  0  0  1  0  0  0  0  0  0
  186.0630  178.8070  147.0810 C   0  0  0  0  0  1  0  0  0  0  0  0
  185.8090  177.7990  146.1120 O   0  0  0  0  0  0  0  0  0  0  0  0
  188.0870  176.9430  144.6060 C   0  0  0  0  0  2  0  0  0  0  0  0
  189.1430  177.9460  145.0370 C   0  0  0  0  0  2  0  0  0  0  0  0
  190.5320  177.4680  144.6250 C   0  0  1  0  0  3  0  0  0  0  0  0
  192.0200  175.7020  145.5940 N   0  0  0  0  0  0  0  0  0  0  0  0
  192.4290  175.4460  146.8540 C   0  0  0  0  0  3  0  0  0  0  0  0
  191.9260  176.3410  147.7270 N   0  0  0  0  0  0  0  0  0  0  0  0
  191.2530  176.7940  145.7550 C   0  0  0  0  0  0  0  0  0  0  0  0
  191.1820  177.1890  147.0380 N   0  0  0  0  0  2  0  0  0  0  0  0
  190.4670  176.6060  143.4460 N   0  0  0  0  0  0  0  0  0  0  0  0
  190.8820  176.9730  142.2980 C   0  0  0  0  0  0  0  0  0  0  0  0
  191.2840  177.3300  141.1830 O   0  0  0  0  0  0  0  0  0  0  0  0
  1  5  1  0  0  0  0
  2 16  1  0  0  0  0
  3  4  1  0  0  0  0
  3  1  2  0  0  0  0
  4  6  2  0  0  0  0
  5  2  2  0  0  0  0
  6 17  1  0  0  0  0
  6  2  1  0  0  0  0
  7  8  1  0  0  0  0
  8 13  1  6  0  0  0
  8 10  1  0  0  0  0
  9  3  1  1  0  0  0
 10  9  1  0  0  0  0
 11  7  1  6  0  0  0
 11 12  1  0  0  0  0
 11  9  1  0  0  0  0
 12  9  1  0  0  0  0
 13 14  1  0  0  0  0
 16 15  1  0  0  0  0
 17 18  1  0  0  0  0
 19 18  1  1  0  0  0
 19 23  1  0  0  0  0
 20 23  2  0  0  0  0
 20 21  1  0  0  0  0
 21 22  2  0  0  0  0
 23 24  1  0  0  0  0
 24 22  1  0  0  0  0
 25 19  1  0  0  0  0
 26 25  2  0  0  0  0
 27 26  2  0  0  0  0
M  END
>  <MODEL>
5

>  <REMARK>
 VINA RESULT:      -8.3      1.642      2.351
  Name = 
  8 active torsions:
  status: ('A' for Active; 'I' for Inactive)
    1  A    between atoms: N_1  and  C_11
    2  A    between atoms: N_4  and  C_14
    3  A    between atoms: C_7  and  O_12
    4  A    between atoms: C_8  and  C_15
    5  A    between atoms: C_11  and  C_17
    6  A    between atoms: C_11  and  C_22
    7  A    between atoms: C_16  and  C_17
    8  A    between atoms: C_16  and  C_27
                            x       y       z     vdW  Elec       q    Type
                         _______ _______ _______ _____ _____    ______ ____

>  <TORSDO>
F 8

$$$$
=
 OpenBabel11062415463D

 27 30  0  0  1  0  0  0  0  0999 V2000
  185.7660  178.2690  146.8900 C   0  0  0  0  0  3  0  0  0  0  0  0
  184.8840  178.5930  144.6470 C   0  0  0  0  0  0  0  0  0  0  0  0
  186.9880  177.8490  146.3560 C   0  0  0  0  0  0  0  0  0  0  0  0
  187.1640  177.8160  144.9680 C   0  0  0  0  0  3  0  0  0  0  0  0
  184.7190  178.6350  146.0420 C   0  0  0  0  0  3  0  0  0  0  0  0
  186.1170  178.1770  144.1140 C   0  0  0  0  0  0  0  0  0  0  0  0
  189.9560  178.0890  148.5450 C   0  0  0  0  0  2  0  0  0  0  0  0
  190.3340  177.2760  147.3210 C   0  0  2  0  0  3  0  0  0  0  0  0
  188.1190  177.4910  147.2630 C   0  0  1  0  0  0  0  0  0  0  0  0
  189.1700  176.6870  146.7970 O   0  0  0  0  0  0  0  0  0  0  0  0
  188.4930  178.3800  148.3660 C   0  0  1  0  0  3  0  0  0  0  0  0
  187.7410  177.1990  148.5820 O   0  0  0  0  0  0  0  0  0  0  0  0
  191.2860  176.2430  147.6970 N   0  0  0  0  0  2  0  0  0  0  0  0
  192.3260  176.3330  146.8360 O   0  0  0  0  0  1  0  0  0  0  0  0
  182.4760  178.9030  144.1590 C   0  0  0  0  0  1  0  0  0  0  0  0
  183.8450  178.9600  143.7840 O   0  0  0  0  0  0  0  0  0  0  0  0
  186.3380  178.1450  142.6390 C   0  0  0  0  0  2  0  0  0  0  0  0
  187.5280  177.2590  142.3100 C   0  0  0  0  0  2  0  0  0  0  0  0
  188.6700  178.0920  141.7360 C   0  0  1  0  0  3  0  0  0  0  0  0
  190.8090  176.9070  142.2800 N   0  0  0  0  0  0  0  0  0  0  0  0
  191.7640  177.1290  143.2070 C   0  0  0  0  0  3  0  0  0  0  0  0
  191.4780  178.2100  143.9590 N   0  0  0  0  0  0  0  0  0  0  0  0
  189.9430  177.9090  142.5100 C   0  0  0  0  0  0  0  0  0  0  0  0
  190.3300  178.7010  143.5240 N   0  0  0  0  0  2  0  0  0  0  0  0
  188.8670  177.8130  140.3150 N   0  0  0  0  0  0  0  0  0  0  0  0
  188.0390  178.1790  139.4180 C   0  0  0  0  0  0  0  0  0  0  0  0
  187.2350  178.5350  138.5470 O   0  0  0  0  0  0  0  0  0  0  0  0
  2  5  1  0  0  0  0
  3  1  1  0  0  0  0
  4  3  2  0  0  0  0
  5  1  2  0  0  0  0
  6  2  2  0  0  0  0
  6  4  1  0  0  0  0
  8 13  1  1  0  0  0
  8  7  1  0  0  0  0
  9  3  1  6  0  0  0
  9 11  1  0  0  0  0
  9 12  1  0  0  0  0
 10  9  1  0  0  0  0
 10  8  1  0  0  0  0
 11  7  1  1  0  0  0
 11 12  1  0  0  0  0
 14 13  1  0  0  0  0
 16 15  1  0  0  0  0
 16  2  1  0  0  0  0
 17  6  1  0  0  0  0
 18 17  1  0  0  0  0
 19 18  1  1  0  0  0
 19 23  1  0  0  0  0
 20 23  2  0  0  0  0
 20 21  1  0  0  0  0
 21 22  2  0  0  0  0
 23 24  1  0  0  0  0
 24 22  1  0  0  0  0
 25 19  1  0  0  0  0
 26 25  2  0  0  0  0
 27 26  2  0  0  0  0
M  END
>  <MODEL>
6

>  <REMARK>
 VINA RESULT:      -8.3      2.112      5.862
  Name = 
  8 active torsions:
  status: ('A' for Active; 'I' for Inactive)
    1  A    between atoms: N_1  and  C_11
    2  A    between atoms: N_4  and  C_14
    3  A    between atoms: C_7  and  O_12
    4  A    between atoms: C_8  and  C_15
    5  A    between atoms: C_11  and  C_17
    6  A    between atoms: C_11  and  C_22
    7  A    between atoms: C_16  and  C_17
    8  A    between atoms: C_16  and  C_27
                            x       y       z     vdW  Elec       q    Type
                         _______ _______ _______ _____ _____    ______ ____

>  <TORSDO>
F 8

$$$$
=
 OpenBabel11062415463D

 27 30  0  0  1  0  0  0  0  0999 V2000
  188.5810  177.5130  147.3460 C   0  0  0  0  0  3  0  0  0  0  0  0
  190.6640  176.7500  146.3510 C   0  0  0  0  0  0  0  0  0  0  0  0
  188.1080  177.8890  146.0850 C   0  0  0  0  0  0  0  0  0  0  0  0
  188.9060  177.6810  144.9540 C   0  0  0  0  0  3  0  0  0  0  0  0
  189.8510  176.9510  147.4800 C   0  0  0  0  0  3  0  0  0  0  0  0
  190.1820  177.1230  145.0830 C   0  0  0  0  0  0  0  0  0  0  0  0
  184.4290  178.2390  146.0360 C   0  0  0  0  0  2  0  0  0  0  0  0
  184.9410  178.4200  144.6200 C   0  0  2  0  0  3  0  0  0  0  0  0
  186.7360  178.4580  145.9380 C   0  0  1  0  0  0  0  0  0  0  0  0
  186.2730  178.8670  144.6790 O   0  0  0  0  0  0  0  0  0  0  0  0
  185.6700  178.0720  146.8670 C   0  0  1  0  0  3  0  0  0  0  0  0
  186.3430  179.3140  146.9770 O   0  0  0  0  0  0  0  0  0  0  0  0
  184.1190  179.3970  143.9260 N   0  0  0  0  0  2  0  0  0  0  0  0
  183.1420  178.7100  143.2890 O   0  0  0  0  0  1  0  0  0  0  0  0
  192.4250  175.6280  147.6810 C   0  0  0  0  0  1  0  0  0  0  0  0
  191.9390  176.1840  146.4680 O   0  0  0  0  0  0  0  0  0  0  0  0
  191.0050  176.9000  143.8590 C   0  0  0  0  0  2  0  0  0  0  0  0
  190.1870  176.1690  142.8080 C   0  0  0  0  0  2  0  0  0  0  0  0
  190.4370  176.7670  141.4270 C   0  0  1  0  0  3  0  0  0  0  0  0
  188.1590  177.7800  141.6740 N   0  0  0  0  0  0  0  0  0  0  0  0
  187.3710  178.4690  140.8220 C   0  0  0  0  0  3  0  0  0  0  0  0
  187.9640  178.6280  139.6220 N   0  0  0  0  0  0  0  0  0  0  0  0
  189.2520  177.5400  140.9280 C   0  0  0  0  0  0  0  0  0  0  0  0
  189.1460  178.0410  139.6850 N   0  0  0  0  0  2  0  0  0  0  0  0
  191.6480  177.5840  141.4150 N   0  0  0  0  0  0  0  0  0  0  0  0
  192.6120  177.3800  140.6060 C   0  0  0  0  0  0  0  0  0  0  0  0
  193.5470  177.1800  139.8210 O   0  0  0  0  0  0  0  0  0  0  0  0
  1  5  1  0  0  0  0
  2 16  1  0  0  0  0
  2  5  2  0  0  0  0
  3  1  2  0  0  0  0
  4  6  2  0  0  0  0
  4  3  1  0  0  0  0
  6  2  1  0  0  0  0
  8 13  1  1  0  0  0
  8 10  1  0  0  0  0
  8  7  1  0  0  0  0
  9  3  1  1  0  0  0
  9 11  1  0  0  0  0
  9 12  1  0  0  0  0
 10  9  1  0  0  0  0
 11  7  1  6  0  0  0
 11 12  1  0  0  0  0
 14 13  1  0  0  0  0
 16 15  1  0  0  0  0
 17  6  1  0  0  0  0
 18 17  1  0  0  0  0
 19 18  1  1  0  0  0
 21 20  1  0  0  0  0
 22 24  1  0  0  0  0
 22 21  2  0  0  0  0
 23 19  1  0  0  0  0
 23 20  2  0  0  0  0
 24 23  1  0  0  0  0
 25 19  1  0  0  0  0
 26 25  2  0  0  0  0
 27 26  2  0  0  0  0
M  END
>  <MODEL>
7

>  <REMARK>
 VINA RESULT:      -8.0      2.755      4.738
  Name = 
  8 active torsions:
  status: ('A' for Active; 'I' for Inactive)
    1  A    between atoms: N_1  and  C_11
    2  A    between atoms: N_4  and  C_14
    3  A    between atoms: C_7  and  O_12
    4  A    between atoms: C_8  and  C_15
    5  A    between atoms: C_11  and  C_17
    6  A    between atoms: C_11  and  C_22
    7  A    between atoms: C_16  and  C_17
    8  A    between atoms: C_16  and  C_27
                            x       y       z     vdW  Elec       q    Type
                         _______ _______ _______ _____ _____    ______ ____

>  <TORSDO>
F 8

$$$$
=
 OpenBabel11062415463D

 27 30  0  0  1  0  0  0  0  0999 V2000
  186.2300  178.8940  141.2050 C   0  0  0  0  0  3  0  0  0  0  0  0
  185.4830  178.4470  143.4750 C   0  0  0  0  0  0  0  0  0  0  0  0
  187.4120  178.1860  141.4470 C   0  0  0  0  0  0  0  0  0  0  0  0
  187.6220  177.5950  142.6980 C   0  0  0  0  0  3  0  0  0  0  0  0
  185.2730  179.0270  142.2120 C   0  0  0  0  0  3  0  0  0  0  0  0
  186.6690  177.7300  143.7130 C   0  0  0  0  0  0  0  0  0  0  0  0
  189.2210  176.8850  138.5000 C   0  0  0  0  0  2  0  0  0  0  0  0
  190.1170  176.7270  139.7130 C   0  0  2  0  0  3  0  0  0  0  0  0
  188.4190  178.0140  140.3590 C   0  0  1  0  0  0  0  0  0  0  0  0
  189.7470  177.6870  140.6710 O   0  0  0  0  0  0  0  0  0  0  0  0
  187.9990  177.5850  139.0220 C   0  0  1  0  0  3  0  0  0  0  0  0
  188.3090  178.9380  139.3090 O   0  0  0  0  0  0  0  0  0  0  0  0
  191.5040  176.9240  139.3240 N   0  0  0  0  0  2  0  0  0  0  0  0
  191.5640  176.7640  137.9820 O   0  0  0  0  0  1  0  0  0  0  0  0
  183.1730  178.9020  144.2440 C   0  0  0  0  0  1  0  0  0  0  0  0
  184.5310  178.5680  144.4940 O   0  0  0  0  0  0  0  0  0  0  0  0
  186.9140  177.0770  145.0310 C   0  0  0  0  0  2  0  0  0  0  0  0
  187.9730  177.8450  145.8030 C   0  0  0  0  0  2  0  0  0  0  0  0
  189.2450  177.0130  145.9340 C   0  0  1  0  0  3  0  0  0  0  0  0
  190.5720  178.6680  144.6020 N   0  0  0  0  0  0  0  0  0  0  0  0
  191.5060  178.5240  143.6380 C   0  0  0  0  0  3  0  0  0  0  0  0
  191.7480  177.2240  143.3790 N   0  0  0  0  0  0  0  0  0  0  0  0
  190.2730  177.3940  144.9080 C   0  0  0  0  0  0  0  0  0  0  0  0
  190.9700  176.5110  144.1740 N   0  0  0  0  0  2  0  0  0  0  0  0
  189.7910  177.0890  147.2870 N   0  0  0  0  0  0  0  0  0  0  0  0
  191.0130  176.8440  147.5540 C   0  0  0  0  0  0  0  0  0  0  0  0
  192.2000  176.6050  147.8130 O   0  0  0  0  0  0  0  0  0  0  0  0
  1  3  2  0  0  0  0
  1  5  1  0  0  0  0
  2  6  1  0  0  0  0
  2 16  1  0  0  0  0
  3  4  1  0  0  0  0
  4  6  2  0  0  0  0
  5  2  2  0  0  0  0
  6 17  1  0  0  0  0
  7  8  1  0  0  0  0
  8 13  1  6  0  0  0
  8 10  1  0  0  0  0
  9 10  1  0  0  0  0
  9  3  1  1  0  0  0
 11  7  1  6  0  0  0
 11 12  1  0  0  0  0
 11  9  1  0  0  0  0
 12  9  1  0  0  0  0
 14 13  1  0  0  0  0
 15 16  1  0  0  0  0
 17 18  1  0  0  0  0
 19 18  1  1  0  0  0
 19 25  1  0  0  0  0
 20 23  2  0  0  0  0
 21 20  1  0  0  0  0
 22 21  2  0  0  0  0
 22 24  1  0  0  0  0
 23 19  1  0  0  0  0
 24 23  1  0  0  0  0
 25 26  2  0  0  0  0
 26 27  2  0  0  0  0
M  END
>  <MODEL>
8

>  <REMARK>
 VINA RESULT:      -8.0      2.485      4.717
  Name = 
  8 active torsions:
  status: ('A' for Active; 'I' for Inactive)
    1  A    between atoms: N_1  and  C_11
    2  A    between atoms: N_4  and  C_14
    3  A    between atoms: C_7  and  O_12
    4  A    between atoms: C_8  and  C_15
    5  A    between atoms: C_11  and  C_17
    6  A    between atoms: C_11  and  C_22
    7  A    between atoms: C_16  and  C_17
    8  A    between atoms: C_16  and  C_27
                            x       y       z     vdW  Elec       q    Type
                         _______ _______ _______ _____ _____    ______ ____

>  <TORSDO>
F 8

$$$$
=
 OpenBabel11062415463D

 27 30  0  0  1  0  0  0  0  0999 V2000
  185.3060  178.4830  143.8190 C   0  0  0  0  0  3  0  0  0  0  0  0
  185.7230  178.9440  141.4690 C   0  0  0  0  0  0  0  0  0  0  0  0
  186.6210  178.0320  143.9710 C   0  0  0  0  0  0  0  0  0  0  0  0
  187.4920  178.0520  142.8760 C   0  0  0  0  0  3  0  0  0  0  0  0
  184.8580  178.9320  142.5760 C   0  0  0  0  0  3  0  0  0  0  0  0
  187.0470  178.4960  141.6270 C   0  0  0  0  0  0  0  0  0  0  0  0
  187.8080  178.0480  147.4710 C   0  0  0  0  0  2  0  0  0  0  0  0
  188.9270  177.5220  146.5930 C   0  0  2  0  0  3  0  0  0  0  0  0
  187.1100  177.5850  145.3090 C   0  0  1  0  0  0  0  0  0  0  0  0
  188.3630  176.9670  145.4320 O   0  0  0  0  0  0  0  0  0  0  0  0
  186.6590  178.2620  146.5270 C   0  0  1  0  0  3  0  0  0  0  0  0
  186.1270  177.0110  146.1290 O   0  0  0  0  0  0  0  0  0  0  0  0
  189.6770  176.5070  147.3150 N   0  0  0  0  0  2  0  0  0  0  0  0
  190.9140  177.0100  147.5330 O   0  0  0  0  0  1  0  0  0  0  0  0
  184.0580  178.9900  139.6360 C   0  0  0  0  0  1  0  0  0  0  0  0
  185.2900  179.3950  140.2160 O   0  0  0  0  0  0  0  0  0  0  0  0
  188.0020  178.5190  140.4810 C   0  0  0  0  0  2  0  0  0  0  0  0
  188.8740  177.2760  140.5060 C   0  0  0  0  0  2  0  0  0  0  0  0
  190.3350  177.6540  140.7300 C   0  0  1  0  0  3  0  0  0  0  0  0
  190.6430  175.9820  142.5700 N   0  0  0  0  0  0  0  0  0  0  0  0
  191.2160  176.0630  143.7890 C   0  0  0  0  0  3  0  0  0  0  0  0
  191.7140  177.2940  144.0170 N   0  0  0  0  0  0  0  0  0  0  0  0
  190.8270  177.2210  142.0800 C   0  0  0  0  0  0  0  0  0  0  0  0
  191.4670  178.0260  142.9450 N   0  0  0  0  0  2  0  0  0  0  0  0
  191.1870  177.1350  139.6620 N   0  0  0  0  0  0  0  0  0  0  0  0
  190.8510  176.1480  138.9290 C   0  0  0  0  0  0  0  0  0  0  0  0
  190.5250  175.1890  138.2170 O   0  0  0  0  0  0  0  0  0  0  0  0
  1  3  1  0  0  0  0
  2  6  2  0  0  0  0
  2  5  1  0  0  0  0
  4  3  2  0  0  0  0
  5  1  2  0  0  0  0
  6  4  1  0  0  0  0
  8 13  1  1  0  0  0
  8  7  1  0  0  0  0
  9  3  1  6  0  0  0
  9 10  1  0  0  0  0
  9 12  1  0  0  0  0
  9 11  1  0  0  0  0
 10  8  1  0  0  0  0
 11  7  1  1  0  0  0
 12 11  1  0  0  0  0
 13 14  1  0  0  0  0
 15 16  1  0  0  0  0
 16  2  1  0  0  0  0
 17 18  1  0  0  0  0
 17  6  1  0  0  0  0
 19 18  1  6  0  0  0
 19 23  1  0  0  0  0
 20 21  1  0  0  0  0
 21 22  2  0  0  0  0
 23 20  2  0  0  0  0
 23 24  1  0  0  0  0
 24 22  1  0  0  0  0
 25 19  1  0  0  0  0
 26 25  2  0  0  0  0
 27 26  2  0  0  0  0
M  END
>  <MODEL>
9

>  <REMARK>
 VINA RESULT:      -7.9      2.391      5.539
  Name = 
  8 active torsions:
  status: ('A' for Active; 'I' for Inactive)
    1  A    between atoms: N_1  and  C_11
    2  A    between atoms: N_4  and  C_14
    3  A    between atoms: C_7  and  O_12
    4  A    between atoms: C_8  and  C_15
    5  A    between atoms: C_11  and  C_17
    6  A    between atoms: C_11  and  C_22
    7  A    between atoms: C_16  and  C_17
    8  A    between atoms: C_16  and  C_27
                            x       y       z     vdW  Elec       q    Type
                         _______ _______ _______ _____ _____    ______ ____

>  <TORSDO>
F 8

$$$$
