=
 OpenBabel11062413303D

 28 31  0  0  1  0  0  0  0  0999 V2000
  186.1540  177.9180  146.6740 C   0  0  0  0  0  0  0  0  0  0  0  0
  186.8840  177.4340  145.4570 C   0  0  2  0  0  3  0  0  0  0  0  0
  189.2600  178.3270  147.9750 N   0  0  0  0  0  2  0  0  0  0  0  0
  184.4860  179.0870  143.0620 N   0  0  0  0  0  0  0  0  0  0  0  0
  186.3480  178.2860  141.7950 C   0  0  0  0  0  0  0  0  0  0  0  0
  186.9410  177.8270  142.9700 C   0  0  0  0  0  3  0  0  0  0  0  0
  188.3290  177.8260  145.7660 C   0  0  1  0  0  3  0  0  0  0  0  0
  184.2860  178.7720  145.4810 C   0  0  0  0  0  3  0  0  0  0  0  0
  185.1140  178.9470  141.8620 C   0  0  0  0  0  0  0  0  0  0  0  0
  186.9170  178.1490  147.6890 N   0  0  0  0  0  0  0  0  0  0  0  0
  185.0360  178.6380  144.2180 C   0  0  0  0  0  0  0  0  0  0  0  0
  186.9560  178.0470  140.6050 F   0  0  0  0  0  0  0  0  0  0  0  0
  188.2530  177.9750  147.2460 C   0  0  0  0  0  0  0  0  0  0  0  0
  186.3110  178.0300  144.2040 C   0  0  0  0  0  0  0  0  0  0  0  0
  184.8200  178.4300  146.6150 N   0  0  0  0  0  0  0  0  0  0  0  0
  185.1890  179.0170  139.5260 F   0  0  0  0  0  0  0  0  0  0  0  0
  184.4220  179.3880  140.6160 C   0  0  1  0  0  3  0  0  0  0  0  0
  183.0450  178.7570  140.5290 C   0  0  0  0  0  1  0  0  0  0  0  0
  189.2470  176.7530  145.4180 N   0  0  0  0  0  2  0  0  0  0  0  0
  191.2140  176.5160  143.1130 N   0  0  0  0  0  0  0  0  0  0  0  0
  190.7490  177.6790  142.8150 C   0  0  0  0  0  0  0  0  0  0  0  0
  190.8160  175.9990  140.4170 O   0  0  0  0  0  0  0  0  0  0  0  0
  189.4880  177.5100  139.1540 C   0  0  0  0  0  1  0  0  0  0  0  0
  190.2030  177.0970  140.3920 C   0  0  0  0  0  0  0  0  0  0  0  0
  190.1710  177.9610  141.5330 N   0  0  0  0  0  2  0  0  0  0  0  0
  191.5020  176.3390  144.5210 C   0  0  0  0  0  2  0  0  0  0  0  0
  190.5050  178.7830  144.1990 S   0  0  0  0  0  0  0  0  0  0  0  0
  190.5920  177.3120  145.2670 C   0  0  1  0  0  3  0  0  0  0  0  0
  1 10  2  0  0  0  0
  2 14  1  6  0  0  0
  2  7  1  0  0  0  0
  2  1  1  0  0  0  0
  4 11  1  0  0  0  0
  5  9  1  0  0  0  0
  5  6  2  0  0  0  0
  6 14  1  0  0  0  0
  7 19  1  1  0  0  0
  7 13  1  0  0  0  0
  8 15  2  0  0  0  0
  9  4  2  0  0  0  0
 11  8  1  0  0  0  0
 12  5  1  0  0  0  0
 13 10  1  0  0  0  0
 13  3  2  0  0  0  0
 14 11  2  0  0  0  0
 15  1  1  0  0  0  0
 16 17  1  0  0  0  0
 17 18  1  6  0  0  0
 17  9  1  0  0  0  0
 20 26  1  0  0  0  0
 21 20  2  0  0  0  0
 21 27  1  0  0  0  0
 23 24  1  0  0  0  0
 24 22  2  0  0  0  0
 24 25  1  0  0  0  0
 25 21  1  0  0  0  0
 26 28  1  0  0  0  0
 27 28  1  0  0  0  0
 28 19  1  6  0  0  0
M  END
>  <MODEL>
1

>  <REMARK>
 VINA RESULT:      -9.0      0.000      0.000
  Name = 
  3 active torsions:
  status: ('A' for Active; 'I' for Inactive)
    1  A    between atoms: C_14  and  N_28
    2  A    between atoms: C_17  and  C_24
    3  A    between atoms: C_22  and  N_28
                            x       y       z     vdW  Elec       q    Type
                         _______ _______ _______ _____ _____    ______ ____

>  <TORSDO>
F 3

$$$$
=
 OpenBabel11062413303D

 28 31  0  0  1  0  0  0  0  0999 V2000
  184.7290  179.0450  145.5320 C   0  0  0  0  0  0  0  0  0  0  0  0
  185.2480  178.9930  144.1270 C   0  0  2  0  0  3  0  0  0  0  0  0
  181.7060  178.5120  144.0880 N   0  0  0  0  0  2  0  0  0  0  0  0
  188.3840  177.1360  145.0950 N   0  0  0  0  0  0  0  0  0  0  0  0
  188.2590  177.1640  142.7080 C   0  0  0  0  0  0  0  0  0  0  0  0
  187.0490  177.8490  142.7870 C   0  0  0  0  0  3  0  0  0  0  0  0
  184.0410  178.4660  143.3520 C   0  0  1  0  0  3  0  0  0  0  0  0
  186.7170  178.2100  146.5290 C   0  0  0  0  0  3  0  0  0  0  0  0
  188.9110  176.7850  143.8890 C   0  0  0  0  0  0  0  0  0  0  0  0
  183.4420  179.0060  145.6200 N   0  0  0  0  0  0  0  0  0  0  0  0
  187.2140  177.8140  145.1980 C   0  0  0  0  0  0  0  0  0  0  0  0
  188.8050  176.9120  141.4900 F   0  0  0  0  0  0  0  0  0  0  0  0
  182.9470  178.7950  144.3070 C   0  0  0  0  0  0  0  0  0  0  0  0
  186.4890  178.1510  144.0340 C   0  0  0  0  0  0  0  0  0  0  0  0
  185.5600  178.7850  146.6670 N   0  0  0  0  0  0  0  0  0  0  0  0
  190.1980  175.1120  142.8840 F   0  0  0  0  0  0  0  0  0  0  0  0
  190.2420  176.1120  143.8390 C   0  0  1  0  0  3  0  0  0  0  0  0
  191.3260  177.1170  143.4980 C   0  0  0  0  0  1  0  0  0  0  0  0
  183.8570  179.1980  142.1090 N   0  0  0  0  0  2  0  0  0  0  0  0
  181.8260  178.9350  139.8640 N   0  0  0  0  0  0  0  0  0  0  0  0
  182.7250  179.5760  139.2000 C   0  0  0  0  0  0  0  0  0  0  0  0
  180.1020  180.7910  138.7340 O   0  0  0  0  0  0  0  0  0  0  0  0
  181.0270  182.7200  137.7000 C   0  0  0  0  0  1  0  0  0  0  0  0
  181.1420  181.3870  138.3510 C   0  0  0  0  0  0  0  0  0  0  0  0
  182.4410  180.8130  138.5330 N   0  0  0  0  0  2  0  0  0  0  0  0
  182.3500  177.8670  140.6880 C   0  0  0  0  0  2  0  0  0  0  0  0
  184.4080  179.0500  139.4890 S   0  0  0  0  0  0  0  0  0  0  0  0
  183.7970  178.2420  141.0010 C   0  0  1  0  0  3  0  0  0  0  0  0
  1 10  2  0  0  0  0
  1 15  1  0  0  0  0
  2 14  1  1  0  0  0
  2  1  1  0  0  0  0
  3 13  2  0  0  0  0
  4 11  1  0  0  0  0
  5  6  2  0  0  0  0
  5  9  1  0  0  0  0
  6 14  1  0  0  0  0
  7 19  1  6  0  0  0
  7  2  1  0  0  0  0
  7 13  1  0  0  0  0
  8 15  2  0  0  0  0
  9  4  2  0  0  0  0
 11  8  1  0  0  0  0
 12  5  1  0  0  0  0
 13 10  1  0  0  0  0
 14 11  2  0  0  0  0
 16 17  1  0  0  0  0
 17 18  1  6  0  0  0
 17  9  1  0  0  0  0
 20 26  1  0  0  0  0
 21 27  1  0  0  0  0
 21 20  2  0  0  0  0
 23 24  1  0  0  0  0
 24 25  1  0  0  0  0
 24 22  2  0  0  0  0
 25 21  1  0  0  0  0
 26 28  1  0  0  0  0
 27 28  1  0  0  0  0
 28 19  1  1  0  0  0
M  END
>  <MODEL>
2

>  <REMARK>
 VINA RESULT:      -9.0      3.559      6.818
  Name = 
  3 active torsions:
  status: ('A' for Active; 'I' for Inactive)
    1  A    between atoms: C_14  and  N_28
    2  A    between atoms: C_17  and  C_24
    3  A    between atoms: C_22  and  N_28
                            x       y       z     vdW  Elec       q    Type
                         _______ _______ _______ _____ _____    ______ ____

>  <TORSDO>
F 3

$$$$
=
 OpenBabel11062413303D

 28 31  0  0  1  0  0  0  0  0999 V2000
  187.5170  178.3860  139.3960 C   0  0  0  0  0  0  0  0  0  0  0  0
  187.8520  178.5490  140.8480 C   0  0  2  0  0  3  0  0  0  0  0  0
  190.2200  176.3380  139.3370 N   0  0  0  0  0  2  0  0  0  0  0  0
  184.2400  178.5770  141.9290 N   0  0  0  0  0  0  0  0  0  0  0  0
  185.5900  178.4440  143.8970 C   0  0  0  0  0  0  0  0  0  0  0  0
  186.7340  178.4230  143.1020 C   0  0  0  0  0  3  0  0  0  0  0  0
  188.8930  177.4520  141.0680 C   0  0  1  0  0  3  0  0  0  0  0  0
  185.1810  178.7140  139.6740 C   0  0  0  0  0  3  0  0  0  0  0  0
  184.3310  178.4950  143.2850 C   0  0  0  0  0  0  0  0  0  0  0  0
  188.3850  177.7040  138.7280 N   0  0  0  0  0  0  0  0  0  0  0  0
  185.3380  178.5720  141.1340 C   0  0  0  0  0  0  0  0  0  0  0  0
  185.7190  178.4550  145.2490 F   0  0  0  0  0  0  0  0  0  0  0  0
  189.3340  177.2190  139.6640 C   0  0  0  0  0  0  0  0  0  0  0  0
  186.6230  178.4490  141.7060 C   0  0  0  0  0  0  0  0  0  0  0  0
  186.2050  178.6280  138.8800 N   0  0  0  0  0  0  0  0  0  0  0  0
  183.3080  179.4850  145.1400 F   0  0  0  0  0  0  0  0  0  0  0  0
  183.0900  178.5880  144.1100 C   0  0  1  0  0  3  0  0  0  0  0  0
  181.9230  179.0420  143.2540 C   0  0  0  0  0  1  0  0  0  0  0  0
  190.0060  177.9400  141.8670 N   0  0  0  0  0  2  0  0  0  0  0  0
  190.8100  177.3920  144.7460 N   0  0  0  0  0  0  0  0  0  0  0  0
  189.7450  176.6680  144.7310 C   0  0  0  0  0  0  0  0  0  0  0  0
  189.7740  178.3290  147.1420 O   0  0  0  0  0  0  0  0  0  0  0  0
  187.5060  177.8530  147.6630 C   0  0  0  0  0  1  0  0  0  0  0  0
  188.7270  177.7070  146.8270 C   0  0  0  0  0  0  0  0  0  0  0  0
  188.6810  176.8610  145.6720 N   0  0  0  0  0  2  0  0  0  0  0  0
  191.6410  177.2440  143.5700 C   0  0  0  0  0  2  0  0  0  0  0  0
  189.5000  175.6990  143.2490 S   0  0  0  0  0  0  0  0  0  0  0  0
  190.7110  176.7940  142.4460 C   0  0  1  0  0  3  0  0  0  0  0  0
  2  1  1  6  0  0  0
  2  7  1  0  0  0  0
  2 14  1  0  0  0  0
  3 13  2  0  0  0  0
  4  9  1  0  0  0  0
  5 12  1  0  0  0  0
  6  5  1  0  0  0  0
  7 19  1  1  0  0  0
  8 11  1  0  0  0  0
  9  5  2  0  0  0  0
  9 17  1  0  0  0  0
 10  1  2  0  0  0  0
 10 13  1  0  0  0  0
 11 14  1  0  0  0  0
 11  4  2  0  0  0  0
 13  7  1  0  0  0  0
 14  6  2  0  0  0  0
 15  1  1  0  0  0  0
 15  8  2  0  0  0  0
 17 18  1  6  0  0  0
 17 16  1  0  0  0  0
 21 20  2  0  0  0  0
 21 25  1  0  0  0  0
 24 22  2  0  0  0  0
 24 23  1  0  0  0  0
 25 24  1  0  0  0  0
 26 20  1  0  0  0  0
 27 21  1  0  0  0  0
 28 19  1  1  0  0  0
 28 27  1  0  0  0  0
 28 26  1  0  0  0  0
M  END
>  <MODEL>
3

>  <REMARK>
 VINA RESULT:      -8.7      2.667      5.226
  Name = 
  3 active torsions:
  status: ('A' for Active; 'I' for Inactive)
    1  A    between atoms: C_14  and  N_28
    2  A    between atoms: C_17  and  C_24
    3  A    between atoms: C_22  and  N_28
                            x       y       z     vdW  Elec       q    Type
                         _______ _______ _______ _____ _____    ______ ____

>  <TORSDO>
F 3

$$$$
=
 OpenBabel11062413303D

 28 31  0  0  1  0  0  0  0  0999 V2000
  190.7070  176.7310  143.7020 C   0  0  0  0  0  0  0  0  0  0  0  0
  189.4920  176.5980  142.8340 C   0  0  2  0  0  3  0  0  0  0  0  0
  192.2950  177.4920  140.8030 N   0  0  0  0  0  2  0  0  0  0  0  0
  187.1950  178.1450  145.3920 N   0  0  0  0  0  0  0  0  0  0  0  0
  185.9720  177.9250  143.3510 C   0  0  0  0  0  0  0  0  0  0  0  0
  187.1060  177.3990  142.7360 C   0  0  0  0  0  3  0  0  0  0  0  0
  189.9700  177.1960  141.5110 C   0  0  1  0  0  3  0  0  0  0  0  0
  189.5150  177.4060  145.6420 C   0  0  0  0  0  3  0  0  0  0  0  0
  186.0410  178.3240  144.6920 C   0  0  0  0  0  0  0  0  0  0  0  0
  191.8020  176.9300  143.0490 N   0  0  0  0  0  0  0  0  0  0  0  0
  188.3090  177.6230  144.8210 C   0  0  0  0  0  0  0  0  0  0  0  0
  184.8100  178.0030  142.6510 F   0  0  0  0  0  0  0  0  0  0  0  0
  191.4450  177.0840  141.6850 C   0  0  0  0  0  0  0  0  0  0  0  0
  188.3030  177.2750  143.4520 C   0  0  0  0  0  0  0  0  0  0  0  0
  190.6220  176.9870  145.1070 N   0  0  0  0  0  0  0  0  0  0  0  0
  183.7050  178.3000  144.7820 F   0  0  0  0  0  0  0  0  0  0  0  0
  184.8260  178.8280  145.3970 C   0  0  1  0  0  3  0  0  0  0  0  0
  184.8620  178.4240  146.8590 C   0  0  0  0  0  1  0  0  0  0  0  0
  189.5360  176.3860  140.3840 N   0  0  0  0  0  2  0  0  0  0  0  0
  187.8870  176.8180  137.8680 N   0  0  0  0  0  0  0  0  0  0  0  0
  187.6820  177.9730  138.4010 C   0  0  0  0  0  0  0  0  0  0  0  0
  185.1420  176.8540  137.4660 O   0  0  0  0  0  0  0  0  0  0  0  0
  183.8460  178.4760  138.6200 C   0  0  0  0  0  1  0  0  0  0  0  0
  185.1400  177.8740  138.2030 C   0  0  0  0  0  0  0  0  0  0  0  0
  186.3610  178.4690  138.6570 N   0  0  0  0  0  2  0  0  0  0  0  0
  189.2620  176.3720  137.9370 C   0  0  0  0  0  2  0  0  0  0  0  0
  189.1130  178.7310  139.1560 S   0  0  0  0  0  0  0  0  0  0  0  0
  189.8790  177.0810  139.1410 C   0  0  1  0  0  3  0  0  0  0  0  0
  1 15  1  0  0  0  0
  2 14  1  1  0  0  0
  2  1  1  0  0  0  0
  3 13  2  0  0  0  0
  5  9  1  0  0  0  0
  6  5  2  0  0  0  0
  6 14  1  0  0  0  0
  7 19  1  6  0  0  0
  7 13  1  0  0  0  0
  7  2  1  0  0  0  0
  9  4  2  0  0  0  0
  9 17  1  0  0  0  0
 10  1  2  0  0  0  0
 11  4  1  0  0  0  0
 11  8  1  0  0  0  0
 12  5  1  0  0  0  0
 13 10  1  0  0  0  0
 14 11  2  0  0  0  0
 15  8  2  0  0  0  0
 16 17  1  0  0  0  0
 17 18  1  1  0  0  0
 20 26  1  0  0  0  0
 20 21  2  0  0  0  0
 21 25  1  0  0  0  0
 21 27  1  0  0  0  0
 22 24  2  0  0  0  0
 24 23  1  0  0  0  0
 24 25  1  0  0  0  0
 26 28  1  0  0  0  0
 28 27  1  0  0  0  0
 28 19  1  1  0  0  0
M  END
>  <MODEL>
4

>  <REMARK>
 VINA RESULT:      -8.6      2.690      5.240
  Name = 
  3 active torsions:
  status: ('A' for Active; 'I' for Inactive)
    1  A    between atoms: C_14  and  N_28
    2  A    between atoms: C_17  and  C_24
    3  A    between atoms: C_22  and  N_28
                            x       y       z     vdW  Elec       q    Type
                         _______ _______ _______ _____ _____    ______ ____

>  <TORSDO>
F 3

$$$$
=
 OpenBabel11062413303D

 28 31  0  0  1  0  0  0  0  0999 V2000
  190.6680  176.6280  143.6950 C   0  0  0  0  0  0  0  0  0  0  0  0
  189.4720  176.6590  142.7930 C   0  0  2  0  0  3  0  0  0  0  0  0
  192.3650  177.6450  140.9390 N   0  0  0  0  0  2  0  0  0  0  0  0
  187.1840  178.0080  145.4710 N   0  0  0  0  0  0  0  0  0  0  0  0
  186.0050  178.0900  143.3930 C   0  0  0  0  0  0  0  0  0  0  0  0
  187.1290  177.5840  142.7430 C   0  0  0  0  0  3  0  0  0  0  0  0
  190.0110  177.3840  141.5600 C   0  0  1  0  0  3  0  0  0  0  0  0
  189.4600  177.1300  145.6770 C   0  0  0  0  0  3  0  0  0  0  0  0
  186.0590  178.3250  144.7730 C   0  0  0  0  0  0  0  0  0  0  0  0
  191.7880  176.8480  143.0930 N   0  0  0  0  0  0  0  0  0  0  0  0
  188.2870  177.5020  144.8640 C   0  0  0  0  0  0  0  0  0  0  0  0
  184.8670  178.3080  142.6840 F   0  0  0  0  0  0  0  0  0  0  0  0
  191.4730  177.1790  141.7490 C   0  0  0  0  0  0  0  0  0  0  0  0
  188.2990  177.3170  143.4640 C   0  0  0  0  0  0  0  0  0  0  0  0
  190.5590  176.7220  145.1180 N   0  0  0  0  0  0  0  0  0  0  0  0
  183.7260  178.2530  144.9190 F   0  0  0  0  0  0  0  0  0  0  0  0
  184.8510  178.8020  145.5080 C   0  0  1  0  0  3  0  0  0  0  0  0
  184.9310  178.3960  146.9680 C   0  0  0  0  0  1  0  0  0  0  0  0
  189.5680  176.7350  140.3370 N   0  0  0  0  0  2  0  0  0  0  0  0
  189.2790  176.3930  137.3310 N   0  0  0  0  0  0  0  0  0  0  0  0
  188.0340  176.5900  137.5960 C   0  0  0  0  0  0  0  0  0  0  0  0
  188.3090  174.2800  135.8170 O   0  0  0  0  0  0  0  0  0  0  0  0
  186.0570  173.5950  136.1330 C   0  0  0  0  0  1  0  0  0  0  0  0
  187.2020  174.5150  136.3660 C   0  0  0  0  0  0  0  0  0  0  0  0
  187.0180  175.6510  137.2180 N   0  0  0  0  0  2  0  0  0  0  0  0
  190.1780  177.2940  138.0190 C   0  0  0  0  0  2  0  0  0  0  0  0
  187.7010  177.8780  138.7890 S   0  0  0  0  0  0  0  0  0  0  0  0
  189.4480  177.7430  139.2820 C   0  0  1  0  0  3  0  0  0  0  0  0
  1 15  1  0  0  0  0
  2 14  1  1  0  0  0
  2  1  1  0  0  0  0
  3 13  2  0  0  0  0
  5  9  1  0  0  0  0
  6  5  2  0  0  0  0
  6 14  1  0  0  0  0
  7 19  1  6  0  0  0
  7 13  1  0  0  0  0
  7  2  1  0  0  0  0
  9  4  2  0  0  0  0
  9 17  1  0  0  0  0
 10  1  2  0  0  0  0
 11  4  1  0  0  0  0
 11  8  1  0  0  0  0
 12  5  1  0  0  0  0
 13 10  1  0  0  0  0
 14 11  2  0  0  0  0
 15  8  2  0  0  0  0
 16 17  1  0  0  0  0
 17 18  1  1  0  0  0
 20 21  2  0  0  0  0
 20 26  1  0  0  0  0
 21 27  1  0  0  0  0
 22 24  2  0  0  0  0
 23 24  1  0  0  0  0
 24 25  1  0  0  0  0
 25 21  1  0  0  0  0
 26 28  1  0  0  0  0
 27 28  1  0  0  0  0
 28 19  1  1  0  0  0
M  END
>  <MODEL>
5

>  <REMARK>
 VINA RESULT:      -8.4      3.036      5.301
  Name = 
  3 active torsions:
  status: ('A' for Active; 'I' for Inactive)
    1  A    between atoms: C_14  and  N_28
    2  A    between atoms: C_17  and  C_24
    3  A    between atoms: C_22  and  N_28
                            x       y       z     vdW  Elec       q    Type
                         _______ _______ _______ _____ _____    ______ ____

>  <TORSDO>
F 3

$$$$
=
 OpenBabel11062413303D

 28 31  0  0  1  0  0  0  0  0999 V2000
  188.7380  177.1330  145.1880 C   0  0  0  0  0  0  0  0  0  0  0  0
  188.2990  177.0420  143.7580 C   0  0  2  0  0  3  0  0  0  0  0  0
  191.7230  178.0630  143.8730 N   0  0  0  0  0  2  0  0  0  0  0  0
  184.8670  178.4320  144.4670 N   0  0  0  0  0  0  0  0  0  0  0  0
  185.1320  178.3180  142.0950 C   0  0  0  0  0  0  0  0  0  0  0  0
  186.4270  177.8330  142.2700 C   0  0  0  0  0  3  0  0  0  0  0  0
  189.4550  177.7140  143.0180 C   0  0  1  0  0  3  0  0  0  0  0  0
  186.5920  177.6930  146.0380 C   0  0  0  0  0  3  0  0  0  0  0  0
  184.3640  178.6430  143.2200 C   0  0  0  0  0  0  0  0  0  0  0  0
  189.9970  177.3740  145.3390 N   0  0  0  0  0  0  0  0  0  0  0  0
  186.1190  177.9490  144.6650 C   0  0  0  0  0  0  0  0  0  0  0  0
  184.6270  178.4280  140.8390 F   0  0  0  0  0  0  0  0  0  0  0  0
  190.5290  177.6010  144.0440 C   0  0  0  0  0  0  0  0  0  0  0  0
  186.9530  177.6770  143.5580 C   0  0  0  0  0  0  0  0  0  0  0  0
  187.8130  177.3120  146.2650 N   0  0  0  0  0  0  0  0  0  0  0  0
  182.3750  178.4160  142.0120 F   0  0  0  0  0  0  0  0  0  0  0  0
  182.9510  179.1000  143.0670 C   0  0  1  0  0  3  0  0  0  0  0  0
  182.1750  178.8440  144.3450 C   0  0  0  0  0  1  0  0  0  0  0  0
  189.8200  176.9650  141.8260 N   0  0  0  0  0  2  0  0  0  0  0  0
  191.2720  176.4230  139.2120 N   0  0  0  0  0  0  0  0  0  0  0  0
  190.0940  176.5820  138.7170 C   0  0  0  0  0  0  0  0  0  0  0  0
  191.3230  174.1790  137.5820 O   0  0  0  0  0  0  0  0  0  0  0  0
  189.2840  173.4190  136.6310 C   0  0  0  0  0  1  0  0  0  0  0  0
  190.0990  174.4000  137.3950 C   0  0  0  0  0  0  0  0  0  0  0  0
  189.4670  175.5790  137.9080 N   0  0  0  0  0  2  0  0  0  0  0  0
  191.6290  177.4040  140.2150 C   0  0  0  0  0  2  0  0  0  0  0  0
  189.1460  177.9270  139.4160 S   0  0  0  0  0  0  0  0  0  0  0  0
  190.3140  177.9000  140.8120 C   0  0  1  0  0  3  0  0  0  0  0  0
  1 10  2  0  0  0  0
  1 15  1  0  0  0  0
  2 14  1  1  0  0  0
  2  1  1  0  0  0  0
  3 13  2  0  0  0  0
  4 11  1  0  0  0  0
  5  6  2  0  0  0  0
  5  9  1  0  0  0  0
  6 14  1  0  0  0  0
  7 19  1  6  0  0  0
  7  2  1  0  0  0  0
  7 13  1  0  0  0  0
  8 15  2  0  0  0  0
  9  4  2  0  0  0  0
 11  8  1  0  0  0  0
 12  5  1  0  0  0  0
 13 10  1  0  0  0  0
 14 11  2  0  0  0  0
 16 17  1  0  0  0  0
 17  9  1  0  0  0  0
 17 18  1  1  0  0  0
 20 26  1  0  0  0  0
 21 20  2  0  0  0  0
 21 27  1  0  0  0  0
 23 24  1  0  0  0  0
 24 22  2  0  0  0  0
 24 25  1  0  0  0  0
 25 21  1  0  0  0  0
 26 28  1  0  0  0  0
 27 28  1  0  0  0  0
 28 19  1  1  0  0  0
M  END
>  <MODEL>
6

>  <REMARK>
 VINA RESULT:      -8.4      2.363      3.439
  Name = 
  3 active torsions:
  status: ('A' for Active; 'I' for Inactive)
    1  A    between atoms: C_14  and  N_28
    2  A    between atoms: C_17  and  C_24
    3  A    between atoms: C_22  and  N_28
                            x       y       z     vdW  Elec       q    Type
                         _______ _______ _______ _____ _____    ______ ____

>  <TORSDO>
F 3

$$$$
=
 OpenBabel11062413303D

 28 31  0  0  1  0  0  0  0  0999 V2000
  189.7280  176.9950  141.7020 C   0  0  0  0  0  0  0  0  0  0  0  0
  188.3020  177.0770  142.1530 C   0  0  2  0  0  3  0  0  0  0  0  0
  188.6940  178.9750  139.1490 N   0  0  0  0  0  2  0  0  0  0  0  0
  189.2140  177.2710  145.8070 N   0  0  0  0  0  0  0  0  0  0  0  0
  186.8750  177.7220  145.6130 C   0  0  0  0  0  0  0  0  0  0  0  0
  186.9720  177.5960  144.2290 C   0  0  0  0  0  3  0  0  0  0  0  0
  187.7400  178.1840  141.2610 C   0  0  1  0  0  3  0  0  0  0  0  0
  190.6330  176.7430  143.8830 C   0  0  0  0  0  3  0  0  0  0  0  0
  188.0270  177.5810  146.3980 C   0  0  0  0  0  0  0  0  0  0  0  0
  189.9510  177.5440  140.5560 N   0  0  0  0  0  0  0  0  0  0  0  0
  189.3330  177.1300  144.4630 C   0  0  0  0  0  0  0  0  0  0  0  0
  185.6590  177.9390  146.1790 F   0  0  0  0  0  0  0  0  0  0  0  0
  188.7420  178.1710  140.1590 C   0  0  0  0  0  0  0  0  0  0  0  0
  188.2110  177.3350  143.6300 C   0  0  0  0  0  0  0  0  0  0  0  0
  190.8000  176.6820  142.5970 N   0  0  0  0  0  0  0  0  0  0  0  0
  187.8700  176.3540  148.3810 F   0  0  0  0  0  0  0  0  0  0  0  0
  187.9430  177.6430  147.8860 C   0  0  1  0  0  3  0  0  0  0  0  0
  189.1590  178.3550  148.4520 C   0  0  0  0  0  1  0  0  0  0  0  0
  186.4270  177.8270  140.7490 N   0  0  0  0  0  2  0  0  0  0  0  0
  183.8540  178.5240  139.2900 N   0  0  0  0  0  0  0  0  0  0  0  0
  183.3150  177.9970  140.3350 C   0  0  0  0  0  0  0  0  0  0  0  0
  182.0390  176.9310  137.9250 O   0  0  0  0  0  0  0  0  0  0  0  0
  180.9230  175.2040  139.1130 C   0  0  0  0  0  1  0  0  0  0  0  0
  181.8100  176.3950  139.0390 C   0  0  0  0  0  0  0  0  0  0  0  0
  182.3900  176.9050  140.2460 N   0  0  0  0  0  2  0  0  0  0  0  0
  184.9550  179.4170  139.5810 C   0  0  0  0  0  2  0  0  0  0  0  0
  184.0780  178.4330  141.8910 S   0  0  0  0  0  0  0  0  0  0  0  0
  185.5250  178.9680  140.9240 C   0  0  1  0  0  3  0  0  0  0  0  0
  1 15  1  0  0  0  0
  2  1  1  6  0  0  0
  2 14  1  0  0  0  0
  3 13  2  0  0  0  0
  4  9  1  0  0  0  0
  5 12  1  0  0  0  0
  5  9  2  0  0  0  0
  6  5  1  0  0  0  0
  7 19  1  6  0  0  0
  7  2  1  0  0  0  0
  8 11  1  0  0  0  0
  9 17  1  0  0  0  0
 10  1  2  0  0  0  0
 11  4  2  0  0  0  0
 13 10  1  0  0  0  0
 13  7  1  0  0  0  0
 14  6  2  0  0  0  0
 14 11  1  0  0  0  0
 15  8  2  0  0  0  0
 17 16  1  0  0  0  0
 17 18  1  1  0  0  0
 20 26  1  0  0  0  0
 20 21  2  0  0  0  0
 21 27  1  0  0  0  0
 22 24  2  0  0  0  0
 24 23  1  0  0  0  0
 24 25  1  0  0  0  0
 25 21  1  0  0  0  0
 26 28  1  0  0  0  0
 28 19  1  6  0  0  0
 28 27  1  0  0  0  0
M  END
>  <MODEL>
7

>  <REMARK>
 VINA RESULT:      -8.3      3.446      7.068
  Name = 
  3 active torsions:
  status: ('A' for Active; 'I' for Inactive)
    1  A    between atoms: C_14  and  N_28
    2  A    between atoms: C_17  and  C_24
    3  A    between atoms: C_22  and  N_28
                            x       y       z     vdW  Elec       q    Type
                         _______ _______ _______ _____ _____    ______ ____

>  <TORSDO>
F 3

$$$$
=
 OpenBabel11062413303D

 28 31  0  0  1  0  0  0  0  0999 V2000
  187.6610  177.5360  145.7580 C   0  0  0  0  0  0  0  0  0  0  0  0
  187.2930  177.2700  144.3300 C   0  0  2  0  0  3  0  0  0  0  0  0
  190.7350  178.2210  144.4970 N   0  0  0  0  0  2  0  0  0  0  0  0
  183.8710  178.8160  144.6690 N   0  0  0  0  0  0  0  0  0  0  0  0
  184.2530  178.3900  142.3490 C   0  0  0  0  0  0  0  0  0  0  0  0
  185.5220  177.9030  142.6540 C   0  0  0  0  0  3  0  0  0  0  0  0
  188.5040  177.8150  143.5730 C   0  0  1  0  0  3  0  0  0  0  0  0
  185.4930  178.2480  146.4120 C   0  0  0  0  0  3  0  0  0  0  0  0
  183.4380  178.8750  143.3800 C   0  0  0  0  0  0  0  0  0  0  0  0
  188.9180  177.7660  145.9440 N   0  0  0  0  0  0  0  0  0  0  0  0
  185.0970  178.3350  144.9940 C   0  0  0  0  0  0  0  0  0  0  0  0
  183.8150  178.3480  141.0640 F   0  0  0  0  0  0  0  0  0  0  0  0
  189.5210  177.8120  144.6610 C   0  0  0  0  0  0  0  0  0  0  0  0
  185.9780  177.9030  143.9780 C   0  0  0  0  0  0  0  0  0  0  0  0
  186.6890  177.8720  146.7510 N   0  0  0  0  0  0  0  0  0  0  0  0
  181.7380  179.0290  141.7820 F   0  0  0  0  0  0  0  0  0  0  0  0
  182.0490  179.3390  143.0940 C   0  0  1  0  0  3  0  0  0  0  0  0
  181.0670  178.6720  144.0380 C   0  0  0  0  0  1  0  0  0  0  0  0
  188.9070  176.9110  142.5090 N   0  0  0  0  0  2  0  0  0  0  0  0
  188.7900  177.0480  139.4750 N   0  0  0  0  0  0  0  0  0  0  0  0
  188.1860  178.1600  139.7150 C   0  0  0  0  0  0  0  0  0  0  0  0
  186.6910  176.6410  137.7080 O   0  0  0  0  0  0  0  0  0  0  0  0
  184.7820  178.0450  137.8660 C   0  0  0  0  0  1  0  0  0  0  0  0
  186.1680  177.6540  138.2380 C   0  0  0  0  0  0  0  0  0  0  0  0
  186.8770  178.4420  139.2020 N   0  0  0  0  0  2  0  0  0  0  0  0
  189.9670  176.8280  140.2880 C   0  0  0  0  0  2  0  0  0  0  0  0
  188.8920  179.1460  141.0280 S   0  0  0  0  0  0  0  0  0  0  0  0
  189.7590  177.6390  141.5650 C   0  0  1  0  0  3  0  0  0  0  0  0
  1 10  2  0  0  0  0
  1 15  1  0  0  0  0
  2 14  1  6  0  0  0
  2  1  1  0  0  0  0
  3 13  2  0  0  0  0
  4 11  1  0  0  0  0
  5  6  2  0  0  0  0
  5  9  1  0  0  0  0
  6 14  1  0  0  0  0
  7 19  1  6  0  0  0
  7  2  1  0  0  0  0
  7 13  1  0  0  0  0
  8 15  2  0  0  0  0
  9  4  2  0  0  0  0
 11  8  1  0  0  0  0
 12  5  1  0  0  0  0
 13 10  1  0  0  0  0
 14 11  2  0  0  0  0
 16 17  1  0  0  0  0
 17  9  1  0  0  0  0
 17 18  1  1  0  0  0
 20 21  2  0  0  0  0
 20 26  1  0  0  0  0
 21 27  1  0  0  0  0
 22 24  2  0  0  0  0
 23 24  1  0  0  0  0
 24 25  1  0  0  0  0
 25 21  1  0  0  0  0
 26 28  1  0  0  0  0
 27 28  1  0  0  0  0
 28 19  1  1  0  0  0
M  END
>  <MODEL>
8

>  <REMARK>
 VINA RESULT:      -8.1      2.369      3.249
  Name = 
  3 active torsions:
  status: ('A' for Active; 'I' for Inactive)
    1  A    between atoms: C_14  and  N_28
    2  A    between atoms: C_17  and  C_24
    3  A    between atoms: C_22  and  N_28
                            x       y       z     vdW  Elec       q    Type
                         _______ _______ _______ _____ _____    ______ ____

>  <TORSDO>
F 3

$$$$
=
 OpenBabel11062413303D

 28 31  0  0  1  0  0  0  0  0999 V2000
  187.2030  178.3220  139.0640 C   0  0  0  0  0  0  0  0  0  0  0  0
  188.5860  178.0480  139.5720 C   0  0  2  0  0  3  0  0  0  0  0  0
  188.0800  176.2570  136.5200 N   0  0  0  0  0  2  0  0  0  0  0  0
  187.5010  177.9290  143.1810 N   0  0  0  0  0  0  0  0  0  0  0  0
  189.7680  177.1800  143.0750 C   0  0  0  0  0  0  0  0  0  0  0  0
  189.7470  177.3350  141.6900 C   0  0  0  0  0  3  0  0  0  0  0  0
  189.0370  176.8890  138.6840 C   0  0  1  0  0  3  0  0  0  0  0  0
  186.2460  178.6610  141.2110 C   0  0  0  0  0  3  0  0  0  0  0  0
  188.6120  177.4590  143.8140 C   0  0  0  0  0  0  0  0  0  0  0  0
  186.9600  177.8200  137.9000 N   0  0  0  0  0  0  0  0  0  0  0  0
  187.4590  178.1020  141.8360 C   0  0  0  0  0  0  0  0  0  0  0  0
  190.9210  176.7990  143.6850 F   0  0  0  0  0  0  0  0  0  0  0  0
  188.0940  177.0470  137.5420 C   0  0  0  0  0  0  0  0  0  0  0  0
  188.5800  177.7630  141.0470 C   0  0  0  0  0  0  0  0  0  0  0  0
  186.1430  178.7590  139.9200 N   0  0  0  0  0  0  0  0  0  0  0  0
  189.5290  178.2890  145.7980 F   0  0  0  0  0  0  0  0  0  0  0  0
  188.6230  177.3680  145.3030 C   0  0  1  0  0  3  0  0  0  0  0  0
  187.2370  177.6450  145.8570 C   0  0  0  0  0  1  0  0  0  0  0  0
  190.4060  177.0790  138.2310 N   0  0  0  0  0  2  0  0  0  0  0  0
  192.4920  175.3500  136.8530 N   0  0  0  0  0  0  0  0  0  0  0  0
  193.3050  176.1830  137.4050 C   0  0  0  0  0  0  0  0  0  0  0  0
  194.0380  175.8040  134.5960 O   0  0  0  0  0  0  0  0  0  0  0  0
  195.5350  177.6480  134.5950 C   0  0  0  0  0  1  0  0  0  0  0  0
  194.5690  176.7320  135.2580 C   0  0  0  0  0  0  0  0  0  0  0  0
  194.2600  176.9330  136.6420 N   0  0  0  0  0  2  0  0  0  0  0  0
  191.4290  174.8980  137.7260 C   0  0  0  0  0  2  0  0  0  0  0  0
  192.9090  176.6390  139.0870 S   0  0  0  0  0  0  0  0  0  0  0  0
  191.2360  175.9970  138.7670 C   0  0  1  0  0  3  0  0  0  0  0  0
  1 15  1  0  0  0  0
  2  1  1  6  0  0  0
  2 14  1  0  0  0  0
  3 13  2  0  0  0  0
  4  9  1  0  0  0  0
  5 12  1  0  0  0  0
  5  9  2  0  0  0  0
  6  5  1  0  0  0  0
  7 19  1  6  0  0  0
  7  2  1  0  0  0  0
  8 11  1  0  0  0  0
  9 17  1  0  0  0  0
 10  1  2  0  0  0  0
 11  4  2  0  0  0  0
 13 10  1  0  0  0  0
 13  7  1  0  0  0  0
 14  6  2  0  0  0  0
 14 11  1  0  0  0  0
 15  8  2  0  0  0  0
 17 16  1  0  0  0  0
 17 18  1  1  0  0  0
 20 21  2  0  0  0  0
 20 26  1  0  0  0  0
 21 27  1  0  0  0  0
 22 24  2  0  0  0  0
 23 24  1  0  0  0  0
 24 25  1  0  0  0  0
 25 21  1  0  0  0  0
 26 28  1  0  0  0  0
 28 19  1  6  0  0  0
 28 27  1  0  0  0  0
M  END
>  <MODEL>
9

>  <REMARK>
 VINA RESULT:      -7.9      4.090      6.690
  Name = 
  3 active torsions:
  status: ('A' for Active; 'I' for Inactive)
    1  A    between atoms: C_14  and  N_28
    2  A    between atoms: C_17  and  C_24
    3  A    between atoms: C_22  and  N_28
                            x       y       z     vdW  Elec       q    Type
                         _______ _______ _______ _____ _____    ______ ____

>  <TORSDO>
F 3

$$$$
