=
 OpenBabel11062415263D

 37 42  0  0  1  0  0  0  0  0999 V2000
  187.4330  176.8540  137.8140 C   0  0  2  0  0  3  0  0  0  0  0  0
  188.9640  177.8450  141.0130 C   0  0  1  0  0  3  0  0  0  0  0  0
  187.6640  178.6280  140.9670 C   0  0  2  0  0  3  0  0  0  0  0  0
  191.9280  176.0030  136.2120 N   0  0  2  0  0  0  0  0  0  0  0  0
  185.9270  179.1090  142.7280 C   0  0  0  0  0  1  0  0  0  0  0  0
  190.5200  177.0590  137.8260 C   0  0  1  0  0  3  0  0  0  0  0  0
  188.8400  176.8000  142.1110 C   0  0  0  0  0  2  0  0  0  0  0  0
  190.4280  177.2770  139.2190 O   0  0  0  0  0  0  0  0  0  0  0  0
  187.6440  177.2060  142.9570 C   0  0  2  0  0  3  0  0  0  0  0  0
  191.9490  176.7990  137.4370 C   0  0  0  0  0  2  0  0  0  0  0  0
  188.4090  176.2500  136.7720 C   0  0  1  0  0  3  0  0  0  0  0  0
  189.7750  175.8310  137.3470 C   0  0  1  0  0  3  0  0  0  0  0  0
  190.6850  175.2310  136.2840 C   0  0  0  0  0  2  0  0  0  0  0  0
  186.7610  178.0420  142.0340 C   0  0  2  0  0  3  0  0  0  0  0  0
  189.0900  177.1740  139.6740 C   0  0  2  0  0  3  0  0  0  0  0  0
  186.2660  177.5020  137.0790 C   0  0  0  0  0  1  0  0  0  0  0  0
  188.0670  177.8720  138.7800 C   0  0  2  0  0  3  0  0  0  0  0  0
  187.0500  178.4460  139.6560 N   0  0  0  0  0  2  0  0  0  0  0  0
  189.1720  176.2600  147.5240 O   0  0  0  0  0  0  0  0  0  0  0  0
  187.0510  177.1310  145.6260 S   0  0  0  0  0  0  0  0  0  0  0  0
  190.3150  178.4750  143.7260 O   0  0  0  0  0  1  0  0  0  0  0  0
  189.8110  178.2530  145.9330 O   0  0  0  0  0  0  0  0  0  0  0  0
  189.5480  177.7590  144.6450 C   0  0  1  0  0  3  0  0  0  0  0  0
  188.0480  177.8600  144.2950 C   0  0  1  0  0  3  0  0  0  0  0  0
  188.1610  178.6120  148.1320 O   0  0  0  0  0  1  0  0  0  0  0  0
  188.6410  177.5390  146.9160 P   0  0  2  0  0  0  0  0  0  0  0  0
  193.0650  175.0570  136.1460 C   0  0  1  0  0  3  0  0  0  0  0  0
  194.0260  173.0610  137.4680 C   0  0  0  0  0  2  0  0  0  0  0  0
  194.9760  175.2530  137.8550 N   0  0  0  0  0  0  0  0  0  0  0  0
  194.8220  174.0360  138.2690 C   0  0  0  0  0  3  0  0  0  0  0  0
  194.3180  175.7360  136.6790 C   0  0  0  0  0  0  0  0  0  0  0  0
  192.7730  173.7290  136.9050 C   0  0  2  0  0  3  0  0  0  0  0  0
  194.7820  176.7500  136.0940 O   0  0  0  0  0  0  0  0  0  0  0  0
  191.5820  171.9710  135.2800 C   0  0  0  0  0  3  0  0  0  0  0  0
  192.1180  172.7640  136.0130 C   0  0  0  0  0  0  0  0  0  0  0  0
  187.3150  174.1420  136.7110 O   0  0  0  0  0  0  0  0  0  0  0  0
  187.7490  175.0900  136.0750 C   0  0  0  0  0  3  0  0  0  0  0  0
  1 16  1  6  0  0  0
  1 17  1  0  0  0  0
  2  7  1  1  0  0  0
  3 18  1  6  0  0  0
  3  2  1  0  0  0  0
  3 14  1  0  0  0  0
  4 13  1  1  0  0  0
  4 10  1  0  0  0  0
  6 10  1  1  0  0  0
  6  8  1  0  0  0  0
  9  7  1  6  0  0  0
  9 24  1  0  0  0  0
 11 37  1  1  0  0  0
 11 12  1  0  0  0  0
 11  1  1  0  0  0  0
 12 13  1  6  0  0  0
 12  6  1  0  0  0  0
 14  5  1  1  0  0  0
 14  9  1  0  0  0  0
 15  8  1  6  0  0  0
 15  2  1  0  0  0  0
 17 18  1  1  0  0  0
 17 15  1  0  0  0  0
 20 26  1  0  0  0  0
 22 26  1  0  0  0  0
 23 21  1  6  0  0  0
 23 22  1  0  0  0  0
 24 23  1  0  0  0  0
 24 20  1  1  0  0  0
 26 19  2  1  0  0  0
 26 25  1  0  0  0  0
 27  4  1  0  0  0  0
 27 31  1  1  0  0  0
 27 32  1  0  0  0  0
 28 30  1  0  0  0  0
 29 30  2  0  0  0  0
 31 29  1  0  0  0  0
 32 35  1  6  0  0  0
 32 28  1  0  0  0  0
 33 31  2  0  0  0  0
 34 35  3  0  0  0  0
 37 36  2  0  0  0  0
M  END
>  <MODEL>
1

>  <REMARK>
 VINA RESULT:      -8.4      0.000      0.000
  Name = 
  4 active torsions:
  status: ('A' for Active; 'I' for Inactive)
    1  A    between atoms: C_6  and  N_9
    2  A    between atoms: C_13  and  C_32
    3  A    between atoms: C_17  and  C_23
    4  A    between atoms: C_20  and  C_35
                            x       y       z     vdW  Elec       q    Type
                         _______ _______ _______ _____ _____    ______ ____

>  <TORSDO>
F 4

$$$$
=
 OpenBabel11062415263D

 37 42  0  0  1  0  0  0  0  0999 V2000
  182.4430  178.4470  142.9080 C   0  0  2  0  0  3  0  0  0  0  0  0
  186.0680  178.6910  143.5070 C   0  0  1  0  0  3  0  0  0  0  0  0
  185.4450  179.3230  144.7400 C   0  0  2  0  0  3  0  0  0  0  0  0
  183.4740  178.5140  138.1720 N   0  0  2  0  0  0  0  0  0  0  0  0
  186.0050  179.1360  147.1900 C   0  0  0  0  0  1  0  0  0  0  0  0
  184.1930  178.9510  140.4060 C   0  0  1  0  0  3  0  0  0  0  0  0
  186.7170  177.3830  143.9310 C   0  0  0  0  0  2  0  0  0  0  0  0
  185.3160  178.7760  141.2460 O   0  0  0  0  0  0  0  0  0  0  0  0
  186.8160  177.4240  145.4480 C   0  0  2  0  0  3  0  0  0  0  0  0
  184.6210  178.9500  138.9650 C   0  0  0  0  0  2  0  0  0  0  0  0
  182.0290  178.2460  141.4270 C   0  0  1  0  0  3  0  0  0  0  0  0
  183.1820  177.8280  140.4950 C   0  0  1  0  0  3  0  0  0  0  0  0
  182.7140  177.6300  139.0590 C   0  0  0  0  0  2  0  0  0  0  0  0
  185.7180  178.3840  145.8990 C   0  0  2  0  0  3  0  0  0  0  0  0
  184.9310  178.4210  142.5620 C   0  0  2  0  0  3  0  0  0  0  0  0
  181.3090  179.1470  143.6470 C   0  0  0  0  0  1  0  0  0  0  0  0
  183.7560  179.2260  143.1130 C   0  0  2  0  0  3  0  0  0  0  0  0
  184.0060  179.4390  144.5350 N   0  0  0  0  0  2  0  0  0  0  0  0
  190.9340  175.3840  147.1680 O   0  0  0  0  0  0  0  0  0  0  0  0
  188.4590  176.9820  147.5890 S   0  0  0  0  0  0  0  0  0  0  0  0
  189.3320  177.9850  143.8070 O   0  0  0  0  0  1  0  0  0  0  0  0
  190.6400  177.4690  145.5940 O   0  0  0  0  0  0  0  0  0  0  0  0
  189.3790  177.2780  145.0080 C   0  0  1  0  0  3  0  0  0  0  0  0
  188.2420  177.7330  145.9490 C   0  0  1  0  0  3  0  0  0  0  0  0
  191.4100  177.7370  148.2450 O   0  0  0  0  0  1  0  0  0  0  0  0
  190.4940  176.8300  147.1490 P   0  0  2  0  0  0  0  0  0  0  0  0
  183.8870  177.7410  136.9790 C   0  0  1  0  0  3  0  0  0  0  0  0
  183.1560  175.6490  135.6580 C   0  0  0  0  0  2  0  0  0  0  0  0
  184.9350  175.4120  137.2810 N   0  0  0  0  0  0  0  0  0  0  0  0
  184.0350  174.8370  136.5480 C   0  0  0  0  0  3  0  0  0  0  0  0
  185.0570  176.8370  137.3440 C   0  0  0  0  0  0  0  0  0  0  0  0
  182.7090  176.9250  136.3680 C   0  0  2  0  0  3  0  0  0  0  0  0
  186.1470  177.3400  137.7230 O   0  0  0  0  0  0  0  0  0  0  0  0
  181.3710  178.4130  134.5950 C   0  0  0  0  0  3  0  0  0  0  0  0
  181.9740  177.7420  135.3930 C   0  0  0  0  0  0  0  0  0  0  0  0
  179.7890  177.5980  140.9700 O   0  0  0  0  0  0  0  0  0  0  0  0
  180.8980  177.2550  141.3490 C   0  0  0  0  0  3  0  0  0  0  0  0
  1 17  1  0  0  0  0
  1 16  1  1  0  0  0
  2  7  1  1  0  0  0
  2  3  1  0  0  0  0
  3 18  1  6  0  0  0
  3 14  1  0  0  0  0
  4 10  1  1  0  0  0
  4 13  1  0  0  0  0
  6 10  1  6  0  0  0
  6 12  1  0  0  0  0
  6  8  1  0  0  0  0
  9  7  1  6  0  0  0
  9 14  1  0  0  0  0
  9 24  1  0  0  0  0
 11 37  1  1  0  0  0
 11  1  1  0  0  0  0
 12 13  1  6  0  0  0
 12 11  1  0  0  0  0
 14  5  1  1  0  0  0
 15  8  1  6  0  0  0
 15 17  1  0  0  0  0
 15  2  1  0  0  0  0
 17 18  1  1  0  0  0
 22 26  1  0  0  0  0
 23 21  1  6  0  0  0
 23 22  1  0  0  0  0
 23 24  1  0  0  0  0
 24 20  1  1  0  0  0
 26 19  2  1  0  0  0
 26 20  1  0  0  0  0
 26 25  1  0  0  0  0
 27 31  1  1  0  0  0
 27  4  1  0  0  0  0
 28 32  1  0  0  0  0
 28 30  1  0  0  0  0
 29 31  1  0  0  0  0
 30 29  2  0  0  0  0
 31 33  2  0  0  0  0
 32 35  1  6  0  0  0
 32 27  1  0  0  0  0
 34 35  3  0  0  0  0
 36 37  2  0  0  0  0
M  END
>  <MODEL>
2

>  <REMARK>
 VINA RESULT:      -7.9      5.420      7.214
  Name = 
  4 active torsions:
  status: ('A' for Active; 'I' for Inactive)
    1  A    between atoms: C_6  and  N_9
    2  A    between atoms: C_13  and  C_32
    3  A    between atoms: C_17  and  C_23
    4  A    between atoms: C_20  and  C_35
                            x       y       z     vdW  Elec       q    Type
                         _______ _______ _______ _____ _____    ______ ____

>  <TORSDO>
F 4

$$$$
=
 OpenBabel11062415263D

 37 42  0  0  1  0  0  0  0  0999 V2000
  189.5150  178.1890  144.6560 C   0  0  2  0  0  3  0  0  0  0  0  0
  186.2400  177.4700  143.1360 C   0  0  1  0  0  3  0  0  0  0  0  0
  186.0010  177.3010  144.6260 C   0  0  2  0  0  3  0  0  0  0  0  0
  191.4950  176.7110  140.4860 N   0  0  2  0  0  0  0  0  0  0  0  0
  184.0980  178.0160  146.1160 C   0  0  0  0  0  1  0  0  0  0  0  0
  189.5850  176.7500  141.9180 C   0  0  1  0  0  3  0  0  0  0  0  0
  185.4810  178.7060  142.6790 C   0  0  0  0  0  2  0  0  0  0  0  0
  188.1850  176.9340  141.8660 O   0  0  0  0  0  0  0  0  0  0  0  0
  184.5010  179.0440  143.7910 C   0  0  2  0  0  3  0  0  0  0  0  0
  190.0970  176.2990  140.5770 C   0  0  0  0  0  2  0  0  0  0  0  0
  190.7290  178.0690  143.6990 C   0  0  1  0  0  3  0  0  0  0  0  0
  190.3600  178.0180  142.2050 C   0  0  1  0  0  3  0  0  0  0  0  0
  191.5910  177.9160  141.3140 C   0  0  0  0  0  2  0  0  0  0  0  0
  185.1050  178.4450  145.0590 C   0  0  2  0  0  3  0  0  0  0  0  0
  187.7190  177.6820  142.9750 C   0  0  2  0  0  3  0  0  0  0  0  0
  189.9800  177.9180  146.0810 C   0  0  0  0  0  1  0  0  0  0  0  0
  188.3280  177.2700  144.3130 C   0  0  2  0  0  3  0  0  0  0  0  0
  187.2800  177.3930  145.3220 N   0  0  0  0  0  2  0  0  0  0  0  0
  180.1740  180.7080  142.1800 O   0  0  0  0  0  0  0  0  0  0  0  0
  181.9130  179.7070  144.3780 S   0  0  0  0  0  0  0  0  0  0  0  0
  183.4360  177.6800  141.2730 O   0  0  0  0  0  1  0  0  0  0  0  0
  181.3280  178.3850  141.7550 O   0  0  0  0  0  0  0  0  0  0  0  0
  182.6930  178.6390  141.9600 C   0  0  1  0  0  3  0  0  0  0  0  0
  183.0520  178.6280  143.4620 C   0  0  1  0  0  3  0  0  0  0  0  0
  179.1400  178.6420  143.4390 O   0  0  0  0  0  1  0  0  0  0  0  0
  180.5310  179.3970  142.8440 P   0  0  2  0  0  0  0  0  0  0  0  0
  191.8810  177.0620  139.1000 C   0  0  1  0  0  3  0  0  0  0  0  0
  191.3080  176.3770  136.6800 C   0  0  0  0  0  2  0  0  0  0  0  0
  193.2660  175.3980  137.7120 N   0  0  0  0  0  0  0  0  0  0  0  0
  192.3810  175.3450  136.7680 C   0  0  0  0  0  3  0  0  0  0  0  0
  193.1960  176.3780  138.7540 C   0  0  0  0  0  0  0  0  0  0  0  0
  190.7680  176.7070  138.0700 C   0  0  2  0  0  3  0  0  0  0  0  0
  194.2410  176.6580  139.3980 O   0  0  0  0  0  0  0  0  0  0  0  0
  189.0560  178.7440  137.8120 C   0  0  0  0  0  3  0  0  0  0  0  0
  189.8280  177.8260  137.9280 C   0  0  0  0  0  0  0  0  0  0  0  0
  191.3020  180.2830  144.3420 O   0  0  0  0  0  0  0  0  0  0  0  0
  191.6980  179.1900  143.9690 C   0  0  0  0  0  3  0  0  0  0  0  0
  1 16  1  1  0  0  0
  2  7  1  1  0  0  0
  2  3  1  0  0  0  0
  3 14  1  0  0  0  0
  3 18  1  1  0  0  0
  4 10  1  6  0  0  0
  4 13  1  0  0  0  0
  6 10  1  6  0  0  0
  6 12  1  0  0  0  0
  8  6  1  0  0  0  0
  9  7  1  6  0  0  0
  9 14  1  0  0  0  0
 11 37  1  6  0  0  0
 11  1  1  0  0  0  0
 12 13  1  6  0  0  0
 12 11  1  0  0  0  0
 14  5  1  1  0  0  0
 15  8  1  6  0  0  0
 15  2  1  0  0  0  0
 15 17  1  0  0  0  0
 17  1  1  0  0  0  0
 17 18  1  1  0  0  0
 22 23  1  0  0  0  0
 22 26  1  0  0  0  0
 23 21  1  6  0  0  0
 23 24  1  0  0  0  0
 24  9  1  0  0  0  0
 24 20  1  1  0  0  0
 26 19  2  6  0  0  0
 26 25  1  0  0  0  0
 26 20  1  0  0  0  0
 27 31  1  6  0  0  0
 27  4  1  0  0  0  0
 28 30  1  0  0  0  0
 28 32  1  0  0  0  0
 29 31  1  0  0  0  0
 30 29  2  0  0  0  0
 31 33  2  0  0  0  0
 32 35  1  6  0  0  0
 32 27  1  0  0  0  0
 34 35  3  0  0  0  0
 37 36  2  0  0  0  0
M  END
>  <MODEL>
3

>  <REMARK>
 VINA RESULT:      -7.6      4.120      6.257
  Name = 
  4 active torsions:
  status: ('A' for Active; 'I' for Inactive)
    1  A    between atoms: C_6  and  N_9
    2  A    between atoms: C_13  and  C_32
    3  A    between atoms: C_17  and  C_23
    4  A    between atoms: C_20  and  C_35
                            x       y       z     vdW  Elec       q    Type
                         _______ _______ _______ _____ _____    ______ ____

>  <TORSDO>
F 4

$$$$
=
 OpenBabel11062415263D

 37 42  0  0  1  0  0  0  0  0999 V2000
  189.1860  176.9280  136.8600 C   0  0  2  0  0  3  0  0  0  0  0  0
  192.2750  175.2300  137.9230 C   0  0  1  0  0  3  0  0  0  0  0  0
  191.9900  174.6530  136.5470 C   0  0  2  0  0  3  0  0  0  0  0  0
  188.1210  177.3970  141.5660 N   0  0  2  0  0  0  0  0  0  0  0  0
  193.4970  174.1380  134.5940 C   0  0  0  0  0  1  0  0  0  0  0  0
  189.4080  176.2990  139.8810 C   0  0  1  0  0  3  0  0  0  0  0  0
  193.5250  176.0900  137.8170 C   0  0  0  0  0  2  0  0  0  0  0  0
  190.7300  175.8720  139.6210 O   0  0  0  0  0  0  0  0  0  0  0  0
  194.1890  175.7220  136.5000 C   0  0  2  0  0  3  0  0  0  0  0  0
  189.1860  176.4170  141.3640 C   0  0  0  0  0  2  0  0  0  0  0  0
  188.3460  177.5520  138.0050 C   0  0  1  0  0  3  0  0  0  0  0  0
  189.0930  177.6780  139.3460 C   0  0  1  0  0  3  0  0  0  0  0  0
  188.2260  178.3110  140.4260 C   0  0  0  0  0  2  0  0  0  0  0  0
  193.0680  175.1770  135.6190 C   0  0  2  0  0  3  0  0  0  0  0  0
  191.0880  176.0850  138.2670 C   0  0  2  0  0  3  0  0  0  0  0  0
  188.2580  176.5760  135.7030 C   0  0  0  0  0  1  0  0  0  0  0  0
  190.0080  175.6890  137.2620 C   0  0  2  0  0  3  0  0  0  0  0  0
  190.6860  175.1270  136.0980 N   0  0  0  0  0  2  0  0  0  0  0  0
  198.6110  175.4150  138.6060 O   0  0  0  0  0  1  0  0  0  0  0  0
  196.9060  175.7300  136.1870 S   0  0  0  0  0  0  0  0  0  0  0  0
  194.5550  173.3780  138.4250 O   0  0  0  0  0  1  0  0  0  0  0  0
  196.8150  173.5340  138.2220 O   0  0  0  0  0  0  0  0  0  0  0  0
  195.6060  174.2370  138.1030 C   0  0  1  0  0  3  0  0  0  0  0  0
  195.4210  174.8100  136.6810 C   0  0  1  0  0  3  0  0  0  0  0  0
  199.1550  173.6450  136.7370 O   0  0  0  0  0  0  0  0  0  0  0  0
  197.9740  174.5520  137.5400 P   0  0  2  0  0  0  0  0  0  0  0  0
  188.3110  178.1740  142.8110 C   0  0  1  0  0  3  0  0  0  0  0  0
  189.1200  177.8140  145.2340 C   0  0  0  0  0  2  0  0  0  0  0  0
  186.7380  177.7730  144.8060 N   0  0  0  0  0  0  0  0  0  0  0  0
  187.7150  177.4760  145.6030 C   0  0  0  0  0  3  0  0  0  0  0  0
  186.9700  178.3400  143.5120 C   0  0  0  0  0  0  0  0  0  0  0  0
  189.3680  177.5270  143.7550 C   0  0  2  0  0  3  0  0  0  0  0  0
  186.0380  178.9700  142.9460 O   0  0  0  0  0  0  0  0  0  0  0  0
  191.8170  178.4170  143.1570 C   0  0  0  0  0  3  0  0  0  0  0  0
  190.7130  178.0160  143.4270 C   0  0  0  0  0  0  0  0  0  0  0  0
  188.5690  179.7930  137.2470 O   0  0  0  0  0  0  0  0  0  0  0  0
  187.8120  178.8900  137.5670 C   0  0  0  0  0  3  0  0  0  0  0  0
  1 16  1  6  0  0  0
  1 17  1  0  0  0  0
  1 11  1  0  0  0  0
  2  7  1  6  0  0  0
  2 15  1  0  0  0  0
  3 18  1  6  0  0  0
  3  2  1  0  0  0  0
  4 13  1  6  0  0  0
  4 27  1  0  0  0  0
  6 10  1  1  0  0  0
  8  6  1  0  0  0  0
  9 24  1  0  0  0  0
  9  7  1  1  0  0  0
 10  4  1  0  0  0  0
 11 37  1  6  0  0  0
 11 12  1  0  0  0  0
 12  6  1  0  0  0  0
 12 13  1  1  0  0  0
 14  5  1  1  0  0  0
 14  9  1  0  0  0  0
 14  3  1  0  0  0  0
 15  8  1  1  0  0  0
 17 18  1  6  0  0  0
 17 15  1  0  0  0  0
 20 26  1  0  0  0  0
 23 22  1  0  0  0  0
 23 21  1  6  0  0  0
 24 20  1  1  0  0  0
 24 23  1  0  0  0  0
 26 25  2  6  0  0  0
 26 22  1  0  0  0  0
 26 19  1  0  0  0  0
 27 31  1  1  0  0  0
 27 32  1  0  0  0  0
 28 30  1  0  0  0  0
 29 30  2  0  0  0  0
 31 29  1  0  0  0  0
 32 35  1  6  0  0  0
 32 28  1  0  0  0  0
 33 31  2  0  0  0  0
 34 35  3  0  0  0  0
 36 37  2  0  0  0  0
M  END
>  <MODEL>
4

>  <REMARK>
 VINA RESULT:      -7.6      4.037      8.754
  Name = 
  4 active torsions:
  status: ('A' for Active; 'I' for Inactive)
    1  A    between atoms: C_6  and  N_9
    2  A    between atoms: C_13  and  C_32
    3  A    between atoms: C_17  and  C_23
    4  A    between atoms: C_20  and  C_35
                            x       y       z     vdW  Elec       q    Type
                         _______ _______ _______ _____ _____    ______ ____

>  <TORSDO>
F 4

$$$$
=
 OpenBabel11062415263D

 37 42  0  0  1  0  0  0  0  0999 V2000
  188.6390  177.7240  143.6080 C   0  0  2  0  0  3  0  0  0  0  0  0
  189.3290  177.8180  139.9930 C   0  0  1  0  0  3  0  0  0  0  0  0
  190.6740  178.1110  140.6340 C   0  0  2  0  0  3  0  0  0  0  0  0
  184.0920  179.0050  142.5200 N   0  0  2  0  0  0  0  0  0  0  0  0
  193.0020  177.3050  140.1030 C   0  0  0  0  0  1  0  0  0  0  0  0
  186.3730  178.8570  141.8310 C   0  0  1  0  0  3  0  0  0  0  0  0
  189.4120  176.4470  139.3400 C   0  0  0  0  0  2  0  0  0  0  0  0
  187.1550  178.4770  140.7170 O   0  0  0  0  0  0  0  0  0  0  0  0
  190.8900  176.0990  139.2600 C   0  0  2  0  0  3  0  0  0  0  0  0
  184.9850  179.2270  141.3860 C   0  0  0  0  0  2  0  0  0  0  0  0
  187.1500  177.9080  144.0030 C   0  0  1  0  0  3  0  0  0  0  0  0
  186.1580  177.7460  142.8360 C   0  0  1  0  0  3  0  0  0  0  0  0
  184.7130  177.9210  143.2850 C   0  0  0  0  0  2  0  0  0  0  0  0
  191.5570  176.9080  140.3700 C   0  0  2  0  0  3  0  0  0  0  0  0
  188.3310  177.7950  141.1170 C   0  0  2  0  0  3  0  0  0  0  0  0
  189.5170  178.2080  144.7560 C   0  0  0  0  0  1  0  0  0  0  0  0
  189.0540  178.4290  142.3030 C   0  0  2  0  0  3  0  0  0  0  0  0
  190.4860  178.2720  142.0720 N   0  0  0  0  0  2  0  0  0  0  0  0
  191.5170  173.8640  134.9360 O   0  0  0  0  0  1  0  0  0  0  0  0
  192.6090  174.8970  137.5050 S   0  0  0  0  0  0  0  0  0  0  0  0
  189.6620  177.5370  136.8600 O   0  0  0  0  0  1  0  0  0  0  0  0
  191.0320  176.3970  135.4470 O   0  0  0  0  0  0  0  0  0  0  0  0
  190.4250  176.3790  136.7120 C   0  0  1  0  0  3  0  0  0  0  0  0
  191.4730  176.2730  137.8420 C   0  0  1  0  0  3  0  0  0  0  0  0
  193.5250  175.5300  134.5950 O   0  0  0  0  0  0  0  0  0  0  0  0
  192.1420  175.1270  135.4830 P   0  0  2  0  0  0  0  0  0  0  0  0
  182.7460  178.5640  142.0880 C   0  0  1  0  0  3  0  0  0  0  0  0
  180.9930  179.1240  140.2810 C   0  0  0  0  0  2  0  0  0  0  0  0
  180.7240  180.1030  142.4780 N   0  0  0  0  0  0  0  0  0  0  0  0
  180.4150  180.1280  141.2210 C   0  0  0  0  0  3  0  0  0  0  0  0
  181.6950  179.1880  142.9960 C   0  0  0  0  0  0  0  0  0  0  0  0
  182.4700  178.8910  140.5910 C   0  0  2  0  0  3  0  0  0  0  0  0
  181.6820  178.9150  144.2250 O   0  0  0  0  0  0  0  0  0  0  0  0
  183.3190  176.8940  139.0290 C   0  0  0  0  0  3  0  0  0  0  0  0
  182.9360  177.7940  139.7340 C   0  0  0  0  0  0  0  0  0  0  0  0
  186.4660  177.3920  146.2190 O   0  0  0  0  0  0  0  0  0  0  0  0
  186.8060  176.9660  145.1260 C   0  0  0  0  0  3  0  0  0  0  0  0
  1 11  1  0  0  0  0
  1 16  1  1  0  0  0
  2  7  1  1  0  0  0
  2  3  1  0  0  0  0
  2 15  1  0  0  0  0
  3 18  1  1  0  0  0
  4 10  1  6  0  0  0
  4 13  1  0  0  0  0
  6 10  1  6  0  0  0
  6 12  1  0  0  0  0
  8  6  1  0  0  0  0
  9  7  1  6  0  0  0
  9 14  1  0  0  0  0
 11 37  1  1  0  0  0
 12 13  1  1  0  0  0
 12 11  1  0  0  0  0
 14  5  1  6  0  0  0
 14  3  1  0  0  0  0
 15  8  1  6  0  0  0
 15 17  1  0  0  0  0
 17 18  1  6  0  0  0
 17  1  1  0  0  0  0
 19 26  1  0  0  0  0
 22 26  1  0  0  0  0
 22 23  1  0  0  0  0
 23 21  1  1  0  0  0
 23 24  1  0  0  0  0
 24 20  1  6  0  0  0
 24  9  1  0  0  0  0
 26 25  2  6  0  0  0
 26 20  1  0  0  0  0
 27  4  1  0  0  0  0
 27 31  1  1  0  0  0
 28 32  1  0  0  0  0
 28 30  1  0  0  0  0
 29 31  1  0  0  0  0
 30 29  2  0  0  0  0
 31 33  2  0  0  0  0
 32 35  1  6  0  0  0
 32 27  1  0  0  0  0
 34 35  3  0  0  0  0
 37 36  2  0  0  0  0
M  END
>  <MODEL>
5

>  <REMARK>
 VINA RESULT:      -7.5      4.168      9.744
  Name = 
  4 active torsions:
  status: ('A' for Active; 'I' for Inactive)
    1  A    between atoms: C_6  and  N_9
    2  A    between atoms: C_13  and  C_32
    3  A    between atoms: C_17  and  C_23
    4  A    between atoms: C_20  and  C_35
                            x       y       z     vdW  Elec       q    Type
                         _______ _______ _______ _____ _____    ______ ____

>  <TORSDO>
F 4

$$$$
=
 OpenBabel11062415263D

 37 42  0  0  1  0  0  0  0  0999 V2000
  181.0970  178.3970  143.0980 C   0  0  2  0  0  3  0  0  0  0  0  0
  184.6770  178.9620  142.4510 C   0  0  1  0  0  3  0  0  0  0  0  0
  184.4800  179.4370  143.8800 C   0  0  2  0  0  3  0  0  0  0  0  0
  180.4090  178.9090  138.3270 N   0  0  2  0  0  0  0  0  0  0  0  0
  185.8690  179.1320  145.9610 C   0  0  0  0  0  1  0  0  0  0  0  0
  181.8280  179.2540  140.2160 C   0  0  1  0  0  3  0  0  0  0  0  0
  185.5230  177.6990  142.4920 C   0  0  0  0  0  2  0  0  0  0  0  0
  183.1820  179.1340  140.6020 O   0  0  0  0  0  0  0  0  0  0  0  0
  186.1400  177.6410  143.8810 C   0  0  2  0  0  3  0  0  0  0  0  0
  181.7260  179.4010  138.7230 C   0  0  0  0  0  2  0  0  0  0  0  0
  180.2090  178.2620  141.8340 C   0  0  1  0  0  3  0  0  0  0  0  0
  180.9920  178.0320  140.5280 C   0  0  1  0  0  3  0  0  0  0  0  0
  180.0690  177.8910  139.3240 C   0  0  0  0  0  2  0  0  0  0  0  0
  185.2030  178.4500  144.7740 C   0  0  2  0  0  3  0  0  0  0  0  0
  183.3040  178.6480  141.9270 C   0  0  2  0  0  3  0  0  0  0  0  0
  180.2450  178.9240  144.2460 C   0  0  0  0  0  1  0  0  0  0  0  0
  182.3410  179.2880  142.9230 C   0  0  2  0  0  3  0  0  0  0  0  0
  183.0550  179.4220  144.1890 N   0  0  0  0  0  2  0  0  0  0  0  0
  190.7310  175.9190  143.6710 O   0  0  0  0  0  0  0  0  0  0  0  0
  188.4790  177.1220  145.2010 S   0  0  0  0  0  0  0  0  0  0  0  0
  187.8370  178.7310  141.5860 O   0  0  0  0  0  1  0  0  0  0  0  0
  189.7400  178.1450  142.6840 O   0  0  0  0  0  0  0  0  0  0  0  0
  188.3690  177.8790  142.5530 C   0  0  1  0  0  3  0  0  0  0  0  0
  187.6270  178.0550  143.8960 C   0  0  1  0  0  3  0  0  0  0  0  0
  191.4060  178.1450  144.9010 O   0  0  0  0  0  1  0  0  0  0  0  0
  190.2170  177.2880  144.0570 P   0  0  2  0  0  0  0  0  0  0  0  0
  180.4340  178.2690  136.9930 C   0  0  1  0  0  3  0  0  0  0  0  0
  182.1450  177.5650  135.1950 C   0  0  0  0  0  2  0  0  0  0  0  0
  181.0060  179.6830  134.9220 N   0  0  0  0  0  0  0  0  0  0  0  0
  182.0020  178.9230  134.5940 C   0  0  0  0  0  3  0  0  0  0  0  0
  180.0680  179.2990  135.9330 C   0  0  0  0  0  0  0  0  0  0  0  0
  181.8070  177.6020  136.6840 C   0  0  2  0  0  3  0  0  0  0  0  0
  178.9310  179.8390  135.9460 O   0  0  0  0  0  0  0  0  0  0  0  0
  181.8370  175.0830  137.5820 C   0  0  0  0  0  3  0  0  0  0  0  0
  181.8240  176.2180  137.1770 C   0  0  0  0  0  0  0  0  0  0  0  0
  179.4910  175.9980  141.8790 O   0  0  0  0  0  0  0  0  0  0  0  0
  179.1940  177.1700  142.0440 C   0  0  0  0  0  3  0  0  0  0  0  0
  1 16  1  1  0  0  0
  2  7  1  1  0  0  0
  2  3  1  0  0  0  0
  3 18  1  1  0  0  0
  3 14  1  0  0  0  0
  4 10  1  1  0  0  0
  4 13  1  0  0  0  0
  6 10  1  6  0  0  0
  6 12  1  0  0  0  0
  6  8  1  0  0  0  0
  9  7  1  6  0  0  0
  9 24  1  0  0  0  0
  9 14  1  0  0  0  0
 11 37  1  1  0  0  0
 11  1  1  0  0  0  0
 12 13  1  6  0  0  0
 12 11  1  0  0  0  0
 14  5  1  1  0  0  0
 15  8  1  6  0  0  0
 15  2  1  0  0  0  0
 15 17  1  0  0  0  0
 17  1  1  0  0  0  0
 17 18  1  1  0  0  0
 22 26  1  0  0  0  0
 23 21  1  6  0  0  0
 23 22  1  0  0  0  0
 23 24  1  0  0  0  0
 24 20  1  1  0  0  0
 26 19  2  6  0  0  0
 26 25  1  0  0  0  0
 26 20  1  0  0  0  0
 27 31  1  6  0  0  0
 27  4  1  0  0  0  0
 28 32  1  0  0  0  0
 29 31  1  0  0  0  0
 30 29  2  0  0  0  0
 30 28  1  0  0  0  0
 31 33  2  0  0  0  0
 32 27  1  0  0  0  0
 32 35  1  6  0  0  0
 35 34  3  0  0  0  0
 36 37  2  0  0  0  0
M  END
>  <MODEL>
6

>  <REMARK>
 VINA RESULT:      -7.3      6.190      8.967
  Name = 
  4 active torsions:
  status: ('A' for Active; 'I' for Inactive)
    1  A    between atoms: C_6  and  N_9
    2  A    between atoms: C_13  and  C_32
    3  A    between atoms: C_17  and  C_23
    4  A    between atoms: C_20  and  C_35
                            x       y       z     vdW  Elec       q    Type
                         _______ _______ _______ _____ _____    ______ ____

>  <TORSDO>
F 4

$$$$
=
 OpenBabel11062415263D

 37 42  0  0  1  0  0  0  0  0999 V2000
  181.6430  178.3850  142.7730 C   0  0  2  0  0  3  0  0  0  0  0  0
  185.2570  179.0540  142.5480 C   0  0  1  0  0  3  0  0  0  0  0  0
  184.9310  179.2750  144.0140 C   0  0  2  0  0  3  0  0  0  0  0  0
  181.3600  179.7140  138.1200 N   0  0  2  0  0  0  0  0  0  0  0  0
  186.1400  178.6140  146.1250 C   0  0  0  0  0  1  0  0  0  0  0  0
  182.6060  179.7270  140.1570 C   0  0  1  0  0  3  0  0  0  0  0  0
  186.1150  177.8020  142.4440 C   0  0  0  0  0  2  0  0  0  0  0  0
  183.9240  179.5430  140.6320 O   0  0  0  0  0  0  0  0  0  0  0  0
  186.6110  177.5050  143.8500 C   0  0  2  0  0  3  0  0  0  0  0  0
  182.6310  180.1300  138.7080 C   0  0  0  0  0  2  0  0  0  0  0  0
  180.8690  178.4710  141.4320 C   0  0  1  0  0  3  0  0  0  0  0  0
  181.7650  178.4700  140.1790 C   0  0  1  0  0  3  0  0  0  0  0  0
  180.9510  178.5390  138.8940 C   0  0  0  0  0  2  0  0  0  0  0  0
  185.5890  178.1480  144.7850 C   0  0  2  0  0  3  0  0  0  0  0  0
  183.9390  178.8340  141.8590 C   0  0  2  0  0  3  0  0  0  0  0  0
  180.6880  178.7060  143.9160 C   0  0  0  0  0  1  0  0  0  0  0  0
  182.8840  179.2930  142.8630 C   0  0  2  0  0  3  0  0  0  0  0  0
  183.4840  179.2060  144.1910 N   0  0  0  0  0  2  0  0  0  0  0  0
  191.2120  175.8000  143.9460 O   0  0  0  0  0  0  0  0  0  0  0  0
  188.8020  176.8410  145.3480 S   0  0  0  0  0  0  0  0  0  0  0  0
  188.5330  178.8270  141.8760 O   0  0  0  0  0  1  0  0  0  0  0  0
  190.3140  178.1210  143.1010 O   0  0  0  0  0  0  0  0  0  0  0  0
  188.9660  177.8750  142.7980 C   0  0  1  0  0  3  0  0  0  0  0  0
  188.0850  177.9100  144.0670 C   0  0  1  0  0  3  0  0  0  0  0  0
  191.7370  177.8810  145.4690 O   0  0  0  0  0  1  0  0  0  0  0  0
  190.6500  177.1220  144.4180 P   0  0  2  0  0  0  0  0  0  0  0  0
  181.5090  179.3140  136.7030 C   0  0  1  0  0  3  0  0  0  0  0  0
  180.0300  178.7170  134.6750 C   0  0  0  0  0  2  0  0  0  0  0  0
  180.9400  176.9070  136.0000 N   0  0  0  0  0  0  0  0  0  0  0  0
  180.0640  177.2960  135.1290 C   0  0  0  0  0  3  0  0  0  0  0  0
  181.8360  177.8290  136.6290 C   0  0  0  0  0  0  0  0  0  0  0  0
  180.2490  179.6600  135.8560 C   0  0  2  0  0  3  0  0  0  0  0  0
  182.9000  177.3920  137.1410 O   0  0  0  0  0  0  0  0  0  0  0  0
  180.4350  182.1440  134.8840 C   0  0  0  0  0  3  0  0  0  0  0  0
  180.3510  181.0240  135.3210 C   0  0  0  0  0  0  0  0  0  0  0  0
  180.1710  176.2500  140.9610 O   0  0  0  0  0  0  0  0  0  0  0  0
  179.8560  177.3590  141.3620 C   0  0  0  0  0  3  0  0  0  0  0  0
  1 17  1  0  0  0  0
  1 16  1  1  0  0  0
  2  7  1  1  0  0  0
  2  3  1  0  0  0  0
  3 18  1  6  0  0  0
  3 14  1  0  0  0  0
  4 10  1  1  0  0  0
  4 13  1  0  0  0  0
  6 10  1  6  0  0  0
  6 12  1  0  0  0  0
  6  8  1  0  0  0  0
  9  7  1  6  0  0  0
  9 24  1  0  0  0  0
  9 14  1  0  0  0  0
 11 37  1  6  0  0  0
 11  1  1  0  0  0  0
 12 13  1  6  0  0  0
 12 11  1  0  0  0  0
 14  5  1  1  0  0  0
 15  8  1  6  0  0  0
 15  2  1  0  0  0  0
 15 17  1  0  0  0  0
 17 18  1  1  0  0  0
 22 26  1  0  0  0  0
 23 21  1  6  0  0  0
 23 22  1  0  0  0  0
 23 24  1  0  0  0  0
 24 20  1  1  0  0  0
 26 19  2  6  0  0  0
 26 20  1  0  0  0  0
 26 25  1  0  0  0  0
 27 31  1  1  0  0  0
 27  4  1  0  0  0  0
 28 30  1  0  0  0  0
 28 32  1  0  0  0  0
 29 31  1  0  0  0  0
 30 29  2  0  0  0  0
 31 33  2  0  0  0  0
 32 35  1  6  0  0  0
 32 27  1  0  0  0  0
 34 35  3  0  0  0  0
 36 37  2  0  0  0  0
M  END
>  <MODEL>
7

>  <REMARK>
 VINA RESULT:      -7.3      6.075      8.924
  Name = 
  4 active torsions:
  status: ('A' for Active; 'I' for Inactive)
    1  A    between atoms: C_6  and  N_9
    2  A    between atoms: C_13  and  C_32
    3  A    between atoms: C_17  and  C_23
    4  A    between atoms: C_20  and  C_35
                            x       y       z     vdW  Elec       q    Type
                         _______ _______ _______ _____ _____    ______ ____

>  <TORSDO>
F 4

$$$$
=
 OpenBabel11062415263D

 37 42  0  0  1  0  0  0  0  0999 V2000
  187.9500  177.3280  138.4480 C   0  0  2  0  0  3  0  0  0  0  0  0
  191.2200  175.6390  138.3450 C   0  0  1  0  0  3  0  0  0  0  0  0
  190.5400  175.2060  137.0580 C   0  0  2  0  0  3  0  0  0  0  0  0
  188.3360  177.2360  143.2790 N   0  0  2  0  0  0  0  0  0  0  0  0
  191.3960  174.9650  134.7000 C   0  0  0  0  0  1  0  0  0  0  0  0
  189.0650  176.3790  141.1740 C   0  0  1  0  0  3  0  0  0  0  0  0
  192.3800  176.5510  137.9740 C   0  0  0  0  0  2  0  0  0  0  0  0
  190.2510  176.0330  140.4870 O   0  0  0  0  0  0  0  0  0  0  0  0
  192.6220  176.3550  136.4860 C   0  0  2  0  0  3  0  0  0  0  0  0
  189.2950  176.3250  142.6590 C   0  0  0  0  0  2  0  0  0  0  0  0
  187.4890  177.7910  139.8540 C   0  0  1  0  0  3  0  0  0  0  0  0
  188.6010  177.7960  140.9200 C   0  0  1  0  0  3  0  0  0  0  0  0
  188.0950  178.2740  142.2740 C   0  0  0  0  0  2  0  0  0  0  0  0
  191.2900  175.8690  135.9200 C   0  0  2  0  0  3  0  0  0  0  0  0
  190.1880  176.4060  139.1220 C   0  0  2  0  0  3  0  0  0  0  0  0
  186.7210  177.0710  137.5850 C   0  0  0  0  0  1  0  0  0  0  0  0
  188.8580  176.0840  138.4420 C   0  0  2  0  0  3  0  0  0  0  0  0
  189.1600  175.6790  137.0730 N   0  0  0  0  0  2  0  0  0  0  0  0
  197.5190  176.3780  136.1610 O   0  0  0  0  0  1  0  0  0  0  0  0
  194.8340  176.2660  134.8800 S   0  0  0  0  0  0  0  0  0  0  0  0
  194.0600  174.4010  138.3440 O   0  0  0  0  0  1  0  0  0  0  0  0
  195.9160  174.4850  137.0320 O   0  0  0  0  0  0  0  0  0  0  0  0
  194.7510  175.1700  137.4080 C   0  0  1  0  0  3  0  0  0  0  0  0
  193.8540  175.4740  136.1880 C   0  0  1  0  0  3  0  0  0  0  0  0
  197.2230  174.2860  134.5940 O   0  0  0  0  0  0  0  0  0  0  0  0
  196.5140  175.3430  135.7080 P   0  0  2  0  0  0  0  0  0  0  0  0
  188.8870  177.8780  144.4940 C   0  0  1  0  0  3  0  0  0  0  0  0
  190.5890  177.3780  146.3670 C   0  0  0  0  0  2  0  0  0  0  0  0
  188.2460  176.9640  146.8100 N   0  0  0  0  0  0  0  0  0  0  0  0
  189.4790  176.7520  147.1440 C   0  0  0  0  0  3  0  0  0  0  0  0
  187.9010  177.7160  145.6420 C   0  0  0  0  0  0  0  0  0  0  0  0
  190.2920  177.3210  144.8710 C   0  0  2  0  0  3  0  0  0  0  0  0
  186.7550  178.2330  145.5660 O   0  0  0  0  0  0  0  0  0  0  0  0
  192.2070  178.7010  143.6150 C   0  0  0  0  0  3  0  0  0  0  0  0
  191.3440  178.0790  144.1810 C   0  0  0  0  0  0  0  0  0  0  0  0
  185.6530  179.2940  139.9720 O   0  0  0  0  0  0  0  0  0  0  0  0
  186.8450  179.1480  139.7530 C   0  0  0  0  0  3  0  0  0  0  0  0
  1 16  1  6  0  0  0
  1 11  1  0  0  0  0
  2  7  1  6  0  0  0
  2 15  1  0  0  0  0
  3 18  1  1  0  0  0
  3  2  1  0  0  0  0
  4 13  1  6  0  0  0
  4 27  1  0  0  0  0
  6 10  1  1  0  0  0
  8  6  1  0  0  0  0
  9  7  1  1  0  0  0
 10  4  1  0  0  0  0
 11 37  1  6  0  0  0
 11 12  1  0  0  0  0
 12  6  1  0  0  0  0
 12 13  1  1  0  0  0
 14  5  1  6  0  0  0
 14  9  1  0  0  0  0
 14  3  1  0  0  0  0
 15  8  1  1  0  0  0
 17 18  1  6  0  0  0
 17  1  1  0  0  0  0
 17 15  1  0  0  0  0
 20 26  1  0  0  0  0
 22 23  1  0  0  0  0
 23 21  1  1  0  0  0
 24 20  1  6  0  0  0
 24  9  1  0  0  0  0
 24 23  1  0  0  0  0
 26 25  2  6  0  0  0
 26 19  1  0  0  0  0
 26 22  1  0  0  0  0
 27 32  1  0  0  0  0
 27 31  1  1  0  0  0
 28 30  1  0  0  0  0
 29 30  2  0  0  0  0
 31 29  1  0  0  0  0
 32 35  1  6  0  0  0
 32 28  1  0  0  0  0
 33 31  2  0  0  0  0
 34 35  3  0  0  0  0
 37 36  2  0  0  0  0
M  END
>  <MODEL>
8

>  <REMARK>
 VINA RESULT:      -6.9      3.957      8.816
  Name = 
  4 active torsions:
  status: ('A' for Active; 'I' for Inactive)
    1  A    between atoms: C_6  and  N_9
    2  A    between atoms: C_13  and  C_32
    3  A    between atoms: C_17  and  C_23
    4  A    between atoms: C_20  and  C_35
                            x       y       z     vdW  Elec       q    Type
                         _______ _______ _______ _____ _____    ______ ____

>  <TORSDO>
F 4

$$$$
=
 OpenBabel11062415263D

 37 42  0  0  1  0  0  0  0  0999 V2000
  189.1790  176.5600  137.0040 C   0  0  2  0  0  3  0  0  0  0  0  0
  190.1000  177.6340  140.4030 C   0  0  1  0  0  3  0  0  0  0  0  0
  188.8440  178.4290  140.0920 C   0  0  2  0  0  3  0  0  0  0  0  0
  193.8810  175.6120  136.2990 N   0  0  2  0  0  0  0  0  0  0  0  0
  186.8160  178.9830  141.4820 C   0  0  0  0  0  1  0  0  0  0  0  0
  192.2130  176.7320  137.5890 C   0  0  1  0  0  3  0  0  0  0  0  0
  189.7570  176.6250  141.4890 C   0  0  0  0  0  2  0  0  0  0  0  0
  191.8650  176.9950  138.9330 O   0  0  0  0  0  0  0  0  0  0  0  0
  188.4300  177.0700  142.0830 C   0  0  2  0  0  3  0  0  0  0  0  0
  193.6850  176.4460  137.4820 C   0  0  0  0  0  2  0  0  0  0  0  0
  190.3240  175.9130  136.1820 C   0  0  1  0  0  3  0  0  0  0  0  0
  191.5510  175.4980  137.0150 C   0  0  1  0  0  3  0  0  0  0  0  0
  192.6340  174.8550  136.1590 C   0  0  0  0  0  2  0  0  0  0  0  0
  187.7490  177.8860  140.9880 C   0  0  2  0  0  3  0  0  0  0  0  0
  190.4650  176.9210  139.1320 C   0  0  2  0  0  3  0  0  0  0  0  0
  188.1810  177.1960  136.0450 C   0  0  0  0  0  1  0  0  0  0  0  0
  189.6380  177.6000  138.0430 C   0  0  2  0  0  3  0  0  0  0  0  0
  188.4840  178.2130  138.6950 N   0  0  0  0  0  2  0  0  0  0  0  0
  189.4660  176.2900  146.8160 O   0  0  0  0  0  0  0  0  0  0  0  0
  187.5170  176.9220  144.6570 S   0  0  0  0  0  0  0  0  0  0  0  0
  190.8250  178.6270  143.1670 O   0  0  0  0  0  1  0  0  0  0  0  0
  190.0750  178.3450  145.2950 O   0  0  0  0  0  0  0  0  0  0  0  0
  190.0330  177.8280  143.9910 C   0  0  1  0  0  3  0  0  0  0  0  0
  188.5870  177.7620  143.4540 C   0  0  1  0  0  3  0  0  0  0  0  0
  188.1310  178.5120  147.2660 O   0  0  0  0  0  1  0  0  0  0  0  0
  188.8770  177.5020  146.1320 P   0  0  2  0  0  0  0  0  0  0  0  0
  194.9950  174.6530  136.4750 C   0  0  1  0  0  3  0  0  0  0  0  0
  196.2950  172.8970  135.1030 C   0  0  0  0  0  2  0  0  0  0  0  0
  194.4960  172.1310  136.5290 N   0  0  0  0  0  0  0  0  0  0  0  0
  195.2910  171.8830  135.5370 C   0  0  0  0  0  3  0  0  0  0  0  0
  194.4800  173.4060  137.1800 C   0  0  0  0  0  0  0  0  0  0  0  0
  195.6850  174.2960  135.1250 C   0  0  2  0  0  3  0  0  0  0  0  0
  194.0160  173.4890  138.3480 O   0  0  0  0  0  0  0  0  0  0  0  0
  197.6420  176.0390  134.5940 C   0  0  0  0  0  3  0  0  0  0  0  0
  196.7590  175.2540  134.8330 C   0  0  0  0  0  0  0  0  0  0  0  0
  188.8870  174.0470  135.8600 O   0  0  0  0  0  0  0  0  0  0  0  0
  189.7870  174.7380  135.4080 C   0  0  0  0  0  3  0  0  0  0  0  0
  1 16  1  6  0  0  0
  1 17  1  0  0  0  0
  2  7  1  1  0  0  0
  3 18  1  6  0  0  0
  3  2  1  0  0  0  0
  3 14  1  0  0  0  0
  4 13  1  1  0  0  0
  4 27  1  0  0  0  0
  4 10  1  0  0  0  0
  6 10  1  1  0  0  0
  6  8  1  0  0  0  0
  9  7  1  6  0  0  0
  9 24  1  0  0  0  0
 11 37  1  1  0  0  0
 11  1  1  0  0  0  0
 11 12  1  0  0  0  0
 12 13  1  6  0  0  0
 12  6  1  0  0  0  0
 14  5  1  1  0  0  0
 14  9  1  0  0  0  0
 15  8  1  6  0  0  0
 15  2  1  0  0  0  0
 17 18  1  1  0  0  0
 17 15  1  0  0  0  0
 20 26  1  0  0  0  0
 22 26  1  0  0  0  0
 23 21  1  6  0  0  0
 23 22  1  0  0  0  0
 24 23  1  0  0  0  0
 24 20  1  1  0  0  0
 26 19  2  1  0  0  0
 26 25  1  0  0  0  0
 27 31  1  6  0  0  0
 28 32  1  0  0  0  0
 28 30  1  0  0  0  0
 29 31  1  0  0  0  0
 30 29  2  0  0  0  0
 31 33  2  0  0  0  0
 32 35  1  1  0  0  0
 32 27  1  0  0  0  0
 34 35  3  0  0  0  0
 37 36  2  0  0  0  0
M  END
>  <MODEL>
9

>  <REMARK>
 VINA RESULT:      -6.8      1.756      2.446
  Name = 
  4 active torsions:
  status: ('A' for Active; 'I' for Inactive)
    1  A    between atoms: C_6  and  N_9
    2  A    between atoms: C_13  and  C_32
    3  A    between atoms: C_17  and  C_23
    4  A    between atoms: C_20  and  C_35
                            x       y       z     vdW  Elec       q    Type
                         _______ _______ _______ _____ _____    ______ ____

>  <TORSDO>
F 4

$$$$
