=
 OpenBabel11062413263D

 30 31  0  0  1  0  0  0  0  0999 V2000
  188.1940  173.4330  137.0670 N   0  0  0  0  0  0  0  0  0  0  0  0
  188.3300  177.6120  137.3960 N   0  0  0  0  0  0  0  0  0  0  0  0
  187.1250  174.1570  136.6370 C   0  0  0  0  0  0  0  0  0  0  0  0
  187.1210  178.0800  135.3160 O   0  0  0  0  0  0  0  0  0  0  0  0
  189.3120  174.0350  137.5610 C   0  0  0  0  0  3  0  0  0  0  0  0
  185.9710  173.4930  136.1450 N   0  0  0  0  0  1  0  0  0  0  0  0
  187.6060  179.7490  136.7950 O   0  0  0  0  0  1  0  0  0  0  0  0
  189.3770  175.4270  137.6390 C   0  0  0  0  0  0  0  0  0  0  0  0
  188.2880  176.1920  137.2070 C   0  0  0  0  0  0  0  0  0  0  0  0
  187.1460  175.5510  136.7120 C   0  0  0  0  0  3  0  0  0  0  0  0
  190.2990  177.3900  138.9290 C   0  0  1  0  0  3  0  0  0  0  0  0
  190.6260  176.1140  138.1160 C   0  0  2  0  0  3  0  0  0  0  0  0
  187.6710  178.5260  136.5090 C   0  0  0  0  0  0  0  0  0  0  0  0
  188.9810  178.1170  138.6010 C   0  0  0  0  0  2  0  0  0  0  0  0
  191.7410  177.2440  140.9680 C   0  0  0  0  0  0  0  0  0  0  0  0
  191.9000  177.0050  142.1940 O   0  0  0  0  0  1  0  0  0  0  0  0
  192.8480  177.5980  140.1980 O   0  0  0  0  0  0  0  0  0  0  0  0
  190.4340  177.1660  140.3690 N   0  0  0  0  0  0  0  0  0  0  0  0
  189.2710  176.7600  141.1640 C   0  0  0  0  0  2  0  0  0  0  0  0
  188.7710  177.9120  142.0210 C   0  0  0  0  0  2  0  0  0  0  0  0
  188.9830  177.3600  145.8440 C   0  0  0  0  0  1  0  0  0  0  0  0
  189.2800  177.8900  144.4880 C   0  0  0  0  0  0  0  0  0  0  0  0
  188.5100  177.4440  143.3720 N   0  0  0  0  0  2  0  0  0  0  0  0
  190.2030  178.7370  144.3370 O   0  0  0  0  0  0  0  0  0  0  0  0
  191.5700  176.4370  136.9450 C   0  0  1  0  0  3  0  0  0  0  0  0
  193.0120  176.1510  137.2510 C   0  0  0  0  0  0  0  0  0  0  0  0
  193.3420  175.1110  137.8870 O   0  0  0  0  0  1  0  0  0  0  0  0
  193.9940  177.0350  136.8170 O   0  0  0  0  0  0  0  0  0  0  0  0
  190.6950  176.7920  134.5940 C   0  0  0  0  0  1  0  0  0  0  0  0
  191.1500  175.7820  135.6230 C   0  0  0  0  0  2  0  0  0  0  0  0
  1  5  1  0  0  0  0
  2 14  1  0  0  0  0
  3 10  1  0  0  0  0
  3  1  2  0  0  0  0
  4 13  2  0  0  0  0
  5  8  2  0  0  0  0
  6  3  1  0  0  0  0
  8 12  1  0  0  0  0
  9  2  1  0  0  0  0
  9  8  1  0  0  0  0
 10  9  2  0  0  0  0
 11 18  1  1  0  0  0
 12 25  1  6  0  0  0
 12 11  1  0  0  0  0
 13  7  1  0  0  0  0
 13  2  1  0  0  0  0
 14 11  1  0  0  0  0
 15 16  1  0  0  0  0
 17 15  2  0  0  0  0
 18 15  1  0  0  0  0
 18 19  1  0  0  0  0
 19 20  1  0  0  0  0
 20 23  1  0  0  0  0
 22 21  1  0  0  0  0
 23 22  1  0  0  0  0
 24 22  2  0  0  0  0
 25 30  1  6  0  0  0
 25 26  1  0  0  0  0
 26 27  1  0  0  0  0
 28 26  2  0  0  0  0
 29 30  1  0  0  0  0
M  END
>  <MODEL>
1

>  <REMARK>
 VINA RESULT:      -5.7      0.000      0.000
  Name = 
  7 active torsions:
  status: ('A' for Active; 'I' for Inactive)
    1  A    between atoms: C_2  and  C_30
    2  A    between atoms: N_15  and  C_27
    3  A    between atoms: C_21  and  N_28
    4  A    between atoms: C_22  and  C_30
    5  A    between atoms: C_23  and  C_27
    6  A    between atoms: C_23  and  N_28
    7  A    between atoms: C_24  and  C_30
                            x       y       z     vdW  Elec       q    Type
                         _______ _______ _______ _____ _____    ______ ____

>  <TORSDO>
F 7

$$$$
=
 OpenBabel11062413263D

 30 31  0  0  1  0  0  0  0  0999 V2000
  188.0470  173.6030  136.8880 N   0  0  0  0  0  0  0  0  0  0  0  0
  188.1290  177.7770  137.2800 N   0  0  0  0  0  0  0  0  0  0  0  0
  187.0010  174.3240  136.4020 C   0  0  0  0  0  0  0  0  0  0  0  0
  187.0470  178.2660  135.1350 O   0  0  0  0  0  0  0  0  0  0  0  0
  189.1280  174.2050  137.4580 C   0  0  0  0  0  3  0  0  0  0  0  0
  185.8850  173.6590  135.8300 N   0  0  0  0  0  1  0  0  0  0  0  0
  187.4260  179.9180  136.6640 O   0  0  0  0  0  1  0  0  0  0  0  0
  189.1770  175.5970  137.5580 C   0  0  0  0  0  0  0  0  0  0  0  0
  188.1100  176.3600  137.0700 C   0  0  0  0  0  0  0  0  0  0  0  0
  187.0060  175.7170  136.4960 C   0  0  0  0  0  3  0  0  0  0  0  0
  190.0010  177.5490  138.9290 C   0  0  1  0  0  3  0  0  0  0  0  0
  190.3880  176.2860  138.1210 C   0  0  2  0  0  3  0  0  0  0  0  0
  187.5190  178.6990  136.3660 C   0  0  0  0  0  0  0  0  0  0  0  0
  188.6990  178.2710  138.5290 C   0  0  0  0  0  2  0  0  0  0  0  0
  191.3280  177.2630  141.0300 C   0  0  0  0  0  0  0  0  0  0  0  0
  191.4070  177.0030  142.2610 O   0  0  0  0  0  1  0  0  0  0  0  0
  192.4970  177.5200  140.3150 O   0  0  0  0  0  0  0  0  0  0  0  0
  190.0480  177.3060  140.3710 N   0  0  0  0  0  0  0  0  0  0  0  0
  188.8180  177.0020  141.1080 C   0  0  0  0  0  2  0  0  0  0  0  0
  188.4060  178.1740  141.9830 C   0  0  0  0  0  2  0  0  0  0  0  0
  184.5830  178.3480  142.5490 C   0  0  0  0  0  1  0  0  0  0  0  0
  185.9220  178.5950  141.9550 C   0  0  0  0  0  0  0  0  0  0  0  0
  187.0690  177.9520  142.5100 N   0  0  0  0  0  2  0  0  0  0  0  0
  186.0330  179.3630  140.9590 O   0  0  0  0  0  0  0  0  0  0  0  0
  191.4000  176.6330  137.0150 C   0  0  1  0  0  3  0  0  0  0  0  0
  192.7730  176.0820  137.2750 C   0  0  0  0  0  0  0  0  0  0  0  0
  193.8020  176.7560  136.9910 O   0  0  0  0  0  0  0  0  0  0  0  0
  192.9090  174.8220  137.8460 O   0  0  0  0  0  1  0  0  0  0  0  0
  191.7810  175.2010  134.9590 C   0  0  0  0  0  1  0  0  0  0  0  0
  190.9170  176.2600  135.6070 C   0  0  0  0  0  2  0  0  0  0  0  0
  1  5  1  0  0  0  0
  2 14  1  0  0  0  0
  3 10  1  0  0  0  0
  3  1  2  0  0  0  0
  4 13  2  0  0  0  0
  5  8  2  0  0  0  0
  6  3  1  0  0  0  0
  8 12  1  0  0  0  0
  9  2  1  0  0  0  0
  9  8  1  0  0  0  0
 10  9  2  0  0  0  0
 11 18  1  1  0  0  0
 12 25  1  6  0  0  0
 12 11  1  0  0  0  0
 13  7  1  0  0  0  0
 13  2  1  0  0  0  0
 14 11  1  0  0  0  0
 15 16  1  0  0  0  0
 17 15  2  0  0  0  0
 18 15  1  0  0  0  0
 18 19  1  0  0  0  0
 19 20  1  0  0  0  0
 20 23  1  0  0  0  0
 22 23  1  0  0  0  0
 22 21  1  0  0  0  0
 24 22  2  0  0  0  0
 25 30  1  6  0  0  0
 25 26  1  0  0  0  0
 26 28  1  0  0  0  0
 27 26  2  0  0  0  0
 29 30  1  0  0  0  0
M  END
>  <MODEL>
2

>  <REMARK>
 VINA RESULT:      -5.6      1.343      1.819
  Name = 
  7 active torsions:
  status: ('A' for Active; 'I' for Inactive)
    1  A    between atoms: C_2  and  C_30
    2  A    between atoms: N_15  and  C_27
    3  A    between atoms: C_21  and  N_28
    4  A    between atoms: C_22  and  C_30
    5  A    between atoms: C_23  and  C_27
    6  A    between atoms: C_23  and  N_28
    7  A    between atoms: C_24  and  C_30
                            x       y       z     vdW  Elec       q    Type
                         _______ _______ _______ _____ _____    ______ ____

>  <TORSDO>
F 7

$$$$
=
 OpenBabel11062413263D

 30 31  0  0  1  0  0  0  0  0999 V2000
  184.9920  179.3190  138.5550 N   0  0  0  0  0  0  0  0  0  0  0  0
  181.4010  177.1570  138.6750 N   0  0  0  0  0  0  0  0  0  0  0  0
  185.0050  178.0110  138.1820 C   0  0  0  0  0  0  0  0  0  0  0  0
  181.8420  175.8000  136.6820 O   0  0  0  0  0  0  0  0  0  0  0  0
  183.8400  179.9450  138.9260 C   0  0  0  0  0  3  0  0  0  0  0  0
  186.2280  177.3890  137.8180 N   0  0  0  0  0  1  0  0  0  0  0  0
  180.0600  175.3540  138.0370 O   0  0  0  0  0  1  0  0  0  0  0  0
  182.6350  179.2400  138.9330 C   0  0  0  0  0  0  0  0  0  0  0  0
  182.6250  177.8920  138.5580 C   0  0  0  0  0  0  0  0  0  0  0  0
  183.8230  177.2680  138.1890 C   0  0  0  0  0  3  0  0  0  0  0  0
  180.3860  178.9900  140.0480 C   0  0  1  0  0  3  0  0  0  0  0  0
  181.3430  179.9270  139.2720 C   0  0  2  0  0  3  0  0  0  0  0  0
  181.0700  176.0670  137.8040 C   0  0  0  0  0  0  0  0  0  0  0  0
  180.5230  177.4760  139.7970 C   0  0  0  0  0  2  0  0  0  0  0  0
  179.7300  180.4890  141.9410 C   0  0  0  0  0  0  0  0  0  0  0  0
  179.7510  180.8030  143.1610 O   0  0  0  0  0  1  0  0  0  0  0  0
  179.0610  181.3170  141.0400 O   0  0  0  0  0  0  0  0  0  0  0  0
  180.3780  179.2880  141.4820 N   0  0  0  0  0  0  0  0  0  0  0  0
  181.1140  178.4320  142.4160 C   0  0  0  0  0  2  0  0  0  0  0  0
  182.5420  178.9210  142.5900 C   0  0  0  0  0  2  0  0  0  0  0  0
  184.6270  178.7040  145.8410 C   0  0  0  0  0  1  0  0  0  0  0  0
  184.2940  178.8150  144.3970 C   0  0  0  0  0  0  0  0  0  0  0  0
  182.9260  178.8360  143.9890 N   0  0  0  0  0  2  0  0  0  0  0  0
  185.2220  178.8990  143.5460 O   0  0  0  0  0  0  0  0  0  0  0  0
  180.6580  180.4880  138.0130 C   0  0  1  0  0  3  0  0  0  0  0  0
  180.6420  181.9880  137.9670 C   0  0  0  0  0  0  0  0  0  0  0  0
  181.7150  182.6470  138.0680 O   0  0  0  0  0  1  0  0  0  0  0  0
  179.4360  182.6560  137.7960 O   0  0  0  0  0  0  0  0  0  0  0  0
  180.1540  179.1850  135.8990 C   0  0  0  0  0  1  0  0  0  0  0  0
  181.2120  179.9040  136.7070 C   0  0  0  0  0  2  0  0  0  0  0  0
  1  5  1  0  0  0  0
  2 14  1  0  0  0  0
  3 10  1  0  0  0  0
  3  1  2  0  0  0  0
  4 13  2  0  0  0  0
  5  8  2  0  0  0  0
  6  3  1  0  0  0  0
  8 12  1  0  0  0  0
  9  2  1  0  0  0  0
  9  8  1  0  0  0  0
 10  9  2  0  0  0  0
 11 18  1  1  0  0  0
 12 25  1  6  0  0  0
 12 11  1  0  0  0  0
 13  7  1  0  0  0  0
 13  2  1  0  0  0  0
 14 11  1  0  0  0  0
 15 16  1  0  0  0  0
 17 15  2  0  0  0  0
 18 15  1  0  0  0  0
 18 19  1  0  0  0  0
 19 20  1  0  0  0  0
 20 23  1  0  0  0  0
 22 21  1  0  0  0  0
 23 22  1  0  0  0  0
 24 22  2  0  0  0  0
 25 30  1  6  0  0  0
 26 25  1  0  0  0  0
 26 27  1  0  0  0  0
 28 26  2  0  0  0  0
 29 30  1  0  0  0  0
M  END
>  <MODEL>
3

>  <REMARK>
 VINA RESULT:      -5.3      6.795      9.314
  Name = 
  7 active torsions:
  status: ('A' for Active; 'I' for Inactive)
    1  A    between atoms: C_2  and  C_30
    2  A    between atoms: N_15  and  C_27
    3  A    between atoms: C_21  and  N_28
    4  A    between atoms: C_22  and  C_30
    5  A    between atoms: C_23  and  C_27
    6  A    between atoms: C_23  and  N_28
    7  A    between atoms: C_24  and  C_30
                            x       y       z     vdW  Elec       q    Type
                         _______ _______ _______ _____ _____    ______ ____

>  <TORSDO>
F 7

$$$$
=
 OpenBabel11062413263D

 30 31  0  0  1  0  0  0  0  0999 V2000
  185.6250  178.1750  137.5090 N   0  0  0  0  0  0  0  0  0  0  0  0
  182.2840  176.5790  139.4770 N   0  0  0  0  0  0  0  0  0  0  0  0
  185.2760  176.8840  137.2590 C   0  0  0  0  0  0  0  0  0  0  0  0
  181.5130  175.1930  137.6080 O   0  0  0  0  0  0  0  0  0  0  0  0
  184.8960  178.9640  138.3470 C   0  0  0  0  0  3  0  0  0  0  0  0
  186.0710  176.0880  136.3940 N   0  0  0  0  0  1  0  0  0  0  0  0
  180.5680  175.0070  139.6780 O   0  0  0  0  0  1  0  0  0  0  0  0
  183.7610  178.4490  138.9760 C   0  0  0  0  0  0  0  0  0  0  0  0
  183.3860  177.1220  138.7390 C   0  0  0  0  0  0  0  0  0  0  0  0
  184.1560  176.3280  137.8810 C   0  0  0  0  0  3  0  0  0  0  0  0
  182.3240  178.5300  141.0490 C   0  0  1  0  0  3  0  0  0  0  0  0
  182.9040  179.3200  139.8500 C   0  0  2  0  0  3  0  0  0  0  0  0
  181.4260  175.5610  138.9430 C   0  0  0  0  0  0  0  0  0  0  0  0
  182.1120  177.0150  140.8590 C   0  0  0  0  0  2  0  0  0  0  0  0
  182.3140  178.9330  143.5170 C   0  0  0  0  0  0  0  0  0  0  0  0
  182.9040  179.2260  144.5920 O   0  0  0  0  0  1  0  0  0  0  0  0
  180.9370  178.7180  143.5370 O   0  0  0  0  0  0  0  0  0  0  0  0
  183.0520  178.8100  142.2870 N   0  0  0  0  0  0  0  0  0  0  0  0
  184.4950  179.0690  142.2510 C   0  0  0  0  0  2  0  0  0  0  0  0
  185.2800  177.8190  142.6120 C   0  0  0  0  0  2  0  0  0  0  0  0
  187.7170  177.5060  145.5990 C   0  0  0  0  0  1  0  0  0  0  0  0
  187.1210  177.3060  144.2540 C   0  0  0  0  0  0  0  0  0  0  0  0
  185.9190  177.9940  143.9060 N   0  0  0  0  0  2  0  0  0  0  0  0
  187.6860  176.5380  143.4260 O   0  0  0  0  0  0  0  0  0  0  0  0
  181.7790  179.9910  139.0420 C   0  0  1  0  0  3  0  0  0  0  0  0
  180.4490  179.9570  139.7370 C   0  0  0  0  0  0  0  0  0  0  0  0
  179.5780  179.1000  139.4210 O   0  0  0  0  0  0  0  0  0  0  0  0
  180.1810  180.8720  140.7490 O   0  0  0  0  0  1  0  0  0  0  0  0
  181.1290  181.9580  137.5820 C   0  0  0  0  0  1  0  0  0  0  0  0
  182.1240  181.4150  138.5850 C   0  0  0  0  0  2  0  0  0  0  0  0
  1  5  1  0  0  0  0
  2 14  1  0  0  0  0
  3  1  2  0  0  0  0
  3 10  1  0  0  0  0
  4 13  2  0  0  0  0
  5  8  2  0  0  0  0
  6  3  1  0  0  0  0
  8 12  1  0  0  0  0
  9  8  1  0  0  0  0
  9  2  1  0  0  0  0
 10  9  2  0  0  0  0
 11 18  1  1  0  0  0
 12 25  1  6  0  0  0
 12 11  1  0  0  0  0
 13  2  1  0  0  0  0
 13  7  1  0  0  0  0
 14 11  1  0  0  0  0
 15 17  2  0  0  0  0
 15 16  1  0  0  0  0
 18 15  1  0  0  0  0
 19 18  1  0  0  0  0
 19 20  1  0  0  0  0
 20 23  1  0  0  0  0
 22 21  1  0  0  0  0
 23 22  1  0  0  0  0
 24 22  2  0  0  0  0
 25 30  1  1  0  0  0
 25 26  1  0  0  0  0
 26 28  1  0  0  0  0
 27 26  2  0  0  0  0
 29 30  1  0  0  0  0
M  END
>  <MODEL>
4

>  <REMARK>
 VINA RESULT:      -5.2      5.836      8.229
  Name = 
  7 active torsions:
  status: ('A' for Active; 'I' for Inactive)
    1  A    between atoms: C_2  and  C_30
    2  A    between atoms: N_15  and  C_27
    3  A    between atoms: C_21  and  N_28
    4  A    between atoms: C_22  and  C_30
    5  A    between atoms: C_23  and  C_27
    6  A    between atoms: C_23  and  N_28
    7  A    between atoms: C_24  and  C_30
                            x       y       z     vdW  Elec       q    Type
                         _______ _______ _______ _____ _____    ______ ____

>  <TORSDO>
F 7

$$$$
=
 OpenBabel11062413263D

 30 31  0  0  1  0  0  0  0  0999 V2000
  187.4940  178.7840  135.9660 N   0  0  0  0  0  0  0  0  0  0  0  0
  188.6170  174.8740  136.9830 N   0  0  0  0  0  0  0  0  0  0  0  0
  186.7610  177.7470  135.4790 C   0  0  0  0  0  0  0  0  0  0  0  0
  186.3410  173.9760  137.1360 O   0  0  0  0  0  0  0  0  0  0  0  0
  188.5510  178.5820  136.8010 C   0  0  0  0  0  3  0  0  0  0  0  0
  185.6770  177.9970  134.5970 N   0  0  0  0  0  1  0  0  0  0  0  0
  188.1570  172.5970  137.2280 O   0  0  0  0  0  1  0  0  0  0  0  0
  188.9070  177.2840  137.1730 C   0  0  0  0  0  0  0  0  0  0  0  0
  188.1710  176.2010  136.6800 C   0  0  0  0  0  0  0  0  0  0  0  0
  187.0940  176.4330  135.8150 C   0  0  0  0  0  3  0  0  0  0  0  0
  190.8150  175.7560  137.7980 C   0  0  1  0  0  3  0  0  0  0  0  0
  190.0250  177.0410  138.1460 C   0  0  2  0  0  3  0  0  0  0  0  0
  187.7120  173.7680  137.1120 C   0  0  0  0  0  0  0  0  0  0  0  0
  190.0560  174.6410  137.0530 C   0  0  0  0  0  2  0  0  0  0  0  0
  192.1530  176.0080  135.6980 C   0  0  0  0  0  0  0  0  0  0  0  0
  193.2420  176.2130  135.1000 O   0  0  0  0  0  1  0  0  0  0  0  0
  191.0080  175.7390  134.9490 O   0  0  0  0  0  0  0  0  0  0  0  0
  192.0850  176.0620  137.1360 N   0  0  0  0  0  0  0  0  0  0  0  0
  193.2910  176.3080  137.9320 C   0  0  0  0  0  2  0  0  0  0  0  0
  193.9770  175.0020  138.2950 C   0  0  0  0  0  2  0  0  0  0  0  0
  197.7600  174.2210  138.0760 C   0  0  0  0  0  1  0  0  0  0  0  0
  196.3120  174.0580  138.3680 C   0  0  0  0  0  0  0  0  0  0  0  0
  195.4010  175.0980  138.0140 N   0  0  0  0  0  2  0  0  0  0  0  0
  195.9000  172.9990  138.9160 O   0  0  0  0  0  0  0  0  0  0  0  0
  189.5070  176.9890  139.5940 C   0  0  1  0  0  3  0  0  0  0  0  0
  190.6030  176.8440  140.6100 C   0  0  0  0  0  0  0  0  0  0  0  0
  190.5100  175.9970  141.5420 O   0  0  0  0  0  1  0  0  0  0  0  0
  191.7370  177.6430  140.5140 O   0  0  0  0  0  0  0  0  0  0  0  0
  188.1040  178.1010  141.3870 C   0  0  0  0  0  1  0  0  0  0  0  0
  188.5790  178.1570  139.9520 C   0  0  0  0  0  2  0  0  0  0  0  0
  1  5  1  0  0  0  0
  2 14  1  0  0  0  0
  2 13  1  0  0  0  0
  3 10  1  0  0  0  0
  3  1  2  0  0  0  0
  5  8  2  0  0  0  0
  6  3  1  0  0  0  0
  8 12  1  0  0  0  0
  9  2  1  0  0  0  0
  9  8  1  0  0  0  0
 10  9  2  0  0  0  0
 11 18  1  6  0  0  0
 11 12  1  0  0  0  0
 12 25  1  1  0  0  0
 13  4  2  0  0  0  0
 13  7  1  0  0  0  0
 14 11  1  0  0  0  0
 15 18  1  0  0  0  0
 16 15  1  0  0  0  0
 17 15  2  0  0  0  0
 18 19  1  0  0  0  0
 19 20  1  0  0  0  0
 21 22  1  0  0  0  0
 22 24  2  0  0  0  0
 23 20  1  0  0  0  0
 23 22  1  0  0  0  0
 25 30  1  1  0  0  0
 25 26  1  0  0  0  0
 26 27  1  0  0  0  0
 28 26  2  0  0  0  0
 30 29  1  0  0  0  0
M  END
>  <MODEL>
5

>  <REMARK>
 VINA RESULT:      -4.8      2.730      5.796
  Name = 
  7 active torsions:
  status: ('A' for Active; 'I' for Inactive)
    1  A    between atoms: C_2  and  C_30
    2  A    between atoms: N_15  and  C_27
    3  A    between atoms: C_21  and  N_28
    4  A    between atoms: C_22  and  C_30
    5  A    between atoms: C_23  and  C_27
    6  A    between atoms: C_23  and  N_28
    7  A    between atoms: C_24  and  C_30
                            x       y       z     vdW  Elec       q    Type
                         _______ _______ _______ _____ _____    ______ ____

>  <TORSDO>
F 7

$$$$
=
 OpenBabel11062413263D

 30 31  0  0  1  0  0  0  0  0999 V2000
  187.9780  173.5460  136.6610 N   0  0  0  0  0  0  0  0  0  0  0  0
  187.9150  177.7140  137.1230 N   0  0  0  0  0  0  0  0  0  0  0  0
  186.9740  174.2530  136.0750 C   0  0  0  0  0  0  0  0  0  0  0  0
  187.0630  178.2160  134.8800 O   0  0  0  0  0  0  0  0  0  0  0  0
  188.9750  174.1630  137.3550 C   0  0  0  0  0  3  0  0  0  0  0  0
  185.9430  173.5730  135.3740 N   0  0  0  0  0  1  0  0  0  0  0  0
  187.2320  179.8490  136.4660 O   0  0  0  0  0  1  0  0  0  0  0  0
  188.9790  175.5530  137.4810 C   0  0  0  0  0  0  0  0  0  0  0  0
  187.9540  176.3000  136.8910 C   0  0  0  0  0  0  0  0  0  0  0  0
  186.9350  175.6430  136.1900 C   0  0  0  0  0  3  0  0  0  0  0  0
  189.6010  177.4980  138.9630 C   0  0  1  0  0  3  0  0  0  0  0  0
  190.1040  176.2590  138.1830 C   0  0  2  0  0  3  0  0  0  0  0  0
  187.3870  178.6380  136.1620 C   0  0  0  0  0  0  0  0  0  0  0  0
  188.3340  178.1980  138.4350 C   0  0  0  0  0  2  0  0  0  0  0  0
  188.4260  177.8400  141.1450 C   0  0  0  0  0  0  0  0  0  0  0  0
  188.3380  177.6740  142.3910 O   0  0  0  0  0  1  0  0  0  0  0  0
  187.4650  178.6130  140.4950 O   0  0  0  0  0  0  0  0  0  0  0  0
  189.4960  177.2310  140.3990 N   0  0  0  0  0  0  0  0  0  0  0  0
  190.5310  176.4470  141.0800 C   0  0  0  0  0  2  0  0  0  0  0  0
  191.4840  177.3520  141.8410 C   0  0  0  0  0  2  0  0  0  0  0  0
  191.5760  177.0530  145.6970 C   0  0  0  0  0  1  0  0  0  0  0  0
  191.3360  177.6140  144.3420 C   0  0  0  0  0  0  0  0  0  0  0  0
  191.6770  176.8440  143.1900 N   0  0  0  0  0  2  0  0  0  0  0  0
  190.8250  178.7620  144.2230 O   0  0  0  0  0  0  0  0  0  0  0  0
  191.2230  176.6470  137.2010 C   0  0  1  0  0  3  0  0  0  0  0  0
  192.5700  176.1170  137.5980 C   0  0  0  0  0  0  0  0  0  0  0  0
  193.5650  176.8890  137.6880 O   0  0  0  0  0  0  0  0  0  0  0  0
  192.7180  174.7640  137.8800 O   0  0  0  0  0  1  0  0  0  0  0  0
  192.1380  175.9320  134.9490 C   0  0  0  0  0  1  0  0  0  0  0  0
  190.9020  176.2950  135.7420 C   0  0  0  0  0  2  0  0  0  0  0  0
  1  5  1  0  0  0  0
  2 14  1  0  0  0  0
  3 10  1  0  0  0  0
  3  1  2  0  0  0  0
  4 13  2  0  0  0  0
  5  8  2  0  0  0  0
  6  3  1  0  0  0  0
  8 12  1  0  0  0  0
  9  2  1  0  0  0  0
  9  8  1  0  0  0  0
 10  9  2  0  0  0  0
 11 18  1  1  0  0  0
 12 25  1  6  0  0  0
 12 11  1  0  0  0  0
 13  7  1  0  0  0  0
 13  2  1  0  0  0  0
 14 11  1  0  0  0  0
 15 16  1  0  0  0  0
 17 15  2  0  0  0  0
 18 19  1  0  0  0  0
 18 15  1  0  0  0  0
 19 20  1  0  0  0  0
 20 23  1  0  0  0  0
 22 21  1  0  0  0  0
 23 22  1  0  0  0  0
 24 22  2  0  0  0  0
 25 30  1  6  0  0  0
 25 26  1  0  0  0  0
 26 27  2  0  0  0  0
 26 28  1  0  0  0  0
 29 30  1  0  0  0  0
M  END
>  <MODEL>
6

>  <REMARK>
 VINA RESULT:      -4.8      1.378      1.881
  Name = 
  7 active torsions:
  status: ('A' for Active; 'I' for Inactive)
    1  A    between atoms: C_2  and  C_30
    2  A    between atoms: N_15  and  C_27
    3  A    between atoms: C_21  and  N_28
    4  A    between atoms: C_22  and  C_30
    5  A    between atoms: C_23  and  C_27
    6  A    between atoms: C_23  and  N_28
    7  A    between atoms: C_24  and  C_30
                            x       y       z     vdW  Elec       q    Type
                         _______ _______ _______ _____ _____    ______ ____

>  <TORSDO>
F 7

$$$$
=
 OpenBabel11062413263D

 30 31  0  0  1  0  0  0  0  0999 V2000
  189.0830  177.7670  141.2120 N   0  0  0  0  0  0  0  0  0  0  0  0
  191.4700  175.9530  138.2800 N   0  0  0  0  0  0  0  0  0  0  0  0
  190.3840  177.4960  141.5050 C   0  0  0  0  0  0  0  0  0  0  0  0
  193.5340  177.1480  138.8410 O   0  0  0  0  0  1  0  0  0  0  0  0
  188.5560  177.4990  139.9850 C   0  0  0  0  0  3  0  0  0  0  0  0
  190.8920  177.7730  142.8010 N   0  0  0  0  0  1  0  0  0  0  0  0
  193.5470  175.4130  137.3590 O   0  0  0  0  0  0  0  0  0  0  0  0
  189.3560  176.9290  138.9930 C   0  0  0  0  0  0  0  0  0  0  0  0
  190.6950  176.6370  139.2720 C   0  0  0  0  0  0  0  0  0  0  0  0
  191.2120  176.9120  140.5450 C   0  0  0  0  0  3  0  0  0  0  0  0
  189.3960  175.3960  136.9890 C   0  0  1  0  0  3  0  0  0  0  0  0
  188.8150  176.6890  137.6110 C   0  0  2  0  0  3  0  0  0  0  0  0
  192.8840  176.1440  138.1400 C   0  0  0  0  0  0  0  0  0  0  0  0
  190.7930  174.9500  137.4630 C   0  0  0  0  0  2  0  0  0  0  0  0
  188.8080  173.0190  136.4760 C   0  0  0  0  0  0  0  0  0  0  0  0
  187.9890  172.0610  136.4620 O   0  0  0  0  0  1  0  0  0  0  0  0
  190.0800  172.8300  135.9390 O   0  0  0  0  0  0  0  0  0  0  0  0
  188.4400  174.2880  137.0480 N   0  0  0  0  0  0  0  0  0  0  0  0
  187.0920  174.5050  137.5820 C   0  0  0  0  0  2  0  0  0  0  0  0
  186.1090  174.8080  136.4630 C   0  0  0  0  0  2  0  0  0  0  0  0
  182.5420  175.0500  137.9400 C   0  0  0  0  0  1  0  0  0  0  0  0
  183.7930  174.4650  137.3960 C   0  0  0  0  0  0  0  0  0  0  0  0
  184.8700  175.3240  137.0220 N   0  0  0  0  0  2  0  0  0  0  0  0
  183.8990  173.2120  137.2790 O   0  0  0  0  0  0  0  0  0  0  0  0
  189.0650  177.8980  136.6930 C   0  0  1  0  0  3  0  0  0  0  0  0
  189.1070  177.5370  135.2360 C   0  0  0  0  0  0  0  0  0  0  0  0
  190.1940  177.5740  134.5940 O   0  0  0  0  0  1  0  0  0  0  0  0
  187.9390  177.1440  134.5940 O   0  0  0  0  0  0  0  0  0  0  0  0
  186.6900  178.5930  137.2400 C   0  0  0  0  0  1  0  0  0  0  0  0
  188.0970  179.0630  136.9410 C   0  0  0  0  0  2  0  0  0  0  0  0
  1  3  1  0  0  0  0
  2  9  1  0  0  0  0
  3  6  1  0  0  0  0
  5  1  2  0  0  0  0
  7 13  2  0  0  0  0
  8  9  2  0  0  0  0
  8  5  1  0  0  0  0
  9 10  1  0  0  0  0
 10  3  2  0  0  0  0
 11 18  1  1  0  0  0
 11 14  1  0  0  0  0
 11 12  1  0  0  0  0
 12 25  1  6  0  0  0
 12  8  1  0  0  0  0
 13  2  1  0  0  0  0
 13  4  1  0  0  0  0
 14  2  1  0  0  0  0
 15 18  1  0  0  0  0
 16 15  1  0  0  0  0
 17 15  2  0  0  0  0
 18 19  1  0  0  0  0
 20 23  1  0  0  0  0
 20 19  1  0  0  0  0
 22 21  1  0  0  0  0
 23 22  1  0  0  0  0
 24 22  2  0  0  0  0
 25 30  1  6  0  0  0
 26 25  1  0  0  0  0
 27 26  1  0  0  0  0
 28 26  2  0  0  0  0
 30 29  1  0  0  0  0
M  END
>  <MODEL>
7

>  <REMARK>
 VINA RESULT:      -4.3      2.526      6.343
  Name = 
  7 active torsions:
  status: ('A' for Active; 'I' for Inactive)
    1  A    between atoms: C_2  and  C_30
    2  A    between atoms: N_15  and  C_27
    3  A    between atoms: C_21  and  N_28
    4  A    between atoms: C_22  and  C_30
    5  A    between atoms: C_23  and  C_27
    6  A    between atoms: C_23  and  N_28
    7  A    between atoms: C_24  and  C_30
                            x       y       z     vdW  Elec       q    Type
                         _______ _______ _______ _____ _____    ______ ____

>  <TORSDO>
F 7

$$$$
=
 OpenBabel11062413263D

 30 31  0  0  1  0  0  0  0  0999 V2000
  186.1830  177.8470  137.3900 N   0  0  0  0  0  0  0  0  0  0  0  0
  182.5990  175.8510  138.2590 N   0  0  0  0  0  0  0  0  0  0  0  0
  186.0860  176.5220  137.0970 C   0  0  0  0  0  0  0  0  0  0  0  0
  182.6360  174.3750  136.3030 O   0  0  0  0  0  0  0  0  0  0  0  0
  185.1360  178.5410  137.9180 C   0  0  0  0  0  3  0  0  0  0  0  0
  187.2040  175.8300  136.5640 N   0  0  0  0  0  1  0  0  0  0  0  0
  181.1060  174.0780  137.9700 O   0  0  0  0  0  1  0  0  0  0  0  0
  183.9280  177.8890  138.1750 C   0  0  0  0  0  0  0  0  0  0  0  0
  183.8070  176.5260  137.8870 C   0  0  0  0  0  0  0  0  0  0  0  0
  184.9000  175.8320  137.3530 C   0  0  0  0  0  3  0  0  0  0  0  0
  181.9030  177.7950  139.6780 C   0  0  1  0  0  3  0  0  0  0  0  0
  182.7390  178.6490  138.6940 C   0  0  2  0  0  3  0  0  0  0  0  0
  182.0830  174.7330  137.5240 C   0  0  0  0  0  0  0  0  0  0  0  0
  181.9430  176.2650  139.4960 C   0  0  0  0  0  2  0  0  0  0  0  0
  181.2100  179.0110  141.7520 C   0  0  0  0  0  0  0  0  0  0  0  0
  181.4240  179.3930  142.9330 O   0  0  0  0  0  1  0  0  0  0  0  0
  180.0340  179.4070  141.1150 O   0  0  0  0  0  0  0  0  0  0  0  0
  182.1570  178.1670  141.0710 N   0  0  0  0  0  0  0  0  0  0  0  0
  183.4120  177.7760  141.7210 C   0  0  0  0  0  2  0  0  0  0  0  0
  184.2260  179.0000  142.1070 C   0  0  0  0  0  2  0  0  0  0  0  0
  185.9520  178.5200  145.5360 C   0  0  0  0  0  1  0  0  0  0  0  0
  184.9240  178.8790  144.5250 C   0  0  0  0  0  0  0  0  0  0  0  0
  185.1860  178.6470  143.1410 N   0  0  0  0  0  2  0  0  0  0  0  0
  183.8260  179.3760  144.8980 O   0  0  0  0  0  0  0  0  0  0  0  0
  181.8630  179.1720  137.5420 C   0  0  1  0  0  3  0  0  0  0  0  0
  180.6800  178.2950  137.2530 C   0  0  0  0  0  0  0  0  0  0  0  0
  180.7090  177.4670  136.3000 O   0  0  0  0  0  0  0  0  0  0  0  0
  179.5460  178.3880  138.0510 O   0  0  0  0  0  1  0  0  0  0  0  0
  182.2930  181.3750  138.7200 C   0  0  0  0  0  1  0  0  0  0  0  0
  181.4320  180.6340  137.7210 C   0  0  0  0  0  2  0  0  0  0  0  0
  1  5  1  0  0  0  0
  2 14  1  0  0  0  0
  3 10  1  0  0  0  0
  3  1  2  0  0  0  0
  4 13  2  0  0  0  0
  5  8  2  0  0  0  0
  6  3  1  0  0  0  0
  8 12  1  0  0  0  0
  9  8  1  0  0  0  0
  9  2  1  0  0  0  0
 10  9  2  0  0  0  0
 11 18  1  1  0  0  0
 12 25  1  6  0  0  0
 12 11  1  0  0  0  0
 13  7  1  0  0  0  0
 13  2  1  0  0  0  0
 14 11  1  0  0  0  0
 15 16  1  0  0  0  0
 17 15  2  0  0  0  0
 18 19  1  0  0  0  0
 18 15  1  0  0  0  0
 19 20  1  0  0  0  0
 20 23  1  0  0  0  0
 22 24  2  0  0  0  0
 22 21  1  0  0  0  0
 23 22  1  0  0  0  0
 25 30  1  1  0  0  0
 26 25  1  0  0  0  0
 26 28  1  0  0  0  0
 27 26  2  0  0  0  0
 30 29  1  0  0  0  0
M  END
>  <MODEL>
8

>  <REMARK>
 VINA RESULT:      -4.3      5.731      8.178
  Name = 
  7 active torsions:
  status: ('A' for Active; 'I' for Inactive)
    1  A    between atoms: C_2  and  C_30
    2  A    between atoms: N_15  and  C_27
    3  A    between atoms: C_21  and  N_28
    4  A    between atoms: C_22  and  C_30
    5  A    between atoms: C_23  and  C_27
    6  A    between atoms: C_23  and  N_28
    7  A    between atoms: C_24  and  C_30
                            x       y       z     vdW  Elec       q    Type
                         _______ _______ _______ _____ _____    ______ ____

>  <TORSDO>
F 7

$$$$
=
 OpenBabel11062413263D

 30 31  0  0  1  0  0  0  0  0999 V2000
  189.1630  177.3280  140.4860 N   0  0  0  0  0  0  0  0  0  0  0  0
  191.1660  175.4400  137.3220 N   0  0  0  0  0  0  0  0  0  0  0  0
  190.5050  177.1280  140.5900 C   0  0  0  0  0  0  0  0  0  0  0  0
  193.2300  176.7510  137.4950 O   0  0  0  0  0  1  0  0  0  0  0  0
  188.4710  176.9660  139.3700 C   0  0  0  0  0  3  0  0  0  0  0  0
  191.1890  177.5030  141.7760 N   0  0  0  0  0  1  0  0  0  0  0  0
  193.1050  174.9310  136.1240 O   0  0  0  0  0  0  0  0  0  0  0  0
  189.1390  176.3700  138.2990 C   0  0  0  0  0  0  0  0  0  0  0  0
  190.5180  176.1500  138.3850 C   0  0  0  0  0  0  0  0  0  0  0  0
  191.2070  176.5220  139.5460 C   0  0  0  0  0  3  0  0  0  0  0  0
  188.9510  174.7220  136.3970 C   0  0  1  0  0  3  0  0  0  0  0  0
  188.4080  176.0250  137.0320 C   0  0  2  0  0  3  0  0  0  0  0  0
  192.5320  175.6800  136.9570 C   0  0  0  0  0  0  0  0  0  0  0  0
  190.4240  174.3620  136.6740 C   0  0  0  0  0  2  0  0  0  0  0  0
  188.2600  172.3670  135.9100 C   0  0  0  0  0  0  0  0  0  0  0  0
  187.4870  171.3860  136.0740 O   0  0  0  0  0  1  0  0  0  0  0  0
  189.3090  172.2590  134.9980 O   0  0  0  0  0  0  0  0  0  0  0  0
  188.0720  173.5820  136.6610 N   0  0  0  0  0  0  0  0  0  0  0  0
  186.9510  173.7170  137.5960 C   0  0  0  0  0  2  0  0  0  0  0  0
  185.6410  173.9020  136.8470 C   0  0  0  0  0  2  0  0  0  0  0  0
  182.9910  171.0850  136.7750 C   0  0  0  0  0  1  0  0  0  0  0  0
  183.9650  172.1010  136.3020 C   0  0  0  0  0  0  0  0  0  0  0  0
  184.6910  172.8790  137.2540 N   0  0  0  0  0  2  0  0  0  0  0  0
  184.1510  172.2610  135.0640 O   0  0  0  0  0  0  0  0  0  0  0  0
  188.4560  177.1860  136.0230 C   0  0  1  0  0  3  0  0  0  0  0  0
  187.1040  177.7690  135.7270 C   0  0  0  0  0  0  0  0  0  0  0  0
  186.8520  178.2670  134.5940 O   0  0  0  0  0  0  0  0  0  0  0  0
  186.1190  177.7470  136.7060 O   0  0  0  0  0  1  0  0  0  0  0  0
  188.8170  179.3930  137.2140 C   0  0  0  0  0  1  0  0  0  0  0  0
  189.4550  178.2850  136.4060 C   0  0  0  0  0  2  0  0  0  0  0  0
  1  3  1  0  0  0  0
  2  9  1  0  0  0  0
  3  6  1  0  0  0  0
  5  1  2  0  0  0  0
  7 13  2  0  0  0  0
  8  9  2  0  0  0  0
  8  5  1  0  0  0  0
  9 10  1  0  0  0  0
 10  3  2  0  0  0  0
 11 18  1  1  0  0  0
 11 14  1  0  0  0  0
 11 12  1  0  0  0  0
 12 25  1  6  0  0  0
 12  8  1  0  0  0  0
 13  2  1  0  0  0  0
 13  4  1  0  0  0  0
 14  2  1  0  0  0  0
 15 16  1  0  0  0  0
 15 18  1  0  0  0  0
 17 15  2  0  0  0  0
 18 19  1  0  0  0  0
 20 23  1  0  0  0  0
 20 19  1  0  0  0  0
 22 21  1  0  0  0  0
 22 23  1  0  0  0  0
 24 22  2  0  0  0  0
 25 30  1  1  0  0  0
 26 25  1  0  0  0  0
 26 28  1  0  0  0  0
 27 26  2  0  0  0  0
 30 29  1  0  0  0  0
M  END
>  <MODEL>
9

>  <REMARK>
 VINA RESULT:      -3.6      2.712      6.893
  Name = 
  7 active torsions:
  status: ('A' for Active; 'I' for Inactive)
    1  A    between atoms: C_2  and  C_30
    2  A    between atoms: N_15  and  C_27
    3  A    between atoms: C_21  and  N_28
    4  A    between atoms: C_22  and  C_30
    5  A    between atoms: C_23  and  C_27
    6  A    between atoms: C_23  and  N_28
    7  A    between atoms: C_24  and  C_30
                            x       y       z     vdW  Elec       q    Type
                         _______ _______ _______ _____ _____    ______ ____

>  <TORSDO>
F 7

$$$$
