=
 OpenBabel11062415573D

 41 44  0  0  1  0  0  0  0  0999 V2000
  187.4530  177.5740  146.3840 C   0  0  0  0  0  0  0  0  0  0  0  0
  187.9150  178.0330  147.5020 N   0  0  0  0  0  2  0  0  0  0  0  0
  190.4150  177.4510  143.9430 C   0  0  2  0  0  3  0  0  0  0  0  0
  190.1200  177.5330  141.9150 C   0  0  2  0  0  3  0  0  0  0  0  0
  189.4460  178.0560  144.9660 C   0  0  0  0  0  2  0  0  0  0  0  0
  187.6730  176.5950  144.1760 N   0  0  0  0  0  0  0  0  0  0  0  0
  190.7080  178.4330  142.9060 N   0  0  0  0  0  2  0  0  0  0  0  0
  189.7860  176.4730  142.9410 C   0  0  2  0  0  3  0  0  0  0  0  0
  188.3940  177.0240  145.3530 C   0  0  2  0  0  3  0  0  0  0  0  0
  188.2850  176.3370  143.0710 C   0  0  0  0  0  3  0  0  0  0  0  0
  191.2010  177.0260  140.9740 C   0  0  0  0  0  2  0  0  0  0  0  0
  190.8070  177.2910  139.5240 C   0  0  1  0  0  3  0  0  0  0  0  0
  193.1310  176.2970  136.8500 C   0  0  0  0  0  2  0  0  0  0  0  0
  190.7590  176.2570  137.2420 C   0  0  0  0  0  2  0  0  0  0  0  0
  191.8230  175.7960  136.2750 C   0  0  0  0  0  2  0  0  0  0  0  0
  192.8940  176.5290  138.3330 C   0  0  0  0  0  2  0  0  0  0  0  0
  191.4240  176.2390  138.6020 C   0  0  0  0  0  3  0  0  0  0  0  0
  189.3540  177.2530  139.4050 N   0  0  0  0  0  2  0  0  0  0  0  0
  189.1270  179.3530  138.3940 O   0  0  0  0  0  0  0  0  0  0  0  0
  188.5730  178.3250  138.8690 C   0  0  0  0  0  0  0  0  0  0  0  0
  187.1530  178.2220  138.8580 N   0  0  0  0  0  1  0  0  0  0  0  0
  186.0720  177.5620  146.1750 O   0  0  0  0  0  0  0  0  0  0  0  0
  185.3340  178.7510  145.9360 C   0  0  0  0  0  2  0  0  0  0  0  0
  184.4080  178.5420  144.7540 C   0  0  0  0  0  2  0  0  0  0  0  0
  184.5380  179.7140  143.8020 C   0  0  0  0  0  2  0  0  0  0  0  0
  184.2870  179.2710  142.4390 N   0  0  0  0  0  0  0  0  0  0  0  0
  186.5330  178.9940  141.8760 O   0  0  0  0  0  1  0  0  0  0  0  0
  185.3350  178.3170  142.1170 C   0  0  0  0  0  2  0  0  0  0  0  0
  183.0310  178.5330  142.4580 C   0  0  0  0  0  2  0  0  0  0  0  0
  180.7390  177.4430  140.4040 C   0  0  0  0  0  3  0  0  0  0  0  0
  179.8880  177.3140  141.6030 C   0  0  0  0  0  3  0  0  0  0  0  0
  182.0080  179.2220  141.5660 C   0  0  2  0  0  3  0  0  0  0  0  0
  179.9000  178.2640  142.5420 C   0  0  0  0  0  3  0  0  0  0  0  0
  180.7210  179.5150  142.3530 C   0  0  0  0  0  2  0  0  0  0  0  0
  181.7120  178.3650  140.3530 C   0  0  0  0  0  0  0  0  0  0  0  0
  182.4860  178.5360  139.0760 C   0  0  1  0  0  3  0  0  0  0  0  0
  184.2380  180.1740  139.2060 O   0  0  0  0  0  0  0  0  0  0  0  0
  183.0260  179.9280  138.9550 C   0  0  0  0  0  0  0  0  0  0  0  0
  182.1590  180.9850  138.5570 N   0  0  0  0  0  1  0  0  0  0  0  0
  183.5990  177.5040  138.9230 C   0  0  0  0  0  2  0  0  0  0  0  0
  183.9440  177.3450  137.5210 N   0  0  0  0  0  1  0  0  0  0  0  0
  1  2  2  0  0  0  0
  3  5  1  1  0  0  0
  4 11  1  6  0  0  0
  4  7  1  0  0  0  0
  4  8  1  0  0  0  0
  5  9  1  0  0  0  0
  6  9  1  0  0  0  0
  7  3  1  0  0  0  0
  8 10  1  1  0  0  0
  8  3  1  0  0  0  0
  9  1  1  1  0  0  0
 10  6  2  0  0  0  0
 12 11  1  1  0  0  0
 13 16  1  0  0  0  0
 14 17  1  0  0  0  0
 15 13  1  0  0  0  0
 15 14  1  0  0  0  0
 16 17  1  0  0  0  0
 17 12  1  0  0  0  0
 18 12  1  0  0  0  0
 19 20  2  0  0  0  0
 20 18  1  0  0  0  0
 21 20  1  0  0  0  0
 22  1  1  0  0  0  0
 23 22  1  0  0  0  0
 24 23  1  0  0  0  0
 25 24  1  0  0  0  0
 26 29  1  0  0  0  0
 26 25  1  0  0  0  0
 27 28  1  0  0  0  0
 28 26  1  0  0  0  0
 30 31  1  0  0  0  0
 31 33  2  0  0  0  0
 32 34  1  0  0  0  0
 32 29  1  1  0  0  0
 34 33  1  0  0  0  0
 35 30  2  0  0  0  0
 35 32  1  0  0  0  0
 36 40  1  1  0  0  0
 36 35  1  0  0  0  0
 38 36  1  0  0  0  0
 38 37  2  0  0  0  0
 39 38  1  0  0  0  0
 41 40  1  0  0  0  0
M  END
>  <MODEL>
1

>  <REMARK>
 VINA RESULT:      -7.4      0.000      0.000
  Name = 
  16 active torsions:
  status: ('A' for Active; 'I' for Inactive)
    1  A    between atoms: N_3  and  C_24
    2  A    between atoms: N_3  and  C_38
    3  A    between atoms: N_3  and  C_41
    4  A    between atoms: N_5  and  C_9
    5  A    between atoms: C_6  and  C_11
    6  A    between atoms: C_6  and  O_37
    7  A    between atoms: C_7  and  C_29
    8  A    between atoms: C_9  and  C_30
    9  A    between atoms: C_9  and  C_32
   10  A    between atoms: C_10  and  C_30
   11  A    between atoms: C_11  and  C_24
   12  A    between atoms: C_16  and  C_38
   13  A    between atoms: C_25  and  C_29
   14  A    between atoms: C_29  and  C_35
   15  A    between atoms: C_33  and  C_36
   16  A    between atoms: C_36  and  O_37
                            x       y       z     vdW  Elec       q    Type
                         _______ _______ _______ _____ _____    ______ ____

>  <TORSDO>
F 16

$$$$
=
 OpenBabel11062415573D

 41 44  0  0  1  0  0  0  0  0999 V2000
  191.3810  176.3700  138.9950 C   0  0  0  0  0  0  0  0  0  0  0  0
  192.5240  176.6620  138.4650 N   0  0  0  0  0  2  0  0  0  0  0  0
  191.2720  178.2570  142.3390 C   0  0  2  0  0  3  0  0  0  0  0  0
  190.1630  177.5550  143.9140 C   0  0  2  0  0  3  0  0  0  0  0  0
  191.8450  177.3560  141.2380 C   0  0  0  0  0  2  0  0  0  0  0  0
  189.6020  176.6550  140.6200 N   0  0  0  0  0  0  0  0  0  0  0  0
  191.5930  177.6960  143.6450 N   0  0  0  0  0  2  0  0  0  0  0  0
  189.7610  178.1270  142.5730 C   0  0  2  0  0  3  0  0  0  0  0  0
  190.8320  177.2150  140.1080 C   0  0  2  0  0  3  0  0  0  0  0  0
  189.0960  177.0560  141.7360 C   0  0  0  0  0  3  0  0  0  0  0  0
  189.7520  178.5030  145.0300 C   0  0  0  0  0  2  0  0  0  0  0  0
  189.5600  177.7350  146.3340 C   0  0  1  0  0  3  0  0  0  0  0  0
  185.9870  178.1830  145.5790 C   0  0  0  0  0  2  0  0  0  0  0  0
  187.4180  178.2920  147.5070 C   0  0  0  0  0  2  0  0  0  0  0  0
  185.9690  178.3390  147.0850 C   0  0  0  0  0  2  0  0  0  0  0  0
  187.3060  177.5180  145.2260 C   0  0  0  0  0  2  0  0  0  0  0  0
  188.0900  177.3600  146.5210 C   0  0  0  0  0  3  0  0  0  0  0  0
  190.3730  176.5240  146.3030 N   0  0  0  0  0  2  0  0  0  0  0  0
  191.8830  177.1900  147.9640 O   0  0  0  0  0  0  0  0  0  0  0  0
  191.5370  176.3280  147.1110 C   0  0  0  0  0  0  0  0  0  0  0  0
  192.3050  175.1400  146.9600 N   0  0  0  0  0  1  0  0  0  0  0  0
  190.6540  175.2910  138.4890 O   0  0  0  0  0  0  0  0  0  0  0  0
  191.1000  174.5370  137.3720 C   0  0  0  0  0  2  0  0  0  0  0  0
  190.1670  174.7700  136.2000 C   0  0  0  0  0  2  0  0  0  0  0  0
  188.9250  173.9180  136.3710 C   0  0  0  0  0  2  0  0  0  0  0  0
  187.7470  174.6860  135.9940 N   0  0  0  0  0  0  0  0  0  0  0  0
  186.9800  172.5390  136.4880 O   0  0  0  0  0  1  0  0  0  0  0  0
  186.6680  173.7270  135.8220 C   0  0  0  0  0  2  0  0  0  0  0  0
  187.3980  175.5160  137.1390 C   0  0  0  0  0  2  0  0  0  0  0  0
  187.4850  178.5760  138.2760 C   0  0  0  0  0  3  0  0  0  0  0  0
  188.7660  178.6870  137.5520 C   0  0  0  0  0  3  0  0  0  0  0  0
  186.7920  176.8290  136.6650 C   0  0  2  0  0  3  0  0  0  0  0  0
  188.8970  178.1590  136.3310 C   0  0  0  0  0  3  0  0  0  0  0  0
  187.7180  177.5120  135.6480 C   0  0  0  0  0  2  0  0  0  0  0  0
  186.5290  177.7390  137.8470 C   0  0  0  0  0  0  0  0  0  0  0  0
  185.1990  177.7320  138.5490 C   0  0  1  0  0  3  0  0  0  0  0  0
  184.6440  180.0270  138.9950 O   0  0  0  0  0  0  0  0  0  0  0  0
  185.0560  178.9220  139.4470 C   0  0  0  0  0  0  0  0  0  0  0  0
  185.3960  178.8070  140.8240 N   0  0  0  0  0  1  0  0  0  0  0  0
  184.0260  177.6380  137.5780 C   0  0  0  0  0  2  0  0  0  0  0  0
  182.8270  177.2150  138.2820 N   0  0  0  0  0  1  0  0  0  0  0  0
  2  1  2  0  0  0  0
  3  5  1  6  0  0  0
  3  8  1  0  0  0  0
  3  7  1  0  0  0  0
  4 11  1  1  0  0  0
  6 10  2  0  0  0  0
  7  4  1  0  0  0  0
  8 10  1  6  0  0  0
  8  4  1  0  0  0  0
  9  1  1  6  0  0  0
  9  6  1  0  0  0  0
  9  5  1  0  0  0  0
 12 11  1  6  0  0  0
 12 17  1  0  0  0  0
 13 15  1  0  0  0  0
 15 14  1  0  0  0  0
 16 13  1  0  0  0  0
 16 17  1  0  0  0  0
 17 14  1  0  0  0  0
 18 12  1  0  0  0  0
 18 20  1  0  0  0  0
 20 19  2  0  0  0  0
 21 20  1  0  0  0  0
 22  1  1  0  0  0  0
 23 22  1  0  0  0  0
 24 25  1  0  0  0  0
 24 23  1  0  0  0  0
 26 25  1  0  0  0  0
 26 29  1  0  0  0  0
 28 26  1  0  0  0  0
 28 27  1  0  0  0  0
 31 30  1  0  0  0  0
 32 29  1  1  0  0  0
 32 35  1  0  0  0  0
 33 31  2  0  0  0  0
 34 33  1  0  0  0  0
 34 32  1  0  0  0  0
 35 30  2  0  0  0  0
 35 36  1  0  0  0  0
 36 40  1  6  0  0  0
 36 38  1  0  0  0  0
 37 38  2  0  0  0  0
 38 39  1  0  0  0  0
 40 41  1  0  0  0  0
M  END
>  <MODEL>
2

>  <REMARK>
 VINA RESULT:      -7.0      2.872      7.681
  Name = 
  16 active torsions:
  status: ('A' for Active; 'I' for Inactive)
    1  A    between atoms: N_3  and  C_24
    2  A    between atoms: N_3  and  C_38
    3  A    between atoms: N_3  and  C_41
    4  A    between atoms: N_5  and  C_9
    5  A    between atoms: C_6  and  C_11
    6  A    between atoms: C_6  and  O_37
    7  A    between atoms: C_7  and  C_29
    8  A    between atoms: C_9  and  C_30
    9  A    between atoms: C_9  and  C_32
   10  A    between atoms: C_10  and  C_30
   11  A    between atoms: C_11  and  C_24
   12  A    between atoms: C_16  and  C_38
   13  A    between atoms: C_25  and  C_29
   14  A    between atoms: C_29  and  C_35
   15  A    between atoms: C_33  and  C_36
   16  A    between atoms: C_36  and  O_37
                            x       y       z     vdW  Elec       q    Type
                         _______ _______ _______ _____ _____    ______ ____

>  <TORSDO>
F 16

$$$$
=
 OpenBabel11062415573D

 41 44  0  0  1  0  0  0  0  0999 V2000
  188.9300  177.6590  137.5990 C   0  0  0  0  0  0  0  0  0  0  0  0
  188.9320  178.5110  136.6260 N   0  0  0  0  0  2  0  0  0  0  0  0
  189.6340  177.6710  141.3740 C   0  0  2  0  0  3  0  0  0  0  0  0
  188.1310  177.3510  142.7320 C   0  0  2  0  0  3  0  0  0  0  0  0
  189.6080  177.1310  139.9390 C   0  0  0  0  0  2  0  0  0  0  0  0
  187.5880  178.4000  139.4790 N   0  0  0  0  0  0  0  0  0  0  0  0
  189.3090  176.5980  142.3060 N   0  0  0  0  0  2  0  0  0  0  0  0
  188.4080  178.4970  141.7860 C   0  0  2  0  0  3  0  0  0  0  0  0
  188.9340  178.1420  139.0200 C   0  0  2  0  0  3  0  0  0  0  0  0
  187.3270  178.5660  140.7310 C   0  0  0  0  0  3  0  0  0  0  0  0
  188.3040  177.8070  144.1720 C   0  0  0  0  0  2  0  0  0  0  0  0
  187.0620  177.4660  144.9890 C   0  0  1  0  0  3  0  0  0  0  0  0
  187.9970  178.5160  148.3900 C   0  0  0  0  0  2  0  0  0  0  0  0
  188.9460  177.1960  146.6180 C   0  0  0  0  0  2  0  0  0  0  0  0
  189.1580  177.6030  148.0560 C   0  0  0  0  0  2  0  0  0  0  0  0
  186.8930  178.1950  147.3960 C   0  0  0  0  0  2  0  0  0  0  0  0
  187.4440  177.1510  146.4350 C   0  0  0  0  0  3  0  0  0  0  0  0
  186.1420  178.5970  144.9610 N   0  0  0  0  0  2  0  0  0  0  0  0
  184.8290  177.8140  143.1870 O   0  0  0  0  0  0  0  0  0  0  0  0
  185.0750  178.7310  144.0180 C   0  0  0  0  0  0  0  0  0  0  0  0
  184.2720  179.9060  144.0270 N   0  0  0  0  0  1  0  0  0  0  0  0
  188.8800  176.2950  137.3050 O   0  0  0  0  0  0  0  0  0  0  0  0
  187.9120  175.7470  136.4240 C   0  0  0  0  0  2  0  0  0  0  0  0
  186.5300  175.9100  137.0250 C   0  0  0  0  0  2  0  0  0  0  0  0
  185.6880  174.6960  136.6830 C   0  0  0  0  0  2  0  0  0  0  0  0
  184.2890  175.0830  136.5760 N   0  0  0  0  0  0  0  0  0  0  0  0
  183.3280  173.0160  137.0690 O   0  0  0  0  0  1  0  0  0  0  0  0
  183.5820  173.9300  136.0440 C   0  0  0  0  0  2  0  0  0  0  0  0
  183.8020  175.2900  137.9340 C   0  0  0  0  0  2  0  0  0  0  0  0
  182.6220  177.3170  140.2060 C   0  0  0  0  0  3  0  0  0  0  0  0
  183.7270  178.2150  139.8160 C   0  0  0  0  0  3  0  0  0  0  0  0
  182.6940  176.3340  137.9360 C   0  0  2  0  0  3  0  0  0  0  0  0
  184.0450  178.3680  138.5270 C   0  0  0  0  0  3  0  0  0  0  0  0
  183.2320  177.6900  137.4530 C   0  0  0  0  0  2  0  0  0  0  0  0
  182.0960  176.4570  139.3220 C   0  0  0  0  0  0  0  0  0  0  0  0
  180.9030  175.6360  139.7260 C   0  0  1  0  0  3  0  0  0  0  0  0
  179.3970  176.4020  141.4330 O   0  0  0  0  0  0  0  0  0  0  0  0
  179.7980  176.5050  140.2410 C   0  0  0  0  0  0  0  0  0  0  0  0
  179.1870  177.4530  139.3710 N   0  0  0  0  0  1  0  0  0  0  0  0
  180.4070  174.7320  138.6020 C   0  0  0  0  0  2  0  0  0  0  0  0
  179.6120  173.6450  139.1470 N   0  0  0  0  0  1  0  0  0  0  0  0
  2  1  2  0  0  0  0
  3  5  1  6  0  0  0
  3  8  1  0  0  0  0
  3  7  1  0  0  0  0
  4 11  1  1  0  0  0
  6 10  2  0  0  0  0
  7  4  1  0  0  0  0
  8 10  1  6  0  0  0
  8  4  1  0  0  0  0
  9  1  1  6  0  0  0
  9  6  1  0  0  0  0
  9  5  1  0  0  0  0
 12 11  1  6  0  0  0
 12 17  1  0  0  0  0
 14 15  1  0  0  0  0
 15 13  1  0  0  0  0
 16 13  1  0  0  0  0
 17 14  1  0  0  0  0
 17 16  1  0  0  0  0
 18 12  1  0  0  0  0
 19 20  2  0  0  0  0
 20 21  1  0  0  0  0
 20 18  1  0  0  0  0
 22  1  1  0  0  0  0
 23 24  1  0  0  0  0
 23 22  1  0  0  0  0
 25 24  1  0  0  0  0
 26 25  1  0  0  0  0
 26 29  1  0  0  0  0
 28 26  1  0  0  0  0
 28 27  1  0  0  0  0
 31 30  1  0  0  0  0
 32 29  1  1  0  0  0
 32 35  1  0  0  0  0
 33 31  2  0  0  0  0
 34 32  1  0  0  0  0
 34 33  1  0  0  0  0
 35 36  1  0  0  0  0
 35 30  2  0  0  0  0
 36 40  1  6  0  0  0
 36 38  1  0  0  0  0
 38 37  2  0  0  0  0
 39 38  1  0  0  0  0
 40 41  1  0  0  0  0
M  END
>  <MODEL>
3

>  <REMARK>
 VINA RESULT:      -7.0      2.856      6.955
  Name = 
  16 active torsions:
  status: ('A' for Active; 'I' for Inactive)
    1  A    between atoms: N_3  and  C_24
    2  A    between atoms: N_3  and  C_38
    3  A    between atoms: N_3  and  C_41
    4  A    between atoms: N_5  and  C_9
    5  A    between atoms: C_6  and  C_11
    6  A    between atoms: C_6  and  O_37
    7  A    between atoms: C_7  and  C_29
    8  A    between atoms: C_9  and  C_30
    9  A    between atoms: C_9  and  C_32
   10  A    between atoms: C_10  and  C_30
   11  A    between atoms: C_11  and  C_24
   12  A    between atoms: C_16  and  C_38
   13  A    between atoms: C_25  and  C_29
   14  A    between atoms: C_29  and  C_35
   15  A    between atoms: C_33  and  C_36
   16  A    between atoms: C_36  and  O_37
                            x       y       z     vdW  Elec       q    Type
                         _______ _______ _______ _____ _____    ______ ____

>  <TORSDO>
F 16

$$$$
=
 OpenBabel11062415573D

 41 44  0  0  1  0  0  0  0  0999 V2000
  181.7900  178.6410  141.5850 C   0  0  0  0  0  0  0  0  0  0  0  0
  180.8380  177.7800  141.4180 N   0  0  0  0  0  2  0  0  0  0  0  0
  183.4350  178.3760  138.1250 C   0  0  2  0  0  3  0  0  0  0  0  0
  185.2540  177.4580  137.8850 C   0  0  2  0  0  3  0  0  0  0  0  0
  182.4590  178.0400  139.2600 C   0  0  0  0  0  2  0  0  0  0  0  0
  184.1170  178.7090  140.9050 N   0  0  0  0  0  0  0  0  0  0  0  0
  183.8830  177.1450  137.4850 N   0  0  0  0  0  2  0  0  0  0  0  0
  184.8560  178.7470  138.5700 C   0  0  2  0  0  3  0  0  0  0  0  0
  182.7550  178.9180  140.4700 C   0  0  2  0  0  3  0  0  0  0  0  0
  185.0870  178.6300  140.0600 C   0  0  0  0  0  3  0  0  0  0  0  0
  186.0940  177.7580  136.6540 C   0  0  0  0  0  2  0  0  0  0  0  0
  187.3020  176.8290  136.5990 C   0  0  1  0  0  3  0  0  0  0  0  0
  190.8160  176.7860  137.6910 C   0  0  0  0  0  2  0  0  0  0  0  0
  188.6550  177.1310  138.6860 C   0  0  0  0  0  2  0  0  0  0  0  0
  190.1340  177.1940  138.9810 C   0  0  0  0  0  2  0  0  0  0  0  0
  189.8150  177.0290  136.5740 C   0  0  0  0  0  2  0  0  0  0  0  0
  188.5230  177.5030  137.2250 C   0  0  0  0  0  3  0  0  0  0  0  0
  186.9980  175.6000  137.3220 N   0  0  0  0  0  2  0  0  0  0  0  0
  186.6010  174.2820  135.4280 O   0  0  0  0  0  0  0  0  0  0  0  0
  186.6200  174.3760  136.6850 C   0  0  0  0  0  0  0  0  0  0  0  0
  186.2750  173.2480  137.4810 N   0  0  0  0  0  1  0  0  0  0  0  0
  181.8740  179.3320  142.7950 O   0  0  0  0  0  0  0  0  0  0  0  0
  182.3840  178.7300  143.9750 C   0  0  0  0  0  2  0  0  0  0  0  0
  183.7090  179.3710  144.3370 C   0  0  0  0  0  2  0  0  0  0  0  0
  184.8200  178.3500  144.1810 C   0  0  0  0  0  2  0  0  0  0  0  0
  185.8600  178.6010  145.1660 N   0  0  0  0  0  0  0  0  0  0  0  0
  185.6980  179.3940  147.3530 O   0  0  0  0  0  1  0  0  0  0  0  0
  185.2460  178.4110  146.4700 C   0  0  0  0  0  2  0  0  0  0  0  0
  186.8560  177.5500  145.0080 C   0  0  0  0  0  2  0  0  0  0  0  0
  189.7620  176.2700  144.2450 C   0  0  0  0  0  3  0  0  0  0  0  0
  189.1620  175.9830  142.9280 C   0  0  0  0  0  3  0  0  0  0  0  0
  188.1640  178.1420  144.5020 C   0  0  2  0  0  3  0  0  0  0  0  0
  188.3740  176.8860  142.3360 C   0  0  0  0  0  3  0  0  0  0  0  0
  188.1530  178.2370  142.9690 C   0  0  0  0  0  2  0  0  0  0  0  0
  189.3340  177.3080  144.9790 C   0  0  0  0  0  0  0  0  0  0  0  0
  190.0410  177.6300  146.2660 C   0  0  1  0  0  3  0  0  0  0  0  0
  188.8900  178.6140  148.1300 O   0  0  0  0  0  0  0  0  0  0  0  0
  189.0970  177.5870  147.4270 C   0  0  0  0  0  0  0  0  0  0  0  0
  188.4320  176.3690  147.7460 N   0  0  0  0  0  1  0  0  0  0  0  0
  191.2490  176.7300  146.5120 C   0  0  0  0  0  2  0  0  0  0  0  0
  191.8130  176.9970  147.8240 N   0  0  0  0  0  1  0  0  0  0  0  0
  1 22  1  0  0  0  0
  2  1  2  0  0  0  0
  3  8  1  0  0  0  0
  3  5  1  1  0  0  0
  4 11  1  6  0  0  0
  4  8  1  0  0  0  0
  5  9  1  0  0  0  0
  7  4  1  0  0  0  0
  7  3  1  0  0  0  0
  8 10  1  1  0  0  0
  9  6  1  0  0  0  0
  9  1  1  1  0  0  0
 10  6  2  0  0  0  0
 12 11  1  1  0  0  0
 12 17  1  0  0  0  0
 12 18  1  0  0  0  0
 13 15  1  0  0  0  0
 14 15  1  0  0  0  0
 16 17  1  0  0  0  0
 16 13  1  0  0  0  0
 17 14  1  0  0  0  0
 19 20  2  0  0  0  0
 20 18  1  0  0  0  0
 20 21  1  0  0  0  0
 22 23  1  0  0  0  0
 23 24  1  0  0  0  0
 25 24  1  0  0  0  0
 25 26  1  0  0  0  0
 26 28  1  0  0  0  0
 28 27  1  0  0  0  0
 29 26  1  0  0  0  0
 30 35  2  0  0  0  0
 31 30  1  0  0  0  0
 32 35  1  0  0  0  0
 32 29  1  6  0  0  0
 33 31  2  0  0  0  0
 33 34  1  0  0  0  0
 34 32  1  0  0  0  0
 35 36  1  0  0  0  0
 36 40  1  1  0  0  0
 36 38  1  0  0  0  0
 38 39  1  0  0  0  0
 38 37  2  0  0  0  0
 40 41  1  0  0  0  0
M  END
>  <MODEL>
4

>  <REMARK>
 VINA RESULT:      -6.9      2.465      7.228
  Name = 
  16 active torsions:
  status: ('A' for Active; 'I' for Inactive)
    1  A    between atoms: N_3  and  C_24
    2  A    between atoms: N_3  and  C_38
    3  A    between atoms: N_3  and  C_41
    4  A    between atoms: N_5  and  C_9
    5  A    between atoms: C_6  and  C_11
    6  A    between atoms: C_6  and  O_37
    7  A    between atoms: C_7  and  C_29
    8  A    between atoms: C_9  and  C_30
    9  A    between atoms: C_9  and  C_32
   10  A    between atoms: C_10  and  C_30
   11  A    between atoms: C_11  and  C_24
   12  A    between atoms: C_16  and  C_38
   13  A    between atoms: C_25  and  C_29
   14  A    between atoms: C_29  and  C_35
   15  A    between atoms: C_33  and  C_36
   16  A    between atoms: C_36  and  O_37
                            x       y       z     vdW  Elec       q    Type
                         _______ _______ _______ _____ _____    ______ ____

>  <TORSDO>
F 16

$$$$
=
 OpenBabel11062415573D

 41 44  0  0  1  0  0  0  0  0999 V2000
  184.8860  179.0070  139.5330 C   0  0  0  0  0  0  0  0  0  0  0  0
  184.1730  180.0640  139.3140 N   0  0  0  0  0  2  0  0  0  0  0  0
  187.2040  177.5860  136.8210 C   0  0  2  0  0  3  0  0  0  0  0  0
  188.6350  176.1890  137.2770 C   0  0  2  0  0  3  0  0  0  0  0  0
  185.9120  177.7700  137.6270 C   0  0  0  0  0  2  0  0  0  0  0  0
  187.2070  178.3080  139.6120 N   0  0  0  0  0  0  0  0  0  0  0  0
  187.3890  176.1740  136.5110 N   0  0  0  0  0  2  0  0  0  0  0  0
  188.5020  177.6520  137.6370 C   0  0  2  0  0  3  0  0  0  0  0  0
  186.1450  178.7740  138.7500 C   0  0  2  0  0  3  0  0  0  0  0  0
  188.2880  177.7970  139.1270 C   0  0  0  0  0  3  0  0  0  0  0  0
  189.8170  175.9860  136.3420 C   0  0  0  0  0  2  0  0  0  0  0  0
  190.4620  174.6270  136.5920 C   0  0  1  0  0  3  0  0  0  0  0  0
  193.2510  176.5520  138.0260 C   0  0  0  0  0  2  0  0  0  0  0  0
  192.9520  174.4880  136.8290 C   0  0  0  0  0  2  0  0  0  0  0  0
  193.9870  175.3150  137.5520 C   0  0  0  0  0  2  0  0  0  0  0  0
  191.7760  176.1890  138.0700 C   0  0  0  0  0  2  0  0  0  0  0  0
  191.6480  174.7660  137.5460 C   0  0  0  0  0  3  0  0  0  0  0  0
  189.4730  173.7240  137.1690 N   0  0  0  0  0  2  0  0  0  0  0  0
  188.9420  172.6200  135.1740 O   0  0  0  0  0  0  0  0  0  0  0  0
  188.7240  172.7730  136.4060 C   0  0  0  0  0  0  0  0  0  0  0  0
  187.7310  171.9830  137.0500 N   0  0  0  0  0  1  0  0  0  0  0  0
  184.4890  178.1160  140.5330 O   0  0  0  0  0  0  0  0  0  0  0  0
  184.1360  178.5530  141.8370 C   0  0  0  0  0  2  0  0  0  0  0  0
  185.3910  178.7180  142.6710 C   0  0  0  0  0  2  0  0  0  0  0  0
  185.2680  177.8860  143.9330 C   0  0  0  0  0  2  0  0  0  0  0  0
  186.2970  178.2790  144.8830 N   0  0  0  0  0  0  0  0  0  0  0  0
  185.8530  179.4020  146.8780 O   0  0  0  0  0  1  0  0  0  0  0  0
  185.6940  178.1900  146.2040 C   0  0  0  0  0  2  0  0  0  0  0  0
  187.3390  177.2630  144.8230 C   0  0  0  0  0  2  0  0  0  0  0  0
  190.3760  176.1070  144.4990 C   0  0  0  0  0  3  0  0  0  0  0  0
  190.0440  175.9550  143.0680 C   0  0  0  0  0  3  0  0  0  0  0  0
  188.6990  177.9220  144.6380 C   0  0  2  0  0  3  0  0  0  0  0  0
  189.3520  176.9070  142.4340 C   0  0  0  0  0  3  0  0  0  0  0  0
  188.9730  178.1800  143.1480 C   0  0  0  0  0  2  0  0  0  0  0  0
  189.7850  177.0550  145.2400 C   0  0  0  0  0  0  0  0  0  0  0  0
  190.2280  177.2470  146.6640 C   0  0  1  0  0  3  0  0  0  0  0  0
  188.2910  176.2960  147.7190 O   0  0  0  0  0  0  0  0  0  0  0  0
  189.0550  177.2930  147.5930 C   0  0  0  0  0  0  0  0  0  0  0  0
  188.7960  178.4780  148.3380 N   0  0  0  0  0  1  0  0  0  0  0  0
  191.2360  176.1920  147.1110 C   0  0  0  0  0  2  0  0  0  0  0  0
  192.2150  176.7830  148.0070 N   0  0  0  0  0  1  0  0  0  0  0  0
  1 22  1  0  0  0  0
  2  1  2  0  0  0  0
  3  5  1  1  0  0  0
  3  8  1  0  0  0  0
  4 11  1  6  0  0  0
  4  8  1  0  0  0  0
  5  9  1  0  0  0  0
  7  3  1  0  0  0  0
  7  4  1  0  0  0  0
  8 10  1  1  0  0  0
  9  1  1  1  0  0  0
  9  6  1  0  0  0  0
 10  6  2  0  0  0  0
 12 11  1  1  0  0  0
 12 18  1  0  0  0  0
 12 17  1  0  0  0  0
 13 16  1  0  0  0  0
 14 17  1  0  0  0  0
 14 15  1  0  0  0  0
 15 13  1  0  0  0  0
 17 16  1  0  0  0  0
 19 20  2  0  0  0  0
 20 21  1  0  0  0  0
 20 18  1  0  0  0  0
 22 23  1  0  0  0  0
 23 24  1  0  0  0  0
 24 25  1  0  0  0  0
 25 26  1  0  0  0  0
 26 28  1  0  0  0  0
 28 27  1  0  0  0  0
 29 26  1  0  0  0  0
 30 35  2  0  0  0  0
 31 30  1  0  0  0  0
 32 29  1  6  0  0  0
 32 35  1  0  0  0  0
 33 31  2  0  0  0  0
 33 34  1  0  0  0  0
 34 32  1  0  0  0  0
 35 36  1  0  0  0  0
 36 40  1  1  0  0  0
 36 38  1  0  0  0  0
 38 37  2  0  0  0  0
 38 39  1  0  0  0  0
 40 41  1  0  0  0  0
M  END
>  <MODEL>
5

>  <REMARK>
 VINA RESULT:      -6.7      2.549      7.242
  Name = 
  16 active torsions:
  status: ('A' for Active; 'I' for Inactive)
    1  A    between atoms: N_3  and  C_24
    2  A    between atoms: N_3  and  C_38
    3  A    between atoms: N_3  and  C_41
    4  A    between atoms: N_5  and  C_9
    5  A    between atoms: C_6  and  C_11
    6  A    between atoms: C_6  and  O_37
    7  A    between atoms: C_7  and  C_29
    8  A    between atoms: C_9  and  C_30
    9  A    between atoms: C_9  and  C_32
   10  A    between atoms: C_10  and  C_30
   11  A    between atoms: C_11  and  C_24
   12  A    between atoms: C_16  and  C_38
   13  A    between atoms: C_25  and  C_29
   14  A    between atoms: C_29  and  C_35
   15  A    between atoms: C_33  and  C_36
   16  A    between atoms: C_36  and  O_37
                            x       y       z     vdW  Elec       q    Type
                         _______ _______ _______ _____ _____    ______ ____

>  <TORSDO>
F 16

$$$$
=
 OpenBabel11062415573D

 41 44  0  0  1  0  0  0  0  0999 V2000
  190.6100  176.7810  138.2800 C   0  0  0  0  0  0  0  0  0  0  0  0
  191.7910  176.2640  138.1660 N   0  0  0  0  0  2  0  0  0  0  0  0
  190.2310  177.5090  142.0310 C   0  0  2  0  0  3  0  0  0  0  0  0
  188.3990  177.4070  142.9490 C   0  0  2  0  0  3  0  0  0  0  0  0
  190.5930  176.7120  140.7720 C   0  0  0  0  0  2  0  0  0  0  0  0
  188.8170  177.8210  139.5390 N   0  0  0  0  0  0  0  0  0  0  0  0
  189.6290  176.6190  143.0170 N   0  0  0  0  0  2  0  0  0  0  0  0
  188.9620  178.3650  141.9240 C   0  0  2  0  0  3  0  0  0  0  0  0
  190.2300  177.5180  139.5300 C   0  0  2  0  0  3  0  0  0  0  0  0
  188.2210  178.2100  140.6140 C   0  0  0  0  0  3  0  0  0  0  0  0
  188.1760  178.1270  144.2700 C   0  0  0  0  0  2  0  0  0  0  0  0
  186.9810  177.5260  145.0040 C   0  0  1  0  0  3  0  0  0  0  0  0
  188.0000  178.4680  148.4120 C   0  0  0  0  0  2  0  0  0  0  0  0
  188.8660  177.1370  146.6070 C   0  0  0  0  0  2  0  0  0  0  0  0
  189.1130  177.5070  148.0500 C   0  0  0  0  0  2  0  0  0  0  0  0
  186.8720  178.2180  147.4250 C   0  0  0  0  0  2  0  0  0  0  0  0
  187.3620  177.1670  146.4400 C   0  0  0  0  0  3  0  0  0  0  0  0
  185.8880  178.4920  145.0150 N   0  0  0  0  0  2  0  0  0  0  0  0
  184.9880  177.8810  142.9410 O   0  0  0  0  0  0  0  0  0  0  0  0
  184.9530  178.6450  143.9440 C   0  0  0  0  0  0  0  0  0  0  0  0
  183.9620  179.6640  144.0170 N   0  0  0  0  0  1  0  0  0  0  0  0
  189.7190  176.6760  137.2100 O   0  0  0  0  0  0  0  0  0  0  0  0
  188.7940  175.6060  137.0990 C   0  0  0  0  0  2  0  0  0  0  0  0
  188.5540  175.2940  135.6350 C   0  0  0  0  0  2  0  0  0  0  0  0
  187.7440  176.4140  135.0100 C   0  0  0  0  0  2  0  0  0  0  0  0
  186.9490  177.0760  136.0330 N   0  0  0  0  0  0  0  0  0  0  0  0
  187.3950  179.1910  136.9080 O   0  0  0  0  0  1  0  0  0  0  0  0
  187.0220  178.5010  135.7520 C   0  0  0  0  0  2  0  0  0  0  0  0
  185.5660  176.6720  135.8220 C   0  0  0  0  0  2  0  0  0  0  0  0
  182.5030  176.1630  136.8350 C   0  0  0  0  0  3  0  0  0  0  0  0
  182.6270  174.8450  136.1820 C   0  0  0  0  0  3  0  0  0  0  0  0
  184.9600  176.1850  137.1310 C   0  0  2  0  0  3  0  0  0  0  0  0
  183.7590  174.1430  136.2960 C   0  0  0  0  0  3  0  0  0  0  0  0
  184.8910  174.6510  137.1530 C   0  0  0  0  0  2  0  0  0  0  0  0
  183.5840  176.7870  137.3250 C   0  0  0  0  0  0  0  0  0  0  0  0
  183.4020  178.0770  138.0760 C   0  0  1  0  0  3  0  0  0  0  0  0
  181.0910  178.6030  138.4700 O   0  0  0  0  0  0  0  0  0  0  0  0
  182.1470  178.0540  138.8920 C   0  0  0  0  0  0  0  0  0  0  0  0
  182.1480  177.4120  140.1630 N   0  0  0  0  0  1  0  0  0  0  0  0
  184.6090  178.4260  138.9410 C   0  0  0  0  0  2  0  0  0  0  0  0
  184.6630  179.8600  139.1690 N   0  0  0  0  0  1  0  0  0  0  0  0
  2  1  2  0  0  0  0
  3  5  1  6  0  0  0
  3  7  1  0  0  0  0
  4  7  1  0  0  0  0
  4 11  1  1  0  0  0
  6 10  2  0  0  0  0
  8 10  1  6  0  0  0
  8  3  1  0  0  0  0
  8  4  1  0  0  0  0
  9  1  1  6  0  0  0
  9  6  1  0  0  0  0
  9  5  1  0  0  0  0
 12 11  1  1  0  0  0
 12 18  1  0  0  0  0
 12 17  1  0  0  0  0
 14 15  1  0  0  0  0
 15 13  1  0  0  0  0
 16 13  1  0  0  0  0
 17 14  1  0  0  0  0
 17 16  1  0  0  0  0
 19 20  2  0  0  0  0
 20 21  1  0  0  0  0
 20 18  1  0  0  0  0
 22  1  1  0  0  0  0
 23 22  1  0  0  0  0
 24 23  1  0  0  0  0
 25 24  1  0  0  0  0
 25 26  1  0  0  0  0
 28 26  1  0  0  0  0
 28 27  1  0  0  0  0
 29 26  1  0  0  0  0
 30 35  2  0  0  0  0
 31 33  2  0  0  0  0
 31 30  1  0  0  0  0
 32 29  1  6  0  0  0
 32 34  1  0  0  0  0
 32 35  1  0  0  0  0
 33 34  1  0  0  0  0
 35 36  1  0  0  0  0
 36 38  1  0  0  0  0
 36 40  1  1  0  0  0
 37 38  2  0  0  0  0
 38 39  1  0  0  0  0
 40 41  1  0  0  0  0
M  END
>  <MODEL>
6

>  <REMARK>
 VINA RESULT:      -6.7      2.377      6.991
  Name = 
  16 active torsions:
  status: ('A' for Active; 'I' for Inactive)
    1  A    between atoms: N_3  and  C_24
    2  A    between atoms: N_3  and  C_38
    3  A    between atoms: N_3  and  C_41
    4  A    between atoms: N_5  and  C_9
    5  A    between atoms: C_6  and  C_11
    6  A    between atoms: C_6  and  O_37
    7  A    between atoms: C_7  and  C_29
    8  A    between atoms: C_9  and  C_30
    9  A    between atoms: C_9  and  C_32
   10  A    between atoms: C_10  and  C_30
   11  A    between atoms: C_11  and  C_24
   12  A    between atoms: C_16  and  C_38
   13  A    between atoms: C_25  and  C_29
   14  A    between atoms: C_29  and  C_35
   15  A    between atoms: C_33  and  C_36
   16  A    between atoms: C_36  and  O_37
                            x       y       z     vdW  Elec       q    Type
                         _______ _______ _______ _____ _____    ______ ____

>  <TORSDO>
F 16

$$$$
=
 OpenBabel11062415573D

 41 44  0  0  1  0  0  0  0  0999 V2000
  191.4500  177.4660  140.3300 C   0  0  0  0  0  0  0  0  0  0  0  0
  192.7260  177.2590  140.2760 N   0  0  0  0  0  2  0  0  0  0  0  0
  188.6280  178.2760  137.8530 C   0  0  2  0  0  3  0  0  0  0  0  0
  187.0980  176.9510  137.5230 C   0  0  2  0  0  3  0  0  0  0  0  0
  189.4280  178.3380  139.1610 C   0  0  0  0  0  2  0  0  0  0  0  0
  190.1700  176.0470  138.8360 N   0  0  0  0  0  0  0  0  0  0  0  0
  187.2020  178.2660  138.1530 N   0  0  0  0  0  2  0  0  0  0  0  0
  188.5710  176.8950  137.1850 C   0  0  2  0  0  3  0  0  0  0  0  0
  190.6240  177.3970  139.0790 C   0  0  2  0  0  3  0  0  0  0  0  0
  189.2400  175.7960  137.9790 C   0  0  0  0  0  3  0  0  0  0  0  0
  186.2730  177.0530  136.2490 C   0  0  0  0  0  2  0  0  0  0  0  0
  185.0390  176.1620  136.3460 C   0  0  1  0  0  3  0  0  0  0  0  0
  186.9670  173.0710  136.8600 C   0  0  0  0  0  2  0  0  0  0  0  0
  186.6230  174.6740  135.1010 C   0  0  0  0  0  2  0  0  0  0  0  0
  187.2740  173.3450  135.4030 C   0  0  0  0  0  2  0  0  0  0  0  0
  185.7450  173.9030  137.2110 C   0  0  0  0  0  2  0  0  0  0  0  0
  185.3900  174.7210  135.9780 C   0  0  0  0  0  3  0  0  0  0  0  0
  184.5180  176.2070  137.7070 N   0  0  0  0  0  2  0  0  0  0  0  0
  183.0420  177.9900  137.3570 O   0  0  0  0  0  0  0  0  0  0  0  0
  183.5540  177.1620  138.1590 C   0  0  0  0  0  0  0  0  0  0  0  0
  183.1590  177.1690  139.5260 N   0  0  0  0  0  1  0  0  0  0  0  0
  190.8550  177.7100  141.5700 O   0  0  0  0  0  0  0  0  0  0  0  0
  191.5610  177.5510  142.7910 C   0  0  0  0  0  2  0  0  0  0  0  0
  190.9270  178.4210  143.8580 C   0  0  0  0  0  2  0  0  0  0  0  0
  191.0320  177.7240  145.2010 C   0  0  0  0  0  2  0  0  0  0  0  0
  189.8020  176.9980  145.4760 N   0  0  0  0  0  0  0  0  0  0  0  0
  191.0480  176.9910  147.4470 O   0  0  0  0  0  1  0  0  0  0  0  0
  189.7830  176.7480  146.9080 C   0  0  0  0  0  2  0  0  0  0  0  0
  188.7000  177.9070  145.1890 C   0  0  0  0  0  2  0  0  0  0  0  0
  186.1720  178.6480  143.2600 C   0  0  0  0  0  3  0  0  0  0  0  0
  187.0790  178.3280  142.1400 C   0  0  0  0  0  3  0  0  0  0  0  0
  187.4940  177.1230  144.6920 C   0  0  2  0  0  3  0  0  0  0  0  0
  187.8960  177.2730  142.2160 C   0  0  0  0  0  3  0  0  0  0  0  0
  187.8450  176.3530  143.4100 C   0  0  0  0  0  2  0  0  0  0  0  0
  186.3260  178.0570  144.4530 C   0  0  0  0  0  0  0  0  0  0  0  0
  185.3180  178.3290  145.5350 C   0  0  1  0  0  3  0  0  0  0  0  0
  186.0510  180.0210  147.0750 O   0  0  0  0  0  0  0  0  0  0  0  0
  185.9870  178.7920  146.7920 C   0  0  0  0  0  0  0  0  0  0  0  0
  186.5630  177.8350  147.6750 N   0  0  0  0  0  1  0  0  0  0  0  0
  184.2400  179.3140  145.0960 C   0  0  0  0  0  2  0  0  0  0  0  0
  183.0470  178.5980  144.6770 N   0  0  0  0  0  1  0  0  0  0  0  0
  1 22  1  0  0  0  0
  2  1  2  0  0  0  0
  3  7  1  0  0  0  0
  3  5  1  1  0  0  0
  4 11  1  6  0  0  0
  4  7  1  0  0  0  0
  6  9  1  0  0  0  0
  8  4  1  0  0  0  0
  8  3  1  0  0  0  0
  8 10  1  1  0  0  0
  9  5  1  0  0  0  0
  9  1  1  1  0  0  0
 10  6  2  0  0  0  0
 12 11  1  1  0  0  0
 12 18  1  0  0  0  0
 13 16  1  0  0  0  0
 14 15  1  0  0  0  0
 14 17  1  0  0  0  0
 15 13  1  0  0  0  0
 17 12  1  0  0  0  0
 17 16  1  0  0  0  0
 18 20  1  0  0  0  0
 19 20  2  0  0  0  0
 20 21  1  0  0  0  0
 22 23  1  0  0  0  0
 23 24  1  0  0  0  0
 24 25  1  0  0  0  0
 25 26  1  0  0  0  0
 26 28  1  0  0  0  0
 28 27  1  0  0  0  0
 29 26  1  0  0  0  0
 30 35  2  0  0  0  0
 31 33  2  0  0  0  0
 31 30  1  0  0  0  0
 32 29  1  6  0  0  0
 33 34  1  0  0  0  0
 34 32  1  0  0  0  0
 35 32  1  0  0  0  0
 35 36  1  0  0  0  0
 36 40  1  6  0  0  0
 36 38  1  0  0  0  0
 38 37  2  0  0  0  0
 38 39  1  0  0  0  0
 41 40  1  0  0  0  0
M  END
>  <MODEL>
7

>  <REMARK>
 VINA RESULT:      -6.7      2.642      6.778
  Name = 
  16 active torsions:
  status: ('A' for Active; 'I' for Inactive)
    1  A    between atoms: N_3  and  C_24
    2  A    between atoms: N_3  and  C_38
    3  A    between atoms: N_3  and  C_41
    4  A    between atoms: N_5  and  C_9
    5  A    between atoms: C_6  and  C_11
    6  A    between atoms: C_6  and  O_37
    7  A    between atoms: C_7  and  C_29
    8  A    between atoms: C_9  and  C_30
    9  A    between atoms: C_9  and  C_32
   10  A    between atoms: C_10  and  C_30
   11  A    between atoms: C_11  and  C_24
   12  A    between atoms: C_16  and  C_38
   13  A    between atoms: C_25  and  C_29
   14  A    between atoms: C_29  and  C_35
   15  A    between atoms: C_33  and  C_36
   16  A    between atoms: C_36  and  O_37
                            x       y       z     vdW  Elec       q    Type
                         _______ _______ _______ _____ _____    ______ ____

>  <TORSDO>
F 16

$$$$
=
 OpenBabel11062415573D

 41 44  0  0  1  0  0  0  0  0999 V2000
  191.2590  176.3700  137.5890 C   0  0  0  0  0  0  0  0  0  0  0  0
  192.2970  176.1940  136.8370 N   0  0  0  0  0  2  0  0  0  0  0  0
  187.9200  177.9750  136.5750 C   0  0  2  0  0  3  0  0  0  0  0  0
  186.1640  177.4210  137.4770 C   0  0  2  0  0  3  0  0  0  0  0  0
  189.2920  177.8640  137.2530 C   0  0  0  0  0  2  0  0  0  0  0  0
  189.0150  175.4590  137.4610 N   0  0  0  0  0  0  0  0  0  0  0  0
  186.9820  178.6320  137.4760 N   0  0  0  0  0  2  0  0  0  0  0  0
  187.0970  176.6800  136.5460 C   0  0  2  0  0  3  0  0  0  0  0  0
  189.8970  176.4940  136.9710 C   0  0  2  0  0  3  0  0  0  0  0  0
  187.7400  175.5220  137.2770 C   0  0  0  0  0  3  0  0  0  0  0  0
  184.8390  177.6930  136.7810 C   0  0  0  0  0  2  0  0  0  0  0  0
  183.7120  177.7830  137.8040 C   0  0  1  0  0  3  0  0  0  0  0  0
  180.4840  176.0180  137.7520 C   0  0  0  0  0  2  0  0  0  0  0  0
  182.4010  176.1640  139.1950 C   0  0  0  0  0  2  0  0  0  0  0  0
  181.1020  175.4210  138.9990 C   0  0  0  0  0  2  0  0  0  0  0  0
  181.6180  176.6570  136.9680 C   0  0  0  0  0  2  0  0  0  0  0  0
  182.8820  176.4990  137.8000 C   0  0  0  0  0  3  0  0  0  0  0  0
  184.2820  177.9930  139.1300 N   0  0  0  0  0  2  0  0  0  0  0  0
  184.1630  180.3320  139.0900 O   0  0  0  0  0  0  0  0  0  0  0  0
  184.5150  179.2850  139.6990 C   0  0  0  0  0  0  0  0  0  0  0  0
  185.1400  179.3880  140.9740 N   0  0  0  0  0  1  0  0  0  0  0  0
  191.4240  176.4000  138.9750 O   0  0  0  0  0  0  0  0  0  0  0  0
  192.4620  177.1420  139.5970 C   0  0  0  0  0  2  0  0  0  0  0  0
  192.0500  177.5020  141.0100 C   0  0  0  0  0  2  0  0  0  0  0  0
  190.6630  176.9530  141.2830 C   0  0  0  0  0  2  0  0  0  0  0  0
  189.9110  177.8990  142.0950 N   0  0  0  0  0  0  0  0  0  0  0  0
  188.4780  177.1550  140.4120 O   0  0  0  0  0  1  0  0  0  0  0  0
  188.6510  178.1220  141.4060 C   0  0  0  0  0  2  0  0  0  0  0  0
  189.5970  177.2260  143.3480 C   0  0  0  0  0  2  0  0  0  0  0  0
  189.4170  176.8890  146.5910 C   0  0  0  0  0  3  0  0  0  0  0  0
  190.8170  176.4300  146.5070 C   0  0  0  0  0  3  0  0  0  0  0  0
  189.7760  178.1870  144.5150 C   0  0  2  0  0  3  0  0  0  0  0  0
  191.6800  177.0500  145.6960 C   0  0  0  0  0  3  0  0  0  0  0  0
  191.2560  178.2710  144.9190 C   0  0  0  0  0  2  0  0  0  0  0  0
  188.9240  177.7480  145.6880 C   0  0  0  0  0  0  0  0  0  0  0  0
  187.5270  178.2730  145.8680 C   0  0  1  0  0  3  0  0  0  0  0  0
  186.5740  176.4310  144.6570 O   0  0  0  0  0  0  0  0  0  0  0  0
  186.5910  177.6750  144.8640 C   0  0  0  0  0  0  0  0  0  0  0  0
  185.7150  178.5240  144.1290 N   0  0  0  0  0  1  0  0  0  0  0  0
  187.0050  178.0700  147.2880 C   0  0  0  0  0  2  0  0  0  0  0  0
  186.0400  179.1060  147.6190 N   0  0  0  0  0  1  0  0  0  0  0  0
  1 22  1  0  0  0  0
  2  1  2  0  0  0  0
  3  5  1  1  0  0  0
  3  7  1  0  0  0  0
  4 11  1  6  0  0  0
  7  4  1  0  0  0  0
  8  3  1  0  0  0  0
  8 10  1  1  0  0  0
  8  4  1  0  0  0  0
  9  5  1  0  0  0  0
  9  6  1  0  0  0  0
  9  1  1  1  0  0  0
 10  6  2  0  0  0  0
 12 11  1  6  0  0  0
 12 18  1  0  0  0  0
 13 15  1  0  0  0  0
 15 14  1  0  0  0  0
 16 13  1  0  0  0  0
 16 17  1  0  0  0  0
 17 12  1  0  0  0  0
 17 14  1  0  0  0  0
 18 20  1  0  0  0  0
 19 20  2  0  0  0  0
 20 21  1  0  0  0  0
 22 23  1  0  0  0  0
 23 24  1  0  0  0  0
 24 25  1  0  0  0  0
 25 26  1  0  0  0  0
 26 29  1  0  0  0  0
 27 28  1  0  0  0  0
 28 26  1  0  0  0  0
 31 30  1  0  0  0  0
 32 29  1  6  0  0  0
 32 34  1  0  0  0  0
 32 35  1  0  0  0  0
 33 31  2  0  0  0  0
 34 33  1  0  0  0  0
 35 36  1  0  0  0  0
 35 30  2  0  0  0  0
 36 40  1  1  0  0  0
 37 38  2  0  0  0  0
 38 36  1  0  0  0  0
 39 38  1  0  0  0  0
 40 41  1  0  0  0  0
M  END
>  <MODEL>
8

>  <REMARK>
 VINA RESULT:      -6.6      2.273      8.378
  Name = 
  16 active torsions:
  status: ('A' for Active; 'I' for Inactive)
    1  A    between atoms: N_3  and  C_24
    2  A    between atoms: N_3  and  C_38
    3  A    between atoms: N_3  and  C_41
    4  A    between atoms: N_5  and  C_9
    5  A    between atoms: C_6  and  C_11
    6  A    between atoms: C_6  and  O_37
    7  A    between atoms: C_7  and  C_29
    8  A    between atoms: C_9  and  C_30
    9  A    between atoms: C_9  and  C_32
   10  A    between atoms: C_10  and  C_30
   11  A    between atoms: C_11  and  C_24
   12  A    between atoms: C_16  and  C_38
   13  A    between atoms: C_25  and  C_29
   14  A    between atoms: C_29  and  C_35
   15  A    between atoms: C_33  and  C_36
   16  A    between atoms: C_36  and  O_37
                            x       y       z     vdW  Elec       q    Type
                         _______ _______ _______ _____ _____    ______ ____

>  <TORSDO>
F 16

$$$$
=
 OpenBabel11062415573D

 41 44  0  0  1  0  0  0  0  0999 V2000
  190.5170  176.3670  138.7450 C   0  0  0  0  0  0  0  0  0  0  0  0
  191.5520  175.5910  138.7130 N   0  0  0  0  0  2  0  0  0  0  0  0
  191.1420  178.0430  142.1440 C   0  0  2  0  0  3  0  0  0  0  0  0
  190.0520  177.5170  143.8000 C   0  0  2  0  0  3  0  0  0  0  0  0
  191.3950  177.1000  140.9610 C   0  0  0  0  0  2  0  0  0  0  0  0
  189.0040  176.9480  140.5510 N   0  0  0  0  0  0  0  0  0  0  0  0
  191.4460  177.3540  143.3920 N   0  0  0  0  0  2  0  0  0  0  0  0
  189.6680  178.2370  142.5260 C   0  0  2  0  0  3  0  0  0  0  0  0
  190.2770  177.2500  139.9350 C   0  0  2  0  0  3  0  0  0  0  0  0
  188.7060  177.3880  141.7250 C   0  0  0  0  0  3  0  0  0  0  0  0
  189.9690  178.4690  144.9820 C   0  0  0  0  0  2  0  0  0  0  0  0
  189.7600  177.6890  146.2760 C   0  0  1  0  0  3  0  0  0  0  0  0
  186.1900  178.4640  145.8330 C   0  0  0  0  0  2  0  0  0  0  0  0
  187.7120  178.1010  147.6590 C   0  0  0  0  0  2  0  0  0  0  0  0
  186.2510  178.3080  147.3390 C   0  0  0  0  0  2  0  0  0  0  0  0
  187.4490  177.8190  145.2780 C   0  0  0  0  0  2  0  0  0  0  0  0
  188.2790  177.3590  146.4680 C   0  0  0  0  0  3  0  0  0  0  0  0
  190.5330  176.4540  146.2240 N   0  0  0  0  0  2  0  0  0  0  0  0
  192.0630  177.0400  147.8970 O   0  0  0  0  0  0  0  0  0  0  0  0
  191.6900  176.2060  147.0290 C   0  0  0  0  0  0  0  0  0  0  0  0
  192.4190  174.9960  146.8560 N   0  0  0  0  0  1  0  0  0  0  0  0
  189.6590  176.3990  137.6440 O   0  0  0  0  0  0  0  0  0  0  0  0
  189.5270  177.5490  136.8220 C   0  0  0  0  0  2  0  0  0  0  0  0
  188.2480  178.2810  137.1780 C   0  0  0  0  0  2  0  0  0  0  0  0
  187.1750  177.2710  137.5330 C   0  0  0  0  0  2  0  0  0  0  0  0
  185.8810  177.7420  137.0610 N   0  0  0  0  0  0  0  0  0  0  0  0
  185.8560  175.7620  135.8300 O   0  0  0  0  0  1  0  0  0  0  0  0
  185.6770  177.1450  135.7520 C   0  0  0  0  0  2  0  0  0  0  0  0
  184.8750  177.1740  137.9480 C   0  0  0  0  0  2  0  0  0  0  0  0
  182.9610  177.5830  140.5620 C   0  0  0  0  0  3  0  0  0  0  0  0
  184.1540  178.1720  141.2020 C   0  0  0  0  0  3  0  0  0  0  0  0
  183.8800  178.2500  138.3630 C   0  0  2  0  0  3  0  0  0  0  0  0
  184.9510  178.9930  140.5120 C   0  0  0  0  0  3  0  0  0  0  0  0
  184.5990  179.3900  139.1000 C   0  0  0  0  0  2  0  0  0  0  0  0
  182.7950  177.6500  139.2330 C   0  0  0  0  0  0  0  0  0  0  0  0
  181.5180  177.1330  138.6320 C   0  0  1  0  0  3  0  0  0  0  0  0
  182.1040  174.8340  138.2590 O   0  0  0  0  0  0  0  0  0  0  0  0
  181.3680  175.6610  138.8640 C   0  0  0  0  0  0  0  0  0  0  0  0
  180.3780  175.1920  139.7720 N   0  0  0  0  0  1  0  0  0  0  0  0
  180.2900  177.8910  139.1280 C   0  0  0  0  0  2  0  0  0  0  0  0
  180.3460  179.2750  138.6900 N   0  0  0  0  0  1  0  0  0  0  0  0
  2  1  2  0  0  0  0
  3  5  1  6  0  0  0
  3  8  1  0  0  0  0
  3  7  1  0  0  0  0
  4 11  1  1  0  0  0
  6 10  2  0  0  0  0
  7  4  1  0  0  0  0
  8 10  1  6  0  0  0
  8  4  1  0  0  0  0
  9  1  1  6  0  0  0
  9  6  1  0  0  0  0
  9  5  1  0  0  0  0
 12 11  1  6  0  0  0
 12 17  1  0  0  0  0
 13 15  1  0  0  0  0
 15 14  1  0  0  0  0
 16 13  1  0  0  0  0
 16 17  1  0  0  0  0
 17 14  1  0  0  0  0
 18 12  1  0  0  0  0
 18 20  1  0  0  0  0
 20 19  2  0  0  0  0
 21 20  1  0  0  0  0
 22  1  1  0  0  0  0
 23 24  1  0  0  0  0
 23 22  1  0  0  0  0
 24 25  1  0  0  0  0
 26 25  1  0  0  0  0
 26 29  1  0  0  0  0
 28 27  1  0  0  0  0
 28 26  1  0  0  0  0
 30 31  1  0  0  0  0
 32 29  1  1  0  0  0
 32 34  1  0  0  0  0
 32 35  1  0  0  0  0
 33 31  2  0  0  0  0
 34 33  1  0  0  0  0
 35 30  2  0  0  0  0
 36 38  1  0  0  0  0
 36 40  1  1  0  0  0
 36 35  1  0  0  0  0
 37 38  2  0  0  0  0
 38 39  1  0  0  0  0
 41 40  1  0  0  0  0
M  END
>  <MODEL>
9

>  <REMARK>
 VINA RESULT:      -6.5      2.664      6.816
  Name = 
  16 active torsions:
  status: ('A' for Active; 'I' for Inactive)
    1  A    between atoms: N_3  and  C_24
    2  A    between atoms: N_3  and  C_38
    3  A    between atoms: N_3  and  C_41
    4  A    between atoms: N_5  and  C_9
    5  A    between atoms: C_6  and  C_11
    6  A    between atoms: C_6  and  O_37
    7  A    between atoms: C_7  and  C_29
    8  A    between atoms: C_9  and  C_30
    9  A    between atoms: C_9  and  C_32
   10  A    between atoms: C_10  and  C_30
   11  A    between atoms: C_11  and  C_24
   12  A    between atoms: C_16  and  C_38
   13  A    between atoms: C_25  and  C_29
   14  A    between atoms: C_29  and  C_35
   15  A    between atoms: C_33  and  C_36
   16  A    between atoms: C_36  and  O_37
                            x       y       z     vdW  Elec       q    Type
                         _______ _______ _______ _____ _____    ______ ____

>  <TORSDO>
F 16

$$$$
