=
 OpenBabel11062418083D

 25 27  0  0  1  0  0  0  0  0999 V2000
  190.7670  176.6910  142.4640 C   0  0  0  0  0  0  0  0  0  0  0  0
  188.6370  175.9190  143.2050 O   0  0  0  0  0  1  0  0  0  0  0  0
  192.1310  178.5230  143.5960 C   0  0  0  0  0  2  0  0  0  0  0  0
  190.6270  175.9500  141.4540 O   0  0  0  0  0  0  0  0  0  0  0  0
  189.8170  176.5320  143.6440 C   0  0  2  0  0  0  0  0  0  0  0  0
  190.9830  179.5170  143.8310 C   0  0  0  0  0  2  0  0  0  0  0  0
  191.8420  177.6400  142.4720 N   0  0  0  0  0  2  0  0  0  0  0  0
  189.4870  177.8970  144.3080 C   0  0  1  0  0  3  0  0  0  0  0  0
  189.7250  178.9990  143.4720 O   0  0  0  0  0  0  0  0  0  0  0  0
  185.6250  178.2320  144.9570 C   0  0  0  0  0  0  0  0  0  0  0  0
  185.5170  178.1700  146.2780 C   0  0  0  0  0  0  0  0  0  0  0  0
  187.4610  178.2370  141.8090 C   0  0  0  0  0  1  0  0  0  0  0  0
  185.1250  178.4010  142.8550 N   0  0  0  0  0  0  0  0  0  0  0  0
  188.0790  177.9280  146.3590 C   0  0  0  0  0  0  0  0  0  0  0  0
  186.5460  178.2580  142.9820 C   0  0  0  0  0  0  0  0  0  0  0  0
  186.7610  178.0060  147.1240 C   0  0  0  0  0  2  0  0  0  0  0  0
  188.1500  177.9900  145.0060 C   0  0  0  0  0  0  0  0  0  0  0  0
  186.8760  178.1510  144.2690 C   0  0  0  0  0  0  0  0  0  0  0  0
  189.3130  177.7850  147.1870 C   0  0  0  0  0  1  0  0  0  0  0  0
  184.2710  178.2570  146.8870 O   0  0  0  0  0  1  0  0  0  0  0  0
  184.5830  178.3860  144.0070 N   0  0  0  0  0  0  0  0  0  0  0  0
  190.4650  175.6510  144.7190 C   0  0  0  0  0  2  0  0  0  0  0  0
  191.5040  176.3820  145.5610 C   0  0  0  0  0  2  0  0  0  0  0  0
  192.3520  175.9220  147.8380 C   0  0  0  0  0  1  0  0  0  0  0  0
  192.2690  175.3960  146.4220 C   0  0  0  0  0  2  0  0  0  0  0  0
  1  7  1  0  0  0  0
  1  5  1  0  0  0  0
  3  6  1  0  0  0  0
  4  1  2  0  0  0  0
  5  2  1  6  0  0  0
  5  8  1  0  0  0  0
  5 22  1  0  0  0  0
  7  3  1  0  0  0  0
  8 17  1  6  0  0  0
  9  6  1  0  0  0  0
  9  8  1  0  0  0  0
 10 11  2  0  0  0  0
 11 20  1  0  0  0  0
 11 16  1  0  0  0  0
 12 15  1  0  0  0  0
 13 15  1  0  0  0  0
 13 21  2  0  0  0  0
 14 16  1  0  0  0  0
 14 19  1  0  0  0  0
 15 18  2  0  0  0  0
 17 14  2  0  0  0  0
 18 10  1  0  0  0  0
 18 17  1  0  0  0  0
 21 10  1  0  0  0  0
 22 23  1  0  0  0  0
 23 25  1  0  0  0  0
 25 24  1  0  0  0  0
M  END
>  <MODEL>
1

>  <REMARK>
 VINA RESULT:      -7.5      0.000      0.000
  Name = 
  4 active torsions:
  status: ('A' for Active; 'I' for Inactive)
    1  A    between atoms: C_10  and  C_17
    2  A    between atoms: C_10  and  C_18
    3  A    between atoms: C_12  and  C_17
    4  A    between atoms: C_14  and  C_23
                            x       y       z     vdW  Elec       q    Type
                         _______ _______ _______ _____ _____    ______ ____

>  <TORSDO>
F 4

$$$$
=
 OpenBabel11062418083D

 25 27  0  0  1  0  0  0  0  0999 V2000
  191.1670  176.4600  144.2410 C   0  0  0  0  0  0  0  0  0  0  0  0
  190.2730  175.4500  142.2760 O   0  0  0  0  0  1  0  0  0  0  0  0
  190.8120  178.8900  144.9250 C   0  0  0  0  0  2  0  0  0  0  0  0
  191.7970  175.3880  144.4450 O   0  0  0  0  0  0  0  0  0  0  0  0
  190.0670  176.4920  143.1890 C   0  0  2  0  0  0  0  0  0  0  0  0
  191.0500  179.5280  143.5470 C   0  0  0  0  0  2  0  0  0  0  0  0
  191.4950  177.6070  145.0380 N   0  0  0  0  0  2  0  0  0  0  0  0
  190.0260  177.8510  142.4380 C   0  0  1  0  0  3  0  0  0  0  0  0
  191.2250  178.5760  142.5250 O   0  0  0  0  0  0  0  0  0  0  0  0
  189.7810  177.4180  138.5390 C   0  0  0  0  0  0  0  0  0  0  0  0
  188.5160  177.7100  138.2640 C   0  0  0  0  0  0  0  0  0  0  0  0
  192.6420  176.9690  140.7500 C   0  0  0  0  0  1  0  0  0  0  0  0
  191.8620  176.8570  138.3100 N   0  0  0  0  0  0  0  0  0  0  0  0
  188.1870  178.1230  140.7840 C   0  0  0  0  0  0  0  0  0  0  0  0
  191.5990  177.1030  139.6980 C   0  0  0  0  0  0  0  0  0  0  0  0
  187.5760  178.0960  139.3860 C   0  0  0  0  0  2  0  0  0  0  0  0
  189.4850  177.8150  141.0270 C   0  0  0  0  0  0  0  0  0  0  0  0
  190.3220  177.4480  139.8620 C   0  0  0  0  0  0  0  0  0  0  0  0
  187.2720  178.5240  141.8940 C   0  0  0  0  0  1  0  0  0  0  0  0
  188.0500  177.6630  136.9560 O   0  0  0  0  0  1  0  0  0  0  0  0
  190.8010  177.0400  137.6290 N   0  0  0  0  0  0  0  0  0  0  0  0
  188.7000  176.3050  143.8590 C   0  0  0  0  0  2  0  0  0  0  0  0
  188.5200  177.1400  145.1210 C   0  0  0  0  0  2  0  0  0  0  0  0
  186.8510  177.9800  146.7410 C   0  0  0  0  0  1  0  0  0  0  0  0
  187.0530  177.4570  145.3350 C   0  0  0  0  0  2  0  0  0  0  0  0
  1  4  2  0  0  0  0
  1  7  1  0  0  0  0
  3  7  1  0  0  0  0
  5  2  1  6  0  0  0
  5 22  1  0  0  0  0
  5  1  1  0  0  0  0
  6  3  1  0  0  0  0
  8 17  1  6  0  0  0
  8  9  1  0  0  0  0
  8  5  1  0  0  0  0
  9  6  1  0  0  0  0
 10 18  1  0  0  0  0
 11 10  2  0  0  0  0
 11 16  1  0  0  0  0
 13 15  1  0  0  0  0
 14 17  2  0  0  0  0
 14 19  1  0  0  0  0
 15 18  2  0  0  0  0
 15 12  1  0  0  0  0
 16 14  1  0  0  0  0
 18 17  1  0  0  0  0
 20 11  1  0  0  0  0
 21 13  2  0  0  0  0
 21 10  1  0  0  0  0
 22 23  1  0  0  0  0
 23 25  1  0  0  0  0
 25 24  1  0  0  0  0
M  END
>  <MODEL>
2

>  <REMARK>
 VINA RESULT:      -6.7      2.983      5.493
  Name = 
  4 active torsions:
  status: ('A' for Active; 'I' for Inactive)
    1  A    between atoms: C_10  and  C_17
    2  A    between atoms: C_10  and  C_18
    3  A    between atoms: C_12  and  C_17
    4  A    between atoms: C_14  and  C_23
                            x       y       z     vdW  Elec       q    Type
                         _______ _______ _______ _____ _____    ______ ____

>  <TORSDO>
F 4

$$$$
=
 OpenBabel11062418083D

 25 27  0  0  1  0  0  0  0  0999 V2000
  190.9380  176.4850  144.2370 C   0  0  0  0  0  0  0  0  0  0  0  0
  190.2680  175.4450  142.1990 O   0  0  0  0  0  1  0  0  0  0  0  0
  190.5600  178.9380  144.8170 C   0  0  0  0  0  2  0  0  0  0  0  0
  191.5130  175.4050  144.5390 O   0  0  0  0  0  0  0  0  0  0  0  0
  189.9760  176.5140  143.0560 C   0  0  2  0  0  0  0  0  0  0  0  0
  190.9790  179.5360  143.4650 C   0  0  0  0  0  2  0  0  0  0  0  0
  191.1940  177.6450  145.0420 N   0  0  0  0  0  2  0  0  0  0  0  0
  190.0590  177.8540  142.2760 C   0  0  1  0  0  3  0  0  0  0  0  0
  191.2550  178.5560  142.4940 O   0  0  0  0  0  0  0  0  0  0  0  0
  188.0270  178.0680  138.9180 C   0  0  0  0  0  0  0  0  0  0  0  0
  188.9050  177.7100  137.9900 C   0  0  0  0  0  0  0  0  0  0  0  0
  186.9520  178.7520  142.3320 C   0  0  0  0  0  1  0  0  0  0  0  0
  186.1930  178.7010  139.8830 N   0  0  0  0  0  0  0  0  0  0  0  0
  190.6180  177.4180  139.8910 C   0  0  0  0  0  0  0  0  0  0  0  0
  187.2030  178.5200  140.8850 C   0  0  0  0  0  0  0  0  0  0  0  0
  190.3170  177.3460  138.3960 C   0  0  0  0  0  3  0  0  0  0  0  0
  189.6940  177.7930  140.8100 C   0  0  0  0  0  0  0  0  0  0  0  0
  188.3420  178.1310  140.3120 C   0  0  1  0  0  3  0  0  0  0  0  0
  192.0020  177.0400  140.3030 C   0  0  0  0  0  1  0  0  0  0  0  0
  188.5370  177.6670  136.6510 O   0  0  0  0  0  1  0  0  0  0  0  0
  186.6710  178.4390  138.7330 N   0  0  0  0  0  0  0  0  0  0  0  0
  188.5340  176.3710  143.5570 C   0  0  0  0  0  2  0  0  0  0  0  0
  188.3440  176.8150  145.0030 C   0  0  0  0  0  2  0  0  0  0  0  0
  186.8170  178.0590  146.4980 C   0  0  0  0  0  1  0  0  0  0  0  0
  186.9030  177.2210  145.2420 C   0  0  0  0  0  2  0  0  0  0  0  0
  1  4  2  0  0  0  0
  1  7  1  0  0  0  0
  3  7  1  0  0  0  0
  5  2  1  6  0  0  0
  5 22  1  0  0  0  0
  5  1  1  0  0  0  0
  6  3  1  0  0  0  0
  8 17  1  6  0  0  0
  8  9  1  0  0  0  0
  8  5  1  0  0  0  0
  9  6  1  0  0  0  0
 11 16  2  0  0  0  0
 11 10  1  0  0  0  0
 13 15  2  0  0  0  0
 14 19  1  0  0  0  0
 14 17  2  0  0  0  0
 15 12  1  0  0  0  0
 16 14  1  0  0  0  0
 18 10  1  1  0  0  0
 18 17  1  0  0  0  0
 18 15  1  0  0  0  0
 20 11  1  0  0  0  0
 21 10  2  0  0  0  0
 21 13  1  0  0  0  0
 22 23  1  0  0  0  0
 23 25  1  0  0  0  0
 25 24  1  0  0  0  0
M  END
>  <MODEL>
3

>  <REMARK>
 VINA RESULT:      -6.4      2.542      5.094
  Name = 
  4 active torsions:
  status: ('A' for Active; 'I' for Inactive)
    1  A    between atoms: C_10  and  C_17
    2  A    between atoms: C_10  and  C_18
    3  A    between atoms: C_12  and  C_17
    4  A    between atoms: C_14  and  C_23
                            x       y       z     vdW  Elec       q    Type
                         _______ _______ _______ _____ _____    ______ ____

>  <TORSDO>
F 4

$$$$
=
 OpenBabel11062418083D

 25 27  0  0  1  0  0  0  0  0999 V2000
  190.5310  176.2770  143.7390 C   0  0  0  0  0  0  0  0  0  0  0  0
  188.3900  175.7360  142.8420 O   0  0  0  0  0  1  0  0  0  0  0  0
  191.1830  178.5500  144.6900 C   0  0  0  0  0  2  0  0  0  0  0  0
  190.9200  175.1400  143.3590 O   0  0  0  0  0  0  0  0  0  0  0  0
  189.0410  176.5960  143.7350 C   0  0  2  0  0  0  0  0  0  0  0  0
  190.5610  179.4210  143.5870 C   0  0  0  0  0  2  0  0  0  0  0  0
  191.5130  177.2210  144.1900 N   0  0  0  0  0  2  0  0  0  0  0  0
  188.7680  178.0730  143.3390 C   0  0  1  0  0  3  0  0  0  0  0  0
  189.8300  178.6730  142.6450 O   0  0  0  0  0  0  0  0  0  0  0  0
  185.9760  178.6280  140.6290 C   0  0  0  0  0  0  0  0  0  0  0  0
  184.8820  178.8690  141.3420 C   0  0  0  0  0  0  0  0  0  0  0  0
  189.5160  177.8810  140.1970 C   0  0  0  0  0  1  0  0  0  0  0  0
  187.3180  178.3270  138.9550 N   0  0  0  0  0  0  0  0  0  0  0  0
  186.3390  178.5960  143.4480 C   0  0  0  0  0  0  0  0  0  0  0  0
  188.0610  178.1870  140.1730 C   0  0  0  0  0  0  0  0  0  0  0  0
  184.9600  178.8730  142.8530 C   0  0  0  0  0  2  0  0  0  0  0  0
  187.4330  178.3500  142.6870 C   0  0  0  0  0  0  0  0  0  0  0  0
  187.2530  178.3670  141.2180 C   0  0  0  0  0  0  0  0  0  0  0  0
  186.4290  178.6190  144.9390 C   0  0  0  0  0  1  0  0  0  0  0  0
  183.6700  179.1160  140.7100 O   0  0  0  0  0  1  0  0  0  0  0  0
  186.0990  178.5840  139.2170 N   0  0  0  0  0  0  0  0  0  0  0  0
  188.4610  176.3890  145.1390 C   0  0  0  0  0  2  0  0  0  0  0  0
  189.2300  177.1240  146.2310 C   0  0  0  0  0  2  0  0  0  0  0  0
  188.9740  178.2270  148.4290 C   0  0  0  0  0  1  0  0  0  0  0  0
  188.4160  177.1630  147.5090 C   0  0  0  0  0  2  0  0  0  0  0  0
  1  7  1  0  0  0  0
  4  1  2  0  0  0  0
  5  2  1  6  0  0  0
  5  1  1  0  0  0  0
  5 22  1  0  0  0  0
  6  3  1  0  0  0  0
  7  3  1  0  0  0  0
  8 17  1  6  0  0  0
  8  5  1  0  0  0  0
  9  8  1  0  0  0  0
  9  6  1  0  0  0  0
 10 18  1  0  0  0  0
 10 11  2  0  0  0  0
 11 16  1  0  0  0  0
 13 21  2  0  0  0  0
 13 15  1  0  0  0  0
 14 19  1  0  0  0  0
 15 12  1  0  0  0  0
 15 18  2  0  0  0  0
 16 14  1  0  0  0  0
 17 14  2  0  0  0  0
 18 17  1  0  0  0  0
 20 11  1  0  0  0  0
 21 10  1  0  0  0  0
 22 23  1  0  0  0  0
 23 25  1  0  0  0  0
 25 24  1  0  0  0  0
M  END
>  <MODEL>
4

>  <REMARK>
 VINA RESULT:      -6.4      2.357      3.297
  Name = 
  4 active torsions:
  status: ('A' for Active; 'I' for Inactive)
    1  A    between atoms: C_10  and  C_17
    2  A    between atoms: C_10  and  C_18
    3  A    between atoms: C_12  and  C_17
    4  A    between atoms: C_14  and  C_23
                            x       y       z     vdW  Elec       q    Type
                         _______ _______ _______ _____ _____    ______ ____

>  <TORSDO>
F 4

$$$$
=
 OpenBabel11062418083D

 25 27  0  0  1  0  0  0  0  0999 V2000
  190.8860  176.5690  143.5380 C   0  0  0  0  0  0  0  0  0  0  0  0
  188.6340  175.7870  143.5780 O   0  0  0  0  0  1  0  0  0  0  0  0
  191.6440  178.8790  144.3050 C   0  0  0  0  0  2  0  0  0  0  0  0
  191.1920  175.5010  142.9430 O   0  0  0  0  0  0  0  0  0  0  0  0
  189.5110  176.6970  144.1810 C   0  0  2  0  0  0  0  0  0  0  0  0
  190.5270  179.6940  143.6350 C   0  0  0  0  0  2  0  0  0  0  0  0
  191.8640  177.6150  143.6110 N   0  0  0  0  0  2  0  0  0  0  0  0
  188.9470  178.1390  144.0530 C   0  0  1  0  0  3  0  0  0  0  0  0
  189.5460  178.8860  143.0280 O   0  0  0  0  0  0  0  0  0  0  0  0
  185.2180  178.5180  145.2400 C   0  0  0  0  0  0  0  0  0  0  0  0
  184.5220  178.5190  144.1100 C   0  0  0  0  0  0  0  0  0  0  0  0
  188.2790  178.3520  147.2120 C   0  0  0  0  0  1  0  0  0  0  0  0
  185.7280  178.5790  147.3460 N   0  0  0  0  0  0  0  0  0  0  0  0
  186.7630  178.2550  142.8680 C   0  0  0  0  0  0  0  0  0  0  0  0
  186.9330  178.4360  146.5830 C   0  0  0  0  0  0  0  0  0  0  0  0
  185.2440  178.3870  142.7860 C   0  0  0  0  0  3  0  0  0  0  0  0
  187.4400  178.2630  144.0420 C   0  0  0  0  0  0  0  0  0  0  0  0
  186.6430  178.3970  145.2820 C   0  0  0  0  0  0  0  0  0  0  0  0
  187.4810  178.1050  141.5670 C   0  0  0  0  0  1  0  0  0  0  0  0
  183.1390  178.6380  144.1360 O   0  0  0  0  0  1  0  0  0  0  0  0
  184.7230  178.6280  146.5640 N   0  0  0  0  0  2  0  0  0  0  0  0
  189.6060  176.3800  145.6780 C   0  0  0  0  0  2  0  0  0  0  0  0
  190.9800  175.8790  146.1100 C   0  0  0  0  0  2  0  0  0  0  0  0
  192.6260  175.7870  147.9530 C   0  0  0  0  0  1  0  0  0  0  0  0
  191.2950  176.3570  147.5140 C   0  0  0  0  0  2  0  0  0  0  0  0
  1  7  1  0  0  0  0
  1  5  1  0  0  0  0
  4  1  2  0  0  0  0
  5  2  1  6  0  0  0
  5 22  1  0  0  0  0
  6  3  1  0  0  0  0
  7  3  1  0  0  0  0
  8 17  1  6  0  0  0
  8  5  1  0  0  0  0
  9  6  1  0  0  0  0
  9  8  1  0  0  0  0
 10 18  2  0  0  0  0
 10 21  1  0  0  0  0
 11 20  1  0  0  0  0
 11 10  1  0  0  0  0
 14 17  2  0  0  0  0
 15 12  1  0  0  0  0
 15 13  2  0  0  0  0
 16 14  1  0  0  0  0
 16 11  2  0  0  0  0
 17 18  1  0  0  0  0
 18 15  1  0  0  0  0
 19 14  1  0  0  0  0
 21 13  1  0  0  0  0
 22 23  1  0  0  0  0
 23 25  1  0  0  0  0
 25 24  1  0  0  0  0
M  END
>  <MODEL>
5

>  <REMARK>
 VINA RESULT:      -6.4      1.397      2.624
  Name = 
  4 active torsions:
  status: ('A' for Active; 'I' for Inactive)
    1  A    between atoms: C_10  and  C_17
    2  A    between atoms: C_10  and  C_18
    3  A    between atoms: C_12  and  C_17
    4  A    between atoms: C_14  and  C_23
                            x       y       z     vdW  Elec       q    Type
                         _______ _______ _______ _____ _____    ______ ____

>  <TORSDO>
F 4

$$$$
=
 OpenBabel11062418083D

 25 27  0  0  1  0  0  0  0  0999 V2000
  180.9000  178.8500  137.6320 C   0  0  0  0  0  0  0  0  0  0  0  0
  182.1390  180.3010  139.0620 O   0  0  0  0  0  1  0  0  0  0  0  0
  179.8250  176.6550  138.3550 C   0  0  0  0  0  2  0  0  0  0  0  0
  181.2270  179.6000  136.6730 O   0  0  0  0  0  0  0  0  0  0  0  0
  181.1410  179.3180  139.0610 C   0  0  2  0  0  0  0  0  0  0  0  0
  181.0020  176.1130  139.1810 C   0  0  0  0  0  2  0  0  0  0  0  0
  180.2830  177.5900  137.3340 N   0  0  0  0  0  2  0  0  0  0  0  0
  181.5550  178.1440  139.9910 C   0  0  1  0  0  3  0  0  0  0  0  0
  182.0600  177.0330  139.2990 O   0  0  0  0  0  0  0  0  0  0  0  0
  184.6580  179.0510  142.2260 C   0  0  0  0  0  0  0  0  0  0  0  0
  184.1400  179.2280  143.4350 C   0  0  0  0  0  0  0  0  0  0  0  0
  184.5040  178.2800  138.6670 C   0  0  0  0  0  1  0  0  0  0  0  0
  186.0770  178.9070  140.5930 N   0  0  0  0  0  0  0  0  0  0  0  0
  181.8460  178.6800  142.4030 C   0  0  0  0  0  0  0  0  0  0  0  0
  184.7650  178.6160  140.0930 C   0  0  0  0  0  0  0  0  0  0  0  0
  182.6510  179.0590  143.6430 C   0  0  0  0  0  2  0  0  0  0  0  0
  182.4110  178.5110  141.1820 C   0  0  0  0  0  0  0  0  0  0  0  0
  183.8750  178.7000  141.0820 C   0  0  0  0  0  0  0  0  0  0  0  0
  180.3780  178.4900  142.6030 C   0  0  0  0  0  1  0  0  0  0  0  0
  184.9550  179.5670  144.5070 O   0  0  0  0  0  1  0  0  0  0  0  0
  186.0180  179.1620  141.8400 N   0  0  0  0  0  0  0  0  0  0  0  0
  179.8520  179.9170  139.6360 C   0  0  0  0  0  2  0  0  0  0  0  0
  179.9040  181.4320  139.8030 C   0  0  0  0  0  2  0  0  0  0  0  0
  180.0810  182.8600  137.7920 C   0  0  0  0  0  1  0  0  0  0  0  0
  179.1250  182.1080  138.6920 C   0  0  0  0  0  2  0  0  0  0  0  0
  1  5  1  0  0  0  0
  3  6  1  0  0  0  0
  4  1  2  0  0  0  0
  5  2  1  1  0  0  0
  5 22  1  0  0  0  0
  5  8  1  0  0  0  0
  6  9  1  0  0  0  0
  7  1  1  0  0  0  0
  7  3  1  0  0  0  0
  8 17  1  1  0  0  0
  9  8  1  0  0  0  0
 10 11  2  0  0  0  0
 11 16  1  0  0  0  0
 11 20  1  0  0  0  0
 12 15  1  0  0  0  0
 13 21  2  0  0  0  0
 14 19  1  0  0  0  0
 14 16  1  0  0  0  0
 15 13  1  0  0  0  0
 15 18  2  0  0  0  0
 17 14  2  0  0  0  0
 18 17  1  0  0  0  0
 18 10  1  0  0  0  0
 21 10  1  0  0  0  0
 22 23  1  0  0  0  0
 24 25  1  0  0  0  0
 25 23  1  0  0  0  0
M  END
>  <MODEL>
6

>  <REMARK>
 VINA RESULT:      -6.4      6.352      9.638
  Name = 
  4 active torsions:
  status: ('A' for Active; 'I' for Inactive)
    1  A    between atoms: C_10  and  C_17
    2  A    between atoms: C_10  and  C_18
    3  A    between atoms: C_12  and  C_17
    4  A    between atoms: C_14  and  C_23
                            x       y       z     vdW  Elec       q    Type
                         _______ _______ _______ _____ _____    ______ ____

>  <TORSDO>
F 4

$$$$
=
 OpenBabel11062418083D

 25 27  0  0  1  0  0  0  0  0999 V2000
  180.1740  177.8860  138.3950 C   0  0  0  0  0  0  0  0  0  0  0  0
  180.7850  176.8490  140.4520 O   0  0  0  0  0  1  0  0  0  0  0  0
  181.1570  180.0650  137.5100 C   0  0  0  0  0  2  0  0  0  0  0  0
  179.2790  177.0070  138.2760 O   0  0  0  0  0  0  0  0  0  0  0  0
  181.2530  177.7150  139.4570 C   0  0  2  0  0  0  0  0  0  0  0  0
  181.1110  180.8600  138.8240 C   0  0  0  0  0  2  0  0  0  0  0  0
  180.1550  179.0060  137.4980 N   0  0  0  0  0  2  0  0  0  0  0  0
  181.6610  179.0740  140.0880 C   0  0  1  0  0  3  0  0  0  0  0  0
  180.6980  180.0820  139.9220 O   0  0  0  0  0  0  0  0  0  0  0  0
  184.1000  178.9250  143.1680 C   0  0  0  0  0  0  0  0  0  0  0  0
  183.2890  178.9140  144.2170 C   0  0  0  0  0  0  0  0  0  0  0  0
  184.8590  179.0030  139.6040 C   0  0  0  0  0  1  0  0  0  0  0  0
  185.8930  178.9120  141.9490 N   0  0  0  0  0  0  0  0  0  0  0  0
  181.3260  179.0030  142.5520 C   0  0  0  0  0  0  0  0  0  0  0  0
  184.7480  178.9640  141.0870 C   0  0  0  0  0  0  0  0  0  0  0  0
  181.7910  178.9560  144.0060 C   0  0  0  0  0  2  0  0  0  0  0  0
  182.1860  179.0170  141.5050 C   0  0  0  0  0  0  0  0  0  0  0  0
  183.6330  178.9740  141.8160 C   0  0  0  0  0  0  0  0  0  0  0  0
  179.8490  179.0230  142.3340 C   0  0  0  0  0  1  0  0  0  0  0  0
  183.8050  178.8640  145.5060 O   0  0  0  0  0  1  0  0  0  0  0  0
  185.5180  178.8890  143.1660 N   0  0  0  0  0  0  0  0  0  0  0  0
  182.5130  177.1130  138.8240 C   0  0  0  0  0  2  0  0  0  0  0  0
  182.6800  175.6230  139.0980 C   0  0  0  0  0  2  0  0  0  0  0  0
  184.2670  175.9980  137.2390 C   0  0  0  0  0  1  0  0  0  0  0  0
  183.4320  174.9620  137.9590 C   0  0  0  0  0  2  0  0  0  0  0  0
  1  5  1  0  0  0  0
  3  6  1  0  0  0  0
  4  1  2  0  0  0  0
  5  8  1  0  0  0  0
  5  2  1  1  0  0  0
  6  9  1  0  0  0  0
  7  3  1  0  0  0  0
  7  1  1  0  0  0  0
  8 17  1  1  0  0  0
  9  8  1  0  0  0  0
 10 11  2  0  0  0  0
 11 20  1  0  0  0  0
 12 15  1  0  0  0  0
 13 21  2  0  0  0  0
 14 16  1  0  0  0  0
 15 18  2  0  0  0  0
 15 13  1  0  0  0  0
 16 11  1  0  0  0  0
 17 18  1  0  0  0  0
 17 14  2  0  0  0  0
 18 10  1  0  0  0  0
 19 14  1  0  0  0  0
 21 10  1  0  0  0  0
 22 23  1  0  0  0  0
 22  5  1  0  0  0  0
 24 25  1  0  0  0  0
 25 23  1  0  0  0  0
M  END
>  <MODEL>
7

>  <REMARK>
 VINA RESULT:      -6.1      5.912      8.769
  Name = 
  4 active torsions:
  status: ('A' for Active; 'I' for Inactive)
    1  A    between atoms: C_10  and  C_17
    2  A    between atoms: C_10  and  C_18
    3  A    between atoms: C_12  and  C_17
    4  A    between atoms: C_14  and  C_23
                            x       y       z     vdW  Elec       q    Type
                         _______ _______ _______ _____ _____    ______ ____

>  <TORSDO>
F 4

$$$$
=
 OpenBabel11062418083D

 25 27  0  0  1  0  0  0  0  0999 V2000
  180.2250  178.0150  138.3180 C   0  0  0  0  0  0  0  0  0  0  0  0
  181.3290  176.8350  140.0700 O   0  0  0  0  0  1  0  0  0  0  0  0
  181.1240  180.1070  137.1730 C   0  0  0  0  0  2  0  0  0  0  0  0
  179.2420  177.2430  138.4870 O   0  0  0  0  0  0  0  0  0  0  0  0
  181.5560  177.6850  138.9800 C   0  0  2  0  0  0  0  0  0  0  0  0
  181.5870  180.8490  138.4360 C   0  0  0  0  0  2  0  0  0  0  0  0
  180.0540  179.1640  137.4770 N   0  0  0  0  0  2  0  0  0  0  0  0
  182.2980  178.9650  139.4530 C   0  0  1  0  0  3  0  0  0  0  0  0
  181.4550  180.0770  139.6060 O   0  0  0  0  0  0  0  0  0  0  0  0
  183.6670  178.6310  143.1230 C   0  0  0  0  0  0  0  0  0  0  0  0
  184.9730  178.4610  142.9620 C   0  0  0  0  0  0  0  0  0  0  0  0
  180.2540  179.1460  141.9550 C   0  0  0  0  0  1  0  0  0  0  0  0
  181.7170  178.8610  144.0410 N   0  0  0  0  0  0  0  0  0  0  0  0
  184.5630  178.6280  140.4250 C   0  0  0  0  0  0  0  0  0  0  0  0
  181.5700  178.9400  142.6170 C   0  0  0  0  0  0  0  0  0  0  0  0
  185.5590  178.4400  141.5670 C   0  0  0  0  0  3  0  0  0  0  0  0
  183.2330  178.7940  140.6290 C   0  0  0  0  0  0  0  0  0  0  0  0
  182.7580  178.7990  142.0310 C   0  0  0  0  0  0  0  0  0  0  0  0
  185.1350  178.6290  139.0460 C   0  0  0  0  0  1  0  0  0  0  0  0
  185.8040  178.3040  144.0640 O   0  0  0  0  0  1  0  0  0  0  0  0
  182.9420  178.6800  144.3410 N   0  0  0  0  0  2  0  0  0  0  0  0
  182.4740  176.9750  137.9780 C   0  0  0  0  0  2  0  0  0  0  0  0
  182.9890  175.6270  138.4710 C   0  0  0  0  0  2  0  0  0  0  0  0
  184.2410  176.0450  136.3800 C   0  0  0  0  0  1  0  0  0  0  0  0
  184.1290  175.1490  137.5940 C   0  0  0  0  0  2  0  0  0  0  0  0
  1  4  2  0  0  0  0
  1  5  1  0  0  0  0
  3  7  1  0  0  0  0
  3  6  1  0  0  0  0
  5  8  1  0  0  0  0
  5  2  1  1  0  0  0
  6  9  1  0  0  0  0
  7  1  1  0  0  0  0
  8  9  1  0  0  0  0
  8 17  1  1  0  0  0
 10 21  1  0  0  0  0
 11 10  1  0  0  0  0
 11 20  1  0  0  0  0
 12 15  1  0  0  0  0
 13 21  1  0  0  0  0
 14 17  2  0  0  0  0
 14 16  1  0  0  0  0
 15 13  2  0  0  0  0
 16 11  2  0  0  0  0
 17 18  1  0  0  0  0
 18 15  1  0  0  0  0
 18 10  2  0  0  0  0
 19 14  1  0  0  0  0
 22 23  1  0  0  0  0
 22  5  1  0  0  0  0
 24 25  1  0  0  0  0
 25 23  1  0  0  0  0
M  END
>  <MODEL>
8

>  <REMARK>
 VINA RESULT:      -6.0      5.791      8.871
  Name = 
  4 active torsions:
  status: ('A' for Active; 'I' for Inactive)
    1  A    between atoms: C_10  and  C_17
    2  A    between atoms: C_10  and  C_18
    3  A    between atoms: C_12  and  C_17
    4  A    between atoms: C_14  and  C_23
                            x       y       z     vdW  Elec       q    Type
                         _______ _______ _______ _____ _____    ______ ____

>  <TORSDO>
F 4

$$$$
=
 OpenBabel11062418083D

 25 27  0  0  1  0  0  0  0  0999 V2000
  190.4630  176.7180  141.7490 C   0  0  0  0  0  0  0  0  0  0  0  0
  188.3080  176.0540  142.5230 O   0  0  0  0  0  1  0  0  0  0  0  0
  192.0610  178.2490  143.0140 C   0  0  0  0  0  2  0  0  0  0  0  0
  190.1970  176.1350  140.6640 O   0  0  0  0  0  0  0  0  0  0  0  0
  189.5660  176.4910  142.9590 C   0  0  2  0  0  0  0  0  0  0  0  0
  191.0320  179.3050  143.4490 C   0  0  0  0  0  2  0  0  0  0  0  0
  191.6270  177.5550  141.8080 N   0  0  0  0  0  2  0  0  0  0  0  0
  189.4100  177.7800  143.8120 C   0  0  1  0  0  3  0  0  0  0  0  0
  189.7110  178.9570  143.1100 O   0  0  0  0  0  0  0  0  0  0  0  0
  186.8580  177.9040  146.7990 C   0  0  0  0  0  0  0  0  0  0  0  0
  185.6900  178.1330  146.2120 C   0  0  0  0  0  0  0  0  0  0  0  0
  190.4590  177.3440  146.8410 C   0  0  0  0  0  1  0  0  0  0  0  0
  188.3660  177.5350  148.3110 N   0  0  0  0  0  0  0  0  0  0  0  0
  186.9520  178.1320  143.9670 C   0  0  0  0  0  0  0  0  0  0  0  0
  188.9970  177.5530  147.0240 C   0  0  0  0  0  0  0  0  0  0  0  0
  185.6240  178.2750  144.7070 C   0  0  0  0  0  3  0  0  0  0  0  0
  188.1270  177.9020  144.6030 C   0  0  0  0  0  0  0  0  0  0  0  0
  188.0870  177.7790  146.0770 C   0  0  0  0  0  0  0  0  0  0  0  0
  186.8930  178.2500  142.4800 C   0  0  0  0  0  1  0  0  0  0  0  0
  184.5310  178.2430  146.9690 O   0  0  0  0  0  1  0  0  0  0  0  0
  187.1160  177.7410  148.1840 N   0  0  0  0  0  2  0  0  0  0  0  0
  190.1790  175.4180  143.8670 C   0  0  0  0  0  2  0  0  0  0  0  0
  191.6980  175.5000  143.9670 C   0  0  0  0  0  2  0  0  0  0  0  0
  192.4300  174.9110  146.2540 C   0  0  0  0  0  1  0  0  0  0  0  0
  192.2250  174.3860  144.8500 C   0  0  0  0  0  2  0  0  0  0  0  0
  1  7  1  0  0  0  0
  1  5  1  0  0  0  0
  3  6  1  0  0  0  0
  4  1  2  0  0  0  0
  5  2  1  6  0  0  0
  5  8  1  0  0  0  0
  5 22  1  0  0  0  0
  7  3  1  0  0  0  0
  8 17  1  6  0  0  0
  9  6  1  0  0  0  0
  9  8  1  0  0  0  0
 10 21  1  0  0  0  0
 11 10  1  0  0  0  0
 11 20  1  0  0  0  0
 12 15  1  0  0  0  0
 14 17  2  0  0  0  0
 14 16  1  0  0  0  0
 15 13  2  0  0  0  0
 16 11  2  0  0  0  0
 17 18  1  0  0  0  0
 18 10  2  0  0  0  0
 18 15  1  0  0  0  0
 19 14  1  0  0  0  0
 21 13  1  0  0  0  0
 22 23  1  0  0  0  0
 23 25  1  0  0  0  0
 25 24  1  0  0  0  0
M  END
>  <MODEL>
9

>  <REMARK>
 VINA RESULT:      -5.9      1.691      2.766
  Name = 
  4 active torsions:
  status: ('A' for Active; 'I' for Inactive)
    1  A    between atoms: C_10  and  C_17
    2  A    between atoms: C_10  and  C_18
    3  A    between atoms: C_12  and  C_17
    4  A    between atoms: C_14  and  C_23
                            x       y       z     vdW  Elec       q    Type
                         _______ _______ _______ _____ _____    ______ ____

>  <TORSDO>
F 4

$$$$
