=
 OpenBabel11062414373D

 38 42  0  0  1  0  0  0  0  0999 V2000
  191.8000  176.0730  136.0080 C   0  0  0  0  0  2  0  0  0  0  0  0
  190.4140  172.8230  134.7450 N   0  0  0  0  0  2  0  0  0  0  0  0
  191.7940  173.2770  134.5940 C   0  0  0  0  0  2  0  0  0  0  0  0
  190.1020  174.3100  136.7020 C   0  0  2  0  0  3  0  0  0  0  0  0
  191.5880  174.7040  136.6620 C   0  0  1  0  0  3  0  0  0  0  0  0
  194.2930  176.3740  135.6140 C   0  0  0  0  0  2  0  0  0  0  0  0
  193.9090  173.8140  135.8950 C   0  0  1  0  0  3  0  0  0  0  0  0
  193.0980  176.6730  136.5180 C   0  0  0  0  0  2  0  0  0  0  0  0
  189.5950  173.9070  135.2940 C   0  0  2  0  0  3  0  0  0  0  0  0
  192.3900  173.5920  135.9650 C   0  0  2  0  0  3  0  0  0  0  0  0
  194.3100  174.9780  134.9750 C   0  0  0  0  0  2  0  0  0  0  0  0
  194.5600  173.8730  137.2820 C   0  0  1  0  0  3  0  0  0  0  0  0
  195.1530  171.2880  136.6260 O   0  0  0  0  0  0  0  0  0  0  0  0
  198.0270  174.7550  136.4270 C   0  0  0  0  0  0  0  0  0  0  0  0
  197.9860  175.1290  137.7960 N   0  0  0  0  0  0  0  0  0  0  0  0
  196.7320  174.6890  138.3810 C   0  0  0  0  0  3  0  0  0  0  0  0
  195.4450  172.3250  137.6730 S   0  0  0  0  0  0  0  0  0  0  0  0
  196.8270  174.0290  135.9550 C   0  0  0  0  0  2  0  0  0  0  0  0
  196.0190  173.9740  137.2440 C   0  0  1  0  0  0  0  0  0  0  0  0
  195.1120  171.9440  139.0870 O   0  0  0  0  0  0  0  0  0  0  0  0
  199.0060  175.0260  135.6850 O   0  0  0  0  0  0  0  0  0  0  0  0
  189.1220  177.7200  137.7240 C   0  0  0  0  0  2  0  0  0  0  0  0
  189.1790  176.6640  136.6600 C   0  0  0  0  0  2  0  0  0  0  0  0
  189.7800  175.6560  138.7760 N   0  0  0  0  0  2  0  0  0  0  0  0
  189.2620  175.3700  137.4390 C   0  0  2  0  0  3  0  0  0  0  0  0
  189.8630  177.1070  138.8910 C   0  0  2  0  0  3  0  0  0  0  0  0
  189.1200  177.6440  140.4590 S   0  0  0  0  0  0  0  0  0  0  0  0
  191.7200  177.4810  140.8910 O   0  0  0  0  0  0  0  0  0  0  0  0
  190.5930  177.2430  141.4000 C   0  0  0  0  0  0  0  0  0  0  0  0
  190.4920  178.8150  143.8540 O   0  0  0  0  0  1  0  0  0  0  0  0
  190.4340  177.4630  143.9340 N   0  0  0  0  0  0  0  0  0  0  0  0
  190.4780  176.6510  142.7480 C   0  0  0  0  0  0  0  0  0  0  0  0
  190.4160  175.3950  142.8540 O   0  0  0  0  0  0  0  0  0  0  0  0
  190.3170  176.8330  145.2450 C   0  0  0  0  0  3  0  0  0  0  0  0
  189.4410  177.6730  146.1560 C   0  0  0  0  0  1  0  0  0  0  0  0
  191.6880  176.6520  145.8680 C   0  0  0  0  0  1  0  0  0  0  0  0
  188.1320  173.4710  135.2960 C   0  0  0  0  0  2  0  0  0  0  0  0
  187.3270  174.4420  134.6960 O   0  0  0  0  0  1  0  0  0  0  0  0
  1  8  1  0  0  0  0
  2  9  1  0  0  0  0
  3  2  1  0  0  0  0
  4 25  1  6  0  0  0
  5  1  1  6  0  0  0
  5  4  1  0  0  0  0
  6  8  1  0  0  0  0
  7 11  1  1  0  0  0
  7 10  1  0  0  0  0
  9 37  1  1  0  0  0
  9  4  1  0  0  0  0
 10  3  1  6  0  0  0
 10  5  1  0  0  0  0
 11  6  1  0  0  0  0
 12  7  1  6  0  0  0
 12 17  1  0  0  0  0
 13 17  2  0  0  0  0
 14 15  1  0  0  0  0
 15 16  2  0  0  0  0
 17 20  2  0  0  0  0
 18 14  1  0  0  0  0
 19 18  1  6  0  0  0
 19 12  1  0  0  0  0
 19 17  1  0  0  0  0
 19 16  1  0  0  0  0
 21 14  2  0  0  0  0
 22 26  1  0  0  0  0
 23 22  1  0  0  0  0
 24 26  1  0  0  0  0
 25 23  1  6  0  0  0
 25 24  1  0  0  0  0
 26 27  1  1  0  0  0
 27 29  1  0  0  0  0
 28 29  2  0  0  0  0
 29 32  1  0  0  0  0
 30 31  1  0  0  0  0
 31 34  1  0  0  0  0
 32 33  2  0  0  0  0
 32 31  1  0  0  0  0
 34 36  1  0  0  0  0
 34 35  1  0  0  0  0
 38 37  1  0  0  0  0
M  END
>  <MODEL>
1

>  <REMARK>
 VINA RESULT:      -6.8      0.000      0.000
  Name = 
  7 active torsions:
  status: ('A' for Active; 'I' for Inactive)
    1  A    between atoms: C_1  and  C_27
    2  A    between atoms: C_6  and  CA_32
    3  A    between atoms: S_8  and  C_18
    4  A    between atoms: S_8  and  C_35
    5  A    between atoms: N_11  and  C_13
    6  A    between atoms: C_12  and  C_18
    7  A    between atoms: C_21  and  C_23
                            x       y       z     vdW  Elec       q    Type
                         _______ _______ _______ _____ _____    ______ ____

>  <TORSDO>
F 7

$$$$
=
 OpenBabel11062414373D

 38 42  0  0  1  0  0  0  0  0999 V2000
  185.9070  178.8590  141.9800 C   0  0  0  0  0  2  0  0  0  0  0  0
  183.4240  179.1210  144.7800 N   0  0  0  0  0  2  0  0  0  0  0  0
  183.1720  179.4650  143.3830 C   0  0  0  0  0  2  0  0  0  0  0  0
  185.2810  177.6230  144.1140 C   0  0  2  0  0  3  0  0  0  0  0  0
  184.9550  177.8490  142.6280 C   0  0  1  0  0  3  0  0  0  0  0  0
  184.9750  179.4560  139.6920 C   0  0  0  0  0  2  0  0  0  0  0  0
  182.9820  178.4750  141.0510 C   0  0  1  0  0  3  0  0  0  0  0  0
  185.9620  178.6010  140.4850 C   0  0  0  0  0  2  0  0  0  0  0  0
  184.8490  178.8400  144.9710 C   0  0  2  0  0  3  0  0  0  0  0  0
  183.4790  178.2640  142.4900 C   0  0  2  0  0  3  0  0  0  0  0  0
  183.6150  179.6960  140.3640 C   0  0  0  0  0  2  0  0  0  0  0  0
  183.0470  177.1930  140.2120 C   0  0  1  0  0  3  0  0  0  0  0  0
  180.4210  177.0970  140.9650 O   0  0  0  0  0  0  0  0  0  0  0  0
  181.9320  178.4120  136.9260 C   0  0  0  0  0  0  0  0  0  0  0  0
  182.5890  177.2100  136.5560 N   0  0  0  0  0  0  0  0  0  0  0  0
  182.9550  176.4700  137.7510 C   0  0  0  0  0  3  0  0  0  0  0  0
  181.4050  176.4080  140.0620 S   0  0  0  0  0  0  0  0  0  0  0  0
  181.7810  178.6030  138.3860 C   0  0  0  0  0  2  0  0  0  0  0  0
  182.4250  177.3210  138.8940 C   0  0  1  0  0  0  0  0  0  0  0  0
  181.5740  174.9320  140.2780 O   0  0  0  0  0  0  0  0  0  0  0  0
  181.5170  179.2410  136.0760 O   0  0  0  0  0  0  0  0  0  0  0  0
  188.9570  177.9710  144.1500 C   0  0  0  0  0  2  0  0  0  0  0  0
  187.6310  178.2730  144.7840 C   0  0  0  0  0  2  0  0  0  0  0  0
  187.3000  176.5940  143.0740 N   0  0  0  0  0  2  0  0  0  0  0  0
  186.7360  177.1540  144.3010 C   0  0  2  0  0  3  0  0  0  0  0  0
  188.5980  177.2310  142.8820 C   0  0  2  0  0  3  0  0  0  0  0  0
  189.8530  175.9710  142.5140 S   0  0  0  0  0  0  0  0  0  0  0  0
  191.5220  177.8140  141.6230 O   0  0  0  0  0  0  0  0  0  0  0  0
  190.6400  176.9890  141.2650 C   0  0  0  0  0  0  0  0  0  0  0  0
  188.9770  178.9170  139.8430 O   0  0  0  0  0  1  0  0  0  0  0  0
  189.4340  177.8260  139.1820 N   0  0  0  0  0  0  0  0  0  0  0  0
  190.2600  176.8530  139.8440 C   0  0  0  0  0  0  0  0  0  0  0  0
  190.6750  175.8500  139.2000 O   0  0  0  0  0  0  0  0  0  0  0  0
  189.0860  177.6490  137.7750 C   0  0  0  0  0  3  0  0  0  0  0  0
  189.0270  178.9940  137.0750 C   0  0  0  0  0  1  0  0  0  0  0  0
  187.7520  176.9400  137.6460 C   0  0  0  0  0  1  0  0  0  0  0  0
  185.1210  178.6400  146.4590 C   0  0  0  0  0  2  0  0  0  0  0  0
  185.6140  179.8140  147.0330 O   0  0  0  0  0  1  0  0  0  0  0  0
  2  9  1  0  0  0  0
  3  2  1  0  0  0  0
  4 25  1  6  0  0  0
  4  9  1  0  0  0  0
  5  1  1  1  0  0  0
  5  4  1  0  0  0  0
  6 11  1  0  0  0  0
  6  8  1  0  0  0  0
  7 11  1  6  0  0  0
  7 10  1  0  0  0  0
  8  1  1  0  0  0  0
  9 37  1  1  0  0  0
 10  5  1  0  0  0  0
 10  3  1  1  0  0  0
 12 17  1  1  0  0  0
 12  7  1  0  0  0  0
 14 18  1  0  0  0  0
 15 14  1  0  0  0  0
 15 16  2  0  0  0  0
 17 20  2  0  0  0  0
 17 13  2  0  0  0  0
 18 19  1  0  0  0  0
 19 16  1  6  0  0  0
 19 17  1  0  0  0  0
 19 12  1  0  0  0  0
 21 14  2  0  0  0  0
 22 23  1  0  0  0  0
 24 25  1  0  0  0  0
 25 23  1  6  0  0  0
 26 27  1  1  0  0  0
 26 24  1  0  0  0  0
 26 22  1  0  0  0  0
 29 28  2  0  0  0  0
 29 27  1  0  0  0  0
 31 30  1  0  0  0  0
 31 32  1  0  0  0  0
 32 29  1  0  0  0  0
 33 32  2  0  0  0  0
 34 31  1  0  0  0  0
 35 34  1  0  0  0  0
 36 34  1  0  0  0  0
 37 38  1  0  0  0  0
M  END
>  <MODEL>
2

>  <REMARK>
 VINA RESULT:      -6.4      5.354     11.016
  Name = 
  7 active torsions:
  status: ('A' for Active; 'I' for Inactive)
    1  A    between atoms: C_1  and  C_27
    2  A    between atoms: C_6  and  CA_32
    3  A    between atoms: S_8  and  C_18
    4  A    between atoms: S_8  and  C_35
    5  A    between atoms: N_11  and  C_13
    6  A    between atoms: C_12  and  C_18
    7  A    between atoms: C_21  and  C_23
                            x       y       z     vdW  Elec       q    Type
                         _______ _______ _______ _____ _____    ______ ____

>  <TORSDO>
F 7

$$$$
=
 OpenBabel11062414373D

 38 42  0  0  1  0  0  0  0  0999 V2000
  192.8350  176.2510  136.5990 C   0  0  0  0  0  2  0  0  0  0  0  0
  190.0570  173.8410  135.8530 N   0  0  0  0  0  2  0  0  0  0  0  0
  191.4270  173.7430  135.3550 C   0  0  0  0  0  2  0  0  0  0  0  0
  190.8110  175.2340  137.7580 C   0  0  2  0  0  3  0  0  0  0  0  0
  192.2790  175.0350  137.3460 C   0  0  1  0  0  3  0  0  0  0  0  0
  195.0830  175.6000  135.6070 C   0  0  0  0  0  2  0  0  0  0  0  0
  193.8310  173.3680  136.0880 C   0  0  1  0  0  3  0  0  0  0  0  0
  194.3440  176.2850  136.7570 C   0  0  0  0  0  2  0  0  0  0  0  0
  189.8690  175.1260  136.5310 C   0  0  2  0  0  3  0  0  0  0  0  0
  192.4060  173.7370  136.5290 C   0  0  2  0  0  3  0  0  0  0  0  0
  194.4140  174.3370  135.0470 C   0  0  0  0  0  2  0  0  0  0  0  0
  194.7650  173.1050  137.2760 C   0  0  1  0  0  3  0  0  0  0  0  0
  194.0050  170.5360  136.7330 O   0  0  0  0  0  0  0  0  0  0  0  0
  197.9420  172.3950  135.5640 C   0  0  0  0  0  0  0  0  0  0  0  0
  198.4060  172.7190  136.8660 N   0  0  0  0  0  0  0  0  0  0  0  0
  197.2740  172.8600  137.7630 C   0  0  0  0  0  3  0  0  0  0  0  0
  194.9640  171.3170  137.5870 S   0  0  0  0  0  0  0  0  0  0  0  0
  196.4710  172.2800  135.4500 C   0  0  0  0  0  2  0  0  0  0  0  0
  196.0660  172.5570  136.8910 C   0  0  1  0  0  0  0  0  0  0  0  0
  194.8610  171.0890  139.0680 O   0  0  0  0  0  0  0  0  0  0  0  0
  198.7250  172.2250  134.5940 O   0  0  0  0  0  0  0  0  0  0  0  0
  191.5100  177.4960  140.5920 C   0  0  0  0  0  2  0  0  0  0  0  0
  191.9390  176.9080  139.2800 C   0  0  0  0  0  2  0  0  0  0  0  0
  189.6240  176.3220  139.6620 N   0  0  0  0  0  2  0  0  0  0  0  0
  190.6400  176.4950  138.6250 C   0  0  2  0  0  3  0  0  0  0  0  0
  190.2210  176.7740  140.9130 C   0  0  2  0  0  3  0  0  0  0  0  0
  189.0750  177.8880  141.7750 S   0  0  0  0  0  0  0  0  0  0  0  0
  189.4750  175.7420  143.2610 O   0  0  0  0  0  0  0  0  0  0  0  0
  189.1900  176.9670  143.3100 C   0  0  0  0  0  0  0  0  0  0  0  0
  186.6560  176.8740  144.7510 O   0  0  0  0  0  1  0  0  0  0  0  0
  187.6900  177.5740  145.2790 N   0  0  0  0  0  0  0  0  0  0  0  0
  188.9570  177.6420  144.6020 C   0  0  0  0  0  0  0  0  0  0  0  0
  189.9030  178.2970  145.1220 O   0  0  0  0  0  0  0  0  0  0  0  0
  187.5080  178.2560  146.5570 C   0  0  0  0  0  3  0  0  0  0  0  0
  187.9500  177.3600  147.6990 C   0  0  0  0  0  1  0  0  0  0  0  0
  186.0570  178.6530  146.7420 C   0  0  0  0  0  1  0  0  0  0  0  0
  188.3970  175.2800  136.9030 C   0  0  0  0  0  2  0  0  0  0  0  0
  187.9620  176.5850  136.6630 O   0  0  0  0  0  1  0  0  0  0  0  0
  1  8  1  0  0  0  0
  2  9  1  0  0  0  0
  3  2  1  0  0  0  0
  4 25  1  6  0  0  0
  5  1  1  6  0  0  0
  5  4  1  0  0  0  0
  6  8  1  0  0  0  0
  7 11  1  1  0  0  0
  7 10  1  0  0  0  0
  9 37  1  1  0  0  0
  9  4  1  0  0  0  0
 10  3  1  6  0  0  0
 10  5  1  0  0  0  0
 11  6  1  0  0  0  0
 12  7  1  6  0  0  0
 12 17  1  0  0  0  0
 13 17  2  0  0  0  0
 14 15  1  0  0  0  0
 15 16  2  0  0  0  0
 17 20  2  0  0  0  0
 18 14  1  0  0  0  0
 19 18  1  6  0  0  0
 19 12  1  0  0  0  0
 19 17  1  0  0  0  0
 19 16  1  0  0  0  0
 21 14  2  0  0  0  0
 22 26  1  0  0  0  0
 23 22  1  0  0  0  0
 24 26  1  0  0  0  0
 25 23  1  1  0  0  0
 25 24  1  0  0  0  0
 26 27  1  6  0  0  0
 27 29  1  0  0  0  0
 28 29  2  0  0  0  0
 29 32  1  0  0  0  0
 30 31  1  0  0  0  0
 31 34  1  0  0  0  0
 32 33  2  0  0  0  0
 32 31  1  0  0  0  0
 34 36  1  0  0  0  0
 34 35  1  0  0  0  0
 38 37  1  0  0  0  0
M  END
>  <MODEL>
3

>  <REMARK>
 VINA RESULT:      -6.4      1.802      2.452
  Name = 
  7 active torsions:
  status: ('A' for Active; 'I' for Inactive)
    1  A    between atoms: C_1  and  C_27
    2  A    between atoms: C_6  and  CA_32
    3  A    between atoms: S_8  and  C_18
    4  A    between atoms: S_8  and  C_35
    5  A    between atoms: N_11  and  C_13
    6  A    between atoms: C_12  and  C_18
    7  A    between atoms: C_21  and  C_23
                            x       y       z     vdW  Elec       q    Type
                         _______ _______ _______ _____ _____    ______ ____

>  <TORSDO>
F 7

$$$$
=
 OpenBabel11062414373D

 38 42  0  0  1  0  0  0  0  0999 V2000
  184.9350  177.7770  139.0440 C   0  0  0  0  0  2  0  0  0  0  0  0
  183.5550  174.6080  137.5830 N   0  0  0  0  0  2  0  0  0  0  0  0
  182.9340  175.4000  138.6420 C   0  0  0  0  0  2  0  0  0  0  0  0
  184.8220  176.5870  136.7970 C   0  0  2  0  0  3  0  0  0  0  0  0
  184.0820  177.4830  137.8060 C   0  0  1  0  0  3  0  0  0  0  0  0
  183.4390  178.8680  140.7840 C   0  0  0  0  0  2  0  0  0  0  0  0
  181.8470  177.6440  139.1270 C   0  0  1  0  0  3  0  0  0  0  0  0
  184.4680  179.0760  139.6730 C   0  0  0  0  0  2  0  0  0  0  0  0
  184.8980  175.1240  137.3040 C   0  0  2  0  0  3  0  0  0  0  0  0
  182.7330  176.8370  138.1650 C   0  0  2  0  0  3  0  0  0  0  0  0
  182.4250  177.7400  140.5480 C   0  0  0  0  0  2  0  0  0  0  0  0
  181.4230  178.9970  138.5420 C   0  0  1  0  0  3  0  0  0  0  0  0
  179.2240  177.5170  137.8740 O   0  0  0  0  0  0  0  0  0  0  0  0
  179.4720  180.4150  141.3190 C   0  0  0  0  0  0  0  0  0  0  0  0
  179.7690  181.5870  140.5750 N   0  0  0  0  0  0  0  0  0  0  0  0
  180.3940  181.2170  139.3180 C   0  0  0  0  0  3  0  0  0  0  0  0
  179.7250  178.9340  137.8740 S   0  0  0  0  0  0  0  0  0  0  0  0
  179.8540  179.1510  140.6490 C   0  0  0  0  0  2  0  0  0  0  0  0
  180.4210  179.6970  139.3460 C   0  0  1  0  0  0  0  0  0  0  0  0
  179.7230  179.6320  136.5440 O   0  0  0  0  0  0  0  0  0  0  0  0
  178.9310  180.4580  142.4540 O   0  0  0  0  0  0  0  0  0  0  0  0
  188.2080  176.6310  135.3270 C   0  0  0  0  0  2  0  0  0  0  0  0
  186.7230  176.5500  135.1310 C   0  0  0  0  0  2  0  0  0  0  0  0
  187.1620  177.1730  137.4270 N   0  0  0  0  0  2  0  0  0  0  0  0
  186.1580  177.2180  136.3650 C   0  0  2  0  0  3  0  0  0  0  0  0
  188.3810  176.6420  136.8290 C   0  0  2  0  0  3  0  0  0  0  0  0
  189.7970  177.6810  137.2910 S   0  0  0  0  0  0  0  0  0  0  0  0
  190.5470  175.8250  139.0130 O   0  0  0  0  0  0  0  0  0  0  0  0
  189.9410  176.9240  138.9100 C   0  0  0  0  0  0  0  0  0  0  0  0
  190.3590  176.0020  141.6450 O   0  0  0  0  0  1  0  0  0  0  0  0
  189.5890  177.0970  141.4280 N   0  0  0  0  0  0  0  0  0  0  0  0
  189.3610  177.5860  140.0950 C   0  0  0  0  0  0  0  0  0  0  0  0
  188.6440  178.6110  139.9270 O   0  0  0  0  0  0  0  0  0  0  0  0
  188.9970  177.7870  142.5700 C   0  0  0  0  0  3  0  0  0  0  0  0
  190.0790  178.2340  143.5340 C   0  0  0  0  0  1  0  0  0  0  0  0
  188.0120  176.8800  143.2820 C   0  0  0  0  0  1  0  0  0  0  0  0
  185.5910  174.1930  136.3130 C   0  0  0  0  0  2  0  0  0  0  0  0
  186.4620  173.3270  136.9770 O   0  0  0  0  0  1  0  0  0  0  0  0
  1  8  1  0  0  0  0
  2  3  1  0  0  0  0
  4 25  1  1  0  0  0
  4  9  1  0  0  0  0
  4  5  1  0  0  0  0
  5 10  1  0  0  0  0
  5  1  1  1  0  0  0
  7 11  1  1  0  0  0
  8  6  1  0  0  0  0
  9 37  1  6  0  0  0
  9  2  1  0  0  0  0
 10  3  1  1  0  0  0
 10  7  1  0  0  0  0
 11  6  1  0  0  0  0
 12 17  1  6  0  0  0
 12  7  1  0  0  0  0
 12 19  1  0  0  0  0
 13 17  2  0  0  0  0
 14 21  2  0  0  0  0
 15 14  1  0  0  0  0
 16 15  2  0  0  0  0
 17 19  1  0  0  0  0
 18 14  1  0  0  0  0
 19 16  1  6  0  0  0
 19 18  1  0  0  0  0
 20 17  2  0  0  0  0
 22 26  1  0  0  0  0
 23 22  1  0  0  0  0
 25 23  1  6  0  0  0
 25 24  1  0  0  0  0
 26 27  1  6  0  0  0
 26 24  1  0  0  0  0
 27 29  1  0  0  0  0
 29 28  2  0  0  0  0
 29 32  1  0  0  0  0
 31 30  1  0  0  0  0
 31 34  1  0  0  0  0
 32 31  1  0  0  0  0
 33 32  2  0  0  0  0
 34 36  1  0  0  0  0
 34 35  1  0  0  0  0
 37 38  1  0  0  0  0
M  END
>  <MODEL>
4

>  <REMARK>
 VINA RESULT:      -6.0      6.234     10.876
  Name = 
  7 active torsions:
  status: ('A' for Active; 'I' for Inactive)
    1  A    between atoms: C_1  and  C_27
    2  A    between atoms: C_6  and  CA_32
    3  A    between atoms: S_8  and  C_18
    4  A    between atoms: S_8  and  C_35
    5  A    between atoms: N_11  and  C_13
    6  A    between atoms: C_12  and  C_18
    7  A    between atoms: C_21  and  C_23
                            x       y       z     vdW  Elec       q    Type
                         _______ _______ _______ _____ _____    ______ ____

>  <TORSDO>
F 7

$$$$
=
 OpenBabel11062414373D

 38 42  0  0  1  0  0  0  0  0999 V2000
  184.3230  176.6780  138.2460 C   0  0  0  0  0  2  0  0  0  0  0  0
  182.0380  174.1940  136.6070 N   0  0  0  0  0  2  0  0  0  0  0  0
  181.6300  175.2390  137.5440 C   0  0  0  0  0  2  0  0  0  0  0  0
  184.0810  175.4670  136.0210 C   0  0  2  0  0  3  0  0  0  0  0  0
  183.6150  176.6490  136.8880 C   0  0  1  0  0  3  0  0  0  0  0  0
  183.1400  178.3860  139.7100 C   0  0  0  0  0  2  0  0  0  0  0  0
  181.4560  177.7570  137.8260 C   0  0  1  0  0  3  0  0  0  0  0  0
  184.3180  178.0990  138.7790 C   0  0  0  0  0  2  0  0  0  0  0  0
  183.5000  174.1290  136.5460 C   0  0  2  0  0  3  0  0  0  0  0  0
  182.0830  176.6030  137.0280 C   0  0  2  0  0  3  0  0  0  0  0  0
  181.8100  177.7230  139.3210 C   0  0  0  0  0  2  0  0  0  0  0  0
  181.6890  179.1230  137.1680 C   0  0  1  0  0  3  0  0  0  0  0  0
  179.3620  178.4210  135.9180 O   0  0  0  0  0  0  0  0  0  0  0  0
  179.7090  181.3300  139.3440 C   0  0  0  0  0  0  0  0  0  0  0  0
  180.5720  182.2710  138.7230 N   0  0  0  0  0  0  0  0  0  0  0  0
  181.3290  181.6140  137.6730 C   0  0  0  0  0  3  0  0  0  0  0  0
  180.3040  179.5820  136.0710 S   0  0  0  0  0  0  0  0  0  0  0  0
  179.7880  179.9630  138.7830 C   0  0  0  0  0  2  0  0  0  0  0  0
  180.8210  180.1810  137.6860 C   0  0  1  0  0  0  0  0  0  0  0  0
  180.8820  180.1320  134.7980 O   0  0  0  0  0  0  0  0  0  0  0  0
  178.9460  181.6430  140.2950 O   0  0  0  0  0  0  0  0  0  0  0  0
  187.6300  175.3990  137.0400 C   0  0  0  0  0  2  0  0  0  0  0  0
  186.3360  174.6660  136.8370 C   0  0  0  0  0  2  0  0  0  0  0  0
  186.1420  176.8580  135.8330 N   0  0  0  0  0  2  0  0  0  0  0  0
  185.6050  175.4980  135.8070 C   0  0  2  0  0  3  0  0  0  0  0  0
  187.2870  176.8400  136.7350 C   0  0  2  0  0  3  0  0  0  0  0  0
  188.7010  177.6690  135.9530 S   0  0  0  0  0  0  0  0  0  0  0  0
  189.0520  179.6900  137.6150 O   0  0  0  0  0  0  0  0  0  0  0  0
  189.2100  178.4480  137.4860 C   0  0  0  0  0  0  0  0  0  0  0  0
  188.3120  178.5700  140.2580 O   0  0  0  0  0  1  0  0  0  0  0  0
  189.3250  177.7310  139.9290 N   0  0  0  0  0  0  0  0  0  0  0  0
  189.7960  177.6380  138.5730 C   0  0  0  0  0  0  0  0  0  0  0  0
  190.7370  176.8440  138.2970 O   0  0  0  0  0  0  0  0  0  0  0  0
  189.9340  176.9090  140.9700 C   0  0  0  0  0  3  0  0  0  0  0  0
  189.0000  176.7880  142.1590 C   0  0  0  0  0  1  0  0  0  0  0  0
  191.2560  177.5080  141.4100 C   0  0  0  0  0  1  0  0  0  0  0  0
  183.9080  172.9330  135.6890 C   0  0  0  0  0  2  0  0  0  0  0  0
  182.7940  172.1560  135.3650 O   0  0  0  0  0  1  0  0  0  0  0  0
  1  8  1  0  0  0  0
  2  3  1  0  0  0  0
  4 25  1  1  0  0  0
  4  9  1  0  0  0  0
  4  5  1  0  0  0  0
  5 10  1  0  0  0  0
  5  1  1  1  0  0  0
  7 11  1  1  0  0  0
  8  6  1  0  0  0  0
  9 37  1  6  0  0  0
  9  2  1  0  0  0  0
 10  3  1  1  0  0  0
 10  7  1  0  0  0  0
 11  6  1  0  0  0  0
 12 17  1  6  0  0  0
 12 19  1  0  0  0  0
 12  7  1  0  0  0  0
 13 17  2  0  0  0  0
 14 21  2  0  0  0  0
 15 14  1  0  0  0  0
 16 15  2  0  0  0  0
 17 19  1  0  0  0  0
 18 14  1  0  0  0  0
 19 16  1  6  0  0  0
 19 18  1  0  0  0  0
 20 17  2  0  0  0  0
 23 22  1  0  0  0  0
 24 26  1  0  0  0  0
 25 24  1  0  0  0  0
 25 23  1  1  0  0  0
 26 27  1  6  0  0  0
 26 22  1  0  0  0  0
 27 29  1  0  0  0  0
 29 28  2  0  0  0  0
 29 32  1  0  0  0  0
 31 30  1  0  0  0  0
 31 34  1  0  0  0  0
 32 31  1  0  0  0  0
 33 32  2  0  0  0  0
 34 36  1  0  0  0  0
 34 35  1  0  0  0  0
 38 37  1  0  0  0  0
M  END
>  <MODEL>
5

>  <REMARK>
 VINA RESULT:      -5.5      6.400     10.973
  Name = 
  7 active torsions:
  status: ('A' for Active; 'I' for Inactive)
    1  A    between atoms: C_1  and  C_27
    2  A    between atoms: C_6  and  CA_32
    3  A    between atoms: S_8  and  C_18
    4  A    between atoms: S_8  and  C_35
    5  A    between atoms: N_11  and  C_13
    6  A    between atoms: C_12  and  C_18
    7  A    between atoms: C_21  and  C_23
                            x       y       z     vdW  Elec       q    Type
                         _______ _______ _______ _____ _____    ______ ____

>  <TORSDO>
F 7

$$$$
=
 OpenBabel11062414373D

 38 42  0  0  1  0  0  0  0  0999 V2000
  187.1900  174.7020  135.9910 C   0  0  0  0  0  2  0  0  0  0  0  0
  187.0360  178.4420  135.7410 N   0  0  0  0  0  2  0  0  0  0  0  0
  186.0390  177.5110  135.2180 C   0  0  0  0  0  2  0  0  0  0  0  0
  187.8180  176.7470  137.3690 C   0  0  2  0  0  3  0  0  0  0  0  0
  186.6890  175.7920  136.9440 C   0  0  1  0  0  3  0  0  0  0  0  0
  185.1620  173.5020  135.0390 C   0  0  0  0  0  2  0  0  0  0  0  0
  184.2990  175.7970  135.9160 C   0  0  1  0  0  3  0  0  0  0  0  0
  186.2730  173.4970  136.0890 C   0  0  0  0  0  2  0  0  0  0  0  0
  188.2080  177.6980  136.2100 C   0  0  2  0  0  3  0  0  0  0  0  0
  185.5330  176.6090  136.3420 C   0  0  2  0  0  3  0  0  0  0  0  0
  184.5630  174.8780  134.7130 C   0  0  0  0  0  2  0  0  0  0  0  0
  183.6250  175.0880  137.0970 C   0  0  1  0  0  3  0  0  0  0  0  0
  182.6470  177.6110  137.4800 O   0  0  0  0  0  0  0  0  0  0  0  0
  180.3710  174.1800  135.6450 C   0  0  0  0  0  0  0  0  0  0  0  0
  180.4300  173.2870  136.7460 N   0  0  0  0  0  0  0  0  0  0  0  0
  181.5800  173.6110  137.5710 C   0  0  0  0  0  3  0  0  0  0  0  0
  182.4940  176.2060  137.9920 S   0  0  0  0  0  0  0  0  0  0  0  0
  181.4530  175.1890  135.6160 C   0  0  0  0  0  2  0  0  0  0  0  0
  182.2030  174.8170  136.8870 C   0  0  1  0  0  0  0  0  0  0  0  0
  182.7190  176.0140  139.4650 O   0  0  0  0  0  0  0  0  0  0  0  0
  179.4690  174.1090  134.7700 O   0  0  0  0  0  0  0  0  0  0  0  0
  191.0330  176.3760  139.1460 C   0  0  0  0  0  2  0  0  0  0  0  0
  189.5800  176.7510  139.1810 C   0  0  0  0  0  2  0  0  0  0  0  0
  190.0390  175.6540  137.0750 N   0  0  0  0  0  2  0  0  0  0  0  0
  188.9790  175.9800  138.0280 C   0  0  2  0  0  3  0  0  0  0  0  0
  191.2960  176.0620  137.6910 C   0  0  2  0  0  3  0  0  0  0  0  0
  192.5160  174.7240  137.5480 S   0  0  0  0  0  0  0  0  0  0  0  0
  193.8440  177.0000  137.3820 O   0  0  0  0  0  0  0  0  0  0  0  0
  193.7890  175.8260  136.9310 C   0  0  0  0  0  0  0  0  0  0  0  0
  196.4640  174.8580  137.5700 O   0  0  0  0  0  1  0  0  0  0  0  0
  196.0660  174.8880  136.2750 N   0  0  0  0  0  0  0  0  0  0  0  0
  194.7530  175.3550  135.9170 C   0  0  0  0  0  0  0  0  0  0  0  0
  194.4100  175.3670  134.7030 O   0  0  0  0  0  0  0  0  0  0  0  0
  196.9850  174.4300  135.2370 C   0  0  0  0  0  3  0  0  0  0  0  0
  197.1080  172.9190  135.2740 C   0  0  0  0  0  1  0  0  0  0  0  0
  198.3490  175.0650  135.4230 C   0  0  0  0  0  1  0  0  0  0  0  0
  189.3000  178.6900  136.6030 C   0  0  0  0  0  2  0  0  0  0  0  0
  188.7790  179.7040  137.4100 O   0  0  0  0  0  1  0  0  0  0  0  0
  1  8  1  0  0  0  0
  2  9  1  0  0  0  0
  3  2  1  0  0  0  0
  4 25  1  6  0  0  0
  5  1  1  6  0  0  0
  5  4  1  0  0  0  0
  6  8  1  0  0  0  0
  7 11  1  6  0  0  0
  7 10  1  0  0  0  0
  9 37  1  1  0  0  0
  9  4  1  0  0  0  0
 10  3  1  6  0  0  0
 10  5  1  0  0  0  0
 11  6  1  0  0  0  0
 12  7  1  6  0  0  0
 12 17  1  0  0  0  0
 13 17  2  0  0  0  0
 14 15  1  0  0  0  0
 15 16  2  0  0  0  0
 17 20  2  0  0  0  0
 18 14  1  0  0  0  0
 19 18  1  6  0  0  0
 19 12  1  0  0  0  0
 19 16  1  0  0  0  0
 19 17  1  0  0  0  0
 21 14  2  0  0  0  0
 22 23  1  0  0  0  0
 24 26  1  0  0  0  0
 24 25  1  0  0  0  0
 25 23  1  1  0  0  0
 26 27  1  1  0  0  0
 26 22  1  0  0  0  0
 29 28  2  0  0  0  0
 29 27  1  0  0  0  0
 31 30  1  0  0  0  0
 32 31  1  0  0  0  0
 32 29  1  0  0  0  0
 33 32  2  0  0  0  0
 34 35  1  0  0  0  0
 34 36  1  0  0  0  0
 34 31  1  0  0  0  0
 37 38  1  0  0  0  0
M  END
>  <MODEL>
6

>  <REMARK>
 VINA RESULT:      -5.4      4.427     10.157
  Name = 
  7 active torsions:
  status: ('A' for Active; 'I' for Inactive)
    1  A    between atoms: C_1  and  C_27
    2  A    between atoms: C_6  and  CA_32
    3  A    between atoms: S_8  and  C_18
    4  A    between atoms: S_8  and  C_35
    5  A    between atoms: N_11  and  C_13
    6  A    between atoms: C_12  and  C_18
    7  A    between atoms: C_21  and  C_23
                            x       y       z     vdW  Elec       q    Type
                         _______ _______ _______ _____ _____    ______ ____

>  <TORSDO>
F 7

$$$$
=
 OpenBabel11062414373D

 38 42  0  0  1  0  0  0  0  0999 V2000
  184.3420  179.7720  140.1960 C   0  0  0  0  0  2  0  0  0  0  0  0
  183.1170  178.4560  143.4890 N   0  0  0  0  0  2  0  0  0  0  0  0
  182.2960  178.6770  142.3010 C   0  0  0  0  0  2  0  0  0  0  0  0
  185.1560  178.2830  142.0920 C   0  0  2  0  0  3  0  0  0  0  0  0
  184.3080  178.3700  140.8120 C   0  0  1  0  0  3  0  0  0  0  0  0
  182.5660  179.8730  138.3800 C   0  0  0  0  0  2  0  0  0  0  0  0
  181.9140  177.8770  139.9200 C   0  0  1  0  0  3  0  0  0  0  0  0
  184.0450  179.6700  138.7110 C   0  0  0  0  0  2  0  0  0  0  0  0
  184.4580  179.0060  143.2720 C   0  0  2  0  0  3  0  0  0  0  0  0
  182.8750  177.9010  141.1190 C   0  0  2  0  0  3  0  0  0  0  0  0
  181.5730  179.2780  139.3890 C   0  0  0  0  0  2  0  0  0  0  0  0
  182.3580  176.8950  138.8290 C   0  0  1  0  0  3  0  0  0  0  0  0
  180.4470  175.3670  140.0470 O   0  0  0  0  0  0  0  0  0  0  0  0
  179.9180  177.6050  136.1690 C   0  0  0  0  0  0  0  0  0  0  0  0
  180.9450  176.9650  135.4270 N   0  0  0  0  0  0  0  0  0  0  0  0
  181.9440  176.4360  136.3370 C   0  0  0  0  0  3  0  0  0  0  0  0
  181.3430  175.3780  138.8410 S   0  0  0  0  0  0  0  0  0  0  0  0
  180.1100  177.5680  137.6370 C   0  0  0  0  0  2  0  0  0  0  0  0
  181.4120  176.7820  137.7190 C   0  0  1  0  0  0  0  0  0  0  0  0
  182.2650  174.2010  138.6960 O   0  0  0  0  0  0  0  0  0  0  0  0
  178.9320  178.1560  135.6170 O   0  0  0  0  0  0  0  0  0  0  0  0
  188.4860  178.0520  140.5130 C   0  0  0  0  0  2  0  0  0  0  0  0
  187.0300  178.3990  140.3990 C   0  0  0  0  0  2  0  0  0  0  0  0
  187.5530  178.0350  142.7330 N   0  0  0  0  0  2  0  0  0  0  0  0
  186.6150  178.6930  141.8240 C   0  0  2  0  0  3  0  0  0  0  0  0
  188.6200  177.4830  141.9080 C   0  0  2  0  0  3  0  0  0  0  0  0
  190.2340  177.9220  142.6130 S   0  0  0  0  0  0  0  0  0  0  0  0
  190.2390  175.2950  142.8730 O   0  0  0  0  0  0  0  0  0  0  0  0
  190.3670  176.3740  143.5080 C   0  0  0  0  0  0  0  0  0  0  0  0
  188.4230  177.2470  145.4990 O   0  0  0  0  0  1  0  0  0  0  0  0
  189.6410  176.8170  145.9110 N   0  0  0  0  0  0  0  0  0  0  0  0
  190.6270  176.3750  144.9620 C   0  0  0  0  0  0  0  0  0  0  0  0
  191.7500  175.9750  145.3770 O   0  0  0  0  0  0  0  0  0  0  0  0
  189.9420  176.7970  147.3390 C   0  0  0  0  0  3  0  0  0  0  0  0
  189.0250  177.7490  148.0830 C   0  0  0  0  0  1  0  0  0  0  0  0
  191.3900  177.1800  147.5780 C   0  0  0  0  0  1  0  0  0  0  0  0
  185.2500  178.9100  144.5730 C   0  0  0  0  0  2  0  0  0  0  0  0
  185.1620  177.6240  145.1110 O   0  0  0  0  0  1  0  0  0  0  0  0
  3  2  1  0  0  0  0
  4 25  1  6  0  0  0
  4  9  1  0  0  0  0
  5  1  1  1  0  0  0
  5 10  1  0  0  0  0
  5  4  1  0  0  0  0
  6  8  1  0  0  0  0
  6 11  1  0  0  0  0
  7 11  1  6  0  0  0
  7 10  1  0  0  0  0
  8  1  1  0  0  0  0
  9  2  1  0  0  0  0
  9 37  1  1  0  0  0
 10  3  1  1  0  0  0
 12 17  1  1  0  0  0
 12  7  1  0  0  0  0
 14 18  1  0  0  0  0
 15 14  1  0  0  0  0
 15 16  2  0  0  0  0
 17 13  2  0  0  0  0
 18 19  1  0  0  0  0
 19 16  1  6  0  0  0
 19 12  1  0  0  0  0
 19 17  1  0  0  0  0
 20 17  2  0  0  0  0
 21 14  2  0  0  0  0
 22 26  1  0  0  0  0
 23 22  1  0  0  0  0
 25 23  1  6  0  0  0
 25 24  1  0  0  0  0
 26 27  1  1  0  0  0
 26 24  1  0  0  0  0
 27 29  1  0  0  0  0
 28 29  2  0  0  0  0
 29 32  1  0  0  0  0
 30 31  1  0  0  0  0
 31 34  1  0  0  0  0
 32 33  2  0  0  0  0
 32 31  1  0  0  0  0
 34 36  1  0  0  0  0
 34 35  1  0  0  0  0
 37 38  1  0  0  0  0
M  END
>  <MODEL>
7

>  <REMARK>
 VINA RESULT:      -5.4      6.733     10.822
  Name = 
  7 active torsions:
  status: ('A' for Active; 'I' for Inactive)
    1  A    between atoms: C_1  and  C_27
    2  A    between atoms: C_6  and  CA_32
    3  A    between atoms: S_8  and  C_18
    4  A    between atoms: S_8  and  C_35
    5  A    between atoms: N_11  and  C_13
    6  A    between atoms: C_12  and  C_18
    7  A    between atoms: C_21  and  C_23
                            x       y       z     vdW  Elec       q    Type
                         _______ _______ _______ _____ _____    ______ ____

>  <TORSDO>
F 7

$$$$
=
 OpenBabel11062414373D

 38 42  0  0  1  0  0  0  0  0999 V2000
  185.1380  177.9240  138.5620 C   0  0  0  0  0  2  0  0  0  0  0  0
  183.5910  174.6740  137.5020 N   0  0  0  0  0  2  0  0  0  0  0  0
  182.9650  175.6750  138.3630 C   0  0  0  0  0  2  0  0  0  0  0  0
  185.0870  176.3930  136.5300 C   0  0  2  0  0  3  0  0  0  0  0  0
  184.3580  177.4970  137.3140 C   0  0  1  0  0  3  0  0  0  0  0  0
  183.6190  179.4000  139.9670 C   0  0  0  0  0  2  0  0  0  0  0  0
  182.0530  178.0460  138.3880 C   0  0  1  0  0  3  0  0  0  0  0  0
  184.7440  179.3420  138.9330 C   0  0  0  0  0  2  0  0  0  0  0  0
  184.9910  175.0320  137.2660 C   0  0  2  0  0  3  0  0  0  0  0  0
  182.9320  177.0250  137.6490 C   0  0  2  0  0  3  0  0  0  0  0  0
  182.5280  178.3300  139.8220 C   0  0  0  0  0  2  0  0  0  0  0  0
  181.7990  179.3130  137.5610 C   0  0  1  0  0  3  0  0  0  0  0  0
  179.6090  177.8540  136.8210 O   0  0  0  0  0  0  0  0  0  0  0  0
  179.6080  181.2280  139.8120 C   0  0  0  0  0  0  0  0  0  0  0  0
  180.0760  182.2570  138.9540 N   0  0  0  0  0  0  0  0  0  0  0  0
  180.8310  181.6710  137.8610 C   0  0  0  0  0  3  0  0  0  0  0  0
  180.2000  179.2290  136.6840 S   0  0  0  0  0  0  0  0  0  0  0  0
  179.9870  179.8600  139.3900 C   0  0  0  0  0  2  0  0  0  0  0  0
  180.7520  180.1740  138.1120 C   0  0  1  0  0  0  0  0  0  0  0  0
  180.4140  179.7160  135.2800 O   0  0  0  0  0  0  0  0  0  0  0  0
  178.9310  181.4680  140.8440 O   0  0  0  0  0  0  0  0  0  0  0  0
  188.5890  175.9260  135.4590 C   0  0  0  0  0  2  0  0  0  0  0  0
  187.1270  175.8910  135.1240 C   0  0  0  0  0  2  0  0  0  0  0  0
  187.3970  176.9630  137.2750 N   0  0  0  0  0  2  0  0  0  0  0  0
  186.5040  176.8380  136.1250 C   0  0  2  0  0  3  0  0  0  0  0  0
  188.6210  176.2470  136.9360 C   0  0  2  0  0  3  0  0  0  0  0  0
  190.0650  177.2760  137.3240 S   0  0  0  0  0  0  0  0  0  0  0  0
  190.4900  176.0200  139.6080 O   0  0  0  0  0  0  0  0  0  0  0  0
  190.7870  176.0230  138.3850 C   0  0  0  0  0  0  0  0  0  0  0  0
  193.6400  176.4810  137.9870 O   0  0  0  0  0  1  0  0  0  0  0  0
  193.1100  175.2820  137.6420 N   0  0  0  0  0  0  0  0  0  0  0  0
  191.7090  175.0140  137.8240 C   0  0  0  0  0  0  0  0  0  0  0  0
  191.2460  173.8870  137.4970 O   0  0  0  0  0  0  0  0  0  0  0  0
  193.9830  174.2530  137.0850 C   0  0  0  0  0  3  0  0  0  0  0  0
  194.8110  173.6160  138.1850 C   0  0  0  0  0  1  0  0  0  0  0  0
  194.8930  174.8470  136.0290 C   0  0  0  0  0  1  0  0  0  0  0  0
  185.6710  173.8990  136.5000 C   0  0  0  0  0  2  0  0  0  0  0  0
  184.7900  173.3300  135.5780 O   0  0  0  0  0  1  0  0  0  0  0  0
  1  8  1  0  0  0  0
  2  3  1  0  0  0  0
  4 25  1  1  0  0  0
  4  9  1  0  0  0  0
  4  5  1  0  0  0  0
  5 10  1  0  0  0  0
  5  1  1  1  0  0  0
  7 11  1  1  0  0  0
  8  6  1  0  0  0  0
  9 37  1  6  0  0  0
  9  2  1  0  0  0  0
 10  3  1  1  0  0  0
 10  7  1  0  0  0  0
 11  6  1  0  0  0  0
 12 17  1  6  0  0  0
 12 19  1  0  0  0  0
 12  7  1  0  0  0  0
 14 21  2  0  0  0  0
 15 14  1  0  0  0  0
 16 15  2  0  0  0  0
 17 13  2  0  0  0  0
 17 19  1  0  0  0  0
 18 14  1  0  0  0  0
 19 16  1  6  0  0  0
 19 18  1  0  0  0  0
 20 17  2  0  0  0  0
 22 26  1  0  0  0  0
 23 22  1  0  0  0  0
 25 23  1  6  0  0  0
 25 24  1  0  0  0  0
 26 24  1  0  0  0  0
 26 27  1  6  0  0  0
 27 29  1  0  0  0  0
 29 28  2  0  0  0  0
 31 32  1  0  0  0  0
 31 30  1  0  0  0  0
 32 29  1  0  0  0  0
 33 32  2  0  0  0  0
 34 31  1  0  0  0  0
 34 35  1  0  0  0  0
 36 34  1  0  0  0  0
 38 37  1  0  0  0  0
M  END
>  <MODEL>
8

>  <REMARK>
 VINA RESULT:      -5.3      6.105     11.164
  Name = 
  7 active torsions:
  status: ('A' for Active; 'I' for Inactive)
    1  A    between atoms: C_1  and  C_27
    2  A    between atoms: C_6  and  CA_32
    3  A    between atoms: S_8  and  C_18
    4  A    between atoms: S_8  and  C_35
    5  A    between atoms: N_11  and  C_13
    6  A    between atoms: C_12  and  C_18
    7  A    between atoms: C_21  and  C_23
                            x       y       z     vdW  Elec       q    Type
                         _______ _______ _______ _____ _____    ______ ____

>  <TORSDO>
F 7

$$$$
=
 OpenBabel11062414373D

 38 42  0  0  1  0  0  0  0  0999 V2000
  191.3820  177.2850  137.8690 C   0  0  0  0  0  2  0  0  0  0  0  0
  189.4460  176.5280  134.7450 N   0  0  0  0  0  2  0  0  0  0  0  0
  190.9000  176.4870  134.8770 C   0  0  0  0  0  2  0  0  0  0  0  0
  189.1790  176.2090  137.1870 C   0  0  2  0  0  3  0  0  0  0  0  0
  190.6970  176.0180  137.3460 C   0  0  1  0  0  3  0  0  0  0  0  0
  193.8940  176.9630  137.6500 C   0  0  0  0  0  2  0  0  0  0  0  0
  192.8000  175.2500  136.0220 C   0  0  1  0  0  3  0  0  0  0  0  0
  192.6730  176.9000  138.5680 C   0  0  0  0  0  2  0  0  0  0  0  0
  188.8560  177.0980  135.9590 C   0  0  2  0  0  3  0  0  0  0  0  0
  191.2910  175.5400  136.0100 C   0  0  2  0  0  3  0  0  0  0  0  0
  193.6590  176.5120  136.2010 C   0  0  0  0  0  2  0  0  0  0  0  0
  193.1730  174.1100  136.9790 C   0  0  1  0  0  3  0  0  0  0  0  0
  193.7260  172.8880  134.5970 O   0  0  0  0  0  0  0  0  0  0  0  0
  196.7860  174.6570  137.3960 C   0  0  0  0  0  0  0  0  0  0  0  0
  196.5030  173.8570  138.5340 N   0  0  0  0  0  0  0  0  0  0  0  0
  195.1360  173.3750  138.4600 C   0  0  0  0  0  3  0  0  0  0  0  0
  193.8710  172.6830  136.0790 S   0  0  0  0  0  0  0  0  0  0  0  0
  195.6590  174.7890  136.4460 C   0  0  0  0  0  2  0  0  0  0  0  0
  194.6150  173.9280  137.1430 C   0  0  1  0  0  0  0  0  0  0  0  0
  193.2490  171.4340  136.6350 O   0  0  0  0  0  0  0  0  0  0  0  0
  197.9050  175.2050  137.2200 O   0  0  0  0  0  0  0  0  0  0  0  0
  188.5360  178.4360  140.0620 C   0  0  0  0  0  2  0  0  0  0  0  0
  188.3600  178.1390  138.6020 C   0  0  0  0  0  2  0  0  0  0  0  0
  189.2860  176.1800  139.6780 N   0  0  0  0  0  2  0  0  0  0  0  0
  188.5280  176.6380  138.5150 C   0  0  2  0  0  3  0  0  0  0  0  0
  189.4470  177.3340  140.5550 C   0  0  2  0  0  3  0  0  0  0  0  0
  189.0170  176.8790  142.2590 S   0  0  0  0  0  0  0  0  0  0  0  0
  191.5640  177.5520  142.0740 O   0  0  0  0  0  0  0  0  0  0  0  0
  190.6250  177.3610  142.8900 C   0  0  0  0  0  0  0  0  0  0  0  0
  192.0100  175.4200  144.5690 O   0  0  0  0  0  1  0  0  0  0  0  0
  191.5200  176.5500  145.1340 N   0  0  0  0  0  0  0  0  0  0  0  0
  190.8330  177.5340  144.3420 C   0  0  0  0  0  0  0  0  0  0  0  0
  190.3930  178.5790  144.8970 O   0  0  0  0  0  0  0  0  0  0  0  0
  191.7040  176.7660  146.5660 C   0  0  0  0  0  3  0  0  0  0  0  0
  192.3020  175.5310  147.2120 C   0  0  0  0  0  1  0  0  0  0  0  0
  190.3810  177.1050  147.2240 C   0  0  0  0  0  1  0  0  0  0  0  0
  187.3550  177.2810  135.7430 C   0  0  0  0  0  2  0  0  0  0  0  0
  187.1130  178.2180  134.7360 O   0  0  0  0  0  1  0  0  0  0  0  0
  1  8  1  0  0  0  0
  2  3  1  0  0  0  0
  2  9  1  0  0  0  0
  4  5  1  0  0  0  0
  4 25  1  1  0  0  0
  5  1  1  6  0  0  0
  6  8  1  0  0  0  0
  7 11  1  1  0  0  0
  9 37  1  6  0  0  0
  9  4  1  0  0  0  0
 10  3  1  6  0  0  0
 10  7  1  0  0  0  0
 10  5  1  0  0  0  0
 11  6  1  0  0  0  0
 12  7  1  6  0  0  0
 12 19  1  0  0  0  0
 13 17  2  0  0  0  0
 14 15  1  0  0  0  0
 16 15  2  0  0  0  0
 17 20  2  0  0  0  0
 17 12  1  0  0  0  0
 17 19  1  0  0  0  0
 18 14  1  0  0  0  0
 19 18  1  6  0  0  0
 19 16  1  0  0  0  0
 21 14  2  0  0  0  0
 22 26  1  0  0  0  0
 23 22  1  0  0  0  0
 24 26  1  0  0  0  0
 25 23  1  6  0  0  0
 25 24  1  0  0  0  0
 26 27  1  1  0  0  0
 27 29  1  0  0  0  0
 28 29  2  0  0  0  0
 29 32  1  0  0  0  0
 30 31  1  0  0  0  0
 31 34  1  0  0  0  0
 32 33  2  0  0  0  0
 32 31  1  0  0  0  0
 34 35  1  0  0  0  0
 34 36  1  0  0  0  0
 38 37  1  0  0  0  0
M  END
>  <MODEL>
9

>  <REMARK>
 VINA RESULT:      -5.1      1.846      2.464
  Name = 
  7 active torsions:
  status: ('A' for Active; 'I' for Inactive)
    1  A    between atoms: C_1  and  C_27
    2  A    between atoms: C_6  and  CA_32
    3  A    between atoms: S_8  and  C_18
    4  A    between atoms: S_8  and  C_35
    5  A    between atoms: N_11  and  C_13
    6  A    between atoms: C_12  and  C_18
    7  A    between atoms: C_21  and  C_23
                            x       y       z     vdW  Elec       q    Type
                         _______ _______ _______ _____ _____    ______ ____

>  <TORSDO>
F 7

$$$$
