=
 OpenBabel11062412443D

 32 34  0  0  1  0  0  0  0  0999 V2000
  185.0560  178.5760  139.6620 C   0  0  0  0  0  0  0  0  0  0  0  0
  186.6190  178.2300  138.0620 C   0  0  1  0  0  3  0  0  0  0  0  0
  185.2880  177.9400  137.6400 O   0  0  0  0  0  0  0  0  0  0  0  0
  186.4150  178.6460  139.4070 O   0  0  0  0  0  0  0  0  0  0  0  0
  184.3830  178.1640  138.6480 N   0  0  0  0  0  0  0  0  0  0  0  0
  188.9140  177.2830  137.7170 N   0  0  0  0  0  0  0  0  0  0  0  0
  187.4970  176.9630  138.0110 C   0  0  2  0  0  3  0  0  0  0  0  0
  189.7220  175.2990  136.5650 C   0  0  0  0  0  0  0  0  0  0  0  0
  188.4560  174.6710  136.0630 C   0  0  0  0  0  2  0  0  0  0  0  0
  190.7470  175.2050  135.9110 O   0  0  0  0  0  0  0  0  0  0  0  0
  186.9200  176.0500  136.9170 C   0  0  0  0  0  2  0  0  0  0  0  0
  187.4420  174.7560  137.0280 O   0  0  0  0  0  0  0  0  0  0  0  0
  189.7260  176.0730  137.8470 C   0  0  0  0  0  2  0  0  0  0  0  0
  189.4470  178.1780  138.7360 C   0  0  0  0  0  2  0  0  0  0  0  0
  189.2380  177.7940  141.1700 C   0  0  0  0  0  1  0  0  0  0  0  0
  189.9610  177.3700  139.9090 C   0  0  0  0  0  2  0  0  0  0  0  0
  184.4380  178.9130  140.9740 C   0  0  0  0  0  2  0  0  0  0  0  0
  185.3230  179.7030  141.7290 O   0  0  0  0  0  0  0  0  0  0  0  0
  186.1270  177.9930  143.2560 C   0  0  0  0  0  3  0  0  0  0  0  0
  183.7550  178.9380  144.9680 C   0  0  0  0  0  3  0  0  0  0  0  0
  186.4250  177.4900  144.4520 C   0  0  0  0  0  3  0  0  0  0  0  0
  185.3330  179.2520  143.0690 C   0  0  2  0  0  3  0  0  0  0  0  0
  185.9860  178.0230  145.7580 C   0  0  0  0  0  0  0  0  0  0  0  0
  184.7960  178.6180  145.9650 C   0  0  0  0  0  3  0  0  0  0  0  0
  183.9660  179.1890  143.6780 C   0  0  0  0  0  3  0  0  0  0  0  0
  186.8390  177.7570  146.8760 N   0  0  0  0  0  2  0  0  0  0  0  0
  188.2430  178.1330  146.9260 C   0  0  0  0  0  2  0  0  0  0  0  0
  189.1010  176.9150  146.6530 C   0  0  0  0  0  2  0  0  0  0  0  0
  189.9650  176.2410  144.1970 O   0  0  0  0  0  0  0  0  0  0  0  0
  191.8370  177.1050  145.8420 N   0  0  0  0  0  1  0  0  0  0  0  0
  190.2040  177.2390  145.2940 S   0  0  0  0  0  0  0  0  0  0  0  0
  189.9680  178.6260  144.7700 O   0  0  0  0  0  0  0  0  0  0  0  0
  1 17  1  0  0  0  0
  2  3  1  1  0  0  0
  2  4  1  0  0  0  0
  3  5  1  0  0  0  0
  4  1  1  0  0  0  0
  5  1  2  0  0  0  0
  6 13  1  0  0  0  0
  6  7  1  0  0  0  0
  6 14  1  0  0  0  0
  7 11  1  6  0  0  0
  7  2  1  0  0  0  0
  8 13  1  0  0  0  0
  9  8  1  0  0  0  0
  9 12  1  0  0  0  0
 10  8  2  0  0  0  0
 11 12  1  0  0  0  0
 14 16  1  0  0  0  0
 16 15  1  0  0  0  0
 17 18  1  0  0  0  0
 19 21  2  0  0  0  0
 20 24  1  0  0  0  0
 21 23  1  0  0  0  0
 22 18  1  6  0  0  0
 22 19  1  0  0  0  0
 22 25  1  0  0  0  0
 23 24  2  0  0  0  0
 23 26  1  0  0  0  0
 25 20  2  0  0  0  0
 26 27  1  0  0  0  0
 28 27  1  0  0  0  0
 29 31  2  0  0  0  0
 31 30  1  0  0  0  0
 31 28  1  0  0  0  0
 32 31  2  0  0  0  0
M  END
>  <MODEL>
1

>  <REMARK>
 VINA RESULT:      -7.5      0.000      0.000
  Name = 
  10 active torsions:
  status: ('A' for Active; 'I' for Inactive)
    1  A    between atoms: N_1  and  C_32
    2  A    between atoms: C_2  and  C_27
    3  A    between atoms: C_3  and  C_4
    4  A    between atoms: C_9  and  O_20
    5  A    between atoms: C_11  and  N_31
    6  A    between atoms: C_14  and  S_17
    7  A    between atoms: C_14  and  C_28
    8  A    between atoms: O_20  and  C_27
    9  A    between atoms: C_26  and  C_32
   10  A    between atoms: C_28  and  N_31
                            x       y       z     vdW  Elec       q    Type
                         _______ _______ _______ _____ _____    ______ ____

>  <TORSDO>
F 10

$$$$
=
 OpenBabel11062412443D

 32 34  0  0  1  0  0  0  0  0999 V2000
  185.3080  178.2870  145.2010 C   0  0  0  0  0  0  0  0  0  0  0  0
  183.9590  179.3160  143.7030 C   0  0  1  0  0  3  0  0  0  0  0  0
  183.6130  179.5730  145.0620 O   0  0  0  0  0  0  0  0  0  0  0  0
  185.0860  178.4600  143.8460 O   0  0  0  0  0  0  0  0  0  0  0  0
  184.4600  178.9240  145.9260 N   0  0  0  0  0  0  0  0  0  0  0  0
  182.8250  178.8530  141.5160 N   0  0  0  0  0  0  0  0  0  0  0  0
  182.8110  178.5890  142.9740 C   0  0  2  0  0  3  0  0  0  0  0  0
  180.4840  178.6740  140.8790 C   0  0  0  0  0  0  0  0  0  0  0  0
  179.7700  178.8980  142.1800 C   0  0  0  0  0  2  0  0  0  0  0  0
  179.9820  179.0620  139.8380 O   0  0  0  0  0  0  0  0  0  0  0  0
  181.4920  179.0820  143.5920 C   0  0  0  0  0  2  0  0  0  0  0  0
  180.4320  178.2430  143.2290 O   0  0  0  0  0  0  0  0  0  0  0  0
  181.8260  178.0120  140.8570 C   0  0  0  0  0  2  0  0  0  0  0  0
  184.0910  178.4180  140.9410 C   0  0  0  0  0  2  0  0  0  0  0  0
  184.6350  178.4260  138.5290 C   0  0  0  0  0  1  0  0  0  0  0  0
  184.4400  179.2930  139.7550 C   0  0  0  0  0  2  0  0  0  0  0  0
  186.3920  177.4360  145.7650 C   0  0  0  0  0  2  0  0  0  0  0  0
  187.5110  178.2320  146.0720 O   0  0  0  0  0  0  0  0  0  0  0  0
  188.2240  176.9440  144.1380 C   0  0  0  0  0  3  0  0  0  0  0  0
  190.9150  176.9110  145.6230 C   0  0  0  0  0  3  0  0  0  0  0  0
  189.0710  176.5840  143.1770 C   0  0  0  0  0  3  0  0  0  0  0  0
  188.6170  177.8110  145.2980 C   0  0  2  0  0  3  0  0  0  0  0  0
  190.5120  176.9040  143.1170 C   0  0  0  0  0  0  0  0  0  0  0  0
  191.3040  177.0030  144.2020 C   0  0  0  0  0  3  0  0  0  0  0  0
  189.7240  177.2310  146.1240 C   0  0  0  0  0  3  0  0  0  0  0  0
  191.0980  176.9740  141.8140 N   0  0  0  0  0  2  0  0  0  0  0  0
  190.3880  176.6290  140.5910 C   0  0  0  0  0  2  0  0  0  0  0  0
  190.3980  177.8170  139.6510 C   0  0  0  0  0  2  0  0  0  0  0  0
  188.2030  176.8360  138.4450 O   0  0  0  0  0  0  0  0  0  0  0  0
  188.8330  179.3090  137.7800 N   0  0  0  0  0  1  0  0  0  0  0  0
  188.7600  178.1080  139.0190 S   0  0  0  0  0  0  0  0  0  0  0  0
  187.8680  178.5910  140.1270 O   0  0  0  0  0  0  0  0  0  0  0  0
  1 17  1  0  0  0  0
  1  5  2  0  0  0  0
  2  4  1  1  0  0  0
  2  3  1  0  0  0  0
  3  5  1  0  0  0  0
  4  1  1  0  0  0  0
  6  7  1  0  0  0  0
  7 11  1  1  0  0  0
  7  2  1  0  0  0  0
  8  9  1  0  0  0  0
  9 12  1  0  0  0  0
 10  8  2  0  0  0  0
 12 11  1  0  0  0  0
 13  8  1  0  0  0  0
 13  6  1  0  0  0  0
 14  6  1  0  0  0  0
 15 16  1  0  0  0  0
 16 14  1  0  0  0  0
 17 18  1  0  0  0  0
 19 22  1  0  0  0  0
 20 25  2  0  0  0  0
 21 19  2  0  0  0  0
 22 18  1  1  0  0  0
 22 25  1  0  0  0  0
 23 21  1  0  0  0  0
 23 24  2  0  0  0  0
 24 20  1  0  0  0  0
 26 23  1  0  0  0  0
 27 26  1  0  0  0  0
 28 27  1  0  0  0  0
 29 31  2  0  0  0  0
 30 31  1  0  0  0  0
 31 28  1  0  0  0  0
 31 32  2  0  0  0  0
M  END
>  <MODEL>
2

>  <REMARK>
 VINA RESULT:      -7.4      2.916      7.174
  Name = 
  10 active torsions:
  status: ('A' for Active; 'I' for Inactive)
    1  A    between atoms: N_1  and  C_32
    2  A    between atoms: C_2  and  C_27
    3  A    between atoms: C_3  and  C_4
    4  A    between atoms: C_9  and  O_20
    5  A    between atoms: C_11  and  N_31
    6  A    between atoms: C_14  and  S_17
    7  A    between atoms: C_14  and  C_28
    8  A    between atoms: O_20  and  C_27
    9  A    between atoms: C_26  and  C_32
   10  A    between atoms: C_28  and  N_31
                            x       y       z     vdW  Elec       q    Type
                         _______ _______ _______ _____ _____    ______ ____

>  <TORSDO>
F 10

$$$$
=
 OpenBabel11062412443D

 32 34  0  0  1  0  0  0  0  0999 V2000
  190.0460  177.3220  141.6220 C   0  0  0  0  0  0  0  0  0  0  0  0
  189.0050  178.2160  143.4220 C   0  0  1  0  0  3  0  0  0  0  0  0
  190.3510  178.6570  143.2560 O   0  0  0  0  0  0  0  0  0  0  0  0
  188.8490  177.3330  142.3170 O   0  0  0  0  0  0  0  0  0  0  0  0
  190.9340  178.0830  142.1530 N   0  0  0  0  0  0  0  0  0  0  0  0
  187.7870  178.0590  145.6070 N   0  0  0  0  0  0  0  0  0  0  0  0
  188.8380  177.4570  144.7540 C   0  0  2  0  0  3  0  0  0  0  0  0
  188.5190  177.5430  147.8680 C   0  0  0  0  0  0  0  0  0  0  0  0
  189.9870  177.2900  147.6900 C   0  0  0  0  0  2  0  0  0  0  0  0
  188.1120  178.0530  148.8990 O   0  0  0  0  0  0  0  0  0  0  0  0
  190.1960  177.4940  145.4750 C   0  0  0  0  0  2  0  0  0  0  0  0
  190.2270  176.5600  146.5170 O   0  0  0  0  0  0  0  0  0  0  0  0
  187.5550  177.2070  146.7730 C   0  0  0  0  0  2  0  0  0  0  0  0
  186.5100  178.0560  144.9050 C   0  0  0  0  0  2  0  0  0  0  0  0
  184.1670  178.8420  144.9730 C   0  0  0  0  0  1  0  0  0  0  0  0
  185.5250  178.9480  145.6320 C   0  0  0  0  0  2  0  0  0  0  0  0
  190.2940  176.5000  140.4050 C   0  0  0  0  0  2  0  0  0  0  0  0
  190.5300  177.3410  139.3030 O   0  0  0  0  0  0  0  0  0  0  0  0
  188.8000  176.2090  138.0240 C   0  0  0  0  0  3  0  0  0  0  0  0
  188.3660  179.0120  136.8400 C   0  0  0  0  0  3  0  0  0  0  0  0
  187.5990  176.0940  137.4610 C   0  0  0  0  0  3  0  0  0  0  0  0
  189.3330  177.5020  138.5670 C   0  0  2  0  0  3  0  0  0  0  0  0
  186.6400  177.1910  137.2170 C   0  0  0  0  0  0  0  0  0  0  0  0
  187.0030  178.4510  136.9090 C   0  0  0  0  0  3  0  0  0  0  0  0
  189.4180  178.5890  137.5390 C   0  0  0  0  0  3  0  0  0  0  0  0
  185.2560  176.8320  137.1800 N   0  0  0  0  0  2  0  0  0  0  0  0
  184.1810  177.7220  137.5910 C   0  0  0  0  0  2  0  0  0  0  0  0
  183.9130  177.5390  139.0710 C   0  0  0  0  0  2  0  0  0  0  0  0
  184.3210  180.1960  139.1530 O   0  0  0  0  0  0  0  0  0  0  0  0
  186.1800  178.7420  140.3320 N   0  0  0  0  0  1  0  0  0  0  0  0
  184.5020  178.9530  139.9770 S   0  0  0  0  0  0  0  0  0  0  0  0
  183.7360  179.0870  141.2620 O   0  0  0  0  0  0  0  0  0  0  0  0
  1  5  2  0  0  0  0
  1  4  1  0  0  0  0
  2  4  1  6  0  0  0
  2  7  1  0  0  0  0
  3  2  1  0  0  0  0
  5  3  1  0  0  0  0
  6 13  1  0  0  0  0
  7 11  1  1  0  0  0
  7  6  1  0  0  0  0
  8 10  2  0  0  0  0
  9  8  1  0  0  0  0
 11 12  1  0  0  0  0
 12  9  1  0  0  0  0
 13  8  1  0  0  0  0
 14  6  1  0  0  0  0
 14 16  1  0  0  0  0
 15 16  1  0  0  0  0
 17  1  1  0  0  0  0
 18 17  1  0  0  0  0
 19 22  1  0  0  0  0
 20 24  1  0  0  0  0
 20 25  2  0  0  0  0
 21 19  2  0  0  0  0
 22 18  1  6  0  0  0
 23 21  1  0  0  0  0
 24 23  2  0  0  0  0
 25 22  1  0  0  0  0
 26 23  1  0  0  0  0
 26 27  1  0  0  0  0
 27 28  1  0  0  0  0
 28 31  1  0  0  0  0
 29 31  2  0  0  0  0
 31 30  1  0  0  0  0
 31 32  2  0  0  0  0
M  END
>  <MODEL>
3

>  <REMARK>
 VINA RESULT:      -7.3      2.523      8.379
  Name = 
  10 active torsions:
  status: ('A' for Active; 'I' for Inactive)
    1  A    between atoms: N_1  and  C_32
    2  A    between atoms: C_2  and  C_27
    3  A    between atoms: C_3  and  C_4
    4  A    between atoms: C_9  and  O_20
    5  A    between atoms: C_11  and  N_31
    6  A    between atoms: C_14  and  S_17
    7  A    between atoms: C_14  and  C_28
    8  A    between atoms: O_20  and  C_27
    9  A    between atoms: C_26  and  C_32
   10  A    between atoms: C_28  and  N_31
                            x       y       z     vdW  Elec       q    Type
                         _______ _______ _______ _____ _____    ______ ____

>  <TORSDO>
F 10

$$$$
=
 OpenBabel11062412443D

 32 34  0  0  1  0  0  0  0  0999 V2000
  186.0890  178.3270  143.1040 C   0  0  0  0  0  0  0  0  0  0  0  0
  187.6540  176.8550  143.8150 C   0  0  1  0  0  3  0  0  0  0  0  0
  186.5280  176.9640  144.6840 O   0  0  0  0  0  0  0  0  0  0  0  0
  187.3180  177.7760  142.7850 O   0  0  0  0  0  0  0  0  0  0  0  0
  185.6130  177.8700  144.2070 N   0  0  0  0  0  0  0  0  0  0  0  0
  190.0740  176.3730  144.2530 N   0  0  0  0  0  0  0  0  0  0  0  0
  188.9450  177.2900  144.5360 C   0  0  2  0  0  3  0  0  0  0  0  0
  191.4480  176.5210  146.2550 C   0  0  0  0  0  0  0  0  0  0  0  0
  190.4790  177.0250  147.2830 C   0  0  0  0  0  2  0  0  0  0  0  0
  192.3380  175.7540  146.5840 O   0  0  0  0  0  0  0  0  0  0  0  0
  188.6430  177.3140  146.0440 C   0  0  0  0  0  2  0  0  0  0  0  0
  189.6410  178.0080  146.7370 O   0  0  0  0  0  0  0  0  0  0  0  0
  191.3060  176.9230  144.8200 C   0  0  0  0  0  2  0  0  0  0  0  0
  190.3340  176.3250  142.8200 C   0  0  0  0  0  2  0  0  0  0  0  0
  191.5310  177.4220  140.9550 C   0  0  0  0  0  1  0  0  0  0  0  0
  191.0890  177.5670  142.3960 C   0  0  0  0  0  2  0  0  0  0  0  0
  185.3990  179.3570  142.2790 C   0  0  0  0  0  2  0  0  0  0  0  0
  184.0680  178.9670  142.0460 O   0  0  0  0  0  0  0  0  0  0  0  0
  184.4240  179.1570  139.6500 C   0  0  0  0  0  3  0  0  0  0  0  0
  182.4030  176.8440  139.5440 C   0  0  0  0  0  3  0  0  0  0  0  0
  184.6000  178.6860  138.4170 C   0  0  0  0  0  3  0  0  0  0  0  0
  183.9810  178.3030  140.8010 C   0  0  2  0  0  3  0  0  0  0  0  0
  184.3330  177.3060  137.9630 C   0  0  0  0  0  0  0  0  0  0  0  0
  183.3400  176.5350  138.4460 C   0  0  0  0  0  3  0  0  0  0  0  0
  182.6530  177.6470  140.5760 C   0  0  0  0  0  3  0  0  0  0  0  0
  185.1050  176.8380  136.8530 N   0  0  0  0  0  2  0  0  0  0  0  0
  186.3350  177.4710  136.4010 C   0  0  0  0  0  2  0  0  0  0  0  0
  187.5090  176.8880  137.1590 C   0  0  0  0  0  2  0  0  0  0  0  0
  189.9460  177.8280  137.8020 O   0  0  0  0  0  0  0  0  0  0  0  0
  188.0290  178.4260  139.5130 N   0  0  0  0  0  1  0  0  0  0  0  0
  188.4900  178.1950  137.8640 S   0  0  0  0  0  0  0  0  0  0  0  0
  188.2610  179.4680  137.1010 O   0  0  0  0  0  0  0  0  0  0  0  0
  1  5  2  0  0  0  0
  2  4  1  6  0  0  0
  2  7  1  0  0  0  0
  2  3  1  0  0  0  0
  4  1  1  0  0  0  0
  5  3  1  0  0  0  0
  6  7  1  0  0  0  0
  6 13  1  0  0  0  0
  7 11  1  1  0  0  0
  8 10  2  0  0  0  0
  8  9  1  0  0  0  0
 11 12  1  0  0  0  0
 12  9  1  0  0  0  0
 13  8  1  0  0  0  0
 14  6  1  0  0  0  0
 15 16  1  0  0  0  0
 16 14  1  0  0  0  0
 17  1  1  0  0  0  0
 18 17  1  0  0  0  0
 19 22  1  0  0  0  0
 20 25  2  0  0  0  0
 21 19  2  0  0  0  0
 22 18  1  1  0  0  0
 23 21  1  0  0  0  0
 23 24  2  0  0  0  0
 24 20  1  0  0  0  0
 25 22  1  0  0  0  0
 26 23  1  0  0  0  0
 27 26  1  0  0  0  0
 27 28  1  0  0  0  0
 28 31  1  0  0  0  0
 29 31  2  0  0  0  0
 31 30  1  0  0  0  0
 32 31  2  0  0  0  0
M  END
>  <MODEL>
4

>  <REMARK>
 VINA RESULT:      -7.3      2.675      7.183
  Name = 
  10 active torsions:
  status: ('A' for Active; 'I' for Inactive)
    1  A    between atoms: N_1  and  C_32
    2  A    between atoms: C_2  and  C_27
    3  A    between atoms: C_3  and  C_4
    4  A    between atoms: C_9  and  O_20
    5  A    between atoms: C_11  and  N_31
    6  A    between atoms: C_14  and  S_17
    7  A    between atoms: C_14  and  C_28
    8  A    between atoms: O_20  and  C_27
    9  A    between atoms: C_26  and  C_32
   10  A    between atoms: C_28  and  N_31
                            x       y       z     vdW  Elec       q    Type
                         _______ _______ _______ _____ _____    ______ ____

>  <TORSDO>
F 10

$$$$
=
 OpenBabel11062412443D

 32 34  0  0  1  0  0  0  0  0999 V2000
  184.2510  178.7650  140.8280 C   0  0  0  0  0  0  0  0  0  0  0  0
  183.3590  179.0340  138.7660 C   0  0  1  0  0  3  0  0  0  0  0  0
  184.4010  179.9580  139.0670 O   0  0  0  0  0  0  0  0  0  0  0  0
  183.2950  178.2650  139.9610 O   0  0  0  0  0  0  0  0  0  0  0  0
  184.9040  179.7520  140.3280 N   0  0  0  0  0  0  0  0  0  0  0  0
  181.4680  179.4750  137.1810 N   0  0  0  0  0  0  0  0  0  0  0  0
  182.0270  179.7720  138.5200 C   0  0  2  0  0  3  0  0  0  0  0  0
  180.2210  181.4870  136.6220 C   0  0  0  0  0  0  0  0  0  0  0  0
  180.8490  182.5210  137.5100 C   0  0  0  0  0  2  0  0  0  0  0  0
  179.8090  181.8050  135.5180 O   0  0  0  0  0  0  0  0  0  0  0  0
  182.3060  181.2780  138.6590 C   0  0  0  0  0  2  0  0  0  0  0  0
  181.1080  181.9920  138.7820 O   0  0  0  0  0  0  0  0  0  0  0  0
  180.1320  180.0610  137.0670 C   0  0  0  0  0  2  0  0  0  0  0  0
  181.2400  178.0430  137.0390 C   0  0  0  0  0  2  0  0  0  0  0  0
  180.5610  176.2540  138.6060 C   0  0  0  0  0  1  0  0  0  0  0  0
  180.1750  177.5950  138.0190 C   0  0  0  0  0  2  0  0  0  0  0  0
  184.4860  178.2390  142.2010 C   0  0  0  0  0  2  0  0  0  0  0  0
  184.5860  179.3080  143.1100 O   0  0  0  0  0  0  0  0  0  0  0  0
  186.2650  177.7380  143.8990 C   0  0  0  0  0  3  0  0  0  0  0  0
  185.2160  178.5830  146.6620 C   0  0  0  0  0  3  0  0  0  0  0  0
  187.2340  177.3160  144.7090 C   0  0  0  0  0  3  0  0  0  0  0  0
  185.3980  178.9230  144.2030 C   0  0  2  0  0  3  0  0  0  0  0  0
  187.5710  177.8770  146.0340 C   0  0  0  0  0  0  0  0  0  0  0  0
  186.6620  178.3900  146.8850 C   0  0  0  0  0  3  0  0  0  0  0  0
  184.6310  178.7870  145.4830 C   0  0  0  0  0  3  0  0  0  0  0  0
  188.9280  177.7300  146.4630 N   0  0  0  0  0  2  0  0  0  0  0  0
  189.8570  176.7720  145.8850 C   0  0  0  0  0  2  0  0  0  0  0  0
  190.7830  177.4860  144.9210 C   0  0  0  0  0  2  0  0  0  0  0  0
  192.0550  177.1430  142.5770 O   0  0  0  0  0  0  0  0  0  0  0  0
  189.8170  175.7730  142.8460 N   0  0  0  0  0  1  0  0  0  0  0  0
  191.2450  176.3920  143.5960 S   0  0  0  0  0  0  0  0  0  0  0  0
  192.0550  175.2510  144.1400 O   0  0  0  0  0  0  0  0  0  0  0  0
  1 17  1  0  0  0  0
  2  3  1  1  0  0  0
  2  4  1  0  0  0  0
  3  5  1  0  0  0  0
  4  1  1  0  0  0  0
  5  1  2  0  0  0  0
  6  7  1  0  0  0  0
  7 11  1  6  0  0  0
  7  2  1  0  0  0  0
  8 13  1  0  0  0  0
  8  9  1  0  0  0  0
  9 12  1  0  0  0  0
 10  8  2  0  0  0  0
 11 12  1  0  0  0  0
 13  6  1  0  0  0  0
 14  6  1  0  0  0  0
 14 16  1  0  0  0  0
 16 15  1  0  0  0  0
 17 18  1  0  0  0  0
 19 22  1  0  0  0  0
 19 21  2  0  0  0  0
 20 24  1  0  0  0  0
 21 23  1  0  0  0  0
 22 18  1  6  0  0  0
 22 25  1  0  0  0  0
 23 26  1  0  0  0  0
 23 24  2  0  0  0  0
 25 20  2  0  0  0  0
 27 26  1  0  0  0  0
 28 27  1  0  0  0  0
 29 31  2  0  0  0  0
 30 31  1  0  0  0  0
 31 32  2  0  0  0  0
 31 28  1  0  0  0  0
M  END
>  <MODEL>
5

>  <REMARK>
 VINA RESULT:      -7.1      3.855      5.972
  Name = 
  10 active torsions:
  status: ('A' for Active; 'I' for Inactive)
    1  A    between atoms: N_1  and  C_32
    2  A    between atoms: C_2  and  C_27
    3  A    between atoms: C_3  and  C_4
    4  A    between atoms: C_9  and  O_20
    5  A    between atoms: C_11  and  N_31
    6  A    between atoms: C_14  and  S_17
    7  A    between atoms: C_14  and  C_28
    8  A    between atoms: O_20  and  C_27
    9  A    between atoms: C_26  and  C_32
   10  A    between atoms: C_28  and  N_31
                            x       y       z     vdW  Elec       q    Type
                         _______ _______ _______ _____ _____    ______ ____

>  <TORSDO>
F 10

$$$$
=
 OpenBabel11062412443D

 32 34  0  0  1  0  0  0  0  0999 V2000
  185.0410  178.7720  145.2440 C   0  0  0  0  0  0  0  0  0  0  0  0
  186.6110  177.3380  146.0180 C   0  0  1  0  0  3  0  0  0  0  0  0
  185.8960  178.0190  147.0460 O   0  0  0  0  0  0  0  0  0  0  0  0
  186.0100  177.8700  144.8430 O   0  0  0  0  0  0  0  0  0  0  0  0
  184.9600  178.8760  146.5220 N   0  0  0  0  0  0  0  0  0  0  0  0
  188.8640  177.0710  144.9530 N   0  0  0  0  0  0  0  0  0  0  0  0
  188.1120  177.6890  146.0700 C   0  0  2  0  0  3  0  0  0  0  0  0
  191.0940  176.7530  145.8720 C   0  0  0  0  0  0  0  0  0  0  0  0
  190.8460  176.7670  147.3520 C   0  0  0  0  0  2  0  0  0  0  0  0
  191.9770  176.0490  145.4120 O   0  0  0  0  0  0  0  0  0  0  0  0
  188.6530  177.1880  147.4190 C   0  0  0  0  0  2  0  0  0  0  0  0
  189.9050  177.7520  147.6890 O   0  0  0  0  0  0  0  0  0  0  0  0
  190.2400  177.5700  144.9540 C   0  0  0  0  0  2  0  0  0  0  0  0
  188.3250  177.5190  143.6760 C   0  0  0  0  0  2  0  0  0  0  0  0
  189.0540  177.7090  141.3210 C   0  0  0  0  0  1  0  0  0  0  0  0
  189.4570  177.9400  142.7620 C   0  0  0  0  0  2  0  0  0  0  0  0
  184.1970  179.5600  144.3040 C   0  0  0  0  0  2  0  0  0  0  0  0
  183.2600  178.7150  143.6830 O   0  0  0  0  0  0  0  0  0  0  0  0
  181.8630  178.6230  141.6970 C   0  0  0  0  0  3  0  0  0  0  0  0
  184.5540  178.9380  140.2460 C   0  0  0  0  0  3  0  0  0  0  0  0
  181.4830  178.9860  140.4740 C   0  0  0  0  0  3  0  0  0  0  0  0
  183.1660  179.0410  142.3100 C   0  0  2  0  0  3  0  0  0  0  0  0
  182.2760  179.7790  139.5120 C   0  0  0  0  0  0  0  0  0  0  0  0
  183.6160  179.7100  139.4070 C   0  0  0  0  0  3  0  0  0  0  0  0
  184.3620  178.6030  141.5200 C   0  0  0  0  0  3  0  0  0  0  0  0
  181.5380  180.5530  138.5610 N   0  0  0  0  0  2  0  0  0  0  0  0
  181.8480  181.9360  138.2330 C   0  0  0  0  0  2  0  0  0  0  0  0
  180.7500  182.5050  137.3570 C   0  0  0  0  0  2  0  0  0  0  0  0
  182.3910  184.6240  137.5870 O   0  0  0  0  0  0  0  0  0  0  0  0
  179.8290  185.1520  137.9250 N   0  0  0  0  0  1  0  0  0  0  0  0
  181.0290  184.2410  137.0800 S   0  0  0  0  0  0  0  0  0  0  0  0
  180.9370  184.5410  135.6120 O   0  0  0  0  0  0  0  0  0  0  0  0
  1  5  2  0  0  0  0
  2  4  1  6  0  0  0
  2  7  1  0  0  0  0
  2  3  1  0  0  0  0
  4  1  1  0  0  0  0
  5  3  1  0  0  0  0
  6 13  1  0  0  0  0
  6  7  1  0  0  0  0
  7 11  1  1  0  0  0
  8  9  1  0  0  0  0
  9 12  1  0  0  0  0
 10  8  2  0  0  0  0
 11 12  1  0  0  0  0
 13  8  1  0  0  0  0
 14  6  1  0  0  0  0
 15 16  1  0  0  0  0
 16 14  1  0  0  0  0
 17  1  1  0  0  0  0
 18 17  1  0  0  0  0
 19 22  1  0  0  0  0
 20 25  2  0  0  0  0
 21 19  2  0  0  0  0
 22 18  1  1  0  0  0
 23 21  1  0  0  0  0
 24 23  2  0  0  0  0
 24 20  1  0  0  0  0
 25 22  1  0  0  0  0
 26 23  1  0  0  0  0
 27 26  1  0  0  0  0
 28 27  1  0  0  0  0
 31 28  1  0  0  0  0
 31 29  2  0  0  0  0
 31 30  1  0  0  0  0
 32 31  2  0  0  0  0
M  END
>  <MODEL>
6

>  <REMARK>
 VINA RESULT:      -7.0      4.666      8.898
  Name = 
  10 active torsions:
  status: ('A' for Active; 'I' for Inactive)
    1  A    between atoms: N_1  and  C_32
    2  A    between atoms: C_2  and  C_27
    3  A    between atoms: C_3  and  C_4
    4  A    between atoms: C_9  and  O_20
    5  A    between atoms: C_11  and  N_31
    6  A    between atoms: C_14  and  S_17
    7  A    between atoms: C_14  and  C_28
    8  A    between atoms: O_20  and  C_27
    9  A    between atoms: C_26  and  C_32
   10  A    between atoms: C_28  and  N_31
                            x       y       z     vdW  Elec       q    Type
                         _______ _______ _______ _____ _____    ______ ____

>  <TORSDO>
F 10

$$$$
=
 OpenBabel11062412443D

 32 34  0  0  1  0  0  0  0  0999 V2000
  184.6780  179.0030  141.1790 C   0  0  0  0  0  0  0  0  0  0  0  0
  184.4100  178.7650  138.9440 C   0  0  1  0  0  3  0  0  0  0  0  0
  183.8760  177.6850  139.7070 O   0  0  0  0  0  0  0  0  0  0  0  0
  184.9300  179.6120  139.9620 O   0  0  0  0  0  0  0  0  0  0  0  0
  184.0670  177.8790  141.0530 N   0  0  0  0  0  0  0  0  0  0  0  0
  185.2440  176.9370  137.4450 N   0  0  0  0  0  0  0  0  0  0  0  0
  185.5380  178.2730  138.0150 C   0  0  2  0  0  3  0  0  0  0  0  0
  187.4470  175.9640  137.1010 C   0  0  0  0  0  0  0  0  0  0  0  0
  188.3080  176.7580  138.0390 C   0  0  0  0  0  2  0  0  0  0  0  0
  187.6980  174.7890  136.8940 O   0  0  0  0  0  0  0  0  0  0  0  0
  186.8300  178.2250  138.8480 C   0  0  0  0  0  2  0  0  0  0  0  0
  187.9500  178.1130  138.0160 O   0  0  0  0  0  0  0  0  0  0  0  0
  186.2580  176.5970  136.4470 C   0  0  0  0  0  2  0  0  0  0  0  0
  184.0000  176.9790  136.6870 C   0  0  0  0  0  2  0  0  0  0  0  0
  183.1830  174.8780  137.7030 C   0  0  0  0  0  1  0  0  0  0  0  0
  183.5280  175.5680  136.4010 C   0  0  0  0  0  2  0  0  0  0  0  0
  185.0880  179.5690  142.4940 C   0  0  0  0  0  2  0  0  0  0  0  0
  184.5470  178.7930  143.5350 O   0  0  0  0  0  0  0  0  0  0  0  0
  186.4290  177.3980  144.1850 C   0  0  0  0  0  3  0  0  0  0  0  0
  185.7610  178.4550  146.9920 C   0  0  0  0  0  3  0  0  0  0  0  0
  187.5360  177.1100  144.8640 C   0  0  0  0  0  3  0  0  0  0  0  0
  185.5410  178.5610  144.5150 C   0  0  2  0  0  3  0  0  0  0  0  0
  188.0340  177.8150  146.0630 C   0  0  0  0  0  0  0  0  0  0  0  0
  187.2350  178.3610  146.9990 C   0  0  0  0  0  3  0  0  0  0  0  0
  184.9910  178.5110  145.9080 C   0  0  0  0  0  3  0  0  0  0  0  0
  189.4480  177.7820  146.2830 N   0  0  0  0  0  2  0  0  0  0  0  0
  190.3660  176.9660  145.5050 C   0  0  0  0  0  2  0  0  0  0  0  0
  191.1130  177.8440  144.5220 C   0  0  0  0  0  2  0  0  0  0  0  0
  189.6220  178.2390  142.3190 O   0  0  0  0  0  0  0  0  0  0  0  0
  190.1960  175.7180  142.8440 N   0  0  0  0  0  1  0  0  0  0  0  0
  190.7200  177.3640  142.8540 S   0  0  0  0  0  0  0  0  0  0  0  0
  191.9390  177.5030  141.9870 O   0  0  0  0  0  0  0  0  0  0  0  0
  1 17  1  0  0  0  0
  2  3  1  1  0  0  0
  2  4  1  0  0  0  0
  3  5  1  0  0  0  0
  4  1  1  0  0  0  0
  5  1  2  0  0  0  0
  6  7  1  0  0  0  0
  7 11  1  1  0  0  0
  7  2  1  0  0  0  0
  8  9  1  0  0  0  0
 10  8  2  0  0  0  0
 12  9  1  0  0  0  0
 12 11  1  0  0  0  0
 13  8  1  0  0  0  0
 13  6  1  0  0  0  0
 14  6  1  0  0  0  0
 16 14  1  0  0  0  0
 16 15  1  0  0  0  0
 17 18  1  0  0  0  0
 19 22  1  0  0  0  0
 19 21  2  0  0  0  0
 20 24  1  0  0  0  0
 21 23  1  0  0  0  0
 22 18  1  6  0  0  0
 22 25  1  0  0  0  0
 23 26  1  0  0  0  0
 23 24  2  0  0  0  0
 25 20  2  0  0  0  0
 27 26  1  0  0  0  0
 28 27  1  0  0  0  0
 29 31  2  0  0  0  0
 30 31  1  0  0  0  0
 31 28  1  0  0  0  0
 32 31  2  0  0  0  0
M  END
>  <MODEL>
7

>  <REMARK>
 VINA RESULT:      -7.0      2.046      3.341
  Name = 
  10 active torsions:
  status: ('A' for Active; 'I' for Inactive)
    1  A    between atoms: N_1  and  C_32
    2  A    between atoms: C_2  and  C_27
    3  A    between atoms: C_3  and  C_4
    4  A    between atoms: C_9  and  O_20
    5  A    between atoms: C_11  and  N_31
    6  A    between atoms: C_14  and  S_17
    7  A    between atoms: C_14  and  C_28
    8  A    between atoms: O_20  and  C_27
    9  A    between atoms: C_26  and  C_32
   10  A    between atoms: C_28  and  N_31
                            x       y       z     vdW  Elec       q    Type
                         _______ _______ _______ _____ _____    ______ ____

>  <TORSDO>
F 10

$$$$
=
 OpenBabel11062412443D

 32 34  0  0  1  0  0  0  0  0999 V2000
  184.7110  178.7860  144.5730 C   0  0  0  0  0  0  0  0  0  0  0  0
  186.1410  177.5240  145.7910 C   0  0  1  0  0  3  0  0  0  0  0  0
  185.2240  178.2780  146.5790 O   0  0  0  0  0  0  0  0  0  0  0  0
  185.7640  177.8930  144.4700 O   0  0  0  0  0  0  0  0  0  0  0  0
  184.3830  179.0260  145.7920 N   0  0  0  0  0  0  0  0  0  0  0  0
  188.5740  177.1220  145.3420 N   0  0  0  0  0  0  0  0  0  0  0  0
  187.5940  177.9510  146.0820 C   0  0  2  0  0  3  0  0  0  0  0  0
  190.5390  177.1430  146.7760 C   0  0  0  0  0  0  0  0  0  0  0  0
  189.9660  177.4970  148.1160 C   0  0  0  0  0  2  0  0  0  0  0  0
  191.4990  176.3940  146.7050 O   0  0  0  0  0  0  0  0  0  0  0  0
  187.8160  177.8130  147.5980 C   0  0  0  0  0  2  0  0  0  0  0  0
  188.9790  178.4860  147.9890 O   0  0  0  0  0  0  0  0  0  0  0  0
  189.9170  177.6750  145.5220 C   0  0  0  0  0  2  0  0  0  0  0  0
  188.3370  177.2260  143.9090 C   0  0  0  0  0  2  0  0  0  0  0  0
  190.0510  176.3180  142.3750 C   0  0  0  0  0  1  0  0  0  0  0  0
  188.8390  175.9770  143.2150 C   0  0  0  0  0  2  0  0  0  0  0  0
  184.0440  179.4240  143.4050 C   0  0  0  0  0  2  0  0  0  0  0  0
  183.0290  178.5810  142.9170 O   0  0  0  0  0  0  0  0  0  0  0  0
  184.4360  179.0560  140.9940 C   0  0  0  0  0  3  0  0  0  0  0  0
  181.8680  178.4200  139.4290 C   0  0  0  0  0  3  0  0  0  0  0  0
  184.8990  178.8570  139.7610 C   0  0  0  0  0  3  0  0  0  0  0  0
  183.2060  178.3840  141.5280 C   0  0  2  0  0  3  0  0  0  0  0  0
  184.2700  178.0240  138.7160 C   0  0  0  0  0  0  0  0  0  0  0  0
  182.9400  177.8810  138.5690 C   0  0  0  0  0  3  0  0  0  0  0  0
  181.9730  178.6810  140.7310 C   0  0  0  0  0  3  0  0  0  0  0  0
  185.1470  177.4580  137.7370 N   0  0  0  0  0  2  0  0  0  0  0  0
  186.2590  178.1790  137.1370 C   0  0  0  0  0  2  0  0  0  0  0  0
  187.5320  177.3760  137.3090 C   0  0  0  0  0  2  0  0  0  0  0  0
  189.0580  179.5730  137.5920 O   0  0  0  0  0  0  0  0  0  0  0  0
  190.1300  177.3420  138.5040 N   0  0  0  0  0  1  0  0  0  0  0  0
  188.7020  178.2910  138.2900 S   0  0  0  0  0  0  0  0  0  0  0  0
  188.1060  178.6000  139.6330 O   0  0  0  0  0  0  0  0  0  0  0  0
  1  5  2  0  0  0  0
  2  4  1  6  0  0  0
  2  7  1  0  0  0  0
  2  3  1  0  0  0  0
  4  1  1  0  0  0  0
  5  3  1  0  0  0  0
  6 13  1  0  0  0  0
  6  7  1  0  0  0  0
  7 11  1  1  0  0  0
  8  9  1  0  0  0  0
 10  8  2  0  0  0  0
 11 12  1  0  0  0  0
 12  9  1  0  0  0  0
 13  8  1  0  0  0  0
 14  6  1  0  0  0  0
 15 16  1  0  0  0  0
 16 14  1  0  0  0  0
 17  1  1  0  0  0  0
 18 17  1  0  0  0  0
 19 22  1  0  0  0  0
 20 25  2  0  0  0  0
 21 19  2  0  0  0  0
 22 18  1  1  0  0  0
 23 21  1  0  0  0  0
 24 23  2  0  0  0  0
 24 20  1  0  0  0  0
 25 22  1  0  0  0  0
 26 23  1  0  0  0  0
 27 28  1  0  0  0  0
 27 26  1  0  0  0  0
 28 31  1  0  0  0  0
 29 31  2  0  0  0  0
 31 30  1  0  0  0  0
 31 32  2  0  0  0  0
M  END
>  <MODEL>
8

>  <REMARK>
 VINA RESULT:      -7.0      2.653      7.500
  Name = 
  10 active torsions:
  status: ('A' for Active; 'I' for Inactive)
    1  A    between atoms: N_1  and  C_32
    2  A    between atoms: C_2  and  C_27
    3  A    between atoms: C_3  and  C_4
    4  A    between atoms: C_9  and  O_20
    5  A    between atoms: C_11  and  N_31
    6  A    between atoms: C_14  and  S_17
    7  A    between atoms: C_14  and  C_28
    8  A    between atoms: O_20  and  C_27
    9  A    between atoms: C_26  and  C_32
   10  A    between atoms: C_28  and  N_31
                            x       y       z     vdW  Elec       q    Type
                         _______ _______ _______ _____ _____    ______ ____

>  <TORSDO>
F 10

$$$$
=
 OpenBabel11062412443D

 32 34  0  0  1  0  0  0  0  0999 V2000
  187.0900  177.9100  142.0740 C   0  0  0  0  0  0  0  0  0  0  0  0
  188.0740  176.6430  143.6700 C   0  0  1  0  0  3  0  0  0  0  0  0
  186.8290  177.2090  144.0710 O   0  0  0  0  0  0  0  0  0  0  0  0
  188.2050  177.1350  142.3420 O   0  0  0  0  0  0  0  0  0  0  0  0
  186.2780  177.9690  143.0680 N   0  0  0  0  0  0  0  0  0  0  0  0
  190.4160  176.2860  144.4890 N   0  0  0  0  0  0  0  0  0  0  0  0
  189.2230  177.1610  144.5590 C   0  0  2  0  0  3  0  0  0  0  0  0
  191.4610  176.5650  146.6680 C   0  0  0  0  0  0  0  0  0  0  0  0
  190.3260  177.0620  147.5160 C   0  0  0  0  0  2  0  0  0  0  0  0
  192.3190  175.8520  147.1600 O   0  0  0  0  0  0  0  0  0  0  0  0
  188.6920  177.2240  146.0010 C   0  0  0  0  0  2  0  0  0  0  0  0
  189.5450  177.9870  146.8080 O   0  0  0  0  0  0  0  0  0  0  0  0
  191.5240  176.9090  145.2130 C   0  0  0  0  0  2  0  0  0  0  0  0
  190.8940  176.1990  143.1150 C   0  0  0  0  0  2  0  0  0  0  0  0
  191.8410  177.5430  141.2680 C   0  0  0  0  0  1  0  0  0  0  0  0
  191.6900  177.4410  142.7710 C   0  0  0  0  0  2  0  0  0  0  0  0
  186.8620  178.6230  140.7870 C   0  0  0  0  0  2  0  0  0  0  0  0
  188.0560  178.6580  140.0440 O   0  0  0  0  0  0  0  0  0  0  0  0
  188.7580  178.6750  137.7170 C   0  0  0  0  0  3  0  0  0  0  0  0
  185.9210  177.5910  137.2430 C   0  0  0  0  0  3  0  0  0  0  0  0
  188.8460  178.1860  136.4820 C   0  0  0  0  0  3  0  0  0  0  0  0
  187.8260  178.1230  138.7550 C   0  0  2  0  0  3  0  0  0  0  0  0
  188.0250  177.0990  135.9120 C   0  0  0  0  0  0  0  0  0  0  0  0
  186.7350  176.8850  136.2340 C   0  0  0  0  0  3  0  0  0  0  0  0
  186.3860  178.1740  138.3470 C   0  0  0  0  0  3  0  0  0  0  0  0
  188.6210  176.3310  134.8620 N   0  0  0  0  0  2  0  0  0  0  0  0
  189.7480  175.4330  135.0600 C   0  0  0  0  0  2  0  0  0  0  0  0
  189.6040  174.7280  136.3930 C   0  0  0  0  0  2  0  0  0  0  0  0
  190.4870  175.6560  138.7580 O   0  0  0  0  0  0  0  0  0  0  0  0
  191.9610  176.3230  136.6740 N   0  0  0  0  0  1  0  0  0  0  0  0
  190.9850  175.1230  137.4440 S   0  0  0  0  0  0  0  0  0  0  0  0
  191.8090  173.8910  137.6830 O   0  0  0  0  0  0  0  0  0  0  0  0
  1  4  1  0  0  0  0
  1  5  2  0  0  0  0
  2  4  1  6  0  0  0
  2  3  1  0  0  0  0
  2  7  1  0  0  0  0
  5  3  1  0  0  0  0
  6  7  1  0  0  0  0
  6 13  1  0  0  0  0
  7 11  1  1  0  0  0
  8 10  2  0  0  0  0
  8  9  1  0  0  0  0
 11 12  1  0  0  0  0
 12  9  1  0  0  0  0
 13  8  1  0  0  0  0
 14  6  1  0  0  0  0
 15 16  1  0  0  0  0
 16 14  1  0  0  0  0
 17  1  1  0  0  0  0
 18 17  1  0  0  0  0
 19 22  1  0  0  0  0
 20 25  2  0  0  0  0
 21 19  2  0  0  0  0
 22 18  1  1  0  0  0
 23 24  2  0  0  0  0
 23 21  1  0  0  0  0
 24 20  1  0  0  0  0
 25 22  1  0  0  0  0
 26 27  1  0  0  0  0
 26 23  1  0  0  0  0
 27 28  1  0  0  0  0
 28 31  1  0  0  0  0
 30 31  1  0  0  0  0
 31 32  2  0  0  0  0
 31 29  2  0  0  0  0
M  END
>  <MODEL>
9

>  <REMARK>
 VINA RESULT:      -6.9      2.978      7.950
  Name = 
  10 active torsions:
  status: ('A' for Active; 'I' for Inactive)
    1  A    between atoms: N_1  and  C_32
    2  A    between atoms: C_2  and  C_27
    3  A    between atoms: C_3  and  C_4
    4  A    between atoms: C_9  and  O_20
    5  A    between atoms: C_11  and  N_31
    6  A    between atoms: C_14  and  S_17
    7  A    between atoms: C_14  and  C_28
    8  A    between atoms: O_20  and  C_27
    9  A    between atoms: C_26  and  C_32
   10  A    between atoms: C_28  and  N_31
                            x       y       z     vdW  Elec       q    Type
                         _______ _______ _______ _____ _____    ______ ____

>  <TORSDO>
F 10

$$$$
