=
 OpenBabel11062413233D

 46 51  0  0  1  0  0  0  0  0999 V2000
  190.0810  178.1820  143.1650 N   0  0  1  0  0  0  0  0  0  0  0  0
  191.8080  177.1180  144.1840 N   0  0  0  0  0  2  0  0  0  0  0  0
  190.9090  179.2400  143.5390 N   0  0  0  0  0  2  0  0  0  0  0  0
  189.5420  178.2440  141.8250 C   0  0  1  0  0  3  0  0  0  0  0  0
  191.8780  178.5700  144.4330 C   0  0  0  0  0  2  0  0  0  0  0  0
  190.3100  175.9970  142.4100 C   0  0  0  0  0  2  0  0  0  0  0  0
  189.4010  176.7540  141.4270 C   0  0  2  0  0  3  0  0  0  0  0  0
  191.0470  177.1690  142.9710 C   0  0  1  0  0  3  0  0  0  0  0  0
  189.8490  176.5660  140.0570 N   0  0  0  0  0  0  0  0  0  0  0  0
  190.8950  176.5450  139.1210 C   0  0  0  0  0  0  0  0  0  0  0  0
  191.6890  176.4050  136.9570 C   0  0  0  0  0  3  0  0  0  0  0  0
  190.3100  176.2650  136.4910 C   0  0  0  0  0  3  0  0  0  0  0  0
  189.1830  176.2440  137.3870 C   0  0  0  0  0  0  0  0  0  0  0  0
  192.0180  176.5490  138.3510 C   0  0  0  0  0  0  0  0  0  0  0  0
  189.5970  176.4050  138.6840 C   0  0  0  0  0  0  0  0  0  0  0  0
  187.7850  176.1310  136.9260 C   0  0  0  0  0  0  0  0  0  0  0  0
  187.2110  174.9500  136.6350 C   0  0  0  0  0  3  0  0  0  0  0  0
  185.7120  177.3630  136.3250 C   0  0  0  0  0  1  0  0  0  0  0  0
  187.0620  177.3210  136.7720 O   0  0  0  0  0  0  0  0  0  0  0  0
  187.9020  173.6260  136.6720 C   0  0  0  0  0  2  0  0  0  0  0  0
  186.9170  172.5340  137.0600 C   0  0  0  0  0  2  0  0  0  0  0  0
  185.5450  172.8170  136.4700 C   0  0  0  0  0  2  0  0  0  0  0  0
  184.4430  172.5500  137.4860 C   0  0  0  0  0  2  0  0  0  0  0  0
  183.2170  173.0020  136.9950 O   0  0  0  0  0  0  0  0  0  0  0  0
  182.5090  171.8370  136.6940 C   0  0  0  0  0  1  0  0  0  0  0  0
  193.3060  176.6840  138.8690 O   0  0  0  0  0  0  0  0  0  0  0  0
  194.2590  175.6350  138.7870 C   0  0  0  0  0  1  0  0  0  0  0  0
  188.1950  178.9670  141.7950 C   0  0  0  0  0  2  0  0  0  0  0  0
  187.0730  178.0930  141.2460 C   0  0  0  0  0  2  0  0  0  0  0  0
  186.4990  178.7120  139.9860 C   0  0  0  0  0  2  0  0  0  0  0  0
  185.2690  179.3060  140.2660 O   0  0  0  0  0  0  0  0  0  0  0  0
  183.0360  178.8450  140.0150 O   0  0  0  0  0  0  0  0  0  0  0  0
  183.3730  178.1160  141.1730 C   0  0  1  0  0  3  0  0  0  0  0  0
  184.3300  178.2910  140.0390 C   0  0  2  0  0  3  0  0  0  0  0  0
  183.5750  179.0860  142.3360 C   0  0  0  0  0  2  0  0  0  0  0  0
  184.2060  178.3710  143.5240 C   0  0  0  0  0  2  0  0  0  0  0  0
  184.0130  179.1610  144.8110 C   0  0  0  0  0  2  0  0  0  0  0  0
  185.3300  179.2920  145.5580 C   0  0  0  0  0  2  0  0  0  0  0  0
  185.4850  178.1710  146.5750 C   0  0  0  0  0  2  0  0  0  0  0  0
  187.3890  178.3270  148.1860 C   0  0  0  0  0  3  0  0  0  0  0  0
  187.7980  177.3360  146.0120 C   0  0  0  0  0  0  0  0  0  0  0  0
  186.9210  177.9420  146.9250 C   0  0  0  0  0  0  0  0  0  0  0  0
  188.7250  178.1140  148.5360 C   0  0  0  0  0  3  0  0  0  0  0  0
  189.1350  177.1240  146.3650 C   0  0  0  0  0  3  0  0  0  0  0  0
  189.5980  177.5120  147.6260 C   0  0  0  0  0  3  0  0  0  0  0  0
  187.3650  176.9540  144.7850 F   0  0  0  0  0  0  0  0  0  0  0  0
  1  3  1  6  0  0  0
  2  5  1  0  0  0  0
  3  5  1  0  0  0  0
  4 28  1  1  0  0  0
  4  1  1  0  0  0  0
  7  9  1  6  0  0  0
  7  4  1  0  0  0  0
  7  6  1  0  0  0  0
  8  6  1  1  0  0  0
  8  1  1  0  0  0  0
  8  2  1  0  0  0  0
 10  9  1  0  0  0  0
 11 14  1  0  0  0  0
 12 11  2  0  0  0  0
 12 13  1  0  0  0  0
 13 15  2  0  0  0  0
 14 26  1  0  0  0  0
 14 10  2  0  0  0  0
 15 10  1  0  0  0  0
 15  9  1  0  0  0  0
 16 13  1  0  0  0  0
 17 20  1  0  0  0  0
 17 16  2  0  0  0  0
 18 19  1  0  0  0  0
 19 16  1  0  0  0  0
 20 21  1  0  0  0  0
 22 21  1  0  0  0  0
 22 23  1  0  0  0  0
 24 23  1  0  0  0  0
 25 24  1  0  0  0  0
 27 26  1  0  0  0  0
 29 28  1  0  0  0  0
 30 31  1  0  0  0  0
 30 29  1  0  0  0  0
 32 34  1  0  0  0  0
 32 33  1  0  0  0  0
 33 35  1  1  0  0  0
 34 31  1  1  0  0  0
 34 33  1  0  0  0  0
 35 36  1  0  0  0  0
 36 37  1  0  0  0  0
 37 38  1  0  0  0  0
 38 39  1  0  0  0  0
 39 42  1  0  0  0  0
 40 43  1  0  0  0  0
 41 44  2  0  0  0  0
 41 42  1  0  0  0  0
 42 40  2  0  0  0  0
 44 45  1  0  0  0  0
 45 43  2  0  0  0  0
 46 41  1  0  0  0  0
M  END
>  <MODEL>
1

>  <REMARK>
 VINA RESULT:      -7.0      0.000      0.000
  Name = 
  20 active torsions:
  status: ('A' for Active; 'I' for Inactive)
    1  A    between atoms: C_1  and  C_14
    2  A    between atoms: C_1  and  C_46
    3  A    between atoms: C_4  and  C_16
    4  A    between atoms: C_4  and  C_38
    5  A    between atoms: C_5  and  C_23
    6  A    between atoms: C_5  and  C_25
    7  A    between atoms: N_6  and  C_37
    8  A    between atoms: C_7  and  C_22
    9  A    between atoms: C_7  and  O_43
   10  A    between atoms: O_9  and  C_39
   11  A    between atoms: O_11  and  C_21
   12  A    between atoms: C_14  and  C_15
   13  A    between atoms: C_15  and  C_30
   14  A    between atoms: C_16  and  C_21
   15  A    between atoms: C_17  and  C_33
   16  A    between atoms: C_25  and  C_28
   17  A    between atoms: C_28  and  O_45
   18  A    between atoms: C_31  and  C_38
   19  A    between atoms: C_33  and  C_46
   20  A    between atoms: C_40  and  O_45
                            x       y       z     vdW  Elec       q    Type
                         _______ _______ _______ _____ _____    ______ ____

>  <TORSDO>
F 20

$$$$
=
 OpenBabel11062413233D

 46 51  0  0  1  0  0  0  0  0999 V2000
  189.8510  178.2520  142.9370 N   0  0  1  0  0  0  0  0  0  0  0  0
  191.7530  177.2280  143.6330 N   0  0  0  0  0  2  0  0  0  0  0  0
  190.6200  179.3220  143.3920 N   0  0  0  0  0  2  0  0  0  0  0  0
  189.1780  178.4500  141.6720 C   0  0  1  0  0  3  0  0  0  0  0  0
  191.7260  178.6300  144.0890 C   0  0  0  0  0  2  0  0  0  0  0  0
  190.1870  176.2280  141.8460 C   0  0  0  0  0  2  0  0  0  0  0  0
  189.1240  177.0240  141.0690 C   0  0  2  0  0  3  0  0  0  0  0  0
  190.8740  177.3750  142.5110 C   0  0  1  0  0  3  0  0  0  0  0  0
  189.4480  177.0770  139.6530 N   0  0  0  0  0  0  0  0  0  0  0  0
  189.3310  177.7180  138.4100 C   0  0  0  0  0  0  0  0  0  0  0  0
  189.6710  177.8160  136.1280 C   0  0  0  0  0  3  0  0  0  0  0  0
  190.3490  176.5230  136.2040 C   0  0  0  0  0  3  0  0  0  0  0  0
  190.5390  175.8140  137.4420 C   0  0  0  0  0  0  0  0  0  0  0  0
  189.1290  178.4680  137.2920 C   0  0  0  0  0  0  0  0  0  0  0  0
  189.9760  176.5050  138.4830 C   0  0  0  0  0  0  0  0  0  0  0  0
  191.1980  174.4950  137.5260 C   0  0  0  0  0  0  0  0  0  0  0  0
  192.5280  174.3560  137.6620 C   0  0  0  0  0  3  0  0  0  0  0  0
  189.0500  173.3990  136.9230 C   0  0  0  0  0  1  0  0  0  0  0  0
  190.3780  173.3620  137.4310 O   0  0  0  0  0  0  0  0  0  0  0  0
  193.5120  175.4800  137.6850 C   0  0  0  0  0  2  0  0  0  0  0  0
  194.8640  175.0020  137.1780 C   0  0  0  0  0  2  0  0  0  0  0  0
  195.4240  173.9200  138.0880 C   0  0  0  0  0  2  0  0  0  0  0  0
  195.8610  174.5000  139.4270 C   0  0  0  0  0  2  0  0  0  0  0  0
  197.1440  175.0380  139.3210 O   0  0  0  0  0  0  0  0  0  0  0  0
  197.4920  175.3730  140.6310 C   0  0  0  0  0  1  0  0  0  0  0  0
  188.4750  179.7000  137.2980 O   0  0  0  0  0  0  0  0  0  0  0  0
  187.1710  179.8580  136.7600 C   0  0  0  0  0  1  0  0  0  0  0  0
  187.7790  179.0360  141.8670 C   0  0  0  0  0  2  0  0  0  0  0  0
  186.6800  178.1010  141.3760 C   0  0  0  0  0  2  0  0  0  0  0  0
  185.9370  178.7330  140.2160 C   0  0  0  0  0  2  0  0  0  0  0  0
  184.7890  179.3760  140.6800 O   0  0  0  0  0  0  0  0  0  0  0  0
  182.5180  179.1530  140.4430 O   0  0  0  0  0  0  0  0  0  0  0  0
  182.7940  178.3340  141.5560 C   0  0  1  0  0  3  0  0  0  0  0  0
  183.7510  178.4730  140.4170 C   0  0  2  0  0  3  0  0  0  0  0  0
  183.1060  179.2180  142.7630 C   0  0  0  0  0  2  0  0  0  0  0  0
  183.6650  178.3810  143.9070 C   0  0  0  0  0  2  0  0  0  0  0  0
  184.2380  179.2620  145.0080 C   0  0  0  0  0  2  0  0  0  0  0  0
  185.7330  179.0280  145.1530 C   0  0  0  0  0  2  0  0  0  0  0  0
  186.0060  177.6670  145.7770 C   0  0  0  0  0  2  0  0  0  0  0  0
  187.3600  178.2120  147.8050 C   0  0  0  0  0  3  0  0  0  0  0  0
  188.4540  177.0840  145.9590 C   0  0  0  0  0  0  0  0  0  0  0  0
  187.3030  177.6560  146.5230 C   0  0  0  0  0  0  0  0  0  0  0  0
  188.5600  178.2040  148.5230 C   0  0  0  0  0  3  0  0  0  0  0  0
  189.6530  177.0760  146.6800 C   0  0  0  0  0  3  0  0  0  0  0  0
  189.7060  177.6360  147.9590 C   0  0  0  0  0  3  0  0  0  0  0  0
  188.4190  176.5380  144.7190 F   0  0  0  0  0  0  0  0  0  0  0  0
  1  3  1  6  0  0  0
  2  5  1  0  0  0  0
  3  5  1  0  0  0  0
  4 28  1  1  0  0  0
  4  1  1  0  0  0  0
  7  9  1  6  0  0  0
  7  4  1  0  0  0  0
  7  6  1  0  0  0  0
  8  6  1  1  0  0  0
  8  1  1  0  0  0  0
  8  2  1  0  0  0  0
 10 15  1  0  0  0  0
 10  9  1  0  0  0  0
 11 12  2  0  0  0  0
 11 14  1  0  0  0  0
 12 13  1  0  0  0  0
 13 16  1  0  0  0  0
 13 15  2  0  0  0  0
 14 26  1  0  0  0  0
 14 10  2  0  0  0  0
 15  9  1  0  0  0  0
 16 17  2  0  0  0  0
 17 20  1  0  0  0  0
 18 19  1  0  0  0  0
 19 16  1  0  0  0  0
 21 20  1  0  0  0  0
 21 22  1  0  0  0  0
 22 23  1  0  0  0  0
 24 23  1  0  0  0  0
 24 25  1  0  0  0  0
 27 26  1  0  0  0  0
 29 28  1  0  0  0  0
 30 31  1  0  0  0  0
 30 29  1  0  0  0  0
 32 33  1  0  0  0  0
 33 35  1  1  0  0  0
 34 32  1  0  0  0  0
 34 31  1  1  0  0  0
 34 33  1  0  0  0  0
 35 36  1  0  0  0  0
 36 37  1  0  0  0  0
 37 38  1  0  0  0  0
 38 39  1  0  0  0  0
 39 42  1  0  0  0  0
 40 43  1  0  0  0  0
 41 42  1  0  0  0  0
 41 44  2  0  0  0  0
 42 40  2  0  0  0  0
 44 45  1  0  0  0  0
 45 43  2  0  0  0  0
 46 41  1  0  0  0  0
M  END
>  <MODEL>
2

>  <REMARK>
 VINA RESULT:      -6.9      2.114      4.763
  Name = 
  20 active torsions:
  status: ('A' for Active; 'I' for Inactive)
    1  A    between atoms: C_1  and  C_14
    2  A    between atoms: C_1  and  C_46
    3  A    between atoms: C_4  and  C_16
    4  A    between atoms: C_4  and  C_38
    5  A    between atoms: C_5  and  C_23
    6  A    between atoms: C_5  and  C_25
    7  A    between atoms: N_6  and  C_37
    8  A    between atoms: C_7  and  C_22
    9  A    between atoms: C_7  and  O_43
   10  A    between atoms: O_9  and  C_39
   11  A    between atoms: O_11  and  C_21
   12  A    between atoms: C_14  and  C_15
   13  A    between atoms: C_15  and  C_30
   14  A    between atoms: C_16  and  C_21
   15  A    between atoms: C_17  and  C_33
   16  A    between atoms: C_25  and  C_28
   17  A    between atoms: C_28  and  O_45
   18  A    between atoms: C_31  and  C_38
   19  A    between atoms: C_33  and  C_46
   20  A    between atoms: C_40  and  O_45
                            x       y       z     vdW  Elec       q    Type
                         _______ _______ _______ _____ _____    ______ ____

>  <TORSDO>
F 20

$$$$
=
 OpenBabel11062413233D

 46 51  0  0  1  0  0  0  0  0999 V2000
  189.8550  178.2210  142.9900 N   0  0  1  0  0  0  0  0  0  0  0  0
  191.7660  177.0790  143.4310 N   0  0  0  0  0  2  0  0  0  0  0  0
  190.7040  179.2250  143.4540 N   0  0  0  0  0  2  0  0  0  0  0  0
  189.0830  178.5430  141.8090 C   0  0  1  0  0  3  0  0  0  0  0  0
  191.8360  178.4410  143.9940 C   0  0  0  0  0  2  0  0  0  0  0  0
  190.0090  176.2810  141.7220 C   0  0  0  0  0  2  0  0  0  0  0  0
  188.9170  177.1720  141.1060 C   0  0  2  0  0  3  0  0  0  0  0  0
  190.7990  177.3460  142.4080 C   0  0  1  0  0  3  0  0  0  0  0  0
  189.1190  177.3260  139.6750 N   0  0  0  0  0  0  0  0  0  0  0  0
  188.6010  177.6400  138.4090 C   0  0  0  0  0  0  0  0  0  0  0  0
  188.7800  177.7770  136.1110 C   0  0  0  0  0  3  0  0  0  0  0  0
  190.1450  177.2640  136.2170 C   0  0  0  0  0  3  0  0  0  0  0  0
  190.7630  176.9470  137.4770 C   0  0  0  0  0  0  0  0  0  0  0  0
  187.9480  177.9880  137.2660 C   0  0  0  0  0  0  0  0  0  0  0  0
  189.8880  177.1640  138.5100 C   0  0  0  0  0  0  0  0  0  0  0  0
  192.1310  176.4020  137.5940 C   0  0  0  0  0  0  0  0  0  0  0  0
  192.5150  175.2690  136.9820 C   0  0  0  0  0  3  0  0  0  0  0  0
  193.3140  176.7450  139.7530 C   0  0  0  0  0  1  0  0  0  0  0  0
  193.0330  177.1040  138.4050 O   0  0  0  0  0  0  0  0  0  0  0  0
  191.6250  174.3870  136.1680 C   0  0  0  0  0  2  0  0  0  0  0  0
  190.5730  173.7430  137.0570 C   0  0  0  0  0  2  0  0  0  0  0  0
  189.2360  173.6680  136.3350 C   0  0  0  0  0  2  0  0  0  0  0  0
  188.2750  172.7320  137.0550 C   0  0  0  0  0  2  0  0  0  0  0  0
  187.8190  171.7460  136.1790 O   0  0  0  0  0  0  0  0  0  0  0  0
  188.3440  172.1100  134.9370 C   0  0  0  0  0  1  0  0  0  0  0  0
  186.6410  178.4770  137.2440 O   0  0  0  0  0  0  0  0  0  0  0  0
  185.5180  177.6100  137.1980 C   0  0  0  0  0  1  0  0  0  0  0  0
  187.7320  179.1590  142.1730 C   0  0  0  0  0  2  0  0  0  0  0  0
  186.5590  178.2610  141.7980 C   0  0  0  0  0  2  0  0  0  0  0  0
  185.8450  178.8160  140.5810 C   0  0  0  0  0  2  0  0  0  0  0  0
  184.6160  179.3580  140.9570 O   0  0  0  0  0  0  0  0  0  0  0  0
  182.3980  178.8050  140.7670 O   0  0  0  0  0  0  0  0  0  0  0  0
  182.7670  178.1860  141.9770 C   0  0  1  0  0  3  0  0  0  0  0  0
  183.7100  178.2980  140.8230 C   0  0  2  0  0  3  0  0  0  0  0  0
  182.9450  179.2560  143.0540 C   0  0  0  0  0  2  0  0  0  0  0  0
  183.6230  178.6660  144.2850 C   0  0  0  0  0  2  0  0  0  0  0  0
  184.7240  179.5810  144.8000 C   0  0  0  0  0  2  0  0  0  0  0  0
  185.3600  178.9960  146.0510 C   0  0  0  0  0  2  0  0  0  0  0  0
  186.1380  177.7310  145.7170 C   0  0  0  0  0  2  0  0  0  0  0  0
  187.5150  178.2470  147.7380 C   0  0  0  0  0  3  0  0  0  0  0  0
  188.5540  177.0310  145.9150 C   0  0  0  0  0  0  0  0  0  0  0  0
  187.4320  177.6700  146.4660 C   0  0  0  0  0  0  0  0  0  0  0  0
  188.7120  178.1930  148.4580 C   0  0  0  0  0  3  0  0  0  0  0  0
  189.7500  176.9780  146.6390 C   0  0  0  0  0  3  0  0  0  0  0  0
  189.8290  177.5580  147.9080 C   0  0  0  0  0  3  0  0  0  0  0  0
  188.4940  176.4640  144.6860 F   0  0  0  0  0  0  0  0  0  0  0  0
  1  3  1  6  0  0  0
  2  5  1  0  0  0  0
  3  5  1  0  0  0  0
  4 28  1  1  0  0  0
  4  1  1  0  0  0  0
  7  9  1  6  0  0  0
  7  6  1  0  0  0  0
  7  4  1  0  0  0  0
  8  6  1  1  0  0  0
  8  1  1  0  0  0  0
  8  2  1  0  0  0  0
 10 15  1  0  0  0  0
 10  9  1  0  0  0  0
 11 12  2  0  0  0  0
 11 14  1  0  0  0  0
 12 13  1  0  0  0  0
 13 16  1  0  0  0  0
 13 15  2  0  0  0  0
 14 10  2  0  0  0  0
 15  9  1  0  0  0  0
 16 19  1  0  0  0  0
 17 16  2  0  0  0  0
 19 18  1  0  0  0  0
 20 17  1  0  0  0  0
 20 21  1  0  0  0  0
 22 23  1  0  0  0  0
 22 21  1  0  0  0  0
 24 23  1  0  0  0  0
 25 24  1  0  0  0  0
 26 14  1  0  0  0  0
 27 26  1  0  0  0  0
 29 28  1  0  0  0  0
 30 31  1  0  0  0  0
 30 29  1  0  0  0  0
 32 34  1  0  0  0  0
 32 33  1  0  0  0  0
 33 35  1  1  0  0  0
 34 31  1  1  0  0  0
 34 33  1  0  0  0  0
 35 36  1  0  0  0  0
 36 37  1  0  0  0  0
 37 38  1  0  0  0  0
 39 38  1  0  0  0  0
 39 42  1  0  0  0  0
 40 43  1  0  0  0  0
 41 42  1  0  0  0  0
 41 44  2  0  0  0  0
 42 40  2  0  0  0  0
 44 45  1  0  0  0  0
 45 43  2  0  0  0  0
 46 41  1  0  0  0  0
M  END
>  <MODEL>
3

>  <REMARK>
 VINA RESULT:      -6.7      1.632      3.192
  Name = 
  20 active torsions:
  status: ('A' for Active; 'I' for Inactive)
    1  A    between atoms: C_1  and  C_14
    2  A    between atoms: C_1  and  C_46
    3  A    between atoms: C_4  and  C_16
    4  A    between atoms: C_4  and  C_38
    5  A    between atoms: C_5  and  C_23
    6  A    between atoms: C_5  and  C_25
    7  A    between atoms: N_6  and  C_37
    8  A    between atoms: C_7  and  C_22
    9  A    between atoms: C_7  and  O_43
   10  A    between atoms: O_9  and  C_39
   11  A    between atoms: O_11  and  C_21
   12  A    between atoms: C_14  and  C_15
   13  A    between atoms: C_15  and  C_30
   14  A    between atoms: C_16  and  C_21
   15  A    between atoms: C_17  and  C_33
   16  A    between atoms: C_25  and  C_28
   17  A    between atoms: C_28  and  O_45
   18  A    between atoms: C_31  and  C_38
   19  A    between atoms: C_33  and  C_46
   20  A    between atoms: C_40  and  O_45
                            x       y       z     vdW  Elec       q    Type
                         _______ _______ _______ _____ _____    ______ ____

>  <TORSDO>
F 20

$$$$
=
 OpenBabel11062413233D

 46 51  0  0  1  0  0  0  0  0999 V2000
  192.6130  175.9340  137.8850 N   0  0  1  0  0  0  0  0  0  0  0  0
  193.5490  174.5560  136.3430 N   0  0  0  0  0  2  0  0  0  0  0  0
  193.5660  176.7560  137.2850 N   0  0  0  0  0  2  0  0  0  0  0  0
  191.3110  176.5270  138.0970 C   0  0  1  0  0  3  0  0  0  0  0  0
  194.3490  175.7870  136.4880 C   0  0  0  0  0  2  0  0  0  0  0  0
  191.1580  174.2370  137.2530 C   0  0  0  0  0  2  0  0  0  0  0  0
  190.3460  175.3210  137.9810 C   0  0  2  0  0  3  0  0  0  0  0  0
  192.2980  175.0870  136.7980 C   0  0  1  0  0  3  0  0  0  0  0  0
  189.1760  175.7000  137.2060 N   0  0  0  0  0  0  0  0  0  0  0  0
  188.3080  176.7010  136.7400 C   0  0  0  0  0  0  0  0  0  0  0  0
  186.3910  177.3900  135.6530 C   0  0  0  0  0  3  0  0  0  0  0  0
  186.0710  175.9870  135.3910 C   0  0  0  0  0  3  0  0  0  0  0  0
  186.9220  174.9030  135.8070 C   0  0  0  0  0  0  0  0  0  0  0  0
  187.5790  177.7860  136.3640 C   0  0  0  0  0  0  0  0  0  0  0  0
  188.0120  175.3810  136.4860 C   0  0  0  0  0  0  0  0  0  0  0  0
  186.5960  173.4820  135.5710 C   0  0  0  0  0  0  0  0  0  0  0  0
  185.6490  172.8300  136.2690 C   0  0  0  0  0  3  0  0  0  0  0  0
  187.7440  171.4490  134.7190 C   0  0  0  0  0  1  0  0  0  0  0  0
  187.3390  172.8070  134.5940 O   0  0  0  0  0  0  0  0  0  0  0  0
  184.8550  173.4120  137.3930 C   0  0  0  0  0  2  0  0  0  0  0  0
  183.3700  173.3490  137.0710 C   0  0  0  0  0  2  0  0  0  0  0  0
  182.6680  174.6150  137.5350 C   0  0  0  0  0  2  0  0  0  0  0  0
  183.6620  175.6190  138.1020 C   0  0  0  0  0  2  0  0  0  0  0  0
  183.4020  176.8920  137.5920 O   0  0  0  0  0  0  0  0  0  0  0  0
  184.0560  177.7610  138.4680 C   0  0  0  0  0  1  0  0  0  0  0  0
  187.9510  179.1010  136.6470 O   0  0  0  0  0  0  0  0  0  0  0  0
  189.0300  179.4020  137.5190 C   0  0  0  0  0  1  0  0  0  0  0  0
  191.2170  177.1970  139.4690 C   0  0  0  0  0  2  0  0  0  0  0  0
  190.3860  176.3900  140.4590 C   0  0  0  0  0  2  0  0  0  0  0  0
  189.9090  177.2810  141.5890 C   0  0  0  0  0  2  0  0  0  0  0  0
  190.6610  177.0360  142.7380 O   0  0  0  0  0  0  0  0  0  0  0  0
  191.9550  178.5720  143.8460 O   0  0  0  0  0  0  0  0  0  0  0  0
  191.0810  178.1210  144.8550 C   0  0  1  0  0  3  0  0  0  0  0  0
  190.6480  178.2540  143.4310 C   0  0  2  0  0  3  0  0  0  0  0  0
  191.4830  176.7060  145.2710 C   0  0  0  0  0  2  0  0  0  0  0  0
  191.2720  176.5090  146.7670 C   0  0  0  0  0  2  0  0  0  0  0  0
  190.2180  177.4650  147.3060 C   0  0  0  0  0  2  0  0  0  0  0  0
  188.8950  176.7430  147.5030 C   0  0  0  0  0  2  0  0  0  0  0  0
  187.7520  177.7400  147.6290 C   0  0  0  0  0  2  0  0  0  0  0  0
  187.4990  177.2460  145.1930 C   0  0  0  0  0  3  0  0  0  0  0  0
  185.9180  178.7630  146.2300 C   0  0  0  0  0  0  0  0  0  0  0  0
  187.0410  177.9270  146.3260 C   0  0  0  0  0  0  0  0  0  0  0  0
  186.8430  177.3990  143.9670 C   0  0  0  0  0  3  0  0  0  0  0  0
  185.2640  178.9140  145.0020 C   0  0  0  0  0  3  0  0  0  0  0  0
  185.7260  178.2330  143.8730 C   0  0  0  0  0  3  0  0  0  0  0  0
  185.4570  179.4310  147.3160 F   0  0  0  0  0  0  0  0  0  0  0  0
  1  3  1  6  0  0  0
  1  4  1  0  0  0  0
  2  5  1  0  0  0  0
  2  8  1  0  0  0  0
  4 28  1  1  0  0  0
  5  3  1  0  0  0  0
  6  7  1  0  0  0  0
  7  9  1  6  0  0  0
  7  4  1  0  0  0  0
  8  6  1  1  0  0  0
  8  1  1  0  0  0  0
 10  9  1  0  0  0  0
 11 14  1  0  0  0  0
 12 11  2  0  0  0  0
 12 13  1  0  0  0  0
 13 15  2  0  0  0  0
 14 26  1  0  0  0  0
 14 10  2  0  0  0  0
 15 10  1  0  0  0  0
 15  9  1  0  0  0  0
 16 13  1  0  0  0  0
 16 17  2  0  0  0  0
 17 20  1  0  0  0  0
 19 18  1  0  0  0  0
 19 16  1  0  0  0  0
 21 20  1  0  0  0  0
 21 22  1  0  0  0  0
 22 23  1  0  0  0  0
 24 23  1  0  0  0  0
 24 25  1  0  0  0  0
 26 27  1  0  0  0  0
 28 29  1  0  0  0  0
 29 30  1  0  0  0  0
 30 31  1  0  0  0  0
 32 33  1  0  0  0  0
 33 35  1  6  0  0  0
 34 31  1  6  0  0  0
 34 32  1  0  0  0  0
 34 33  1  0  0  0  0
 35 36  1  0  0  0  0
 36 37  1  0  0  0  0
 37 38  1  0  0  0  0
 38 39  1  0  0  0  0
 40 42  1  0  0  0  0
 41 42  2  0  0  0  0
 41 46  1  0  0  0  0
 42 39  1  0  0  0  0
 43 40  2  0  0  0  0
 44 41  1  0  0  0  0
 45 43  1  0  0  0  0
 45 44  2  0  0  0  0
M  END
>  <MODEL>
4

>  <REMARK>
 VINA RESULT:      -6.7      2.579      5.447
  Name = 
  20 active torsions:
  status: ('A' for Active; 'I' for Inactive)
    1  A    between atoms: C_1  and  C_14
    2  A    between atoms: C_1  and  C_46
    3  A    between atoms: C_4  and  C_16
    4  A    between atoms: C_4  and  C_38
    5  A    between atoms: C_5  and  C_23
    6  A    between atoms: C_5  and  C_25
    7  A    between atoms: N_6  and  C_37
    8  A    between atoms: C_7  and  C_22
    9  A    between atoms: C_7  and  O_43
   10  A    between atoms: O_9  and  C_39
   11  A    between atoms: O_11  and  C_21
   12  A    between atoms: C_14  and  C_15
   13  A    between atoms: C_15  and  C_30
   14  A    between atoms: C_16  and  C_21
   15  A    between atoms: C_17  and  C_33
   16  A    between atoms: C_25  and  C_28
   17  A    between atoms: C_28  and  O_45
   18  A    between atoms: C_31  and  C_38
   19  A    between atoms: C_33  and  C_46
   20  A    between atoms: C_40  and  O_45
                            x       y       z     vdW  Elec       q    Type
                         _______ _______ _______ _____ _____    ______ ____

>  <TORSDO>
F 20

$$$$
=
 OpenBabel11062413233D

 46 51  0  0  1  0  0  0  0  0999 V2000
  181.3020  178.9020  141.3490 N   0  0  1  0  0  0  0  0  0  0  0  0
  179.3990  180.1380  141.3910 N   0  0  0  0  0  2  0  0  0  0  0  0
  180.4240  178.0790  142.0530 N   0  0  0  0  0  2  0  0  0  0  0  0
  182.0990  178.2520  140.3320 C   0  0  1  0  0  3  0  0  0  0  0  0
  179.2910  178.9930  142.3140 C   0  0  0  0  0  2  0  0  0  0  0  0
  181.2130  180.4040  139.5790 C   0  0  0  0  0  2  0  0  0  0  0  0
  182.3070  179.3650  139.2750 C   0  0  2  0  0  3  0  0  0  0  0  0
  180.3880  179.5840  140.5150 C   0  0  1  0  0  3  0  0  0  0  0  0
  182.1400  178.8130  137.9410 N   0  0  0  0  0  0  0  0  0  0  0  0
  181.5190  178.8610  136.6830 C   0  0  0  0  0  0  0  0  0  0  0  0
  181.0790  177.9820  134.5940 C   0  0  0  0  0  3  0  0  0  0  0  0
  181.9520  176.8540  134.9170 C   0  0  0  0  0  3  0  0  0  0  0  0
  182.6510  176.7440  136.1710 C   0  0  0  0  0  0  0  0  0  0  0  0
  180.8420  179.0590  135.5190 C   0  0  0  0  0  0  0  0  0  0  0  0
  182.3480  177.8040  136.9840 C   0  0  0  0  0  0  0  0  0  0  0  0
  183.5130  175.5970  136.5180 C   0  0  0  0  0  0  0  0  0  0  0  0
  184.8430  175.6020  136.3180 C   0  0  0  0  0  3  0  0  0  0  0  0
  183.2340  173.1330  136.6840 C   0  0  0  0  0  1  0  0  0  0  0  0
  182.8870  174.4630  137.0520 O   0  0  0  0  0  0  0  0  0  0  0  0
  185.6110  176.7120  135.6760 C   0  0  0  0  0  2  0  0  0  0  0  0
  186.6870  177.2180  136.6230 C   0  0  0  0  0  2  0  0  0  0  0  0
  186.0610  177.9090  137.8240 C   0  0  0  0  0  2  0  0  0  0  0  0
  187.0960  178.1740  138.9080 C   0  0  0  0  0  2  0  0  0  0  0  0
  188.1790  178.8760  138.3770 O   0  0  0  0  0  0  0  0  0  0  0  0
  189.2820  178.4210  139.1030 C   0  0  0  0  0  1  0  0  0  0  0  0
  180.0280  180.1660  135.2800 O   0  0  0  0  0  0  0  0  0  0  0  0
  180.4050  181.4740  135.6830 C   0  0  0  0  0  1  0  0  0  0  0  0
  183.4300  177.7530  140.8970 C   0  0  0  0  0  2  0  0  0  0  0  0
  184.1140  178.7870  141.7840 C   0  0  0  0  0  2  0  0  0  0  0  0
  185.4600  178.2670  142.2490 C   0  0  0  0  0  2  0  0  0  0  0  0
  185.3720  177.8360  143.5720 O   0  0  0  0  0  0  0  0  0  0  0  0
  185.0080  179.8050  144.6900 O   0  0  0  0  0  0  0  0  0  0  0  0
  184.5710  178.8390  145.6190 C   0  0  1  0  0  3  0  0  0  0  0  0
  184.3950  178.6610  144.1450 C   0  0  2  0  0  3  0  0  0  0  0  0
  185.7870  178.1250  146.2080 C   0  0  0  0  0  2  0  0  0  0  0  0
  186.3940  178.9480  147.3370 C   0  0  0  0  0  2  0  0  0  0  0  0
  187.4990  178.1810  148.0480 C   0  0  0  0  0  2  0  0  0  0  0  0
  188.1390  177.1740  147.1070 C   0  0  0  0  0  2  0  0  0  0  0  0
  189.4880  177.6800  146.6150 C   0  0  0  0  0  2  0  0  0  0  0  0
  188.7790  177.2150  144.2650 C   0  0  0  0  0  3  0  0  0  0  0  0
  191.0660  176.7190  144.8970 C   0  0  0  0  0  0  0  0  0  0  0  0
  189.7880  177.1890  145.2340 C   0  0  0  0  0  0  0  0  0  0  0  0
  189.0400  176.7700  142.9650 C   0  0  0  0  0  3  0  0  0  0  0  0
  191.3250  176.2750  143.5960 C   0  0  0  0  0  3  0  0  0  0  0  0
  190.3130  176.3000  142.6310 C   0  0  0  0  0  3  0  0  0  0  0  0
  192.0580  176.6890  145.8200 F   0  0  0  0  0  0  0  0  0  0  0  0
  1  3  1  1  0  0  0
  2  5  1  0  0  0  0
  3  5  1  0  0  0  0
  4 28  1  1  0  0  0
  4  1  1  0  0  0  0
  7  9  1  6  0  0  0
  7  6  1  0  0  0  0
  7  4  1  0  0  0  0
  8  6  1  1  0  0  0
  8  1  1  0  0  0  0
  8  2  1  0  0  0  0
 10 15  1  0  0  0  0
 10  9  1  0  0  0  0
 11 12  2  0  0  0  0
 11 14  1  0  0  0  0
 12 13  1  0  0  0  0
 13 16  1  0  0  0  0
 13 15  2  0  0  0  0
 14 10  2  0  0  0  0
 15  9  1  0  0  0  0
 16 19  1  0  0  0  0
 17 16  2  0  0  0  0
 18 19  1  0  0  0  0
 20 17  1  0  0  0  0
 20 21  1  0  0  0  0
 21 22  1  0  0  0  0
 22 23  1  0  0  0  0
 24 23  1  0  0  0  0
 24 25  1  0  0  0  0
 26 14  1  0  0  0  0
 26 27  1  0  0  0  0
 28 29  1  0  0  0  0
 29 30  1  0  0  0  0
 30 31  1  0  0  0  0
 32 33  1  0  0  0  0
 33 35  1  6  0  0  0
 34 31  1  6  0  0  0
 34 32  1  0  0  0  0
 34 33  1  0  0  0  0
 35 36  1  0  0  0  0
 36 37  1  0  0  0  0
 38 37  1  0  0  0  0
 39 38  1  0  0  0  0
 40 42  1  0  0  0  0
 41 42  2  0  0  0  0
 41 46  1  0  0  0  0
 42 39  1  0  0  0  0
 43 40  2  0  0  0  0
 44 41  1  0  0  0  0
 45 43  1  0  0  0  0
 45 44  2  0  0  0  0
M  END
>  <MODEL>
5

>  <REMARK>
 VINA RESULT:      -6.6      3.941      7.538
  Name = 
  20 active torsions:
  status: ('A' for Active; 'I' for Inactive)
    1  A    between atoms: C_1  and  C_14
    2  A    between atoms: C_1  and  C_46
    3  A    between atoms: C_4  and  C_16
    4  A    between atoms: C_4  and  C_38
    5  A    between atoms: C_5  and  C_23
    6  A    between atoms: C_5  and  C_25
    7  A    between atoms: N_6  and  C_37
    8  A    between atoms: C_7  and  C_22
    9  A    between atoms: C_7  and  O_43
   10  A    between atoms: O_9  and  C_39
   11  A    between atoms: O_11  and  C_21
   12  A    between atoms: C_14  and  C_15
   13  A    between atoms: C_15  and  C_30
   14  A    between atoms: C_16  and  C_21
   15  A    between atoms: C_17  and  C_33
   16  A    between atoms: C_25  and  C_28
   17  A    between atoms: C_28  and  O_45
   18  A    between atoms: C_31  and  C_38
   19  A    between atoms: C_33  and  C_46
   20  A    between atoms: C_40  and  O_45
                            x       y       z     vdW  Elec       q    Type
                         _______ _______ _______ _____ _____    ______ ____

>  <TORSDO>
F 20

$$$$
=
 OpenBabel11062413233D

 46 51  0  0  1  0  0  0  0  0999 V2000
  185.7650  178.8480  139.2220 N   0  0  1  0  0  0  0  0  0  0  0  0
  184.3080  179.2130  140.9240 N   0  0  0  0  0  2  0  0  0  0  0  0
  186.5950  178.8120  140.3420 N   0  0  0  0  0  2  0  0  0  0  0  0
  185.9810  177.8070  138.2420 C   0  0  1  0  0  3  0  0  0  0  0  0
  185.6980  179.3200  141.4030 C   0  0  0  0  0  2  0  0  0  0  0  0
  183.6050  178.2100  138.6550 C   0  0  0  0  0  2  0  0  0  0  0  0
  184.5740  177.5910  137.6330 C   0  0  2  0  0  3  0  0  0  0  0  0
  184.5610  178.3740  139.7900 C   0  0  1  0  0  3  0  0  0  0  0  0
  184.3190  176.1690  137.4720 N   0  0  0  0  0  0  0  0  0  0  0  0
  184.8070  174.8740  137.2400 C   0  0  0  0  0  0  0  0  0  0  0  0
  184.4960  172.6220  136.8330 C   0  0  0  0  0  3  0  0  0  0  0  0
  183.0520  172.8420  136.8900 C   0  0  0  0  0  3  0  0  0  0  0  0
  182.4690  174.1320  137.1540 C   0  0  0  0  0  0  0  0  0  0  0  0
  185.4430  173.6900  137.0230 C   0  0  0  0  0  0  0  0  0  0  0  0
  183.4480  175.0800  137.3020 C   0  0  0  0  0  0  0  0  0  0  0  0
  181.0130  174.3710  137.1860 C   0  0  0  0  0  0  0  0  0  0  0  0
  180.4060  175.0180  138.1960 C   0  0  0  0  0  3  0  0  0  0  0  0
  179.6290  172.5900  136.1410 C   0  0  0  0  0  1  0  0  0  0  0  0
  180.2560  173.8670  136.1190 O   0  0  0  0  0  0  0  0  0  0  0  0
  181.0880  175.5210  139.4280 C   0  0  0  0  0  2  0  0  0  0  0  0
  180.1020  176.2900  140.2930 C   0  0  0  0  0  2  0  0  0  0  0  0
  180.7750  177.4990  140.9240 C   0  0  0  0  0  2  0  0  0  0  0  0
  180.4340  178.7750  140.1690 C   0  0  0  0  0  2  0  0  0  0  0  0
  180.2590  179.8310  141.0650 O   0  0  0  0  0  0  0  0  0  0  0  0
  179.8570  180.9040  140.2670 C   0  0  0  0  0  1  0  0  0  0  0  0
  186.8310  173.5560  136.9860 O   0  0  0  0  0  0  0  0  0  0  0  0
  187.4630  172.2870  137.0440 C   0  0  0  0  0  1  0  0  0  0  0  0
  186.9970  178.2370  137.1820 C   0  0  0  0  0  2  0  0  0  0  0  0
  187.9190  177.0990  136.7600 C   0  0  0  0  0  2  0  0  0  0  0  0
  189.3670  177.4980  136.9640 C   0  0  0  0  0  2  0  0  0  0  0  0
  189.6100  177.7330  138.3170 O   0  0  0  0  0  0  0  0  0  0  0  0
  190.6240  175.8810  139.2120 O   0  0  0  0  0  0  0  0  0  0  0  0
  191.1180  176.9230  140.0210 C   0  0  1  0  0  3  0  0  0  0  0  0
  190.8410  177.1120  138.5650 C   0  0  2  0  0  3  0  0  0  0  0  0
  190.0060  177.4060  140.9510 C   0  0  0  0  0  2  0  0  0  0  0  0
  189.8500  176.4580  142.1340 C   0  0  0  0  0  2  0  0  0  0  0  0
  191.0560  176.5260  143.0590 C   0  0  0  0  0  2  0  0  0  0  0  0
  190.6160  176.7980  144.4880 C   0  0  0  0  0  2  0  0  0  0  0  0
  189.1030  176.9510  144.5650 C   0  0  0  0  0  2  0  0  0  0  0  0
  189.6130  177.4930  146.9500 C   0  0  0  0  0  3  0  0  0  0  0  0
  187.3250  177.7190  146.1820 C   0  0  0  0  0  0  0  0  0  0  0  0
  188.6660  177.3920  145.9260 C   0  0  0  0  0  0  0  0  0  0  0  0
  189.2270  177.9120  148.2270 C   0  0  0  0  0  3  0  0  0  0  0  0
  186.9410  178.1390  147.4600 C   0  0  0  0  0  3  0  0  0  0  0  0
  187.8910  178.2350  148.4810 C   0  0  0  0  0  3  0  0  0  0  0  0
  186.3920  177.6300  145.2020 F   0  0  0  0  0  0  0  0  0  0  0  0
  1  8  1  0  0  0  0
  1  3  1  1  0  0  0
  2  5  1  0  0  0  0
  3  5  1  0  0  0  0
  4 28  1  6  0  0  0
  4  1  1  0  0  0  0
  7  9  1  1  0  0  0
  7  4  1  0  0  0  0
  7  6  1  0  0  0  0
  8  6  1  6  0  0  0
  8  2  1  0  0  0  0
 10 15  1  0  0  0  0
 10  9  1  0  0  0  0
 11 12  2  0  0  0  0
 11 14  1  0  0  0  0
 12 13  1  0  0  0  0
 13 16  1  0  0  0  0
 13 15  2  0  0  0  0
 14 10  2  0  0  0  0
 15  9  1  0  0  0  0
 16 17  2  0  0  0  0
 17 20  1  0  0  0  0
 19 18  1  0  0  0  0
 19 16  1  0  0  0  0
 20 21  1  0  0  0  0
 21 22  1  0  0  0  0
 23 22  1  0  0  0  0
 23 24  1  0  0  0  0
 25 24  1  0  0  0  0
 26 14  1  0  0  0  0
 26 27  1  0  0  0  0
 29 30  1  0  0  0  0
 29 28  1  0  0  0  0
 30 31  1  0  0  0  0
 32 33  1  0  0  0  0
 33 35  1  1  0  0  0
 34 31  1  1  0  0  0
 34 32  1  0  0  0  0
 34 33  1  0  0  0  0
 35 36  1  0  0  0  0
 36 37  1  0  0  0  0
 37 38  1  0  0  0  0
 38 39  1  0  0  0  0
 39 42  1  0  0  0  0
 40 43  1  0  0  0  0
 41 44  2  0  0  0  0
 42 41  1  0  0  0  0
 42 40  2  0  0  0  0
 43 45  2  0  0  0  0
 44 45  1  0  0  0  0
 46 41  1  0  0  0  0
M  END
>  <MODEL>
6

>  <REMARK>
 VINA RESULT:      -6.5      2.642      6.541
  Name = 
  20 active torsions:
  status: ('A' for Active; 'I' for Inactive)
    1  A    between atoms: C_1  and  C_14
    2  A    between atoms: C_1  and  C_46
    3  A    between atoms: C_4  and  C_16
    4  A    between atoms: C_4  and  C_38
    5  A    between atoms: C_5  and  C_23
    6  A    between atoms: C_5  and  C_25
    7  A    between atoms: N_6  and  C_37
    8  A    between atoms: C_7  and  C_22
    9  A    between atoms: C_7  and  O_43
   10  A    between atoms: O_9  and  C_39
   11  A    between atoms: O_11  and  C_21
   12  A    between atoms: C_14  and  C_15
   13  A    between atoms: C_15  and  C_30
   14  A    between atoms: C_16  and  C_21
   15  A    between atoms: C_17  and  C_33
   16  A    between atoms: C_25  and  C_28
   17  A    between atoms: C_28  and  O_45
   18  A    between atoms: C_31  and  C_38
   19  A    between atoms: C_33  and  C_46
   20  A    between atoms: C_40  and  O_45
                            x       y       z     vdW  Elec       q    Type
                         _______ _______ _______ _____ _____    ______ ____

>  <TORSDO>
F 20

$$$$
=
 OpenBabel11062413233D

 46 51  0  0  1  0  0  0  0  0999 V2000
  190.6430  176.4330  143.2290 N   0  0  1  0  0  0  0  0  0  0  0  0
  192.0200  176.1610  145.0130 N   0  0  0  0  0  2  0  0  0  0  0  0
  190.8140  175.0500  143.2680 N   0  0  0  0  0  2  0  0  0  0  0  0
  189.2880  176.8970  143.0200 C   0  0  1  0  0  3  0  0  0  0  0  0
  191.9160  174.9070  144.2440 C   0  0  0  0  0  2  0  0  0  0  0  0
  190.4550  178.1920  144.7350 C   0  0  0  0  0  2  0  0  0  0  0  0
  189.2510  178.2460  143.7800 C   0  0  2  0  0  3  0  0  0  0  0  0
  190.7740  176.7390  144.6020 C   0  0  1  0  0  3  0  0  0  0  0  0
  188.0060  178.3580  144.5220 N   0  0  0  0  0  0  0  0  0  0  0  0
  187.3150  178.2750  145.7400 C   0  0  0  0  0  0  0  0  0  0  0  0
  185.3690  178.2900  146.9840 C   0  0  0  0  0  3  0  0  0  0  0  0
  184.6170  178.5110  145.7490 C   0  0  0  0  0  3  0  0  0  0  0  0
  185.2500  178.6390  144.4640 C   0  0  0  0  0  0  0  0  0  0  0  0
  186.8030  178.1670  146.9980 C   0  0  0  0  0  0  0  0  0  0  0  0
  186.6080  178.4910  144.5800 C   0  0  0  0  0  0  0  0  0  0  0  0
  184.4990  178.8350  143.2070 C   0  0  0  0  0  0  0  0  0  0  0  0
  183.1570  178.9100  143.1680 C   0  0  0  0  0  3  0  0  0  0  0  0
  184.6800  178.7130  140.7320 C   0  0  0  0  0  1  0  0  0  0  0  0
  185.2430  178.9170  142.0220 O   0  0  0  0  0  0  0  0  0  0  0  0
  182.2530  178.7470  144.3470 C   0  0  0  0  0  2  0  0  0  0  0  0
  180.8100  178.6240  143.8840 C   0  0  0  0  0  2  0  0  0  0  0  0
  180.5500  179.5340  142.6940 C   0  0  0  0  0  2  0  0  0  0  0  0
  179.6710  178.8480  141.6580 C   0  0  0  0  0  2  0  0  0  0  0  0
  179.3360  177.5620  142.0880 O   0  0  0  0  0  0  0  0  0  0  0  0
  179.4160  176.7760  140.9370 C   0  0  0  0  0  1  0  0  0  0  0  0
  187.5870  177.9600  148.1330 O   0  0  0  0  0  0  0  0  0  0  0  0
  188.9690  177.6500  148.0420 C   0  0  0  0  0  1  0  0  0  0  0  0
  188.9810  177.0760  141.5330 C   0  0  0  0  0  2  0  0  0  0  0  0
  190.2140  177.4600  140.7220 C   0  0  0  0  0  2  0  0  0  0  0  0
  189.9110  177.3750  139.2390 C   0  0  0  0  0  2  0  0  0  0  0  0
  188.8710  178.2460  138.9150 O   0  0  0  0  0  0  0  0  0  0  0  0
  188.3850  179.7120  137.2180 O   0  0  0  0  0  0  0  0  0  0  0  0
  187.7790  178.5180  136.7770 C   0  0  1  0  0  3  0  0  0  0  0  0
  189.0570  178.5200  137.5530 C   0  0  2  0  0  3  0  0  0  0  0  0
  186.5260  178.2540  137.6110 C   0  0  0  0  0  2  0  0  0  0  0  0
  185.9860  176.8560  137.3350 C   0  0  0  0  0  2  0  0  0  0  0  0
  185.8420  176.6040  135.8420 C   0  0  0  0  0  2  0  0  0  0  0  0
  184.4440  176.1010  135.5200 C   0  0  0  0  0  2  0  0  0  0  0  0
  183.7180  175.6820  136.7900 C   0  0  0  0  0  2  0  0  0  0  0  0
  182.1240  173.8410  136.2310 C   0  0  0  0  0  3  0  0  0  0  0  0
  184.2440  173.2580  137.2500 C   0  0  0  0  0  0  0  0  0  0  0  0
  183.3570  174.2310  136.7630 C   0  0  0  0  0  0  0  0  0  0  0  0
  181.7710  172.4890  136.1870 C   0  0  0  0  0  3  0  0  0  0  0  0
  183.8900  171.9050  137.2040 C   0  0  0  0  0  3  0  0  0  0  0  0
  182.6550  171.5210  136.6740 C   0  0  0  0  0  3  0  0  0  0  0  0
  185.4460  173.6140  137.7670 F   0  0  0  0  0  0  0  0  0  0  0  0
  1  3  1  1  0  0  0
  1  8  1  0  0  0  0
  3  5  1  0  0  0  0
  4 28  1  6  0  0  0
  4  1  1  0  0  0  0
  4  7  1  0  0  0  0
  5  2  1  0  0  0  0
  7  9  1  1  0  0  0
  7  6  1  0  0  0  0
  8  6  1  6  0  0  0
  8  2  1  0  0  0  0
  9 15  1  0  0  0  0
  9 10  1  0  0  0  0
 10 14  1  0  0  0  0
 11 14  2  0  0  0  0
 12 11  1  0  0  0  0
 13 15  1  0  0  0  0
 13 12  2  0  0  0  0
 14 26  1  0  0  0  0
 15 10  2  0  0  0  0
 16 13  1  0  0  0  0
 17 16  2  0  0  0  0
 17 20  1  0  0  0  0
 18 19  1  0  0  0  0
 19 16  1  0  0  0  0
 21 20  1  0  0  0  0
 22 21  1  0  0  0  0
 23 24  1  0  0  0  0
 23 22  1  0  0  0  0
 25 24  1  0  0  0  0
 27 26  1  0  0  0  0
 29 28  1  0  0  0  0
 30 29  1  0  0  0  0
 31 30  1  0  0  0  0
 32 34  1  0  0  0  0
 33 32  1  0  0  0  0
 33 34  1  0  0  0  0
 33 35  1  1  0  0  0
 34 31  1  1  0  0  0
 36 35  1  0  0  0  0
 37 36  1  0  0  0  0
 38 37  1  0  0  0  0
 38 39  1  0  0  0  0
 40 42  1  0  0  0  0
 41 46  1  0  0  0  0
 42 39  1  0  0  0  0
 42 41  2  0  0  0  0
 43 40  2  0  0  0  0
 43 45  1  0  0  0  0
 44 41  1  0  0  0  0
 45 44  2  0  0  0  0
M  END
>  <MODEL>
7

>  <REMARK>
 VINA RESULT:      -6.3      2.624      8.343
  Name = 
  20 active torsions:
  status: ('A' for Active; 'I' for Inactive)
    1  A    between atoms: C_1  and  C_14
    2  A    between atoms: C_1  and  C_46
    3  A    between atoms: C_4  and  C_16
    4  A    between atoms: C_4  and  C_38
    5  A    between atoms: C_5  and  C_23
    6  A    between atoms: C_5  and  C_25
    7  A    between atoms: N_6  and  C_37
    8  A    between atoms: C_7  and  C_22
    9  A    between atoms: C_7  and  O_43
   10  A    between atoms: O_9  and  C_39
   11  A    between atoms: O_11  and  C_21
   12  A    between atoms: C_14  and  C_15
   13  A    between atoms: C_15  and  C_30
   14  A    between atoms: C_16  and  C_21
   15  A    between atoms: C_17  and  C_33
   16  A    between atoms: C_25  and  C_28
   17  A    between atoms: C_28  and  O_45
   18  A    between atoms: C_31  and  C_38
   19  A    between atoms: C_33  and  C_46
   20  A    between atoms: C_40  and  O_45
                            x       y       z     vdW  Elec       q    Type
                         _______ _______ _______ _____ _____    ______ ____

>  <TORSDO>
F 20

$$$$
=
 OpenBabel11062413233D

 46 51  0  0  1  0  0  0  0  0999 V2000
  185.9770  178.2500  146.5520 N   0  0  1  0  0  0  0  0  0  0  0  0
  188.0210  177.9410  147.4900 N   0  0  0  0  0  2  0  0  0  0  0  0
  186.1540  179.4250  147.2830 N   0  0  0  0  0  2  0  0  0  0  0  0
  185.4610  178.4120  145.2110 C   0  0  1  0  0  3  0  0  0  0  0  0
  187.3430  179.1000  148.1000 C   0  0  0  0  0  2  0  0  0  0  0  0
  187.2780  176.7780  145.3120 C   0  0  0  0  0  2  0  0  0  0  0  0
  186.0940  177.2280  144.4390 C   0  0  2  0  0  3  0  0  0  0  0  0
  187.3220  177.9480  146.2390 C   0  0  1  0  0  3  0  0  0  0  0  0
  186.5540  177.6810  143.1360 N   0  0  0  0  0  0  0  0  0  0  0  0
  186.2720  178.2690  141.8930 C   0  0  0  0  0  0  0  0  0  0  0  0
  186.8710  178.8910  139.7510 C   0  0  0  0  0  3  0  0  0  0  0  0
  188.2030  178.3400  139.9950 C   0  0  0  0  0  3  0  0  0  0  0  0
  188.5830  177.7480  141.2510 C   0  0  0  0  0  0  0  0  0  0  0  0
  185.8350  178.8660  140.7510 C   0  0  0  0  0  0  0  0  0  0  0  0
  187.5290  177.7570  142.1260 C   0  0  0  0  0  0  0  0  0  0  0  0
  189.9170  177.1640  141.5000 C   0  0  0  0  0  0  0  0  0  0  0  0
  190.5760  177.3290  142.6590 C   0  0  0  0  0  3  0  0  0  0  0  0
  191.5780  176.9300  139.6660 C   0  0  0  0  0  1  0  0  0  0  0  0
  190.5020  176.4360  140.4550 O   0  0  0  0  0  0  0  0  0  0  0  0
  190.0990  178.1550  143.8100 C   0  0  0  0  0  2  0  0  0  0  0  0
  191.1820  178.2440  144.8740 C   0  0  0  0  0  2  0  0  0  0  0  0
  191.5200  176.8620  145.4090 C   0  0  0  0  0  2  0  0  0  0  0  0
  191.2460  176.7690  146.9040 C   0  0  0  0  0  2  0  0  0  0  0  0
  191.5600  175.4920  147.3710 O   0  0  0  0  0  0  0  0  0  0  0  0
  192.7410  175.6630  148.0950 C   0  0  0  0  0  1  0  0  0  0  0  0
  184.5450  179.3750  140.5930 O   0  0  0  0  0  0  0  0  0  0  0  0
  183.6810  178.9170  139.5640 C   0  0  0  0  0  1  0  0  0  0  0  0
  183.9330  178.3500  145.1870 C   0  0  0  0  0  2  0  0  0  0  0  0
  183.3360  179.0830  143.9910 C   0  0  0  0  0  2  0  0  0  0  0  0
  181.8230  179.0110  144.0360 C   0  0  0  0  0  2  0  0  0  0  0  0
  181.2920  179.3620  142.7960 O   0  0  0  0  0  0  0  0  0  0  0  0
  179.0190  179.3990  142.4890 O   0  0  0  0  0  0  0  0  0  0  0  0
  179.4290  180.6100  141.8970 C   0  0  1  0  0  3  0  0  0  0  0  0
  180.1080  180.0460  143.1030 C   0  0  2  0  0  3  0  0  0  0  0  0
  180.1270  180.3090  140.5710 C   0  0  0  0  0  2  0  0  0  0  0  0
  179.1360  179.7400  139.5640 C   0  0  0  0  0  2  0  0  0  0  0  0
  179.8450  179.2320  138.3170 C   0  0  0  0  0  2  0  0  0  0  0  0
  179.5400  180.1280  137.1290 C   0  0  0  0  0  2  0  0  0  0  0  0
  180.8250  180.6900  136.5350 C   0  0  0  0  0  2  0  0  0  0  0  0
  180.1470  182.8840  135.5500 C   0  0  0  0  0  3  0  0  0  0  0  0
  181.4920  182.8940  137.5670 C   0  0  0  0  0  0  0  0  0  0  0  0
  180.8280  182.1860  136.5530 C   0  0  0  0  0  0  0  0  0  0  0  0
  180.1300  184.2820  135.5530 C   0  0  0  0  0  3  0  0  0  0  0  0
  181.4720  184.2930  137.5680 C   0  0  0  0  0  3  0  0  0  0  0  0
  180.7930  184.9860  136.5620 C   0  0  0  0  0  3  0  0  0  0  0  0
  182.1560  182.2360  138.5490 F   0  0  0  0  0  0  0  0  0  0  0  0
  1  3  1  1  0  0  0
  2  5  1  0  0  0  0
  3  5  1  0  0  0  0
  4 28  1  1  0  0  0
  4  1  1  0  0  0  0
  7  9  1  6  0  0  0
  7  4  1  0  0  0  0
  7  6  1  0  0  0  0
  8  6  1  1  0  0  0
  8  1  1  0  0  0  0
  8  2  1  0  0  0  0
 10 15  1  0  0  0  0
 10  9  1  0  0  0  0
 11 12  2  0  0  0  0
 11 14  1  0  0  0  0
 12 13  1  0  0  0  0
 13 16  1  0  0  0  0
 13 15  2  0  0  0  0
 14 10  2  0  0  0  0
 15  9  1  0  0  0  0
 16 17  2  0  0  0  0
 17 20  1  0  0  0  0
 18 19  1  0  0  0  0
 19 16  1  0  0  0  0
 20 21  1  0  0  0  0
 21 22  1  0  0  0  0
 22 23  1  0  0  0  0
 23 24  1  0  0  0  0
 24 25  1  0  0  0  0
 26 14  1  0  0  0  0
 27 26  1  0  0  0  0
 29 30  1  0  0  0  0
 29 28  1  0  0  0  0
 31 30  1  0  0  0  0
 32 34  1  0  0  0  0
 33 35  1  6  0  0  0
 33 32  1  0  0  0  0
 33 34  1  0  0  0  0
 34 31  1  6  0  0  0
 36 35  1  0  0  0  0
 37 36  1  0  0  0  0
 38 37  1  0  0  0  0
 39 42  1  0  0  0  0
 39 38  1  0  0  0  0
 40 43  2  0  0  0  0
 40 42  1  0  0  0  0
 41 44  1  0  0  0  0
 41 46  1  0  0  0  0
 42 41  2  0  0  0  0
 43 45  1  0  0  0  0
 45 44  2  0  0  0  0
M  END
>  <MODEL>
8

>  <REMARK>
 VINA RESULT:      -6.2      4.300      8.820
  Name = 
  20 active torsions:
  status: ('A' for Active; 'I' for Inactive)
    1  A    between atoms: C_1  and  C_14
    2  A    between atoms: C_1  and  C_46
    3  A    between atoms: C_4  and  C_16
    4  A    between atoms: C_4  and  C_38
    5  A    between atoms: C_5  and  C_23
    6  A    between atoms: C_5  and  C_25
    7  A    between atoms: N_6  and  C_37
    8  A    between atoms: C_7  and  C_22
    9  A    between atoms: C_7  and  O_43
   10  A    between atoms: O_9  and  C_39
   11  A    between atoms: O_11  and  C_21
   12  A    between atoms: C_14  and  C_15
   13  A    between atoms: C_15  and  C_30
   14  A    between atoms: C_16  and  C_21
   15  A    between atoms: C_17  and  C_33
   16  A    between atoms: C_25  and  C_28
   17  A    between atoms: C_28  and  O_45
   18  A    between atoms: C_31  and  C_38
   19  A    between atoms: C_33  and  C_46
   20  A    between atoms: C_40  and  O_45
                            x       y       z     vdW  Elec       q    Type
                         _______ _______ _______ _____ _____    ______ ____

>  <TORSDO>
F 20

$$$$
=
 OpenBabel11062413233D

 46 51  0  0  1  0  0  0  0  0999 V2000
  190.3020  176.5760  143.0200 N   0  0  1  0  0  0  0  0  0  0  0  0
  191.7230  176.4710  144.7870 N   0  0  0  0  0  2  0  0  0  0  0  0
  190.5420  175.2070  143.1330 N   0  0  0  0  0  2  0  0  0  0  0  0
  188.9230  176.9610  142.8150 C   0  0  1  0  0  3  0  0  0  0  0  0
  191.6680  175.1720  144.0910 C   0  0  0  0  0  2  0  0  0  0  0  0
  190.0560  178.4050  144.4310 C   0  0  0  0  0  2  0  0  0  0  0  0
  188.8330  178.3470  143.4990 C   0  0  2  0  0  3  0  0  0  0  0  0
  190.4430  176.9640  144.3710 C   0  0  1  0  0  3  0  0  0  0  0  0
  187.5970  178.4410  144.2600 N   0  0  0  0  0  0  0  0  0  0  0  0
  186.9130  178.2870  145.4760 C   0  0  0  0  0  0  0  0  0  0  0  0
  184.9790  178.2670  146.7360 C   0  0  0  0  0  3  0  0  0  0  0  0
  184.2240  178.6040  145.5300 C   0  0  0  0  0  3  0  0  0  0  0  0
  184.8520  178.8100  144.2510 C   0  0  0  0  0  0  0  0  0  0  0  0
  186.4090  178.1000  146.7260 C   0  0  0  0  0  0  0  0  0  0  0  0
  186.2050  178.6130  144.3420 C   0  0  0  0  0  0  0  0  0  0  0  0
  184.0980  179.1250  143.0210 C   0  0  0  0  0  0  0  0  0  0  0  0
  182.7550  179.0870  142.9630 C   0  0  0  0  0  3  0  0  0  0  0  0
  185.1680  178.5000  140.8670 C   0  0  0  0  0  1  0  0  0  0  0  0
  184.8420  179.4460  141.8770 O   0  0  0  0  0  0  0  0  0  0  0  0
  181.8580  178.6730  144.0840 C   0  0  0  0  0  2  0  0  0  0  0  0
  180.6870  177.8660  143.5460 C   0  0  0  0  0  2  0  0  0  0  0  0
  179.9340  178.6570  142.4890 C   0  0  0  0  0  2  0  0  0  0  0  0
  179.4020  179.9660  143.0560 C   0  0  0  0  0  2  0  0  0  0  0  0
  179.6750  181.0160  142.1780 O   0  0  0  0  0  0  0  0  0  0  0  0
  179.8280  180.4020  140.9340 C   0  0  0  0  0  1  0  0  0  0  0  0
  187.1940  177.7820  147.8350 O   0  0  0  0  0  0  0  0  0  0  0  0
  188.5390  177.3500  147.7000 C   0  0  0  0  0  1  0  0  0  0  0  0
  188.5790  177.0410  141.3270 C   0  0  0  0  0  2  0  0  0  0  0  0
  189.8160  177.1870  140.4480 C   0  0  0  0  0  2  0  0  0  0  0  0
  189.5800  178.2430  139.3860 C   0  0  0  0  0  2  0  0  0  0  0  0
  188.4600  177.9100  138.6240 O   0  0  0  0  0  0  0  0  0  0  0  0
  187.4130  179.0730  136.9470 O   0  0  0  0  0  0  0  0  0  0  0  0
  187.9240  177.9490  136.2690 C   0  0  1  0  0  3  0  0  0  0  0  0
  188.6490  178.5840  137.4110 C   0  0  2  0  0  3  0  0  0  0  0  0
  187.0980  176.7190  136.6420 C   0  0  0  0  0  2  0  0  0  0  0  0
  186.6800  175.9570  135.3910 C   0  0  0  0  0  2  0  0  0  0  0  0
  185.9240  174.6840  135.7450 C   0  0  0  0  0  2  0  0  0  0  0  0
  185.2820  174.8100  137.1170 C   0  0  0  0  0  2  0  0  0  0  0  0
  183.7640  174.7950  137.0030 C   0  0  0  0  0  2  0  0  0  0  0  0
  182.6700  175.5970  139.1010 C   0  0  0  0  0  3  0  0  0  0  0  0
  183.0400  177.1910  137.3140 C   0  0  0  0  0  0  0  0  0  0  0  0
  183.1420  175.8850  137.8160 C   0  0  0  0  0  0  0  0  0  0  0  0
  182.0940  176.6030  139.8820 C   0  0  0  0  0  3  0  0  0  0  0  0
  182.4640  178.1970  138.0970 C   0  0  0  0  0  3  0  0  0  0  0  0
  181.9910  177.9030  139.3800 C   0  0  0  0  0  3  0  0  0  0  0  0
  183.4930  177.4930  136.0720 F   0  0  0  0  0  0  0  0  0  0  0  0
  1  3  1  1  0  0  0
  1  8  1  0  0  0  0
  3  5  1  0  0  0  0
  4 28  1  6  0  0  0
  4  1  1  0  0  0  0
  4  7  1  0  0  0  0
  5  2  1  0  0  0  0
  7  9  1  1  0  0  0
  7  6  1  0  0  0  0
  8  6  1  6  0  0  0
  8  2  1  0  0  0  0
  9 15  1  0  0  0  0
  9 10  1  0  0  0  0
 10 14  1  0  0  0  0
 12 11  1  0  0  0  0
 13 15  1  0  0  0  0
 13 12  2  0  0  0  0
 14 11  2  0  0  0  0
 14 26  1  0  0  0  0
 15 10  2  0  0  0  0
 16 13  1  0  0  0  0
 17 16  2  0  0  0  0
 17 20  1  0  0  0  0
 18 19  1  0  0  0  0
 19 16  1  0  0  0  0
 21 20  1  0  0  0  0
 22 23  1  0  0  0  0
 22 21  1  0  0  0  0
 24 23  1  0  0  0  0
 25 24  1  0  0  0  0
 27 26  1  0  0  0  0
 29 28  1  0  0  0  0
 30 29  1  0  0  0  0
 31 30  1  0  0  0  0
 32 34  1  0  0  0  0
 33 35  1  1  0  0  0
 33 32  1  0  0  0  0
 33 34  1  0  0  0  0
 34 31  1  1  0  0  0
 36 37  1  0  0  0  0
 36 35  1  0  0  0  0
 37 38  1  0  0  0  0
 39 38  1  0  0  0  0
 39 42  1  0  0  0  0
 40 43  1  0  0  0  0
 41 42  1  0  0  0  0
 41 44  2  0  0  0  0
 42 40  2  0  0  0  0
 44 45  1  0  0  0  0
 45 43  2  0  0  0  0
 46 41  1  0  0  0  0
M  END
>  <MODEL>
9

>  <REMARK>
 VINA RESULT:      -6.2      2.869      8.124
  Name = 
  20 active torsions:
  status: ('A' for Active; 'I' for Inactive)
    1  A    between atoms: C_1  and  C_14
    2  A    between atoms: C_1  and  C_46
    3  A    between atoms: C_4  and  C_16
    4  A    between atoms: C_4  and  C_38
    5  A    between atoms: C_5  and  C_23
    6  A    between atoms: C_5  and  C_25
    7  A    between atoms: N_6  and  C_37
    8  A    between atoms: C_7  and  C_22
    9  A    between atoms: C_7  and  O_43
   10  A    between atoms: O_9  and  C_39
   11  A    between atoms: O_11  and  C_21
   12  A    between atoms: C_14  and  C_15
   13  A    between atoms: C_15  and  C_30
   14  A    between atoms: C_16  and  C_21
   15  A    between atoms: C_17  and  C_33
   16  A    between atoms: C_25  and  C_28
   17  A    between atoms: C_28  and  O_45
   18  A    between atoms: C_31  and  C_38
   19  A    between atoms: C_33  and  C_46
   20  A    between atoms: C_40  and  O_45
                            x       y       z     vdW  Elec       q    Type
                         _______ _______ _______ _____ _____    ______ ____

>  <TORSDO>
F 20

$$$$
