=
 OpenBabel11062412313D

 33 37  0  0  1  0  0  0  0  0999 V2000
  184.9750  178.7300  142.3560 C   0  0  0  0  0  0  0  0  0  0  0  0
  184.2310  179.1700  143.5480 C   0  0  1  0  0  3  0  0  0  0  0  0
  182.9280  179.0640  143.7270 C   0  0  0  0  0  3  0  0  0  0  0  0
  182.6730  179.0720  145.1260 N   0  0  0  0  0  0  0  0  0  0  0  0
  183.7640  179.1290  145.7770 N   0  0  0  0  0  2  0  0  0  0  0  0
  185.8740  178.1000  145.0180 C   0  0  0  0  0  3  0  0  0  0  0  0
  184.8970  179.2390  144.8730 C   0  0  1  0  0  3  0  0  0  0  0  0
  186.4610  177.5480  143.9400 C   0  0  0  0  0  0  0  0  0  0  0  0
  186.0480  177.9540  142.5620 C   0  0  0  0  0  3  0  0  0  0  0  0
  181.9160  176.3680  139.7930 C   0  0  0  0  0  2  0  0  0  0  0  0
  183.8340  177.8600  140.3090 C   0  0  2  0  0  3  0  0  0  0  0  0
  182.7720  175.9780  138.5850 C   0  0  0  0  0  3  0  0  0  0  0  0
  184.5420  179.0440  140.9570 C   0  0  2  0  0  3  0  0  0  0  0  0
  183.8350  176.7040  138.1670 C   0  0  0  0  0  0  0  0  0  0  0  0
  184.0760  178.0300  138.8320 C   0  0  2  0  0  3  0  0  0  0  0  0
  186.2080  178.6970  137.8700 O   0  0  0  0  0  0  0  0  0  0  0  0
  185.4250  178.6380  138.8540 C   0  0  0  0  0  0  0  0  0  0  0  0
  182.3460  177.6700  140.5110 C   0  0  0  0  0  2  0  0  0  0  0  0
  185.6960  179.2770  140.0940 N   0  0  0  0  0  2  0  0  0  0  0  0
  185.2300  175.0570  137.1610 F   0  0  0  0  0  0  0  0  0  0  0  0
  184.6220  176.2850  136.9600 C   0  0  1  0  0  3  0  0  0  0  0  0
  183.1360  177.4110  135.2890 O   0  0  0  0  0  1  0  0  0  0  0  0
  183.7740  176.2580  135.7310 C   0  0  0  0  0  0  0  0  0  0  0  0
  183.6350  175.1820  135.0950 O   0  0  0  0  0  0  0  0  0  0  0  0
  187.4350  176.5670  144.1370 O   0  0  0  0  0  0  0  0  0  0  0  0
  188.7670  176.7160  143.6670 C   0  0  0  0  0  2  0  0  0  0  0  0
  191.8600  176.8570  145.5110 C   0  0  0  0  0  3  0  0  0  0  0  0
  189.5920  177.4960  144.6750 C   0  0  1  0  0  3  0  0  0  0  0  0
  191.3120  176.7180  146.8650 C   0  0  0  0  0  0  0  0  0  0  0  0
  192.0710  176.4340  147.8290 O   0  0  0  0  0  0  0  0  0  0  0  0
  189.0730  177.2260  146.0680 C   0  0  0  0  0  3  0  0  0  0  0  0
  189.8710  176.8850  147.0820 C   0  0  0  0  0  3  0  0  0  0  0  0
  191.0630  177.1990  144.4960 C   0  0  0  0  0  3  0  0  0  0  0  0
  1  9  2  0  0  0  0
  1  2  1  0  0  0  0
  2  3  1  1  0  0  0
  2  7  1  0  0  0  0
  3  4  2  0  0  0  0
  4  5  1  0  0  0  0
  7  6  1  1  0  0  0
  7  5  1  0  0  0  0
  8 25  1  0  0  0  0
  8  6  2  0  0  0  0
  9  8  1  0  0  0  0
 10 18  1  0  0  0  0
 11 18  1  6  0  0  0
 11 13  1  0  0  0  0
 12 10  1  0  0  0  0
 13  1  1  1  0  0  0
 14 12  2  0  0  0  0
 15 14  1  6  0  0  0
 15 17  1  0  0  0  0
 15 11  1  0  0  0  0
 16 17  2  0  0  0  0
 17 19  1  0  0  0  0
 19 13  1  0  0  0  0
 21 20  1  1  0  0  0
 21 14  1  0  0  0  0
 22 23  1  0  0  0  0
 23 21  1  0  0  0  0
 24 23  2  0  0  0  0
 26 25  1  0  0  0  0
 27 29  1  0  0  0  0
 28 26  1  6  0  0  0
 28 31  1  0  0  0  0
 29 32  1  0  0  0  0
 29 30  2  0  0  0  0
 31 32  2  0  0  0  0
 33 28  1  0  0  0  0
 33 27  2  0  0  0  0
M  END
>  <MODEL>
1

>  <REMARK>
 VINA RESULT:      -9.3      0.000      0.000
  Name = 
  6 active torsions:
  status: ('A' for Active; 'I' for Inactive)
    1  A    between atoms: C_5  and  C_6
    2  A    between atoms: C_7  and  C_29
    3  A    between atoms: C_10  and  C_14
    4  A    between atoms: C_14  and  O_32
    5  A    between atoms: C_23  and  C_29
    6  A    between atoms: C_24  and  O_32
                            x       y       z     vdW  Elec       q    Type
                         _______ _______ _______ _____ _____    ______ ____

>  <TORSDO>
F 6

$$$$
=
 OpenBabel11062412313D

 33 37  0  0  1  0  0  0  0  0999 V2000
  184.8970  178.7480  142.1850 C   0  0  0  0  0  0  0  0  0  0  0  0
  184.0870  179.1400  143.3500 C   0  0  1  0  0  3  0  0  0  0  0  0
  182.7950  178.9170  143.5010 C   0  0  0  0  0  3  0  0  0  0  0  0
  182.5070  178.9290  144.8940 N   0  0  0  0  0  0  0  0  0  0  0  0
  183.5720  179.1010  145.5680 N   0  0  0  0  0  2  0  0  0  0  0  0
  185.7860  178.2570  144.8790 C   0  0  0  0  0  3  0  0  0  0  0  0
  184.7110  179.2980  144.6880 C   0  0  1  0  0  3  0  0  0  0  0  0
  186.4470  177.7410  143.8270 C   0  0  0  0  0  0  0  0  0  0  0  0
  186.0310  178.0800  142.4310 C   0  0  0  0  0  3  0  0  0  0  0  0
  182.0430  176.1190  139.6440 C   0  0  0  0  0  2  0  0  0  0  0  0
  183.8520  177.7460  140.1460 C   0  0  2  0  0  3  0  0  0  0  0  0
  182.9450  175.7500  138.4630 C   0  0  0  0  0  3  0  0  0  0  0  0
  184.4710  178.9920  140.7700 C   0  0  2  0  0  3  0  0  0  0  0  0
  183.9660  176.5310  138.0410 C   0  0  0  0  0  0  0  0  0  0  0  0
  184.1100  177.8880  138.6690 C   0  0  2  0  0  3  0  0  0  0  0  0
  186.2120  178.6630  137.7220 O   0  0  0  0  0  0  0  0  0  0  0  0
  185.4170  178.5820  138.6950 C   0  0  0  0  0  0  0  0  0  0  0  0
  182.3760  177.4670  140.3290 C   0  0  0  0  0  2  0  0  0  0  0  0
  185.6230  179.2740  139.9200 N   0  0  0  0  0  2  0  0  0  0  0  0
  185.3830  174.8880  137.0590 F   0  0  0  0  0  0  0  0  0  0  0  0
  184.8020  176.1280  136.8600 C   0  0  1  0  0  3  0  0  0  0  0  0
  183.6460  174.9500  134.9770 O   0  0  0  0  0  0  0  0  0  0  0  0
  184.0090  176.1410  135.5950 C   0  0  0  0  0  0  0  0  0  0  0  0
  183.6710  177.2400  135.0840 O   0  0  0  0  0  1  0  0  0  0  0  0
  187.5020  176.8590  144.0670 O   0  0  0  0  0  0  0  0  0  0  0  0
  188.5470  177.1580  144.9830 C   0  0  0  0  0  2  0  0  0  0  0  0
  191.5160  178.2080  143.2300 C   0  0  0  0  0  3  0  0  0  0  0  0
  189.8840  176.7250  144.4080 C   0  0  1  0  0  3  0  0  0  0  0  0
  191.3370  177.4180  142.0060 C   0  0  0  0  0  0  0  0  0  0  0  0
  192.0100  177.6850  140.9760 O   0  0  0  0  0  0  0  0  0  0  0  0
  189.6640  176.0260  143.0870 C   0  0  0  0  0  3  0  0  0  0  0  0
  190.3480  176.3350  141.9840 C   0  0  0  0  0  3  0  0  0  0  0  0
  190.8330  177.9000  144.3340 C   0  0  0  0  0  3  0  0  0  0  0  0
  1  9  2  0  0  0  0
  1  2  1  0  0  0  0
  2  3  1  1  0  0  0
  2  7  1  0  0  0  0
  3  4  2  0  0  0  0
  4  5  1  0  0  0  0
  7  6  1  1  0  0  0
  7  5  1  0  0  0  0
  8 25  1  0  0  0  0
  8  6  2  0  0  0  0
  9  8  1  0  0  0  0
 10 18  1  0  0  0  0
 11 18  1  6  0  0  0
 11 13  1  0  0  0  0
 12 10  1  0  0  0  0
 13  1  1  1  0  0  0
 14 12  2  0  0  0  0
 15 14  1  6  0  0  0
 15 17  1  0  0  0  0
 15 11  1  0  0  0  0
 16 17  2  0  0  0  0
 17 19  1  0  0  0  0
 19 13  1  0  0  0  0
 21 20  1  1  0  0  0
 21 14  1  0  0  0  0
 22 23  2  0  0  0  0
 23 21  1  0  0  0  0
 24 23  1  0  0  0  0
 25 26  1  0  0  0  0
 27 33  2  0  0  0  0
 28 26  1  6  0  0  0
 29 27  1  0  0  0  0
 30 29  2  0  0  0  0
 31 28  1  0  0  0  0
 32 29  1  0  0  0  0
 32 31  2  0  0  0  0
 33 28  1  0  0  0  0
M  END
>  <MODEL>
2

>  <REMARK>
 VINA RESULT:      -8.9      1.340      2.003
  Name = 
  6 active torsions:
  status: ('A' for Active; 'I' for Inactive)
    1  A    between atoms: C_5  and  C_6
    2  A    between atoms: C_7  and  C_29
    3  A    between atoms: C_10  and  C_14
    4  A    between atoms: C_14  and  O_32
    5  A    between atoms: C_23  and  C_29
    6  A    between atoms: C_24  and  O_32
                            x       y       z     vdW  Elec       q    Type
                         _______ _______ _______ _____ _____    ______ ____

>  <TORSDO>
F 6

$$$$
=
 OpenBabel11062412313D

 33 37  0  0  1  0  0  0  0  0999 V2000
  189.8640  177.1760  141.9880 C   0  0  0  0  0  0  0  0  0  0  0  0
  190.8270  177.3420  143.0880 C   0  0  1  0  0  3  0  0  0  0  0  0
  191.6710  178.3470  143.2300 C   0  0  0  0  0  3  0  0  0  0  0  0
  192.0110  178.4450  144.6080 N   0  0  0  0  0  0  0  0  0  0  0  0
  191.3740  177.5790  145.2870 N   0  0  0  0  0  2  0  0  0  0  0  0
  189.0960  176.8060  144.7380 C   0  0  0  0  0  3  0  0  0  0  0  0
  190.5680  176.7360  144.4190 C   0  0  1  0  0  3  0  0  0  0  0  0
  188.1740  176.8240  143.7580 C   0  0  0  0  0  0  0  0  0  0  0  0
  188.5930  176.9220  142.3260 C   0  0  0  0  0  3  0  0  0  0  0  0
  186.9680  178.0640  138.4750 C   0  0  0  0  0  2  0  0  0  0  0  0
  189.0050  177.2490  139.6400 C   0  0  2  0  0  3  0  0  0  0  0  0
  187.2240  176.8610  137.5630 C   0  0  0  0  0  3  0  0  0  0  0  0
  190.2280  177.3540  140.5460 C   0  0  2  0  0  3  0  0  0  0  0  0
  188.4010  176.1950  137.5330 C   0  0  0  0  0  0  0  0  0  0  0  0
  189.5460  176.7660  138.3200 C   0  0  2  0  0  3  0  0  0  0  0  0
  191.2340  175.0300  138.0930 O   0  0  0  0  0  0  0  0  0  0  0  0
  190.6560  175.9060  138.7880 C   0  0  0  0  0  0  0  0  0  0  0  0
  188.1620  178.4770  139.3700 C   0  0  0  0  0  2  0  0  0  0  0  0
  191.0950  176.2730  140.0890 N   0  0  0  0  0  2  0  0  0  0  0  0
  187.4160  174.3620  136.3760 F   0  0  0  0  0  0  0  0  0  0  0  0
  188.6030  175.0380  136.5970 C   0  0  1  0  0  3  0  0  0  0  0  0
  190.4270  174.9500  134.8840 O   0  0  0  0  0  1  0  0  0  0  0  0
  189.2100  175.4740  135.3040 C   0  0  0  0  0  0  0  0  0  0  0  0
  188.6150  176.3240  134.5940 O   0  0  0  0  0  0  0  0  0  0  0  0
  186.8230  176.7840  144.1090 O   0  0  0  0  0  0  0  0  0  0  0  0
  186.2760  177.6260  145.1140 C   0  0  0  0  0  2  0  0  0  0  0  0
  182.9680  178.9530  144.5830 C   0  0  0  0  0  3  0  0  0  0  0  0
  185.4560  178.7330  144.4770 C   0  0  1  0  0  3  0  0  0  0  0  0
  182.9000  178.7920  143.1260 C   0  0  0  0  0  0  0  0  0  0  0  0
  181.7940  178.8730  142.5300 O   0  0  0  0  0  0  0  0  0  0  0  0
  185.3050  178.4640  142.9980 C   0  0  0  0  0  3  0  0  0  0  0  0
  184.1270  178.5090  142.3730 C   0  0  0  0  0  3  0  0  0  0  0  0
  184.1450  178.9080  145.2090 C   0  0  0  0  0  3  0  0  0  0  0  0
  1  9  2  0  0  0  0
  1  2  1  0  0  0  0
  2  3  1  1  0  0  0
  2  7  1  0  0  0  0
  3  4  2  0  0  0  0
  4  5  1  0  0  0  0
  7  6  1  1  0  0  0
  7  5  1  0  0  0  0
  8 25  1  0  0  0  0
  8  6  2  0  0  0  0
  9  8  1  0  0  0  0
 10 18  1  0  0  0  0
 11 18  1  6  0  0  0
 11 13  1  0  0  0  0
 12 10  1  0  0  0  0
 13  1  1  1  0  0  0
 14 12  2  0  0  0  0
 15 14  1  1  0  0  0
 15 17  1  0  0  0  0
 15 11  1  0  0  0  0
 16 17  2  0  0  0  0
 17 19  1  0  0  0  0
 19 13  1  0  0  0  0
 21 20  1  6  0  0  0
 21 14  1  0  0  0  0
 22 23  1  0  0  0  0
 23 21  1  0  0  0  0
 24 23  2  0  0  0  0
 25 26  1  0  0  0  0
 27 33  2  0  0  0  0
 28 26  1  1  0  0  0
 28 33  1  0  0  0  0
 29 27  1  0  0  0  0
 30 29  2  0  0  0  0
 31 28  1  0  0  0  0
 32 31  2  0  0  0  0
 32 29  1  0  0  0  0
M  END
>  <MODEL>
3

>  <REMARK>
 VINA RESULT:      -8.7      3.798      6.256
  Name = 
  6 active torsions:
  status: ('A' for Active; 'I' for Inactive)
    1  A    between atoms: C_5  and  C_6
    2  A    between atoms: C_7  and  C_29
    3  A    between atoms: C_10  and  C_14
    4  A    between atoms: C_14  and  O_32
    5  A    between atoms: C_23  and  C_29
    6  A    between atoms: C_24  and  O_32
                            x       y       z     vdW  Elec       q    Type
                         _______ _______ _______ _____ _____    ______ ____

>  <TORSDO>
F 6

$$$$
=
 OpenBabel11062412313D

 33 37  0  0  1  0  0  0  0  0999 V2000
  184.2220  178.8170  141.6950 C   0  0  0  0  0  0  0  0  0  0  0  0
  183.1570  179.1130  142.6670 C   0  0  1  0  0  3  0  0  0  0  0  0
  181.9130  178.6780  142.6040 C   0  0  0  0  0  3  0  0  0  0  0  0
  181.3720  178.6980  143.9200 N   0  0  0  0  0  0  0  0  0  0  0  0
  182.2510  179.0770  144.7570 N   0  0  0  0  0  2  0  0  0  0  0  0
  184.6610  178.5980  144.5330 C   0  0  0  0  0  3  0  0  0  0  0  0
  183.4880  179.4300  144.0800 C   0  0  1  0  0  3  0  0  0  0  0  0
  185.5810  178.1600  143.6540 C   0  0  0  0  0  0  0  0  0  0  0  0
  185.3840  178.3640  142.1850 C   0  0  0  0  0  3  0  0  0  0  0  0
  182.2800  175.6690  138.8980 C   0  0  0  0  0  2  0  0  0  0  0  0
  183.7200  177.5720  139.5850 C   0  0  2  0  0  3  0  0  0  0  0  0
  183.4260  175.3840  137.9240 C   0  0  0  0  0  3  0  0  0  0  0  0
  184.0340  178.9260  140.2140 C   0  0  2  0  0  3  0  0  0  0  0  0
  184.3880  176.2890  137.6290 C   0  0  0  0  0  0  0  0  0  0  0  0
  184.2230  177.6810  138.1700 C   0  0  2  0  0  3  0  0  0  0  0  0
  186.3340  178.7180  137.5500 O   0  0  0  0  0  0  0  0  0  0  0  0
  185.3930  178.5650  138.3720 C   0  0  0  0  0  0  0  0  0  0  0  0
  182.2890  177.0830  139.5290 C   0  0  0  0  0  2  0  0  0  0  0  0
  185.2710  179.3380  139.5590 N   0  0  0  0  0  2  0  0  0  0  0  0
  185.6930  174.5960  136.5800 F   0  0  0  0  0  0  0  0  0  0  0  0
  185.4740  175.9610  136.6460 C   0  0  1  0  0  3  0  0  0  0  0  0
  183.8810  176.4760  134.7840 O   0  0  0  0  0  1  0  0  0  0  0  0
  185.1750  176.5120  135.2910 C   0  0  0  0  0  0  0  0  0  0  0  0
  186.1030  177.0090  134.6020 O   0  0  0  0  0  0  0  0  0  0  0  0
  186.7010  177.4820  144.1390 O   0  0  0  0  0  0  0  0  0  0  0  0
  186.9120  177.2630  145.5280 C   0  0  0  0  0  2  0  0  0  0  0  0
  190.4720  177.4350  144.9940 C   0  0  0  0  0  3  0  0  0  0  0  0
  188.2160  177.9060  145.9640 C   0  0  1  0  0  3  0  0  0  0  0  0
  190.9120  176.9130  146.2930 C   0  0  0  0  0  0  0  0  0  0  0  0
  192.1020  176.5320  146.4520 O   0  0  0  0  0  0  0  0  0  0  0  0
  188.7000  177.2550  147.2380 C   0  0  0  0  0  3  0  0  0  0  0  0
  189.9490  176.8140  147.3950 C   0  0  0  0  0  3  0  0  0  0  0  0
  189.2230  177.8770  144.8360 C   0  0  0  0  0  3  0  0  0  0  0  0
  1  9  2  0  0  0  0
  1  2  1  0  0  0  0
  2  3  1  1  0  0  0
  2  7  1  0  0  0  0
  3  4  2  0  0  0  0
  4  5  1  0  0  0  0
  7  6  1  1  0  0  0
  7  5  1  0  0  0  0
  8 25  1  0  0  0  0
  8  6  2  0  0  0  0
  9  8  1  0  0  0  0
 10 18  1  0  0  0  0
 11 18  1  6  0  0  0
 11 13  1  0  0  0  0
 12 10  1  0  0  0  0
 13  1  1  1  0  0  0
 14 12  2  0  0  0  0
 15 14  1  1  0  0  0
 15 17  1  0  0  0  0
 15 11  1  0  0  0  0
 16 17  2  0  0  0  0
 17 19  1  0  0  0  0
 19 13  1  0  0  0  0
 21 20  1  6  0  0  0
 21 14  1  0  0  0  0
 22 23  1  0  0  0  0
 23 21  1  0  0  0  0
 24 23  2  0  0  0  0
 25 26  1  0  0  0  0
 27 29  1  0  0  0  0
 28 26  1  6  0  0  0
 28 31  1  0  0  0  0
 29 30  2  0  0  0  0
 29 32  1  0  0  0  0
 31 32  2  0  0  0  0
 33 27  2  0  0  0  0
 33 28  1  0  0  0  0
M  END
>  <MODEL>
4

>  <REMARK>
 VINA RESULT:      -8.5      1.115      1.396
  Name = 
  6 active torsions:
  status: ('A' for Active; 'I' for Inactive)
    1  A    between atoms: C_5  and  C_6
    2  A    between atoms: C_7  and  C_29
    3  A    between atoms: C_10  and  C_14
    4  A    between atoms: C_14  and  O_32
    5  A    between atoms: C_23  and  C_29
    6  A    between atoms: C_24  and  O_32
                            x       y       z     vdW  Elec       q    Type
                         _______ _______ _______ _____ _____    ______ ____

>  <TORSDO>
F 6

$$$$
=
 OpenBabel11062412313D

 33 37  0  0  1  0  0  0  0  0999 V2000
  188.1520  178.2070  140.2740 C   0  0  0  0  0  0  0  0  0  0  0  0
  188.9470  177.5700  139.2120 C   0  0  1  0  0  3  0  0  0  0  0  0
  189.3200  178.1390  138.0800 C   0  0  0  0  0  3  0  0  0  0  0  0
  190.4700  177.4530  137.6010 N   0  0  0  0  0  0  0  0  0  0  0  0
  190.8190  176.5430  138.4180 N   0  0  0  0  0  2  0  0  0  0  0  0
  190.5390  176.7090  140.8640 C   0  0  0  0  0  3  0  0  0  0  0  0
  189.8840  176.4630  139.5280 C   0  0  1  0  0  3  0  0  0  0  0  0
  189.9200  177.4290  141.8170 C   0  0  0  0  0  0  0  0  0  0  0  0
  188.6310  178.1270  141.5220 C   0  0  0  0  0  3  0  0  0  0  0  0
  184.5640  178.7900  143.1540 C   0  0  0  0  0  2  0  0  0  0  0  0
  185.8010  178.6480  141.0050 C   0  0  2  0  0  3  0  0  0  0  0  0
  183.4160  178.2020  142.3280 C   0  0  0  0  0  3  0  0  0  0  0  0
  186.9020  178.9880  140.0070 C   0  0  2  0  0  3  0  0  0  0  0  0
  183.4130  178.1860  140.9750 C   0  0  0  0  0  0  0  0  0  0  0  0
  184.5170  178.9190  140.2670 C   0  0  2  0  0  3  0  0  0  0  0  0
  184.1240  178.3070  137.9470 O   0  0  0  0  0  0  0  0  0  0  0  0
  184.9190  178.5490  138.8920 C   0  0  0  0  0  0  0  0  0  0  0  0
  185.7340  179.3780  142.3290 C   0  0  0  0  0  2  0  0  0  0  0  0
  186.3280  178.6270  138.7150 N   0  0  0  0  0  2  0  0  0  0  0  0
  182.2730  176.2350  140.2230 F   0  0  0  0  0  0  0  0  0  0  0  0
  182.2470  177.6190  140.2180 C   0  0  1  0  0  3  0  0  0  0  0  0
  180.0460  177.2520  141.3560 O   0  0  0  0  0  1  0  0  0  0  0  0
  180.9460  178.1220  140.7520 C   0  0  0  0  0  0  0  0  0  0  0  0
  180.6640  179.3440  140.6510 O   0  0  0  0  0  0  0  0  0  0  0  0
  190.5250  177.5400  143.0710 O   0  0  0  0  0  0  0  0  0  0  0  0
  189.9260  178.2590  144.1400 C   0  0  0  0  0  2  0  0  0  0  0  0
  187.2560  177.8770  146.5300 C   0  0  0  0  0  3  0  0  0  0  0  0
  189.2040  177.3030  145.0720 C   0  0  1  0  0  3  0  0  0  0  0  0
  188.0660  177.5770  147.7160 C   0  0  0  0  0  0  0  0  0  0  0  0
  187.5550  177.6440  148.8650 O   0  0  0  0  0  0  0  0  0  0  0  0
  190.0120  177.1190  146.3350 C   0  0  0  0  0  3  0  0  0  0  0  0
  189.4810  177.2280  147.5540 C   0  0  0  0  0  3  0  0  0  0  0  0
  187.7850  177.7680  145.3100 C   0  0  0  0  0  3  0  0  0  0  0  0
  1  9  2  0  0  0  0
  2  3  1  1  0  0  0
  2  7  1  0  0  0  0
  2  1  1  0  0  0  0
  4  3  2  0  0  0  0
  4  5  1  0  0  0  0
  5  7  1  0  0  0  0
  6  8  2  0  0  0  0
  7  6  1  1  0  0  0
  8 25  1  0  0  0  0
  9  8  1  0  0  0  0
 11 18  1  1  0  0  0
 12 10  1  0  0  0  0
 13  1  1  1  0  0  0
 13 11  1  0  0  0  0
 14 12  2  0  0  0  0
 15 17  1  6  0  0  0
 15 14  1  0  0  0  0
 15 11  1  0  0  0  0
 16 17  2  0  0  0  0
 18 10  1  0  0  0  0
 19 17  1  0  0  0  0
 19 13  1  0  0  0  0
 21 20  1  1  0  0  0
 21 23  1  0  0  0  0
 21 14  1  0  0  0  0
 23 22  1  0  0  0  0
 24 23  2  0  0  0  0
 25 26  1  0  0  0  0
 27 29  1  0  0  0  0
 28 26  1  6  0  0  0
 28 33  1  0  0  0  0
 28 31  1  0  0  0  0
 29 30  2  0  0  0  0
 31 32  2  0  0  0  0
 32 29  1  0  0  0  0
 33 27  2  0  0  0  0
M  END
>  <MODEL>
5

>  <REMARK>
 VINA RESULT:      -8.4      3.123      5.067
  Name = 
  6 active torsions:
  status: ('A' for Active; 'I' for Inactive)
    1  A    between atoms: C_5  and  C_6
    2  A    between atoms: C_7  and  C_29
    3  A    between atoms: C_10  and  C_14
    4  A    between atoms: C_14  and  O_32
    5  A    between atoms: C_23  and  C_29
    6  A    between atoms: C_24  and  O_32
                            x       y       z     vdW  Elec       q    Type
                         _______ _______ _______ _____ _____    ______ ____

>  <TORSDO>
F 6

$$$$
=
 OpenBabel11062412313D

 33 37  0  0  1  0  0  0  0  0999 V2000
  190.0430  177.4820  142.1190 C   0  0  0  0  0  0  0  0  0  0  0  0
  190.7340  177.2460  143.3970 C   0  0  1  0  0  3  0  0  0  0  0  0
  191.6640  178.0190  143.9260 C   0  0  0  0  0  3  0  0  0  0  0  0
  191.6800  177.7890  145.3300 N   0  0  0  0  0  0  0  0  0  0  0  0
  190.7760  176.9570  145.6560 N   0  0  0  0  0  2  0  0  0  0  0  0
  188.6010  176.7680  144.5060 C   0  0  0  0  0  3  0  0  0  0  0  0
  190.0790  176.4680  144.4790 C   0  0  1  0  0  3  0  0  0  0  0  0
  187.9500  177.1500  143.3930 C   0  0  0  0  0  0  0  0  0  0  0  0
  188.7050  177.4280  142.1320 C   0  0  0  0  0  3  0  0  0  0  0  0
  189.0880  175.9710  137.8390 C   0  0  0  0  0  2  0  0  0  0  0  0
  190.4270  176.8850  139.7210 C   0  0  2  0  0  3  0  0  0  0  0  0
  190.4130  175.3080  137.4510 C   0  0  0  0  0  3  0  0  0  0  0  0
  190.7590  177.8480  140.8550 C   0  0  2  0  0  3  0  0  0  0  0  0
  191.6070  175.6910  137.9600 C   0  0  0  0  0  0  0  0  0  0  0  0
  191.6350  176.9210  138.8210 C   0  0  2  0  0  3  0  0  0  0  0  0
  193.9310  176.9260  139.6230 O   0  0  0  0  0  0  0  0  0  0  0  0
  192.7040  177.1280  139.8230 C   0  0  0  0  0  0  0  0  0  0  0  0
  189.2060  177.1280  138.8610 C   0  0  0  0  0  2  0  0  0  0  0  0
  192.2030  177.7150  141.0170 N   0  0  0  0  0  2  0  0  0  0  0  0
  192.6570  173.6890  137.2110 F   0  0  0  0  0  0  0  0  0  0  0  0
  192.8770  175.0200  137.5220 C   0  0  1  0  0  3  0  0  0  0  0  0
  192.8880  175.7520  135.1280 O   0  0  0  0  0  0  0  0  0  0  0  0
  193.5080  175.7320  136.3710 C   0  0  0  0  0  0  0  0  0  0  0  0
  194.6110  176.3150  136.5300 O   0  0  0  0  0  1  0  0  0  0  0  0
  186.5650  177.3160  143.4510 O   0  0  0  0  0  0  0  0  0  0  0  0
  185.9330  178.0600  144.4830 C   0  0  0  0  0  2  0  0  0  0  0  0
  182.4460  178.8730  144.0740 C   0  0  0  0  0  3  0  0  0  0  0  0
  184.9340  179.0350  143.8860 C   0  0  1  0  0  3  0  0  0  0  0  0
  182.3550  178.7160  142.6180 C   0  0  0  0  0  0  0  0  0  0  0  0
  181.2300  178.6320  142.0590 O   0  0  0  0  0  0  0  0  0  0  0  0
  184.7760  178.7570  142.4100 C   0  0  0  0  0  3  0  0  0  0  0  0
  183.5840  178.6280  141.8230 C   0  0  0  0  0  3  0  0  0  0  0  0
  183.6370  179.0030  144.6620 C   0  0  0  0  0  3  0  0  0  0  0  0
  1  9  2  0  0  0  0
  1  2  1  0  0  0  0
  2  3  1  1  0  0  0
  2  7  1  0  0  0  0
  3  4  2  0  0  0  0
  4  5  1  0  0  0  0
  7  6  1  1  0  0  0
  7  5  1  0  0  0  0
  8 25  1  0  0  0  0
  8  6  2  0  0  0  0
  9  8  1  0  0  0  0
 10 18  1  0  0  0  0
 11 18  1  6  0  0  0
 11 13  1  0  0  0  0
 12 10  1  0  0  0  0
 12 14  2  0  0  0  0
 13 19  1  0  0  0  0
 13  1  1  1  0  0  0
 15 14  1  1  0  0  0
 15 11  1  0  0  0  0
 15 17  1  0  0  0  0
 16 17  2  0  0  0  0
 17 19  1  0  0  0  0
 21 20  1  6  0  0  0
 21 14  1  0  0  0  0
 22 23  2  0  0  0  0
 23 24  1  0  0  0  0
 23 21  1  0  0  0  0
 25 26  1  0  0  0  0
 27 33  2  0  0  0  0
 28 26  1  1  0  0  0
 28 33  1  0  0  0  0
 29 27  1  0  0  0  0
 30 29  2  0  0  0  0
 31 28  1  0  0  0  0
 32 31  2  0  0  0  0
 32 29  1  0  0  0  0
M  END
>  <MODEL>
6

>  <REMARK>
 VINA RESULT:      -8.2      4.981      7.541
  Name = 
  6 active torsions:
  status: ('A' for Active; 'I' for Inactive)
    1  A    between atoms: C_5  and  C_6
    2  A    between atoms: C_7  and  C_29
    3  A    between atoms: C_10  and  C_14
    4  A    between atoms: C_14  and  O_32
    5  A    between atoms: C_23  and  C_29
    6  A    between atoms: C_24  and  O_32
                            x       y       z     vdW  Elec       q    Type
                         _______ _______ _______ _____ _____    ______ ____

>  <TORSDO>
F 6

$$$$
=
 OpenBabel11062412313D

 33 37  0  0  1  0  0  0  0  0999 V2000
  187.0350  178.3650  144.0930 C   0  0  0  0  0  0  0  0  0  0  0  0
  185.5770  178.4320  144.2810 C   0  0  1  0  0  3  0  0  0  0  0  0
  184.9320  179.3340  144.9970 C   0  0  0  0  0  3  0  0  0  0  0  0
  183.5970  179.4090  144.5110 N   0  0  0  0  0  0  0  0  0  0  0  0
  183.4400  178.6320  143.5170 N   0  0  0  0  0  2  0  0  0  0  0  0
  185.2120  178.1210  141.8780 C   0  0  0  0  0  3  0  0  0  0  0  0
  184.6550  177.8780  143.2580 C   0  0  1  0  0  3  0  0  0  0  0  0
  186.5370  178.2330  141.6750 C   0  0  0  0  0  0  0  0  0  0  0  0
  187.4810  178.2650  142.8350 C   0  0  0  0  0  3  0  0  0  0  0  0
  191.6620  178.3730  143.7750 C   0  0  0  0  0  2  0  0  0  0  0  0
  189.4170  178.0670  144.7930 C   0  0  2  0  0  3  0  0  0  0  0  0
  192.0260  177.1660  144.6440 C   0  0  0  0  0  3  0  0  0  0  0  0
  188.0140  178.4820  145.2210 C   0  0  2  0  0  3  0  0  0  0  0  0
  191.2550  176.7360  145.6700 C   0  0  0  0  0  0  0  0  0  0  0  0
  190.0760  177.5820  146.0580 C   0  0  2  0  0  3  0  0  0  0  0  0
  188.9760  176.1860  147.7170 O   0  0  0  0  0  0  0  0  0  0  0  0
  188.9100  176.9930  146.7540 C   0  0  0  0  0  0  0  0  0  0  0  0
  190.3400  179.0830  144.1550 C   0  0  0  0  0  2  0  0  0  0  0  0
  187.6850  177.5490  146.2950 N   0  0  0  0  0  2  0  0  0  0  0  0
  192.4150  174.6580  145.7580 F   0  0  0  0  0  0  0  0  0  0  0  0
  191.6770  175.5600  146.5040 C   0  0  1  0  0  3  0  0  0  0  0  0
  192.0600  177.1270  148.4190 O   0  0  0  0  0  1  0  0  0  0  0  0
  192.4370  175.9890  147.7150 C   0  0  0  0  0  0  0  0  0  0  0  0
  193.4280  175.3160  148.0980 O   0  0  0  0  0  0  0  0  0  0  0  0
  187.0060  178.3550  140.3650 O   0  0  0  0  0  0  0  0  0  0  0  0
  188.3690  178.6280  140.0700 C   0  0  0  0  0  2  0  0  0  0  0  0
  191.5400  176.9160  140.1120 C   0  0  0  0  0  3  0  0  0  0  0  0
  189.1020  177.3380  139.7510 C   0  0  1  0  0  3  0  0  0  0  0  0
  191.7170  176.7500  138.6650 C   0  0  0  0  0  0  0  0  0  0  0  0
  192.8430  176.4400  138.1960 O   0  0  0  0  0  0  0  0  0  0  0  0
  189.3750  177.2640  138.2670 C   0  0  0  0  0  3  0  0  0  0  0  0
  190.5780  176.9750  137.7680 C   0  0  0  0  0  3  0  0  0  0  0  0
  190.3380  177.2050  140.6130 C   0  0  0  0  0  3  0  0  0  0  0  0
  1  2  1  0  0  0  0
  2  3  1  6  0  0  0
  4  3  2  0  0  0  0
  5  4  1  0  0  0  0
  7  6  1  6  0  0  0
  7  5  1  0  0  0  0
  7  2  1  0  0  0  0
  8  6  2  0  0  0  0
  8  9  1  0  0  0  0
  9  1  2  0  0  0  0
 10 18  1  0  0  0  0
 10 12  1  0  0  0  0
 11 18  1  1  0  0  0
 11 13  1  0  0  0  0
 11 15  1  0  0  0  0
 12 14  2  0  0  0  0
 13  1  1  6  0  0  0
 13 19  1  0  0  0  0
 14 21  1  0  0  0  0
 15 14  1  6  0  0  0
 15 17  1  0  0  0  0
 17 16  2  0  0  0  0
 19 17  1  0  0  0  0
 21 20  1  6  0  0  0
 21 23  1  0  0  0  0
 23 24  2  0  0  0  0
 23 22  1  0  0  0  0
 25  8  1  0  0  0  0
 26 25  1  0  0  0  0
 27 33  2  0  0  0  0
 28 26  1  6  0  0  0
 28 33  1  0  0  0  0
 29 27  1  0  0  0  0
 30 29  2  0  0  0  0
 31 28  1  0  0  0  0
 32 31  2  0  0  0  0
 32 29  1  0  0  0  0
M  END
>  <MODEL>
7

>  <REMARK>
 VINA RESULT:      -8.1      3.637      8.338
  Name = 
  6 active torsions:
  status: ('A' for Active; 'I' for Inactive)
    1  A    between atoms: C_5  and  C_6
    2  A    between atoms: C_7  and  C_29
    3  A    between atoms: C_10  and  C_14
    4  A    between atoms: C_14  and  O_32
    5  A    between atoms: C_23  and  C_29
    6  A    between atoms: C_24  and  O_32
                            x       y       z     vdW  Elec       q    Type
                         _______ _______ _______ _____ _____    ______ ____

>  <TORSDO>
F 6

$$$$
=
 OpenBabel11062412313D

 33 37  0  0  1  0  0  0  0  0999 V2000
  187.5330  178.2740  140.6820 C   0  0  0  0  0  0  0  0  0  0  0  0
  186.1720  178.8220  140.8090 C   0  0  1  0  0  3  0  0  0  0  0  0
  185.1750  178.6120  139.9710 C   0  0  0  0  0  3  0  0  0  0  0  0
  183.9570  178.8200  140.6760 N   0  0  0  0  0  0  0  0  0  0  0  0
  184.1890  179.0950  141.8960 N   0  0  0  0  0  2  0  0  0  0  0  0
  186.0920  178.1810  143.1730 C   0  0  0  0  0  3  0  0  0  0  0  0
  185.6190  179.1740  142.1410 C   0  0  1  0  0  3  0  0  0  0  0  0
  187.2570  177.5260  143.0220 C   0  0  0  0  0  0  0  0  0  0  0  0
  188.0420  177.6580  141.7570 C   0  0  0  0  0  3  0  0  0  0  0  0
  186.7970  175.7050  136.8920 C   0  0  0  0  0  2  0  0  0  0  0  0
  188.0390  177.0840  138.5420 C   0  0  2  0  0  3  0  0  0  0  0  0
  188.1370  174.9770  136.7560 C   0  0  0  0  0  3  0  0  0  0  0  0
  188.3160  178.3100  139.4060 C   0  0  2  0  0  3  0  0  0  0  0  0
  189.3050  175.4890  137.2100 C   0  0  0  0  0  0  0  0  0  0  0  0
  189.2930  176.9000  137.7270 C   0  0  2  0  0  3  0  0  0  0  0  0
  191.5430  177.1320  138.6170 O   0  0  0  0  0  0  0  0  0  0  0  0
  190.3090  177.3670  138.6950 C   0  0  0  0  0  0  0  0  0  0  0  0
  186.8660  177.0860  137.5860 C   0  0  0  0  0  2  0  0  0  0  0  0
  189.7490  178.2360  139.6700 N   0  0  0  0  0  2  0  0  0  0  0  0
  190.4180  173.3840  137.2400 F   0  0  0  0  0  0  0  0  0  0  0  0
  190.5930  174.7400  137.0260 C   0  0  1  0  0  3  0  0  0  0  0  0
  190.9410  176.1810  135.0080 O   0  0  0  0  0  0  0  0  0  0  0  0
  191.1860  174.9880  135.6780 C   0  0  0  0  0  0  0  0  0  0  0  0
  191.9100  174.1080  135.1450 O   0  0  0  0  0  1  0  0  0  0  0  0
  187.6970  176.6960  144.0560 O   0  0  0  0  0  0  0  0  0  0  0  0
  188.3150  177.2080  145.2290 C   0  0  0  0  0  2  0  0  0  0  0  0
  191.1510  178.6170  143.5100 C   0  0  0  0  0  3  0  0  0  0  0  0
  189.8240  177.1870  145.0740 C   0  0  1  0  0  3  0  0  0  0  0  0
  191.5960  177.4120  142.8000 C   0  0  0  0  0  0  0  0  0  0  0  0
  192.4110  177.5050  141.8450 O   0  0  0  0  0  0  0  0  0  0  0  0
  190.2300  176.0010  144.2320 C   0  0  0  0  0  3  0  0  0  0  0  0
  191.0630  176.1040  143.1930 C   0  0  0  0  0  3  0  0  0  0  0  0
  190.3200  178.5160  144.5490 C   0  0  0  0  0  3  0  0  0  0  0  0
  1  2  1  0  0  0  0
  1  9  2  0  0  0  0
  2  3  1  1  0  0  0
  2  7  1  0  0  0  0
  3  4  2  0  0  0  0
  4  5  1  0  0  0  0
  5  7  1  0  0  0  0
  7  6  1  1  0  0  0
  8  6  2  0  0  0  0
  8 25  1  0  0  0  0
  9  8  1  0  0  0  0
 10 18  1  0  0  0  0
 11 18  1  6  0  0  0
 11 13  1  0  0  0  0
 12 10  1  0  0  0  0
 12 14  2  0  0  0  0
 13 19  1  0  0  0  0
 13  1  1  1  0  0  0
 15 14  1  1  0  0  0
 15 11  1  0  0  0  0
 15 17  1  0  0  0  0
 16 17  2  0  0  0  0
 17 19  1  0  0  0  0
 21 14  1  0  0  0  0
 21 20  1  6  0  0  0
 22 23  2  0  0  0  0
 23 21  1  0  0  0  0
 24 23  1  0  0  0  0
 25 26  1  0  0  0  0
 27 33  2  0  0  0  0
 28 26  1  6  0  0  0
 29 32  1  0  0  0  0
 29 27  1  0  0  0  0
 30 29  2  0  0  0  0
 31 28  1  0  0  0  0
 32 31  2  0  0  0  0
 33 28  1  0  0  0  0
M  END
>  <MODEL>
8

>  <REMARK>
 VINA RESULT:      -8.0      3.667      4.646
  Name = 
  6 active torsions:
  status: ('A' for Active; 'I' for Inactive)
    1  A    between atoms: C_5  and  C_6
    2  A    between atoms: C_7  and  C_29
    3  A    between atoms: C_10  and  C_14
    4  A    between atoms: C_14  and  O_32
    5  A    between atoms: C_23  and  C_29
    6  A    between atoms: C_24  and  O_32
                            x       y       z     vdW  Elec       q    Type
                         _______ _______ _______ _____ _____    ______ ____

>  <TORSDO>
F 6

$$$$
=
 OpenBabel11062412313D

 33 37  0  0  1  0  0  0  0  0999 V2000
  185.3740  178.7520  143.0800 C   0  0  0  0  0  0  0  0  0  0  0  0
  185.1230  178.9730  144.5130 C   0  0  1  0  0  3  0  0  0  0  0  0
  183.9460  178.9180  145.1080 C   0  0  0  0  0  3  0  0  0  0  0  0
  184.1610  178.6400  146.4860 N   0  0  0  0  0  0  0  0  0  0  0  0
  185.4010  178.4830  146.7200 N   0  0  0  0  0  2  0  0  0  0  0  0
  186.9920  177.5040  145.1090 C   0  0  0  0  0  3  0  0  0  0  0  0
  186.1850  178.7100  145.5180 C   0  0  1  0  0  3  0  0  0  0  0  0
  187.1180  177.1600  143.8140 C   0  0  0  0  0  0  0  0  0  0  0  0
  186.3400  177.8810  142.7600 C   0  0  0  0  0  3  0  0  0  0  0  0
  180.9190  177.9220  142.0960 C   0  0  0  0  0  2  0  0  0  0  0  0
  183.2770  178.6100  141.7260 C   0  0  2  0  0  3  0  0  0  0  0  0
  181.0140  177.4490  140.6430 C   0  0  0  0  0  3  0  0  0  0  0  0
  184.5590  179.3890  141.9970 C   0  0  2  0  0  3  0  0  0  0  0  0
  182.0010  177.8390  139.8030 C   0  0  0  0  0  0  0  0  0  0  0  0
  182.9480  178.9020  140.2850 C   0  0  2  0  0  3  0  0  0  0  0  0
  184.5950  178.9630  138.4970 O   0  0  0  0  0  0  0  0  0  0  0  0
  184.3110  179.0230  139.7220 C   0  0  0  0  0  0  0  0  0  0  0  0
  182.0370  178.8920  142.5470 C   0  0  0  0  0  2  0  0  0  0  0  0
  185.2670  179.3520  140.7210 N   0  0  0  0  0  2  0  0  0  0  0  0
  181.5240  176.0780  138.2720 F   0  0  0  0  0  0  0  0  0  0  0  0
  182.0280  177.3630  138.3790 C   0  0  1  0  0  3  0  0  0  0  0  0
  180.0100  178.7220  137.7900 O   0  0  0  0  0  1  0  0  0  0  0  0
  181.2940  178.2950  137.4720 C   0  0  0  0  0  0  0  0  0  0  0  0
  181.8420  178.6920  136.4120 O   0  0  0  0  0  0  0  0  0  0  0  0
  187.9600  176.0970  143.4830 O   0  0  0  0  0  0  0  0  0  0  0  0
  189.3760  176.2220  143.4850 C   0  0  0  0  0  2  0  0  0  0  0  0
  190.2370  176.7850  140.0320 C   0  0  0  0  0  3  0  0  0  0  0  0
  189.8110  177.2450  142.4520 C   0  0  1  0  0  3  0  0  0  0  0  0
  191.6430  177.1630  140.2170 C   0  0  0  0  0  0  0  0  0  0  0  0
  192.4280  177.1800  139.2330 O   0  0  0  0  0  0  0  0  0  0  0  0
  191.2900  177.5120  142.5960 C   0  0  0  0  0  3  0  0  0  0  0  0
  192.1320  177.4920  141.5600 C   0  0  0  0  0  3  0  0  0  0  0  0
  189.3950  176.8060  141.0660 C   0  0  0  0  0  3  0  0  0  0  0  0
  1  2  1  0  0  0  0
  2  3  1  1  0  0  0
  2  7  1  0  0  0  0
  3  4  2  0  0  0  0
  4  5  1  0  0  0  0
  7  6  1  6  0  0  0
  7  5  1  0  0  0  0
  8  6  2  0  0  0  0
  9  1  2  0  0  0  0
  9  8  1  0  0  0  0
 10 18  1  0  0  0  0
 11 13  1  0  0  0  0
 11 18  1  1  0  0  0
 12 10  1  0  0  0  0
 13  1  1  1  0  0  0
 14 15  1  0  0  0  0
 14 12  2  0  0  0  0
 15 17  1  6  0  0  0
 15 11  1  0  0  0  0
 16 17  2  0  0  0  0
 17 19  1  0  0  0  0
 19 13  1  0  0  0  0
 21 20  1  1  0  0  0
 21 14  1  0  0  0  0
 23 22  1  0  0  0  0
 23 21  1  0  0  0  0
 24 23  2  0  0  0  0
 25 26  1  0  0  0  0
 25  8  1  0  0  0  0
 27 29  1  0  0  0  0
 27 33  2  0  0  0  0
 28 31  1  0  0  0  0
 28 26  1  1  0  0  0
 29 32  1  0  0  0  0
 30 29  2  0  0  0  0
 32 31  2  0  0  0  0
 33 28  1  0  0  0  0
M  END
>  <MODEL>
9

>  <REMARK>
 VINA RESULT:      -7.9      2.343      3.321
  Name = 
  6 active torsions:
  status: ('A' for Active; 'I' for Inactive)
    1  A    between atoms: C_5  and  C_6
    2  A    between atoms: C_7  and  C_29
    3  A    between atoms: C_10  and  C_14
    4  A    between atoms: C_14  and  O_32
    5  A    between atoms: C_23  and  C_29
    6  A    between atoms: C_24  and  O_32
                            x       y       z     vdW  Elec       q    Type
                         _______ _______ _______ _____ _____    ______ ____

>  <TORSDO>
F 6

$$$$
