=
 OpenBabel11062416543D

 34 37  0  0  1  0  0  0  0  0999 V2000
  187.2560  178.2920  141.3880 C   0  0  0  0  0  3  0  0  0  0  0  0
  188.2840  177.1620  144.8230 C   0  0  0  0  0  2  0  0  0  0  0  0
  184.8900  178.8560  141.4010 C   0  0  0  0  0  0  0  0  0  0  0  0
  183.6980  178.9450  143.5290 C   0  0  0  0  0  3  0  0  0  0  0  0
  186.0530  178.2790  144.9070 C   0  0  0  0  0  0  0  0  0  0  0  0
  184.8240  178.4060  146.9940 O   0  0  0  0  0  1  0  0  0  0  0  0
  186.0890  178.6380  140.7080 C   0  0  0  0  0  3  0  0  0  0  0  0
  186.0680  178.3950  143.4990 C   0  0  0  0  0  0  0  0  0  0  0  0
  184.8780  178.7350  142.8050 C   0  0  0  0  0  0  0  0  0  0  0  0
  183.6880  178.8280  144.9210 C   0  0  0  0  0  3  0  0  0  0  0  0
  187.2610  178.1670  142.7830 C   0  0  0  0  0  0  0  0  0  0  0  0
  187.3290  178.0070  145.6610 C   0  0  0  0  0  2  0  0  0  0  0  0
  184.8570  178.5020  145.6090 C   0  0  0  0  0  0  0  0  0  0  0  0
  188.4480  177.7590  143.5010 N   0  0  0  0  0  0  0  0  0  0  0  0
  189.8170  177.8670  142.9790 C   0  0  2  0  0  3  0  0  0  0  0  0
  189.3360  175.6210  142.1680 O   0  0  0  0  0  1  0  0  0  0  0  0
  190.3090  176.6210  142.2280 C   0  0  1  0  0  3  0  0  0  0  0  0
  189.2570  176.6870  138.8600 O   0  0  0  0  0  0  0  0  0  0  0  0
  192.0960  177.5330  140.6800 N   0  0  0  0  0  1  0  0  0  0  0  0
  190.8090  176.9480  140.8580 C   0  0  0  0  0  0  0  0  0  0  0  0
  190.0140  176.8160  139.8320 C   0  0  0  0  0  0  0  0  0  0  0  0
  190.7030  179.6210  144.3270 O   0  0  0  0  0  0  0  0  0  0  0  0
  190.7820  178.4070  143.9910 C   0  0  0  0  0  0  0  0  0  0  0  0
  191.5360  176.9850  145.8560 C   0  0  0  0  0  1  0  0  0  0  0  0
  191.7340  177.5700  144.5780 O   0  0  0  0  0  0  0  0  0  0  0  0
  183.6800  179.2190  140.7110 N   0  0  0  0  0  2  0  0  0  0  0  0
  182.7240  178.3640  140.0650 C   0  0  0  0  0  3  0  0  0  0  0  0
  182.8500  177.0400  140.0000 C   0  0  0  0  0  3  0  0  0  0  0  0
  180.5320  176.0330  139.9160 C   0  0  0  0  0  2  0  0  0  0  0  0
  181.3880  174.4630  137.7170 C   0  0  0  0  0  2  0  0  0  0  0  0
  181.8720  176.2160  139.3520 N   0  0  0  0  0  0  0  0  0  0  0  0
  180.0270  174.6290  138.0320 O   0  0  0  0  0  0  0  0  0  0  0  0
  179.9530  174.7020  139.4360 C   0  0  0  0  0  2  0  0  0  0  0  0
  182.1510  175.7600  137.9870 C   0  0  0  0  0  2  0  0  0  0  0  0
  1 11  1  0  0  0  0
  2 12  1  0  0  0  0
  3  9  2  0  0  0  0
  4 10  2  0  0  0  0
  5 13  2  0  0  0  0
  5 12  1  0  0  0  0
  7  1  2  0  0  0  0
  7  3  1  0  0  0  0
  8  5  1  0  0  0  0
  9  8  1  0  0  0  0
  9  4  1  0  0  0  0
 10 13  1  0  0  0  0
 11  8  2  0  0  0  0
 11 14  1  0  0  0  0
 13  6  1  0  0  0  0
 14  2  1  0  0  0  0
 15 14  1  0  0  0  0
 15 23  1  1  0  0  0
 17 16  1  6  0  0  0
 17 15  1  0  0  0  0
 18 21  2  0  0  0  0
 19 20  1  0  0  0  0
 20 17  1  0  0  0  0
 21 20  2  0  0  0  0
 23 22  2  0  0  0  0
 23 25  1  0  0  0  0
 25 24  1  0  0  0  0
 26  3  1  0  0  0  0
 27 26  1  0  0  0  0
 28 27  2  0  0  0  0
 30 34  1  0  0  0  0
 30 32  1  0  0  0  0
 31 29  1  0  0  0  0
 31 28  1  0  0  0  0
 32 33  1  0  0  0  0
 33 29  1  0  0  0  0
 34 31  1  0  0  0  0
M  END
>  <MODEL>
1

>  <REMARK>
 VINA RESULT:      -8.3      0.000      0.000
  Name = 
  8 active torsions:
  status: ('A' for Active; 'I' for Inactive)
    1  A    between atoms: C_7  and  N_28
    2  A    between atoms: C_11  and  C_25
    3  A    between atoms: C_11  and  CA_29
    4  A    between atoms: N_13  and  C_32
    5  A    between atoms: C_20  and  O_21
    6  A    between atoms: C_20  and  C_25
    7  A    between atoms: C_24  and  N_28
    8  A    between atoms: C_25  and  N_33
                            x       y       z     vdW  Elec       q    Type
                         _______ _______ _______ _____ _____    ______ ____

>  <TORSDO>
F 8

$$$$
=
 OpenBabel11062416543D

 34 37  0  0  1  0  0  0  0  0999 V2000
  187.3130  178.2860  141.4430 C   0  0  0  0  0  3  0  0  0  0  0  0
  188.3520  177.1590  144.8750 C   0  0  0  0  0  2  0  0  0  0  0  0
  184.9500  178.8620  141.4650 C   0  0  0  0  0  0  0  0  0  0  0  0
  183.7690  178.9620  143.5990 C   0  0  0  0  0  3  0  0  0  0  0  0
  186.1270  178.2870  144.9670 C   0  0  0  0  0  0  0  0  0  0  0  0
  184.9090  178.4260  147.0600 O   0  0  0  0  0  1  0  0  0  0  0  0
  186.1440  178.6360  140.7680 C   0  0  0  0  0  3  0  0  0  0  0  0
  186.1360  178.4000  143.5590 C   0  0  0  0  0  0  0  0  0  0  0  0
  184.9450  178.7440  142.8700 C   0  0  0  0  0  0  0  0  0  0  0  0
  183.7650  178.8480  144.9910 C   0  0  0  0  0  3  0  0  0  0  0  0
  187.3240  178.1630  142.8380 C   0  0  0  0  0  0  0  0  0  0  0  0
  187.4060  178.0110  145.7160 C   0  0  0  0  0  2  0  0  0  0  0  0
  184.9370  178.5180  145.6750 C   0  0  0  0  0  0  0  0  0  0  0  0
  188.5130  177.7520  143.5500 N   0  0  0  0  0  0  0  0  0  0  0  0
  189.8790  177.8510  143.0220 C   0  0  2  0  0  3  0  0  0  0  0  0
  189.5030  175.5060  142.4830 O   0  0  0  0  0  1  0  0  0  0  0  0
  190.3870  176.5760  142.3320 C   0  0  1  0  0  3  0  0  0  0  0  0
  192.9610  177.7470  140.2200 O   0  0  0  0  0  0  0  0  0  0  0  0
  189.7890  176.3640  139.8780 N   0  0  0  0  0  1  0  0  0  0  0  0
  190.6960  176.8010  140.8870 C   0  0  0  0  0  0  0  0  0  0  0  0
  191.8570  177.2850  140.5430 C   0  0  0  0  0  0  0  0  0  0  0  0
  190.7440  179.6800  144.2820 O   0  0  0  0  0  0  0  0  0  0  0  0
  190.8390  178.4530  144.0040 C   0  0  0  0  0  0  0  0  0  0  0  0
  191.5480  176.9870  145.8540 C   0  0  0  0  0  1  0  0  0  0  0  0
  191.8030  177.6580  144.6290 O   0  0  0  0  0  0  0  0  0  0  0  0
  183.7390  179.2280  140.7800 N   0  0  0  0  0  2  0  0  0  0  0  0
  183.3230  178.8920  139.4470 C   0  0  0  0  0  3  0  0  0  0  0  0
  182.1640  179.2820  138.9200 C   0  0  0  0  0  3  0  0  0  0  0  0
  182.1830  177.6550  136.9830 C   0  0  0  0  0  2  0  0  0  0  0  0
  180.9660  179.6650  135.3980 C   0  0  0  0  0  2  0  0  0  0  0  0
  181.7840  178.9320  137.5830 N   0  0  0  0  0  0  0  0  0  0  0  0
  180.9940  178.3140  135.0020 O   0  0  0  0  0  0  0  0  0  0  0  0
  182.2190  177.7940  135.4620 C   0  0  0  0  0  2  0  0  0  0  0  0
  180.7810  179.7640  136.9120 C   0  0  0  0  0  2  0  0  0  0  0  0
  1 11  1  0  0  0  0
  2 12  1  0  0  0  0
  3  9  2  0  0  0  0
  4 10  2  0  0  0  0
  5 13  2  0  0  0  0
  5 12  1  0  0  0  0
  7  1  2  0  0  0  0
  7  3  1  0  0  0  0
  8  5  1  0  0  0  0
  9  8  1  0  0  0  0
  9  4  1  0  0  0  0
 10 13  1  0  0  0  0
 11 14  1  0  0  0  0
 11  8  2  0  0  0  0
 13  6  1  0  0  0  0
 14  2  1  0  0  0  0
 15 14  1  0  0  0  0
 15 23  1  1  0  0  0
 17 16  1  6  0  0  0
 17 15  1  0  0  0  0
 18 21  2  0  0  0  0
 19 20  1  0  0  0  0
 20 17  1  0  0  0  0
 21 20  2  0  0  0  0
 23 22  2  0  0  0  0
 23 25  1  0  0  0  0
 25 24  1  0  0  0  0
 26  3  1  0  0  0  0
 27 26  1  0  0  0  0
 28 27  2  0  0  0  0
 29 31  1  0  0  0  0
 30 34  1  0  0  0  0
 31 28  1  0  0  0  0
 32 30  1  0  0  0  0
 32 33  1  0  0  0  0
 33 29  1  0  0  0  0
 34 31  1  0  0  0  0
M  END
>  <MODEL>
2

>  <REMARK>
 VINA RESULT:      -7.8      1.859      2.213
  Name = 
  8 active torsions:
  status: ('A' for Active; 'I' for Inactive)
    1  A    between atoms: C_7  and  N_28
    2  A    between atoms: C_11  and  C_25
    3  A    between atoms: C_11  and  CA_29
    4  A    between atoms: N_13  and  C_32
    5  A    between atoms: C_20  and  O_21
    6  A    between atoms: C_20  and  C_25
    7  A    between atoms: C_24  and  N_28
    8  A    between atoms: C_25  and  N_33
                            x       y       z     vdW  Elec       q    Type
                         _______ _______ _______ _____ _____    ______ ____

>  <TORSDO>
F 8

$$$$
=
 OpenBabel11062416543D

 34 37  0  0  1  0  0  0  0  0999 V2000
  186.6600  178.0140  141.5180 C   0  0  0  0  0  3  0  0  0  0  0  0
  188.3140  177.3250  144.8220 C   0  0  0  0  0  2  0  0  0  0  0  0
  184.2880  178.4230  141.8750 C   0  0  0  0  0  0  0  0  0  0  0  0
  183.4510  178.6600  144.1550 C   0  0  0  0  0  3  0  0  0  0  0  0
  186.0430  178.2980  145.1740 C   0  0  0  0  0  0  0  0  0  0  0  0
  185.1590  178.5670  147.4170 O   0  0  0  0  0  1  0  0  0  0  0  0
  185.3740  178.2100  141.0140 C   0  0  0  0  0  3  0  0  0  0  0  0
  185.8220  178.2640  143.7790 C   0  0  0  0  0  0  0  0  0  0  0  0
  184.5120  178.4510  143.2660 C   0  0  0  0  0  0  0  0  0  0  0  0
  183.6740  178.6920  145.5330 C   0  0  0  0  0  3  0  0  0  0  0  0
  186.8990  178.0380  142.8980 C   0  0  0  0  0  0  0  0  0  0  0  0
  187.4420  178.1910  145.7250 C   0  0  0  0  0  2  0  0  0  0  0  0
  184.9620  178.5170  146.0430 C   0  0  0  0  0  0  0  0  0  0  0  0
  188.2150  177.7870  143.4400 N   0  0  0  0  0  0  0  0  0  0  0  0
  189.4680  177.9270  142.6890 C   0  0  2  0  0  3  0  0  0  0  0  0
  189.0650  175.5740  142.2010 O   0  0  0  0  0  1  0  0  0  0  0  0
  189.8920  176.6640  141.9220 C   0  0  1  0  0  3  0  0  0  0  0  0
  188.8800  178.9660  139.4460 O   0  0  0  0  0  0  0  0  0  0  0  0
  190.7660  176.0510  139.6230 N   0  0  0  0  0  1  0  0  0  0  0  0
  189.9710  176.8990  140.4480 C   0  0  0  0  0  0  0  0  0  0  0  0
  189.4130  177.9590  139.9330 C   0  0  0  0  0  0  0  0  0  0  0  0
  190.4880  179.7930  143.7620 O   0  0  0  0  0  0  0  0  0  0  0  0
  190.5600  178.5630  143.4940 C   0  0  0  0  0  0  0  0  0  0  0  0
  191.6370  177.2540  145.2830 C   0  0  0  0  0  1  0  0  0  0  0  0
  191.6270  177.7960  143.9710 O   0  0  0  0  0  0  0  0  0  0  0  0
  182.9580  178.6310  141.3670 N   0  0  0  0  0  2  0  0  0  0  0  0
  182.4910  179.6400  140.4580 C   0  0  0  0  0  3  0  0  0  0  0  0
  181.2130  179.7770  140.1070 C   0  0  0  0  0  3  0  0  0  0  0  0
  181.6700  181.3250  138.1600 C   0  0  0  0  0  2  0  0  0  0  0  0
  179.1810  182.5760  138.6850 C   0  0  0  0  0  2  0  0  0  0  0  0
  180.7820  180.8000  139.2020 N   0  0  0  0  0  0  0  0  0  0  0  0
  179.8710  182.7610  137.4720 O   0  0  0  0  0  0  0  0  0  0  0  0
  181.2420  182.7450  137.7910 C   0  0  0  0  0  2  0  0  0  0  0  0
  179.3550  181.1380  139.1730 C   0  0  0  0  0  2  0  0  0  0  0  0
  1 11  1  0  0  0  0
  2 12  1  0  0  0  0
  3  9  2  0  0  0  0
  4 10  2  0  0  0  0
  5 12  1  0  0  0  0
  5 13  2  0  0  0  0
  7  1  2  0  0  0  0
  7  3  1  0  0  0  0
  8  5  1  0  0  0  0
  9  8  1  0  0  0  0
  9  4  1  0  0  0  0
 10 13  1  0  0  0  0
 11 14  1  0  0  0  0
 11  8  2  0  0  0  0
 13  6  1  0  0  0  0
 14  2  1  0  0  0  0
 15 14  1  0  0  0  0
 15 23  1  1  0  0  0
 17 16  1  6  0  0  0
 17 15  1  0  0  0  0
 18 21  2  0  0  0  0
 19 20  1  0  0  0  0
 20 17  1  0  0  0  0
 21 20  2  0  0  0  0
 23 22  2  0  0  0  0
 23 25  1  0  0  0  0
 25 24  1  0  0  0  0
 26  3  1  0  0  0  0
 27 26  1  0  0  0  0
 28 27  2  0  0  0  0
 29 31  1  0  0  0  0
 30 34  1  0  0  0  0
 31 28  1  0  0  0  0
 32 33  1  0  0  0  0
 32 30  1  0  0  0  0
 33 29  1  0  0  0  0
 34 31  1  0  0  0  0
M  END
>  <MODEL>
3

>  <REMARK>
 VINA RESULT:      -7.0      2.449      3.130
  Name = 
  8 active torsions:
  status: ('A' for Active; 'I' for Inactive)
    1  A    between atoms: C_7  and  N_28
    2  A    between atoms: C_11  and  C_25
    3  A    between atoms: C_11  and  CA_29
    4  A    between atoms: N_13  and  C_32
    5  A    between atoms: C_20  and  O_21
    6  A    between atoms: C_20  and  C_25
    7  A    between atoms: C_24  and  N_28
    8  A    between atoms: C_25  and  N_33
                            x       y       z     vdW  Elec       q    Type
                         _______ _______ _______ _____ _____    ______ ____

>  <TORSDO>
F 8

$$$$
=
 OpenBabel11062416543D

 34 37  0  0  1  0  0  0  0  0999 V2000
  183.2080  178.7850  142.5200 C   0  0  0  0  0  3  0  0  0  0  0  0
  183.5930  178.3960  138.8020 C   0  0  0  0  0  2  0  0  0  0  0  0
  185.3630  178.4410  143.5930 C   0  0  0  0  0  0  0  0  0  0  0  0
  187.3670  178.2590  142.2110 C   0  0  0  0  0  3  0  0  0  0  0  0
  185.8290  178.6190  139.8880 C   0  0  0  0  0  0  0  0  0  0  0  0
  187.8560  178.4570  138.5660 O   0  0  0  0  0  1  0  0  0  0  0  0
  183.9760  178.6220  143.6730 C   0  0  0  0  0  3  0  0  0  0  0  0
  185.2030  178.6170  141.1550 C   0  0  0  0  0  0  0  0  0  0  0  0
  185.9820  178.4390  142.3280 C   0  0  0  0  0  0  0  0  0  0  0  0
  187.9800  178.2610  140.9570 C   0  0  0  0  0  3  0  0  0  0  0  0
  183.8080  178.7850  141.2550 C   0  0  0  0  0  0  0  0  0  0  0  0
  185.0250  178.8980  138.6440 C   0  0  0  0  0  2  0  0  0  0  0  0
  187.2200  178.4450  139.8000 C   0  0  0  0  0  0  0  0  0  0  0  0
  183.0220  178.9020  140.0470 N   0  0  0  0  0  0  0  0  0  0  0  0
  181.6660  179.4610  139.9840 C   0  0  2  0  0  3  0  0  0  0  0  0
  180.9830  177.1230  140.0030 O   0  0  0  0  0  1  0  0  0  0  0  0
  180.5450  178.4340  140.2030 C   0  0  1  0  0  3  0  0  0  0  0  0
  179.6810  180.8790  142.5980 O   0  0  0  0  0  0  0  0  0  0  0  0
  179.3050  177.4480  142.1820 N   0  0  0  0  0  1  0  0  0  0  0  0
  179.9070  178.5730  141.5480 C   0  0  0  0  0  0  0  0  0  0  0  0
  179.7900  179.7550  142.0870 C   0  0  0  0  0  0  0  0  0  0  0  0
  182.1540  181.4130  138.7070 O   0  0  0  0  0  0  0  0  0  0  0  0
  181.4640  180.3610  138.8020 C   0  0  0  0  0  0  0  0  0  0  0  0
  180.9600  179.6610  136.4940 C   0  0  0  0  0  1  0  0  0  0  0  0
  180.5470  180.0230  137.8040 O   0  0  0  0  0  0  0  0  0  0  0  0
  186.1670  178.2760  144.7760 N   0  0  0  0  0  0  0  0  0  0  0  0
  187.4820  177.7110  144.8960 C   0  0  0  0  0  3  0  0  0  0  0  0
  188.1790  177.7090  146.0320 C   0  0  0  0  0  2  0  0  0  0  0  0
  190.0390  176.6730  147.3960 C   0  0  0  0  0  2  0  0  0  0  0  0
  191.6780  176.7880  145.0870 C   0  0  0  0  0  2  0  0  0  0  0  0
  189.4870  177.1300  146.1170 N   0  0  0  0  0  0  0  0  0  0  0  0
  192.0130  175.9990  146.2030 O   0  0  0  0  0  0  0  0  0  0  0  0
  191.5660  176.7070  147.3350 C   0  0  0  0  0  2  0  0  0  0  0  0
  190.1650  176.7730  144.8680 C   0  0  0  0  0  2  0  0  0  0  0  0
  1  7  1  0  0  0  0
  2 14  1  0  0  0  0
  3  7  2  0  0  0  0
  3 26  1  0  0  0  0
  4  9  1  0  0  0  0
  5  8  1  0  0  0  0
  6 13  1  0  0  0  0
  8 11  1  0  0  0  0
  8  9  2  0  0  0  0
  9  3  1  0  0  0  0
 10  4  2  0  0  0  0
 11  1  2  0  0  0  0
 12  2  1  0  0  0  0
 12  5  1  0  0  0  0
 13  5  2  0  0  0  0
 13 10  1  0  0  0  0
 14 11  1  0  0  0  0
 15 23  1  6  0  0  0
 15 14  1  0  0  0  0
 15 17  1  0  0  0  0
 17 16  1  1  0  0  0
 17 20  1  0  0  0  0
 20 21  2  0  0  0  0
 20 19  1  0  0  0  0
 21 18  2  0  0  0  0
 22 23  2  0  0  0  0
 24 25  1  0  0  0  0
 25 23  1  0  0  0  0
 26 27  2  0  0  0  0
 27 28  1  0  0  0  0
 28 31  1  0  0  0  0
 30 32  1  0  0  0  0
 31 29  1  0  0  0  0
 32 33  1  0  0  0  0
 33 29  1  0  0  0  0
 34 30  1  0  0  0  0
 34 31  1  0  0  0  0
M  END
>  <MODEL>
4

>  <REMARK>
 VINA RESULT:      -7.0      2.837      9.213
  Name = 
  8 active torsions:
  status: ('A' for Active; 'I' for Inactive)
    1  A    between atoms: C_7  and  N_28
    2  A    between atoms: C_11  and  C_25
    3  A    between atoms: C_11  and  CA_29
    4  A    between atoms: N_13  and  C_32
    5  A    between atoms: C_20  and  O_21
    6  A    between atoms: C_20  and  C_25
    7  A    between atoms: C_24  and  N_28
    8  A    between atoms: C_25  and  N_33
                            x       y       z     vdW  Elec       q    Type
                         _______ _______ _______ _____ _____    ______ ____

>  <TORSDO>
F 8

$$$$
=
 OpenBabel11062416543D

 34 37  0  0  1  0  0  0  0  0999 V2000
  183.8440  178.7610  140.2280 C   0  0  0  0  0  3  0  0  0  0  0  0
  181.3370  179.4010  142.9550 C   0  0  0  0  0  2  0  0  0  0  0  0
  186.0740  178.6590  141.1930 C   0  0  0  0  0  0  0  0  0  0  0  0
  186.3220  178.6320  143.6210 C   0  0  0  0  0  3  0  0  0  0  0  0
  183.5330  178.7260  143.9340 C   0  0  0  0  0  0  0  0  0  0  0  0
  183.8380  178.6720  146.3390 O   0  0  0  0  0  1  0  0  0  0  0  0
  185.2290  178.6990  140.0760 C   0  0  0  0  0  3  0  0  0  0  0  0
  184.0980  178.7210  142.6380 C   0  0  0  0  0  0  0  0  0  0  0  0
  185.5070  178.6700  142.4820 C   0  0  0  0  0  0  0  0  0  0  0  0
  185.7590  178.6390  144.8990 C   0  0  0  0  0  3  0  0  0  0  0  0
  183.2640  178.7740  141.5030 C   0  0  0  0  0  0  0  0  0  0  0  0
  182.0360  178.6900  144.1100 C   0  0  0  0  0  2  0  0  0  0  0  0
  184.3730  178.6810  145.0580 C   0  0  0  0  0  0  0  0  0  0  0  0
  181.8340  178.8890  141.6810 N   0  0  0  0  0  0  0  0  0  0  0  0
  180.8360  178.5640  140.6550 C   0  0  2  0  0  3  0  0  0  0  0  0
  180.2090  180.9110  140.8430 O   0  0  0  0  0  1  0  0  0  0  0  0
  180.1630  179.7880  140.0140 C   0  0  1  0  0  3  0  0  0  0  0  0
  181.0110  182.5340  137.9660 O   0  0  0  0  0  0  0  0  0  0  0  0
  181.2450  179.0670  137.8380 N   0  0  0  0  0  1  0  0  0  0  0  0
  180.7330  180.1060  138.6690 C   0  0  0  0  0  0  0  0  0  0  0  0
  180.8770  181.3500  138.3070 C   0  0  0  0  0  0  0  0  0  0  0  0
  178.9310  177.7840  141.8540 O   0  0  0  0  0  0  0  0  0  0  0  0
  179.8880  177.4870  141.0880 C   0  0  0  0  0  0  0  0  0  0  0  0
  181.0150  175.8380  139.6440 C   0  0  0  0  0  1  0  0  0  0  0  0
  180.0430  176.1790  140.6220 O   0  0  0  0  0  0  0  0  0  0  0  0
  187.5050  178.5890  141.0490 N   0  0  0  0  0  2  0  0  0  0  0  0
  188.2740  178.1780  139.9080 C   0  0  0  0  0  3  0  0  0  0  0  0
  189.3910  177.4580  139.9960 C   0  0  0  0  0  3  0  0  0  0  0  0
  189.6070  177.2770  137.4830 C   0  0  0  0  0  2  0  0  0  0  0  0
  191.9340  175.7100  137.8840 C   0  0  0  0  0  2  0  0  0  0  0  0
  190.1300  177.0590  138.8350 N   0  0  0  0  0  0  0  0  0  0  0  0
  191.6250  176.2850  136.6370 O   0  0  0  0  0  0  0  0  0  0  0  0
  190.2220  176.2560  136.5260 C   0  0  0  0  0  2  0  0  0  0  0  0
  191.5280  176.6560  139.0140 C   0  0  0  0  0  2  0  0  0  0  0  0
  1 11  1  0  0  0  0
  2 12  1  0  0  0  0
  3  9  2  0  0  0  0
  4 10  2  0  0  0  0
  5 12  1  0  0  0  0
  5 13  2  0  0  0  0
  7  1  2  0  0  0  0
  7  3  1  0  0  0  0
  8  5  1  0  0  0  0
  9  8  1  0  0  0  0
  9  4  1  0  0  0  0
 10 13  1  0  0  0  0
 11 14  1  0  0  0  0
 11  8  2  0  0  0  0
 13  6  1  0  0  0  0
 14  2  1  0  0  0  0
 15 23  1  1  0  0  0
 15 14  1  0  0  0  0
 17 15  1  0  0  0  0
 17 16  1  1  0  0  0
 18 21  2  0  0  0  0
 19 20  1  0  0  0  0
 20 17  1  0  0  0  0
 21 20  2  0  0  0  0
 23 22  2  0  0  0  0
 24 25  1  0  0  0  0
 25 23  1  0  0  0  0
 26  3  1  0  0  0  0
 27 28  2  0  0  0  0
 27 26  1  0  0  0  0
 29 31  1  0  0  0  0
 30 34  1  0  0  0  0
 31 34  1  0  0  0  0
 31 28  1  0  0  0  0
 32 30  1  0  0  0  0
 33 32  1  0  0  0  0
 33 29  1  0  0  0  0
M  END
>  <MODEL>
5

>  <REMARK>
 VINA RESULT:      -7.0      3.040      8.142
  Name = 
  8 active torsions:
  status: ('A' for Active; 'I' for Inactive)
    1  A    between atoms: C_7  and  N_28
    2  A    between atoms: C_11  and  C_25
    3  A    between atoms: C_11  and  CA_29
    4  A    between atoms: N_13  and  C_32
    5  A    between atoms: C_20  and  O_21
    6  A    between atoms: C_20  and  C_25
    7  A    between atoms: C_24  and  N_28
    8  A    between atoms: C_25  and  N_33
                            x       y       z     vdW  Elec       q    Type
                         _______ _______ _______ _____ _____    ______ ____

>  <TORSDO>
F 8

$$$$
=
 OpenBabel11062416543D

 34 37  0  0  1  0  0  0  0  0999 V2000
  185.0210  178.3580  141.6660 C   0  0  0  0  0  3  0  0  0  0  0  0
  182.0780  178.4430  139.3300 C   0  0  0  0  0  2  0  0  0  0  0  0
  184.2560  178.7630  143.9390 C   0  0  0  0  0  0  0  0  0  0  0  0
  181.8590  178.8100  144.3990 C   0  0  0  0  0  3  0  0  0  0  0  0
  181.3030  178.2820  141.6980 C   0  0  0  0  0  0  0  0  0  0  0  0
  178.9340  178.3150  142.2170 O   0  0  0  0  0  1  0  0  0  0  0  0
  185.2940  178.6050  143.0110 C   0  0  0  0  0  3  0  0  0  0  0  0
  182.6430  178.3930  142.1340 C   0  0  0  0  0  0  0  0  0  0  0  0
  182.9210  178.6570  143.4990 C   0  0  0  0  0  0  0  0  0  0  0  0
  180.5370  178.7010  143.9630 C   0  0  0  0  0  3  0  0  0  0  0  0
  183.7000  178.2500  141.2130 C   0  0  0  0  0  0  0  0  0  0  0  0
  180.9970  177.9140  140.2680 C   0  0  0  0  0  2  0  0  0  0  0  0
  180.2570  178.4340  142.6220 C   0  0  0  0  0  0  0  0  0  0  0  0
  183.3960  178.0450  139.8140 N   0  0  0  0  0  0  0  0  0  0  0  0
  184.3360  177.4980  138.8270 C   0  0  2  0  0  3  0  0  0  0  0  0
  184.9180  179.8450  138.5340 O   0  0  0  0  0  1  0  0  0  0  0  0
  185.0930  178.5600  138.0160 C   0  0  1  0  0  3  0  0  0  0  0  0
  187.5250  177.7500  135.5890 O   0  0  0  0  0  0  0  0  0  0  0  0
  187.4130  178.3430  139.0130 N   0  0  0  0  0  1  0  0  0  0  0  0
  186.5470  178.2410  137.8860 C   0  0  0  0  0  0  0  0  0  0  0  0
  187.0500  177.9900  136.7090 C   0  0  0  0  0  0  0  0  0  0  0  0
  183.0850  175.4850  138.5860 O   0  0  0  0  0  0  0  0  0  0  0  0
  183.7380  176.3950  138.0070 C   0  0  0  0  0  0  0  0  0  0  0  0
  184.5560  175.3550  135.9290 C   0  0  0  0  0  1  0  0  0  0  0  0
  183.8750  176.3940  136.6170 O   0  0  0  0  0  0  0  0  0  0  0  0
  184.5250  179.0130  145.3310 N   0  0  0  0  0  0  0  0  0  0  0  0
  185.7160  178.7270  146.0810 C   0  0  0  0  0  3  0  0  0  0  0  0
  186.7310  178.0110  145.6010 C   0  0  0  0  0  2  0  0  0  0  0  0
  187.9020  177.8620  147.8380 C   0  0  0  0  0  2  0  0  0  0  0  0
  190.3400  177.4980  146.4390 C   0  0  0  0  0  2  0  0  0  0  0  0
  187.9080  177.7500  146.3760 N   0  0  0  0  0  0  0  0  0  0  0  0
  190.2140  177.2070  147.8100 O   0  0  0  0  0  0  0  0  0  0  0  0
  189.3170  178.1580  148.3340 C   0  0  0  0  0  2  0  0  0  0  0  0
  189.0520  177.1270  145.7030 C   0  0  0  0  0  2  0  0  0  0  0  0
  1  7  1  0  0  0  0
  2 14  1  0  0  0  0
  2 12  1  0  0  0  0
  3 26  1  0  0  0  0
  5  8  2  0  0  0  0
  5 13  1  0  0  0  0
  6 13  1  0  0  0  0
  7  3  2  0  0  0  0
  8  9  1  0  0  0  0
  9  3  1  0  0  0  0
  9  4  2  0  0  0  0
 10  4  1  0  0  0  0
 11  1  2  0  0  0  0
 11  8  1  0  0  0  0
 12  5  1  0  0  0  0
 13 10  2  0  0  0  0
 14 11  1  0  0  0  0
 15 23  1  6  0  0  0
 15 14  1  0  0  0  0
 17 16  1  1  0  0  0
 17 15  1  0  0  0  0
 18 21  2  0  0  0  0
 20 17  1  0  0  0  0
 20 19  1  0  0  0  0
 21 20  2  0  0  0  0
 23 22  2  0  0  0  0
 24 25  1  0  0  0  0
 25 23  1  0  0  0  0
 26 27  2  0  0  0  0
 28 27  1  0  0  0  0
 28 31  1  0  0  0  0
 29 33  1  0  0  0  0
 30 32  1  0  0  0  0
 31 29  1  0  0  0  0
 32 33  1  0  0  0  0
 34 31  1  0  0  0  0
 34 30  1  0  0  0  0
M  END
>  <MODEL>
6

>  <REMARK>
 VINA RESULT:      -7.0      2.926      7.779
  Name = 
  8 active torsions:
  status: ('A' for Active; 'I' for Inactive)
    1  A    between atoms: C_7  and  N_28
    2  A    between atoms: C_11  and  C_25
    3  A    between atoms: C_11  and  CA_29
    4  A    between atoms: N_13  and  C_32
    5  A    between atoms: C_20  and  O_21
    6  A    between atoms: C_20  and  C_25
    7  A    between atoms: C_24  and  N_28
    8  A    between atoms: C_25  and  N_33
                            x       y       z     vdW  Elec       q    Type
                         _______ _______ _______ _____ _____    ______ ____

>  <TORSDO>
F 8

$$$$
=
 OpenBabel11062416543D

 34 37  0  0  1  0  0  0  0  0999 V2000
  188.3590  177.1670  140.2600 C   0  0  0  0  0  3  0  0  0  0  0  0
  189.6160  175.6100  137.0780 C   0  0  0  0  0  2  0  0  0  0  0  0
  190.2460  177.6780  141.7060 C   0  0  0  0  0  0  0  0  0  0  0  0
  192.5140  177.4590  140.8290 C   0  0  0  0  0  3  0  0  0  0  0  0
  191.5000  176.6620  138.3340 C   0  0  0  0  0  0  0  0  0  0  0  0
  193.7740  176.4870  137.5070 O   0  0  0  0  0  1  0  0  0  0  0  0
  188.8650  177.5770  141.4930 C   0  0  0  0  0  3  0  0  0  0  0  0
  190.6130  176.9650  139.3920 C   0  0  0  0  0  0  0  0  0  0  0  0
  191.1270  177.3710  140.6500 C   0  0  0  0  0  0  0  0  0  0  0  0
  193.3860  177.1590  139.7800 C   0  0  0  0  0  3  0  0  0  0  0  0
  189.2210  176.8570  139.2000 C   0  0  0  0  0  0  0  0  0  0  0  0
  190.9640  176.3170  136.9680 C   0  0  0  0  0  2  0  0  0  0  0  0
  192.8850  176.7670  138.5380 C   0  0  0  0  0  0  0  0  0  0  0  0
  188.7170  176.3810  137.9310 N   0  0  0  0  0  0  0  0  0  0  0  0
  187.3450  176.5830  137.4490 C   0  0  2  0  0  3  0  0  0  0  0  0
  187.0470  174.1840  137.1530 O   0  0  0  0  0  1  0  0  0  0  0  0
  186.8010  175.4360  136.5850 C   0  0  1  0  0  3  0  0  0  0  0  0
  183.6260  175.0940  138.0880 O   0  0  0  0  0  0  0  0  0  0  0  0
  184.9230  176.1600  135.0440 N   0  0  0  0  0  1  0  0  0  0  0  0
  185.3460  175.5970  136.2830 C   0  0  0  0  0  0  0  0  0  0  0  0
  184.4620  175.3410  137.2080 C   0  0  0  0  0  0  0  0  0  0  0  0
  187.5870  178.2180  135.7320 O   0  0  0  0  0  0  0  0  0  0  0  0
  187.1280  177.9510  136.8770 C   0  0  0  0  0  0  0  0  0  0  0  0
  185.3900  178.5440  138.5200 C   0  0  0  0  0  1  0  0  0  0  0  0
  186.3970  178.9070  137.5870 O   0  0  0  0  0  0  0  0  0  0  0  0
  190.7810  178.1050  142.9730 N   0  0  0  0  0  2  0  0  0  0  0  0
  190.1010  178.2590  144.2290 C   0  0  0  0  0  3  0  0  0  0  0  0
  189.6390  177.2340  144.9430 C   0  0  0  0  0  3  0  0  0  0  0  0
  187.5080  177.4840  146.2810 C   0  0  0  0  0  2  0  0  0  0  0  0
  189.1030  178.1220  148.5360 C   0  0  0  0  0  2  0  0  0  0  0  0
  188.9700  177.4230  146.1960 N   0  0  0  0  0  0  0  0  0  0  0  0
  187.7460  177.7680  148.6560 O   0  0  0  0  0  0  0  0  0  0  0  0
  187.1010  178.2870  147.5160 C   0  0  0  0  0  2  0  0  0  0  0  0
  189.7620  177.3060  147.4240 C   0  0  0  0  0  2  0  0  0  0  0  0
  1  7  1  0  0  0  0
  2 14  1  0  0  0  0
  3 26  1  0  0  0  0
  5 13  2  0  0  0  0
  5  8  1  0  0  0  0
  6 13  1  0  0  0  0
  7  3  2  0  0  0  0
  8  9  2  0  0  0  0
  9  4  1  0  0  0  0
  9  3  1  0  0  0  0
 10  4  2  0  0  0  0
 11  8  1  0  0  0  0
 11  1  2  0  0  0  0
 12  2  1  0  0  0  0
 12  5  1  0  0  0  0
 13 10  1  0  0  0  0
 14 11  1  0  0  0  0
 15 23  1  6  0  0  0
 15 14  1  0  0  0  0
 17 16  1  1  0  0  0
 17 15  1  0  0  0  0
 19 20  1  0  0  0  0
 20 17  1  0  0  0  0
 20 21  2  0  0  0  0
 21 18  2  0  0  0  0
 22 23  2  0  0  0  0
 23 25  1  0  0  0  0
 25 24  1  0  0  0  0
 26 27  1  0  0  0  0
 27 28  2  0  0  0  0
 28 31  1  0  0  0  0
 29 33  1  0  0  0  0
 30 32  1  0  0  0  0
 31 29  1  0  0  0  0
 31 34  1  0  0  0  0
 33 32  1  0  0  0  0
 34 30  1  0  0  0  0
M  END
>  <MODEL>
7

>  <REMARK>
 VINA RESULT:      -6.9      3.520      8.752
  Name = 
  8 active torsions:
  status: ('A' for Active; 'I' for Inactive)
    1  A    between atoms: C_7  and  N_28
    2  A    between atoms: C_11  and  C_25
    3  A    between atoms: C_11  and  CA_29
    4  A    between atoms: N_13  and  C_32
    5  A    between atoms: C_20  and  O_21
    6  A    between atoms: C_20  and  C_25
    7  A    between atoms: C_24  and  N_28
    8  A    between atoms: C_25  and  N_33
                            x       y       z     vdW  Elec       q    Type
                         _______ _______ _______ _____ _____    ______ ____

>  <TORSDO>
F 8

$$$$
=
 OpenBabel11062416543D

 34 37  0  0  1  0  0  0  0  0999 V2000
  181.5070  178.8730  142.9830 C   0  0  0  0  0  3  0  0  0  0  0  0
  182.2550  178.1730  139.3660 C   0  0  0  0  0  2  0  0  0  0  0  0
  183.5830  178.8690  144.2500 C   0  0  0  0  0  0  0  0  0  0  0  0
  185.7090  178.7730  143.0540 C   0  0  0  0  0  3  0  0  0  0  0  0
  184.3540  178.7400  140.5950 C   0  0  0  0  0  0  0  0  0  0  0  0
  186.4960  178.6720  139.4580 O   0  0  0  0  0  1  0  0  0  0  0  0
  182.1830  178.9050  144.2020 C   0  0  0  0  0  3  0  0  0  0  0  0
  183.6220  178.7920  141.8020 C   0  0  0  0  0  0  0  0  0  0  0  0
  184.3080  178.8120  143.0440 C   0  0  0  0  0  0  0  0  0  0  0  0
  186.4270  178.7210  141.8580 C   0  0  0  0  0  3  0  0  0  0  0  0
  182.2130  178.8160  141.7750 C   0  0  0  0  0  0  0  0  0  0  0  0
  183.6390  178.8090  139.2690 C   0  0  0  0  0  2  0  0  0  0  0  0
  185.7570  178.7090  140.6340 C   0  0  0  0  0  0  0  0  0  0  0  0
  181.5290  178.7310  140.5040 N   0  0  0  0  0  0  0  0  0  0  0  0
  180.1350  179.1320  140.2770 C   0  0  2  0  0  3  0  0  0  0  0  0
  179.9240  178.1460  138.0600 O   0  0  0  0  0  1  0  0  0  0  0  0
  179.3540  178.2050  139.3330 C   0  0  1  0  0  3  0  0  0  0  0  0
  179.6240  174.8060  138.4210 O   0  0  0  0  0  0  0  0  0  0  0  0
  178.9320  176.6480  141.2880 N   0  0  0  0  0  1  0  0  0  0  0  0
  179.1920  176.8310  139.8990 C   0  0  0  0  0  0  0  0  0  0  0  0
  179.4140  175.7910  139.1430 C   0  0  0  0  0  0  0  0  0  0  0  0
  179.6600  181.3820  140.9010 O   0  0  0  0  0  0  0  0  0  0  0  0
  179.9930  180.5930  139.9750 C   0  0  0  0  0  0  0  0  0  0  0  0
  181.4870  181.7130  138.3670 C   0  0  0  0  0  1  0  0  0  0  0  0
  180.2590  181.0790  138.6920 O   0  0  0  0  0  0  0  0  0  0  0  0
  184.2920  178.9060  145.5020 N   0  0  0  0  0  2  0  0  0  0  0  0
  185.6920  178.7030  145.7480 C   0  0  0  0  0  3  0  0  0  0  0  0
  186.1710  177.6990  146.4820 C   0  0  0  0  0  3  0  0  0  0  0  0
  188.1230  177.3480  148.0510 C   0  0  0  0  0  2  0  0  0  0  0  0
  189.8550  177.7320  145.8390 C   0  0  0  0  0  2  0  0  0  0  0  0
  187.5750  177.5230  146.7020 N   0  0  0  0  0  0  0  0  0  0  0  0
  190.2990  177.1640  147.0480 O   0  0  0  0  0  0  0  0  0  0  0  0
  189.5800  177.8070  148.0740 C   0  0  0  0  0  2  0  0  0  0  0  0
  188.4290  177.2720  145.5360 C   0  0  0  0  0  2  0  0  0  0  0  0
  1  7  1  0  0  0  0
  2 14  1  0  0  0  0
  3 26  1  0  0  0  0
  5 13  2  0  0  0  0
  5  8  1  0  0  0  0
  6 13  1  0  0  0  0
  7  3  2  0  0  0  0
  8  9  2  0  0  0  0
  9  4  1  0  0  0  0
  9  3  1  0  0  0  0
 10  4  2  0  0  0  0
 11  8  1  0  0  0  0
 11  1  2  0  0  0  0
 12  2  1  0  0  0  0
 12  5  1  0  0  0  0
 13 10  1  0  0  0  0
 14 11  1  0  0  0  0
 15 23  1  6  0  0  0
 15 14  1  0  0  0  0
 17 16  1  6  0  0  0
 17 20  1  0  0  0  0
 17 15  1  0  0  0  0
 18 21  2  0  0  0  0
 20 19  1  0  0  0  0
 21 20  2  0  0  0  0
 23 22  2  0  0  0  0
 24 25  1  0  0  0  0
 25 23  1  0  0  0  0
 26 27  1  0  0  0  0
 27 28  2  0  0  0  0
 28 31  1  0  0  0  0
 29 33  1  0  0  0  0
 30 32  1  0  0  0  0
 31 29  1  0  0  0  0
 32 33  1  0  0  0  0
 34 30  1  0  0  0  0
 34 31  1  0  0  0  0
M  END
>  <MODEL>
8

>  <REMARK>
 VINA RESULT:      -6.8      2.856      9.180
  Name = 
  8 active torsions:
  status: ('A' for Active; 'I' for Inactive)
    1  A    between atoms: C_7  and  N_28
    2  A    between atoms: C_11  and  C_25
    3  A    between atoms: C_11  and  CA_29
    4  A    between atoms: N_13  and  C_32
    5  A    between atoms: C_20  and  O_21
    6  A    between atoms: C_20  and  C_25
    7  A    between atoms: C_24  and  N_28
    8  A    between atoms: C_25  and  N_33
                            x       y       z     vdW  Elec       q    Type
                         _______ _______ _______ _____ _____    ______ ____

>  <TORSDO>
F 8

$$$$
=
 OpenBabel11062416543D

 34 37  0  0  1  0  0  0  0  0999 V2000
  188.3280  178.0560  142.2410 C   0  0  0  0  0  3  0  0  0  0  0  0
  188.2570  176.9720  145.8400 C   0  0  0  0  0  2  0  0  0  0  0  0
  186.1110  178.8080  141.5830 C   0  0  0  0  0  0  0  0  0  0  0  0
  184.3860  179.0700  143.2900 C   0  0  0  0  0  3  0  0  0  0  0  0
  186.1970  178.2670  145.2810 C   0  0  0  0  0  0  0  0  0  0  0  0
  184.4510  178.5690  146.9380 O   0  0  0  0  0  1  0  0  0  0  0  0
  187.4310  178.4690  141.2570 C   0  0  0  0  0  3  0  0  0  0  0  0
  186.6140  178.3310  143.9320 C   0  0  0  0  0  0  0  0  0  0  0  0
  185.6980  178.7390  142.9280 C   0  0  0  0  0  0  0  0  0  0  0  0
  183.9790  179.0050  144.6240 C   0  0  0  0  0  3  0  0  0  0  0  0
  187.9340  177.9810  143.5830 C   0  0  0  0  0  0  0  0  0  0  0  0
  187.1840  177.9210  146.3660 C   0  0  0  0  0  2  0  0  0  0  0  0
  184.8770  178.6110  145.6170 C   0  0  0  0  0  0  0  0  0  0  0  0
  188.8340  177.5060  144.6100 N   0  0  0  0  0  0  0  0  0  0  0  0
  190.2970  177.4840  144.4920 C   0  0  2  0  0  3  0  0  0  0  0  0
  190.1720  177.3270  146.9200 O   0  0  0  0  0  1  0  0  0  0  0  0
  191.0380  177.2970  145.8250 C   0  0  1  0  0  3  0  0  0  0  0  0
  192.8960  175.2580  148.0260 O   0  0  0  0  0  0  0  0  0  0  0  0
  191.9550  175.2300  144.6790 N   0  0  0  0  0  1  0  0  0  0  0  0
  191.8610  176.0490  145.8420 C   0  0  0  0  0  0  0  0  0  0  0  0
  192.3920  175.6410  146.9620 C   0  0  0  0  0  0  0  0  0  0  0  0
  190.6880  179.7870  144.0210 O   0  0  0  0  0  0  0  0  0  0  0  0
  190.8270  178.5940  143.6350 C   0  0  0  0  0  0  0  0  0  0  0  0
  191.3910  177.0450  141.8040 C   0  0  0  0  0  1  0  0  0  0  0  0
  191.4950  178.3100  142.4420 O   0  0  0  0  0  0  0  0  0  0  0  0
  185.1770  179.2410  140.5760 N   0  0  0  0  0  2  0  0  0  0  0  0
  184.3570  178.4430  139.7090 C   0  0  0  0  0  3  0  0  0  0  0  0
  183.4380  177.5860  140.1530 C   0  0  0  0  0  3  0  0  0  0  0  0
  181.1750  176.7420  139.4040 C   0  0  0  0  0  2  0  0  0  0  0  0
  182.5130  175.0330  137.5810 C   0  0  0  0  0  2  0  0  0  0  0  0
  182.6320  176.8090  139.2580 N   0  0  0  0  0  0  0  0  0  0  0  0
  181.1360  175.3070  137.4780 O   0  0  0  0  0  0  0  0  0  0  0  0
  180.6590  175.4380  138.7960 C   0  0  0  0  0  2  0  0  0  0  0  0
  183.2620  176.2820  138.0440 C   0  0  0  0  0  2  0  0  0  0  0  0
  1 11  1  0  0  0  0
  2 12  1  0  0  0  0
  3  9  2  0  0  0  0
  4 10  2  0  0  0  0
  5 13  2  0  0  0  0
  5 12  1  0  0  0  0
  7  3  1  0  0  0  0
  7  1  2  0  0  0  0
  8  5  1  0  0  0  0
  9  4  1  0  0  0  0
  9  8  1  0  0  0  0
 10 13  1  0  0  0  0
 11  8  2  0  0  0  0
 11 14  1  0  0  0  0
 13  6  1  0  0  0  0
 14  2  1  0  0  0  0
 15 23  1  1  0  0  0
 15 14  1  0  0  0  0
 15 17  1  0  0  0  0
 17 20  1  0  0  0  0
 17 16  1  1  0  0  0
 19 20  1  0  0  0  0
 20 21  2  0  0  0  0
 21 18  2  0  0  0  0
 23 22  2  0  0  0  0
 24 25  1  0  0  0  0
 25 23  1  0  0  0  0
 26  3  1  0  0  0  0
 27 28  2  0  0  0  0
 27 26  1  0  0  0  0
 30 34  1  0  0  0  0
 31 29  1  0  0  0  0
 31 28  1  0  0  0  0
 32 30  1  0  0  0  0
 32 33  1  0  0  0  0
 33 29  1  0  0  0  0
 34 31  1  0  0  0  0
M  END
>  <MODEL>
9

>  <REMARK>
 VINA RESULT:      -6.7      1.635      2.952
  Name = 
  8 active torsions:
  status: ('A' for Active; 'I' for Inactive)
    1  A    between atoms: C_7  and  N_28
    2  A    between atoms: C_11  and  C_25
    3  A    between atoms: C_11  and  CA_29
    4  A    between atoms: N_13  and  C_32
    5  A    between atoms: C_20  and  O_21
    6  A    between atoms: C_20  and  C_25
    7  A    between atoms: C_24  and  N_28
    8  A    between atoms: C_25  and  N_33
                            x       y       z     vdW  Elec       q    Type
                         _______ _______ _______ _____ _____    ______ ____

>  <TORSDO>
F 8

$$$$
