=
 OpenBabel11062417133D

 36 40  0  0  1  0  0  0  0  0999 V2000
  190.0890  176.7410  141.6350 C   0  0  1  0  0  3  0  0  0  0  0  0
  188.9200  177.7900  139.5890 C   0  0  0  0  0  0  0  0  0  0  0  0
  188.6570  176.5020  142.1440 C   0  0  0  0  0  2  0  0  0  0  0  0
  191.0500  176.0920  138.6810 C   0  0  1  0  0  3  0  0  0  0  0  0
  189.6590  175.9340  138.1030 C   0  0  2  0  0  3  0  0  0  0  0  0
  191.2810  175.5600  136.4280 N   0  0  0  0  0  0  0  0  0  0  0  0
  192.6240  177.0970  140.1300 O   0  0  0  0  0  0  0  0  0  0  0  0
  186.6540  178.4650  139.3770 O   0  0  0  0  0  1  0  0  0  0  0  0
  193.3330  176.0520  137.9340 C   0  0  2  0  0  3  0  0  0  0  0  0
  187.8490  178.8850  141.5230 C   0  0  0  0  0  2  0  0  0  0  0  0
  191.8990  176.3190  137.4920 C   0  0  2  0  0  3  0  0  0  0  0  0
  190.2040  177.6910  140.4220 C   0  0  2  0  0  3  0  0  0  0  0  0
  187.9160  177.7740  142.5820 C   0  0  0  0  0  2  0  0  0  0  0  0
  190.0170  175.4640  136.7210 C   0  0  0  0  0  0  0  0  0  0  0  0
  191.3700  177.3100  139.5070 C   0  0  2  0  0  3  0  0  0  0  0  0
  193.6400  177.0450  139.1170 C   0  0  0  0  0  2  0  0  0  0  0  0
  188.8940  177.2600  138.1640 C   0  0  0  0  0  2  0  0  0  0  0  0
  187.8270  178.3620  140.1150 C   0  0  0  0  0  0  0  0  0  0  0  0
  189.0840  174.8850  135.8610 O   0  0  0  0  0  0  0  0  0  0  0  0
  188.7400  175.4790  134.6180 C   0  0  0  0  0  1  0  0  0  0  0  0
  190.9040  177.1970  142.6750 O   0  0  0  0  0  0  0  0  0  0  0  0
  191.3840  176.0380  143.2920 C   0  0  0  0  0  2  0  0  0  0  0  0
  191.6890  176.3170  144.7550 C   0  0  0  0  0  2  0  0  0  0  0  0
  190.9130  177.5230  145.2580 C   0  0  0  0  0  2  0  0  0  0  0  0
  189.9620  177.1170  146.3720 C   0  0  0  0  0  2  0  0  0  0  0  0
  188.5200  177.1970  145.8960 C   0  0  0  0  0  2  0  0  0  0  0  0
  187.4990  178.3430  149.1970 O   0  0  0  0  0  0  0  0  0  0  0  0
  188.1540  177.8180  148.2580 C   0  0  0  0  0  3  0  0  0  0  0  0
  186.0760  178.4400  145.3120 O   0  0  0  0  0  0  0  0  0  0  0  0
  187.6770  177.8240  146.9070 N   0  0  0  0  0  0  0  0  0  0  0  0
  186.4180  178.4100  146.5250 C   0  0  0  0  0  0  0  0  0  0  0  0
  185.5630  178.9510  147.4770 O   0  0  0  0  0  1  0  0  0  0  0  0
  194.2720  176.1330  136.8800 O   0  0  0  0  0  0  0  0  0  0  0  0
  195.6110  174.3290  137.6700 C   0  0  0  0  0  2  0  0  0  0  0  0
  196.2340  174.8690  136.4020 C   0  0  0  0  0  2  0  0  0  0  0  0
  194.7260  174.8420  136.5540 C   0  0  0  0  0  3  0  0  0  0  0  0
  1  3  1  0  0  0  0
  1 21  1  1  0  0  0
  2 18  2  0  0  0  0
  2 12  1  0  0  0  0
  3 13  1  0  0  0  0
  4 15  1  0  0  0  0
  5 17  1  0  0  0  0
  5  4  1  0  0  0  0
  6 14  2  0  0  0  0
  6 11  1  0  0  0  0
  8 18  1  0  0  0  0
  9 16  1  0  0  0  0
 10 13  1  0  0  0  0
 11  9  1  0  0  0  0
 11  4  1  0  0  0  0
 12  1  1  0  0  0  0
 14  5  1  0  0  0  0
 15  7  1  0  0  0  0
 15 12  1  0  0  0  0
 16  7  1  0  0  0  0
 17  2  1  0  0  0  0
 18 10  1  0  0  0  0
 19 14  1  0  0  0  0
 20 19  1  0  0  0  0
 21 22  1  0  0  0  0
 22 23  1  0  0  0  0
 23 24  1  0  0  0  0
 24 25  1  0  0  0  0
 26 25  1  0  0  0  0
 26 30  1  0  0  0  0
 28 27  2  0  0  0  0
 29 31  2  0  0  0  0
 30 28  1  0  0  0  0
 31 30  1  0  0  0  0
 31 32  1  0  0  0  0
 33  9  1  0  0  0  0
 35 36  1  0  0  0  0
 35 34  1  0  0  0  0
 36 33  1  0  0  0  0
 36 34  1  0  0  0  0
M  END
>  <MODEL>
1

>  <REMARK>
 VINA RESULT:      -7.2      0.000      0.000
  Name = 
  10 active torsions:
  status: ('A' for Active; 'I' for Inactive)
    1  A    between atoms: C_1  and  O_2
    2  A    between atoms: O_2  and  C_30
    3  A    between atoms: O_4  and  C_31
    4  A    between atoms: C_9  and  C_10
    5  A    between atoms: C_9  and  C_25
    6  A    between atoms: C_10  and  C_29
    7  A    between atoms: N_15  and  C_29
    8  A    between atoms: C_19  and  O_35
    9  A    between atoms: C_23  and  O_35
   10  A    between atoms: C_25  and  C_30
                            x       y       z     vdW  Elec       q    Type
                         _______ _______ _______ _____ _____    ______ ____

>  <TORSDO>
F 10

$$$$
=
 OpenBabel11062417133D

 36 40  0  0  1  0  0  0  0  0999 V2000
  190.1110  175.9900  138.6480 C   0  0  1  0  0  3  0  0  0  0  0  0
  191.8190  177.2190  140.1390 C   0  0  0  0  0  0  0  0  0  0  0  0
  191.2960  175.0710  138.3050 C   0  0  0  0  0  2  0  0  0  0  0  0
  189.3660  176.8940  141.5980 C   0  0  1  0  0  3  0  0  0  0  0  0
  190.6780  176.4650  142.2210 C   0  0  2  0  0  3  0  0  0  0  0  0
  189.2530  177.3670  143.8720 N   0  0  0  0  0  0  0  0  0  0  0  0
  188.0660  177.7850  139.8360 O   0  0  0  0  0  0  0  0  0  0  0  0
  194.1860  177.0430  140.1160 O   0  0  0  0  0  1  0  0  0  0  0  0
  187.3240  177.9760  142.2510 C   0  0  2  0  0  3  0  0  0  0  0  0
  192.9480  177.0370  137.9530 C   0  0  0  0  0  2  0  0  0  0  0  0
  188.8050  177.8430  142.5820 C   0  0  2  0  0  3  0  0  0  0  0  0
  190.4850  177.2950  139.3860 C   0  0  2  0  0  3  0  0  0  0  0  0
  192.3690  175.7190  137.4170 C   0  0  0  0  0  2  0  0  0  0  0  0
  190.3590  176.7120  143.6670 C   0  0  0  0  0  0  0  0  0  0  0  0
  189.3850  177.7390  140.3520 C   0  0  2  0  0  3  0  0  0  0  0  0
  187.2310  178.4920  140.7660 C   0  0  0  0  0  2  0  0  0  0  0  0
  191.8400  177.2910  141.6570 C   0  0  0  0  0  2  0  0  0  0  0  0
  192.9650  177.1100  139.4530 C   0  0  0  0  0  0  0  0  0  0  0  0
  191.1350  176.1990  144.7060 O   0  0  0  0  0  0  0  0  0  0  0  0
  191.3600  176.9270  145.9050 C   0  0  0  0  0  1  0  0  0  0  0  0
  189.3790  176.2880  137.4950 O   0  0  0  0  0  0  0  0  0  0  0  0
  188.9080  175.0540  137.0370 C   0  0  0  0  0  2  0  0  0  0  0  0
  187.4150  175.1370  136.7620 C   0  0  0  0  0  2  0  0  0  0  0  0
  186.9540  176.5810  136.6610 C   0  0  0  0  0  2  0  0  0  0  0  0
  185.5290  176.7210  137.1730 C   0  0  0  0  0  2  0  0  0  0  0  0
  185.3360  178.0700  137.8460 C   0  0  0  0  0  2  0  0  0  0  0  0
  182.2730  176.7960  139.3450 O   0  0  0  0  0  0  0  0  0  0  0  0
  183.3600  176.8690  138.7130 C   0  0  0  0  0  3  0  0  0  0  0  0
  184.3300  180.3770  139.0830 O   0  0  0  0  0  0  0  0  0  0  0  0
  184.0840  178.1000  138.5930 N   0  0  0  0  0  0  0  0  0  0  0  0
  183.6230  179.3370  139.1680 C   0  0  0  0  0  0  0  0  0  0  0  0
  182.3990  179.4090  139.8230 O   0  0  0  0  0  1  0  0  0  0  0  0
  186.6110  178.7840  143.1680 O   0  0  0  0  0  0  0  0  0  0  0  0
  184.2460  178.5450  143.0310 C   0  0  0  0  0  2  0  0  0  0  0  0
  184.6010  179.0080  144.4260 C   0  0  0  0  0  2  0  0  0  0  0  0
  185.5220  178.0590  143.6850 C   0  0  0  0  0  3  0  0  0  0  0  0
  1 21  1  6  0  0  0
  1 12  1  0  0  0  0
  2 17  1  0  0  0  0
  3  1  1  0  0  0  0
  4  5  1  0  0  0  0
  4 11  1  0  0  0  0
  5 14  1  0  0  0  0
  7 15  1  0  0  0  0
  7 16  1  0  0  0  0
  9 11  1  0  0  0  0
  9 33  1  0  0  0  0
 10 18  1  0  0  0  0
 11  6  1  0  0  0  0
 12  2  1  0  0  0  0
 12 15  1  0  0  0  0
 13 10  1  0  0  0  0
 13  3  1  0  0  0  0
 14  6  2  0  0  0  0
 14 19  1  0  0  0  0
 15  4  1  0  0  0  0
 16  9  1  0  0  0  0
 17  5  1  0  0  0  0
 18  8  1  0  0  0  0
 18  2  2  0  0  0  0
 19 20  1  0  0  0  0
 22 21  1  0  0  0  0
 23 22  1  0  0  0  0
 24 23  1  0  0  0  0
 24 25  1  0  0  0  0
 25 26  1  0  0  0  0
 26 30  1  0  0  0  0
 28 27  2  0  0  0  0
 29 31  2  0  0  0  0
 30 28  1  0  0  0  0
 30 31  1  0  0  0  0
 31 32  1  0  0  0  0
 33 36  1  0  0  0  0
 34 36  1  0  0  0  0
 34 35  1  0  0  0  0
 36 35  1  0  0  0  0
M  END
>  <MODEL>
2

>  <REMARK>
 VINA RESULT:      -6.9      2.750      8.083
  Name = 
  10 active torsions:
  status: ('A' for Active; 'I' for Inactive)
    1  A    between atoms: C_1  and  O_2
    2  A    between atoms: O_2  and  C_30
    3  A    between atoms: O_4  and  C_31
    4  A    between atoms: C_9  and  C_10
    5  A    between atoms: C_9  and  C_25
    6  A    between atoms: C_10  and  C_29
    7  A    between atoms: N_15  and  C_29
    8  A    between atoms: C_19  and  O_35
    9  A    between atoms: C_23  and  O_35
   10  A    between atoms: C_25  and  C_30
                            x       y       z     vdW  Elec       q    Type
                         _______ _______ _______ _____ _____    ______ ____

>  <TORSDO>
F 10

$$$$
=
 OpenBabel11062417133D

 36 40  0  0  1  0  0  0  0  0999 V2000
  184.9140  178.3170  139.8800 C   0  0  1  0  0  3  0  0  0  0  0  0
  184.0730  177.8240  137.4920 C   0  0  0  0  0  0  0  0  0  0  0  0
  183.4880  177.9240  140.3030 C   0  0  0  0  0  2  0  0  0  0  0  0
  186.6740  176.6550  137.8280 C   0  0  1  0  0  3  0  0  0  0  0  0
  185.5320  175.8140  137.2970 C   0  0  2  0  0  3  0  0  0  0  0  0
  187.5490  175.2010  136.2380 N   0  0  0  0  0  0  0  0  0  0  0  0
  187.5970  178.6660  138.6590 O   0  0  0  0  0  0  0  0  0  0  0  0
  181.8340  177.5720  136.7440 O   0  0  0  0  0  1  0  0  0  0  0  0
  189.0230  176.9680  137.4320 C   0  0  2  0  0  3  0  0  0  0  0  0
  182.3580  179.3240  138.4370 C   0  0  0  0  0  2  0  0  0  0  0  0
  187.7150  176.5280  136.7860 C   0  0  2  0  0  3  0  0  0  0  0  0
  185.1090  178.5430  138.3640 C   0  0  2  0  0  3  0  0  0  0  0  0
  182.4060  178.9480  139.9250 C   0  0  0  0  0  2  0  0  0  0  0  0
  186.3040  174.8720  136.4190 C   0  0  0  0  0  0  0  0  0  0  0  0
  186.5150  178.1500  137.9050 C   0  0  2  0  0  3  0  0  0  0  0  0
  188.8140  178.4480  137.9280 C   0  0  0  0  0  2  0  0  0  0  0  0
  184.5060  176.6930  136.5730 C   0  0  0  0  0  2  0  0  0  0  0  0
  182.7890  178.2080  137.5290 C   0  0  0  0  0  0  0  0  0  0  0  0
  185.7530  173.6930  135.9160 O   0  0  0  0  0  0  0  0  0  0  0  0
  185.6390  172.5210  136.7090 C   0  0  0  0  0  1  0  0  0  0  0  0
  185.3360  179.4460  140.5870 O   0  0  0  0  0  0  0  0  0  0  0  0
  185.3690  179.0420  141.9250 C   0  0  0  0  0  2  0  0  0  0  0  0
  186.6880  178.3470  142.2260 C   0  0  0  0  0  2  0  0  0  0  0  0
  186.6350  177.6230  143.5610 C   0  0  0  0  0  2  0  0  0  0  0  0
  187.9550  176.9200  143.8370 C   0  0  0  0  0  2  0  0  0  0  0  0
  189.0450  177.9370  144.1360 C   0  0  0  0  0  2  0  0  0  0  0  0
  189.6430  177.3050  147.6720 O   0  0  0  0  0  0  0  0  0  0  0  0
  189.0880  177.6180  146.5850 C   0  0  0  0  0  3  0  0  0  0  0  0
  191.7110  177.0680  144.0950 O   0  0  0  0  0  0  0  0  0  0  0  0
  189.7860  177.5610  145.3340 N   0  0  0  0  0  0  0  0  0  0  0  0
  191.1650  177.1580  145.2270 C   0  0  0  0  0  0  0  0  0  0  0  0
  191.9140  176.8640  146.3590 O   0  0  0  0  0  1  0  0  0  0  0  0
  190.1480  176.8150  136.5890 O   0  0  0  0  0  0  0  0  0  0  0  0
  191.8090  176.3890  138.2420 C   0  0  0  0  0  2  0  0  0  0  0  0
  192.4340  176.2130  136.8770 C   0  0  0  0  0  2  0  0  0  0  0  0
  190.9900  175.8140  137.1050 C   0  0  0  0  0  3  0  0  0  0  0  0
  1  3  1  0  0  0  0
  1 21  1  1  0  0  0
  2 18  2  0  0  0  0
  2 12  1  0  0  0  0
  4 15  1  0  0  0  0
  5  4  1  0  0  0  0
  6 14  2  0  0  0  0
  6 11  1  0  0  0  0
  8 18  1  0  0  0  0
  9 16  1  0  0  0  0
 10 13  1  0  0  0  0
 11  9  1  0  0  0  0
 11  4  1  0  0  0  0
 12  1  1  0  0  0  0
 13  3  1  0  0  0  0
 14  5  1  0  0  0  0
 15 12  1  0  0  0  0
 15  7  1  0  0  0  0
 16  7  1  0  0  0  0
 17  5  1  0  0  0  0
 17  2  1  0  0  0  0
 18 10  1  0  0  0  0
 19 14  1  0  0  0  0
 19 20  1  0  0  0  0
 21 22  1  0  0  0  0
 22 23  1  0  0  0  0
 23 24  1  0  0  0  0
 24 25  1  0  0  0  0
 25 26  1  0  0  0  0
 26 30  1  0  0  0  0
 28 27  2  0  0  0  0
 29 31  2  0  0  0  0
 30 28  1  0  0  0  0
 31 30  1  0  0  0  0
 31 32  1  0  0  0  0
 33 36  1  0  0  0  0
 33  9  1  0  0  0  0
 35 36  1  0  0  0  0
 35 34  1  0  0  0  0
 36 34  1  0  0  0  0
M  END
>  <MODEL>
3

>  <REMARK>
 VINA RESULT:      -6.8      3.175      4.894
  Name = 
  10 active torsions:
  status: ('A' for Active; 'I' for Inactive)
    1  A    between atoms: C_1  and  O_2
    2  A    between atoms: O_2  and  C_30
    3  A    between atoms: O_4  and  C_31
    4  A    between atoms: C_9  and  C_10
    5  A    between atoms: C_9  and  C_25
    6  A    between atoms: C_10  and  C_29
    7  A    between atoms: N_15  and  C_29
    8  A    between atoms: C_19  and  O_35
    9  A    between atoms: C_23  and  O_35
   10  A    between atoms: C_25  and  C_30
                            x       y       z     vdW  Elec       q    Type
                         _______ _______ _______ _____ _____    ______ ____

>  <TORSDO>
F 10

$$$$
=
 OpenBabel11062417133D

 36 40  0  0  1  0  0  0  0  0999 V2000
  190.6600  176.7920  139.8240 C   0  0  1  0  0  3  0  0  0  0  0  0
  189.8470  176.9460  137.3820 C   0  0  0  0  0  0  0  0  0  0  0  0
  189.1930  177.0890  140.1760 C   0  0  0  0  0  2  0  0  0  0  0  0
  191.5660  174.6610  137.6540 C   0  0  1  0  0  3  0  0  0  0  0  0
  190.2010  174.5070  137.0170 C   0  0  2  0  0  3  0  0  0  0  0  0
  191.7590  173.0970  135.9430 N   0  0  0  0  0  0  0  0  0  0  0  0
  193.2680  175.9230  138.7020 O   0  0  0  0  0  0  0  0  0  0  0  0
  187.8060  177.8430  136.5650 O   0  0  0  0  0  1  0  0  0  0  0  0
  193.8070  173.8560  137.3410 C   0  0  2  0  0  3  0  0  0  0  0  0
  188.9780  178.9990  138.4370 C   0  0  0  0  0  2  0  0  0  0  0  0
  192.4920  174.1400  136.6260 C   0  0  2  0  0  3  0  0  0  0  0  0
  191.0390  177.0170  138.3440 C   0  0  2  0  0  3  0  0  0  0  0  0
  188.7450  178.5280  139.8810 C   0  0  0  0  0  2  0  0  0  0  0  0
  190.4970  173.3850  136.0640 C   0  0  0  0  0  0  0  0  0  0  0  0
  192.1220  176.0430  137.8770 C   0  0  2  0  0  3  0  0  0  0  0  0
  194.2850  175.2140  137.9790 C   0  0  0  0  0  2  0  0  0  0  0  0
  189.7580  175.8210  136.3630 C   0  0  0  0  0  2  0  0  0  0  0  0
  188.8940  177.8880  137.4300 C   0  0  0  0  0  0  0  0  0  0  0  0
  189.4920  172.6510  135.4330 O   0  0  0  0  0  0  0  0  0  0  0  0
  188.2700  172.3380  136.0850 C   0  0  0  0  0  1  0  0  0  0  0  0
  191.5150  177.5260  140.6510 O   0  0  0  0  0  0  0  0  0  0  0  0
  191.2440  177.0720  141.9450 C   0  0  0  0  0  2  0  0  0  0  0  0
  191.6620  178.1220  142.9620 C   0  0  0  0  0  2  0  0  0  0  0  0
  190.8080  178.0430  144.2170 C   0  0  0  0  0  2  0  0  0  0  0  0
  189.3400  177.8960  143.8520 C   0  0  0  0  0  2  0  0  0  0  0  0
  188.6780  176.8440  144.7280 C   0  0  0  0  0  2  0  0  0  0  0  0
  186.1000  178.6790  146.5280 O   0  0  0  0  0  0  0  0  0  0  0  0
  186.7560  178.1210  145.6090 C   0  0  0  0  0  3  0  0  0  0  0  0
  189.6770  176.7660  147.3460 O   0  0  0  0  0  0  0  0  0  0  0  0
  188.0050  177.4660  145.8630 N   0  0  0  0  0  0  0  0  0  0  0  0
  188.6060  177.4070  147.1700 C   0  0  0  0  0  0  0  0  0  0  0  0
  188.0240  178.0520  148.2540 O   0  0  0  0  0  1  0  0  0  0  0  0
  194.7820  173.2550  136.5110 O   0  0  0  0  0  0  0  0  0  0  0  0
  196.4860  171.9920  137.5940 C   0  0  0  0  0  2  0  0  0  0  0  0
  196.2610  171.4120  136.2160 C   0  0  0  0  0  2  0  0  0  0  0  0
  195.0930  171.9740  137.0000 C   0  0  0  0  0  3  0  0  0  0  0  0
  1  3  1  0  0  0  0
  1 21  1  1  0  0  0
  2 18  2  0  0  0  0
  2 12  1  0  0  0  0
  4 15  1  0  0  0  0
  5  4  1  0  0  0  0
  6 14  2  0  0  0  0
  6 11  1  0  0  0  0
  8 18  1  0  0  0  0
  9 16  1  0  0  0  0
 10 13  1  0  0  0  0
 11  9  1  0  0  0  0
 11  4  1  0  0  0  0
 12  1  1  0  0  0  0
 13  3  1  0  0  0  0
 14  5  1  0  0  0  0
 15 12  1  0  0  0  0
 15  7  1  0  0  0  0
 16  7  1  0  0  0  0
 17  5  1  0  0  0  0
 17  2  1  0  0  0  0
 18 10  1  0  0  0  0
 19 14  1  0  0  0  0
 19 20  1  0  0  0  0
 21 22  1  0  0  0  0
 22 23  1  0  0  0  0
 23 24  1  0  0  0  0
 25 24  1  0  0  0  0
 25 26  1  0  0  0  0
 26 30  1  0  0  0  0
 28 30  1  0  0  0  0
 28 27  2  0  0  0  0
 30 31  1  0  0  0  0
 31 29  2  0  0  0  0
 31 32  1  0  0  0  0
 33 36  1  0  0  0  0
 33  9  1  0  0  0  0
 35 36  1  0  0  0  0
 35 34  1  0  0  0  0
 36 34  1  0  0  0  0
M  END
>  <MODEL>
4

>  <REMARK>
 VINA RESULT:      -6.7      1.892      2.568
  Name = 
  10 active torsions:
  status: ('A' for Active; 'I' for Inactive)
    1  A    between atoms: C_1  and  O_2
    2  A    between atoms: O_2  and  C_30
    3  A    between atoms: O_4  and  C_31
    4  A    between atoms: C_9  and  C_10
    5  A    between atoms: C_9  and  C_25
    6  A    between atoms: C_10  and  C_29
    7  A    between atoms: N_15  and  C_29
    8  A    between atoms: C_19  and  O_35
    9  A    between atoms: C_23  and  O_35
   10  A    between atoms: C_25  and  C_30
                            x       y       z     vdW  Elec       q    Type
                         _______ _______ _______ _____ _____    ______ ____

>  <TORSDO>
F 10

$$$$
=
 OpenBabel11062417133D

 36 40  0  0  1  0  0  0  0  0999 V2000
  184.3120  178.3260  140.0940 C   0  0  1  0  0  3  0  0  0  0  0  0
  183.3780  178.2150  137.6930 C   0  0  0  0  0  0  0  0  0  0  0  0
  182.8680  177.9990  140.5120 C   0  0  0  0  0  2  0  0  0  0  0  0
  185.8770  176.8030  137.7900 C   0  0  1  0  0  3  0  0  0  0  0  0
  184.6550  176.1350  137.1960 C   0  0  2  0  0  3  0  0  0  0  0  0
  186.5880  175.5000  136.0000 N   0  0  0  0  0  0  0  0  0  0  0  0
  186.9870  178.6090  138.8370 O   0  0  0  0  0  0  0  0  0  0  0  0
  181.1090  178.2450  136.9950 O   0  0  0  0  0  1  0  0  0  0  0  0
  188.2340  176.9730  137.3580 C   0  0  2  0  0  3  0  0  0  0  0  0
  181.8190  179.7150  138.8770 C   0  0  0  0  0  2  0  0  0  0  0  0
  186.8790  176.7280  136.7060 C   0  0  2  0  0  3  0  0  0  0  0  0
  184.4910  178.7290  138.6130 C   0  0  2  0  0  3  0  0  0  0  0  0
  181.8690  179.1470  140.3040 C   0  0  0  0  0  2  0  0  0  0  0  0
  185.3230  175.2540  136.1790 C   0  0  0  0  0  0  0  0  0  0  0  0
  185.8470  178.2850  138.0610 C   0  0  2  0  0  3  0  0  0  0  0  0
  188.1630  178.3880  138.0440 C   0  0  0  0  0  2  0  0  0  0  0  0
  183.6920  177.1800  136.6230 C   0  0  0  0  0  2  0  0  0  0  0  0
  182.1330  178.6950  137.8210 C   0  0  0  0  0  0  0  0  0  0  0  0
  184.6630  174.1990  135.5500 O   0  0  0  0  0  0  0  0  0  0  0  0
  183.5770  173.5210  136.1640 C   0  0  0  0  0  1  0  0  0  0  0  0
  184.8450  179.3150  140.9240 O   0  0  0  0  0  0  0  0  0  0  0  0
  185.3040  178.6310  142.0540 C   0  0  0  0  0  2  0  0  0  0  0  0
  184.9670  179.4180  143.3100 C   0  0  0  0  0  2  0  0  0  0  0  0
  184.9560  178.5180  144.5360 C   0  0  0  0  0  2  0  0  0  0  0  0
  186.2750  177.7730  144.6610 C   0  0  0  0  0  2  0  0  0  0  0  0
  186.7710  177.8100  146.0970 C   0  0  0  0  0  2  0  0  0  0  0  0
  190.0740  176.8700  144.8860 O   0  0  0  0  0  0  0  0  0  0  0  0
  188.8540  177.1840  144.9270 C   0  0  0  0  0  3  0  0  0  0  0  0
  188.2130  177.6600  148.4970 O   0  0  0  0  0  1  0  0  0  0  0  0
  188.1820  177.4460  146.1650 N   0  0  0  0  0  0  0  0  0  0  0  0
  188.8380  177.3600  147.4450 C   0  0  0  0  0  0  0  0  0  0  0  0
  190.1610  176.9460  147.5430 O   0  0  0  0  0  0  0  0  0  0  0  0
  189.3220  176.8390  136.4650 O   0  0  0  0  0  0  0  0  0  0  0  0
  191.2780  176.3850  137.7470 C   0  0  0  0  0  2  0  0  0  0  0  0
  191.5450  175.9980  136.3100 C   0  0  0  0  0  2  0  0  0  0  0  0
  190.1650  175.8010  136.9030 C   0  0  0  0  0  3  0  0  0  0  0  0
  1  3  1  0  0  0  0
  1 21  1  1  0  0  0
  2 18  2  0  0  0  0
  2 12  1  0  0  0  0
  4 15  1  0  0  0  0
  5  4  1  0  0  0  0
  6 14  2  0  0  0  0
  6 11  1  0  0  0  0
  8 18  1  0  0  0  0
  9 16  1  0  0  0  0
 10 13  1  0  0  0  0
 11  9  1  0  0  0  0
 11  4  1  0  0  0  0
 12  1  1  0  0  0  0
 13  3  1  0  0  0  0
 14  5  1  0  0  0  0
 15 12  1  0  0  0  0
 15  7  1  0  0  0  0
 16  7  1  0  0  0  0
 17  5  1  0  0  0  0
 17  2  1  0  0  0  0
 18 10  1  0  0  0  0
 19 20  1  0  0  0  0
 19 14  1  0  0  0  0
 21 22  1  0  0  0  0
 22 23  1  0  0  0  0
 23 24  1  0  0  0  0
 24 25  1  0  0  0  0
 25 26  1  0  0  0  0
 26 30  1  0  0  0  0
 27 28  2  0  0  0  0
 28 30  1  0  0  0  0
 30 31  1  0  0  0  0
 31 32  2  0  0  0  0
 31 29  1  0  0  0  0
 33 36  1  0  0  0  0
 33  9  1  0  0  0  0
 35 36  1  0  0  0  0
 35 34  1  0  0  0  0
 36 34  1  0  0  0  0
M  END
>  <MODEL>
5

>  <REMARK>
 VINA RESULT:      -6.6      3.564      5.355
  Name = 
  10 active torsions:
  status: ('A' for Active; 'I' for Inactive)
    1  A    between atoms: C_1  and  O_2
    2  A    between atoms: O_2  and  C_30
    3  A    between atoms: O_4  and  C_31
    4  A    between atoms: C_9  and  C_10
    5  A    between atoms: C_9  and  C_25
    6  A    between atoms: C_10  and  C_29
    7  A    between atoms: N_15  and  C_29
    8  A    between atoms: C_19  and  O_35
    9  A    between atoms: C_23  and  O_35
   10  A    between atoms: C_25  and  C_30
                            x       y       z     vdW  Elec       q    Type
                         _______ _______ _______ _____ _____    ______ ____

>  <TORSDO>
F 10

$$$$
=
 OpenBabel11062417133D

 36 40  0  0  1  0  0  0  0  0999 V2000
  191.2480  175.9460  136.7280 C   0  0  1  0  0  3  0  0  0  0  0  0
  188.7790  175.2100  136.8540 C   0  0  0  0  0  0  0  0  0  0  0  0
  191.0390  175.8670  135.2060 C   0  0  0  0  0  2  0  0  0  0  0  0
  189.2150  177.3460  138.7240 C   0  0  1  0  0  3  0  0  0  0  0  0
  188.0690  177.4280  137.7360 C   0  0  2  0  0  3  0  0  0  0  0  0
  187.4300  178.3780  139.8000 N   0  0  0  0  0  0  0  0  0  0  0  0
  191.1000  176.2830  139.6740 O   0  0  0  0  0  0  0  0  0  0  0  0
  187.4310  174.2850  135.1330 O   0  0  0  0  0  1  0  0  0  0  0  0
  189.6560  177.8650  141.0270 C   0  0  2  0  0  3  0  0  0  0  0  0
  189.8160  173.5840  135.3150 C   0  0  0  0  0  2  0  0  0  0  0  0
  188.5560  177.5020  140.0380 C   0  0  2  0  0  3  0  0  0  0  0  0
  190.1270  175.3060  137.5780 C   0  0  2  0  0  3  0  0  0  0  0  0
  190.9080  174.4390  134.6550 C   0  0  0  0  0  2  0  0  0  0  0  0
  187.0960  178.2300  138.5520 C   0  0  0  0  0  0  0  0  0  0  0  0
  189.9340  176.0350  138.9090 C   0  0  2  0  0  3  0  0  0  0  0  0
  190.7080  176.6940  140.9930 C   0  0  0  0  0  2  0  0  0  0  0  0
  187.5930  176.0250  137.3430 C   0  0  0  0  0  2  0  0  0  0  0  0
  188.6460  174.3900  135.8020 C   0  0  0  0  0  0  0  0  0  0  0  0
  185.9750  178.8440  137.9930 O   0  0  0  0  0  0  0  0  0  0  0  0
  184.6560  178.5020  138.3910 C   0  0  0  0  0  1  0  0  0  0  0  0
  192.4840  175.3960  137.0780 O   0  0  0  0  0  0  0  0  0  0  0  0
  193.4000  176.4410  136.9270 C   0  0  0  0  0  2  0  0  0  0  0  0
  194.4790  176.0460  135.9310 C   0  0  0  0  0  2  0  0  0  0  0  0
  194.6040  174.5340  135.8270 C   0  0  0  0  0  2  0  0  0  0  0  0
  196.0670  174.1220  135.8060 C   0  0  0  0  0  2  0  0  0  0  0  0
  196.4130  173.3290  137.0560 C   0  0  0  0  0  2  0  0  0  0  0  0
  196.0050  175.1890  140.1590 O   0  0  0  0  0  0  0  0  0  0  0  0
  195.7850  174.4400  139.1700 C   0  0  0  0  0  3  0  0  0  0  0  0
  198.9160  174.5710  137.2840 O   0  0  0  0  0  0  0  0  0  0  0  0
  196.7700  174.2220  138.1520 N   0  0  0  0  0  0  0  0  0  0  0  0
  198.0680  174.8450  138.1740 C   0  0  0  0  0  0  0  0  0  0  0  0
  198.4070  175.7560  139.1670 O   0  0  0  0  0  1  0  0  0  0  0  0
  189.1760  178.1470  142.3270 O   0  0  0  0  0  0  0  0  0  0  0  0
  187.9220  176.4920  143.4940 C   0  0  0  0  0  2  0  0  0  0  0  0
  188.7180  177.2910  144.5020 C   0  0  0  0  0  2  0  0  0  0  0  0
  189.3020  177.0020  143.1340 C   0  0  0  0  0  3  0  0  0  0  0  0
  1 21  1  6  0  0  0
  1 12  1  0  0  0  0
  2 17  1  0  0  0  0
  2 12  1  0  0  0  0
  3  1  1  0  0  0  0
  4 15  1  0  0  0  0
  4 11  1  0  0  0  0
  5 14  1  0  0  0  0
  5  4  1  0  0  0  0
  6 11  1  0  0  0  0
  7 16  1  0  0  0  0
  8 18  1  0  0  0  0
  9 33  1  0  0  0  0
 10 18  1  0  0  0  0
 11  9  1  0  0  0  0
 12 15  1  0  0  0  0
 13  3  1  0  0  0  0
 13 10  1  0  0  0  0
 14  6  2  0  0  0  0
 15  7  1  0  0  0  0
 16  9  1  0  0  0  0
 17  5  1  0  0  0  0
 18  2  2  0  0  0  0
 19 20  1  0  0  0  0
 19 14  1  0  0  0  0
 22 21  1  0  0  0  0
 23 22  1  0  0  0  0
 24 23  1  0  0  0  0
 25 24  1  0  0  0  0
 25 26  1  0  0  0  0
 26 30  1  0  0  0  0
 28 27  2  0  0  0  0
 29 31  2  0  0  0  0
 30 31  1  0  0  0  0
 30 28  1  0  0  0  0
 31 32  1  0  0  0  0
 33 36  1  0  0  0  0
 34 35  1  0  0  0  0
 36 34  1  0  0  0  0
 36 35  1  0  0  0  0
M  END
>  <MODEL>
6

>  <REMARK>
 VINA RESULT:      -6.6      2.862      8.637
  Name = 
  10 active torsions:
  status: ('A' for Active; 'I' for Inactive)
    1  A    between atoms: C_1  and  O_2
    2  A    between atoms: O_2  and  C_30
    3  A    between atoms: O_4  and  C_31
    4  A    between atoms: C_9  and  C_10
    5  A    between atoms: C_9  and  C_25
    6  A    between atoms: C_10  and  C_29
    7  A    between atoms: N_15  and  C_29
    8  A    between atoms: C_19  and  O_35
    9  A    between atoms: C_23  and  O_35
   10  A    between atoms: C_25  and  C_30
                            x       y       z     vdW  Elec       q    Type
                         _______ _______ _______ _____ _____    ______ ____

>  <TORSDO>
F 10

$$$$
=
 OpenBabel11062417133D

 36 40  0  0  1  0  0  0  0  0999 V2000
  186.7080  177.3290  143.6820 C   0  0  1  0  0  3  0  0  0  0  0  0
  185.3090  179.0360  145.0150 C   0  0  0  0  0  0  0  0  0  0  0  0
  186.9220  176.6590  145.0500 C   0  0  0  0  0  2  0  0  0  0  0  0
  183.8900  178.3300  142.6200 C   0  0  1  0  0  3  0  0  0  0  0  0
  183.1910  178.2570  143.9620 C   0  0  2  0  0  3  0  0  0  0  0  0
  181.6810  178.9840  142.2990 N   0  0  0  0  0  0  0  0  0  0  0  0
  185.7690  178.7450  141.2480 O   0  0  0  0  0  0  0  0  0  0  0  0
  185.2500  179.3740  147.3640 O   0  0  0  0  0  1  0  0  0  0  0  0
  183.4080  179.0030  140.3660 C   0  0  2  0  0  3  0  0  0  0  0  0
  187.4320  178.8920  146.2620 C   0  0  0  0  0  2  0  0  0  0  0  0
  183.0250  179.2260  141.8230 C   0  0  2  0  0  3  0  0  0  0  0  0
  186.1010  178.7480  143.7340 C   0  0  2  0  0  3  0  0  0  0  0  0
  187.8440  177.4350  146.0030 C   0  0  0  0  0  2  0  0  0  0  0  0
  181.7870  178.5670  143.5270 C   0  0  0  0  0  0  0  0  0  0  0  0
  185.2160  179.0360  142.5190 C   0  0  2  0  0  3  0  0  0  0  0  0
  184.9410  179.3410  140.2380 C   0  0  0  0  0  2  0  0  0  0  0  0
  183.8060  179.2570  144.9470 C   0  0  0  0  0  2  0  0  0  0  0  0
  185.9480  179.1110  146.1910 C   0  0  0  0  0  0  0  0  0  0  0  0
  180.6800  178.3370  144.3430 O   0  0  0  0  0  0  0  0  0  0  0  0
  179.4260  178.9570  144.1000 C   0  0  0  0  0  1  0  0  0  0  0  0
  187.9050  177.3490  142.9600 O   0  0  0  0  0  0  0  0  0  0  0  0
  188.3430  176.0220  142.9480 C   0  0  0  0  0  2  0  0  0  0  0  0
  189.8620  175.9760  142.9820 C   0  0  0  0  0  2  0  0  0  0  0  0
  190.4560  177.3730  142.9140 C   0  0  0  0  0  2  0  0  0  0  0  0
  191.0640  177.6260  141.5430 C   0  0  0  0  0  2  0  0  0  0  0  0
  190.5530  176.6050  140.5390 C   0  0  0  0  0  2  0  0  0  0  0  0
  188.0760  178.6180  138.7890 O   0  0  0  0  0  0  0  0  0  0  0  0
  188.7040  178.0070  139.6930 C   0  0  0  0  0  3  0  0  0  0  0  0
  191.5490  176.5430  137.9190 O   0  0  0  0  0  1  0  0  0  0  0  0
  189.9000  177.2670  139.4160 N   0  0  0  0  0  0  0  0  0  0  0  0
  190.4630  177.1560  138.0950 C   0  0  0  0  0  0  0  0  0  0  0  0
  189.8230  177.7170  136.9960 O   0  0  0  0  0  0  0  0  0  0  0  0
  182.6000  179.7220  139.4540 O   0  0  0  0  0  0  0  0  0  0  0  0
  181.5500  179.3850  137.3430 C   0  0  0  0  0  2  0  0  0  0  0  0
  180.4750  179.4910  138.4020 C   0  0  0  0  0  2  0  0  0  0  0  0
  181.7970  178.8240  138.7280 C   0  0  0  0  0  3  0  0  0  0  0  0
  1 21  1  1  0  0  0
  1 12  1  0  0  0  0
  1  3  1  0  0  0  0
  2 18  2  0  0  0  0
  3 13  1  0  0  0  0
  4  5  1  0  0  0  0
  5 17  1  0  0  0  0
  6 14  2  0  0  0  0
  7 15  1  0  0  0  0
  9 11  1  0  0  0  0
 11  6  1  0  0  0  0
 11  4  1  0  0  0  0
 12  2  1  0  0  0  0
 13 10  1  0  0  0  0
 14  5  1  0  0  0  0
 14 19  1  0  0  0  0
 15  4  1  0  0  0  0
 15 12  1  0  0  0  0
 16  9  1  0  0  0  0
 16  7  1  0  0  0  0
 17  2  1  0  0  0  0
 18 10  1  0  0  0  0
 18  8  1  0  0  0  0
 20 19  1  0  0  0  0
 22 21  1  0  0  0  0
 22 23  1  0  0  0  0
 24 23  1  0  0  0  0
 25 24  1  0  0  0  0
 26 25  1  0  0  0  0
 27 28  2  0  0  0  0
 29 31  1  0  0  0  0
 30 28  1  0  0  0  0
 30 26  1  0  0  0  0
 31 30  1  0  0  0  0
 32 31  2  0  0  0  0
 33  9  1  0  0  0  0
 34 35  1  0  0  0  0
 34 36  1  0  0  0  0
 35 36  1  0  0  0  0
 36 33  1  0  0  0  0
M  END
>  <MODEL>
7

>  <REMARK>
 VINA RESULT:      -6.6      3.788      9.066
  Name = 
  10 active torsions:
  status: ('A' for Active; 'I' for Inactive)
    1  A    between atoms: C_1  and  O_2
    2  A    between atoms: O_2  and  C_30
    3  A    between atoms: O_4  and  C_31
    4  A    between atoms: C_9  and  C_10
    5  A    between atoms: C_9  and  C_25
    6  A    between atoms: C_10  and  C_29
    7  A    between atoms: N_15  and  C_29
    8  A    between atoms: C_19  and  O_35
    9  A    between atoms: C_23  and  O_35
   10  A    between atoms: C_25  and  C_30
                            x       y       z     vdW  Elec       q    Type
                         _______ _______ _______ _____ _____    ______ ____

>  <TORSDO>
F 10

$$$$
=
 OpenBabel11062417133D

 36 40  0  0  1  0  0  0  0  0999 V2000
  186.2790  179.3990  142.4910 C   0  0  1  0  0  3  0  0  0  0  0  0
  186.9820  177.5630  144.1610 C   0  0  0  0  0  0  0  0  0  0  0  0
  185.6710  180.0820  143.7270 C   0  0  0  0  0  2  0  0  0  0  0  0
  189.1900  178.1380  142.4170 C   0  0  1  0  0  3  0  0  0  0  0  0
  189.3930  178.1410  143.9180 C   0  0  2  0  0  3  0  0  0  0  0  0
  191.3090  177.2780  142.8430 N   0  0  0  0  0  0  0  0  0  0  0  0
  187.8650  177.9050  140.4740 O   0  0  0  0  0  0  0  0  0  0  0  0
  186.2050  177.2160  146.3770 O   0  0  0  0  0  1  0  0  0  0  0  0
  190.3520  177.4270  140.4380 C   0  0  2  0  0  3  0  0  0  0  0  0
  184.5820  177.9040  144.6160 C   0  0  0  0  0  2  0  0  0  0  0  0
  190.1930  177.1660  141.9310 C   0  0  2  0  0  3  0  0  0  0  0  0
  186.7040  177.9280  142.6980 C   0  0  2  0  0  3  0  0  0  0  0  0
  184.4140  179.3950  144.2830 C   0  0  0  0  0  2  0  0  0  0  0  0
  190.8280  177.7000  143.9750 C   0  0  0  0  0  0  0  0  0  0  0  0
  187.9220  177.5610  141.8470 C   0  0  2  0  0  3  0  0  0  0  0  0
  188.9320  177.2360  139.7850 C   0  0  0  0  0  2  0  0  0  0  0  0
  188.3920  177.2020  144.6000 C   0  0  0  0  0  2  0  0  0  0  0  0
  185.9760  177.5460  145.0460 C   0  0  0  0  0  0  0  0  0  0  0  0
  191.6050  177.8230  145.1270 O   0  0  0  0  0  0  0  0  0  0  0  0
  191.6800  176.7880  146.0960 C   0  0  0  0  0  1  0  0  0  0  0  0
  185.4040  179.4930  141.4050 O   0  0  0  0  0  0  0  0  0  0  0  0
  184.7590  178.2540  141.3520 C   0  0  0  0  0  2  0  0  0  0  0  0
  183.3020  178.4430  140.9620 C   0  0  0  0  0  2  0  0  0  0  0  0
  182.8790  177.4320  139.9080 C   0  0  0  0  0  2  0  0  0  0  0  0
  183.4220  177.8270  138.5440 C   0  0  0  0  0  2  0  0  0  0  0  0
  184.2220  176.6840  137.9400 C   0  0  0  0  0  2  0  0  0  0  0  0
  186.9870  179.0020  137.4480 O   0  0  0  0  0  0  0  0  0  0  0  0
  185.8660  178.5190  137.7610 C   0  0  0  0  0  3  0  0  0  0  0  0
  186.1510  175.0020  136.7960 O   0  0  0  0  0  1  0  0  0  0  0  0
  185.5450  177.1410  137.5310 N   0  0  0  0  0  0  0  0  0  0  0  0
  186.4640  176.2160  136.9190 C   0  0  0  0  0  0  0  0  0  0  0  0
  187.7030  176.6400  136.4550 O   0  0  0  0  0  0  0  0  0  0  0  0
  191.3570  176.6380  139.8310 O   0  0  0  0  0  0  0  0  0  0  0  0
  191.4990  175.2710  137.8860 C   0  0  0  0  0  2  0  0  0  0  0  0
  192.5180  176.3820  137.7680 C   0  0  0  0  0  2  0  0  0  0  0  0
  191.1840  176.6460  138.4360 C   0  0  0  0  0  3  0  0  0  0  0  0
  1 21  1  6  0  0  0
  1 12  1  0  0  0  0
  1  3  1  0  0  0  0
  2 17  1  0  0  0  0
  2 18  2  0  0  0  0
  3 13  1  0  0  0  0
  4  5  1  0  0  0  0
  5 14  1  0  0  0  0
  5 17  1  0  0  0  0
  6 14  2  0  0  0  0
  7 15  1  0  0  0  0
  9 11  1  0  0  0  0
 10 18  1  0  0  0  0
 11  4  1  0  0  0  0
 11  6  1  0  0  0  0
 12  2  1  0  0  0  0
 13 10  1  0  0  0  0
 14 19  1  0  0  0  0
 15  4  1  0  0  0  0
 15 12  1  0  0  0  0
 16  9  1  0  0  0  0
 16  7  1  0  0  0  0
 18  8  1  0  0  0  0
 19 20  1  0  0  0  0
 22 21  1  0  0  0  0
 23 22  1  0  0  0  0
 24 23  1  0  0  0  0
 25 24  1  0  0  0  0
 26 25  1  0  0  0  0
 27 28  2  0  0  0  0
 29 31  1  0  0  0  0
 30 28  1  0  0  0  0
 30 26  1  0  0  0  0
 31 30  1  0  0  0  0
 32 31  2  0  0  0  0
 33  9  1  0  0  0  0
 34 36  1  0  0  0  0
 35 34  1  0  0  0  0
 35 36  1  0  0  0  0
 36 33  1  0  0  0  0
M  END
>  <MODEL>
8

>  <REMARK>
 VINA RESULT:      -6.5      2.782      7.359
  Name = 
  10 active torsions:
  status: ('A' for Active; 'I' for Inactive)
    1  A    between atoms: C_1  and  O_2
    2  A    between atoms: O_2  and  C_30
    3  A    between atoms: O_4  and  C_31
    4  A    between atoms: C_9  and  C_10
    5  A    between atoms: C_9  and  C_25
    6  A    between atoms: C_10  and  C_29
    7  A    between atoms: N_15  and  C_29
    8  A    between atoms: C_19  and  O_35
    9  A    between atoms: C_23  and  O_35
   10  A    between atoms: C_25  and  C_30
                            x       y       z     vdW  Elec       q    Type
                         _______ _______ _______ _____ _____    ______ ____

>  <TORSDO>
F 10

$$$$
=
 OpenBabel11062417133D

 36 40  0  0  1  0  0  0  0  0999 V2000
  183.6990  177.8980  138.7780 C   0  0  1  0  0  3  0  0  0  0  0  0
  181.5140  176.9920  139.8060 C   0  0  0  0  0  0  0  0  0  0  0  0
  182.8840  177.9620  137.4750 C   0  0  0  0  0  2  0  0  0  0  0  0
  182.6440  178.9480  141.5810 C   0  0  1  0  0  3  0  0  0  0  0  0
  181.1920  179.0570  141.1630 C   0  0  2  0  0  3  0  0  0  0  0  0
  181.4430  179.7450  143.4060 N   0  0  0  0  0  0  0  0  0  0  0  0
  184.7710  177.9180  141.5460 O   0  0  0  0  0  0  0  0  0  0  0  0
  179.5930  176.1640  138.6840 O   0  0  0  0  0  1  0  0  0  0  0  0
  183.9850  179.2540  143.5490 C   0  0  2  0  0  3  0  0  0  0  0  0
  181.8530  175.6060  137.7950 C   0  0  0  0  0  2  0  0  0  0  0  0
  182.5810  178.9240  143.0580 C   0  0  2  0  0  3  0  0  0  0  0  0
  183.0390  177.1020  139.9260 C   0  0  2  0  0  3  0  0  0  0  0  0
  182.5620  176.5940  136.8560 C   0  0  0  0  0  2  0  0  0  0  0  0
  180.6270  179.7050  142.3940 C   0  0  0  0  0  0  0  0  0  0  0  0
  183.3980  177.6750  141.2980 C   0  0  2  0  0  3  0  0  0  0  0  0
  184.9500  178.1640  142.9490 C   0  0  0  0  0  2  0  0  0  0  0  0
  180.6200  177.6740  140.8300 C   0  0  0  0  0  2  0  0  0  0  0  0
  180.9730  176.2790  138.8090 C   0  0  0  0  0  0  0  0  0  0  0  0
  179.3650  180.2990  142.4180 O   0  0  0  0  0  0  0  0  0  0  0  0
  178.9310  181.1800  141.3930 C   0  0  0  0  0  1  0  0  0  0  0  0
  184.9790  177.3960  138.5250 O   0  0  0  0  0  0  0  0  0  0  0  0
  185.6530  178.4360  137.8790 C   0  0  0  0  0  2  0  0  0  0  0  0
  186.4710  177.8850  136.7220 C   0  0  0  0  0  2  0  0  0  0  0  0
  187.9610  178.0010  136.9980 C   0  0  0  0  0  2  0  0  0  0  0  0
  188.3170  177.2980  138.2980 C   0  0  0  0  0  2  0  0  0  0  0  0
  189.4420  178.0350  139.0090 C   0  0  0  0  0  2  0  0  0  0  0  0
  190.6020  176.4290  142.0630 O   0  0  0  0  0  0  0  0  0  0  0  0
  190.4930  176.7800  140.8580 C   0  0  0  0  0  3  0  0  0  0  0  0
  187.6560  179.0890  140.8950 O   0  0  0  0  0  0  0  0  0  0  0  0
  189.4720  177.6870  140.4250 N   0  0  0  0  0  0  0  0  0  0  0  0
  188.4940  178.2500  141.3200 C   0  0  0  0  0  0  0  0  0  0  0  0
  188.4550  177.8810  142.6590 O   0  0  0  0  0  1  0  0  0  0  0  0
  184.0770  179.3680  144.9560 O   0  0  0  0  0  0  0  0  0  0  0  0
  184.8830  178.1610  146.8450 C   0  0  0  0  0  2  0  0  0  0  0  0
  185.8200  179.3170  146.5790 C   0  0  0  0  0  2  0  0  0  0  0  0
  185.1580  178.5980  145.4210 C   0  0  0  0  0  3  0  0  0  0  0  0
  1 21  1  6  0  0  0
  1 12  1  0  0  0  0
  2 12  1  0  0  0  0
  2 17  1  0  0  0  0
  3  1  1  0  0  0  0
  4 11  1  0  0  0  0
  5  4  1  0  0  0  0
  5 14  1  0  0  0  0
  7 16  1  0  0  0  0
  8 18  1  0  0  0  0
  9 33  1  0  0  0  0
 10 18  1  0  0  0  0
 11  6  1  0  0  0  0
 11  9  1  0  0  0  0
 12 15  1  0  0  0  0
 13  3  1  0  0  0  0
 13 10  1  0  0  0  0
 14 19  1  0  0  0  0
 14  6  2  0  0  0  0
 15  7  1  0  0  0  0
 15  4  1  0  0  0  0
 16  9  1  0  0  0  0
 17  5  1  0  0  0  0
 18  2  2  0  0  0  0
 20 19  1  0  0  0  0
 22 21  1  0  0  0  0
 23 24  1  0  0  0  0
 23 22  1  0  0  0  0
 24 25  1  0  0  0  0
 25 26  1  0  0  0  0
 26 30  1  0  0  0  0
 28 27  2  0  0  0  0
 29 31  2  0  0  0  0
 30 28  1  0  0  0  0
 30 31  1  0  0  0  0
 31 32  1  0  0  0  0
 33 36  1  0  0  0  0
 35 34  1  0  0  0  0
 36 35  1  0  0  0  0
 36 34  1  0  0  0  0
M  END
>  <MODEL>
9

>  <REMARK>
 VINA RESULT:      -6.5      4.845      9.568
  Name = 
  10 active torsions:
  status: ('A' for Active; 'I' for Inactive)
    1  A    between atoms: C_1  and  O_2
    2  A    between atoms: O_2  and  C_30
    3  A    between atoms: O_4  and  C_31
    4  A    between atoms: C_9  and  C_10
    5  A    between atoms: C_9  and  C_25
    6  A    between atoms: C_10  and  C_29
    7  A    between atoms: N_15  and  C_29
    8  A    between atoms: C_19  and  O_35
    9  A    between atoms: C_23  and  O_35
   10  A    between atoms: C_25  and  C_30
                            x       y       z     vdW  Elec       q    Type
                         _______ _______ _______ _____ _____    ______ ____

>  <TORSDO>
F 10

$$$$
