=
 OpenBabel11062417003D

 26 30  0  0  1  0  0  0  0  0999 V2000
  190.2960  177.3850  140.4170 C   0  0  0  0  0  0  0  0  0  0  0  0
  186.8080  178.3780  137.1790 C   0  0  0  0  0  3  0  0  0  0  0  0
  189.4530  177.7700  137.7440 C   0  0  0  0  0  0  0  0  0  0  0  0
  188.8570  177.0710  140.0830 C   0  0  0  0  0  2  0  0  0  0  0  0
  188.4770  177.6100  138.7380 C   0  0  0  0  0  0  0  0  0  0  0  0
  190.8840  177.4170  138.0420 C   0  0  1  0  0  3  0  0  0  0  0  0
  187.7720  178.5290  136.2290 N   0  0  0  0  0  0  0  0  0  0  0  0
  190.7160  177.4900  141.7800 N   0  0  0  0  0  2  0  0  0  0  0  0
  191.1800  177.5450  139.4730 N   0  0  0  0  0  0  0  0  0  0  0  0
  189.0760  178.2350  136.4830 C   0  0  0  0  0  3  0  0  0  0  0  0
  187.1440  177.9100  138.4520 C   0  0  0  0  0  3  0  0  0  0  0  0
  190.9760  176.3110  146.8860 O   0  0  0  0  0  0  0  0  0  0  0  0
  189.9240  177.9570  145.4000 C   0  0  1  0  0  3  0  0  0  0  0  0
  190.8790  176.7870  145.6200 C   0  0  2  0  0  0  0  0  0  0  0  0
  191.2000  175.8030  144.5080 C   0  0  0  0  0  2  0  0  0  0  0  0
  189.9890  178.3920  143.9330 C   0  0  0  0  0  2  0  0  0  0  0  0
  189.8320  177.2450  142.9110 C   0  0  2  0  0  3  0  0  0  0  0  0
  192.0150  177.1180  146.4340 N   0  0  0  0  0  2  0  0  0  0  0  0
  190.0740  175.8330  143.4810 C   0  0  0  0  0  2  0  0  0  0  0  0
  188.5020  177.5780  145.7770 C   0  0  0  0  0  1  0  0  0  0  0  0
  191.1140  173.6910  136.8340 S   0  0  0  0  0  0  0  0  0  0  0  0
  193.6410  176.5340  137.3010 N   0  0  0  0  0  1  0  0  0  0  0  0
  191.2200  176.0370  137.5530 C   0  0  0  0  0  0  0  0  0  0  0  0
  190.2710  175.0300  137.4000 C   0  0  0  0  0  3  0  0  0  0  0  0
  192.5250  175.6540  137.2040 C   0  0  0  0  0  0  0  0  0  0  0  0
  192.6600  174.3430  136.7710 C   0  0  0  0  0  3  0  0  0  0  0  0
  1  8  1  0  0  0  0
  2 11  1  0  0  0  0
  3  6  1  0  0  0  0
  3  5  1  0  0  0  0
  4  1  1  0  0  0  0
  5  4  1  0  0  0  0
  6 23  1  1  0  0  0
  6  9  1  0  0  0  0
  7 10  1  0  0  0  0
  7  2  2  0  0  0  0
  9  1  2  0  0  0  0
 10  3  2  0  0  0  0
 11  5  2  0  0  0  0
 13 14  1  0  0  0  0
 13 20  1  6  0  0  0
 14 15  1  6  0  0  0
 14 18  1  0  0  0  0
 14 12  1  0  0  0  0
 16 13  1  0  0  0  0
 17  8  1  6  0  0  0
 17 19  1  0  0  0  0
 17 16  1  0  0  0  0
 18 12  1  0  0  0  0
 19 15  1  0  0  0  0
 21 24  1  0  0  0  0
 24 23  2  0  0  0  0
 25 22  1  0  0  0  0
 25 23  1  0  0  0  0
 26 21  1  0  0  0  0
 26 25  2  0  0  0  0
M  END
>  <MODEL>
1

>  <REMARK>
 VINA RESULT:      -7.4      0.000      0.000
  Name = 
  2 active torsions:
  status: ('A' for Active; 'I' for Inactive)
    1  A    between atoms: C_6  and  C_17
    2  A    between atoms: C_14  and  N_21
                            x       y       z     vdW  Elec       q    Type
                         _______ _______ _______ _____ _____    ______ ____

>  <TORSDO>
F 2

$$$$
=
 OpenBabel11062417003D

 26 30  0  0  1  0  0  0  0  0999 V2000
  184.9880  178.7650  141.4160 C   0  0  0  0  0  0  0  0  0  0  0  0
  180.3850  179.4570  140.0140 C   0  0  0  0  0  3  0  0  0  0  0  0
  183.0870  179.3460  139.4040 C   0  0  0  0  0  0  0  0  0  0  0  0
  183.5940  178.2060  141.5840 C   0  0  0  0  0  2  0  0  0  0  0  0
  182.6300  178.8420  140.6300 C   0  0  0  0  0  0  0  0  0  0  0  0
  184.5480  179.2650  139.0610 C   0  0  1  0  0  3  0  0  0  0  0  0
  180.8480  179.9450  138.8300 N   0  0  0  0  0  0  0  0  0  0  0  0
  185.9070  178.7570  142.5120 N   0  0  0  0  0  2  0  0  0  0  0  0
  185.3800  179.2430  140.2700 N   0  0  0  0  0  0  0  0  0  0  0  0
  182.1690  179.8980  138.5070 C   0  0  0  0  0  3  0  0  0  0  0  0
  181.2690  178.8910  140.9350 C   0  0  0  0  0  3  0  0  0  0  0  0
  188.3500  177.2750  146.9120 O   0  0  0  0  0  0  0  0  0  0  0  0
  186.4530  178.6640  146.2050 C   0  0  1  0  0  3  0  0  0  0  0  0
  187.6710  177.8080  145.8660 C   0  0  2  0  0  0  0  0  0  0  0  0
  187.7740  177.0590  144.5480 C   0  0  0  0  0  2  0  0  0  0  0  0
  185.8530  179.2220  144.9120 C   0  0  0  0  0  2  0  0  0  0  0  0
  185.6020  178.1710  143.8090 C   0  0  2  0  0  3  0  0  0  0  0  0
  188.9150  178.3850  146.2930 N   0  0  0  0  0  2  0  0  0  0  0  0
  186.3720  176.8470  143.9890 C   0  0  0  0  0  2  0  0  0  0  0  0
  185.4150  177.8550  146.9640 C   0  0  0  0  0  1  0  0  0  0  0  0
  184.7260  175.9240  137.0090 S   0  0  0  0  0  0  0  0  0  0  0  0
  187.0330  178.9550  137.4320 N   0  0  0  0  0  1  0  0  0  0  0  0
  184.8410  178.0720  138.1960 C   0  0  0  0  0  0  0  0  0  0  0  0
  183.9760  176.9880  138.0720 C   0  0  0  0  0  3  0  0  0  0  0  0
  186.0150  177.9590  137.4340 C   0  0  0  0  0  0  0  0  0  0  0  0
  186.1270  176.7940  136.6900 C   0  0  0  0  0  3  0  0  0  0  0  0
  1  4  1  0  0  0  0
  1  8  1  0  0  0  0
  2 11  1  0  0  0  0
  3  5  1  0  0  0  0
  5 11  2  0  0  0  0
  5  4  1  0  0  0  0
  6 23  1  1  0  0  0
  6  3  1  0  0  0  0
  6  9  1  0  0  0  0
  7  2  2  0  0  0  0
  9  1  2  0  0  0  0
 10  7  1  0  0  0  0
 10  3  2  0  0  0  0
 13 20  1  6  0  0  0
 14 15  1  6  0  0  0
 14 13  1  0  0  0  0
 14 18  1  0  0  0  0
 14 12  1  0  0  0  0
 16 13  1  0  0  0  0
 17  8  1  6  0  0  0
 17 19  1  0  0  0  0
 17 16  1  0  0  0  0
 18 12  1  0  0  0  0
 19 15  1  0  0  0  0
 21 24  1  0  0  0  0
 22 25  1  0  0  0  0
 24 23  2  0  0  0  0
 25 23  1  0  0  0  0
 26 21  1  0  0  0  0
 26 25  2  0  0  0  0
M  END
>  <MODEL>
2

>  <REMARK>
 VINA RESULT:      -7.3      4.174      5.751
  Name = 
  2 active torsions:
  status: ('A' for Active; 'I' for Inactive)
    1  A    between atoms: C_6  and  C_17
    2  A    between atoms: C_14  and  N_21
                            x       y       z     vdW  Elec       q    Type
                         _______ _______ _______ _____ _____    ______ ____

>  <TORSDO>
F 2

$$$$
=
 OpenBabel11062417003D

 26 30  0  0  1  0  0  0  0  0999 V2000
  187.3060  178.6000  141.9030 C   0  0  0  0  0  0  0  0  0  0  0  0
  184.5540  178.4100  145.9050 C   0  0  0  0  0  3  0  0  0  0  0  0
  184.8790  179.1410  143.2510 C   0  0  0  0  0  0  0  0  0  0  0  0
  186.9120  177.6800  143.0350 C   0  0  0  0  0  2  0  0  0  0  0  0
  185.7920  178.2590  143.8450 C   0  0  0  0  0  0  0  0  0  0  0  0
  185.0400  179.5200  141.8050 C   0  0  1  0  0  3  0  0  0  0  0  0
  183.6790  179.2680  145.3110 N   0  0  0  0  0  0  0  0  0  0  0  0
  188.6340  178.5650  141.3710 N   0  0  0  0  0  2  0  0  0  0  0  0
  186.4420  179.4230  141.3800 N   0  0  0  0  0  0  0  0  0  0  0  0
  183.8170  179.6390  144.0100 C   0  0  0  0  0  3  0  0  0  0  0  0
  185.6250  177.8850  145.1800 C   0  0  0  0  0  3  0  0  0  0  0  0
  191.1470  177.1840  145.7650 O   0  0  0  0  0  0  0  0  0  0  0  0
  189.8700  176.1520  143.9400 C   0  0  1  0  0  3  0  0  0  0  0  0
  190.3940  177.3930  144.6570 C   0  0  2  0  0  0  0  0  0  0  0  0
  190.6440  178.6950  143.9130 C   0  0  0  0  0  2  0  0  0  0  0  0
  189.0010  176.5830  142.7550 C   0  0  0  0  0  2  0  0  0  0  0  0
  189.6520  177.6270  141.8220 C   0  0  2  0  0  3  0  0  0  0  0  0
  189.8300  177.5830  145.9640 N   0  0  0  0  0  2  0  0  0  0  0  0
  190.8440  178.3890  142.4340 C   0  0  0  0  0  2  0  0  0  0  0  0
  191.0160  175.2750  143.4640 C   0  0  0  0  0  1  0  0  0  0  0  0
  182.7060  176.9260  140.0100 S   0  0  0  0  0  0  0  0  0  0  0  0
  184.3040  180.2610  139.0060 N   0  0  0  0  0  1  0  0  0  0  0  0
  184.1600  178.6840  140.9200 C   0  0  0  0  0  0  0  0  0  0  0  0
  183.6010  177.4750  141.3230 C   0  0  0  0  0  3  0  0  0  0  0  0
  183.8240  179.0640  139.6100 C   0  0  0  0  0  0  0  0  0  0  0  0
  183.0000  178.1790  138.9310 C   0  0  0  0  0  3  0  0  0  0  0  0
  1  4  1  0  0  0  0
  3  5  2  0  0  0  0
  3 10  1  0  0  0  0
  4  5  1  0  0  0  0
  5 11  1  0  0  0  0
  6 23  1  6  0  0  0
  6  3  1  0  0  0  0
  7  2  1  0  0  0  0
  8  1  1  0  0  0  0
  9  6  1  0  0  0  0
  9  1  2  0  0  0  0
 10  7  2  0  0  0  0
 11  2  2  0  0  0  0
 12 18  1  0  0  0  0
 13 20  1  6  0  0  0
 13 14  1  0  0  0  0
 14 15  1  6  0  0  0
 14 12  1  0  0  0  0
 14 18  1  0  0  0  0
 16 13  1  0  0  0  0
 17  8  1  1  0  0  0
 17 19  1  0  0  0  0
 17 16  1  0  0  0  0
 19 15  1  0  0  0  0
 21 24  1  0  0  0  0
 22 25  1  0  0  0  0
 23 24  2  0  0  0  0
 25 23  1  0  0  0  0
 26 25  2  0  0  0  0
 26 21  1  0  0  0  0
M  END
>  <MODEL>
3

>  <REMARK>
 VINA RESULT:      -7.2      4.067      6.521
  Name = 
  2 active torsions:
  status: ('A' for Active; 'I' for Inactive)
    1  A    between atoms: C_6  and  C_17
    2  A    between atoms: C_14  and  N_21
                            x       y       z     vdW  Elec       q    Type
                         _______ _______ _______ _____ _____    ______ ____

>  <TORSDO>
F 2

$$$$
=
 OpenBabel11062417003D

 26 30  0  0  1  0  0  0  0  0999 V2000
  185.9930  178.4290  141.8240 C   0  0  0  0  0  0  0  0  0  0  0  0
  181.4530  179.2120  143.3740 C   0  0  0  0  0  3  0  0  0  0  0  0
  183.2840  179.0510  141.2990 C   0  0  0  0  0  0  0  0  0  0  0  0
  184.9520  177.8960  142.7810 C   0  0  0  0  0  2  0  0  0  0  0  0
  183.6230  178.5520  142.5650 C   0  0  0  0  0  0  0  0  0  0  0  0
  184.2670  178.9420  140.1670 C   0  0  1  0  0  3  0  0  0  0  0  0
  181.1430  179.6930  142.1390 N   0  0  0  0  0  0  0  0  0  0  0  0
  187.3790  178.4000  142.1750 N   0  0  0  0  0  2  0  0  0  0  0  0
  185.6480  178.9020  140.6610 N   0  0  0  0  0  0  0  0  0  0  0  0
  182.0250  179.6230  141.1050 C   0  0  0  0  0  3  0  0  0  0  0  0
  182.6990  178.6270  143.6090 C   0  0  0  0  0  3  0  0  0  0  0  0
  191.5800  175.8190  143.9680 O   0  0  0  0  0  0  0  0  0  0  0  0
  190.2230  177.7890  144.5170 C   0  0  1  0  0  3  0  0  0  0  0  0
  190.5680  176.6340  143.5820 C   0  0  2  0  0  0  0  0  0  0  0  0
  189.5270  176.0190  142.6600 C   0  0  0  0  0  2  0  0  0  0  0  0
  189.1030  178.6270  143.8940 C   0  0  0  0  0  2  0  0  0  0  0  0
  187.8820  177.8160  143.4100 C   0  0  2  0  0  3  0  0  0  0  0  0
  191.8660  176.7520  142.9770 N   0  0  0  0  0  2  0  0  0  0  0  0
  188.1390  176.3080  143.2200 C   0  0  0  0  0  2  0  0  0  0  0  0
  189.8000  177.2750  145.8830 C   0  0  0  0  0  1  0  0  0  0  0  0
  183.0580  175.6680  138.3740 S   0  0  0  0  0  0  0  0  0  0  0  0
  185.6830  178.3520  137.6040 N   0  0  0  0  0  1  0  0  0  0  0  0
  183.9770  177.7460  139.3050 C   0  0  0  0  0  0  0  0  0  0  0  0
  183.0160  176.7910  139.6230 C   0  0  0  0  0  3  0  0  0  0  0  0
  184.6550  177.5000  138.1000 C   0  0  0  0  0  0  0  0  0  0  0  0
  184.2640  176.3520  137.4260 C   0  0  0  0  0  3  0  0  0  0  0  0
  1  8  1  0  0  0  0
  1  4  1  0  0  0  0
  2 11  1  0  0  0  0
  3  5  1  0  0  0  0
  5  4  1  0  0  0  0
  5 11  2  0  0  0  0
  6 23  1  1  0  0  0
  6  9  1  0  0  0  0
  6  3  1  0  0  0  0
  7  2  2  0  0  0  0
  9  1  2  0  0  0  0
 10  3  2  0  0  0  0
 10  7  1  0  0  0  0
 13 20  1  1  0  0  0
 14 15  1  6  0  0  0
 14 12  1  0  0  0  0
 14 13  1  0  0  0  0
 15 19  1  0  0  0  0
 16 13  1  0  0  0  0
 17  8  1  6  0  0  0
 17 16  1  0  0  0  0
 18 14  1  0  0  0  0
 18 12  1  0  0  0  0
 19 17  1  0  0  0  0
 21 24  1  0  0  0  0
 22 25  1  0  0  0  0
 23 24  2  0  0  0  0
 25 23  1  0  0  0  0
 26 25  2  0  0  0  0
 26 21  1  0  0  0  0
M  END
>  <MODEL>
4

>  <REMARK>
 VINA RESULT:      -6.7      4.390      6.021
  Name = 
  2 active torsions:
  status: ('A' for Active; 'I' for Inactive)
    1  A    between atoms: C_6  and  C_17
    2  A    between atoms: C_14  and  N_21
                            x       y       z     vdW  Elec       q    Type
                         _______ _______ _______ _____ _____    ______ ____

>  <TORSDO>
F 2

$$$$
=
 OpenBabel11062417003D

 26 30  0  0  1  0  0  0  0  0999 V2000
  186.4840  177.6070  143.4040 C   0  0  0  0  0  0  0  0  0  0  0  0
  186.7950  178.6280  148.1470 C   0  0  0  0  0  3  0  0  0  0  0  0
  187.8270  177.4010  145.8850 C   0  0  0  0  0  0  0  0  0  0  0  0
  186.3060  178.7340  144.3940 C   0  0  0  0  0  2  0  0  0  0  0  0
  186.8050  178.3520  145.7540 C   0  0  0  0  0  0  0  0  0  0  0  0
  188.4040  176.7530  144.6570 C   0  0  1  0  0  3  0  0  0  0  0  0
  187.7860  177.6990  148.2530 N   0  0  0  0  0  0  0  0  0  0  0  0
  185.6240  177.5030  142.2650 N   0  0  0  0  0  2  0  0  0  0  0  0
  187.4310  176.7270  143.5590 N   0  0  0  0  0  0  0  0  0  0  0  0
  188.3090  177.0860  147.1570 C   0  0  0  0  0  3  0  0  0  0  0  0
  186.2900  178.9750  146.8920 C   0  0  0  0  0  3  0  0  0  0  0  0
  182.5930  178.9700  138.2420 O   0  0  0  0  0  0  0  0  0  0  0  0
  182.3840  178.3280  140.6020 C   0  0  1  0  0  3  0  0  0  0  0  0
  183.2300  178.5020  139.3440 C   0  0  2  0  0  0  0  0  0  0  0  0
  184.7230  178.7750  139.4210 C   0  0  0  0  0  2  0  0  0  0  0  0
  183.2530  177.7410  141.7180 C   0  0  0  0  0  2  0  0  0  0  0  0
  184.5900  178.4780  141.9500 C   0  0  2  0  0  3  0  0  0  0  0  0
  182.8690  177.6070  138.2800 N   0  0  0  0  0  2  0  0  0  0  0  0
  185.0450  179.3780  140.7840 C   0  0  0  0  0  2  0  0  0  0  0  0
  181.7820  179.6520  141.0400 C   0  0  0  0  0  1  0  0  0  0  0  0
  191.5420  179.0030  143.9570 S   0  0  0  0  0  0  0  0  0  0  0  0
  190.2950  175.6280  142.6360 N   0  0  0  0  0  1  0  0  0  0  0  0
  189.6720  177.4330  144.2260 C   0  0  0  0  0  0  0  0  0  0  0  0
  190.0880  178.6620  144.7290 C   0  0  0  0  0  3  0  0  0  0  0  0
  190.5460  176.8740  143.2790 C   0  0  0  0  0  0  0  0  0  0  0  0
  191.6730  177.6320  142.9950 C   0  0  0  0  0  3  0  0  0  0  0  0
  1  9  2  0  0  0  0
  1  4  1  0  0  0  0
  2  7  1  0  0  0  0
  3 10  1  0  0  0  0
  4  5  1  0  0  0  0
  5  3  2  0  0  0  0
  5 11  1  0  0  0  0
  6 23  1  6  0  0  0
  6  3  1  0  0  0  0
  8  1  1  0  0  0  0
  9  6  1  0  0  0  0
 10  7  2  0  0  0  0
 11  2  2  0  0  0  0
 12 18  1  0  0  0  0
 12 14  1  0  0  0  0
 13 20  1  1  0  0  0
 13 16  1  0  0  0  0
 14 15  1  1  0  0  0
 14 13  1  0  0  0  0
 15 19  1  0  0  0  0
 16 17  1  0  0  0  0
 17  8  1  6  0  0  0
 18 14  1  0  0  0  0
 19 17  1  0  0  0  0
 21 24  1  0  0  0  0
 22 25  1  0  0  0  0
 23 24  2  0  0  0  0
 25 23  1  0  0  0  0
 26 25  2  0  0  0  0
 26 21  1  0  0  0  0
M  END
>  <MODEL>
5

>  <REMARK>
 VINA RESULT:      -6.6      4.975      8.370
  Name = 
  2 active torsions:
  status: ('A' for Active; 'I' for Inactive)
    1  A    between atoms: C_6  and  C_17
    2  A    between atoms: C_14  and  N_21
                            x       y       z     vdW  Elec       q    Type
                         _______ _______ _______ _____ _____    ______ ____

>  <TORSDO>
F 2

$$$$
=
 OpenBabel11062417003D

 26 30  0  0  1  0  0  0  0  0999 V2000
  184.1670  178.0440  140.7470 C   0  0  0  0  0  0  0  0  0  0  0  0
  186.3260  177.6420  136.4100 C   0  0  0  0  0  3  0  0  0  0  0  0
  184.0150  177.7520  137.9380 C   0  0  0  0  0  0  0  0  0  0  0  0
  185.2940  178.6170  139.9200 C   0  0  0  0  0  2  0  0  0  0  0  0
  185.2420  178.1220  138.5070 C   0  0  0  0  0  0  0  0  0  0  0  0
  182.7580  177.8340  138.7580 C   0  0  1  0  0  3  0  0  0  0  0  0
  185.1250  177.2840  135.8770 N   0  0  0  0  0  0  0  0  0  0  0  0
  184.3110  177.9000  142.1630 N   0  0  0  0  0  2  0  0  0  0  0  0
  183.0440  177.6920  140.1900 N   0  0  0  0  0  0  0  0  0  0  0  0
  183.9780  177.3320  136.6070 C   0  0  0  0  0  3  0  0  0  0  0  0
  186.4050  178.0740  137.7360 C   0  0  0  0  0  3  0  0  0  0  0  0
  185.7140  179.2800  147.0260 O   0  0  0  0  0  0  0  0  0  0  0  0
  186.4190  177.7500  145.2420 C   0  0  1  0  0  3  0  0  0  0  0  0
  185.4270  178.7620  145.8070 C   0  0  2  0  0  0  0  0  0  0  0  0
  184.5670  179.6250  144.8980 C   0  0  0  0  0  2  0  0  0  0  0  0
  185.9040  177.2360  143.8940 C   0  0  0  0  0  2  0  0  0  0  0  0
  185.4880  178.3400  142.8980 C   0  0  2  0  0  3  0  0  0  0  0  0
  184.7330  178.2960  146.9750 N   0  0  0  0  0  2  0  0  0  0  0  0
  185.2350  179.7220  143.5320 C   0  0  0  0  0  2  0  0  0  0  0  0
  187.7970  178.3710  145.0800 C   0  0  0  0  0  1  0  0  0  0  0  0
  181.3750  181.4690  138.2380 S   0  0  0  0  0  0  0  0  0  0  0  0
  179.9240  177.9470  137.8180 N   0  0  0  0  0  1  0  0  0  0  0  0
  182.0130  179.1110  138.4900 C   0  0  0  0  0  0  0  0  0  0  0  0
  182.5770  180.3720  138.6590 C   0  0  0  0  0  3  0  0  0  0  0  0
  180.6830  179.1320  138.0410 C   0  0  0  0  0  0  0  0  0  0  0  0
  180.1460  180.3950  137.8410 C   0  0  0  0  0  3  0  0  0  0  0  0
  1  8  1  0  0  0  0
  2 11  1  0  0  0  0
  3  5  1  0  0  0  0
  3  6  1  0  0  0  0
  4  1  1  0  0  0  0
  5  4  1  0  0  0  0
  6 23  1  1  0  0  0
  6  9  1  0  0  0  0
  7  2  2  0  0  0  0
  7 10  1  0  0  0  0
  9  1  2  0  0  0  0
 10  3  2  0  0  0  0
 11  5  2  0  0  0  0
 13 20  1  6  0  0  0
 13 14  1  0  0  0  0
 14 15  1  6  0  0  0
 14 18  1  0  0  0  0
 14 12  1  0  0  0  0
 16 13  1  0  0  0  0
 17  8  1  1  0  0  0
 17 19  1  0  0  0  0
 17 16  1  0  0  0  0
 18 12  1  0  0  0  0
 19 15  1  0  0  0  0
 21 24  1  0  0  0  0
 22 25  1  0  0  0  0
 23 24  2  0  0  0  0
 25 23  1  0  0  0  0
 26 25  2  0  0  0  0
 26 21  1  0  0  0  0
M  END
>  <MODEL>
6

>  <REMARK>
 VINA RESULT:      -6.4      5.249      7.494
  Name = 
  2 active torsions:
  status: ('A' for Active; 'I' for Inactive)
    1  A    between atoms: C_6  and  C_17
    2  A    between atoms: C_14  and  N_21
                            x       y       z     vdW  Elec       q    Type
                         _______ _______ _______ _____ _____    ______ ____

>  <TORSDO>
F 2

$$$$
=
 OpenBabel11062417003D

 26 30  0  0  1  0  0  0  0  0999 V2000
  189.9600  177.5830  142.7260 C   0  0  0  0  0  0  0  0  0  0  0  0
  192.4920  174.5690  145.5780 C   0  0  0  0  0  3  0  0  0  0  0  0
  190.9430  176.8480  145.2740 C   0  0  0  0  0  0  0  0  0  0  0  0
  190.2060  176.1150  142.9870 C   0  0  0  0  0  2  0  0  0  0  0  0
  191.0080  175.9080  144.2360 C   0  0  0  0  0  0  0  0  0  0  0  0
  190.0850  178.0730  145.1200 C   0  0  1  0  0  3  0  0  0  0  0  0
  192.4200  175.4950  146.5740 N   0  0  0  0  0  0  0  0  0  0  0  0
  189.7410  178.0540  141.3930 N   0  0  0  0  0  2  0  0  0  0  0  0
  189.9230  178.4370  143.7080 N   0  0  0  0  0  0  0  0  0  0  0  0
  191.6650  176.6200  146.4480 C   0  0  0  0  0  3  0  0  0  0  0  0
  191.7810  174.7570  144.3900 C   0  0  0  0  0  3  0  0  0  0  0  0
  188.3370  178.1850  136.3400 O   0  0  0  0  0  0  0  0  0  0  0  0
  190.2470  177.5220  137.7310 C   0  0  1  0  0  3  0  0  0  0  0  0
  188.8710  178.1660  137.5860 C   0  0  2  0  0  0  0  0  0  0  0  0
  187.8820  178.1980  138.7400 C   0  0  0  0  0  2  0  0  0  0  0  0
  190.7100  177.6430  139.1860 C   0  0  0  0  0  2  0  0  0  0  0  0
  189.6760  177.1750  140.2340 C   0  0  2  0  0  3  0  0  0  0  0  0
  188.8820  179.3760  136.8100 N   0  0  0  0  0  2  0  0  0  0  0  0
  188.2270  177.0810  139.7170 C   0  0  0  0  0  2  0  0  0  0  0  0
  190.2120  176.0640  137.3070 C   0  0  0  0  0  1  0  0  0  0  0  0
  186.3660  177.4780  146.2220 S   0  0  0  0  0  0  0  0  0  0  0  0
  189.6240  178.3040  148.0630 N   0  0  0  0  0  1  0  0  0  0  0  0
  188.7470  177.8880  145.7770 C   0  0  0  0  0  0  0  0  0  0  0  0
  187.5850  177.5910  145.0700 C   0  0  0  0  0  3  0  0  0  0  0  0
  188.5630  177.9950  147.1650 C   0  0  0  0  0  0  0  0  0  0  0  0
  187.2630  177.7930  147.6060 C   0  0  0  0  0  3  0  0  0  0  0  0
  1  4  1  0  0  0  0
  1  9  2  0  0  0  0
  2  7  1  0  0  0  0
  3 10  1  0  0  0  0
  4  5  1  0  0  0  0
  5 11  1  0  0  0  0
  5  3  2  0  0  0  0
  6  3  1  0  0  0  0
  6 23  1  6  0  0  0
  8  1  1  0  0  0  0
  9  6  1  0  0  0  0
 10  7  2  0  0  0  0
 11  2  2  0  0  0  0
 12 18  1  0  0  0  0
 12 14  1  0  0  0  0
 13 20  1  1  0  0  0
 13 16  1  0  0  0  0
 14 13  1  0  0  0  0
 14 15  1  1  0  0  0
 15 19  1  0  0  0  0
 16 17  1  0  0  0  0
 17  8  1  1  0  0  0
 18 14  1  0  0  0  0
 19 17  1  0  0  0  0
 21 26  1  0  0  0  0
 23 25  1  0  0  0  0
 24 23  2  0  0  0  0
 24 21  1  0  0  0  0
 25 26  2  0  0  0  0
 25 22  1  0  0  0  0
M  END
>  <MODEL>
7

>  <REMARK>
 VINA RESULT:      -6.3      3.497      8.421
  Name = 
  2 active torsions:
  status: ('A' for Active; 'I' for Inactive)
    1  A    between atoms: C_6  and  C_17
    2  A    between atoms: C_14  and  N_21
                            x       y       z     vdW  Elec       q    Type
                         _______ _______ _______ _____ _____    ______ ____

>  <TORSDO>
F 2

$$$$
=
 OpenBabel11062417003D

 26 30  0  0  1  0  0  0  0  0999 V2000
  188.2290  177.3020  141.0600 C   0  0  0  0  0  0  0  0  0  0  0  0
  184.7530  179.0580  143.9690 C   0  0  0  0  0  3  0  0  0  0  0  0
  187.1260  177.6630  143.6390 C   0  0  0  0  0  0  0  0  0  0  0  0
  187.3800  178.5290  141.2940 C   0  0  0  0  0  2  0  0  0  0  0  0
  186.6180  178.4300  142.5810 C   0  0  0  0  0  0  0  0  0  0  0  0
  188.4240  176.9250  143.4700 C   0  0  1  0  0  3  0  0  0  0  0  0
  185.2600  178.3050  144.9840 N   0  0  0  0  0  0  0  0  0  0  0  0
  188.5780  176.9080  139.7300 N   0  0  0  0  0  2  0  0  0  0  0  0
  188.6740  176.5970  142.0610 N   0  0  0  0  0  0  0  0  0  0  0  0
  186.4240  177.6140  144.8460 C   0  0  0  0  0  3  0  0  0  0  0  0
  185.4270  179.1380  142.7480 C   0  0  0  0  0  3  0  0  0  0  0  0
  189.6550  177.1100  134.5990 O   0  0  0  0  0  0  0  0  0  0  0  0
  187.7150  176.9820  136.0970 C   0  0  1  0  0  3  0  0  0  0  0  0
  189.2250  176.9690  135.8770 C   0  0  2  0  0  0  0  0  0  0  0  0
  190.1910  177.4170  136.9620 C   0  0  0  0  0  2  0  0  0  0  0  0
  187.4190  176.7560  137.5820 C   0  0  0  0  0  2  0  0  0  0  0  0
  188.2080  177.6690  138.5450 C   0  0  2  0  0  3  0  0  0  0  0  0
  189.6880  175.8280  135.1370 N   0  0  0  0  0  2  0  0  0  0  0  0
  189.4550  178.3350  137.9300 C   0  0  0  0  0  2  0  0  0  0  0  0
  187.1090  178.2960  135.6320 C   0  0  0  0  0  1  0  0  0  0  0  0
  191.4810  179.2180  144.3620 S   0  0  0  0  0  0  0  0  0  0  0  0
  189.3310  176.7130  146.3090 N   0  0  0  0  0  1  0  0  0  0  0  0
  189.5740  177.7040  144.0440 C   0  0  0  0  0  0  0  0  0  0  0  0
  190.3330  178.6030  143.3000 C   0  0  0  0  0  3  0  0  0  0  0  0
  189.9710  177.5890  145.3860 C   0  0  0  0  0  0  0  0  0  0  0  0
  191.0500  178.3800  145.7520 C   0  0  0  0  0  3  0  0  0  0  0  0
  1  4  1  0  0  0  0
  1  9  2  0  0  0  0
  2  7  1  0  0  0  0
  3 10  1  0  0  0  0
  4  5  1  0  0  0  0
  5 11  1  0  0  0  0
  5  3  2  0  0  0  0
  6  3  1  0  0  0  0
  6 23  1  6  0  0  0
  8  1  1  0  0  0  0
  9  6  1  0  0  0  0
 10  7  2  0  0  0  0
 11  2  2  0  0  0  0
 12 18  1  0  0  0  0
 12 14  1  0  0  0  0
 13 20  1  1  0  0  0
 13 16  1  0  0  0  0
 14 13  1  0  0  0  0
 14 15  1  1  0  0  0
 15 19  1  0  0  0  0
 16 17  1  0  0  0  0
 17  8  1  1  0  0  0
 18 14  1  0  0  0  0
 19 17  1  0  0  0  0
 21 26  1  0  0  0  0
 23 25  1  0  0  0  0
 24 23  2  0  0  0  0
 24 21  1  0  0  0  0
 25 26  2  0  0  0  0
 25 22  1  0  0  0  0
M  END
>  <MODEL>
8

>  <REMARK>
 VINA RESULT:      -6.1      3.931      7.782
  Name = 
  2 active torsions:
  status: ('A' for Active; 'I' for Inactive)
    1  A    between atoms: C_6  and  C_17
    2  A    between atoms: C_14  and  N_21
                            x       y       z     vdW  Elec       q    Type
                         _______ _______ _______ _____ _____    ______ ____

>  <TORSDO>
F 2

$$$$
=
 OpenBabel11062417003D

 26 30  0  0  1  0  0  0  0  0999 V2000
  190.3620  176.1680  139.1320 C   0  0  0  0  0  0  0  0  0  0  0  0
  194.2670  176.0270  136.2400 C   0  0  0  0  0  3  0  0  0  0  0  0
  191.6280  175.3400  136.7420 C   0  0  0  0  0  0  0  0  0  0  0  0
  191.4760  177.0340  138.5920 C   0  0  0  0  0  2  0  0  0  0  0  0
  192.2500  176.3260  137.5220 C   0  0  0  0  0  0  0  0  0  0  0  0
  190.1900  174.9840  136.9970 C   0  0  1  0  0  3  0  0  0  0  0  0
  193.6470  175.0700  135.4950 N   0  0  0  0  0  0  0  0  0  0  0  0
  189.8770  176.3620  140.4640 N   0  0  0  0  0  2  0  0  0  0  0  0
  189.8140  175.2480  138.3910 N   0  0  0  0  0  0  0  0  0  0  0  0
  192.3520  174.7190  135.7220 C   0  0  0  0  0  3  0  0  0  0  0  0
  193.5760  176.6770  137.2660 C   0  0  0  0  0  3  0  0  0  0  0  0
  189.0950  178.1880  145.3190 O   0  0  0  0  0  0  0  0  0  0  0  0
  190.9390  177.4650  143.8700 C   0  0  1  0  0  3  0  0  0  0  0  0
  189.4450  177.6350  144.1320 C   0  0  2  0  0  0  0  0  0  0  0  0
  188.4520  177.8070  142.9940 C   0  0  0  0  0  2  0  0  0  0  0  0
  191.1390  176.7780  142.5160 C   0  0  0  0  0  2  0  0  0  0  0  0
  190.3580  177.4150  141.3460 C   0  0  2  0  0  3  0  0  0  0  0  0
  188.9520  176.8100  145.2000 N   0  0  0  0  0  2  0  0  0  0  0  0
  189.1910  178.3300  141.7690 C   0  0  0  0  0  2  0  0  0  0  0  0
  191.6510  178.8070  143.8920 C   0  0  0  0  0  1  0  0  0  0  0  0
  188.2180  177.3790  134.5940 S   0  0  0  0  0  0  0  0  0  0  0  0
  187.7020  173.7940  135.8490 N   0  0  0  0  0  1  0  0  0  0  0  0
  189.2720  175.7080  136.0540 C   0  0  0  0  0  0  0  0  0  0  0  0
  189.4950  177.0140  135.6250 C   0  0  0  0  0  3  0  0  0  0  0  0
  188.1130  175.1190  135.5240 C   0  0  0  0  0  0  0  0  0  0  0  0
  187.3790  175.9260  134.6670 C   0  0  0  0  0  3  0  0  0  0  0  0
  1  8  1  0  0  0  0
  2 11  1  0  0  0  0
  3  6  1  0  0  0  0
  3  5  1  0  0  0  0
  4  1  1  0  0  0  0
  5  4  1  0  0  0  0
  6 23  1  6  0  0  0
  6  9  1  0  0  0  0
  7 10  1  0  0  0  0
  7  2  2  0  0  0  0
  9  1  2  0  0  0  0
 10  3  2  0  0  0  0
 11  5  2  0  0  0  0
 13 20  1  6  0  0  0
 13 14  1  0  0  0  0
 14 15  1  6  0  0  0
 14 18  1  0  0  0  0
 14 12  1  0  0  0  0
 16 13  1  0  0  0  0
 17  8  1  6  0  0  0
 17 19  1  0  0  0  0
 17 16  1  0  0  0  0
 18 12  1  0  0  0  0
 19 15  1  0  0  0  0
 21 26  1  0  0  0  0
 21 24  1  0  0  0  0
 24 23  2  0  0  0  0
 25 22  1  0  0  0  0
 25 23  1  0  0  0  0
 26 25  2  0  0  0  0
M  END
>  <MODEL>
9

>  <REMARK>
 VINA RESULT:      -6.0      2.368      4.195
  Name = 
  2 active torsions:
  status: ('A' for Active; 'I' for Inactive)
    1  A    between atoms: C_6  and  C_17
    2  A    between atoms: C_14  and  N_21
                            x       y       z     vdW  Elec       q    Type
                         _______ _______ _______ _____ _____    ______ ____

>  <TORSDO>
F 2

$$$$
