=
 OpenBabel11062413503D

 52 56  0  0  1  0  0  0  0  0999 V2000
  187.7550  177.5540  144.7360 C   0  0  1  0  0  3  0  0  0  0  0  0
  189.3210  176.1000  143.3010 C   0  0  0  0  0  2  0  0  0  0  0  0
  191.6610  176.9890  142.9910 C   0  0  0  0  0  2  0  0  0  0  0  0
  191.2910  178.2310  143.7490 C   0  0  0  0  0  3  0  0  0  0  0  0
  190.4280  176.4250  142.2820 C   0  0  2  0  0  3  0  0  0  0  0  0
  189.1940  177.1100  144.4670 C   0  0  1  0  0  3  0  0  0  0  0  0
  190.1340  178.2900  144.4170 C   0  0  0  0  0  3  0  0  0  0  0  0
  190.0470  177.1720  139.8810 C   0  0  0  0  0  0  0  0  0  0  0  0
  189.5200  178.1580  138.9890 N   0  0  0  0  0  2  0  0  0  0  0  0
  190.5890  176.1260  139.4270 O   0  0  0  0  0  0  0  0  0  0  0  0
  189.9470  177.3830  141.2900 N   0  0  0  0  0  2  0  0  0  0  0  0
  189.4910  177.9750  137.5450 C   0  0  0  0  0  2  0  0  0  0  0  0
  188.2640  178.6630  136.9670 C   0  0  0  0  0  2  0  0  0  0  0  0
  186.9950  177.9310  137.3740 C   0  0  0  0  0  2  0  0  0  0  0  0
  186.7520  176.1640  135.5840 C   0  0  0  0  0  2  0  0  0  0  0  0
  184.4920  176.0190  137.2970 C   0  0  0  0  0  2  0  0  0  0  0  0
  186.1970  177.4710  136.1570 C   0  0  1  0  0  3  0  0  0  0  0  0
  186.3090  174.9690  136.4530 C   0  0  1  0  0  3  0  0  0  0  0  0
  184.9040  174.9180  136.5230 O   0  0  0  0  0  0  0  0  0  0  0  0
  184.7150  177.3200  136.5150 C   0  0  0  0  0  2  0  0  0  0  0  0
  186.8680  173.5910  136.0450 C   0  0  0  0  0  3  0  0  0  0  0  0
  188.2050  173.3260  136.7150 C   0  0  0  0  0  2  0  0  0  0  0  0
  186.9680  172.5880  137.1880 C   0  0  0  0  0  2  0  0  0  0  0  0
  186.0450  178.0340  146.5570 C   0  0  0  0  0  1  0  0  0  0  0  0
  187.5170  178.0180  146.1830 C   0  0  0  0  0  3  0  0  0  0  0  0
  188.2740  177.1260  147.1450 C   0  0  0  0  0  1  0  0  0  0  0  0
  187.3570  178.5100  143.7890 O   0  0  0  0  0  0  0  0  0  0  0  0
  186.2150  177.9810  143.1750 C   0  0  0  0  0  2  0  0  0  0  0  0
  186.2270  178.2610  141.6770 C   0  0  2  0  0  3  0  0  0  0  0  0
  187.0990  179.3180  141.4120 O   0  0  0  0  0  1  0  0  0  0  0  0
  184.6500  178.8800  139.8740 C   0  0  0  0  0  3  0  0  0  0  0  0
  184.8550  178.5860  141.1680 C   0  0  0  0  0  0  0  0  0  0  0  0
  183.7180  178.5810  142.1110 C   0  0  0  0  0  3  0  0  0  0  0  0
  183.2910  179.3130  139.3940 C   0  0  0  0  0  2  0  0  0  0  0  0
  182.4600  178.6310  141.6590 C   0  0  0  0  0  3  0  0  0  0  0  0
  182.1670  178.6180  140.1780 C   0  0  2  0  0  3  0  0  0  0  0  0
  182.0090  177.2400  139.7180 N   0  0  0  0  0  2  0  0  0  0  0  0
  179.8770  178.0020  139.2530 F   0  0  0  0  0  0  0  0  0  0  0  0
  180.8550  177.1260  138.8210 C   0  0  0  0  0  0  0  0  0  0  0  0
  181.2180  177.4910  137.5330 F   0  0  0  0  0  0  0  0  0  0  0  0
  180.3060  175.6820  138.8180 C   0  0  2  0  0  3  0  0  0  0  0  0
  180.4840  174.8890  137.5480 C   0  0  0  0  0  0  0  0  0  0  0  0
  181.0760  173.5950  135.0950 C   0  0  0  0  0  3  0  0  0  0  0  0
  181.7730  173.2940  136.1990 C   0  0  0  0  0  0  0  0  0  0  0  0
  179.4590  174.9330  136.4440 C   0  0  0  0  0  2  0  0  0  0  0  0
  180.1310  174.7660  135.0810 C   0  0  0  0  0  2  0  0  0  0  0  0
  181.5350  174.0650  137.4390 C   0  0  0  0  0  3  0  0  0  0  0  0
  182.8210  171.3710  137.2670 O   0  0  0  0  0  0  0  0  0  0  0  0
  182.7380  172.2320  136.1950 N   0  0  0  0  0  0  0  0  0  0  0  0
  183.5630  172.1250  135.2620 O   0  0  0  0  0  0  0  0  0  0  0  0
  179.2410  174.9470  140.7120 C   0  0  0  0  0  1  0  0  0  0  0  0
  179.0480  175.5120  139.4420 O   0  0  0  0  0  0  0  0  0  0  0  0
  1 27  1  6  0  0  0
  1 25  1  0  0  0  0
  2  6  1  0  0  0  0
  3  4  1  0  0  0  0
  4  7  2  0  0  0  0
  5 11  1  6  0  0  0
  5  3  1  0  0  0  0
  5  2  1  0  0  0  0
  6  1  1  6  0  0  0
  7  6  1  0  0  0  0
  8 11  1  0  0  0  0
  9  8  1  0  0  0  0
 10  8  2  0  0  0  0
 12  9  1  0  0  0  0
 13 14  1  0  0  0  0
 13 12  1  0  0  0  0
 15 17  1  0  0  0  0
 15 18  1  0  0  0  0
 17 20  1  0  0  0  0
 17 14  1  1  0  0  0
 18 21  1  6  0  0  0
 18 19  1  0  0  0  0
 19 16  1  0  0  0  0
 20 16  1  0  0  0  0
 21 22  1  0  0  0  0
 21 23  1  0  0  0  0
 22 23  1  0  0  0  0
 25 24  1  0  0  0  0
 25 26  1  0  0  0  0
 28 27  1  0  0  0  0
 29 30  1  1  0  0  0
 29 28  1  0  0  0  0
 31 32  2  0  0  0  0
 32 29  1  0  0  0  0
 32 33  1  0  0  0  0
 34 31  1  0  0  0  0
 34 36  1  0  0  0  0
 35 33  2  0  0  0  0
 36 37  1  6  0  0  0
 36 35  1  0  0  0  0
 39 38  1  0  0  0  0
 39 37  1  0  0  0  0
 40 39  1  0  0  0  0
 41 39  1  0  0  0  0
 41 52  1  6  0  0  0
 42 41  1  0  0  0  0
 43 44  2  0  0  0  0
 44 47  1  0  0  0  0
 45 42  1  0  0  0  0
 46 43  1  0  0  0  0
 46 45  1  0  0  0  0
 47 42  2  0  0  0  0
 49 44  1  0  0  0  0
 49 48  2  0  0  0  0
 50 49  2  0  0  0  0
 52 51  1  0  0  0  0
M  END
>  <MODEL>
1

>  <REMARK>
 VINA RESULT:      -7.2      0.000      0.000
  Name = 
  18 active torsions:
  status: ('A' for Active; 'I' for Inactive)
    1  A    between atoms: C_1  and  C_36
    2  A    between atoms: C_2  and  O_14
    3  A    between atoms: C_2  and  C_19
    4  A    between atoms: C_3  and  C_9
    5  A    between atoms: C_4  and  C_30
    6  A    between atoms: C_4  and  C_31
    7  A    between atoms: C_5  and  O_14
    8  A    between atoms: C_5  and  C_43
    9  A    between atoms: C_5  and  C_49
   10  A    between atoms: C_9  and  O_23
   11  A    between atoms: C_9  and  C_28
   12  A    between atoms: N_12  and  C_31
   13  A    between atoms: C_16  and  C_19
   14  A    between atoms: N_17  and  C_38
   15  A    between atoms: N_18  and  C_42
   16  A    between atoms: N_21  and  C_28
   17  A    between atoms: N_21  and  C_52
   18  A    between atoms: C_26  and  C_30
                            x       y       z     vdW  Elec       q    Type
                         _______ _______ _______ _____ _____    ______ ____

>  <TORSDO>
F 18

$$$$
=
 OpenBabel11062413503D

 52 56  0  0  1  0  0  0  0  0999 V2000
  182.5160  178.6170  141.0520 C   0  0  1  0  0  3  0  0  0  0  0  0
  183.2330  178.7350  138.5830 C   0  0  0  0  0  2  0  0  0  0  0  0
  183.2860  176.5340  137.3520 C   0  0  0  0  0  2  0  0  0  0  0  0
  182.9310  175.8150  138.6210 C   0  0  0  0  0  3  0  0  0  0  0  0
  184.0650  177.8100  137.6770 C   0  0  2  0  0  3  0  0  0  0  0  0
  182.3870  178.0060  139.6550 C   0  0  1  0  0  3  0  0  0  0  0  0
  182.5340  176.5050  139.6950 C   0  0  0  0  0  3  0  0  0  0  0  0
  186.5730  178.0880  137.9950 C   0  0  0  0  0  0  0  0  0  0  0  0
  187.7540  177.7010  138.7010 N   0  0  0  0  0  2  0  0  0  0  0  0
  186.6290  178.9740  137.0970 O   0  0  0  0  0  0  0  0  0  0  0  0
  185.3300  177.4650  138.3200 N   0  0  0  0  0  2  0  0  0  0  0  0
  189.0400  178.3560  138.5020 C   0  0  0  0  0  2  0  0  0  0  0  0
  189.7140  177.7910  137.2620 C   0  0  0  0  0  2  0  0  0  0  0  0
  190.8040  176.8020  137.6450 C   0  0  0  0  0  2  0  0  0  0  0  0
  192.9330  175.8380  136.6850 C   0  0  0  0  0  2  0  0  0  0  0  0
  191.0030  173.7610  136.8450 C   0  0  0  0  0  2  0  0  0  0  0  0
  191.4680  176.1920  136.4130 C   0  0  1  0  0  3  0  0  0  0  0  0
  193.0240  174.5340  137.5040 C   0  0  1  0  0  3  0  0  0  0  0  0
  192.3830  173.4860  136.8170 O   0  0  0  0  0  0  0  0  0  0  0  0
  190.6900  174.9600  135.9410 C   0  0  0  0  0  2  0  0  0  0  0  0
  194.4410  174.0980  137.9280 C   0  0  0  0  0  3  0  0  0  0  0  0
  195.0170  173.0930  136.9470 C   0  0  0  0  0  2  0  0  0  0  0  0
  195.5430  174.5150  136.9610 C   0  0  0  0  0  2  0  0  0  0  0  0
  181.3130  179.0210  143.2580 C   0  0  0  0  0  1  0  0  0  0  0  0
  181.1650  178.8190  141.7590 C   0  0  0  0  0  3  0  0  0  0  0  0
  180.4380  180.0040  141.1590 C   0  0  0  0  0  1  0  0  0  0  0  0
  183.4240  177.8770  141.8230 O   0  0  0  0  0  0  0  0  0  0  0  0
  184.6720  178.4790  141.6200 C   0  0  0  0  0  2  0  0  0  0  0  0
  185.0380  179.3780  142.7940 C   0  0  2  0  0  3  0  0  0  0  0  0
  186.0570  180.2510  142.4080 O   0  0  0  0  0  1  0  0  0  0  0  0
  186.3530  177.5740  143.8600 C   0  0  0  0  0  3  0  0  0  0  0  0
  185.4700  178.5780  143.9860 C   0  0  0  0  0  0  0  0  0  0  0  0
  184.9110  178.9050  145.3140 C   0  0  0  0  0  3  0  0  0  0  0  0
  186.6950  176.7050  145.0400 C   0  0  0  0  0  2  0  0  0  0  0  0
  185.4420  178.3780  146.4230 C   0  0  0  0  0  3  0  0  0  0  0  0
  186.6680  177.5010  146.3550 C   0  0  2  0  0  3  0  0  0  0  0  0
  187.8710  178.3220  146.4730 N   0  0  0  0  0  2  0  0  0  0  0  0
  188.8650  178.8480  148.4910 F   0  0  0  0  0  0  0  0  0  0  0  0
  188.7220  177.8340  147.5620 C   0  0  0  0  0  0  0  0  0  0  0  0
  188.1170  176.7580  148.1920 F   0  0  0  0  0  0  0  0  0  0  0  0
  190.1080  177.4120  147.0240 C   0  0  2  0  0  3  0  0  0  0  0  0
  190.3980  177.7200  145.5770 C   0  0  0  0  0  0  0  0  0  0  0  0
  191.1950  178.0840  142.8810 C   0  0  0  0  0  3  0  0  0  0  0  0
  190.4520  177.0240  143.2240 C   0  0  0  0  0  0  0  0  0  0  0  0
  190.8700  179.0840  145.1440 C   0  0  0  0  0  2  0  0  0  0  0  0
  191.8010  178.9700  143.9360 C   0  0  0  0  0  2  0  0  0  0  0  0
  190.1500  176.7830  144.6530 C   0  0  0  0  0  3  0  0  0  0  0  0
  189.1000  175.0990  142.5900 O   0  0  0  0  0  0  0  0  0  0  0  0
  189.9420  176.1260  142.2270 N   0  0  0  0  0  0  0  0  0  0  0  0
  190.3170  176.2170  141.0380 O   0  0  0  0  0  0  0  0  0  0  0  0
  191.9620  176.1750  147.5670 C   0  0  0  0  0  1  0  0  0  0  0  0
  190.5620  176.1430  147.4550 O   0  0  0  0  0  0  0  0  0  0  0  0
  1 25  1  1  0  0  0
  1 27  1  0  0  0  0
  2  6  1  0  0  0  0
  3  5  1  0  0  0  0
  3  4  1  0  0  0  0
  4  7  2  0  0  0  0
  5 11  1  1  0  0  0
  5  2  1  0  0  0  0
  6  7  1  0  0  0  0
  6  1  1  1  0  0  0
  8 11  1  0  0  0  0
  8  9  1  0  0  0  0
 10  8  2  0  0  0  0
 12  9  1  0  0  0  0
 13 14  1  0  0  0  0
 13 12  1  0  0  0  0
 15 18  1  0  0  0  0
 17 15  1  0  0  0  0
 17 14  1  1  0  0  0
 18 21  1  6  0  0  0
 19 16  1  0  0  0  0
 19 18  1  0  0  0  0
 20 17  1  0  0  0  0
 20 16  1  0  0  0  0
 22 23  1  0  0  0  0
 22 21  1  0  0  0  0
 23 21  1  0  0  0  0
 25 24  1  0  0  0  0
 26 25  1  0  0  0  0
 28 27  1  0  0  0  0
 28 29  1  0  0  0  0
 29 30  1  6  0  0  0
 29 32  1  0  0  0  0
 31 32  2  0  0  0  0
 31 34  1  0  0  0  0
 32 33  1  0  0  0  0
 33 35  2  0  0  0  0
 34 36  1  0  0  0  0
 36 35  1  0  0  0  0
 36 37  1  6  0  0  0
 37 39  1  0  0  0  0
 39 40  1  0  0  0  0
 39 38  1  0  0  0  0
 41 52  1  6  0  0  0
 41 39  1  0  0  0  0
 42 41  1  0  0  0  0
 43 44  2  0  0  0  0
 43 46  1  0  0  0  0
 44 47  1  0  0  0  0
 45 42  1  0  0  0  0
 46 45  1  0  0  0  0
 47 42  2  0  0  0  0
 49 48  2  0  0  0  0
 49 44  1  0  0  0  0
 50 49  2  0  0  0  0
 52 51  1  0  0  0  0
M  END
>  <MODEL>
2

>  <REMARK>
 VINA RESULT:      -7.0      3.831      8.744
  Name = 
  18 active torsions:
  status: ('A' for Active; 'I' for Inactive)
    1  A    between atoms: C_1  and  C_36
    2  A    between atoms: C_2  and  O_14
    3  A    between atoms: C_2  and  C_19
    4  A    between atoms: C_3  and  C_9
    5  A    between atoms: C_4  and  C_30
    6  A    between atoms: C_4  and  C_31
    7  A    between atoms: C_5  and  O_14
    8  A    between atoms: C_5  and  C_43
    9  A    between atoms: C_5  and  C_49
   10  A    between atoms: C_9  and  O_23
   11  A    between atoms: C_9  and  C_28
   12  A    between atoms: N_12  and  C_31
   13  A    between atoms: C_16  and  C_19
   14  A    between atoms: N_17  and  C_38
   15  A    between atoms: N_18  and  C_42
   16  A    between atoms: N_21  and  C_28
   17  A    between atoms: N_21  and  C_52
   18  A    between atoms: C_26  and  C_30
                            x       y       z     vdW  Elec       q    Type
                         _______ _______ _______ _____ _____    ______ ____

>  <TORSDO>
F 18

$$$$
=
 OpenBabel11062413503D

 52 56  0  0  1  0  0  0  0  0999 V2000
  182.0240  179.0490  141.6560 C   0  0  1  0  0  3  0  0  0  0  0  0
  181.6030  179.1050  139.1180 C   0  0  0  0  0  2  0  0  0  0  0  0
  180.4820  177.0630  138.1500 C   0  0  0  0  0  2  0  0  0  0  0  0
  180.5210  176.4020  139.4970 C   0  0  0  0  0  3  0  0  0  0  0  0
  181.6560  178.0350  138.0120 C   0  0  2  0  0  3  0  0  0  0  0  0
  181.1340  178.5890  140.4990 C   0  0  1  0  0  3  0  0  0  0  0  0
  180.8450  177.1110  140.5840 C   0  0  0  0  0  3  0  0  0  0  0  0
  183.3300  176.3680  137.0710 C   0  0  0  0  0  0  0  0  0  0  0  0
  184.5950  175.7170  137.2040 N   0  0  0  0  0  2  0  0  0  0  0  0
  182.5890  176.1240  136.0780 O   0  0  0  0  0  0  0  0  0  0  0  0
  182.9160  177.2990  138.0710 N   0  0  0  0  0  2  0  0  0  0  0  0
  185.1360  174.8320  136.1810 C   0  0  0  0  0  2  0  0  0  0  0  0
  186.4350  175.4080  135.6410 C   0  0  0  0  0  2  0  0  0  0  0  0
  187.6110  174.5160  136.0030 C   0  0  0  0  0  2  0  0  0  0  0  0
  189.1790  176.4940  135.8830 C   0  0  0  0  0  2  0  0  0  0  0  0
  190.4860  174.4000  137.2860 C   0  0  0  0  0  2  0  0  0  0  0  0
  188.9210  175.0530  135.4320 C   0  0  1  0  0  3  0  0  0  0  0  0
  189.6870  176.5150  137.3400 C   0  0  1  0  0  3  0  0  0  0  0  0
  190.8610  175.7470  137.4530 O   0  0  0  0  0  0  0  0  0  0  0  0
  190.0890  174.1450  135.8270 C   0  0  0  0  0  2  0  0  0  0  0  0
  189.9070  177.9090  137.9600 C   0  0  0  0  0  3  0  0  0  0  0  0
  188.8800  178.9030  137.4430 C   0  0  0  0  0  2  0  0  0  0  0  0
  188.7750  178.3830  138.8640 C   0  0  0  0  0  2  0  0  0  0  0  0
  179.8370  180.0620  142.4700 C   0  0  0  0  0  1  0  0  0  0  0  0
  181.2350  179.6080  142.8520 C   0  0  0  0  0  3  0  0  0  0  0  0
  181.1470  178.5670  143.9480 C   0  0  0  0  0  1  0  0  0  0  0  0
  182.9100  178.0260  142.0240 O   0  0  0  0  0  0  0  0  0  0  0  0
  184.1540  178.3950  141.4980 C   0  0  0  0  0  2  0  0  0  0  0  0
  184.9270  179.2570  142.4880 C   0  0  2  0  0  3  0  0  0  0  0  0
  186.0360  179.8130  141.8480 O   0  0  0  0  0  1  0  0  0  0  0  0
  186.3260  177.5310  143.5770 C   0  0  0  0  0  3  0  0  0  0  0  0
  185.3660  178.4640  143.6820 C   0  0  0  0  0  0  0  0  0  0  0  0
  184.7280  178.7200  144.9900 C   0  0  0  0  0  3  0  0  0  0  0  0
  186.6810  176.6640  144.7540 C   0  0  0  0  0  2  0  0  0  0  0  0
  185.2490  178.2090  146.1110 C   0  0  0  0  0  3  0  0  0  0  0  0
  186.5380  177.4260  146.0810 C   0  0  2  0  0  3  0  0  0  0  0  0
  187.6700  178.3310  146.2680 N   0  0  0  0  0  2  0  0  0  0  0  0
  188.5530  178.9330  148.3170 F   0  0  0  0  0  0  0  0  0  0  0  0
  188.4930  177.8980  147.4020 C   0  0  0  0  0  0  0  0  0  0  0  0
  187.9050  176.8090  148.0260 F   0  0  0  0  0  0  0  0  0  0  0  0
  189.9170  177.5250  146.9320 C   0  0  2  0  0  3  0  0  0  0  0  0
  190.2550  177.8150  145.4920 C   0  0  0  0  0  0  0  0  0  0  0  0
  191.1470  178.1530  142.8220 C   0  0  0  0  0  3  0  0  0  0  0  0
  190.4180  177.0800  143.1560 C   0  0  0  0  0  0  0  0  0  0  0  0
  190.7100  179.1830  145.0520 C   0  0  0  0  0  2  0  0  0  0  0  0
  191.6890  179.0720  143.8830 C   0  0  0  0  0  2  0  0  0  0  0  0
  190.0660  176.8570  144.5760 C   0  0  0  0  0  3  0  0  0  0  0  0
  189.0370  175.1900  142.4770 O   0  0  0  0  0  0  0  0  0  0  0  0
  189.9690  176.1520  142.1570 N   0  0  0  0  0  0  0  0  0  0  0  0
  190.4750  176.1560  141.0130 O   0  0  0  0  0  0  0  0  0  0  0  0
  191.7860  176.4010  147.6420 C   0  0  0  0  0  1  0  0  0  0  0  0
  190.4060  176.2870  147.4110 O   0  0  0  0  0  0  0  0  0  0  0  0
  1 27  1  1  0  0  0
  1 25  1  0  0  0  0
  2  6  1  0  0  0  0
  3  4  1  0  0  0  0
  4  7  2  0  0  0  0
  5 11  1  1  0  0  0
  5  3  1  0  0  0  0
  5  2  1  0  0  0  0
  6  7  1  0  0  0  0
  6  1  1  1  0  0  0
  8  9  1  0  0  0  0
  8 11  1  0  0  0  0
 10  8  2  0  0  0  0
 12  9  1  0  0  0  0
 13 14  1  0  0  0  0
 13 12  1  0  0  0  0
 15 18  1  0  0  0  0
 16 19  1  0  0  0  0
 17 20  1  0  0  0  0
 17 15  1  0  0  0  0
 17 14  1  1  0  0  0
 18 19  1  0  0  0  0
 18 21  1  6  0  0  0
 20 16  1  0  0  0  0
 21 23  1  0  0  0  0
 22 21  1  0  0  0  0
 22 23  1  0  0  0  0
 24 25  1  0  0  0  0
 25 26  1  0  0  0  0
 28 27  1  0  0  0  0
 28 29  1  0  0  0  0
 29 30  1  6  0  0  0
 29 32  1  0  0  0  0
 31 32  2  0  0  0  0
 31 34  1  0  0  0  0
 32 33  1  0  0  0  0
 33 35  2  0  0  0  0
 34 36  1  0  0  0  0
 36 35  1  0  0  0  0
 36 37  1  6  0  0  0
 37 39  1  0  0  0  0
 39 40  1  0  0  0  0
 39 38  1  0  0  0  0
 41 39  1  0  0  0  0
 41 52  1  6  0  0  0
 42 41  1  0  0  0  0
 43 44  2  0  0  0  0
 43 46  1  0  0  0  0
 44 47  1  0  0  0  0
 45 42  1  0  0  0  0
 46 45  1  0  0  0  0
 47 42  2  0  0  0  0
 49 48  2  0  0  0  0
 49 44  1  0  0  0  0
 50 49  2  0  0  0  0
 52 51  1  0  0  0  0
M  END
>  <MODEL>
3

>  <REMARK>
 VINA RESULT:      -6.9      3.244      8.816
  Name = 
  18 active torsions:
  status: ('A' for Active; 'I' for Inactive)
    1  A    between atoms: C_1  and  C_36
    2  A    between atoms: C_2  and  O_14
    3  A    between atoms: C_2  and  C_19
    4  A    between atoms: C_3  and  C_9
    5  A    between atoms: C_4  and  C_30
    6  A    between atoms: C_4  and  C_31
    7  A    between atoms: C_5  and  O_14
    8  A    between atoms: C_5  and  C_43
    9  A    between atoms: C_5  and  C_49
   10  A    between atoms: C_9  and  O_23
   11  A    between atoms: C_9  and  C_28
   12  A    between atoms: N_12  and  C_31
   13  A    between atoms: C_16  and  C_19
   14  A    between atoms: N_17  and  C_38
   15  A    between atoms: N_18  and  C_42
   16  A    between atoms: N_21  and  C_28
   17  A    between atoms: N_21  and  C_52
   18  A    between atoms: C_26  and  C_30
                            x       y       z     vdW  Elec       q    Type
                         _______ _______ _______ _____ _____    ______ ____

>  <TORSDO>
F 18

$$$$
=
 OpenBabel11062413503D

 52 56  0  0  1  0  0  0  0  0999 V2000
  181.5210  179.0250  137.8600 C   0  0  1  0  0  3  0  0  0  0  0  0
  181.7640  177.2970  135.9680 C   0  0  0  0  0  2  0  0  0  0  0  0
  180.6510  175.0700  136.3690 C   0  0  0  0  0  2  0  0  0  0  0  0
  180.2570  175.5150  137.7480 C   0  0  0  0  0  3  0  0  0  0  0  0
  181.9440  175.7690  135.9470 C   0  0  2  0  0  3  0  0  0  0  0  0
  180.8960  177.8340  137.1310 C   0  0  1  0  0  3  0  0  0  0  0  0
  180.3920  176.7960  138.1050 C   0  0  0  0  0  3  0  0  0  0  0  0
  183.7930  174.1730  136.6560 C   0  0  0  0  0  0  0  0  0  0  0  0
  184.8600  173.8820  137.5620 N   0  0  0  0  0  2  0  0  0  0  0  0
  183.5270  173.3820  135.7080 O   0  0  0  0  0  0  0  0  0  0  0  0
  183.0340  175.3690  136.8330 N   0  0  0  0  0  2  0  0  0  0  0  0
  185.7440  172.7370  137.3930 C   0  0  0  0  0  2  0  0  0  0  0  0
  186.7680  173.0380  136.3110 C   0  0  0  0  0  2  0  0  0  0  0  0
  187.9350  173.8290  136.8780 C   0  0  0  0  0  2  0  0  0  0  0  0
  187.9570  176.2970  136.3340 C   0  0  0  0  0  2  0  0  0  0  0  0
  190.6040  175.5010  136.9810 C   0  0  0  0  0  2  0  0  0  0  0  0
  188.4160  174.9010  135.9030 C   0  0  1  0  0  3  0  0  0  0  0  0
  188.8350  176.8140  137.4920 C   0  0  1  0  0  3  0  0  0  0  0  0
  190.1860  176.8400  137.0990 O   0  0  0  0  0  0  0  0  0  0  0  0
  189.9400  174.8510  135.7610 C   0  0  0  0  0  2  0  0  0  0  0  0
  188.4330  178.1770  138.0900 C   0  0  0  0  0  3  0  0  0  0  0  0
  186.9650  178.1890  138.4790 C   0  0  0  0  0  2  0  0  0  0  0  0
  188.0280  178.1260  139.5590 C   0  0  0  0  0  2  0  0  0  0  0  0
  181.2800  181.4600  138.5590 C   0  0  0  0  0  1  0  0  0  0  0  0
  180.6770  180.3080  137.7730 C   0  0  0  0  0  3  0  0  0  0  0  0
  180.5050  180.7190  136.3260 C   0  0  0  0  0  1  0  0  0  0  0  0
  181.8360  178.6740  139.1810 O   0  0  0  0  0  0  0  0  0  0  0  0
  183.2300  178.7730  139.2770 C   0  0  0  0  0  2  0  0  0  0  0  0
  183.7650  177.8520  140.3660 C   0  0  2  0  0  3  0  0  0  0  0  0
  182.8510  176.8210  140.5900 O   0  0  0  0  0  1  0  0  0  0  0  0
  183.1140  178.6080  142.6300 C   0  0  0  0  0  3  0  0  0  0  0  0
  184.0210  178.5980  141.6400 C   0  0  0  0  0  0  0  0  0  0  0  0
  185.2930  179.3310  141.8020 C   0  0  0  0  0  3  0  0  0  0  0  0
  183.3300  179.4500  143.8580 C   0  0  0  0  0  2  0  0  0  0  0  0
  185.6570  179.8060  142.9980 C   0  0  0  0  0  3  0  0  0  0  0  0
  184.8200  179.5410  144.2250 C   0  0  2  0  0  3  0  0  0  0  0  0
  185.2590  178.3020  144.8650 N   0  0  0  0  0  2  0  0  0  0  0  0
  185.6320  179.9220  146.4700 F   0  0  0  0  0  0  0  0  0  0  0  0
  185.6950  178.5600  146.2410 C   0  0  0  0  0  0  0  0  0  0  0  0
  184.8390  177.9350  147.1350 F   0  0  0  0  0  0  0  0  0  0  0  0
  187.1380  178.0540  146.4590 C   0  0  2  0  0  3  0  0  0  0  0  0
  187.8470  177.4820  145.2580 C   0  0  0  0  0  0  0  0  0  0  0  0
  189.2000  176.7150  142.8860 C   0  0  0  0  0  3  0  0  0  0  0  0
  189.8900  177.2060  143.9250 C   0  0  0  0  0  0  0  0  0  0  0  0
  187.1350  176.5790  144.2820 C   0  0  0  0  0  2  0  0  0  0  0  0
  187.6960  176.7680  142.8720 C   0  0  0  0  0  2  0  0  0  0  0  0
  189.1570  177.7150  145.1060 C   0  0  0  0  0  3  0  0  0  0  0  0
  191.9910  178.4270  144.0930 O   0  0  0  0  0  0  0  0  0  0  0  0
  191.3250  177.2360  143.9090 N   0  0  0  0  0  0  0  0  0  0  0  0
  191.9800  176.2030  143.6500 O   0  0  0  0  0  0  0  0  0  0  0  0
  188.0850  178.1440  148.5470 C   0  0  0  0  0  1  0  0  0  0  0  0
  187.3520  177.3380  147.6610 O   0  0  0  0  0  0  0  0  0  0  0  0
  1 25  1  1  0  0  0
  1 27  1  0  0  0  0
  2  6  1  0  0  0  0
  3  4  1  0  0  0  0
  4  7  2  0  0  0  0
  5  2  1  0  0  0  0
  5  3  1  0  0  0  0
  5 11  1  1  0  0  0
  6  1  1  1  0  0  0
  6  7  1  0  0  0  0
  8 11  1  0  0  0  0
  8  9  1  0  0  0  0
 10  8  2  0  0  0  0
 12  9  1  0  0  0  0
 13 14  1  0  0  0  0
 13 12  1  0  0  0  0
 15 18  1  0  0  0  0
 16 19  1  0  0  0  0
 17 15  1  0  0  0  0
 17 14  1  1  0  0  0
 18 21  1  6  0  0  0
 19 18  1  0  0  0  0
 20 17  1  0  0  0  0
 20 16  1  0  0  0  0
 21 22  1  0  0  0  0
 21 23  1  0  0  0  0
 22 23  1  0  0  0  0
 25 24  1  0  0  0  0
 26 25  1  0  0  0  0
 27 28  1  0  0  0  0
 28 29  1  0  0  0  0
 29 30  1  1  0  0  0
 29 32  1  0  0  0  0
 31 34  1  0  0  0  0
 32 33  1  0  0  0  0
 32 31  2  0  0  0  0
 33 35  2  0  0  0  0
 34 36  1  0  0  0  0
 35 36  1  0  0  0  0
 36 37  1  6  0  0  0
 37 39  1  0  0  0  0
 39 41  1  0  0  0  0
 39 38  1  0  0  0  0
 39 40  1  0  0  0  0
 41 52  1  1  0  0  0
 42 41  1  0  0  0  0
 43 44  2  0  0  0  0
 44 47  1  0  0  0  0
 45 42  1  0  0  0  0
 46 43  1  0  0  0  0
 46 45  1  0  0  0  0
 47 42  2  0  0  0  0
 49 44  1  0  0  0  0
 49 48  2  0  0  0  0
 50 49  2  0  0  0  0
 52 51  1  0  0  0  0
M  END
>  <MODEL>
4

>  <REMARK>
 VINA RESULT:      -6.6      3.001      8.816
  Name = 
  18 active torsions:
  status: ('A' for Active; 'I' for Inactive)
    1  A    between atoms: C_1  and  C_36
    2  A    between atoms: C_2  and  O_14
    3  A    between atoms: C_2  and  C_19
    4  A    between atoms: C_3  and  C_9
    5  A    between atoms: C_4  and  C_30
    6  A    between atoms: C_4  and  C_31
    7  A    between atoms: C_5  and  O_14
    8  A    between atoms: C_5  and  C_43
    9  A    between atoms: C_5  and  C_49
   10  A    between atoms: C_9  and  O_23
   11  A    between atoms: C_9  and  C_28
   12  A    between atoms: N_12  and  C_31
   13  A    between atoms: C_16  and  C_19
   14  A    between atoms: N_17  and  C_38
   15  A    between atoms: N_18  and  C_42
   16  A    between atoms: N_21  and  C_28
   17  A    between atoms: N_21  and  C_52
   18  A    between atoms: C_26  and  C_30
                            x       y       z     vdW  Elec       q    Type
                         _______ _______ _______ _____ _____    ______ ____

>  <TORSDO>
F 18

$$$$
=
 OpenBabel11062413503D

 52 56  0  0  1  0  0  0  0  0999 V2000
  186.2770  174.4050  135.6410 C   0  0  1  0  0  3  0  0  0  0  0  0
  186.0590  176.7110  136.7620 C   0  0  0  0  0  2  0  0  0  0  0  0
  187.6720  178.4760  135.9580 C   0  0  0  0  0  2  0  0  0  0  0  0
  188.3390  177.4640  135.0730 C   0  0  0  0  0  3  0  0  0  0  0  0
  187.0790  177.7820  137.1870 C   0  0  2  0  0  3  0  0  0  0  0  0
  186.4400  175.9190  135.4890 C   0  0  1  0  0  3  0  0  0  0  0  0
  187.7730  176.2690  134.8740 C   0  0  0  0  0  3  0  0  0  0  0  0
  188.5120  177.6430  139.2840 C   0  0  0  0  0  0  0  0  0  0  0  0
  189.5560  176.9740  139.9940 N   0  0  0  0  0  2  0  0  0  0  0  0
  187.9140  178.6260  139.8050 O   0  0  0  0  0  0  0  0  0  0  0  0
  188.1490  177.1850  137.9810 N   0  0  0  0  0  2  0  0  0  0  0  0
  189.9180  177.3130  141.3630 C   0  0  0  0  0  2  0  0  0  0  0  0
  188.8340  176.8310  142.3130 C   0  0  0  0  0  2  0  0  0  0  0  0
  189.4340  176.4030  143.6430 C   0  0  0  0  0  2  0  0  0  0  0  0
  189.2320  177.8710  145.6890 C   0  0  0  0  0  2  0  0  0  0  0  0
  191.6390  176.3780  145.8930 C   0  0  0  0  0  2  0  0  0  0  0  0
  190.0170  177.5900  144.4050 C   0  0  1  0  0  3  0  0  0  0  0  0
  189.6140  176.8520  146.7820 C   0  0  1  0  0  3  0  0  0  0  0  0
  190.9980  176.9060  147.0300 O   0  0  0  0  0  0  0  0  0  0  0  0
  191.4980  177.3500  144.7160 C   0  0  0  0  0  2  0  0  0  0  0  0
  188.8360  176.9590  148.1090 C   0  0  0  0  0  3  0  0  0  0  0  0
  189.0420  178.3190  148.7520 C   0  0  0  0  0  2  0  0  0  0  0  0
  187.7130  177.9900  148.1000 C   0  0  0  0  0  2  0  0  0  0  0  0
  187.6540  172.8790  137.1410 C   0  0  0  0  0  1  0  0  0  0  0  0
  187.6080  173.6610  135.8390 C   0  0  0  0  0  3  0  0  0  0  0  0
  187.8570  172.7240  134.6760 C   0  0  0  0  0  1  0  0  0  0  0  0
  185.3420  174.1160  136.6460 O   0  0  0  0  0  0  0  0  0  0  0  0
  184.4880  173.1480  136.1020 C   0  0  0  0  0  2  0  0  0  0  0  0
  183.0370  173.6100  136.1600 C   0  0  2  0  0  3  0  0  0  0  0  0
  182.5320  173.7080  134.8630 O   0  0  0  0  0  1  0  0  0  0  0  0
  182.4930  176.0230  136.2080 C   0  0  0  0  0  3  0  0  0  0  0  0
  182.9080  174.9270  136.8640 C   0  0  0  0  0  0  0  0  0  0  0  0
  183.2430  175.0130  138.3000 C   0  0  0  0  0  3  0  0  0  0  0  0
  182.4730  177.3630  136.8920 C   0  0  0  0  0  2  0  0  0  0  0  0
  182.9190  176.0980  139.0100 C   0  0  0  0  0  3  0  0  0  0  0  0
  182.1380  177.2290  138.3860 C   0  0  2  0  0  3  0  0  0  0  0  0
  180.7050  176.9960  138.5630 N   0  0  0  0  0  2  0  0  0  0  0  0
  178.9600  178.2550  139.4050 F   0  0  0  0  0  0  0  0  0  0  0  0
  180.2020  177.7380  139.7230 C   0  0  0  0  0  0  0  0  0  0  0  0
  180.0450  176.8820  140.8020 F   0  0  0  0  0  0  0  0  0  0  0  0
  181.1700  178.8810  140.1000 C   0  0  2  0  0  3  0  0  0  0  0  0
  181.6240  178.9410  141.5360 C   0  0  0  0  0  0  0  0  0  0  0  0
  182.5150  178.7250  144.2200 C   0  0  0  0  0  3  0  0  0  0  0  0
  183.4020  178.7270  143.2150 C   0  0  0  0  0  0  0  0  0  0  0  0
  180.6810  179.3400  142.6430 C   0  0  0  0  0  2  0  0  0  0  0  0
  181.0400  178.6150  143.9400 C   0  0  0  0  0  2  0  0  0  0  0  0
  182.9140  178.7160  141.8180 C   0  0  0  0  0  3  0  0  0  0  0  0
  185.2830  179.1930  144.6930 O   0  0  0  0  0  0  0  0  0  0  0  0
  184.8130  178.7470  143.4770 N   0  0  0  0  0  0  0  0  0  0  0  0
  185.6300  178.4380  142.5820 O   0  0  0  0  0  0  0  0  0  0  0  0
  182.0600  180.7330  139.0800 C   0  0  0  0  0  1  0  0  0  0  0  0
  180.8690  180.1410  139.5290 O   0  0  0  0  0  0  0  0  0  0  0  0
  1 25  1  1  0  0  0
  1 27  1  0  0  0  0
  2  5  1  0  0  0  0
  3  5  1  0  0  0  0
  4  3  1  0  0  0  0
  5 11  1  6  0  0  0
  6  1  1  1  0  0  0
  6  2  1  0  0  0  0
  7  4  2  0  0  0  0
  7  6  1  0  0  0  0
  8 10  2  0  0  0  0
  8  9  1  0  0  0  0
  9 12  1  0  0  0  0
 11  8  1  0  0  0  0
 12 13  1  0  0  0  0
 13 14  1  0  0  0  0
 15 18  1  0  0  0  0
 16 19  1  0  0  0  0
 17 14  1  1  0  0  0
 17 20  1  0  0  0  0
 17 15  1  0  0  0  0
 18 19  1  0  0  0  0
 18 21  1  1  0  0  0
 20 16  1  0  0  0  0
 21 22  1  0  0  0  0
 23 21  1  0  0  0  0
 23 22  1  0  0  0  0
 25 24  1  0  0  0  0
 26 25  1  0  0  0  0
 28 29  1  0  0  0  0
 28 27  1  0  0  0  0
 29 30  1  6  0  0  0
 29 32  1  0  0  0  0
 31 32  2  0  0  0  0
 31 34  1  0  0  0  0
 32 33  1  0  0  0  0
 33 35  2  0  0  0  0
 34 36  1  0  0  0  0
 36 37  1  6  0  0  0
 36 35  1  0  0  0  0
 37 39  1  0  0  0  0
 38 39  1  0  0  0  0
 39 41  1  0  0  0  0
 39 40  1  0  0  0  0
 41 52  1  1  0  0  0
 41 42  1  0  0  0  0
 42 47  2  0  0  0  0
 42 45  1  0  0  0  0
 44 49  1  0  0  0  0
 44 43  2  0  0  0  0
 45 46  1  0  0  0  0
 46 43  1  0  0  0  0
 47 44  1  0  0  0  0
 49 48  2  0  0  0  0
 50 49  2  0  0  0  0
 51 52  1  0  0  0  0
M  END
>  <MODEL>
5

>  <REMARK>
 VINA RESULT:      -6.5      2.133      8.241
  Name = 
  18 active torsions:
  status: ('A' for Active; 'I' for Inactive)
    1  A    between atoms: C_1  and  C_36
    2  A    between atoms: C_2  and  O_14
    3  A    between atoms: C_2  and  C_19
    4  A    between atoms: C_3  and  C_9
    5  A    between atoms: C_4  and  C_30
    6  A    between atoms: C_4  and  C_31
    7  A    between atoms: C_5  and  O_14
    8  A    between atoms: C_5  and  C_43
    9  A    between atoms: C_5  and  C_49
   10  A    between atoms: C_9  and  O_23
   11  A    between atoms: C_9  and  C_28
   12  A    between atoms: N_12  and  C_31
   13  A    between atoms: C_16  and  C_19
   14  A    between atoms: N_17  and  C_38
   15  A    between atoms: N_18  and  C_42
   16  A    between atoms: N_21  and  C_28
   17  A    between atoms: N_21  and  C_52
   18  A    between atoms: C_26  and  C_30
                            x       y       z     vdW  Elec       q    Type
                         _______ _______ _______ _____ _____    ______ ____

>  <TORSDO>
F 18

$$$$
=
 OpenBabel11062413503D

 52 56  0  0  1  0  0  0  0  0999 V2000
  188.0630  177.1840  145.0750 C   0  0  1  0  0  3  0  0  0  0  0  0
  189.7530  176.1420  143.4370 C   0  0  0  0  0  2  0  0  0  0  0  0
  191.7400  177.5810  142.8520 C   0  0  0  0  0  2  0  0  0  0  0  0
  191.1670  178.7050  143.6670 C   0  0  0  0  0  3  0  0  0  0  0  0
  190.6090  176.7140  142.2930 C   0  0  2  0  0  3  0  0  0  0  0  0
  189.5230  177.1080  144.6240 C   0  0  1  0  0  3  0  0  0  0  0  0
  190.1240  178.4850  144.4740 C   0  0  0  0  0  3  0  0  0  0  0  0
  190.0150  177.5730  139.9740 C   0  0  0  0  0  0  0  0  0  0  0  0
  189.1350  178.3520  139.1610 N   0  0  0  0  0  2  0  0  0  0  0  0
  190.9810  176.9490  139.4520 O   0  0  0  0  0  0  0  0  0  0  0  0
  189.7860  177.5040  141.3820 N   0  0  0  0  0  2  0  0  0  0  0  0
  189.2380  178.3940  137.7080 C   0  0  0  0  0  2  0  0  0  0  0  0
  188.0020  177.7600  137.0900 C   0  0  0  0  0  2  0  0  0  0  0  0
  188.0040  176.2550  137.3060 C   0  0  0  0  0  2  0  0  0  0  0  0
  189.6810  175.4970  135.5760 C   0  0  0  0  0  2  0  0  0  0  0  0
  188.6670  173.2010  136.9040 C   0  0  0  0  0  2  0  0  0  0  0  0
  188.2090  175.4990  135.9960 C   0  0  1  0  0  3  0  0  0  0  0  0
  190.4730  174.4690  136.4100 C   0  0  1  0  0  3  0  0  0  0  0  0
  189.9150  173.1870  136.2530 O   0  0  0  0  0  0  0  0  0  0  0  0
  187.6770  174.0680  136.1160 C   0  0  0  0  0  2  0  0  0  0  0  0
  191.9930  174.4180  136.1550 C   0  0  0  0  0  3  0  0  0  0  0  0
  192.6770  175.6640  136.6900 C   0  0  0  0  0  2  0  0  0  0  0  0
  192.8420  174.3450  137.4190 C   0  0  0  0  0  2  0  0  0  0  0  0
  189.2070  176.9190  147.3330 C   0  0  0  0  0  1  0  0  0  0  0  0
  187.8890  177.1070  146.6010 C   0  0  0  0  0  3  0  0  0  0  0  0
  187.2040  178.3590  147.1080 C   0  0  0  0  0  1  0  0  0  0  0  0
  187.4400  178.3080  144.5150 O   0  0  0  0  0  0  0  0  0  0  0  0
  186.3440  177.8150  143.7960 C   0  0  0  0  0  2  0  0  0  0  0  0
  186.5110  178.0800  142.3050 C   0  0  2  0  0  3  0  0  0  0  0  0
  187.4650  179.0820  142.1180 O   0  0  0  0  0  1  0  0  0  0  0  0
  185.1500  178.7890  140.3640 C   0  0  0  0  0  3  0  0  0  0  0  0
  185.2140  178.4810  141.6690 C   0  0  0  0  0  0  0  0  0  0  0  0
  183.9930  178.5350  142.4990 C   0  0  0  0  0  3  0  0  0  0  0  0
  183.8690  179.2970  139.7600 C   0  0  0  0  0  2  0  0  0  0  0  0
  182.7890  178.6550  141.9290 C   0  0  0  0  0  3  0  0  0  0  0  0
  182.6390  178.6620  140.4270 C   0  0  2  0  0  3  0  0  0  0  0  0
  182.4510  177.2950  139.9430 N   0  0  0  0  0  2  0  0  0  0  0  0
  180.3550  178.1050  139.4060 F   0  0  0  0  0  0  0  0  0  0  0  0
  181.3440  177.2360  138.9840 C   0  0  0  0  0  0  0  0  0  0  0  0
  181.7760  177.6540  137.7350 F   0  0  0  0  0  0  0  0  0  0  0  0
  180.7810  175.8010  138.8890 C   0  0  2  0  0  3  0  0  0  0  0  0
  181.0340  175.0550  137.6030 C   0  0  0  0  0  0  0  0  0  0  0  0
  181.7420  173.8780  135.1230 C   0  0  0  0  0  3  0  0  0  0  0  0
  182.4780  173.6360  136.2160 C   0  0  0  0  0  0  0  0  0  0  0  0
  179.9990  175.0050  136.5080 C   0  0  0  0  0  2  0  0  0  0  0  0
  180.6730  174.9370  135.1380 C   0  0  0  0  0  2  0  0  0  0  0  0
  182.1670  174.3550  137.4720 C   0  0  0  0  0  3  0  0  0  0  0  0
  183.6850  171.7600  137.1960 O   0  0  0  0  0  0  0  0  0  0  0  0
  183.5550  172.6880  136.1860 N   0  0  0  0  0  0  0  0  0  0  0  0
  184.4270  172.7440  135.2920 O   0  0  0  0  0  0  0  0  0  0  0  0
  179.4690  174.4720  140.2220 C   0  0  0  0  0  1  0  0  0  0  0  0
  179.4810  175.6260  139.4210 O   0  0  0  0  0  0  0  0  0  0  0  0
  1 27  1  1  0  0  0
  1 25  1  0  0  0  0
  2  6  1  0  0  0  0
  3  4  1  0  0  0  0
  4  7  2  0  0  0  0
  5 11  1  6  0  0  0
  5  3  1  0  0  0  0
  5  2  1  0  0  0  0
  6  1  1  6  0  0  0
  7  6  1  0  0  0  0
  8 11  1  0  0  0  0
  9  8  1  0  0  0  0
 10  8  2  0  0  0  0
 12  9  1  0  0  0  0
 13 14  1  0  0  0  0
 13 12  1  0  0  0  0
 15 17  1  0  0  0  0
 15 18  1  0  0  0  0
 17 20  1  0  0  0  0
 17 14  1  1  0  0  0
 18 21  1  6  0  0  0
 19 18  1  0  0  0  0
 19 16  1  0  0  0  0
 20 16  1  0  0  0  0
 21 22  1  0  0  0  0
 21 23  1  0  0  0  0
 22 23  1  0  0  0  0
 25 26  1  0  0  0  0
 25 24  1  0  0  0  0
 28 27  1  0  0  0  0
 29 30  1  1  0  0  0
 29 28  1  0  0  0  0
 31 32  2  0  0  0  0
 32 29  1  0  0  0  0
 32 33  1  0  0  0  0
 34 31  1  0  0  0  0
 34 36  1  0  0  0  0
 35 33  2  0  0  0  0
 36 37  1  6  0  0  0
 36 35  1  0  0  0  0
 39 38  1  0  0  0  0
 39 37  1  0  0  0  0
 40 39  1  0  0  0  0
 41 39  1  0  0  0  0
 41 52  1  6  0  0  0
 42 41  1  0  0  0  0
 43 46  1  0  0  0  0
 43 44  2  0  0  0  0
 44 47  1  0  0  0  0
 45 42  1  0  0  0  0
 46 45  1  0  0  0  0
 47 42  2  0  0  0  0
 49 44  1  0  0  0  0
 49 48  2  0  0  0  0
 50 49  2  0  0  0  0
 52 51  1  0  0  0  0
M  END
>  <MODEL>
6

>  <REMARK>
 VINA RESULT:      -6.5      1.479      2.117
  Name = 
  18 active torsions:
  status: ('A' for Active; 'I' for Inactive)
    1  A    between atoms: C_1  and  C_36
    2  A    between atoms: C_2  and  O_14
    3  A    between atoms: C_2  and  C_19
    4  A    between atoms: C_3  and  C_9
    5  A    between atoms: C_4  and  C_30
    6  A    between atoms: C_4  and  C_31
    7  A    between atoms: C_5  and  O_14
    8  A    between atoms: C_5  and  C_43
    9  A    between atoms: C_5  and  C_49
   10  A    between atoms: C_9  and  O_23
   11  A    between atoms: C_9  and  C_28
   12  A    between atoms: N_12  and  C_31
   13  A    between atoms: C_16  and  C_19
   14  A    between atoms: N_17  and  C_38
   15  A    between atoms: N_18  and  C_42
   16  A    between atoms: N_21  and  C_28
   17  A    between atoms: N_21  and  C_52
   18  A    between atoms: C_26  and  C_30
                            x       y       z     vdW  Elec       q    Type
                         _______ _______ _______ _____ _____    ______ ____

>  <TORSDO>
F 18

$$$$
=
 OpenBabel11062413503D

 52 56  0  0  1  0  0  0  0  0999 V2000
  187.6310  173.7780  135.9230 C   0  0  1  0  0  3  0  0  0  0  0  0
  185.6200  173.2320  137.4340 C   0  0  0  0  0  2  0  0  0  0  0  0
  183.7240  171.9920  136.3260 C   0  0  0  0  0  2  0  0  0  0  0  0
  184.4380  172.0740  135.0080 C   0  0  0  0  0  3  0  0  0  0  0  0
  184.1000  173.1910  137.1990 C   0  0  2  0  0  3  0  0  0  0  0  0
  186.4780  172.8150  136.2150 C   0  0  1  0  0  3  0  0  0  0  0  0
  185.7120  172.4770  134.9590 C   0  0  0  0  0  3  0  0  0  0  0  0
  182.4010  175.0550  136.8670 C   0  0  0  0  0  0  0  0  0  0  0  0
  182.0580  176.2780  136.2110 N   0  0  0  0  0  2  0  0  0  0  0  0
  181.6130  174.5400  137.7090 O   0  0  0  0  0  0  0  0  0  0  0  0
  183.6460  174.4250  136.5630 N   0  0  0  0  0  2  0  0  0  0  0  0
  180.8570  177.0340  136.5360 C   0  0  0  0  0  2  0  0  0  0  0  0
  181.2390  178.3010  137.2860 C   0  0  0  0  0  2  0  0  0  0  0  0
  181.2650  178.0520  138.7860 C   0  0  0  0  0  2  0  0  0  0  0  0
  182.2500  179.0110  140.9050 C   0  0  0  0  0  2  0  0  0  0  0  0
  183.9210  179.7450  138.7300 C   0  0  0  0  0  2  0  0  0  0  0  0
  181.5870  179.3260  139.5620 C   0  0  1  0  0  3  0  0  0  0  0  0
  183.7330  178.6420  140.6960 C   0  0  1  0  0  3  0  0  0  0  0  0
  184.4060  179.6970  140.0510 O   0  0  0  0  0  0  0  0  0  0  0  0
  182.4740  180.2530  138.7240 C   0  0  0  0  0  2  0  0  0  0  0  0
  184.5090  178.2140  141.9570 C   0  0  0  0  0  3  0  0  0  0  0  0
  185.4270  179.3270  142.4340 C   0  0  0  0  0  2  0  0  0  0  0  0
  184.1630  179.0110  143.2100 C   0  0  0  0  0  2  0  0  0  0  0  0
  190.0390  173.9320  135.1160 C   0  0  0  0  0  1  0  0  0  0  0  0
  188.7290  173.1680  135.0350 C   0  0  0  0  0  3  0  0  0  0  0  0
  188.9630  171.7210  135.4190 C   0  0  0  0  0  1  0  0  0  0  0  0
  187.1360  174.9880  135.4150 O   0  0  0  0  0  0  0  0  0  0  0  0
  187.8880  175.9940  136.0340 C   0  0  0  0  0  2  0  0  0  0  0  0
  187.5650  176.0760  137.5210 C   0  0  2  0  0  3  0  0  0  0  0  0
  186.3550  176.7500  137.6940 O   0  0  0  0  0  1  0  0  0  0  0  0
  188.4020  177.8830  138.9880 C   0  0  0  0  0  3  0  0  0  0  0  0
  188.6540  176.7690  138.2830 C   0  0  0  0  0  0  0  0  0  0  0  0
  190.0210  176.2110  138.2510 C   0  0  0  0  0  3  0  0  0  0  0  0
  189.5210  178.6340  139.6580 C   0  0  0  0  0  2  0  0  0  0  0  0
  190.9570  176.6570  139.0970 C   0  0  0  0  0  3  0  0  0  0  0  0
  190.6230  177.6830  140.1520 C   0  0  2  0  0  3  0  0  0  0  0  0
  190.1960  177.0100  141.3780 N   0  0  0  0  0  2  0  0  0  0  0  0
  192.3870  177.0780  142.1110 F   0  0  0  0  0  0  0  0  0  0  0  0
  191.0860  177.3550  142.4900 C   0  0  0  0  0  0  0  0  0  0  0  0
  191.0000  178.7110  142.7650 F   0  0  0  0  0  0  0  0  0  0  0  0
  190.7210  176.5430  143.7530 C   0  0  2  0  0  3  0  0  0  0  0  0
  189.5160  177.0050  144.5330 C   0  0  0  0  0  0  0  0  0  0  0  0
  187.2280  177.5630  146.1130 C   0  0  0  0  0  3  0  0  0  0  0  0
  188.4430  177.5300  146.6770 C   0  0  0  0  0  0  0  0  0  0  0  0
  188.2470  177.4300  143.8390 C   0  0  0  0  0  2  0  0  0  0  0  0
  187.0280  177.0930  144.6970 C   0  0  0  0  0  2  0  0  0  0  0  0
  189.6090  177.1170  145.8640 C   0  0  0  0  0  3  0  0  0  0  0  0
  187.5430  177.9820  148.8960 O   0  0  0  0  0  0  0  0  0  0  0  0
  188.6280  177.8970  148.0520 N   0  0  0  0  0  0  0  0  0  0  0  0
  189.7590  178.2190  148.4780 O   0  0  0  0  0  0  0  0  0  0  0  0
  192.0650  174.7790  144.3370 C   0  0  0  0  0  1  0  0  0  0  0  0
  191.8170  176.1440  144.5530 O   0  0  0  0  0  0  0  0  0  0  0  0
  1 25  1  6  0  0  0
  3  5  1  0  0  0  0
  4  3  1  0  0  0  0
  5 11  1  6  0  0  0
  5  2  1  0  0  0  0
  6  1  1  6  0  0  0
  6  2  1  0  0  0  0
  7  4  2  0  0  0  0
  7  6  1  0  0  0  0
  8 10  2  0  0  0  0
  9 12  1  0  0  0  0
  9  8  1  0  0  0  0
 11  8  1  0  0  0  0
 12 13  1  0  0  0  0
 13 14  1  0  0  0  0
 16 19  1  0  0  0  0
 17 14  1  6  0  0  0
 17 15  1  0  0  0  0
 18 15  1  0  0  0  0
 18 21  1  1  0  0  0
 19 18  1  0  0  0  0
 20 16  1  0  0  0  0
 20 17  1  0  0  0  0
 21 22  1  0  0  0  0
 21 23  1  0  0  0  0
 22 23  1  0  0  0  0
 25 24  1  0  0  0  0
 25 26  1  0  0  0  0
 27  1  1  0  0  0  0
 27 28  1  0  0  0  0
 28 29  1  0  0  0  0
 29 30  1  6  0  0  0
 29 32  1  0  0  0  0
 31 34  1  0  0  0  0
 32 31  2  0  0  0  0
 33 32  1  0  0  0  0
 33 35  2  0  0  0  0
 34 36  1  0  0  0  0
 35 36  1  0  0  0  0
 36 37  1  1  0  0  0
 37 39  1  0  0  0  0
 38 39  1  0  0  0  0
 39 40  1  0  0  0  0
 39 41  1  0  0  0  0
 41 42  1  0  0  0  0
 41 52  1  1  0  0  0
 42 47  2  0  0  0  0
 43 44  2  0  0  0  0
 44 49  1  0  0  0  0
 45 42  1  0  0  0  0
 45 46  1  0  0  0  0
 46 43  1  0  0  0  0
 47 44  1  0  0  0  0
 49 50  2  0  0  0  0
 49 48  2  0  0  0  0
 51 52  1  0  0  0  0
M  END
>  <MODEL>
7

>  <REMARK>
 VINA RESULT:      -6.4      3.253      9.949
  Name = 
  18 active torsions:
  status: ('A' for Active; 'I' for Inactive)
    1  A    between atoms: C_1  and  C_36
    2  A    between atoms: C_2  and  O_14
    3  A    between atoms: C_2  and  C_19
    4  A    between atoms: C_3  and  C_9
    5  A    between atoms: C_4  and  C_30
    6  A    between atoms: C_4  and  C_31
    7  A    between atoms: C_5  and  O_14
    8  A    between atoms: C_5  and  C_43
    9  A    between atoms: C_5  and  C_49
   10  A    between atoms: C_9  and  O_23
   11  A    between atoms: C_9  and  C_28
   12  A    between atoms: N_12  and  C_31
   13  A    between atoms: C_16  and  C_19
   14  A    between atoms: N_17  and  C_38
   15  A    between atoms: N_18  and  C_42
   16  A    between atoms: N_21  and  C_28
   17  A    between atoms: N_21  and  C_52
   18  A    between atoms: C_26  and  C_30
                            x       y       z     vdW  Elec       q    Type
                         _______ _______ _______ _____ _____    ______ ____

>  <TORSDO>
F 18

$$$$
=
 OpenBabel11062413503D

 52 56  0  0  1  0  0  0  0  0999 V2000
  183.3160  178.7910  141.0840 C   0  0  1  0  0  3  0  0  0  0  0  0
  184.4400  177.5000  143.0070 C   0  0  0  0  0  2  0  0  0  0  0  0
  185.3030  178.9080  144.9130 C   0  0  0  0  0  2  0  0  0  0  0  0
  184.9110  180.1530  144.1720 C   0  0  0  0  0  3  0  0  0  0  0  0
  185.6430  177.7960  143.9190 C   0  0  2  0  0  3  0  0  0  0  0  0
  183.6240  178.7440  142.5820 C   0  0  1  0  0  3  0  0  0  0  0  0
  184.1470  180.0710  143.0770 C   0  0  0  0  0  3  0  0  0  0  0  0
  187.8980  177.3050  142.8490 C   0  0  0  0  0  0  0  0  0  0  0  0
  188.9790  177.7690  142.0360 N   0  0  0  0  0  2  0  0  0  0  0  0
  187.9080  176.1310  143.3130 O   0  0  0  0  0  0  0  0  0  0  0  0
  186.8060  178.1830  143.1250 N   0  0  0  0  0  2  0  0  0  0  0  0
  190.0790  176.9080  141.6250 C   0  0  0  0  0  2  0  0  0  0  0  0
  191.2740  177.1360  142.5370 C   0  0  0  0  0  2  0  0  0  0  0  0
  191.0560  176.4740  143.8880 C   0  0  0  0  0  2  0  0  0  0  0  0
  189.9980  178.0600  145.5470 C   0  0  0  0  0  2  0  0  0  0  0  0
  191.0930  175.8660  146.9790 C   0  0  0  0  0  2  0  0  0  0  0  0
  191.3060  177.4470  145.0380 C   0  0  1  0  0  3  0  0  0  0  0  0
  189.2430  177.0480  146.4330 C   0  0  1  0  0  3  0  0  0  0  0  0
  190.0550  176.6530  147.5130 O   0  0  0  0  0  0  0  0  0  0  0  0
  192.0560  176.7480  146.1750 C   0  0  0  0  0  2  0  0  0  0  0  0
  187.8620  177.4970  146.9490 C   0  0  0  0  0  3  0  0  0  0  0  0
  187.7380  177.2660  148.4450 C   0  0  0  0  0  2  0  0  0  0  0  0
  187.9030  178.6770  147.9140 C   0  0  0  0  0  2  0  0  0  0  0  0
  185.4080  178.2810  139.7280 C   0  0  0  0  0  1  0  0  0  0  0  0
  184.4680  179.3600  140.2390 C   0  0  0  0  0  3  0  0  0  0  0  0
  183.9150  180.1440  139.0680 C   0  0  0  0  0  1  0  0  0  0  0  0
  182.8890  177.5320  140.6370 O   0  0  0  0  0  0  0  0  0  0  0  0
  181.4920  177.6080  140.5690 C   0  0  0  0  0  2  0  0  0  0  0  0
  181.0350  177.9140  139.1480 C   0  0  2  0  0  3  0  0  0  0  0  0
  179.6410  177.8720  139.0930 O   0  0  0  0  0  1  0  0  0  0  0  0
  182.4160  177.3690  137.1690 C   0  0  0  0  0  3  0  0  0  0  0  0
  181.6180  176.9470  138.1630 C   0  0  0  0  0  0  0  0  0  0  0  0
  181.3050  175.5090  138.2950 C   0  0  0  0  0  3  0  0  0  0  0  0
  182.9060  176.4080  136.1200 C   0  0  0  0  0  2  0  0  0  0  0  0
  181.9860  174.5980  137.5900 C   0  0  0  0  0  3  0  0  0  0  0  0
  183.1370  175.0050  136.7040 C   0  0  2  0  0  3  0  0  0  0  0  0
  184.3830  174.9760  137.4670 N   0  0  0  0  0  2  0  0  0  0  0  0
  184.9840  172.9200  138.3350 F   0  0  0  0  0  0  0  0  0  0  0  0
  185.1100  173.7270  137.2190 C   0  0  0  0  0  0  0  0  0  0  0  0
  184.5490  173.0570  136.1420 F   0  0  0  0  0  0  0  0  0  0  0  0
  186.6020  174.0090  136.9380 C   0  0  2  0  0  3  0  0  0  0  0  0
  186.9860  175.4450  136.6860 C   0  0  0  0  0  0  0  0  0  0  0  0
  187.5170  178.2220  136.4690 C   0  0  0  0  0  3  0  0  0  0  0  0
  188.1790  177.4800  137.3660 C   0  0  0  0  0  0  0  0  0  0  0  0
  186.5470  176.1680  135.4370 C   0  0  0  0  0  2  0  0  0  0  0  0
  186.3390  177.6550  135.7240 C   0  0  0  0  0  2  0  0  0  0  0  0
  187.8030  176.0600  137.5500 C   0  0  0  0  0  3  0  0  0  0  0  0
  189.0630  179.2220  138.8220 O   0  0  0  0  0  0  0  0  0  0  0  0
  189.2500  178.0390  138.1410 N   0  0  0  0  0  0  0  0  0  0  0  0
  190.3810  177.5060  138.1420 O   0  0  0  0  0  0  0  0  0  0  0  0
  188.0400  172.2230  136.8780 C   0  0  0  0  0  1  0  0  0  0  0  0
  187.2460  173.0750  136.0940 O   0  0  0  0  0  0  0  0  0  0  0  0
  1 25  1  6  0  0  0
  2  5  1  0  0  0  0
  4  3  1  0  0  0  0
  5 11  1  6  0  0  0
  5  3  1  0  0  0  0
  6  1  1  6  0  0  0
  6  2  1  0  0  0  0
  6  7  1  0  0  0  0
  7  4  2  0  0  0  0
  8 11  1  0  0  0  0
  8 10  2  0  0  0  0
  9  8  1  0  0  0  0
 12  9  1  0  0  0  0
 12 13  1  0  0  0  0
 13 14  1  0  0  0  0
 15 18  1  0  0  0  0
 16 19  1  0  0  0  0
 17 14  1  6  0  0  0
 17 15  1  0  0  0  0
 17 20  1  0  0  0  0
 18 21  1  1  0  0  0
 18 19  1  0  0  0  0
 20 16  1  0  0  0  0
 21 23  1  0  0  0  0
 21 22  1  0  0  0  0
 23 22  1  0  0  0  0
 24 25  1  0  0  0  0
 26 25  1  0  0  0  0
 27  1  1  0  0  0  0
 28 27  1  0  0  0  0
 29 30  1  1  0  0  0
 29 28  1  0  0  0  0
 31 32  2  0  0  0  0
 32 33  1  0  0  0  0
 32 29  1  0  0  0  0
 34 36  1  0  0  0  0
 34 31  1  0  0  0  0
 35 33  2  0  0  0  0
 36 37  1  1  0  0  0
 36 35  1  0  0  0  0
 39 37  1  0  0  0  0
 39 38  1  0  0  0  0
 40 39  1  0  0  0  0
 41 52  1  6  0  0  0
 41 39  1  0  0  0  0
 42 41  1  0  0  0  0
 42 47  2  0  0  0  0
 43 44  2  0  0  0  0
 44 47  1  0  0  0  0
 44 49  1  0  0  0  0
 45 46  1  0  0  0  0
 45 42  1  0  0  0  0
 46 43  1  0  0  0  0
 49 50  2  0  0  0  0
 49 48  2  0  0  0  0
 52 51  1  0  0  0  0
M  END
>  <MODEL>
8

>  <REMARK>
 VINA RESULT:      -6.3      2.334      7.692
  Name = 
  18 active torsions:
  status: ('A' for Active; 'I' for Inactive)
    1  A    between atoms: C_1  and  C_36
    2  A    between atoms: C_2  and  O_14
    3  A    between atoms: C_2  and  C_19
    4  A    between atoms: C_3  and  C_9
    5  A    between atoms: C_4  and  C_30
    6  A    between atoms: C_4  and  C_31
    7  A    between atoms: C_5  and  O_14
    8  A    between atoms: C_5  and  C_43
    9  A    between atoms: C_5  and  C_49
   10  A    between atoms: C_9  and  O_23
   11  A    between atoms: C_9  and  C_28
   12  A    between atoms: N_12  and  C_31
   13  A    between atoms: C_16  and  C_19
   14  A    between atoms: N_17  and  C_38
   15  A    between atoms: N_18  and  C_42
   16  A    between atoms: N_21  and  C_28
   17  A    between atoms: N_21  and  C_52
   18  A    between atoms: C_26  and  C_30
                            x       y       z     vdW  Elec       q    Type
                         _______ _______ _______ _____ _____    ______ ____

>  <TORSDO>
F 18

$$$$
=
 OpenBabel11062413503D

 52 56  0  0  1  0  0  0  0  0999 V2000
  187.5340  177.3450  144.8870 C   0  0  1  0  0  3  0  0  0  0  0  0
  189.2400  176.0030  143.5040 C   0  0  0  0  0  2  0  0  0  0  0  0
  191.5050  177.0760  143.2190 C   0  0  0  0  0  2  0  0  0  0  0  0
  191.0200  178.2950  143.9500 C   0  0  0  0  0  3  0  0  0  0  0  0
  190.3360  176.4010  142.4990 C   0  0  2  0  0  3  0  0  0  0  0  0
  189.0100  177.0160  144.6500 C   0  0  1  0  0  3  0  0  0  0  0  0
  189.8500  178.2690  144.5960 C   0  0  0  0  0  3  0  0  0  0  0  0
  190.0650  177.1620  140.0870 C   0  0  0  0  0  0  0  0  0  0  0  0
  189.4680  178.0770  139.1660 N   0  0  0  0  0  2  0  0  0  0  0  0
  190.8190  176.2380  139.6700 O   0  0  0  0  0  0  0  0  0  0  0  0
  189.7970  177.3010  141.4820 N   0  0  0  0  0  2  0  0  0  0  0  0
  189.6090  177.9450  137.7230 C   0  0  0  0  0  2  0  0  0  0  0  0
  188.5060  178.7280  137.0280 C   0  0  0  0  0  2  0  0  0  0  0  0
  187.1440  178.1240  137.3300 C   0  0  0  0  0  2  0  0  0  0  0  0
  187.3510  176.4930  135.4120 C   0  0  0  0  0  2  0  0  0  0  0  0
  185.2100  175.6500  137.0760 C   0  0  0  0  0  2  0  0  0  0  0  0
  186.4830  177.5690  136.0710 C   0  0  1  0  0  3  0  0  0  0  0  0
  187.2310  175.1630  136.1830 C   0  0  1  0  0  3  0  0  0  0  0  0
  185.8860  174.7510  136.2290 O   0  0  0  0  0  0  0  0  0  0  0  0
  185.0910  177.0190  136.3960 C   0  0  0  0  0  2  0  0  0  0  0  0
  188.1200  174.0070  135.6820 C   0  0  0  0  0  3  0  0  0  0  0  0
  189.5860  174.4050  135.6930 C   0  0  0  0  0  2  0  0  0  0  0  0
  189.0620  173.4360  136.7350 C   0  0  0  0  0  2  0  0  0  0  0  0
  188.3510  178.0280  147.1980 C   0  0  0  0  0  1  0  0  0  0  0  0
  187.1780  177.5300  146.3710 C   0  0  0  0  0  3  0  0  0  0  0  0
  186.0170  178.4930  146.5100 C   0  0  0  0  0  1  0  0  0  0  0  0
  187.1480  178.4390  144.0980 O   0  0  0  0  0  0  0  0  0  0  0  0
  186.0160  178.0150  143.3910 C   0  0  0  0  0  2  0  0  0  0  0  0
  186.2280  178.1620  141.8890 C   0  0  2  0  0  3  0  0  0  0  0  0
  187.2510  179.0820  141.6550 O   0  0  0  0  0  1  0  0  0  0  0  0
  184.9930  178.9940  139.9130 C   0  0  0  0  0  3  0  0  0  0  0  0
  184.9730  178.6020  141.1970 C   0  0  0  0  0  0  0  0  0  0  0  0
  183.7000  178.6030  141.9470 C   0  0  0  0  0  3  0  0  0  0  0  0
  183.7510  179.5390  139.2610 C   0  0  0  0  0  2  0  0  0  0  0  0
  182.5350  178.7590  141.3090 C   0  0  0  0  0  3  0  0  0  0  0  0
  182.4830  178.8620  139.8050 C   0  0  2  0  0  3  0  0  0  0  0  0
  182.3340  177.5290  139.2220 N   0  0  0  0  0  2  0  0  0  0  0  0
  182.1730  178.5630  137.1620 F   0  0  0  0  0  0  0  0  0  0  0  0
  181.5890  177.5990  137.9620 C   0  0  0  0  0  0  0  0  0  0  0  0
  181.6670  176.3850  137.2970 F   0  0  0  0  0  0  0  0  0  0  0  0
  180.1090  177.9560  138.2220 C   0  0  2  0  0  3  0  0  0  0  0  0
  179.7550  179.4220  138.2350 C   0  0  0  0  0  0  0  0  0  0  0  0
  179.4140  182.2360  138.2900 C   0  0  0  0  0  3  0  0  0  0  0  0
  179.7860  181.6270  137.1570 C   0  0  0  0  0  0  0  0  0  0  0  0
  178.9650  180.0300  139.3660 C   0  0  0  0  0  2  0  0  0  0  0  0
  179.3850  181.4820  139.5920 C   0  0  0  0  0  2  0  0  0  0  0  0
  180.0790  180.1760  137.1770 C   0  0  0  0  0  3  0  0  0  0  0  0
  180.7760  181.9410  134.9530 O   0  0  0  0  0  0  0  0  0  0  0  0
  179.8970  182.3590  135.9270 N   0  0  0  0  0  0  0  0  0  0  0  0
  179.2600  183.4220  135.7610 O   0  0  0  0  0  0  0  0  0  0  0  0
  178.9500  176.0230  138.6500 C   0  0  0  0  0  1  0  0  0  0  0  0
  179.4700  177.1920  139.2280 O   0  0  0  0  0  0  0  0  0  0  0  0
  1 27  1  6  0  0  0
  1 25  1  0  0  0  0
  2  6  1  0  0  0  0
  3  4  1  0  0  0  0
  4  7  2  0  0  0  0
  5 11  1  6  0  0  0
  5  3  1  0  0  0  0
  5  2  1  0  0  0  0
  6  1  1  6  0  0  0
  7  6  1  0  0  0  0
  8 11  1  0  0  0  0
  9  8  1  0  0  0  0
 10  8  2  0  0  0  0
 12  9  1  0  0  0  0
 13 14  1  0  0  0  0
 13 12  1  0  0  0  0
 15 17  1  0  0  0  0
 15 18  1  0  0  0  0
 17 20  1  0  0  0  0
 17 14  1  1  0  0  0
 18 21  1  6  0  0  0
 18 19  1  0  0  0  0
 19 16  1  0  0  0  0
 20 16  1  0  0  0  0
 21 22  1  0  0  0  0
 21 23  1  0  0  0  0
 22 23  1  0  0  0  0
 25 26  1  0  0  0  0
 25 24  1  0  0  0  0
 28 27  1  0  0  0  0
 29 30  1  1  0  0  0
 29 28  1  0  0  0  0
 31 32  2  0  0  0  0
 32 29  1  0  0  0  0
 32 33  1  0  0  0  0
 34 36  1  0  0  0  0
 34 31  1  0  0  0  0
 35 33  2  0  0  0  0
 36 37  1  6  0  0  0
 36 35  1  0  0  0  0
 38 39  1  0  0  0  0
 39 41  1  0  0  0  0
 39 37  1  0  0  0  0
 40 39  1  0  0  0  0
 41 42  1  0  0  0  0
 41 52  1  1  0  0  0
 42 45  1  0  0  0  0
 43 46  1  0  0  0  0
 44 47  1  0  0  0  0
 44 43  2  0  0  0  0
 45 46  1  0  0  0  0
 47 42  2  0  0  0  0
 48 49  2  0  0  0  0
 49 44  1  0  0  0  0
 50 49  2  0  0  0  0
 51 52  1  0  0  0  0
M  END
>  <MODEL>
9

>  <REMARK>
 VINA RESULT:      -6.3      2.428      3.824
  Name = 
  18 active torsions:
  status: ('A' for Active; 'I' for Inactive)
    1  A    between atoms: C_1  and  C_36
    2  A    between atoms: C_2  and  O_14
    3  A    between atoms: C_2  and  C_19
    4  A    between atoms: C_3  and  C_9
    5  A    between atoms: C_4  and  C_30
    6  A    between atoms: C_4  and  C_31
    7  A    between atoms: C_5  and  O_14
    8  A    between atoms: C_5  and  C_43
    9  A    between atoms: C_5  and  C_49
   10  A    between atoms: C_9  and  O_23
   11  A    between atoms: C_9  and  C_28
   12  A    between atoms: N_12  and  C_31
   13  A    between atoms: C_16  and  C_19
   14  A    between atoms: N_17  and  C_38
   15  A    between atoms: N_18  and  C_42
   16  A    between atoms: N_21  and  C_28
   17  A    between atoms: N_21  and  C_52
   18  A    between atoms: C_26  and  C_30
                            x       y       z     vdW  Elec       q    Type
                         _______ _______ _______ _____ _____    ______ ____

>  <TORSDO>
F 18

$$$$
