=
 OpenBabel11062415103D

 55 64  0  0  1  0  0  0  0  0999 V2000
  184.0920  178.8780  140.6420 C   0  0  0  0  0  0  0  0  0  0  0  0
  185.4480  178.5240  140.1580 C   0  0  0  0  0  0  0  0  0  0  0  0
  185.3450  178.0200  142.2960 C   0  0  0  0  0  0  0  0  0  0  0  0
  186.0820  178.0290  143.4670 C   0  0  0  0  0  0  0  0  0  0  0  0
  187.4360  178.0320  141.6780 C   0  0  0  0  0  0  0  0  0  0  0  0
  188.5940  178.2010  143.9730 C   0  0  0  0  0  1  0  0  0  0  0  0
  185.9380  178.7380  139.0220 O   0  0  0  0  0  0  0  0  0  0  0  0
  187.4210  178.0110  143.0760 C   0  0  0  0  0  0  0  0  0  0  0  0
  186.1590  177.9840  141.2500 N   0  0  0  0  0  0  0  0  0  0  0  0
  184.0270  178.5840  141.9540 C   0  0  0  0  0  3  0  0  0  0  0  0
  181.1180  177.7320  137.1610 C   0  0  0  0  0  2  0  0  0  0  0  0
  181.6290  175.4520  138.1230 C   0  0  0  0  0  2  0  0  0  0  0  0
  182.9370  179.4820  139.8790 C   0  0  2  0  0  3  0  0  0  0  0  0
  180.9310  178.7560  138.2750 C   0  0  1  0  0  3  0  0  0  0  0  0
  180.5430  176.3820  137.5750 C   0  0  0  0  0  2  0  0  0  0  0  0
  181.6250  179.4450  140.6460 C   0  0  0  0  0  2  0  0  0  0  0  0
  182.5880  176.1110  139.1180 C   0  0  0  0  0  2  0  0  0  0  0  0
  181.8450  178.4740  139.5030 C   0  0  2  0  0  0  0  0  0  0  0  0
  181.8670  177.0480  140.0680 C   0  0  0  0  0  2  0  0  0  0  0  0
  179.6990  181.3160  138.2730 S   0  0  0  0  0  0  0  0  0  0  0  0
  180.9480  180.1610  137.6510 C   0  0  2  0  0  3  0  0  0  0  0  0
  180.2020  182.4030  136.9130 C   0  0  1  0  0  3  0  0  0  0  0  0
  180.3320  181.5140  135.6870 C   0  0  0  0  0  2  0  0  0  0  0  0
  180.9430  180.1920  136.1320 C   0  0  0  0  0  2  0  0  0  0  0  0
  179.2410  183.4900  136.7020 N   0  0  0  0  0  0  0  0  0  0  0  0
  178.9310  184.0830  138.0150 C   0  0  0  0  0  3  0  0  0  0  0  0
  180.0750  185.6770  136.8300 C   0  0  0  0  0  3  0  0  0  0  0  0
  179.5020  186.4080  139.1170 C   0  0  0  0  0  1  0  0  0  0  0  0
  179.9090  184.5280  136.0220 N   0  0  0  0  0  0  0  0  0  0  0  0
  179.5110  185.4490  137.9830 C   0  0  0  0  0  0  0  0  0  0  0  0
  186.0810  177.6030  145.8570 O   0  0  0  0  0  1  0  0  0  0  0  0
  185.5940  178.2780  144.7880 N   0  0  0  0  0  2  0  0  0  0  0  0
  188.6030  178.3820  140.8050 C   0  0  0  0  0  2  0  0  0  0  0  0
  192.1530  176.6340  138.4840 C   0  0  0  0  0  0  0  0  0  0  0  0
  189.3200  177.1410  140.2800 C   0  0  2  0  0  3  0  0  0  0  0  0
  191.3150  176.1940  137.4910 C   0  0  0  0  0  0  0  0  0  0  0  0
  194.0110  175.5200  137.4550 C   0  0  0  0  0  3  0  0  0  0  0  0
  190.3110  176.6600  141.2550 N   0  0  0  0  0  2  0  0  0  0  0  0
  191.4630  177.3790  139.4670 N   0  0  0  0  0  0  0  0  0  0  0  0
  191.5910  177.0660  140.8220 N   0  0  0  0  0  2  0  0  0  0  0  0
  191.7920  175.3980  136.4460 C   0  0  0  0  0  3  0  0  0  0  0  0
  189.9070  176.6050  137.7850 C   0  0  2  0  0  0  0  0  0  0  0  0
  193.1560  175.0680  136.4280 C   0  0  0  0  0  3  0  0  0  0  0  0
  190.0900  177.5210  139.0390 C   0  0  1  0  0  3  0  0  0  0  0  0
  193.5100  176.3050  138.5020 C   0  0  0  0  0  3  0  0  0  0  0  0
  188.8200  174.6580  136.8120 O   0  0  0  0  0  1  0  0  0  0  0  0
  189.0150  175.3670  137.9980 C   0  0  0  0  0  2  0  0  0  0  0  0
  189.3830  177.4450  136.6260 C   0  0  0  0  0  2  0  0  0  0  0  0
  188.0170  178.0550  136.9310 C   0  0  0  0  0  2  0  0  0  0  0  0
  186.2860  176.0460  134.5940 C   0  0  0  0  0  2  0  0  0  0  0  0
  187.0920  177.9440  135.7340 C   0  0  2  0  0  3  0  0  0  0  0  0
  185.7400  177.6400  136.1840 N   0  0  0  0  0  2  0  0  0  0  0  0
  185.3720  176.3780  135.6790 N   0  0  0  0  0  0  0  0  0  0  0  0
  187.5430  176.8270  134.8340 C   0  0  0  0  0  2  0  0  0  0  0  0
  184.0480  176.5220  135.0970 C   0  0  0  0  0  1  0  0  0  0  0  0
  1 10  2  0  0  0  0
  2  1  1  0  0  0  0
  2  9  1  0  0  0  0
  3  4  2  0  0  0  0
  4 32  1  0  0  0  0
  5  8  2  0  0  0  0
  7  2  2  0  0  0  0
  8  4  1  0  0  0  0
  8  6  1  0  0  0  0
  9  5  1  0  0  0  0
  9  3  1  0  0  0  0
 10  3  1  0  0  0  0
 11 15  1  0  0  0  0
 12 17  1  0  0  0  0
 13  1  1  1  0  0  0
 13 16  1  0  0  0  0
 14 11  1  6  0  0  0
 14 18  1  0  0  0  0
 15 12  1  0  0  0  0
 17 19  1  0  0  0  0
 18 13  1  0  0  0  0
 18 19  1  1  0  0  0
 18 16  1  0  0  0  0
 21 24  1  6  0  0  0
 21 20  1  0  0  0  0
 21 14  1  0  0  0  0
 22 23  1  6  0  0  0
 22 20  1  0  0  0  0
 23 24  1  0  0  0  0
 25 22  1  0  0  0  0
 25 26  1  0  0  0  0
 27 30  1  0  0  0  0
 29 25  1  0  0  0  0
 29 27  2  0  0  0  0
 30 26  2  0  0  0  0
 30 28  1  0  0  0  0
 32 31  1  0  0  0  0
 33  5  1  0  0  0  0
 34 45  1  0  0  0  0
 34 39  1  0  0  0  0
 35 33  1  1  0  0  0
 35 38  1  0  0  0  0
 36 42  1  0  0  0  0
 36 34  2  0  0  0  0
 37 45  2  0  0  0  0
 39 40  1  0  0  0  0
 40 38  1  0  0  0  0
 41 36  1  0  0  0  0
 42 48  1  6  0  0  0
 42 47  1  0  0  0  0
 42 44  1  0  0  0  0
 43 41  2  0  0  0  0
 43 37  1  0  0  0  0
 44 39  1  1  0  0  0
 44 35  1  0  0  0  0
 46 47  1  0  0  0  0
 48 49  1  0  0  0  0
 50 54  1  0  0  0  0
 50 53  1  0  0  0  0
 51 52  1  0  0  0  0
 51 49  1  1  0  0  0
 53 52  1  0  0  0  0
 54 51  1  0  0  0  0
 55 53  1  0  0  0  0
M  END
>  <MODEL>
1

>  <REMARK>
 VINA RESULT:      -8.0      0.000      0.000
  Name = 
  10 active torsions:
  status: ('A' for Active; 'I' for Inactive)
    1  A    between atoms: N_3  and  C_30
    2  A    between atoms: C_5  and  C_19
    3  A    between atoms: C_8  and  C_23
    4  A    between atoms: C_15  and  C_31
    5  A    between atoms: C_15  and  C_47
    6  A    between atoms: C_20  and  C_27
    7  A    between atoms: C_22  and  C_31
    8  A    between atoms: C_23  and  C_33
    9  A    between atoms: C_28  and  N_52
   10  A    between atoms: C_45  and  C_47
                            x       y       z     vdW  Elec       q    Type
                         _______ _______ _______ _____ _____    ______ ____

>  <TORSDO>
F 10

$$$$
=
 OpenBabel11062415103D

 55 64  0  0  1  0  0  0  0  0999 V2000
  186.1420  178.5960  139.0270 C   0  0  0  0  0  0  0  0  0  0  0  0
  187.1260  178.1240  140.0300 C   0  0  0  0  0  0  0  0  0  0  0  0
  188.2120  178.5250  138.1600 C   0  0  0  0  0  0  0  0  0  0  0  0
  189.2390  178.0560  137.3610 C   0  0  0  0  0  0  0  0  0  0  0  0
  189.4870  177.3370  139.4710 C   0  0  0  0  0  0  0  0  0  0  0  0
  191.2090  176.4590  137.7680 C   0  0  0  0  0  1  0  0  0  0  0  0
  186.8980  177.7050  141.1920 O   0  0  0  0  0  0  0  0  0  0  0  0
  190.0710  177.3160  138.2010 C   0  0  0  0  0  0  0  0  0  0  0  0
  188.3930  178.1230  139.4100 N   0  0  0  0  0  0  0  0  0  0  0  0
  186.7990  178.8310  137.8750 C   0  0  0  0  0  3  0  0  0  0  0  0
  182.1930  177.9650  136.5210 C   0  0  0  0  0  2  0  0  0  0  0  0
  183.6770  176.1740  135.5340 C   0  0  0  0  0  2  0  0  0  0  0  0
  184.6510  178.7890  139.1740 C   0  0  2  0  0  3  0  0  0  0  0  0
  182.3600  178.0290  138.0350 C   0  0  1  0  0  3  0  0  0  0  0  0
  182.2720  176.5230  136.0350 C   0  0  0  0  0  2  0  0  0  0  0  0
  183.9810  177.6980  139.9940 C   0  0  0  0  0  2  0  0  0  0  0  0
  184.8120  176.6410  136.4490 C   0  0  0  0  0  2  0  0  0  0  0  0
  183.8140  177.7040  138.4880 C   0  0  2  0  0  0  0  0  0  0  0  0
  184.4790  176.4450  137.9150 C   0  0  0  0  0  2  0  0  0  0  0  0
  180.1210  179.7570  137.7720 S   0  0  0  0  0  0  0  0  0  0  0  0
  181.7020  179.3220  138.5430 C   0  0  2  0  0  3  0  0  0  0  0  0
  180.2810  181.3470  138.6280 C   0  0  1  0  0  3  0  0  0  0  0  0
  181.7250  181.7830  138.4440 C   0  0  0  0  0  2  0  0  0  0  0  0
  182.6040  180.5440  138.5550 C   0  0  0  0  0  2  0  0  0  0  0  0
  179.3390  182.3420  138.1060 N   0  0  1  0  0  0  0  0  0  0  0  0
  180.0900  183.5800  137.8350 C   0  0  0  0  0  2  0  0  0  0  0  0
  179.4170  182.7640  135.8020 C   0  0  0  0  0  3  0  0  0  0  0  0
  180.7740  184.8170  135.6110 C   0  0  0  0  0  1  0  0  0  0  0  0
  178.9320  181.9170  136.8250 N   0  0  0  0  0  2  0  0  0  0  0  0
  180.0820  183.7370  136.3580 C   0  0  0  0  0  0  0  0  0  0  0  0
  188.3020  177.5770  135.1730 O   0  0  0  0  0  1  0  0  0  0  0  0
  189.3000  178.0890  135.9320 N   0  0  0  0  0  2  0  0  0  0  0  0
  189.7940  176.4090  140.6070 C   0  0  0  0  0  2  0  0  0  0  0  0
  190.9870  176.2740  145.0350 C   0  0  0  0  0  0  0  0  0  0  0  0
  190.3430  177.1520  141.8220 C   0  0  2  0  0  3  0  0  0  0  0  0
  189.9630  177.1270  145.3600 C   0  0  0  0  0  0  0  0  0  0  0  0
  191.8190  176.3640  147.2830 C   0  0  0  0  0  3  0  0  0  0  0  0
  191.8060  177.0190  141.8980 N   0  0  0  0  0  2  0  0  0  0  0  0
  190.9680  175.9200  143.6670 N   0  0  0  0  0  0  0  0  0  0  0  0
  192.1130  176.0520  142.8780 N   0  0  0  0  0  2  0  0  0  0  0  0
  189.8320  177.6340  146.6550 C   0  0  0  0  0  3  0  0  0  0  0  0
  189.1640  177.4600  144.1400 C   0  0  2  0  0  0  0  0  0  0  0  0
  190.7660  177.2380  147.6250 C   0  0  0  0  0  3  0  0  0  0  0  0
  189.7900  176.5070  143.0690 C   0  0  1  0  0  3  0  0  0  0  0  0
  191.9420  175.8780  145.9740 C   0  0  0  0  0  3  0  0  0  0  0  0
  190.5560  179.4500  144.0120 O   0  0  0  0  0  1  0  0  0  0  0  0
  189.2620  178.9640  143.8220 C   0  0  0  0  0  2  0  0  0  0  0  0
  187.7120  177.0600  144.3750 C   0  0  0  0  0  2  0  0  0  0  0  0
  186.8130  178.2720  144.6080 C   0  0  0  0  0  2  0  0  0  0  0  0
  183.4480  179.0840  145.3220 C   0  0  0  0  0  2  0  0  0  0  0  0
  185.3530  177.8630  144.6670 C   0  0  2  0  0  3  0  0  0  0  0  0
  184.6570  178.3550  143.4860 N   0  0  0  0  0  2  0  0  0  0  0  0
  183.6730  179.2740  143.8950 N   0  0  0  0  0  0  0  0  0  0  0  0
  184.6960  178.4670  145.8770 C   0  0  0  0  0  2  0  0  0  0  0  0
  182.4410  178.9100  143.2140 C   0  0  0  0  0  1  0  0  0  0  0  0
  1  2  1  0  0  0  0
  2  7  2  0  0  0  0
  3  9  1  0  0  0  0
  4  3  2  0  0  0  0
  4  8  1  0  0  0  0
  5 33  1  0  0  0  0
  6  8  1  0  0  0  0
  8  5  2  0  0  0  0
  9  5  1  0  0  0  0
  9  2  1  0  0  0  0
 10  3  1  0  0  0  0
 10  1  2  0  0  0  0
 12 15  1  0  0  0  0
 12 17  1  0  0  0  0
 13  1  1  6  0  0  0
 13 16  1  0  0  0  0
 14 11  1  6  0  0  0
 14 18  1  0  0  0  0
 14 21  1  0  0  0  0
 15 11  1  0  0  0  0
 17 19  1  0  0  0  0
 18 19  1  6  0  0  0
 18 13  1  0  0  0  0
 18 16  1  0  0  0  0
 20 21  1  0  0  0  0
 20 22  1  0  0  0  0
 21 24  1  6  0  0  0
 22 23  1  6  0  0  0
 23 24  1  0  0  0  0
 25 26  1  6  0  0  0
 25 22  1  0  0  0  0
 27 30  2  0  0  0  0
 27 29  1  0  0  0  0
 28 30  1  0  0  0  0
 29 25  1  0  0  0  0
 30 26  1  0  0  0  0
 31 32  1  0  0  0  0
 32  4  1  0  0  0  0
 34 36  2  0  0  0  0
 34 45  1  0  0  0  0
 35 33  1  6  0  0  0
 35 38  1  0  0  0  0
 35 44  1  0  0  0  0
 36 41  1  0  0  0  0
 37 43  1  0  0  0  0
 38 40  1  0  0  0  0
 39 34  1  0  0  0  0
 40 39  1  0  0  0  0
 41 43  2  0  0  0  0
 42 47  1  6  0  0  0
 42 48  1  0  0  0  0
 42 36  1  0  0  0  0
 44 39  1  1  0  0  0
 44 42  1  0  0  0  0
 45 37  2  0  0  0  0
 47 46  1  0  0  0  0
 48 49  1  0  0  0  0
 50 54  1  0  0  0  0
 51 49  1  6  0  0  0
 51 54  1  0  0  0  0
 52 53  1  0  0  0  0
 52 51  1  0  0  0  0
 53 50  1  0  0  0  0
 55 53  1  0  0  0  0
M  END
>  <MODEL>
2

>  <REMARK>
 VINA RESULT:      -7.9      2.262      5.997
  Name = 
  10 active torsions:
  status: ('A' for Active; 'I' for Inactive)
    1  A    between atoms: N_3  and  C_30
    2  A    between atoms: C_5  and  C_19
    3  A    between atoms: C_8  and  C_23
    4  A    between atoms: C_15  and  C_31
    5  A    between atoms: C_15  and  C_47
    6  A    between atoms: C_20  and  C_27
    7  A    between atoms: C_22  and  C_31
    8  A    between atoms: C_23  and  C_33
    9  A    between atoms: C_28  and  N_52
   10  A    between atoms: C_45  and  C_47
                            x       y       z     vdW  Elec       q    Type
                         _______ _______ _______ _____ _____    ______ ____

>  <TORSDO>
F 10

$$$$
=
 OpenBabel11062415103D

 55 64  0  0  1  0  0  0  0  0999 V2000
  182.4560  177.8770  139.7220 C   0  0  0  0  0  0  0  0  0  0  0  0
  183.8160  177.6880  140.2790 C   0  0  0  0  0  0  0  0  0  0  0  0
  182.4610  178.1320  141.9530 C   0  0  0  0  0  0  0  0  0  0  0  0
  182.3800  178.8130  143.1540 C   0  0  0  0  0  0  0  0  0  0  0  0
  184.5180  178.3820  142.6310 C   0  0  0  0  0  0  0  0  0  0  0  0
  184.1360  179.7820  144.7600 C   0  0  0  0  0  1  0  0  0  0  0  0
  184.8870  177.5110  139.6470 O   0  0  0  0  0  0  0  0  0  0  0  0
  183.6930  178.9540  143.6040 C   0  0  0  0  0  0  0  0  0  0  0  0
  183.7270  177.8510  141.6780 N   0  0  0  0  0  0  0  0  0  0  0  0
  181.6230  178.1620  140.7410 C   0  0  0  0  0  3  0  0  0  0  0  0
  179.6490  180.2250  136.7420 C   0  0  0  0  0  2  0  0  0  0  0  0
  180.3520  182.0840  138.3030 C   0  0  0  0  0  2  0  0  0  0  0  0
  181.9970  177.8030  138.2850 C   0  0  2  0  0  3  0  0  0  0  0  0
  180.8310  179.3160  136.4220 C   0  0  1  0  0  3  0  0  0  0  0  0
  180.1050  181.6760  136.8470 C   0  0  0  0  0  2  0  0  0  0  0  0
  183.0280  178.3250  137.2970 C   0  0  0  0  0  2  0  0  0  0  0  0
  181.1480  181.0650  139.1220 C   0  0  0  0  0  2  0  0  0  0  0  0
  181.8130  179.1710  137.6200 C   0  0  2  0  0  0  0  0  0  0  0  0
  182.2820  180.4530  138.3220 C   0  0  0  0  0  2  0  0  0  0  0  0
  179.4650  176.8610  136.8450 S   0  0  0  0  0  0  0  0  0  0  0  0
  180.2950  178.0420  135.7500 C   0  0  2  0  0  3  0  0  0  0  0  0
  179.4960  175.7200  135.4380 C   0  0  1  0  0  3  0  0  0  0  0  0
  180.8850  175.8340  134.8310 C   0  0  0  0  0  2  0  0  0  0  0  0
  181.2990  177.2980  134.8850 C   0  0  0  0  0  2  0  0  0  0  0  0
  179.1880  174.3460  135.8460 N   0  0  1  0  0  0  0  0  0  0  0  0
  180.3290  173.4930  135.4690 C   0  0  0  0  0  2  0  0  0  0  0  0
  180.2770  173.5430  137.7600 C   0  0  0  0  0  3  0  0  0  0  0  0
  182.1660  172.2270  136.8700 C   0  0  0  0  0  1  0  0  0  0  0  0
  179.1980  174.3040  137.2550 N   0  0  0  0  0  2  0  0  0  0  0  0
  180.9410  173.0560  136.7490 C   0  0  0  0  0  0  0  0  0  0  0  0
  180.5020  180.3370  142.9440 O   0  0  0  0  0  1  0  0  0  0  0  0
  181.2310  179.4750  143.6920 N   0  0  0  0  0  2  0  0  0  0  0  0
  185.9930  178.5980  142.4760 C   0  0  0  0  0  2  0  0  0  0  0  0
  189.2490  177.6390  145.5630 C   0  0  0  0  0  0  0  0  0  0  0  0
  186.8090  177.5360  143.2090 C   0  0  2  0  0  3  0  0  0  0  0  0
  190.0700  177.1510  144.5780 C   0  0  0  0  0  0  0  0  0  0  0  0
  190.7970  176.9270  147.2510 C   0  0  0  0  0  3  0  0  0  0  0  0
  186.1480  177.1450  144.4640 N   0  0  0  0  0  2  0  0  0  0  0  0
  188.0560  178.1820  145.0370 N   0  0  0  0  0  0  0  0  0  0  0  0
  186.8110  177.7860  145.5320 N   0  0  0  0  0  2  0  0  0  0  0  0
  191.2810  176.5290  144.8920 C   0  0  0  0  0  3  0  0  0  0  0  0
  189.4170  177.3030  143.2410 C   0  0  2  0  0  0  0  0  0  0  0  0
  191.6480  176.4270  146.2440 C   0  0  0  0  0  3  0  0  0  0  0  0
  188.1400  178.1330  143.5940 C   0  0  1  0  0  3  0  0  0  0  0  0
  189.5790  177.5340  146.9160 C   0  0  0  0  0  3  0  0  0  0  0  0
  190.1620  175.0110  142.9130 O   0  0  0  0  0  1  0  0  0  0  0  0
  189.1520  175.9240  142.6080 C   0  0  0  0  0  2  0  0  0  0  0  0
  190.3200  178.1370  142.3400 C   0  0  0  0  0  2  0  0  0  0  0  0
  191.1220  177.2710  141.3710 C   0  0  0  0  0  2  0  0  0  0  0  0
  189.5540  176.3990  138.3250 C   0  0  0  0  0  2  0  0  0  0  0  0
  190.7830  177.6080  139.9320 C   0  0  2  0  0  3  0  0  0  0  0  0
  189.4250  178.1320  139.8570 N   0  0  0  0  0  2  0  0  0  0  0  0
  188.6460  177.2530  139.0810 N   0  0  0  0  0  0  0  0  0  0  0  0
  190.8480  176.3700  139.0810 C   0  0  0  0  0  2  0  0  0  0  0  0
  187.9200  178.0650  138.1190 C   0  0  0  0  0  1  0  0  0  0  0  0
  1  2  1  0  0  0  0
  1 10  2  0  0  0  0
  2  9  1  0  0  0  0
  3  4  2  0  0  0  0
  4  8  1  0  0  0  0
  4 32  1  0  0  0  0
  5  8  2  0  0  0  0
  7  2  2  0  0  0  0
  8  6  1  0  0  0  0
  9  3  1  0  0  0  0
  9  5  1  0  0  0  0
 10  3  1  0  0  0  0
 11 15  1  0  0  0  0
 12 17  1  0  0  0  0
 13  1  1  1  0  0  0
 14 11  1  1  0  0  0
 14 18  1  0  0  0  0
 15 12  1  0  0  0  0
 16 13  1  0  0  0  0
 18 16  1  6  0  0  0
 18 13  1  0  0  0  0
 18 19  1  0  0  0  0
 19 17  1  0  0  0  0
 21 24  1  1  0  0  0
 21 14  1  0  0  0  0
 21 20  1  0  0  0  0
 22 23  1  1  0  0  0
 22 25  1  0  0  0  0
 22 20  1  0  0  0  0
 23 24  1  0  0  0  0
 25 26  1  6  0  0  0
 25 29  1  0  0  0  0
 26 30  1  0  0  0  0
 29 27  1  0  0  0  0
 30 28  1  0  0  0  0
 30 27  2  0  0  0  0
 31 32  1  0  0  0  0
 33  5  1  0  0  0  0
 34 45  1  0  0  0  0
 35 33  1  1  0  0  0
 35 44  1  0  0  0  0
 35 38  1  0  0  0  0
 36 41  1  0  0  0  0
 36 34  2  0  0  0  0
 38 40  1  0  0  0  0
 39 40  1  0  0  0  0
 39 34  1  0  0  0  0
 41 43  2  0  0  0  0
 42 48  1  6  0  0  0
 42 44  1  0  0  0  0
 42 36  1  0  0  0  0
 43 37  1  0  0  0  0
 44 39  1  1  0  0  0
 45 37  2  0  0  0  0
 47 46  1  0  0  0  0
 47 42  1  0  0  0  0
 49 48  1  0  0  0  0
 50 54  1  0  0  0  0
 50 53  1  0  0  0  0
 51 49  1  1  0  0  0
 52 51  1  0  0  0  0
 53 52  1  0  0  0  0
 54 51  1  0  0  0  0
 55 53  1  0  0  0  0
M  END
>  <MODEL>
3

>  <REMARK>
 VINA RESULT:      -7.3      3.052      6.372
  Name = 
  10 active torsions:
  status: ('A' for Active; 'I' for Inactive)
    1  A    between atoms: N_3  and  C_30
    2  A    between atoms: C_5  and  C_19
    3  A    between atoms: C_8  and  C_23
    4  A    between atoms: C_15  and  C_31
    5  A    between atoms: C_15  and  C_47
    6  A    between atoms: C_20  and  C_27
    7  A    between atoms: C_22  and  C_31
    8  A    between atoms: C_23  and  C_33
    9  A    between atoms: C_28  and  N_52
   10  A    between atoms: C_45  and  C_47
                            x       y       z     vdW  Elec       q    Type
                         _______ _______ _______ _____ _____    ______ ____

>  <TORSDO>
F 10

$$$$
=
 OpenBabel11062415103D

 55 64  0  0  1  0  0  0  0  0999 V2000
  184.0260  176.9710  136.6770 C   0  0  0  0  0  0  0  0  0  0  0  0
  185.4560  176.5820  136.6940 C   0  0  0  0  0  0  0  0  0  0  0  0
  184.3340  174.9710  135.7030 C   0  0  0  0  0  0  0  0  0  0  0  0
  184.2620  173.5960  135.5750 C   0  0  0  0  0  0  0  0  0  0  0  0
  186.3120  174.2240  136.2330 C   0  0  0  0  0  0  0  0  0  0  0  0
  185.9030  171.6850  136.0760 C   0  0  0  0  0  1  0  0  0  0  0  0
  186.4090  177.1830  137.2490 O   0  0  0  0  0  0  0  0  0  0  0  0
  185.5320  173.1150  135.8900 C   0  0  0  0  0  0  0  0  0  0  0  0
  185.5600  175.3280  136.0550 N   0  0  0  0  0  0  0  0  0  0  0  0
  183.3310  175.9830  136.0830 C   0  0  0  0  0  3  0  0  0  0  0  0
  180.2210  178.2120  139.1780 C   0  0  0  0  0  2  0  0  0  0  0  0
  180.6290  175.8770  140.0550 C   0  0  0  0  0  2  0  0  0  0  0  0
  183.3720  178.2190  137.2220 C   0  0  2  0  0  3  0  0  0  0  0  0
  181.5380  178.9620  139.0120 C   0  0  1  0  0  3  0  0  0  0  0  0
  180.2660  177.3210  140.4150 C   0  0  0  0  0  2  0  0  0  0  0  0
  184.0380  178.7450  138.4840 C   0  0  0  0  0  2  0  0  0  0  0  0
  181.8030  175.7410  139.0810 C   0  0  0  0  0  2  0  0  0  0  0  0
  182.7070  178.0260  138.5890 C   0  0  2  0  0  0  0  0  0  0  0  0
  182.9110  176.7300  139.3840 C   0  0  0  0  0  2  0  0  0  0  0  0
  180.0800  181.3980  138.8900 S   0  0  0  0  0  0  0  0  0  0  0  0
  181.2730  180.2310  138.1850 C   0  0  2  0  0  3  0  0  0  0  0  0
  180.1570  182.2530  137.2950 C   0  0  1  0  0  3  0  0  0  0  0  0
  180.1040  181.1690  136.2310 C   0  0  0  0  0  2  0  0  0  0  0  0
  180.9310  179.9890  136.7250 C   0  0  0  0  0  2  0  0  0  0  0  0
  179.0680  183.2210  137.1440 N   0  0  0  0  0  0  0  0  0  0  0  0
  178.9340  183.9560  138.4140 C   0  0  0  0  0  3  0  0  0  0  0  0
  179.6810  185.4660  136.8610 C   0  0  0  0  0  3  0  0  0  0  0  0
  179.4470  186.4440  139.1150 C   0  0  0  0  0  1  0  0  0  0  0  0
  179.4950  184.2110  136.2360 N   0  0  0  0  0  0  0  0  0  0  0  0
  179.3550  185.3480  138.1170 C   0  0  0  0  0  0  0  0  0  0  0  0
  182.0620  172.8820  136.3140 O   0  0  0  0  0  1  0  0  0  0  0  0
  183.0770  172.8070  135.4220 N   0  0  0  0  0  2  0  0  0  0  0  0
  187.6110  174.2010  136.9800 C   0  0  0  0  0  2  0  0  0  0  0  0
  192.1600  174.0870  136.3930 C   0  0  0  0  0  0  0  0  0  0  0  0
  188.8040  174.4600  136.0630 C   0  0  2  0  0  3  0  0  0  0  0  0
  192.2090  175.4560  136.3340 C   0  0  0  0  0  0  0  0  0  0  0  0
  194.4880  173.9470  135.8310 C   0  0  0  0  0  3  0  0  0  0  0  0
  189.1340  173.2560  135.2850 N   0  0  0  0  0  2  0  0  0  0  0  0
  190.8590  173.6150  136.6780 N   0  0  0  0  0  0  0  0  0  0  0  0
  190.2590  172.6420  135.8760 N   0  0  0  0  0  2  0  0  0  0  0  0
  193.3960  176.1220  136.0170 C   0  0  0  0  0  3  0  0  0  0  0  0
  190.8430  176.0300  136.5450 C   0  0  2  0  0  0  0  0  0  0  0  0
  194.5460  175.3550  135.7730 C   0  0  0  0  0  3  0  0  0  0  0  0
  190.0100  174.7610  136.9190 C   0  0  1  0  0  3  0  0  0  0  0  0
  193.2830  173.2980  136.1360 C   0  0  0  0  0  3  0  0  0  0  0  0
  189.3590  177.6960  135.5780 O   0  0  0  0  0  1  0  0  0  0  0  0
  190.3710  176.7820  135.2860 C   0  0  0  0  0  2  0  0  0  0  0  0
  190.8820  176.9720  137.7430 C   0  0  0  0  0  2  0  0  0  0  0  0
  190.0160  176.4690  138.8960 C   0  0  0  0  0  2  0  0  0  0  0  0
  188.4030  177.7130  141.7850 C   0  0  0  0  0  2  0  0  0  0  0  0
  189.9300  177.5030  140.0030 C   0  0  2  0  0  3  0  0  0  0  0  0
  190.5230  176.9680  141.2220 N   0  0  0  0  0  2  0  0  0  0  0  0
  189.5210  176.8790  142.2070 N   0  0  0  0  0  0  0  0  0  0  0  0
  188.4910  177.8310  140.2930 C   0  0  0  0  0  2  0  0  0  0  0  0
  190.0630  177.4690  143.4190 C   0  0  0  0  0  1  0  0  0  0  0  0
  1  2  1  0  0  0  0
  2  7  2  0  0  0  0
  3  9  1  0  0  0  0
  3 10  1  0  0  0  0
  4  3  2  0  0  0  0
  4  8  1  0  0  0  0
  5 33  1  0  0  0  0
  8  6  1  0  0  0  0
  8  5  2  0  0  0  0
  9  5  1  0  0  0  0
  9  2  1  0  0  0  0
 10  1  2  0  0  0  0
 11 15  1  0  0  0  0
 12 15  1  0  0  0  0
 13  1  1  1  0  0  0
 13 16  1  0  0  0  0
 13 18  1  0  0  0  0
 14 11  1  6  0  0  0
 17 19  1  0  0  0  0
 17 12  1  0  0  0  0
 18 16  1  1  0  0  0
 18 14  1  0  0  0  0
 18 19  1  0  0  0  0
 21 24  1  6  0  0  0
 21 20  1  0  0  0  0
 21 14  1  0  0  0  0
 22 23  1  6  0  0  0
 22 20  1  0  0  0  0
 23 24  1  0  0  0  0
 25 22  1  0  0  0  0
 25 26  1  0  0  0  0
 27 30  1  0  0  0  0
 29 27  2  0  0  0  0
 29 25  1  0  0  0  0
 30 26  2  0  0  0  0
 30 28  1  0  0  0  0
 32  4  1  0  0  0  0
 32 31  1  0  0  0  0
 34 39  1  0  0  0  0
 35 44  1  0  0  0  0
 35 33  1  1  0  0  0
 36 34  1  0  0  0  0
 36 42  1  0  0  0  0
 37 45  1  0  0  0  0
 38 40  1  0  0  0  0
 38 35  1  0  0  0  0
 40 39  1  0  0  0  0
 41 36  2  0  0  0  0
 42 47  1  6  0  0  0
 42 44  1  0  0  0  0
 42 48  1  0  0  0  0
 43 37  2  0  0  0  0
 43 41  1  0  0  0  0
 44 39  1  6  0  0  0
 45 34  2  0  0  0  0
 47 46  1  0  0  0  0
 48 49  1  0  0  0  0
 50 53  1  0  0  0  0
 51 49  1  6  0  0  0
 51 54  1  0  0  0  0
 51 52  1  0  0  0  0
 52 53  1  0  0  0  0
 53 55  1  0  0  0  0
 54 50  1  0  0  0  0
M  END
>  <MODEL>
4

>  <REMARK>
 VINA RESULT:      -7.2      2.286      5.029
  Name = 
  10 active torsions:
  status: ('A' for Active; 'I' for Inactive)
    1  A    between atoms: N_3  and  C_30
    2  A    between atoms: C_5  and  C_19
    3  A    between atoms: C_8  and  C_23
    4  A    between atoms: C_15  and  C_31
    5  A    between atoms: C_15  and  C_47
    6  A    between atoms: C_20  and  C_27
    7  A    between atoms: C_22  and  C_31
    8  A    between atoms: C_23  and  C_33
    9  A    between atoms: C_28  and  N_52
   10  A    between atoms: C_45  and  C_47
                            x       y       z     vdW  Elec       q    Type
                         _______ _______ _______ _____ _____    ______ ____

>  <TORSDO>
F 10

$$$$
=
 OpenBabel11062415103D

 55 64  0  0  1  0  0  0  0  0999 V2000
  186.8390  177.4600  137.9710 C   0  0  0  0  0  0  0  0  0  0  0  0
  186.6450  177.7360  139.4140 C   0  0  0  0  0  0  0  0  0  0  0  0
  184.6670  177.7650  138.4540 C   0  0  0  0  0  0  0  0  0  0  0  0
  183.4470  178.4160  138.4640 C   0  0  0  0  0  0  0  0  0  0  0  0
  184.5040  178.6840  140.4240 C   0  0  0  0  0  0  0  0  0  0  0  0
  182.2720  179.9440  140.1620 C   0  0  0  0  0  1  0  0  0  0  0  0
  187.5310  177.8970  140.2910 O   0  0  0  0  0  0  0  0  0  0  0  0
  183.3280  178.9860  139.7310 C   0  0  0  0  0  0  0  0  0  0  0  0
  185.2610  177.9000  139.6310 N   0  0  0  0  0  0  0  0  0  0  0  0
  185.6320  177.4890  137.3740 C   0  0  0  0  0  3  0  0  0  0  0  0
  189.4960  173.8160  136.5790 C   0  0  0  0  0  2  0  0  0  0  0  0
  187.2090  172.7430  136.6420 C   0  0  0  0  0  2  0  0  0  0  0  0
  188.1200  177.2020  137.2140 C   0  0  2  0  0  3  0  0  0  0  0  0
  189.4160  175.2190  135.9850 C   0  0  1  0  0  3  0  0  0  0  0  0
  188.5240  172.8800  135.8690 C   0  0  0  0  0  2  0  0  0  0  0  0
  187.9610  177.3120  135.7060 C   0  0  0  0  0  2  0  0  0  0  0  0
  186.6260  174.0670  137.1440 C   0  0  0  0  0  2  0  0  0  0  0  0
  188.0850  175.9420  136.3430 C   0  0  2  0  0  0  0  0  0  0  0  0
  186.7730  175.1780  136.1220 C   0  0  0  0  0  2  0  0  0  0  0  0
  192.2140  175.2180  135.4870 S   0  0  0  0  0  0  0  0  0  0  0  0
  190.7450  175.9400  136.2640 C   0  0  2  0  0  3  0  0  0  0  0  0
  193.1710  176.3610  136.5170 C   0  0  1  0  0  3  0  0  0  0  0  0
  192.5480  176.3070  137.9020 C   0  0  0  0  0  2  0  0  0  0  0  0
  191.0380  176.2090  137.7310 C   0  0  0  0  0  2  0  0  0  0  0  0
  194.5930  176.0080  136.5420 N   0  0  0  0  0  0  0  0  0  0  0  0
  194.8600  175.2850  137.7990 C   0  0  0  0  0  3  0  0  0  0  0  0
  195.1340  173.7700  136.1010 C   0  0  0  0  0  3  0  0  0  0  0  0
  195.4530  172.7750  138.3360 C   0  0  0  0  0  1  0  0  0  0  0  0
  194.8110  175.0320  135.5490 N   0  0  0  0  0  0  0  0  0  0  0  0
  195.1770  173.8910  137.3980 C   0  0  0  0  0  0  0  0  0  0  0  0
  182.4740  177.7910  136.3290 O   0  0  0  0  0  1  0  0  0  0  0  0
  182.6070  178.6860  137.3370 N   0  0  0  0  0  2  0  0  0  0  0  0
  185.0050  179.3610  141.6640 C   0  0  0  0  0  2  0  0  0  0  0  0
  186.3620  178.6600  145.9900 C   0  0  0  0  0  0  0  0  0  0  0  0
  185.2030  178.3770  142.8150 C   0  0  2  0  0  3  0  0  0  0  0  0
  187.4140  177.8930  145.5600 C   0  0  0  0  0  0  0  0  0  0  0  0
  186.8620  178.1210  148.2740 C   0  0  0  0  0  3  0  0  0  0  0  0
  184.0050  178.3230  143.6660 N   0  0  0  0  0  2  0  0  0  0  0  0
  185.6410  179.2230  144.9130 N   0  0  0  0  0  0  0  0  0  0  0  0
  184.2530  179.0810  144.8290 N   0  0  0  0  0  2  0  0  0  0  0  0
  188.2270  177.2090  146.4670 C   0  0  0  0  0  3  0  0  0  0  0  0
  187.4440  177.8520  144.0640 C   0  0  2  0  0  0  0  0  0  0  0  0
  187.9490  177.3350  147.8380 C   0  0  0  0  0  3  0  0  0  0  0  0
  186.3260  178.8800  143.6880 C   0  0  1  0  0  3  0  0  0  0  0  0
  186.0500  178.7870  147.3460 C   0  0  0  0  0  3  0  0  0  0  0  0
  188.3160  175.9370  142.8440 O   0  0  0  0  0  1  0  0  0  0  0  0
  187.2160  176.4160  143.5580 C   0  0  0  0  0  2  0  0  0  0  0  0
  188.7890  178.3800  143.5800 C   0  0  0  0  0  2  0  0  0  0  0  0
  189.8060  178.4860  144.7150 C   0  0  0  0  0  2  0  0  0  0  0  0
  191.8150  176.0100  143.1880 C   0  0  0  0  0  2  0  0  0  0  0  0
  191.1730  178.0040  144.2670 C   0  0  2  0  0  3  0  0  0  0  0  0
  191.3370  178.2500  142.8400 N   0  0  0  0  0  2  0  0  0  0  0  0
  191.4790  177.0120  142.1850 N   0  0  0  0  0  0  0  0  0  0  0  0
  191.3020  176.5240  144.5000 C   0  0  0  0  0  2  0  0  0  0  0  0
  192.6240  177.1300  141.2970 C   0  0  0  0  0  1  0  0  0  0  0  0
  1  2  1  0  0  0  0
  2  9  1  0  0  0  0
  2  7  2  0  0  0  0
  3  4  2  0  0  0  0
  3  9  1  0  0  0  0
  4  8  1  0  0  0  0
  5 33  1  0  0  0  0
  8  6  1  0  0  0  0
  8  5  2  0  0  0  0
  9  5  1  0  0  0  0
 10  1  2  0  0  0  0
 10  3  1  0  0  0  0
 12 17  1  0  0  0  0
 13  1  1  1  0  0  0
 14 21  1  0  0  0  0
 14 18  1  0  0  0  0
 14 11  1  1  0  0  0
 15 11  1  0  0  0  0
 15 12  1  0  0  0  0
 16 13  1  0  0  0  0
 18 16  1  6  0  0  0
 18 13  1  0  0  0  0
 19 18  1  0  0  0  0
 19 17  1  0  0  0  0
 20 21  1  0  0  0  0
 20 22  1  0  0  0  0
 21 24  1  1  0  0  0
 22 25  1  1  0  0  0
 22 23  1  0  0  0  0
 24 23  1  0  0  0  0
 25 26  1  0  0  0  0
 27 30  1  0  0  0  0
 29 27  2  0  0  0  0
 29 25  1  0  0  0  0
 30 26  2  0  0  0  0
 30 28  1  0  0  0  0
 31 32  1  0  0  0  0
 32  4  1  0  0  0  0
 34 45  1  0  0  0  0
 35 33  1  6  0  0  0
 35 38  1  0  0  0  0
 35 44  1  0  0  0  0
 36 34  2  0  0  0  0
 36 41  1  0  0  0  0
 38 40  1  0  0  0  0
 39 34  1  0  0  0  0
 40 39  1  0  0  0  0
 41 43  2  0  0  0  0
 42 47  1  6  0  0  0
 42 36  1  0  0  0  0
 43 37  1  0  0  0  0
 44 42  1  0  0  0  0
 44 39  1  1  0  0  0
 45 37  2  0  0  0  0
 46 47  1  0  0  0  0
 48 42  1  0  0  0  0
 48 49  1  0  0  0  0
 50 54  1  0  0  0  0
 51 54  1  0  0  0  0
 51 49  1  6  0  0  0
 52 51  1  0  0  0  0
 53 52  1  0  0  0  0
 53 50  1  0  0  0  0
 55 53  1  0  0  0  0
M  END
>  <MODEL>
5

>  <REMARK>
 VINA RESULT:      -6.6      3.640     10.164
  Name = 
  10 active torsions:
  status: ('A' for Active; 'I' for Inactive)
    1  A    between atoms: N_3  and  C_30
    2  A    between atoms: C_5  and  C_19
    3  A    between atoms: C_8  and  C_23
    4  A    between atoms: C_15  and  C_31
    5  A    between atoms: C_15  and  C_47
    6  A    between atoms: C_20  and  C_27
    7  A    between atoms: C_22  and  C_31
    8  A    between atoms: C_23  and  C_33
    9  A    between atoms: C_28  and  N_52
   10  A    between atoms: C_45  and  C_47
                            x       y       z     vdW  Elec       q    Type
                         _______ _______ _______ _____ _____    ______ ____

>  <TORSDO>
F 10

$$$$
=
 OpenBabel11062415103D

 55 64  0  0  1  0  0  0  0  0999 V2000
  188.6840  177.7190  139.0160 C   0  0  0  0  0  0  0  0  0  0  0  0
  187.5120  178.6040  138.8120 C   0  0  0  0  0  0  0  0  0  0  0  0
  187.6670  178.1820  140.9640 C   0  0  0  0  0  0  0  0  0  0  0  0
  186.9110  177.9280  142.0940 C   0  0  0  0  0  0  0  0  0  0  0  0
  185.6930  179.0090  140.5520 C   0  0  0  0  0  0  0  0  0  0  0  0
  184.4390  178.2960  142.6870 C   0  0  0  0  0  1  0  0  0  0  0  0
  187.0300  178.9990  137.7210 O   0  0  0  0  0  0  0  0  0  0  0  0
  185.6530  178.4770  141.8440 C   0  0  0  0  0  0  0  0  0  0  0  0
  186.9450  178.8540  140.0790 N   0  0  0  0  0  0  0  0  0  0  0  0
  188.7770  177.4460  140.3320 C   0  0  0  0  0  3  0  0  0  0  0  0
  189.2870  173.8030  136.4530 C   0  0  0  0  0  2  0  0  0  0  0  0
  186.7760  173.8060  136.7380 C   0  0  0  0  0  2  0  0  0  0  0  0
  189.6430  177.1580  137.9940 C   0  0  2  0  0  3  0  0  0  0  0  0
  189.7980  175.2120  136.1740 C   0  0  1  0  0  3  0  0  0  0  0  0
  187.9420  173.5790  135.7710 C   0  0  0  0  0  2  0  0  0  0  0  0
  189.4250  177.7140  136.5950 C   0  0  0  0  0  2  0  0  0  0  0  0
  186.8970  175.0700  137.5930 C   0  0  0  0  0  2  0  0  0  0  0  0
  188.9710  176.3030  136.9140 C   0  0  2  0  0  0  0  0  0  0  0  0
  187.4420  176.2430  136.8010 C   0  0  0  0  0  2  0  0  0  0  0  0
  192.2580  174.4060  135.0030 S   0  0  0  0  0  0  0  0  0  0  0  0
  191.3280  175.2140  136.3310 C   0  0  2  0  0  3  0  0  0  0  0  0
  193.7070  174.5780  136.0790 C   0  0  1  0  0  3  0  0  0  0  0  0
  193.2490  174.1770  137.4720 C   0  0  0  0  0  2  0  0  0  0  0  0
  191.8390  174.7150  137.6730 C   0  0  0  0  0  2  0  0  0  0  0  0
  194.8290  173.7570  135.6140 N   0  0  1  0  0  0  0  0  0  0  0  0
  195.6500  174.5810  134.7090 C   0  0  0  0  0  2  0  0  0  0  0  0
  196.9230  174.1910  136.5740 C   0  0  0  0  0  3  0  0  0  0  0  0
  198.0580  175.6280  134.9200 C   0  0  0  0  0  1  0  0  0  0  0  0
  195.6800  173.5310  136.7150 N   0  0  0  0  0  2  0  0  0  0  0  0
  196.9350  174.7970  135.4200 C   0  0  0  0  0  0  0  0  0  0  0  0
  188.3590  176.2830  143.1370 O   0  0  0  0  0  1  0  0  0  0  0  0
  187.2480  177.0560  143.1770 N   0  0  0  0  0  2  0  0  0  0  0  0
  184.5120  179.3740  139.7040 C   0  0  0  0  0  2  0  0  0  0  0  0
  181.4410  177.3110  136.9900 C   0  0  0  0  0  0  0  0  0  0  0  0
  183.5820  178.1850  139.4720 C   0  0  2  0  0  3  0  0  0  0  0  0
  180.4520  177.5100  137.9210 C   0  0  0  0  0  0  0  0  0  0  0  0
  179.9530  175.9980  135.6420 C   0  0  0  0  0  3  0  0  0  0  0  0
  184.2720  177.1220  138.7270 N   0  0  0  0  0  2  0  0  0  0  0  0
  182.6600  177.9100  137.3770 N   0  0  0  0  0  0  0  0  0  0  0  0
  183.8490  177.1760  137.3820 N   0  0  0  0  0  2  0  0  0  0  0  0
  179.1800  176.9570  137.7500 C   0  0  0  0  0  3  0  0  0  0  0  0
  180.9930  178.2670  139.0920 C   0  0  2  0  0  0  0  0  0  0  0  0
  178.9310  176.2020  136.5930 C   0  0  0  0  0  3  0  0  0  0  0  0
  182.4320  178.6370  138.6060 C   0  0  1  0  0  3  0  0  0  0  0  0
  181.2270  176.5490  135.8400 C   0  0  0  0  0  3  0  0  0  0  0  0
  180.7380  178.1870  141.5100 O   0  0  0  0  0  1  0  0  0  0  0  0
  180.9290  177.4070  140.3690 C   0  0  0  0  0  2  0  0  0  0  0  0
  180.1830  179.5460  139.2710 C   0  0  0  0  0  2  0  0  0  0  0  0
  180.9490  180.7810  138.8010 C   0  0  0  0  0  2  0  0  0  0  0  0
  179.6080  183.8840  137.7680 C   0  0  0  0  0  2  0  0  0  0  0  0
  180.1270  181.5860  137.8120 C   0  0  2  0  0  3  0  0  0  0  0  0
  181.0130  182.2700  136.8800 N   0  0  0  0  0  2  0  0  0  0  0  0
  180.8540  183.6590  137.0460 N   0  0  0  0  0  0  0  0  0  0  0  0
  179.3230  182.6300  138.5380 C   0  0  0  0  0  2  0  0  0  0  0  0
  180.6900  184.2310  135.7200 C   0  0  0  0  0  1  0  0  0  0  0  0
  1 10  2  0  0  0  0
  2  1  1  0  0  0  0
  2  9  1  0  0  0  0
  3  4  2  0  0  0  0
  4 32  1  0  0  0  0
  5  8  2  0  0  0  0
  7  2  2  0  0  0  0
  8  4  1  0  0  0  0
  8  6  1  0  0  0  0
  9  5  1  0  0  0  0
  9  3  1  0  0  0  0
 10  3  1  0  0  0  0
 12 17  1  0  0  0  0
 13  1  1  1  0  0  0
 14 21  1  0  0  0  0
 14 11  1  1  0  0  0
 14 18  1  0  0  0  0
 15 11  1  0  0  0  0
 15 12  1  0  0  0  0
 16 13  1  0  0  0  0
 18 16  1  6  0  0  0
 18 13  1  0  0  0  0
 19 18  1  0  0  0  0
 19 17  1  0  0  0  0
 20 22  1  0  0  0  0
 20 21  1  0  0  0  0
 21 24  1  1  0  0  0
 22 23  1  1  0  0  0
 23 24  1  0  0  0  0
 25 26  1  6  0  0  0
 25 22  1  0  0  0  0
 25 29  1  0  0  0  0
 26 30  1  0  0  0  0
 27 29  1  0  0  0  0
 28 30  1  0  0  0  0
 30 27  2  0  0  0  0
 31 32  1  0  0  0  0
 33  5  1  0  0  0  0
 34 39  1  0  0  0  0
 34 36  1  0  0  0  0
 35 33  1  6  0  0  0
 36 42  1  0  0  0  0
 37 45  1  0  0  0  0
 37 43  2  0  0  0  0
 38 35  1  0  0  0  0
 39 40  1  0  0  0  0
 40 38  1  0  0  0  0
 41 36  2  0  0  0  0
 42 48  1  1  0  0  0
 42 47  1  0  0  0  0
 43 41  1  0  0  0  0
 44 39  1  6  0  0  0
 44 42  1  0  0  0  0
 44 35  1  0  0  0  0
 45 34  2  0  0  0  0
 47 46  1  0  0  0  0
 49 48  1  0  0  0  0
 50 54  1  0  0  0  0
 51 54  1  0  0  0  0
 51 49  1  1  0  0  0
 52 53  1  0  0  0  0
 52 51  1  0  0  0  0
 53 50  1  0  0  0  0
 55 53  1  0  0  0  0
M  END
>  <MODEL>
6

>  <REMARK>
 VINA RESULT:      -6.3      3.101     10.629
  Name = 
  10 active torsions:
  status: ('A' for Active; 'I' for Inactive)
    1  A    between atoms: N_3  and  C_30
    2  A    between atoms: C_5  and  C_19
    3  A    between atoms: C_8  and  C_23
    4  A    between atoms: C_15  and  C_31
    5  A    between atoms: C_15  and  C_47
    6  A    between atoms: C_20  and  C_27
    7  A    between atoms: C_22  and  C_31
    8  A    between atoms: C_23  and  C_33
    9  A    between atoms: C_28  and  N_52
   10  A    between atoms: C_45  and  C_47
                            x       y       z     vdW  Elec       q    Type
                         _______ _______ _______ _____ _____    ______ ____

>  <TORSDO>
F 10

$$$$
=
 OpenBabel11062415103D

 55 64  0  0  1  0  0  0  0  0999 V2000
  186.2400  178.1290  142.7130 C   0  0  0  0  0  0  0  0  0  0  0  0
  185.5760  178.4670  141.4320 C   0  0  0  0  0  0  0  0  0  0  0  0
  184.2000  179.0000  143.0620 C   0  0  0  0  0  0  0  0  0  0  0  0
  182.8640  179.0020  143.4190 C   0  0  0  0  0  0  0  0  0  0  0  0
  183.0870  178.9670  141.1880 C   0  0  0  0  0  0  0  0  0  0  0  0
  180.6760  178.8210  142.0850 C   0  0  0  0  0  1  0  0  0  0  0  0
  185.9880  178.2340  140.2680 O   0  0  0  0  0  0  0  0  0  0  0  0
  182.1480  179.0060  142.2230 C   0  0  0  0  0  0  0  0  0  0  0  0
  184.3140  179.0170  141.7420 N   0  0  0  0  0  0  0  0  0  0  0  0
  185.3970  178.4400  143.7150 C   0  0  0  0  0  3  0  0  0  0  0  0
  189.5440  177.9560  146.0790 C   0  0  0  0  0  2  0  0  0  0  0  0
  187.4580  178.2620  147.4720 C   0  0  0  0  0  2  0  0  0  0  0  0
  187.6030  177.5220  142.9470 C   0  0  2  0  0  3  0  0  0  0  0  0
  189.2910  176.9730  144.9400 C   0  0  1  0  0  3  0  0  0  0  0  0
  188.7930  177.5240  147.3330 C   0  0  0  0  0  2  0  0  0  0  0  0
  187.5510  176.0440  143.3020 C   0  0  0  0  0  2  0  0  0  0  0  0
  186.6340  178.3330  146.1830 C   0  0  0  0  0  2  0  0  0  0  0  0
  187.8380  177.0600  144.3900 C   0  0  2  0  0  0  0  0  0  0  0  0
  186.6850  177.0350  145.4020 C   0  0  0  0  0  2  0  0  0  0  0  0
  190.2610  178.2640  142.6020 S   0  0  0  0  0  0  0  0  0  0  0  0
  190.4620  177.0680  143.9480 C   0  0  2  0  0  3  0  0  0  0  0  0
  191.7470  177.5170  141.8810 C   0  0  1  0  0  3  0  0  0  0  0  0
  191.5750  176.0140  142.0210 C   0  0  0  0  0  2  0  0  0  0  0  0
  190.9280  175.7410  143.3720 C   0  0  0  0  0  2  0  0  0  0  0  0
  191.9330  177.9190  140.4830 N   0  0  1  0  0  0  0  0  0  0  0  0
  192.6920  176.8550  139.8020 C   0  0  0  0  0  2  0  0  0  0  0  0
  190.5900  176.8470  138.8890 C   0  0  0  0  0  3  0  0  0  0  0  0
  192.0480  175.0860  137.9590 C   0  0  0  0  0  1  0  0  0  0  0  0
  190.6730  177.8780  139.8530 N   0  0  0  0  0  2  0  0  0  0  0  0
  191.7460  176.2470  138.8330 C   0  0  0  0  0  0  0  0  0  0  0  0
  183.0540  179.0030  145.8400 O   0  0  0  0  0  1  0  0  0  0  0  0
  182.3220  178.7740  144.7240 N   0  0  0  0  0  2  0  0  0  0  0  0
  182.8230  178.5960  139.7590 C   0  0  0  0  0  2  0  0  0  0  0  0
  181.3530  175.2090  137.0370 C   0  0  0  0  0  0  0  0  0  0  0  0
  182.1140  177.2500  139.6380 C   0  0  2  0  0  3  0  0  0  0  0  0
  180.0460  175.5240  137.3120 C   0  0  0  0  0  0  0  0  0  0  0  0
  180.6590  173.2670  135.8110 C   0  0  0  0  0  3  0  0  0  0  0  0
  183.0790  176.1430  139.7230 N   0  0  0  0  0  2  0  0  0  0  0  0
  182.2540  176.1170  137.6350 N   0  0  0  0  0  0  0  0  0  0  0  0
  183.3160  175.6600  138.4190 N   0  0  0  0  0  2  0  0  0  0  0  0
  178.9990  174.7220  136.8520 C   0  0  0  0  0  3  0  0  0  0  0  0
  179.9840  176.7190  138.2100 C   0  0  2  0  0  0  0  0  0  0  0  0
  179.3140  173.5880  136.0870 C   0  0  0  0  0  3  0  0  0  0  0  0
  181.4820  177.1620  138.2700 C   0  0  1  0  0  3  0  0  0  0  0  0
  181.6960  174.0760  136.2950 C   0  0  0  0  0  3  0  0  0  0  0  0
  179.7320  175.0690  139.9790 O   0  0  0  0  0  1  0  0  0  0  0  0
  179.3520  176.3460  139.5650 C   0  0  0  0  0  2  0  0  0  0  0  0
  179.1690  177.8110  137.5260 C   0  0  0  0  0  2  0  0  0  0  0  0
  180.0580  178.8820  136.8980 C   0  0  0  0  0  2  0  0  0  0  0  0
  180.4300  181.6500  139.0650 C   0  0  0  0  0  2  0  0  0  0  0  0
  179.6260  180.2700  137.3330 C   0  0  2  0  0  3  0  0  0  0  0  0
  180.5400  181.2630  136.7840 N   0  0  0  0  0  2  0  0  0  0  0  0
  181.1900  181.9130  137.8500 N   0  0  0  0  0  0  0  0  0  0  0  0
  179.6690  180.3800  138.8320 C   0  0  0  0  0  2  0  0  0  0  0  0
  181.1070  183.3410  137.5920 C   0  0  0  0  0  1  0  0  0  0  0  0
  1 10  2  0  0  0  0
  2  9  1  0  0  0  0
  2  1  1  0  0  0  0
  3  4  2  0  0  0  0
  3 10  1  0  0  0  0
  4 32  1  0  0  0  0
  5  9  1  0  0  0  0
  5  8  2  0  0  0  0
  6  8  1  0  0  0  0
  7  2  2  0  0  0  0
  8  4  1  0  0  0  0
  9  3  1  0  0  0  0
 11 15  1  0  0  0  0
 13  1  1  1  0  0  0
 13 16  1  0  0  0  0
 13 18  1  0  0  0  0
 14 11  1  1  0  0  0
 15 12  1  0  0  0  0
 17 12  1  0  0  0  0
 18 16  1  6  0  0  0
 18 14  1  0  0  0  0
 18 19  1  0  0  0  0
 19 17  1  0  0  0  0
 20 21  1  0  0  0  0
 21 24  1  6  0  0  0
 21 14  1  0  0  0  0
 22 23  1  6  0  0  0
 22 20  1  0  0  0  0
 23 24  1  0  0  0  0
 25 26  1  6  0  0  0
 25 22  1  0  0  0  0
 27 29  1  0  0  0  0
 28 30  1  0  0  0  0
 29 25  1  0  0  0  0
 30 27  2  0  0  0  0
 30 26  1  0  0  0  0
 32 31  1  0  0  0  0
 33  5  1  0  0  0  0
 34 36  1  0  0  0  0
 34 39  1  0  0  0  0
 35 38  1  0  0  0  0
 35 33  1  6  0  0  0
 36 42  1  0  0  0  0
 37 43  2  0  0  0  0
 37 45  1  0  0  0  0
 39 40  1  0  0  0  0
 40 38  1  0  0  0  0
 41 36  2  0  0  0  0
 42 48  1  6  0  0  0
 42 44  1  0  0  0  0
 42 47  1  0  0  0  0
 43 41  1  0  0  0  0
 44 39  1  6  0  0  0
 44 35  1  0  0  0  0
 45 34  2  0  0  0  0
 47 46  1  0  0  0  0
 49 48  1  0  0  0  0
 51 49  1  1  0  0  0
 51 54  1  0  0  0  0
 52 51  1  0  0  0  0
 52 53  1  0  0  0  0
 53 50  1  0  0  0  0
 54 50  1  0  0  0  0
 55 53  1  0  0  0  0
M  END
>  <MODEL>
7

>  <REMARK>
 VINA RESULT:      -5.9      2.901      9.870
  Name = 
  10 active torsions:
  status: ('A' for Active; 'I' for Inactive)
    1  A    between atoms: N_3  and  C_30
    2  A    between atoms: C_5  and  C_19
    3  A    between atoms: C_8  and  C_23
    4  A    between atoms: C_15  and  C_31
    5  A    between atoms: C_15  and  C_47
    6  A    between atoms: C_20  and  C_27
    7  A    between atoms: C_22  and  C_31
    8  A    between atoms: C_23  and  C_33
    9  A    between atoms: C_28  and  N_52
   10  A    between atoms: C_45  and  C_47
                            x       y       z     vdW  Elec       q    Type
                         _______ _______ _______ _____ _____    ______ ____

>  <TORSDO>
F 10

$$$$
=
 OpenBabel11062415103D

 55 64  0  0  1  0  0  0  0  0999 V2000
  186.9690  177.7860  141.7030 C   0  0  0  0  0  0  0  0  0  0  0  0
  187.5180  177.8860  140.3300 C   0  0  0  0  0  0  0  0  0  0  0  0
  189.0320  176.9060  141.5880 C   0  0  0  0  0  0  0  0  0  0  0  0
  190.3940  176.8290  141.8130 C   0  0  0  0  0  0  0  0  0  0  0  0
  189.9760  177.5580  139.7340 C   0  0  0  0  0  0  0  0  0  0  0  0
  192.4560  177.4810  140.4270 C   0  0  0  0  0  1  0  0  0  0  0  0
  187.0050  178.4620  139.3380 O   0  0  0  0  0  0  0  0  0  0  0  0
  191.0020  177.2220  140.6210 C   0  0  0  0  0  0  0  0  0  0  0  0
  188.8020  177.3020  140.3440 N   0  0  0  0  0  0  0  0  0  0  0  0
  187.8970  177.1980  142.4820 C   0  0  0  0  0  3  0  0  0  0  0  0
  184.5590  177.8650  145.7600 C   0  0  0  0  0  2  0  0  0  0  0  0
  186.9370  177.9210  146.6150 C   0  0  0  0  0  2  0  0  0  0  0  0
  185.6320  178.2500  142.2300 C   0  0  2  0  0  3  0  0  0  0  0  0
  184.4040  178.7700  144.5420 C   0  0  1  0  0  3  0  0  0  0  0  0
  185.5210  178.4860  146.7670 C   0  0  0  0  0  2  0  0  0  0  0  0
  185.5710  179.7490  142.4790 C   0  0  0  0  0  2  0  0  0  0  0  0
  187.4350  177.8350  145.1700 C   0  0  0  0  0  2  0  0  0  0  0  0
  185.6850  178.8030  143.6580 C   0  0  2  0  0  0  0  0  0  0  0  0
  187.0300  179.0480  144.3550 C   0  0  0  0  0  2  0  0  0  0  0  0
  182.7650  179.2540  142.2720 S   0  0  0  0  0  0  0  0  0  0  0  0
  183.0550  178.4570  143.8740 C   0  0  2  0  0  3  0  0  0  0  0  0
  181.0590  178.6610  142.4250 C   0  0  1  0  0  3  0  0  0  0  0  0
  180.6400  178.9400  143.8590 C   0  0  0  0  0  2  0  0  0  0  0  0
  181.8360  178.6550  144.7580 C   0  0  0  0  0  2  0  0  0  0  0  0
  180.1700  179.3120  141.4580 N   0  0  1  0  0  0  0  0  0  0  0  0
  180.9940  179.7950  140.3360 C   0  0  0  0  0  2  0  0  0  0  0  0
  179.6750  178.1150  139.5050 C   0  0  0  0  0  3  0  0  0  0  0  0
  181.2190  179.0470  137.8190 C   0  0  0  0  0  1  0  0  0  0  0  0
  179.3680  178.3120  140.8710 N   0  0  0  0  0  2  0  0  0  0  0  0
  180.6050  178.9650  139.1680 C   0  0  0  0  0  0  0  0  0  0  0  0
  191.0040  175.4650  143.7270 O   0  0  0  0  0  1  0  0  0  0  0  0
  191.0490  176.6500  143.0730 N   0  0  0  0  0  2  0  0  0  0  0  0
  190.1130  178.3660  138.4790 C   0  0  0  0  0  2  0  0  0  0  0  0
  189.0320  174.3180  136.6110 C   0  0  0  0  0  0  0  0  0  0  0  0
  190.0450  177.4960  137.2260 C   0  0  2  0  0  3  0  0  0  0  0  0
  190.3530  174.0640  136.3420 C   0  0  0  0  0  0  0  0  0  0  0  0
  188.3760  172.3420  135.4200 C   0  0  0  0  0  3  0  0  0  0  0  0
  188.7360  177.6320  136.5690 N   0  0  0  0  0  2  0  0  0  0  0  0
  188.8590  175.5230  137.3290 N   0  0  0  0  0  0  0  0  0  0  0  0
  187.9610  176.4970  136.8870 N   0  0  0  0  0  2  0  0  0  0  0  0
  190.7340  172.9440  135.6000 C   0  0  0  0  0  3  0  0  0  0  0  0
  191.2070  175.1790  136.8580 C   0  0  2  0  0  0  0  0  0  0  0  0
  189.7320  172.0720  135.1440 C   0  0  0  0  0  3  0  0  0  0  0  0
  190.1690  176.0500  137.6390 C   0  0  1  0  0  3  0  0  0  0  0  0
  188.0130  173.4790  136.1540 C   0  0  0  0  0  3  0  0  0  0  0  0
  191.0730  176.1040  134.6130 O   0  0  0  0  0  1  0  0  0  0  0  0
  191.9250  175.8920  135.6970 C   0  0  0  0  0  2  0  0  0  0  0  0
  192.2220  174.6110  137.8430 C   0  0  0  0  0  2  0  0  0  0  0  0
  193.5740  175.3120  137.7410 C   0  0  0  0  0  2  0  0  0  0  0  0
  196.4390  173.7210  136.4150 C   0  0  0  0  0  2  0  0  0  0  0  0
  194.7130  174.3220  137.9020 C   0  0  2  0  0  3  0  0  0  0  0  0
  195.9350  175.0330  138.2560 N   0  0  0  0  0  2  0  0  0  0  0  0
  196.8750  174.8510  137.2240 N   0  0  0  0  0  0  0  0  0  0  0  0
  194.9570  173.5990  136.6060 C   0  0  0  0  0  2  0  0  0  0  0  0
  198.1290  174.4700  137.8530 C   0  0  0  0  0  1  0  0  0  0  0  0
  1 10  2  0  0  0  0
  2  9  1  0  0  0  0
  2  1  1  0  0  0  0
  3  4  2  0  0  0  0
  3 10  1  0  0  0  0
  4 32  1  0  0  0  0
  5  9  1  0  0  0  0
  5  8  2  0  0  0  0
  6  8  1  0  0  0  0
  7  2  2  0  0  0  0
  8  4  1  0  0  0  0
  9  3  1  0  0  0  0
 11 15  1  0  0  0  0
 12 15  1  0  0  0  0
 13  1  1  6  0  0  0
 13 16  1  0  0  0  0
 13 18  1  0  0  0  0
 14 11  1  1  0  0  0
 17 12  1  0  0  0  0
 18 16  1  6  0  0  0
 18 19  1  0  0  0  0
 18 14  1  0  0  0  0
 19 17  1  0  0  0  0
 20 22  1  0  0  0  0
 20 21  1  0  0  0  0
 21 14  1  0  0  0  0
 21 24  1  1  0  0  0
 22 23  1  1  0  0  0
 23 24  1  0  0  0  0
 25 26  1  6  0  0  0
 25 22  1  0  0  0  0
 27 29  1  0  0  0  0
 28 30  1  0  0  0  0
 29 25  1  0  0  0  0
 30 27  2  0  0  0  0
 30 26  1  0  0  0  0
 32 31  1  0  0  0  0
 33  5  1  0  0  0  0
 34 39  1  0  0  0  0
 35 44  1  0  0  0  0
 35 33  1  1  0  0  0
 36 34  1  0  0  0  0
 36 42  1  0  0  0  0
 37 45  1  0  0  0  0
 38 40  1  0  0  0  0
 38 35  1  0  0  0  0
 40 39  1  0  0  0  0
 41 36  2  0  0  0  0
 42 47  1  6  0  0  0
 42 44  1  0  0  0  0
 42 48  1  0  0  0  0
 43 37  2  0  0  0  0
 43 41  1  0  0  0  0
 44 39  1  6  0  0  0
 45 34  2  0  0  0  0
 46 47  1  0  0  0  0
 49 48  1  0  0  0  0
 50 54  1  0  0  0  0
 50 53  1  0  0  0  0
 51 49  1  6  0  0  0
 51 52  1  0  0  0  0
 53 55  1  0  0  0  0
 53 52  1  0  0  0  0
 54 51  1  0  0  0  0
M  END
>  <MODEL>
8

>  <REMARK>
 VINA RESULT:      -5.8      3.246      6.543
  Name = 
  10 active torsions:
  status: ('A' for Active; 'I' for Inactive)
    1  A    between atoms: N_3  and  C_30
    2  A    between atoms: C_5  and  C_19
    3  A    between atoms: C_8  and  C_23
    4  A    between atoms: C_15  and  C_31
    5  A    between atoms: C_15  and  C_47
    6  A    between atoms: C_20  and  C_27
    7  A    between atoms: C_22  and  C_31
    8  A    between atoms: C_23  and  C_33
    9  A    between atoms: C_28  and  N_52
   10  A    between atoms: C_45  and  C_47
                            x       y       z     vdW  Elec       q    Type
                         _______ _______ _______ _____ _____    ______ ____

>  <TORSDO>
F 10

$$$$
=
 OpenBabel11062415103D

 55 64  0  0  1  0  0  0  0  0999 V2000
  183.8720  178.4680  139.3520 C   0  0  0  0  0  0  0  0  0  0  0  0
  184.5230  178.1290  138.0640 C   0  0  0  0  0  0  0  0  0  0  0  0
  186.0470  177.9950  139.6430 C   0  0  0  0  0  0  0  0  0  0  0  0
  187.3790  178.2550  139.9140 C   0  0  0  0  0  0  0  0  0  0  0  0
  187.0470  178.0420  137.7060 C   0  0  0  0  0  0  0  0  0  0  0  0
  189.4340  178.6820  138.4340 C   0  0  0  0  0  1  0  0  0  0  0  0
  184.0210  178.1780  136.9140 O   0  0  0  0  0  0  0  0  0  0  0  0
  188.0270  178.2620  138.6800 C   0  0  0  0  0  0  0  0  0  0  0  0
  185.8750  177.8350  138.3390 N   0  0  0  0  0  0  0  0  0  0  0  0
  184.8030  178.4010  140.3220 C   0  0  0  0  0  3  0  0  0  0  0  0
  179.5180  176.9190  138.3910 C   0  0  0  0  0  2  0  0  0  0  0  0
  180.8140  174.7500  138.3630 C   0  0  0  0  0  2  0  0  0  0  0  0
  182.4360  178.8520  139.6200 C   0  0  2  0  0  3  0  0  0  0  0  0
  179.9810  177.8080  139.5410 C   0  0  1  0  0  3  0  0  0  0  0  0
  179.5300  175.4540  138.8110 C   0  0  0  0  0  2  0  0  0  0  0  0
  181.9650  178.4830  141.0180 C   0  0  0  0  0  2  0  0  0  0  0  0
  182.0980  175.5400  138.6320 C   0  0  0  0  0  2  0  0  0  0  0  0
  181.5020  177.6560  139.8350 C   0  0  2  0  0  0  0  0  0  0  0  0
  182.0670  176.2370  139.9780 C   0  0  0  0  0  2  0  0  0  0  0  0
  179.3560  179.7950  137.6090 S   0  0  0  0  0  0  0  0  0  0  0  0
  179.4090  179.2180  139.3250 C   0  0  2  0  0  3  0  0  0  0  0  0
  178.9320  181.4180  138.2950 C   0  0  1  0  0  3  0  0  0  0  0  0
  179.8630  181.6350  139.4760 C   0  0  0  0  0  2  0  0  0  0  0  0
  180.0210  180.3030  140.1970 C   0  0  0  0  0  2  0  0  0  0  0  0
  179.0600  182.4810  137.2940 N   0  0  0  0  0  0  0  0  0  0  0  0
  179.7540  183.6180  137.9250 C   0  0  0  0  0  3  0  0  0  0  0  0
  181.1790  182.7800  136.3370 C   0  0  0  0  0  3  0  0  0  0  0  0
  182.1500  184.6650  137.6010 C   0  0  0  0  0  1  0  0  0  0  0  0
  179.9740  182.0410  136.3150 N   0  0  0  0  0  0  0  0  0  0  0  0
  181.0750  183.7030  137.2520 C   0  0  0  0  0  0  0  0  0  0  0  0
  189.0800  178.1620  141.6440 O   0  0  0  0  0  1  0  0  0  0  0  0
  187.9330  178.6940  141.1580 N   0  0  0  0  0  2  0  0  0  0  0  0
  187.1730  178.3160  136.2380 C   0  0  0  0  0  2  0  0  0  0  0  0
  186.8260  173.7450  136.0780 C   0  0  0  0  0  0  0  0  0  0  0  0
  187.3410  177.0340  135.4280 C   0  0  2  0  0  3  0  0  0  0  0  0
  188.1880  173.6220  135.9770 C   0  0  0  0  0  0  0  0  0  0  0  0
  186.5560  171.3850  135.7390 C   0  0  0  0  0  3  0  0  0  0  0  0
  186.0940  176.6950  134.7250 N   0  0  0  0  0  2  0  0  0  0  0  0
  186.4260  175.0880  136.2580 N   0  0  0  0  0  0  0  0  0  0  0  0
  185.4510  175.6610  135.4370 N   0  0  0  0  0  2  0  0  0  0  0  0
  188.7850  172.3800  135.7490 C   0  0  0  0  0  3  0  0  0  0  0  0
  188.8320  174.9710  136.0420 C   0  0  2  0  0  0  0  0  0  0  0  0
  187.9570  171.2520  135.6390 C   0  0  0  0  0  3  0  0  0  0  0  0
  187.6180  175.8970  136.3800 C   0  0  1  0  0  3  0  0  0  0  0  0
  185.9760  172.6430  135.9530 C   0  0  0  0  0  3  0  0  0  0  0  0
  190.7520  174.5810  134.6000 O   0  0  0  0  0  1  0  0  0  0  0  0
  189.5560  175.2890  134.7200 C   0  0  0  0  0  2  0  0  0  0  0  0
  189.8160  174.9950  137.2060 C   0  0  0  0  0  2  0  0  0  0  0  0
  190.7350  176.2140  137.1560 C   0  0  0  0  0  2  0  0  0  0  0  0
  193.5660  174.1190  136.8600 C   0  0  0  0  0  2  0  0  0  0  0  0
  192.1440  175.8510  137.5850 C   0  0  2  0  0  3  0  0  0  0  0  0
  193.1010  176.3760  136.6210 N   0  0  0  0  0  2  0  0  0  0  0  0
  193.7750  175.2940  136.0230 N   0  0  0  0  0  0  0  0  0  0  0  0
  192.3020  174.3560  137.6290 C   0  0  0  0  0  2  0  0  0  0  0  0
  195.1950  175.6020  136.0620 C   0  0  0  0  0  1  0  0  0  0  0  0
  1 10  2  0  0  0  0
  2  9  1  0  0  0  0
  2  1  1  0  0  0  0
  3  4  2  0  0  0  0
  3 10  1  0  0  0  0
  4 32  1  0  0  0  0
  5  9  1  0  0  0  0
  5  8  2  0  0  0  0
  6  8  1  0  0  0  0
  7  2  2  0  0  0  0
  8  4  1  0  0  0  0
  9  3  1  0  0  0  0
 11 15  1  0  0  0  0
 12 17  1  0  0  0  0
 12 15  1  0  0  0  0
 13  1  1  1  0  0  0
 13 18  1  0  0  0  0
 13 16  1  0  0  0  0
 14 11  1  6  0  0  0
 14 18  1  0  0  0  0
 17 19  1  0  0  0  0
 18 19  1  6  0  0  0
 18 16  1  0  0  0  0
 20 22  1  0  0  0  0
 20 21  1  0  0  0  0
 21 14  1  0  0  0  0
 21 24  1  1  0  0  0
 22 25  1  6  0  0  0
 22 23  1  0  0  0  0
 23 24  1  0  0  0  0
 25 26  1  0  0  0  0
 27 30  1  0  0  0  0
 29 27  2  0  0  0  0
 29 25  1  0  0  0  0
 30 28  1  0  0  0  0
 30 26  2  0  0  0  0
 32 31  1  0  0  0  0
 33  5  1  0  0  0  0
 34 39  1  0  0  0  0
 35 33  1  1  0  0  0
 35 44  1  0  0  0  0
 36 42  1  0  0  0  0
 36 34  1  0  0  0  0
 37 45  1  0  0  0  0
 38 35  1  0  0  0  0
 38 40  1  0  0  0  0
 40 39  1  0  0  0  0
 41 36  2  0  0  0  0
 42 47  1  6  0  0  0
 42 44  1  0  0  0  0
 42 48  1  0  0  0  0
 43 37  2  0  0  0  0
 43 41  1  0  0  0  0
 44 39  1  6  0  0  0
 45 34  2  0  0  0  0
 46 47  1  0  0  0  0
 49 48  1  0  0  0  0
 50 54  1  0  0  0  0
 51 49  1  6  0  0  0
 51 54  1  0  0  0  0
 52 51  1  0  0  0  0
 53 55  1  0  0  0  0
 53 52  1  0  0  0  0
 53 50  1  0  0  0  0
M  END
>  <MODEL>
9

>  <REMARK>
 VINA RESULT:      -5.7      2.186      4.675
  Name = 
  10 active torsions:
  status: ('A' for Active; 'I' for Inactive)
    1  A    between atoms: N_3  and  C_30
    2  A    between atoms: C_5  and  C_19
    3  A    between atoms: C_8  and  C_23
    4  A    between atoms: C_15  and  C_31
    5  A    between atoms: C_15  and  C_47
    6  A    between atoms: C_20  and  C_27
    7  A    between atoms: C_22  and  C_31
    8  A    between atoms: C_23  and  C_33
    9  A    between atoms: C_28  and  N_52
   10  A    between atoms: C_45  and  C_47
                            x       y       z     vdW  Elec       q    Type
                         _______ _______ _______ _____ _____    ______ ____

>  <TORSDO>
F 10

$$$$
