=
 OpenBabel11062415053D

 66 70  0  0  1  0  0  0  0  0999 V2000
  189.4060  176.7190  138.9640 C   0  0  0  0  0  0  0  0  0  0  0  0
  188.6450  177.2040  137.8870 C   0  0  0  0  0  0  0  0  0  0  0  0
  189.0780  176.9950  136.5740 C   0  0  0  0  0  3  0  0  0  0  0  0
  190.6080  176.0410  138.7090 C   0  0  0  0  0  3  0  0  0  0  0  0
  190.2760  176.3200  136.3280 C   0  0  0  0  0  3  0  0  0  0  0  0
  191.0440  175.8430  137.3970 C   0  0  0  0  0  0  0  0  0  0  0  0
  188.9520  176.9220  140.2720 O   0  0  0  0  0  0  0  0  0  0  0  0
  189.6840  177.6480  141.2540 C   0  0  2  0  0  3  0  0  0  0  0  0
  189.9810  175.5600  142.5880 O   0  0  0  0  0  1  0  0  0  0  0  0
  190.5400  176.7080  142.0460 C   0  0  0  0  0  0  0  0  0  0  0  0
  191.7640  176.9480  142.2190 O   0  0  0  0  0  0  0  0  0  0  0  0
  188.7010  178.3770  142.1550 C   0  0  0  0  0  2  0  0  0  0  0  0
  187.2900  177.8060  142.0210 C   0  0  0  0  0  2  0  0  0  0  0  0
  185.3710  178.1610  143.6210 C   0  0  0  0  0  0  0  0  0  0  0  0
  183.5570  178.5730  141.7860 S   0  0  0  0  0  0  0  0  0  0  0  0
  185.5360  179.7200  140.4580 O   0  0  0  0  0  0  0  0  0  0  0  0
  185.2290  179.0980  141.4640 C   0  0  0  0  0  0  0  0  0  0  0  0
  186.2090  178.7640  142.5340 C   0  0  2  0  0  3  0  0  0  0  0  0
  184.1090  178.0200  143.3720 N   0  0  0  0  0  0  0  0  0  0  0  0
  185.9350  177.7110  144.9010 C   0  0  0  0  0  0  0  0  0  0  0  0
  186.0680  176.4780  145.1360 O   0  0  0  0  0  0  0  0  0  0  0  0
  186.2960  178.6590  145.8620 O   0  0  0  0  0  0  0  0  0  0  0  0
  186.9330  178.3100  147.0870 C   0  0  2  0  0  3  0  0  0  0  0  0
  186.9860  179.5070  148.0220 C   0  0  0  0  0  1  0  0  0  0  0  0
  190.2800  177.7340  145.4110 C   0  0  0  0  0  3  0  0  0  0  0  0
  188.9990  178.2240  145.6850 C   0  0  0  0  0  3  0  0  0  0  0  0
  188.9120  176.8670  147.6910 C   0  0  0  0  0  3  0  0  0  0  0  0
  190.1930  176.3790  147.4180 C   0  0  0  0  0  3  0  0  0  0  0  0
  190.8780  176.8150  146.2780 C   0  0  0  0  0  3  0  0  0  0  0  0
  188.3130  177.7990  146.8300 C   0  0  0  0  0  0  0  0  0  0  0  0
  192.3380  175.1460  137.1430 C   0  0  0  0  0  2  0  0  0  0  0  0
  194.2840  175.1370  135.3430 C   0  0  2  0  0  3  0  0  0  0  0  0
  192.3740  176.6400  135.1200 O   0  0  0  0  0  1  0  0  0  0  0  0
  192.9330  175.5540  135.7950 C   0  0  2  0  0  0  0  0  0  0  0  0
  193.1140  174.4540  134.9370 O   0  0  0  0  0  0  0  0  0  0  0  0
  195.0280  174.3070  136.3800 C   0  0  0  0  0  2  0  0  0  0  0  0
  196.8410  175.1610  137.8600 O   0  0  0  0  0  1  0  0  0  0  0  0
  196.4000  174.8470  136.5800 C   0  0  0  0  0  0  0  0  0  0  0  0
  197.1680  174.9990  135.5940 O   0  0  0  0  0  0  0  0  0  0  0  0
  187.3420  177.8900  138.1290 C   0  0  0  0  0  2  0  0  0  0  0  0
  186.6940  178.2470  136.8030 C   0  0  0  0  0  2  0  0  0  0  0  0
  185.6490  177.2040  136.4070 C   0  0  2  0  0  3  0  0  0  0  0  0
  185.7160  178.4660  134.6040 O   0  0  0  0  0  1  0  0  0  0  0  0
  185.0280  177.4930  135.1740 O   0  0  0  0  0  0  0  0  0  0  0  0
  184.6590  176.8530  137.5340 C   0  0  1  0  0  3  0  0  0  0  0  0
  182.1030  179.7100  138.1190 C   0  0  0  0  0  1  0  0  0  0  0  0
  182.7680  178.5320  137.5020 C   0  0  0  0  0  0  0  0  0  0  0  0
  182.2730  178.0040  136.4720 O   0  0  0  0  0  0  0  0  0  0  0  0
  183.9760  178.0260  138.0710 N   0  0  0  0  0  2  0  0  0  0  0  0
  183.6700  175.7430  137.1420 C   0  0  1  0  0  3  0  0  0  0  0  0
  183.4260  173.0670  134.6940 C   0  0  0  0  0  3  0  0  0  0  0  0
  183.2740  174.5480  134.8350 C   0  0  2  0  0  3  0  0  0  0  0  0
  184.6970  173.5620  136.4340 N   0  0  0  0  0  0  0  0  0  0  0  0
  184.2020  172.5690  135.5910 N   0  0  0  0  0  0  0  0  0  0  0  0
  184.2520  174.8810  135.9950 C   0  0  2  0  0  3  0  0  0  0  0  0
  181.2630  176.0370  134.6030 O   0  0  0  0  0  0  0  0  0  0  0  0
  181.1220  174.0580  135.7430 O   0  0  0  0  0  1  0  0  0  0  0  0
  181.8290  174.8640  135.0890 C   0  0  0  0  0  0  0  0  0  0  0  0
  186.5670  174.5250  137.4760 O   0  0  0  0  0  1  0  0  0  0  0  0
  185.8620  173.3350  137.2840 C   0  0  2  0  0  3  0  0  0  0  0  0
  186.7680  172.2570  136.6960 C   0  0  0  0  0  2  0  0  0  0  0  0
  187.7230  172.8160  135.6490 C   0  0  0  0  0  2  0  0  0  0  0  0
  189.1470  172.7910  136.1720 C   0  0  0  0  0  2  0  0  0  0  0  0
  190.1320  172.7800  135.0180 C   0  0  0  0  0  1  0  0  0  0  0  0
  182.4910  175.7360  139.3300 C   0  0  0  0  0  1  0  0  0  0  0  0
  183.2920  174.8990  138.3550 C   0  0  0  0  0  2  0  0  0  0  0  0
  1  7  1  0  0  0  0
  2 40  1  0  0  0  0
  2  1  2  0  0  0  0
  3  2  1  0  0  0  0
  4  1  1  0  0  0  0
  5  3  2  0  0  0  0
  5  6  1  0  0  0  0
  6  4  2  0  0  0  0
  7  8  1  0  0  0  0
  8 10  1  0  0  0  0
  8 12  1  1  0  0  0
 10 11  2  0  0  0  0
 10  9  1  0  0  0  0
 13 12  1  0  0  0  0
 14 20  1  0  0  0  0
 15 19  1  0  0  0  0
 16 17  2  0  0  0  0
 17 15  1  0  0  0  0
 17 18  1  0  0  0  0
 18 13  1  6  0  0  0
 18 14  1  0  0  0  0
 19 14  2  0  0  0  0
 20 21  2  0  0  0  0
 20 22  1  0  0  0  0
 22 23  1  0  0  0  0
 23 24  1  1  0  0  0
 25 26  2  0  0  0  0
 25 29  1  0  0  0  0
 26 30  1  0  0  0  0
 28 27  1  0  0  0  0
 29 28  2  0  0  0  0
 30 23  1  0  0  0  0
 30 27  2  0  0  0  0
 31  6  1  0  0  0  0
 32 34  1  0  0  0  0
 32 36  1  1  0  0  0
 34 33  1  6  0  0  0
 34 31  1  0  0  0  0
 35 32  1  0  0  0  0
 35 34  1  0  0  0  0
 36 38  1  0  0  0  0
 38 37  1  0  0  0  0
 39 38  2  0  0  0  0
 41 40  1  0  0  0  0
 42 41  1  1  0  0  0
 42 45  1  0  0  0  0
 43 44  1  0  0  0  0
 44 42  1  0  0  0  0
 45 49  1  6  0  0  0
 47 49  1  0  0  0  0
 47 46  1  0  0  0  0
 48 47  2  0  0  0  0
 50 45  1  0  0  0  0
 50 66  1  1  0  0  0
 51 52  1  0  0  0  0
 51 54  2  0  0  0  0
 52 58  1  1  0  0  0
 52 55  1  0  0  0  0
 53 60  1  0  0  0  0
 54 53  1  0  0  0  0
 55 53  1  0  0  0  0
 55 50  1  1  0  0  0
 56 58  2  0  0  0  0
 58 57  1  0  0  0  0
 60 59  1  6  0  0  0
 61 60  1  0  0  0  0
 62 63  1  0  0  0  0
 62 61  1  0  0  0  0
 64 63  1  0  0  0  0
 66 65  1  0  0  0  0
M  END
>  <MODEL>
1

>  <REMARK>
 VINA RESULT:      -5.6      0.000      0.000
  Name = 
  28 active torsions:
  status: ('A' for Active; 'I' for Inactive)
    1  A    between atoms: C_1  and  C_55
    2  A    between atoms: C_3  and  C_14
    3  A    between atoms: C_3  and  C_24
    4  A    between atoms: O_4  and  C_10
    5  A    between atoms: O_4  and  C_63
    6  A    between atoms: C_7  and  C_53
    7  A    between atoms: C_7  and  C_66
    8  A    between atoms: C_8  and  C_62
    9  A    between atoms: C_11  and  C_61
   10  A    between atoms: C_12  and  C_28
   11  A    between atoms: C_12  and  C_52
   12  A    between atoms: C_13  and  N_23
   13  A    between atoms: C_13  and  C_57
   14  A    between atoms: C_14  and  C_27
   15  A    between atoms: C_14  and  O_37
   16  A    between atoms: C_15  and  O_41
   17  A    between atoms: C_15  and  C_48
   18  A    between atoms: C_16  and  C_58
   19  A    between atoms: C_16  and  C_63
   20  A    between atoms: C_20  and  C_35
   21  A    between atoms: C_20  and  C_57
   22  A    between atoms: C_24  and  C_26
   23  A    between atoms: C_27  and  N_46
   24  A    between atoms: C_27  and  C_62
   25  A    between atoms: C_38  and  C_62
   26  A    between atoms: O_41  and  C_55
   27  A    between atoms: C_45  and  C_58
   28  A    between atoms: C_60  and  C_63
                            x       y       z     vdW  Elec       q    Type
                         _______ _______ _______ _____ _____    ______ ____

>  <TORSDO>
F 28

$$$$
=
 OpenBabel11062415053D

 66 70  0  0  1  0  0  0  0  0999 V2000
  185.4170  178.6290  141.1810 C   0  0  0  0  0  0  0  0  0  0  0  0
  184.1410  178.8610  140.6370 C   0  0  0  0  0  0  0  0  0  0  0  0
  183.9630  178.8590  139.2500 C   0  0  0  0  0  3  0  0  0  0  0  0
  186.5050  178.4130  140.3220 C   0  0  0  0  0  3  0  0  0  0  0  0
  185.0510  178.6440  138.4010 C   0  0  0  0  0  3  0  0  0  0  0  0
  186.3250  178.4220  138.9370 C   0  0  0  0  0  0  0  0  0  0  0  0
  185.5780  178.6180  142.5710 O   0  0  0  0  0  0  0  0  0  0  0  0
  186.5000  177.7710  143.2480 C   0  0  2  0  0  3  0  0  0  0  0  0
  185.9840  176.6420  145.4140 O   0  0  0  0  0  1  0  0  0  0  0  0
  186.2430  177.8170  144.7230 C   0  0  0  0  0  0  0  0  0  0  0  0
  186.2650  178.9130  145.3440 O   0  0  0  0  0  0  0  0  0  0  0  0
  187.9120  178.2320  142.9290 C   0  0  0  0  0  2  0  0  0  0  0  0
  188.9440  177.5180  143.8000 C   0  0  0  0  0  2  0  0  0  0  0  0
  191.2680  176.5930  143.4650 C   0  0  0  0  0  0  0  0  0  0  0  0
  191.5460  177.4330  141.0070 S   0  0  0  0  0  0  0  0  0  0  0  0
  188.9530  176.9470  140.8250 O   0  0  0  0  0  0  0  0  0  0  0  0
  189.9210  176.9700  141.5700 C   0  0  0  0  0  0  0  0  0  0  0  0
  189.8430  176.5670  143.0010 C   0  0  2  0  0  3  0  0  0  0  0  0
  192.1520  176.9900  142.6070 N   0  0  0  0  0  0  0  0  0  0  0  0
  191.6650  176.2240  144.8310 C   0  0  0  0  0  0  0  0  0  0  0  0
  191.8140  175.0100  145.1410 O   0  0  0  0  0  0  0  0  0  0  0  0
  191.8470  177.2280  145.7860 O   0  0  0  0  0  0  0  0  0  0  0  0
  191.7490  176.9860  147.1870 C   0  0  2  0  0  3  0  0  0  0  0  0
  192.1890  175.5700  147.5160 C   0  0  0  0  0  1  0  0  0  0  0  0
  188.0210  176.5210  147.6770 C   0  0  0  0  0  3  0  0  0  0  0  0
  189.3440  176.3130  147.2710 C   0  0  0  0  0  3  0  0  0  0  0  0
  190.0160  178.3280  148.4380 C   0  0  0  0  0  3  0  0  0  0  0  0
  188.6950  178.5340  148.8440 C   0  0  0  0  0  3  0  0  0  0  0  0
  187.6980  177.6300  148.4650 C   0  0  0  0  0  3  0  0  0  0  0  0
  190.3480  177.2100  147.6570 C   0  0  0  0  0  0  0  0  0  0  0  0
  187.4970  178.2210  138.0360 C   0  0  0  0  0  2  0  0  0  0  0  0
  188.6920  176.1840  136.8330 C   0  0  2  0  0  3  0  0  0  0  0  0
  186.2620  176.2710  137.0380 O   0  0  0  0  0  1  0  0  0  0  0  0
  187.4860  176.8240  137.4150 C   0  0  2  0  0  0  0  0  0  0  0  0
  188.2590  175.9080  138.1500 O   0  0  0  0  0  0  0  0  0  0  0  0
  189.9210  177.0820  136.8750 C   0  0  0  0  0  2  0  0  0  0  0  0
  191.2630  175.7110  135.2870 O   0  0  0  0  0  0  0  0  0  0  0  0
  191.1410  176.2990  136.5400 C   0  0  0  0  0  0  0  0  0  0  0  0
  192.0690  176.1850  137.3840 O   0  0  0  0  0  1  0  0  0  0  0  0
  182.9610  179.0500  141.5290 C   0  0  0  0  0  2  0  0  0  0  0  0
  181.9390  177.9570  141.2690 C   0  0  0  0  0  2  0  0  0  0  0  0
  180.6710  178.5320  140.6410 C   0  0  2  0  0  3  0  0  0  0  0  0
  180.0080  178.7910  142.7250 O   0  0  0  0  0  1  0  0  0  0  0  0
  179.5640  178.4990  141.5160 O   0  0  0  0  0  0  0  0  0  0  0  0
  180.3660  177.9860  139.2330 C   0  0  1  0  0  3  0  0  0  0  0  0
  180.7200  179.9570  135.9130 C   0  0  0  0  0  1  0  0  0  0  0  0
  180.1710  179.0330  136.9390 C   0  0  0  0  0  0  0  0  0  0  0  0
  179.1060  178.4020  136.7060 O   0  0  0  0  0  0  0  0  0  0  0  0
  180.8690  178.8510  138.1710 N   0  0  0  0  0  2  0  0  0  0  0  0
  180.8130  176.5270  139.0450 C   0  0  1  0  0  3  0  0  0  0  0  0
  178.9620  173.4280  138.6160 C   0  0  0  0  0  3  0  0  0  0  0  0
  178.9340  174.7190  139.3710 C   0  0  2  0  0  3  0  0  0  0  0  0
  180.1360  174.8040  137.3460 N   0  0  0  0  0  0  0  0  0  0  0  0
  179.6350  173.5160  137.5240 N   0  0  0  0  0  0  0  0  0  0  0  0
  179.6760  175.6890  138.4100 C   0  0  2  0  0  3  0  0  0  0  0  0
  179.3540  175.4070  141.7500 O   0  0  0  0  0  1  0  0  0  0  0  0
  180.3140  173.5130  140.8980 O   0  0  0  0  0  0  0  0  0  0  0  0
  179.5750  174.5110  140.7110 C   0  0  0  0  0  0  0  0  0  0  0  0
  179.5330  175.4460  135.1690 O   0  0  0  0  0  1  0  0  0  0  0  0
  180.6080  175.2700  136.0440 C   0  0  2  0  0  3  0  0  0  0  0  0
  181.6330  174.3040  135.4550 C   0  0  0  0  0  2  0  0  0  0  0  0
  182.8080  175.0320  134.8150 C   0  0  0  0  0  2  0  0  0  0  0  0
  182.5530  176.5280  134.7990 C   0  0  0  0  0  2  0  0  0  0  0  0
  183.8540  177.2820  134.6090 C   0  0  0  0  0  1  0  0  0  0  0  0
  183.0500  175.4590  138.8550 C   0  0  0  0  0  1  0  0  0  0  0  0
  182.0990  176.4550  138.2260 C   0  0  0  0  0  2  0  0  0  0  0  0
  1  7  1  0  0  0  0
  2  1  1  0  0  0  0
  2 40  1  0  0  0  0
  3  2  2  0  0  0  0
  4  1  2  0  0  0  0
  5  6  2  0  0  0  0
  5  3  1  0  0  0  0
  6  4  1  0  0  0  0
  7  8  1  0  0  0  0
  8 12  1  1  0  0  0
  8 10  1  0  0  0  0
 10 11  2  0  0  0  0
 10  9  1  0  0  0  0
 12 13  1  0  0  0  0
 14 20  1  0  0  0  0
 15 17  1  0  0  0  0
 15 19  1  0  0  0  0
 16 17  2  0  0  0  0
 17 18  1  0  0  0  0
 18 14  1  0  0  0  0
 18 13  1  1  0  0  0
 19 14  2  0  0  0  0
 20 21  2  0  0  0  0
 20 22  1  0  0  0  0
 22 23  1  0  0  0  0
 23 24  1  6  0  0  0
 23 30  1  0  0  0  0
 25 29  1  0  0  0  0
 26 30  1  0  0  0  0
 26 25  2  0  0  0  0
 27 28  1  0  0  0  0
 29 28  2  0  0  0  0
 30 27  2  0  0  0  0
 31  6  1  0  0  0  0
 32 36  1  1  0  0  0
 32 34  1  0  0  0  0
 32 35  1  0  0  0  0
 34 33  1  6  0  0  0
 34 31  1  0  0  0  0
 34 35  1  0  0  0  0
 37 38  2  0  0  0  0
 38 36  1  0  0  0  0
 38 39  1  0  0  0  0
 41 40  1  0  0  0  0
 42 41  1  1  0  0  0
 42 44  1  0  0  0  0
 44 43  1  0  0  0  0
 45 49  1  6  0  0  0
 45 42  1  0  0  0  0
 46 47  1  0  0  0  0
 47 49  1  0  0  0  0
 48 47  2  0  0  0  0
 50 66  1  6  0  0  0
 50 45  1  0  0  0  0
 51 52  1  0  0  0  0
 52 58  1  1  0  0  0
 53 54  1  0  0  0  0
 53 55  1  0  0  0  0
 54 51  2  0  0  0  0
 55 50  1  1  0  0  0
 55 52  1  0  0  0  0
 58 57  2  0  0  0  0
 58 56  1  0  0  0  0
 60 59  1  6  0  0  0
 60 53  1  0  0  0  0
 61 60  1  0  0  0  0
 62 61  1  0  0  0  0
 63 62  1  0  0  0  0
 64 63  1  0  0  0  0
 66 65  1  0  0  0  0
M  END
>  <MODEL>
2

>  <REMARK>
 VINA RESULT:      -5.4      2.909      5.495
  Name = 
  28 active torsions:
  status: ('A' for Active; 'I' for Inactive)
    1  A    between atoms: C_1  and  C_55
    2  A    between atoms: C_3  and  C_14
    3  A    between atoms: C_3  and  C_24
    4  A    between atoms: O_4  and  C_10
    5  A    between atoms: O_4  and  C_63
    6  A    between atoms: C_7  and  C_53
    7  A    between atoms: C_7  and  C_66
    8  A    between atoms: C_8  and  C_62
    9  A    between atoms: C_11  and  C_61
   10  A    between atoms: C_12  and  C_28
   11  A    between atoms: C_12  and  C_52
   12  A    between atoms: C_13  and  N_23
   13  A    between atoms: C_13  and  C_57
   14  A    between atoms: C_14  and  C_27
   15  A    between atoms: C_14  and  O_37
   16  A    between atoms: C_15  and  O_41
   17  A    between atoms: C_15  and  C_48
   18  A    between atoms: C_16  and  C_58
   19  A    between atoms: C_16  and  C_63
   20  A    between atoms: C_20  and  C_35
   21  A    between atoms: C_20  and  C_57
   22  A    between atoms: C_24  and  C_26
   23  A    between atoms: C_27  and  N_46
   24  A    between atoms: C_27  and  C_62
   25  A    between atoms: C_38  and  C_62
   26  A    between atoms: O_41  and  C_55
   27  A    between atoms: C_45  and  C_58
   28  A    between atoms: C_60  and  C_63
                            x       y       z     vdW  Elec       q    Type
                         _______ _______ _______ _____ _____    ______ ____

>  <TORSDO>
F 28

$$$$
=
 OpenBabel11062415053D

 66 70  0  0  1  0  0  0  0  0999 V2000
  182.6620  177.7270  138.3890 C   0  0  0  0  0  0  0  0  0  0  0  0
  183.2340  178.3010  139.5370 C   0  0  0  0  0  0  0  0  0  0  0  0
  182.6140  179.3910  140.1570 C   0  0  0  0  0  3  0  0  0  0  0  0
  181.4780  178.2670  137.8640 C   0  0  0  0  0  3  0  0  0  0  0  0
  181.4360  179.9240  139.6280 C   0  0  0  0  0  3  0  0  0  0  0  0
  180.8660  179.3620  138.4800 C   0  0  0  0  0  0  0  0  0  0  0  0
  183.2850  176.6270  137.7890 O   0  0  0  0  0  0  0  0  0  0  0  0
  183.5200  176.5250  136.3890 C   0  0  2  0  0  3  0  0  0  0  0  0
  181.7890  176.8930  134.6280 O   0  0  0  0  0  0  0  0  0  0  0  0
  182.2560  176.1300  135.6890 C   0  0  0  0  0  0  0  0  0  0  0  0
  181.6150  175.1070  136.0520 O   0  0  0  0  0  1  0  0  0  0  0  0
  184.6150  175.4980  136.1510 C   0  0  0  0  0  2  0  0  0  0  0  0
  185.9450  175.9500  136.7530 C   0  0  0  0  0  2  0  0  0  0  0  0
  188.3590  175.3150  136.3830 C   0  0  0  0  0  0  0  0  0  0  0  0
  189.1670  177.7020  135.6900 S   0  0  0  0  0  0  0  0  0  0  0  0
  186.7690  177.9090  134.5940 O   0  0  0  0  0  0  0  0  0  0  0  0
  187.5080  177.2080  135.2690 C   0  0  0  0  0  0  0  0  0  0  0  0
  187.1090  175.8610  135.7600 C   0  0  2  0  0  3  0  0  0  0  0  0
  189.3870  176.1010  136.4080 N   0  0  0  0  0  0  0  0  0  0  0  0
  188.4300  173.9730  136.9750 C   0  0  0  0  0  0  0  0  0  0  0  0
  189.5360  173.5130  137.3730 O   0  0  0  0  0  0  0  0  0  0  0  0
  187.2680  173.2020  137.0670 O   0  0  0  0  0  0  0  0  0  0  0  0
  187.0090  172.0930  136.2110 C   0  0  2  0  0  3  0  0  0  0  0  0
  187.7020  172.2780  134.8720 C   0  0  0  0  0  1  0  0  0  0  0  0
  183.2960  171.9050  136.9370 C   0  0  0  0  0  3  0  0  0  0  0  0
  184.6730  172.0870  137.0990 C   0  0  0  0  0  3  0  0  0  0  0  0
  185.0160  171.5590  134.7590 C   0  0  0  0  0  3  0  0  0  0  0  0
  183.6400  171.3780  134.5970 C   0  0  0  0  0  3  0  0  0  0  0  0
  182.7800  171.5530  135.6860 C   0  0  0  0  0  3  0  0  0  0  0  0
  185.5380  171.9240  136.0090 C   0  0  0  0  0  0  0  0  0  0  0  0
  179.6240  179.9440  137.8930 C   0  0  0  0  0  2  0  0  0  0  0  0
  180.0340  181.9500  136.2100 C   0  0  2  0  0  3  0  0  0  0  0  0
  179.5950  179.6930  135.3910 O   0  0  0  0  0  1  0  0  0  0  0  0
  179.8790  180.5010  136.4920 C   0  0  2  0  0  0  0  0  0  0  0  0
  181.1480  181.0960  136.3790 O   0  0  0  0  0  0  0  0  0  0  0  0
  179.8610  182.8190  137.4480 C   0  0  0  0  0  2  0  0  0  0  0  0
  179.9890  185.2580  137.9380 O   0  0  0  0  0  1  0  0  0  0  0  0
  180.4530  184.1640  137.2170 C   0  0  0  0  0  0  0  0  0  0  0  0
  181.3870  184.3080  136.3850 O   0  0  0  0  0  0  0  0  0  0  0  0
  184.4680  177.7190  140.1400 C   0  0  0  0  0  2  0  0  0  0  0  0
  185.1960  178.7790  140.9480 C   0  0  0  0  0  2  0  0  0  0  0  0
  185.1320  178.4670  142.4420 C   0  0  2  0  0  3  0  0  0  0  0  0
  183.1810  178.4180  143.4610 O   0  0  0  0  0  1  0  0  0  0  0  0
  184.1610  179.2340  143.1210 O   0  0  0  0  0  0  0  0  0  0  0  0
  186.5070  178.4490  143.1370 C   0  0  1  0  0  3  0  0  0  0  0  0
  185.7960  178.5590  146.9470 C   0  0  0  0  0  1  0  0  0  0  0  0
  185.8900  178.9920  145.5290 C   0  0  0  0  0  0  0  0  0  0  0  0
  185.5200  180.1510  145.2040 O   0  0  0  0  0  0  0  0  0  0  0  0
  186.4200  178.0980  144.5510 N   0  0  0  0  0  2  0  0  0  0  0  0
  187.5450  177.5910  142.3950 C   0  0  1  0  0  3  0  0  0  0  0  0
  190.8850  177.9730  141.0130 C   0  0  0  0  0  3  0  0  0  0  0  0
  189.4580  178.3420  140.7580 C   0  0  2  0  0  3  0  0  0  0  0  0
  189.9580  177.9050  143.0190 N   0  0  0  0  0  0  0  0  0  0  0  0
  191.1120  177.7340  142.2560 N   0  0  0  0  0  0  0  0  0  0  0  0
  188.8580  178.3850  142.1900 C   0  0  2  0  0  3  0  0  0  0  0  0
  187.7670  177.6620  139.0280 O   0  0  0  0  0  0  0  0  0  0  0  0
  189.3410  176.1740  139.7680 O   0  0  0  0  0  1  0  0  0  0  0  0
  188.8550  177.3310  139.8280 C   0  0  0  0  0  0  0  0  0  0  0  0
  190.6590  179.2500  144.8100 O   0  0  0  0  0  1  0  0  0  0  0  0
  190.0150  178.0580  144.4700 C   0  0  2  0  0  3  0  0  0  0  0  0
  190.7070  176.8640  145.1210 C   0  0  0  0  0  2  0  0  0  0  0  0
  190.7340  176.9720  146.6410 C   0  0  0  0  0  2  0  0  0  0  0  0
  189.3240  176.9120  147.1960 C   0  0  0  0  0  2  0  0  0  0  0  0
  189.1120  178.0130  148.2170 C   0  0  0  0  0  1  0  0  0  0  0  0
  186.8450  176.1740  144.3140 C   0  0  0  0  0  1  0  0  0  0  0  0
  187.7840  176.2750  143.1290 C   0  0  0  0  0  2  0  0  0  0  0  0
  1  2  1  0  0  0  0
  2 40  1  0  0  0  0
  2  3  2  0  0  0  0
  4  1  2  0  0  0  0
  4  6  1  0  0  0  0
  5  3  1  0  0  0  0
  6  5  2  0  0  0  0
  7  1  1  0  0  0  0
  8 12  1  1  0  0  0
  8  7  1  0  0  0  0
  9 10  2  0  0  0  0
 10 11  1  0  0  0  0
 10  8  1  0  0  0  0
 12 13  1  0  0  0  0
 14 19  2  0  0  0  0
 14 20  1  0  0  0  0
 15 19  1  0  0  0  0
 16 17  2  0  0  0  0
 17 15  1  0  0  0  0
 17 18  1  0  0  0  0
 18 14  1  0  0  0  0
 18 13  1  1  0  0  0
 20 22  1  0  0  0  0
 20 21  2  0  0  0  0
 23 24  1  6  0  0  0
 23 22  1  0  0  0  0
 25 26  1  0  0  0  0
 27 30  1  0  0  0  0
 28 27  2  0  0  0  0
 28 29  1  0  0  0  0
 29 25  2  0  0  0  0
 30 23  1  0  0  0  0
 30 26  2  0  0  0  0
 31  6  1  0  0  0  0
 32 35  1  0  0  0  0
 32 34  1  0  0  0  0
 32 36  1  1  0  0  0
 34 33  1  6  0  0  0
 34 31  1  0  0  0  0
 35 34  1  0  0  0  0
 38 36  1  0  0  0  0
 38 37  1  0  0  0  0
 39 38  2  0  0  0  0
 40 41  1  0  0  0  0
 42 41  1  6  0  0  0
 42 44  1  0  0  0  0
 42 45  1  0  0  0  0
 44 43  1  0  0  0  0
 45 49  1  1  0  0  0
 47 46  1  0  0  0  0
 48 47  2  0  0  0  0
 49 47  1  0  0  0  0
 50 66  1  1  0  0  0
 50 45  1  0  0  0  0
 51 54  2  0  0  0  0
 52 58  1  6  0  0  0
 52 51  1  0  0  0  0
 52 55  1  0  0  0  0
 53 60  1  0  0  0  0
 54 53  1  0  0  0  0
 55 50  1  6  0  0  0
 55 53  1  0  0  0  0
 56 58  2  0  0  0  0
 57 58  1  0  0  0  0
 60 59  1  6  0  0  0
 60 61  1  0  0  0  0
 61 62  1  0  0  0  0
 62 63  1  0  0  0  0
 63 64  1  0  0  0  0
 66 65  1  0  0  0  0
M  END
>  <MODEL>
3

>  <REMARK>
 VINA RESULT:      -5.2      3.220     10.800
  Name = 
  28 active torsions:
  status: ('A' for Active; 'I' for Inactive)
    1  A    between atoms: C_1  and  C_55
    2  A    between atoms: C_3  and  C_14
    3  A    between atoms: C_3  and  C_24
    4  A    between atoms: O_4  and  C_10
    5  A    between atoms: O_4  and  C_63
    6  A    between atoms: C_7  and  C_53
    7  A    between atoms: C_7  and  C_66
    8  A    between atoms: C_8  and  C_62
    9  A    between atoms: C_11  and  C_61
   10  A    between atoms: C_12  and  C_28
   11  A    between atoms: C_12  and  C_52
   12  A    between atoms: C_13  and  N_23
   13  A    between atoms: C_13  and  C_57
   14  A    between atoms: C_14  and  C_27
   15  A    between atoms: C_14  and  O_37
   16  A    between atoms: C_15  and  O_41
   17  A    between atoms: C_15  and  C_48
   18  A    between atoms: C_16  and  C_58
   19  A    between atoms: C_16  and  C_63
   20  A    between atoms: C_20  and  C_35
   21  A    between atoms: C_20  and  C_57
   22  A    between atoms: C_24  and  C_26
   23  A    between atoms: C_27  and  N_46
   24  A    between atoms: C_27  and  C_62
   25  A    between atoms: C_38  and  C_62
   26  A    between atoms: O_41  and  C_55
   27  A    between atoms: C_45  and  C_58
   28  A    between atoms: C_60  and  C_63
                            x       y       z     vdW  Elec       q    Type
                         _______ _______ _______ _____ _____    ______ ____

>  <TORSDO>
F 28

$$$$
=
 OpenBabel11062415053D

 66 70  0  0  1  0  0  0  0  0999 V2000
  188.0080  177.6620  138.5090 C   0  0  0  0  0  0  0  0  0  0  0  0
  186.8080  177.9150  137.8220 C   0  0  0  0  0  0  0  0  0  0  0  0
  186.7900  177.9110  136.4240 C   0  0  0  0  0  3  0  0  0  0  0  0
  189.1840  177.4250  137.7820 C   0  0  0  0  0  3  0  0  0  0  0  0
  187.9650  177.6760  135.7050 C   0  0  0  0  0  3  0  0  0  0  0  0
  189.1650  177.4330  136.3850 C   0  0  0  0  0  0  0  0  0  0  0  0
  188.0080  177.6520  139.9090 O   0  0  0  0  0  0  0  0  0  0  0  0
  189.0950  178.1240  140.6970 C   0  0  2  0  0  3  0  0  0  0  0  0
  191.4220  177.4340  141.2800 O   0  0  0  0  0  1  0  0  0  0  0  0
  190.2190  177.1360  140.6550 C   0  0  0  0  0  0  0  0  0  0  0  0
  190.0820  176.0330  140.0620 O   0  0  0  0  0  0  0  0  0  0  0  0
  188.6100  178.3330  142.1230 C   0  0  0  0  0  2  0  0  0  0  0  0
  187.1950  177.7920  142.3160 C   0  0  0  0  0  2  0  0  0  0  0  0
  185.4670  178.2770  144.0900 C   0  0  0  0  0  0  0  0  0  0  0  0
  183.5240  178.8360  142.4360 S   0  0  0  0  0  0  0  0  0  0  0  0
  185.4490  179.8420  140.9270 O   0  0  0  0  0  0  0  0  0  0  0  0
  185.1920  179.2380  141.9570 C   0  0  0  0  0  0  0  0  0  0  0  0
  186.2410  178.8250  142.9290 C   0  0  2  0  0  3  0  0  0  0  0  0
  184.1800  178.2320  143.9620 N   0  0  0  0  0  0  0  0  0  0  0  0
  186.1140  177.7770  145.3110 C   0  0  0  0  0  0  0  0  0  0  0  0
  185.4620  177.0760  146.1330 O   0  0  0  0  0  0  0  0  0  0  0  0
  187.4480  178.1090  145.5640 O   0  0  0  0  0  0  0  0  0  0  0  0
  188.1050  177.7830  146.7860 C   0  0  2  0  0  3  0  0  0  0  0  0
  188.1780  178.9980  147.6940 C   0  0  0  0  0  1  0  0  0  0  0  0
  191.3860  177.0870  145.0250 C   0  0  0  0  0  3  0  0  0  0  0  0
  190.1120  177.5900  145.3100 C   0  0  0  0  0  3  0  0  0  0  0  0
  190.1220  176.4100  147.4260 C   0  0  0  0  0  3  0  0  0  0  0  0
  191.3960  175.9090  147.1420 C   0  0  0  0  0  3  0  0  0  0  0  0
  192.0280  176.2500  145.9420 C   0  0  0  0  0  3  0  0  0  0  0  0
  189.4790  177.2610  146.5150 C   0  0  0  0  0  0  0  0  0  0  0  0
  190.4290  177.2090  135.6240 C   0  0  0  0  0  2  0  0  0  0  0  0
  192.1330  175.2080  135.9670 C   0  0  2  0  0  3  0  0  0  0  0  0
  190.0060  174.8630  134.8230 O   0  0  0  0  0  1  0  0  0  0  0  0
  190.7960  175.7250  135.5830 C   0  0  2  0  0  0  0  0  0  0  0  0
  191.0410  175.2010  136.8650 O   0  0  0  0  0  0  0  0  0  0  0  0
  193.1090  176.3120  136.3550 C   0  0  0  0  0  2  0  0  0  0  0  0
  195.2650  175.1330  136.7650 O   0  0  0  0  0  0  0  0  0  0  0  0
  194.1460  175.7780  137.2790 C   0  0  0  0  0  0  0  0  0  0  0  0
  194.0200  175.9270  138.5230 O   0  0  0  0  0  1  0  0  0  0  0  0
  185.5370  178.1260  138.5720 C   0  0  0  0  0  2  0  0  0  0  0  0
  184.3890  177.4520  137.8400 C   0  0  0  0  0  2  0  0  0  0  0  0
  183.1430  177.3860  138.7220 C   0  0  2  0  0  3  0  0  0  0  0  0
  182.3430  175.5240  139.5830 O   0  0  0  0  0  1  0  0  0  0  0  0
  183.2650  176.4510  139.7720 O   0  0  0  0  0  0  0  0  0  0  0  0
  181.8250  177.2650  137.9330 C   0  0  1  0  0  3  0  0  0  0  0  0
  180.0230  180.5550  138.9170 C   0  0  0  0  0  1  0  0  0  0  0  0
  181.1040  179.6200  138.5070 C   0  0  0  0  0  0  0  0  0  0  0  0
  182.2660  180.0600  138.3050 O   0  0  0  0  0  0  0  0  0  0  0  0
  180.8180  178.2290  138.3670 N   0  0  0  0  0  2  0  0  0  0  0  0
  182.0300  177.2970  136.4100 C   0  0  1  0  0  3  0  0  0  0  0  0
  181.1070  173.7850  136.5680 C   0  0  0  0  0  3  0  0  0  0  0  0
  180.6650  175.0910  135.9900 C   0  0  2  0  0  3  0  0  0  0  0  0
  182.9710  174.9690  136.4590 N   0  0  0  0  0  0  0  0  0  0  0  0
  182.3690  173.7640  136.8180 N   0  0  0  0  0  0  0  0  0  0  0  0
  182.0050  175.8620  135.8300 C   0  0  2  0  0  3  0  0  0  0  0  0
  179.4530  175.2030  138.1880 O   0  0  0  0  0  1  0  0  0  0  0  0
  179.0030  176.7150  136.5300 O   0  0  0  0  0  0  0  0  0  0  0  0
  179.6600  175.7150  136.9120 C   0  0  0  0  0  0  0  0  0  0  0  0
  184.7380  175.3010  134.9500 O   0  0  0  0  0  1  0  0  0  0  0  0
  184.4180  175.0810  136.2910 C   0  0  2  0  0  3  0  0  0  0  0  0
  185.1290  173.8390  136.8200 C   0  0  0  0  0  2  0  0  0  0  0  0
  186.5530  174.1400  137.2720 C   0  0  0  0  0  2  0  0  0  0  0  0
  187.4270  172.9110  137.1050 C   0  0  0  0  0  2  0  0  0  0  0  0
  187.1420  172.2380  135.7770 C   0  0  0  0  0  1  0  0  0  0  0  0
  181.6430  178.9530  134.5970 C   0  0  0  0  0  1  0  0  0  0  0  0
  180.9970  178.2000  135.7420 C   0  0  0  0  0  2  0  0  0  0  0  0
  1  7  1  0  0  0  0
  2  1  1  0  0  0  0
  2 40  1  0  0  0  0
  3  2  2  0  0  0  0
  4  1  2  0  0  0  0
  5  6  2  0  0  0  0
  5  3  1  0  0  0  0
  6  4  1  0  0  0  0
  7  8  1  0  0  0  0
  8 12  1  1  0  0  0
 10  8  1  0  0  0  0
 10  9  1  0  0  0  0
 11 10  2  0  0  0  0
 12 13  1  0  0  0  0
 14 20  1  0  0  0  0
 15 19  1  0  0  0  0
 16 17  2  0  0  0  0
 17 15  1  0  0  0  0
 17 18  1  0  0  0  0
 18 13  1  6  0  0  0
 18 14  1  0  0  0  0
 19 14  2  0  0  0  0
 20 22  1  0  0  0  0
 20 21  2  0  0  0  0
 22 23  1  0  0  0  0
 23 24  1  1  0  0  0
 25 26  2  0  0  0  0
 25 29  1  0  0  0  0
 26 30  1  0  0  0  0
 28 27  1  0  0  0  0
 29 28  2  0  0  0  0
 30 23  1  0  0  0  0
 30 27  2  0  0  0  0
 31  6  1  0  0  0  0
 32 36  1  1  0  0  0
 32 35  1  0  0  0  0
 34 33  1  6  0  0  0
 34 31  1  0  0  0  0
 34 32  1  0  0  0  0
 34 35  1  0  0  0  0
 36 38  1  0  0  0  0
 37 38  2  0  0  0  0
 38 39  1  0  0  0  0
 41 40  1  0  0  0  0
 42 41  1  6  0  0  0
 42 44  1  0  0  0  0
 43 44  1  0  0  0  0
 45 49  1  1  0  0  0
 45 42  1  0  0  0  0
 47 46  1  0  0  0  0
 48 47  2  0  0  0  0
 49 47  1  0  0  0  0
 50 66  1  6  0  0  0
 50 45  1  0  0  0  0
 51 54  2  0  0  0  0
 52 51  1  0  0  0  0
 52 58  1  1  0  0  0
 53 54  1  0  0  0  0
 55 52  1  0  0  0  0
 55 50  1  1  0  0  0
 55 53  1  0  0  0  0
 57 58  2  0  0  0  0
 58 56  1  0  0  0  0
 60 59  1  6  0  0  0
 60 53  1  0  0  0  0
 60 61  1  0  0  0  0
 61 62  1  0  0  0  0
 63 62  1  0  0  0  0
 64 63  1  0  0  0  0
 65 66  1  0  0  0  0
M  END
>  <MODEL>
4

>  <REMARK>
 VINA RESULT:      -5.1      1.744      2.617
  Name = 
  28 active torsions:
  status: ('A' for Active; 'I' for Inactive)
    1  A    between atoms: C_1  and  C_55
    2  A    between atoms: C_3  and  C_14
    3  A    between atoms: C_3  and  C_24
    4  A    between atoms: O_4  and  C_10
    5  A    between atoms: O_4  and  C_63
    6  A    between atoms: C_7  and  C_53
    7  A    between atoms: C_7  and  C_66
    8  A    between atoms: C_8  and  C_62
    9  A    between atoms: C_11  and  C_61
   10  A    between atoms: C_12  and  C_28
   11  A    between atoms: C_12  and  C_52
   12  A    between atoms: C_13  and  N_23
   13  A    between atoms: C_13  and  C_57
   14  A    between atoms: C_14  and  C_27
   15  A    between atoms: C_14  and  O_37
   16  A    between atoms: C_15  and  O_41
   17  A    between atoms: C_15  and  C_48
   18  A    between atoms: C_16  and  C_58
   19  A    between atoms: C_16  and  C_63
   20  A    between atoms: C_20  and  C_35
   21  A    between atoms: C_20  and  C_57
   22  A    between atoms: C_24  and  C_26
   23  A    between atoms: C_27  and  N_46
   24  A    between atoms: C_27  and  C_62
   25  A    between atoms: C_38  and  C_62
   26  A    between atoms: O_41  and  C_55
   27  A    between atoms: C_45  and  C_58
   28  A    between atoms: C_60  and  C_63
                            x       y       z     vdW  Elec       q    Type
                         _______ _______ _______ _____ _____    ______ ____

>  <TORSDO>
F 28

$$$$
=
 OpenBabel11062415053D

 66 70  0  0  1  0  0  0  0  0999 V2000
  188.6190  177.4510  138.6930 C   0  0  0  0  0  0  0  0  0  0  0  0
  187.5230  176.9630  137.9600 C   0  0  0  0  0  0  0  0  0  0  0  0
  187.7370  176.2410  136.7820 C   0  0  0  0  0  3  0  0  0  0  0  0
  189.9210  177.2220  138.2240 C   0  0  0  0  0  3  0  0  0  0  0  0
  189.0360  176.0170  136.3190 C   0  0  0  0  0  3  0  0  0  0  0  0
  190.1300  176.5090  137.0400 C   0  0  0  0  0  0  0  0  0  0  0  0
  188.3900  178.1580  139.8790 O   0  0  0  0  0  0  0  0  0  0  0  0
  189.2270  178.0580  141.0260 C   0  0  2  0  0  3  0  0  0  0  0  0
  191.6270  177.8220  140.3820 O   0  0  0  0  0  0  0  0  0  0  0  0
  190.4230  177.2140  140.7090 C   0  0  0  0  0  0  0  0  0  0  0  0
  190.3480  175.9570  140.7440 O   0  0  0  0  0  1  0  0  0  0  0  0
  188.4230  177.4540  142.1660 C   0  0  0  0  0  2  0  0  0  0  0  0
  186.9230  177.5130  141.8830 C   0  0  0  0  0  2  0  0  0  0  0  0
  185.5670  178.2550  143.8790 C   0  0  0  0  0  0  0  0  0  0  0  0
  183.4960  179.0770  142.5130 S   0  0  0  0  0  0  0  0  0  0  0  0
  185.2960  179.7840  140.7090 O   0  0  0  0  0  0  0  0  0  0  0  0
  185.1140  179.2300  141.7830 C   0  0  0  0  0  0  0  0  0  0  0  0
  186.2270  178.6770  142.6010 C   0  0  2  0  0  3  0  0  0  0  0  0
  184.2820  178.3950  143.9430 N   0  0  0  0  0  0  0  0  0  0  0  0
  186.3130  177.6750  145.0040 C   0  0  0  0  0  0  0  0  0  0  0  0
  185.8970  176.6250  145.5660 O   0  0  0  0  0  0  0  0  0  0  0  0
  187.4680  178.3140  145.4620 O   0  0  0  0  0  0  0  0  0  0  0  0
  188.5150  177.6230  146.1360 C   0  0  2  0  0  3  0  0  0  0  0  0
  188.7600  178.2300  147.5080 C   0  0  0  0  0  1  0  0  0  0  0  0
  191.3400  178.9250  143.9740 C   0  0  0  0  0  3  0  0  0  0  0  0
  190.1830  178.8740  144.7590 C   0  0  0  0  0  3  0  0  0  0  0  0
  190.5150  176.4960  145.0890 C   0  0  0  0  0  3  0  0  0  0  0  0
  191.6720  176.5480  144.3060 C   0  0  0  0  0  3  0  0  0  0  0  0
  192.0850  177.7640  143.7500 C   0  0  0  0  0  3  0  0  0  0  0  0
  189.7710  177.6620  145.3270 C   0  0  0  0  0  0  0  0  0  0  0  0
  191.5190  176.2980  136.5380 C   0  0  0  0  0  2  0  0  0  0  0  0
  192.9300  174.1610  137.2210 C   0  0  2  0  0  3  0  0  0  0  0  0
  191.4050  174.1030  135.3180 O   0  0  0  0  0  1  0  0  0  0  0  0
  191.8520  174.8100  136.4330 C   0  0  2  0  0  0  0  0  0  0  0  0
  191.5750  174.1170  137.6250 O   0  0  0  0  0  0  0  0  0  0  0  0
  193.6960  175.1400  138.1010 C   0  0  0  0  0  2  0  0  0  0  0  0
  195.7330  173.9670  137.2770 O   0  0  0  0  0  0  0  0  0  0  0  0
  195.0950  174.6720  138.2910 C   0  0  0  0  0  0  0  0  0  0  0  0
  195.7080  174.9320  139.3600 O   0  0  0  0  0  1  0  0  0  0  0  0
  186.1310  177.1560  138.4600 C   0  0  0  0  0  2  0  0  0  0  0  0
  185.3050  177.8850  137.4140 C   0  0  0  0  0  2  0  0  0  0  0  0
  184.9260  176.9490  136.2680 C   0  0  2  0  0  3  0  0  0  0  0  0
  186.0680  177.8220  134.6000 O   0  0  0  0  0  1  0  0  0  0  0  0
  184.8350  177.6130  135.0260 O   0  0  0  0  0  0  0  0  0  0  0  0
  183.7200  176.0390  136.5750 C   0  0  1  0  0  3  0  0  0  0  0  0
  184.3630  172.2320  136.9310 C   0  0  0  0  0  1  0  0  0  0  0  0
  183.9020  173.5260  136.3630 C   0  0  0  0  0  0  0  0  0  0  0  0
  183.3090  173.5440  135.2520 O   0  0  0  0  0  0  0  0  0  0  0  0
  184.1170  174.7330  137.0930 N   0  0  0  0  0  2  0  0  0  0  0  0
  182.6700  176.7160  137.4700 C   0  0  1  0  0  3  0  0  0  0  0  0
  179.7250  178.7930  136.9900 C   0  0  0  0  0  3  0  0  0  0  0  0
  181.1960  178.7590  136.7210 C   0  0  2  0  0  3  0  0  0  0  0  0
  180.2070  176.6360  136.9800 N   0  0  0  0  0  0  0  0  0  0  0  0
  179.2280  177.6160  137.1340 N   0  0  0  0  0  0  0  0  0  0  0  0
  181.4870  177.2360  136.6180 C   0  0  2  0  0  3  0  0  0  0  0  0
  182.8120  178.8200  138.6440 O   0  0  0  0  0  1  0  0  0  0  0  0
  181.6900  180.7090  138.0040 O   0  0  0  0  0  0  0  0  0  0  0  0
  181.9080  179.4850  137.8240 C   0  0  0  0  0  0  0  0  0  0  0  0
  179.1610  175.1200  135.5250 O   0  0  0  0  0  1  0  0  0  0  0  0
  179.8600  175.2400  136.7280 C   0  0  2  0  0  3  0  0  0  0  0  0
  179.0510  174.6590  137.8840 C   0  0  0  0  0  2  0  0  0  0  0  0
  179.1140  173.1370  137.9230 C   0  0  0  0  0  2  0  0  0  0  0  0
  179.9680  172.6180  136.7820 C   0  0  0  0  0  2  0  0  0  0  0  0
  179.9180  171.1030  136.7330 C   0  0  0  0  0  1  0  0  0  0  0  0
  182.3330  176.4510  139.9190 C   0  0  0  0  0  1  0  0  0  0  0  0
  182.2050  175.7690  138.5720 C   0  0  0  0  0  2  0  0  0  0  0  0
  1  7  1  0  0  0  0
  2 40  1  0  0  0  0
  2  1  2  0  0  0  0
  3  2  1  0  0  0  0
  4  1  1  0  0  0  0
  5  3  2  0  0  0  0
  5  6  1  0  0  0  0
  6  4  2  0  0  0  0
  7  8  1  0  0  0  0
  8 12  1  1  0  0  0
  9 10  2  0  0  0  0
 10 11  1  0  0  0  0
 10  8  1  0  0  0  0
 13 12  1  0  0  0  0
 14 19  2  0  0  0  0
 14 20  1  0  0  0  0
 15 19  1  0  0  0  0
 16 17  2  0  0  0  0
 17 15  1  0  0  0  0
 17 18  1  0  0  0  0
 18 13  1  6  0  0  0
 18 14  1  0  0  0  0
 20 22  1  0  0  0  0
 20 21  2  0  0  0  0
 22 23  1  0  0  0  0
 23 24  1  1  0  0  0
 25 26  1  0  0  0  0
 26 30  2  0  0  0  0
 27 30  1  0  0  0  0
 28 27  2  0  0  0  0
 29 25  2  0  0  0  0
 29 28  1  0  0  0  0
 30 23  1  0  0  0  0
 31  6  1  0  0  0  0
 32 35  1  0  0  0  0
 32 36  1  1  0  0  0
 34 33  1  6  0  0  0
 34 31  1  0  0  0  0
 34 32  1  0  0  0  0
 34 35  1  0  0  0  0
 36 38  1  0  0  0  0
 37 38  2  0  0  0  0
 38 39  1  0  0  0  0
 41 40  1  0  0  0  0
 42 45  1  0  0  0  0
 42 41  1  1  0  0  0
 43 44  1  0  0  0  0
 44 42  1  0  0  0  0
 45 49  1  1  0  0  0
 45 50  1  0  0  0  0
 47 46  1  0  0  0  0
 47 49  1  0  0  0  0
 48 47  2  0  0  0  0
 50 66  1  1  0  0  0
 51 54  2  0  0  0  0
 52 51  1  0  0  0  0
 52 58  1  1  0  0  0
 53 54  1  0  0  0  0
 55 52  1  0  0  0  0
 55 53  1  0  0  0  0
 55 50  1  1  0  0  0
 58 57  2  0  0  0  0
 58 56  1  0  0  0  0
 60 59  1  6  0  0  0
 60 53  1  0  0  0  0
 60 61  1  0  0  0  0
 61 62  1  0  0  0  0
 63 62  1  0  0  0  0
 64 63  1  0  0  0  0
 66 65  1  0  0  0  0
M  END
>  <MODEL>
5

>  <REMARK>
 VINA RESULT:      -4.8      1.917      3.895
  Name = 
  28 active torsions:
  status: ('A' for Active; 'I' for Inactive)
    1  A    between atoms: C_1  and  C_55
    2  A    between atoms: C_3  and  C_14
    3  A    between atoms: C_3  and  C_24
    4  A    between atoms: O_4  and  C_10
    5  A    between atoms: O_4  and  C_63
    6  A    between atoms: C_7  and  C_53
    7  A    between atoms: C_7  and  C_66
    8  A    between atoms: C_8  and  C_62
    9  A    between atoms: C_11  and  C_61
   10  A    between atoms: C_12  and  C_28
   11  A    between atoms: C_12  and  C_52
   12  A    between atoms: C_13  and  N_23
   13  A    between atoms: C_13  and  C_57
   14  A    between atoms: C_14  and  C_27
   15  A    between atoms: C_14  and  O_37
   16  A    between atoms: C_15  and  O_41
   17  A    between atoms: C_15  and  C_48
   18  A    between atoms: C_16  and  C_58
   19  A    between atoms: C_16  and  C_63
   20  A    between atoms: C_20  and  C_35
   21  A    between atoms: C_20  and  C_57
   22  A    between atoms: C_24  and  C_26
   23  A    between atoms: C_27  and  N_46
   24  A    between atoms: C_27  and  C_62
   25  A    between atoms: C_38  and  C_62
   26  A    between atoms: O_41  and  C_55
   27  A    between atoms: C_45  and  C_58
   28  A    between atoms: C_60  and  C_63
                            x       y       z     vdW  Elec       q    Type
                         _______ _______ _______ _____ _____    ______ ____

>  <TORSDO>
F 28

$$$$
=
 OpenBabel11062415053D

 66 70  0  0  1  0  0  0  0  0999 V2000
  186.9340  177.2490  138.0910 C   0  0  0  0  0  0  0  0  0  0  0  0
  186.8580  178.1240  139.1880 C   0  0  0  0  0  0  0  0  0  0  0  0
  185.6330  178.6980  139.5400 C   0  0  0  0  0  3  0  0  0  0  0  0
  185.7770  176.9730  137.3460 C   0  0  0  0  0  3  0  0  0  0  0  0
  184.4850  178.4200  138.7940 C   0  0  0  0  0  3  0  0  0  0  0  0
  184.5560  177.5570  137.6950 C   0  0  0  0  0  0  0  0  0  0  0  0
  188.1640  176.6690  137.7600 O   0  0  0  0  0  0  0  0  0  0  0  0
  189.3610  177.4170  137.5770 C   0  0  2  0  0  3  0  0  0  0  0  0
  189.3790  178.1570  135.1940 O   0  0  0  0  0  0  0  0  0  0  0  0
  189.1500  178.4640  136.5280 C   0  0  0  0  0  0  0  0  0  0  0  0
  188.7600  179.6190  136.8440 O   0  0  0  0  0  1  0  0  0  0  0  0
  190.4760  176.4650  137.1770 C   0  0  0  0  0  2  0  0  0  0  0  0
  189.9850  175.4170  136.1800 C   0  0  0  0  0  2  0  0  0  0  0  0
  191.7500  173.6230  135.9940 C   0  0  0  0  0  0  0  0  0  0  0  0
  190.2270  171.8620  134.8080 S   0  0  0  0  0  0  0  0  0  0  0  0
  188.3100  172.8950  136.3090 O   0  0  0  0  0  0  0  0  0  0  0  0
  189.4830  172.9800  135.9780 C   0  0  0  0  0  0  0  0  0  0  0  0
  190.4090  173.9920  136.5560 C   0  0  2  0  0  3  0  0  0  0  0  0
  191.7770  172.6360  135.1570 N   0  0  0  0  0  0  0  0  0  0  0  0
  192.9800  174.3500  136.3340 C   0  0  0  0  0  0  0  0  0  0  0  0
  193.3660  175.3120  135.6150 O   0  0  0  0  0  0  0  0  0  0  0  0
  193.7300  173.9470  137.4430 O   0  0  0  0  0  0  0  0  0  0  0  0
  195.1370  174.1550  137.5380 C   0  0  2  0  0  3  0  0  0  0  0  0
  195.6320  175.0020  136.3790 C   0  0  0  0  0  1  0  0  0  0  0  0
  197.9260  171.6010  137.3250 C   0  0  0  0  0  3  0  0  0  0  0  0
  197.2380  172.8190  137.3360 C   0  0  0  0  0  3  0  0  0  0  0  0
  195.1630  171.6410  137.7550 C   0  0  0  0  0  3  0  0  0  0  0  0
  195.8500  170.4240  137.7450 C   0  0  0  0  0  3  0  0  0  0  0  0
  197.2320  170.4050  137.5320 C   0  0  0  0  0  3  0  0  0  0  0  0
  195.8560  172.8450  137.5610 C   0  0  0  0  0  0  0  0  0  0  0  0
  183.3410  177.2770  136.8760 C   0  0  0  0  0  2  0  0  0  0  0  0
  180.9640  178.1580  137.6510 C   0  0  2  0  0  3  0  0  0  0  0  0
  182.1430  176.4410  138.9230 O   0  0  0  0  0  1  0  0  0  0  0  0
  182.0890  177.1950  137.7500 C   0  0  2  0  0  0  0  0  0  0  0  0
  180.9360  176.9010  137.0030 O   0  0  0  0  0  0  0  0  0  0  0  0
  181.2110  179.2570  136.6270 C   0  0  0  0  0  2  0  0  0  0  0  0
  181.6990  180.7750  138.5400 O   0  0  0  0  0  1  0  0  0  0  0  0
  181.1410  180.5920  137.2800 C   0  0  0  0  0  0  0  0  0  0  0  0
  180.5970  181.5590  136.6850 O   0  0  0  0  0  0  0  0  0  0  0  0
  188.0640  178.4000  140.0220 C   0  0  0  0  0  2  0  0  0  0  0  0
  188.0900  177.4630  141.2160 C   0  0  0  0  0  2  0  0  0  0  0  0
  189.3500  177.6780  142.0520 C   0  0  2  0  0  3  0  0  0  0  0  0
  190.2640  176.2510  140.6460 O   0  0  0  0  0  1  0  0  0  0  0  0
  190.5310  177.3280  141.3630 O   0  0  0  0  0  0  0  0  0  0  0  0
  189.2650  177.0910  143.4750 C   0  0  1  0  0  3  0  0  0  0  0  0
  192.2870  174.7620  144.1680 C   0  0  0  0  0  1  0  0  0  0  0  0
  190.9570  175.2240  143.6910 C   0  0  0  0  0  0  0  0  0  0  0  0
  190.1980  174.4220  143.0860 O   0  0  0  0  0  0  0  0  0  0  0  0
  190.5430  176.5660  143.9460 N   0  0  0  0  0  2  0  0  0  0  0  0
  188.6350  178.0600  144.4880 C   0  0  1  0  0  3  0  0  0  0  0  0
  185.6200  177.7930  146.5020 C   0  0  0  0  0  3  0  0  0  0  0  0
  186.1790  177.4140  145.1680 C   0  0  2  0  0  3  0  0  0  0  0  0
  187.8040  177.7560  146.8400 N   0  0  0  0  0  0  0  0  0  0  0  0
  186.5400  177.9790  147.3810 N   0  0  0  0  0  0  0  0  0  0  0  0
  187.7010  177.2960  145.4590 C   0  0  2  0  0  3  0  0  0  0  0  0
  185.5510  179.7690  144.5560 O   0  0  0  0  0  1  0  0  0  0  0  0
  185.6750  178.1420  142.9520 O   0  0  0  0  0  0  0  0  0  0  0  0
  185.7870  178.4570  144.1630 C   0  0  0  0  0  0  0  0  0  0  0  0
  189.6410  178.7410  147.9190 O   0  0  0  0  0  1  0  0  0  0  0  0
  188.9730  177.5370  147.6880 C   0  0  2  0  0  3  0  0  0  0  0  0
  189.9130  176.5060  147.0710 C   0  0  0  0  0  2  0  0  0  0  0  0
  191.3780  176.8330  147.3320 C   0  0  0  0  0  2  0  0  0  0  0  0
  192.1590  175.5600  147.6020 C   0  0  0  0  0  2  0  0  0  0  0  0
  193.0820  175.7500  148.7900 C   0  0  0  0  0  1  0  0  0  0  0  0
  190.6940  179.4300  144.2380 C   0  0  0  0  0  1  0  0  0  0  0  0
  189.7120  178.8440  145.2320 C   0  0  0  0  0  2  0  0  0  0  0  0
  1  2  1  0  0  0  0
  2  3  2  0  0  0  0
  2 40  1  0  0  0  0
  4  6  1  0  0  0  0
  4  1  2  0  0  0  0
  5  3  1  0  0  0  0
  6  5  2  0  0  0  0
  7  1  1  0  0  0  0
  8 12  1  6  0  0  0
  8  7  1  0  0  0  0
  9 10  2  0  0  0  0
 10 11  1  0  0  0  0
 10  8  1  0  0  0  0
 13 12  1  0  0  0  0
 14 20  1  0  0  0  0
 14 18  1  0  0  0  0
 15 19  1  0  0  0  0
 15 17  1  0  0  0  0
 17 16  2  0  0  0  0
 17 18  1  0  0  0  0
 18 13  1  6  0  0  0
 19 14  2  0  0  0  0
 20 22  1  0  0  0  0
 21 20  2  0  0  0  0
 22 23  1  0  0  0  0
 23 24  1  6  0  0  0
 23 30  1  0  0  0  0
 25 26  2  0  0  0  0
 25 29  1  0  0  0  0
 26 30  1  0  0  0  0
 28 27  1  0  0  0  0
 29 28  2  0  0  0  0
 30 27  2  0  0  0  0
 31  6  1  0  0  0  0
 31 34  1  0  0  0  0
 32 36  1  6  0  0  0
 32 34  1  0  0  0  0
 34 33  1  1  0  0  0
 35 32  1  0  0  0  0
 35 34  1  0  0  0  0
 36 38  1  0  0  0  0
 38 37  1  0  0  0  0
 39 38  2  0  0  0  0
 40 41  1  0  0  0  0
 42 41  1  6  0  0  0
 42 45  1  0  0  0  0
 43 44  1  0  0  0  0
 44 42  1  0  0  0  0
 45 49  1  1  0  0  0
 45 50  1  0  0  0  0
 47 49  1  0  0  0  0
 47 46  1  0  0  0  0
 48 47  2  0  0  0  0
 50 66  1  1  0  0  0
 51 54  2  0  0  0  0
 52 58  1  6  0  0  0
 52 55  1  0  0  0  0
 52 51  1  0  0  0  0
 53 54  1  0  0  0  0
 53 60  1  0  0  0  0
 55 50  1  6  0  0  0
 55 53  1  0  0  0  0
 57 58  2  0  0  0  0
 58 56  1  0  0  0  0
 60 59  1  6  0  0  0
 61 62  1  0  0  0  0
 61 60  1  0  0  0  0
 62 63  1  0  0  0  0
 63 64  1  0  0  0  0
 65 66  1  0  0  0  0
M  END
>  <MODEL>
6

>  <REMARK>
 VINA RESULT:      -4.1      3.046     10.726
  Name = 
  28 active torsions:
  status: ('A' for Active; 'I' for Inactive)
    1  A    between atoms: C_1  and  C_55
    2  A    between atoms: C_3  and  C_14
    3  A    between atoms: C_3  and  C_24
    4  A    between atoms: O_4  and  C_10
    5  A    between atoms: O_4  and  C_63
    6  A    between atoms: C_7  and  C_53
    7  A    between atoms: C_7  and  C_66
    8  A    between atoms: C_8  and  C_62
    9  A    between atoms: C_11  and  C_61
   10  A    between atoms: C_12  and  C_28
   11  A    between atoms: C_12  and  C_52
   12  A    between atoms: C_13  and  N_23
   13  A    between atoms: C_13  and  C_57
   14  A    between atoms: C_14  and  C_27
   15  A    between atoms: C_14  and  O_37
   16  A    between atoms: C_15  and  O_41
   17  A    between atoms: C_15  and  C_48
   18  A    between atoms: C_16  and  C_58
   19  A    between atoms: C_16  and  C_63
   20  A    between atoms: C_20  and  C_35
   21  A    between atoms: C_20  and  C_57
   22  A    between atoms: C_24  and  C_26
   23  A    between atoms: C_27  and  N_46
   24  A    between atoms: C_27  and  C_62
   25  A    between atoms: C_38  and  C_62
   26  A    between atoms: O_41  and  C_55
   27  A    between atoms: C_45  and  C_58
   28  A    between atoms: C_60  and  C_63
                            x       y       z     vdW  Elec       q    Type
                         _______ _______ _______ _____ _____    ______ ____

>  <TORSDO>
F 28

$$$$
=
 OpenBabel11062415053D

 66 70  0  0  1  0  0  0  0  0999 V2000
  187.5530  178.4290  140.7550 C   0  0  0  0  0  0  0  0  0  0  0  0
  188.2260  177.7410  139.7300 C   0  0  0  0  0  0  0  0  0  0  0  0
  189.3160  176.9210  140.0380 C   0  0  0  0  0  3  0  0  0  0  0  0
  187.9940  178.2970  142.0800 C   0  0  0  0  0  3  0  0  0  0  0  0
  189.7510  176.7950  141.3600 C   0  0  0  0  0  3  0  0  0  0  0  0
  189.0900  177.4850  142.3830 C   0  0  0  0  0  0  0  0  0  0  0  0
  186.4540  179.2340  140.4340 O   0  0  0  0  0  0  0  0  0  0  0  0
  185.1360  178.7270  140.2550 C   0  0  2  0  0  3  0  0  0  0  0  0
  184.6790  178.4360  137.8180 O   0  0  0  0  0  0  0  0  0  0  0  0
  184.5750  179.2220  138.9580 C   0  0  0  0  0  0  0  0  0  0  0  0
  184.0030  180.3430  138.8920 O   0  0  0  0  0  1  0  0  0  0  0  0
  184.2760  179.1780  141.4250 C   0  0  0  0  0  2  0  0  0  0  0  0
  185.0780  179.2140  142.7250 C   0  0  0  0  0  2  0  0  0  0  0  0
  183.2790  178.7560  144.4350 C   0  0  0  0  0  0  0  0  0  0  0  0
  184.8810  178.6520  146.4970 S   0  0  0  0  0  0  0  0  0  0  0  0
  186.5910  177.5860  144.7840 O   0  0  0  0  0  0  0  0  0  0  0  0
  185.4880  178.0940  144.9180 C   0  0  0  0  0  0  0  0  0  0  0  0
  184.5330  178.2500  143.7870 C   0  0  2  0  0  3  0  0  0  0  0  0
  183.3340  178.9830  145.7080 N   0  0  0  0  0  0  0  0  0  0  0  0
  182.0460  179.0210  143.6800 C   0  0  0  0  0  0  0  0  0  0  0  0
  181.0030  179.3940  144.2830 O   0  0  0  0  0  0  0  0  0  0  0  0
  182.0360  178.8290  142.2960 O   0  0  0  0  0  0  0  0  0  0  0  0
  181.0540  179.4120  141.4450 C   0  0  2  0  0  3  0  0  0  0  0  0
  180.0070  180.1500  142.2630 C   0  0  0  0  0  1  0  0  0  0  0  0
  179.5940  176.0860  140.3720 C   0  0  0  0  0  3  0  0  0  0  0  0
  180.1770  177.0910  141.1500 C   0  0  0  0  0  3  0  0  0  0  0  0
  180.0550  178.6150  139.2700 C   0  0  0  0  0  3  0  0  0  0  0  0
  179.4710  177.6110  138.4920 C   0  0  0  0  0  3  0  0  0  0  0  0
  179.2390  176.3470  139.0450 C   0  0  0  0  0  3  0  0  0  0  0  0
  180.4010  178.3620  140.6060 C   0  0  0  0  0  0  0  0  0  0  0  0
  189.5670  177.3780  143.7930 C   0  0  0  0  0  2  0  0  0  0  0  0
  192.0210  177.5560  144.7790 C   0  0  2  0  0  3  0  0  0  0  0  0
  190.9410  179.4830  143.7430 O   0  0  0  0  0  1  0  0  0  0  0  0
  190.8940  178.1110  143.9870 C   0  0  2  0  0  0  0  0  0  0  0  0
  191.9670  177.4420  143.3700 O   0  0  0  0  0  0  0  0  0  0  0  0
  191.6950  176.2100  145.4140 C   0  0  0  0  0  2  0  0  0  0  0  0
  192.5230  175.7940  147.7260 O   0  0  0  0  0  1  0  0  0  0  0  0
  191.5670  176.3570  146.8890 C   0  0  0  0  0  0  0  0  0  0  0  0
  190.6060  177.0080  147.3780 O   0  0  0  0  0  0  0  0  0  0  0  0
  187.7500  177.8300  138.3190 C   0  0  0  0  0  2  0  0  0  0  0  0
  187.4870  176.4370  137.7760 C   0  0  0  0  0  2  0  0  0  0  0  0
  188.7030  175.9090  137.0150 C   0  0  2  0  0  3  0  0  0  0  0  0
  190.0510  177.1480  135.7920 O   0  0  0  0  0  1  0  0  0  0  0  0
  189.7950  176.8020  137.0410 O   0  0  0  0  0  0  0  0  0  0  0  0
  188.3740  175.3710  135.6080 C   0  0  1  0  0  3  0  0  0  0  0  0
  191.2660  172.7970  135.3890 C   0  0  0  0  0  1  0  0  0  0  0  0
  190.2740  173.7410  135.9680 C   0  0  0  0  0  0  0  0  0  0  0  0
  190.2320  173.9160  137.2140 O   0  0  0  0  0  0  0  0  0  0  0  0
  189.3930  174.4570  135.1020 N   0  0  0  0  0  2  0  0  0  0  0  0
  186.9630  174.7680  135.5100 C   0  0  1  0  0  3  0  0  0  0  0  0
  185.4970  172.2370  137.6680 C   0  0  0  0  0  3  0  0  0  0  0  0
  186.8180  172.7660  137.2050 C   0  0  2  0  0  3  0  0  0  0  0  0
  185.0500  174.3190  137.0750 N   0  0  0  0  0  0  0  0  0  0  0  0
  184.5600  173.1120  137.5710 N   0  0  0  0  0  0  0  0  0  0  0  0
  186.4960  174.2540  136.8930 C   0  0  2  0  0  3  0  0  0  0  0  0
  186.7630  172.1410  134.7720 O   0  0  0  0  0  0  0  0  0  0  0  0
  188.1750  171.0700  136.2190 O   0  0  0  0  0  1  0  0  0  0  0  0
  187.2900  171.9430  136.0430 C   0  0  0  0  0  0  0  0  0  0  0  0
  183.4260  175.4910  138.3000 O   0  0  0  0  0  1  0  0  0  0  0  0
  184.3000  175.5650  137.2130 C   0  0  2  0  0  3  0  0  0  0  0  0
  183.5430  175.8940  135.9300 C   0  0  0  0  0  2  0  0  0  0  0  0
  182.4990  174.8370  135.5900 C   0  0  0  0  0  2  0  0  0  0  0  0
  181.2300  175.0780  136.3850 C   0  0  0  0  0  2  0  0  0  0  0  0
  180.0150  174.6670  135.5760 C   0  0  0  0  0  1  0  0  0  0  0  0
  186.7010  177.0800  134.6330 C   0  0  0  0  0  1  0  0  0  0  0  0
  185.9830  175.7760  134.9160 C   0  0  0  0  0  2  0  0  0  0  0  0
  1  4  1  0  0  0  0
  2  3  1  0  0  0  0
  2  1  2  0  0  0  0
  3  5  2  0  0  0  0
  4  6  2  0  0  0  0
  5  6  1  0  0  0  0
  6 31  1  0  0  0  0
  7  1  1  0  0  0  0
  8  7  1  0  0  0  0
  8 12  1  1  0  0  0
  9 10  2  0  0  0  0
 10  8  1  0  0  0  0
 11 10  1  0  0  0  0
 12 13  1  0  0  0  0
 14 19  2  0  0  0  0
 16 17  2  0  0  0  0
 17 15  1  0  0  0  0
 18 13  1  6  0  0  0
 18 14  1  0  0  0  0
 18 17  1  0  0  0  0
 19 15  1  0  0  0  0
 20 21  2  0  0  0  0
 20 14  1  0  0  0  0
 22 20  1  0  0  0  0
 23 24  1  1  0  0  0
 23 22  1  0  0  0  0
 25 26  1  0  0  0  0
 27 30  1  0  0  0  0
 28 29  1  0  0  0  0
 28 27  2  0  0  0  0
 29 25  2  0  0  0  0
 30 26  2  0  0  0  0
 30 23  1  0  0  0  0
 31 34  1  0  0  0  0
 32 36  1  1  0  0  0
 34 33  1  6  0  0  0
 34 32  1  0  0  0  0
 35 34  1  0  0  0  0
 35 32  1  0  0  0  0
 36 38  1  0  0  0  0
 38 39  2  0  0  0  0
 38 37  1  0  0  0  0
 40  2  1  0  0  0  0
 41 40  1  0  0  0  0
 42 44  1  0  0  0  0
 42 41  1  6  0  0  0
 43 44  1  0  0  0  0
 45 49  1  1  0  0  0
 45 42  1  0  0  0  0
 46 47  1  0  0  0  0
 47 48  2  0  0  0  0
 49 47  1  0  0  0  0
 50 66  1  1  0  0  0
 50 45  1  0  0  0  0
 52 58  1  6  0  0  0
 52 51  1  0  0  0  0
 53 60  1  0  0  0  0
 53 54  1  0  0  0  0
 54 51  2  0  0  0  0
 55 50  1  6  0  0  0
 55 53  1  0  0  0  0
 55 52  1  0  0  0  0
 56 58  2  0  0  0  0
 58 57  1  0  0  0  0
 60 59  1  1  0  0  0
 61 60  1  0  0  0  0
 62 61  1  0  0  0  0
 62 63  1  0  0  0  0
 64 63  1  0  0  0  0
 65 66  1  0  0  0  0
M  END
>  <MODEL>
7

>  <REMARK>
 VINA RESULT:      -3.5      2.671      7.217
  Name = 
  28 active torsions:
  status: ('A' for Active; 'I' for Inactive)
    1  A    between atoms: C_1  and  C_55
    2  A    between atoms: C_3  and  C_14
    3  A    between atoms: C_3  and  C_24
    4  A    between atoms: O_4  and  C_10
    5  A    between atoms: O_4  and  C_63
    6  A    between atoms: C_7  and  C_53
    7  A    between atoms: C_7  and  C_66
    8  A    between atoms: C_8  and  C_62
    9  A    between atoms: C_11  and  C_61
   10  A    between atoms: C_12  and  C_28
   11  A    between atoms: C_12  and  C_52
   12  A    between atoms: C_13  and  N_23
   13  A    between atoms: C_13  and  C_57
   14  A    between atoms: C_14  and  C_27
   15  A    between atoms: C_14  and  O_37
   16  A    between atoms: C_15  and  O_41
   17  A    between atoms: C_15  and  C_48
   18  A    between atoms: C_16  and  C_58
   19  A    between atoms: C_16  and  C_63
   20  A    between atoms: C_20  and  C_35
   21  A    between atoms: C_20  and  C_57
   22  A    between atoms: C_24  and  C_26
   23  A    between atoms: C_27  and  N_46
   24  A    between atoms: C_27  and  C_62
   25  A    between atoms: C_38  and  C_62
   26  A    between atoms: O_41  and  C_55
   27  A    between atoms: C_45  and  C_58
   28  A    between atoms: C_60  and  C_63
                            x       y       z     vdW  Elec       q    Type
                         _______ _______ _______ _____ _____    ______ ____

>  <TORSDO>
F 28

$$$$
=
 OpenBabel11062415053D

 66 70  0  0  1  0  0  0  0  0999 V2000
  187.7560  177.7810  143.0080 C   0  0  0  0  0  0  0  0  0  0  0  0
  188.7060  178.1210  142.0290 C   0  0  0  0  0  0  0  0  0  0  0  0
  190.0060  178.4690  142.4090 C   0  0  0  0  0  3  0  0  0  0  0  0
  188.1200  177.8110  144.3630 C   0  0  0  0  0  3  0  0  0  0  0  0
  190.3610  178.4980  143.7600 C   0  0  0  0  0  3  0  0  0  0  0  0
  189.4170  178.1700  144.7390 C   0  0  0  0  0  0  0  0  0  0  0  0
  186.4630  177.4180  142.6130 O   0  0  0  0  0  0  0  0  0  0  0  0
  185.4250  178.3610  142.3640 C   0  0  2  0  0  3  0  0  0  0  0  0
  183.7330  177.9340  144.1480 O   0  0  0  0  0  0  0  0  0  0  0  0
  184.7560  178.7290  143.6510 C   0  0  0  0  0  0  0  0  0  0  0  0
  185.1160  179.7520  144.2920 O   0  0  0  0  0  1  0  0  0  0  0  0
  184.4320  177.7460  141.3920 C   0  0  0  0  0  2  0  0  0  0  0  0
  183.1480  178.5710  141.3090 C   0  0  0  0  0  2  0  0  0  0  0  0
  182.2350  177.7450  139.1060 C   0  0  0  0  0  0  0  0  0  0  0  0
  184.3560  178.3260  137.6950 S   0  0  0  0  0  0  0  0  0  0  0  0
  184.5650  180.3860  139.3400 O   0  0  0  0  0  0  0  0  0  0  0  0
  183.9440  179.3660  139.0810 C   0  0  0  0  0  0  0  0  0  0  0  0
  182.7600  178.9250  139.8680 C   0  0  2  0  0  3  0  0  0  0  0  0
  182.9130  177.3750  138.0670 N   0  0  0  0  0  0  0  0  0  0  0  0
  181.0320  177.0070  139.5150 C   0  0  0  0  0  0  0  0  0  0  0  0
  181.0990  176.1520  140.4410 O   0  0  0  0  0  0  0  0  0  0  0  0
  179.8250  177.2420  138.8520 O   0  0  0  0  0  0  0  0  0  0  0  0
  179.1760  178.5100  138.8580 C   0  0  2  0  0  3  0  0  0  0  0  0
  179.7770  179.4230  137.8030 C   0  0  0  0  0  1  0  0  0  0  0  0
  179.0940  178.9570  142.6190 C   0  0  0  0  0  3  0  0  0  0  0  0
  179.0260  178.3750  141.3480 C   0  0  0  0  0  3  0  0  0  0  0  0
  179.5960  180.5050  140.3440 C   0  0  0  0  0  3  0  0  0  0  0  0
  179.6650  181.0860  141.6140 C   0  0  0  0  0  3  0  0  0  0  0  0
  179.4160  180.3110  142.7510 C   0  0  0  0  0  3  0  0  0  0  0  0
  179.2850  179.1440  140.2070 C   0  0  0  0  0  0  0  0  0  0  0  0
  189.7800  178.2260  146.1850 C   0  0  0  0  0  2  0  0  0  0  0  0
  188.4280  176.8640  148.0120 C   0  0  2  0  0  3  0  0  0  0  0  0
  190.2670  175.8330  146.7840 O   0  0  0  0  0  1  0  0  0  0  0  0
  189.4100  176.9280  146.9020 C   0  0  2  0  0  0  0  0  0  0  0  0
  188.0720  176.5590  146.6780 O   0  0  0  0  0  0  0  0  0  0  0  0
  187.8700  178.2300  148.3920 C   0  0  0  0  0  2  0  0  0  0  0  0
  186.6140  179.5030  146.6580 O   0  0  0  0  0  0  0  0  0  0  0  0
  186.6250  178.5050  147.6270 C   0  0  0  0  0  0  0  0  0  0  0  0
  185.5880  177.8230  147.8410 O   0  0  0  0  0  1  0  0  0  0  0  0
  188.3570  178.0540  140.5810 C   0  0  0  0  0  2  0  0  0  0  0  0
  188.8970  176.7690  139.9800 C   0  0  0  0  0  2  0  0  0  0  0  0
  188.7170  176.7580  138.4620 C   0  0  2  0  0  3  0  0  0  0  0  0
  188.8690  178.8660  137.8460 O   0  0  0  0  0  1  0  0  0  0  0  0
  188.0040  177.8790  137.9870 O   0  0  0  0  0  0  0  0  0  0  0  0
  188.2080  175.4150  137.9030 C   0  0  1  0  0  3  0  0  0  0  0  0
  184.5480  174.4970  137.0090 C   0  0  0  0  0  1  0  0  0  0  0  0
  185.9580  174.3500  137.4580 C   0  0  0  0  0  0  0  0  0  0  0  0
  186.3810  173.2240  137.8290 O   0  0  0  0  0  0  0  0  0  0  0  0
  186.8250  175.4840  137.4420 N   0  0  0  0  0  2  0  0  0  0  0  0
  189.1390  174.8170  136.8350 C   0  0  1  0  0  3  0  0  0  0  0  0
  191.0250  176.9690  134.5940 C   0  0  0  0  0  3  0  0  0  0  0  0
  189.9560  177.0090  135.6390 C   0  0  2  0  0  3  0  0  0  0  0  0
  191.4040  175.1580  135.8030 N   0  0  0  0  0  0  0  0  0  0  0  0
  191.7850  175.9390  134.7140 N   0  0  0  0  0  0  0  0  0  0  0  0
  190.3070  175.7860  136.5300 C   0  0  2  0  0  3  0  0  0  0  0  0
  188.0180  175.7440  134.6600 O   0  0  0  0  0  0  0  0  0  0  0  0
  188.0260  178.0330  134.6770 O   0  0  0  0  0  1  0  0  0  0  0  0
  188.6160  176.9610  134.9640 C   0  0  0  0  0  0  0  0  0  0  0  0
  192.7300  174.5590  137.6450 O   0  0  0  0  0  1  0  0  0  0  0  0
  192.2990  174.1580  136.3790 C   0  0  2  0  0  3  0  0  0  0  0  0
  193.4880  173.8920  135.4600 C   0  0  0  0  0  2  0  0  0  0  0  0
  194.2890  172.6700  135.8930 C   0  0  0  0  0  2  0  0  0  0  0  0
  195.7370  172.8150  135.4660 C   0  0  0  0  0  2  0  0  0  0  0  0
  196.2300  174.2220  135.7400 C   0  0  0  0  0  1  0  0  0  0  0  0
  189.2880  172.4180  136.1990 C   0  0  0  0  0  1  0  0  0  0  0  0
  189.6380  173.4390  137.2620 C   0  0  0  0  0  2  0  0  0  0  0  0
  1  4  1  0  0  0  0
  2  3  1  0  0  0  0
  2  1  2  0  0  0  0
  3  5  2  0  0  0  0
  4  6  2  0  0  0  0
  5  6  1  0  0  0  0
  6 31  1  0  0  0  0
  7  1  1  0  0  0  0
  8 12  1  6  0  0  0
  8  7  1  0  0  0  0
  8 10  1  0  0  0  0
 10  9  2  0  0  0  0
 10 11  1  0  0  0  0
 13 12  1  0  0  0  0
 14 20  1  0  0  0  0
 14 18  1  0  0  0  0
 15 19  1  0  0  0  0
 15 17  1  0  0  0  0
 17 16  2  0  0  0  0
 17 18  1  0  0  0  0
 18 13  1  1  0  0  0
 19 14  2  0  0  0  0
 20 21  2  0  0  0  0
 22 23  1  0  0  0  0
 22 20  1  0  0  0  0
 23 24  1  6  0  0  0
 23 30  1  0  0  0  0
 25 29  1  0  0  0  0
 26 25  2  0  0  0  0
 27 28  1  0  0  0  0
 28 29  2  0  0  0  0
 30 27  2  0  0  0  0
 30 26  1  0  0  0  0
 31 34  1  0  0  0  0
 32 36  1  6  0  0  0
 34 33  1  6  0  0  0
 34 32  1  0  0  0  0
 35 34  1  0  0  0  0
 35 32  1  0  0  0  0
 37 38  2  0  0  0  0
 38 39  1  0  0  0  0
 38 36  1  0  0  0  0
 40  2  1  0  0  0  0
 41 40  1  0  0  0  0
 42 41  1  1  0  0  0
 43 44  1  0  0  0  0
 44 42  1  0  0  0  0
 45 49  1  6  0  0  0
 45 42  1  0  0  0  0
 46 47  1  0  0  0  0
 47 48  2  0  0  0  0
 49 47  1  0  0  0  0
 50 66  1  1  0  0  0
 50 45  1  0  0  0  0
 51 54  2  0  0  0  0
 51 52  1  0  0  0  0
 52 58  1  6  0  0  0
 52 55  1  0  0  0  0
 53 60  1  0  0  0  0
 53 55  1  0  0  0  0
 54 53  1  0  0  0  0
 55 50  1  6  0  0  0
 56 58  2  0  0  0  0
 57 58  1  0  0  0  0
 60 59  1  1  0  0  0
 61 62  1  0  0  0  0
 61 60  1  0  0  0  0
 63 64  1  0  0  0  0
 63 62  1  0  0  0  0
 65 66  1  0  0  0  0
M  END
>  <MODEL>
8

>  <REMARK>
 VINA RESULT:      -3.3      2.702      8.364
  Name = 
  28 active torsions:
  status: ('A' for Active; 'I' for Inactive)
    1  A    between atoms: C_1  and  C_55
    2  A    between atoms: C_3  and  C_14
    3  A    between atoms: C_3  and  C_24
    4  A    between atoms: O_4  and  C_10
    5  A    between atoms: O_4  and  C_63
    6  A    between atoms: C_7  and  C_53
    7  A    between atoms: C_7  and  C_66
    8  A    between atoms: C_8  and  C_62
    9  A    between atoms: C_11  and  C_61
   10  A    between atoms: C_12  and  C_28
   11  A    between atoms: C_12  and  C_52
   12  A    between atoms: C_13  and  N_23
   13  A    between atoms: C_13  and  C_57
   14  A    between atoms: C_14  and  C_27
   15  A    between atoms: C_14  and  O_37
   16  A    between atoms: C_15  and  O_41
   17  A    between atoms: C_15  and  C_48
   18  A    between atoms: C_16  and  C_58
   19  A    between atoms: C_16  and  C_63
   20  A    between atoms: C_20  and  C_35
   21  A    between atoms: C_20  and  C_57
   22  A    between atoms: C_24  and  C_26
   23  A    between atoms: C_27  and  N_46
   24  A    between atoms: C_27  and  C_62
   25  A    between atoms: C_38  and  C_62
   26  A    between atoms: O_41  and  C_55
   27  A    between atoms: C_45  and  C_58
   28  A    between atoms: C_60  and  C_63
                            x       y       z     vdW  Elec       q    Type
                         _______ _______ _______ _____ _____    ______ ____

>  <TORSDO>
F 28

$$$$
=
 OpenBabel11062415053D

 66 70  0  0  1  0  0  0  0  0999 V2000
  186.9110  177.5220  138.0470 C   0  0  0  0  0  0  0  0  0  0  0  0
  187.6410  178.1840  139.0480 C   0  0  0  0  0  0  0  0  0  0  0  0
  189.0070  178.4280  138.8710 C   0  0  0  0  0  3  0  0  0  0  0  0
  187.5660  177.0950  136.8820 C   0  0  0  0  0  3  0  0  0  0  0  0
  189.6530  178.0000  137.7090 C   0  0  0  0  0  3  0  0  0  0  0  0
  188.9330  177.3310  136.7130 C   0  0  0  0  0  0  0  0  0  0  0  0
  185.5410  177.2990  138.2300 O   0  0  0  0  0  0  0  0  0  0  0  0
  184.5330  178.2070  137.8000 C   0  0  2  0  0  3  0  0  0  0  0  0
  182.7580  177.8450  139.5170 O   0  0  0  0  0  1  0  0  0  0  0  0
  183.7340  178.6720  138.9780 C   0  0  0  0  0  0  0  0  0  0  0  0
  183.9430  179.8040  139.4890 O   0  0  0  0  0  0  0  0  0  0  0  0
  183.6460  177.5070  136.7840 C   0  0  0  0  0  2  0  0  0  0  0  0
  183.4760  176.0260  137.1180 C   0  0  0  0  0  2  0  0  0  0  0  0
  182.7760  173.7840  136.1930 C   0  0  0  0  0  0  0  0  0  0  0  0
  185.0980  173.1770  135.1600 S   0  0  0  0  0  0  0  0  0  0  0  0
  185.2760  175.7740  134.6940 O   0  0  0  0  0  0  0  0  0  0  0  0
  184.6070  174.8890  135.2050 C   0  0  0  0  0  0  0  0  0  0  0  0
  183.3010  175.1510  135.8700 C   0  0  2  0  0  3  0  0  0  0  0  0
  183.5440  172.7830  135.9050 N   0  0  0  0  0  0  0  0  0  0  0  0
  181.4730  173.5660  136.8370 C   0  0  0  0  0  0  0  0  0  0  0  0
  181.4100  172.9990  137.9630 O   0  0  0  0  0  0  0  0  0  0  0  0
  180.3080  173.9670  136.1780 O   0  0  0  0  0  0  0  0  0  0  0  0
  179.5190  175.0710  136.6110 C   0  0  2  0  0  3  0  0  0  0  0  0
  180.1340  176.3810  136.1500 C   0  0  0  0  0  1  0  0  0  0  0  0
  179.5780  176.2350  140.2150 C   0  0  0  0  0  3  0  0  0  0  0  0
  179.6690  176.2290  138.8190 C   0  0  0  0  0  3  0  0  0  0  0  0
  179.0240  173.8940  138.7880 C   0  0  0  0  0  3  0  0  0  0  0  0
  178.9310  173.9000  140.1820 C   0  0  0  0  0  3  0  0  0  0  0  0
  179.2060  175.0710  140.8960 C   0  0  0  0  0  3  0  0  0  0  0  0
  179.3840  175.0630  138.1000 C   0  0  0  0  0  0  0  0  0  0  0  0
  189.6220  176.8450  135.4820 C   0  0  0  0  0  2  0  0  0  0  0  0
  190.7810  174.4630  135.3840 C   0  0  2  0  0  3  0  0  0  0  0  0
  188.4030  174.7240  134.9020 O   0  0  0  0  0  1  0  0  0  0  0  0
  189.5690  175.3210  135.3810 C   0  0  2  0  0  0  0  0  0  0  0  0
  190.0220  174.6930  136.5550 O   0  0  0  0  0  0  0  0  0  0  0  0
  192.0750  175.2630  135.4470 C   0  0  0  0  0  2  0  0  0  0  0  0
  192.7380  176.5080  137.5000 O   0  0  0  0  0  1  0  0  0  0  0  0
  192.5920  175.2930  136.8410 C   0  0  0  0  0  0  0  0  0  0  0  0
  192.8770  174.2180  137.4320 O   0  0  0  0  0  0  0  0  0  0  0  0
  186.9590  178.6860  140.2760 C   0  0  0  0  0  2  0  0  0  0  0  0
  187.9690  178.8370  141.4000 C   0  0  0  0  0  2  0  0  0  0  0  0
  187.6800  177.8480  142.5300 C   0  0  2  0  0  3  0  0  0  0  0  0
  185.4860  177.7360  142.6680 O   0  0  0  0  0  1  0  0  0  0  0  0
  186.5500  178.2060  143.2940 O   0  0  0  0  0  0  0  0  0  0  0  0
  188.9160  177.4900  143.3780 C   0  0  1  0  0  3  0  0  0  0  0  0
  192.0070  177.3600  141.0400 C   0  0  0  0  0  1  0  0  0  0  0  0
  190.7430  176.9590  141.7120 C   0  0  0  0  0  0  0  0  0  0  0  0
  190.1980  175.8640  141.4130 O   0  0  0  0  0  0  0  0  0  0  0  0
  190.1730  177.8090  142.7070 N   0  0  0  0  0  2  0  0  0  0  0  0
  188.8600  178.0750  144.7990 C   0  0  1  0  0  3  0  0  0  0  0  0
  188.3120  176.8480  148.1760 C   0  0  0  0  0  3  0  0  0  0  0  0
  187.6260  177.0040  146.8570 C   0  0  2  0  0  3  0  0  0  0  0  0
  189.9760  176.9060  146.7220 N   0  0  0  0  0  0  0  0  0  0  0  0
  189.5930  176.8090  148.0580 N   0  0  0  0  0  0  0  0  0  0  0  0
  188.8070  176.9400  145.8500 C   0  0  2  0  0  3  0  0  0  0  0  0
  187.1600  179.3040  147.7570 O   0  0  0  0  0  1  0  0  0  0  0  0
  185.9000  178.4430  146.0520 O   0  0  0  0  0  0  0  0  0  0  0  0
  186.8450  178.2860  146.8650 C   0  0  0  0  0  0  0  0  0  0  0  0
  191.2380  175.6460  145.1950 O   0  0  0  0  0  1  0  0  0  0  0  0
  191.3140  176.5230  146.2800 C   0  0  2  0  0  3  0  0  0  0  0  0
  192.1130  175.9020  147.4220 C   0  0  0  0  0  2  0  0  0  0  0  0
  192.7640  176.9550  148.3090 C   0  0  0  0  0  2  0  0  0  0  0  0
  193.5160  176.2910  149.4470 C   0  0  0  0  0  2  0  0  0  0  0  0
  193.5260  177.1890  150.6680 C   0  0  0  0  0  1  0  0  0  0  0  0
  191.1890  178.6440  144.1400 C   0  0  0  0  0  1  0  0  0  0  0  0
  190.0310  179.0220  145.0410 C   0  0  0  0  0  2  0  0  0  0  0  0
  1  7  1  0  0  0  0
  1  2  1  0  0  0  0
  2 40  1  0  0  0  0
  3  2  2  0  0  0  0
  4  1  2  0  0  0  0
  5  3  1  0  0  0  0
  6  4  1  0  0  0  0
  6  5  2  0  0  0  0
  8 12  1  6  0  0  0
  8  7  1  0  0  0  0
  8 10  1  0  0  0  0
 10 11  2  0  0  0  0
 10  9  1  0  0  0  0
 12 13  1  0  0  0  0
 14 20  1  0  0  0  0
 15 17  1  0  0  0  0
 15 19  1  0  0  0  0
 16 17  2  0  0  0  0
 17 18  1  0  0  0  0
 18 14  1  0  0  0  0
 18 13  1  1  0  0  0
 19 14  2  0  0  0  0
 20 21  2  0  0  0  0
 22 23  1  0  0  0  0
 22 20  1  0  0  0  0
 23 24  1  1  0  0  0
 23 30  1  0  0  0  0
 25 29  1  0  0  0  0
 26 25  2  0  0  0  0
 27 28  1  0  0  0  0
 28 29  2  0  0  0  0
 30 27  2  0  0  0  0
 30 26  1  0  0  0  0
 31  6  1  0  0  0  0
 32 36  1  1  0  0  0
 32 35  1  0  0  0  0
 34 33  1  6  0  0  0
 34 32  1  0  0  0  0
 34 31  1  0  0  0  0
 34 35  1  0  0  0  0
 36 38  1  0  0  0  0
 38 39  2  0  0  0  0
 38 37  1  0  0  0  0
 40 41  1  0  0  0  0
 42 41  1  6  0  0  0
 42 44  1  0  0  0  0
 42 45  1  0  0  0  0
 43 44  1  0  0  0  0
 45 49  1  6  0  0  0
 45 50  1  0  0  0  0
 46 47  1  0  0  0  0
 47 49  1  0  0  0  0
 48 47  2  0  0  0  0
 50 66  1  1  0  0  0
 52 58  1  1  0  0  0
 52 51  1  0  0  0  0
 53 54  1  0  0  0  0
 54 51  2  0  0  0  0
 55 50  1  6  0  0  0
 55 53  1  0  0  0  0
 55 52  1  0  0  0  0
 57 58  2  0  0  0  0
 58 56  1  0  0  0  0
 60 59  1  6  0  0  0
 60 53  1  0  0  0  0
 60 61  1  0  0  0  0
 61 62  1  0  0  0  0
 62 63  1  0  0  0  0
 63 64  1  0  0  0  0
 65 66  1  0  0  0  0
M  END
>  <MODEL>
9

>  <REMARK>
 VINA RESULT:      -3.3      2.758      9.536
  Name = 
  28 active torsions:
  status: ('A' for Active; 'I' for Inactive)
    1  A    between atoms: C_1  and  C_55
    2  A    between atoms: C_3  and  C_14
    3  A    between atoms: C_3  and  C_24
    4  A    between atoms: O_4  and  C_10
    5  A    between atoms: O_4  and  C_63
    6  A    between atoms: C_7  and  C_53
    7  A    between atoms: C_7  and  C_66
    8  A    between atoms: C_8  and  C_62
    9  A    between atoms: C_11  and  C_61
   10  A    between atoms: C_12  and  C_28
   11  A    between atoms: C_12  and  C_52
   12  A    between atoms: C_13  and  N_23
   13  A    between atoms: C_13  and  C_57
   14  A    between atoms: C_14  and  C_27
   15  A    between atoms: C_14  and  O_37
   16  A    between atoms: C_15  and  O_41
   17  A    between atoms: C_15  and  C_48
   18  A    between atoms: C_16  and  C_58
   19  A    between atoms: C_16  and  C_63
   20  A    between atoms: C_20  and  C_35
   21  A    between atoms: C_20  and  C_57
   22  A    between atoms: C_24  and  C_26
   23  A    between atoms: C_27  and  N_46
   24  A    between atoms: C_27  and  C_62
   25  A    between atoms: C_38  and  C_62
   26  A    between atoms: O_41  and  C_55
   27  A    between atoms: C_45  and  C_58
   28  A    between atoms: C_60  and  C_63
                            x       y       z     vdW  Elec       q    Type
                         _______ _______ _______ _____ _____    ______ ____

>  <TORSDO>
F 28

$$$$
