=
 OpenBabel11062413083D

 40 42  0  0  1  0  0  0  0  0999 V2000
  183.4430  177.9620  140.2400 C   0  0  0  0  0  0  0  0  0  0  0  0
  182.3310  177.2420  140.4700 C   0  0  0  0  0  2  0  0  0  0  0  0
  184.2450  177.0100  136.5940 C   0  0  0  0  0  2  0  0  0  0  0  0
  185.4570  178.5310  138.8180 C   0  0  0  0  0  2  0  0  0  0  0  0
  183.7310  176.8740  138.0240 C   0  0  0  0  0  2  0  0  0  0  0  0
  186.2150  178.2110  137.5520 C   0  0  0  0  0  0  0  0  0  0  0  0
  183.9540  178.1710  138.8180 C   0  0  1  0  0  0  0  0  0  0  0  0
  185.6630  177.4850  136.5660 C   0  0  0  0  0  3  0  0  0  0  0  0
  183.5820  180.5650  138.7200 F   0  0  0  0  0  0  0  0  0  0  0  0
  183.2140  179.3490  138.1680 C   0  0  0  0  0  2  0  0  0  0  0  0
  187.5300  178.6940  137.4600 O   0  0  0  0  0  0  0  0  0  0  0  0
  190.2630  177.5310  139.7120 C   0  0  0  0  0  0  0  0  0  0  0  0
  189.5190  177.3900  137.0150 C   0  0  0  0  0  0  0  0  0  0  0  0
  189.1290  177.3460  135.6790 O   0  0  0  0  0  1  0  0  0  0  0  0
  190.6190  177.5950  141.0180 F   0  0  0  0  0  0  0  0  0  0  0  0
  191.0790  176.8670  138.7990 C   0  0  0  0  0  3  0  0  0  0  0  0
  190.7230  176.7820  137.4490 C   0  0  0  0  0  0  0  0  0  0  0  0
  188.6970  178.0650  137.9330 C   0  0  0  0  0  0  0  0  0  0  0  0
  189.0810  178.1300  139.2820 C   0  0  0  0  0  3  0  0  0  0  0  0
  192.3940  174.9760  136.9910 C   0  0  0  0  0  1  0  0  0  0  0  0
  191.5990  176.0890  136.6000 O   0  0  0  0  0  0  0  0  0  0  0  0
  184.0530  178.7750  141.3670 C   0  0  2  0  0  3  0  0  0  0  0  0
  185.3510  177.8840  142.8470 C   0  0  2  0  0  3  0  0  0  0  0  0
  185.5540  178.5460  141.4880 C   0  0  0  0  0  2  0  0  0  0  0  0
  183.8410  178.1380  142.7380 C   0  0  1  0  0  3  0  0  0  0  0  0
  186.0730  178.6610  143.9460 C   0  0  0  0  0  2  0  0  0  0  0  0
  187.0530  177.7490  144.6930 C   0  0  1  0  0  3  0  0  0  0  0  0
  188.4000  177.6640  143.9300 C   0  0  1  0  0  0  0  0  0  0  0  0
  188.6430  176.2380  143.4400 C   0  0  0  0  0  1  0  0  0  0  0  0
  188.3670  178.5260  142.8300 O   0  0  0  0  0  1  0  0  0  0  0  0
  189.4880  178.0710  144.8280 N   0  0  0  0  0  2  0  0  0  0  0  0
  190.6860  177.4770  144.4000 N   0  0  0  0  0  2  0  0  0  0  0  0
  191.6130  178.5590  144.1190 C   0  0  0  0  0  1  0  0  0  0  0  0
  187.2020  178.1710  146.1780 C   0  0  1  0  0  3  0  0  0  0  0  0
  185.9610  178.8700  146.7210 C   0  0  0  0  0  1  0  0  0  0  0  0
  188.6590  177.2950  147.8820 O   0  0  0  0  0  1  0  0  0  0  0  0
  187.5460  176.9970  147.0900 C   0  0  0  0  0  2  0  0  0  0  0  0
  183.2130  179.0920  143.7770 C   0  0  0  0  0  2  0  0  0  0  0  0
  181.7630  178.7870  144.1460 C   0  0  0  0  0  2  0  0  0  0  0  0
  180.8240  179.4420  143.1540 C   0  0  0  0  0  1  0  0  0  0  0  0
  1  2  2  0  0  0  0
  3  5  1  0  0  0  0
  5  7  1  0  0  0  0
  6  4  1  0  0  0  0
  7 10  1  6  0  0  0
  7  4  1  0  0  0  0
  7  1  1  0  0  0  0
  8  3  1  0  0  0  0
  8  6  2  0  0  0  0
 10  9  1  0  0  0  0
 11  6  1  0  0  0  0
 11 18  1  0  0  0  0
 12 15  1  0  0  0  0
 13 17  2  0  0  0  0
 13 18  1  0  0  0  0
 14 13  1  0  0  0  0
 16 12  2  0  0  0  0
 17 16  1  0  0  0  0
 18 19  2  0  0  0  0
 19 12  1  0  0  0  0
 21 20  1  0  0  0  0
 21 17  1  0  0  0  0
 22  1  1  6  0  0  0
 22 24  1  0  0  0  0
 22 25  1  0  0  0  0
 23 26  1  1  0  0  0
 24 23  1  0  0  0  0
 25 23  1  0  0  0  0
 25 38  1  1  0  0  0
 27 26  1  6  0  0  0
 27 34  1  0  0  0  0
 28 29  1  6  0  0  0
 28 27  1  0  0  0  0
 28 31  1  0  0  0  0
 30 28  1  0  0  0  0
 32 31  1  0  0  0  0
 33 32  1  0  0  0  0
 34 35  1  1  0  0  0
 34 37  1  0  0  0  0
 37 36  1  0  0  0  0
 38 39  1  0  0  0  0
 40 39  1  0  0  0  0
M  END
>  <MODEL>
1

>  <REMARK>
 VINA RESULT:      -7.2      0.000      0.000
  Name = 
  15 active torsions:
  status: ('A' for Active; 'I' for Inactive)
    1  A    between atoms: C_1  and  C_10
    2  A    between atoms: C_1  and  C_28
    3  A    between atoms: C_7  and  C_8
    4  A    between atoms: C_7  and  C_24
    5  A    between atoms: C_7  and  C_30
    6  A    between atoms: C_8  and  C_32
    7  A    between atoms: C_14  and  O_15
    8  A    between atoms: C_16  and  C_24
    9  A    between atoms: N_18  and  N_34
   10  A    between atoms: C_19  and  C_28
   11  A    between atoms: C_22  and  C_29
   12  A    between atoms: C_23  and  O_38
   13  A    between atoms: C_25  and  O_38
   14  A    between atoms: C_29  and  C_35
   15  A    between atoms: C_30  and  N_34
                            x       y       z     vdW  Elec       q    Type
                         _______ _______ _______ _____ _____    ______ ____

>  <TORSDO>
F 15

$$$$
=
 OpenBabel11062413083D

 40 42  0  0  1  0  0  0  0  0999 V2000
  184.7520  178.3670  144.2580 C   0  0  0  0  0  0  0  0  0  0  0  0
  184.5390  179.0010  145.4240 C   0  0  0  0  0  2  0  0  0  0  0  0
  181.7190  179.4960  142.1680 C   0  0  0  0  0  2  0  0  0  0  0  0
  184.0090  177.6410  141.9510 C   0  0  0  0  0  2  0  0  0  0  0  0
  182.5420  179.1010  143.3900 C   0  0  0  0  0  2  0  0  0  0  0  0
  182.8780  177.6470  140.9510 C   0  0  0  0  0  0  0  0  0  0  0  0
  183.9920  178.7760  143.0000 C   0  0  1  0  0  0  0  0  0  0  0  0
  181.8250  178.4700  141.0840 C   0  0  0  0  0  3  0  0  0  0  0  0
  185.5780  179.6180  141.3700 F   0  0  0  0  0  0  0  0  0  0  0  0
  184.6740  179.9900  142.3520 C   0  0  0  0  0  2  0  0  0  0  0  0
  182.9710  176.7420  139.8820 O   0  0  0  0  0  0  0  0  0  0  0  0
  185.5760  177.9520  137.5060 C   0  0  0  0  0  0  0  0  0  0  0  0
  183.7260  175.8630  137.7570 C   0  0  0  0  0  0  0  0  0  0  0  0
  182.7900  174.8440  137.9040 O   0  0  0  0  0  1  0  0  0  0  0  0
  186.4740  178.9590  137.3880 F   0  0  0  0  0  0  0  0  0  0  0  0
  185.4640  176.9970  136.4980 C   0  0  0  0  0  3  0  0  0  0  0  0
  184.5490  175.9440  136.6070 C   0  0  0  0  0  0  0  0  0  0  0  0
  183.8330  176.8290  138.7720 C   0  0  0  0  0  0  0  0  0  0  0  0
  184.7630  177.8710  138.6350 C   0  0  0  0  0  3  0  0  0  0  0  0
  185.0870  173.7250  135.5820 C   0  0  0  0  0  1  0  0  0  0  0  0
  184.5060  175.0230  135.5490 O   0  0  0  0  0  0  0  0  0  0  0  0
  185.9240  177.4120  144.1310 C   0  0  2  0  0  3  0  0  0  0  0  0
  187.8310  177.8110  145.0660 C   0  0  2  0  0  3  0  0  0  0  0  0
  186.5510  177.0940  145.4830 C   0  0  0  0  0  2  0  0  0  0  0  0
  187.2100  178.1080  143.6940 C   0  0  1  0  0  3  0  0  0  0  0  0
  189.0170  176.8490  145.0590 C   0  0  0  0  0  2  0  0  0  0  0  0
  190.2620  177.5280  145.6430 C   0  0  1  0  0  3  0  0  0  0  0  0
  190.5330  177.0140  147.0810 C   0  0  1  0  0  0  0  0  0  0  0  0
  189.8290  177.9050  148.1040 C   0  0  0  0  0  1  0  0  0  0  0  0
  190.0530  175.7080  147.2060 O   0  0  0  0  0  1  0  0  0  0  0  0
  191.9790  177.0220  147.3300 N   0  0  0  0  0  2  0  0  0  0  0  0
  192.3840  175.7420  147.7390 N   0  0  0  0  0  2  0  0  0  0  0  0
  193.1790  175.9170  148.9410 C   0  0  0  0  0  1  0  0  0  0  0  0
  191.4800  177.3930  144.6930 C   0  0  1  0  0  3  0  0  0  0  0  0
  191.5530  176.0310  144.0140 C   0  0  0  0  0  1  0  0  0  0  0  0
  191.0530  179.6970  144.1360 O   0  0  0  0  0  1  0  0  0  0  0  0
  191.5120  178.4800  143.6220 C   0  0  0  0  0  2  0  0  0  0  0  0
  187.8820  177.4610  142.4650 C   0  0  0  0  0  2  0  0  0  0  0  0
  188.4730  178.4420  141.4550 C   0  0  0  0  0  2  0  0  0  0  0  0
  188.3450  177.8870  140.0510 C   0  0  0  0  0  1  0  0  0  0  0  0
  1  2  2  0  0  0  0
  3  5  1  0  0  0  0
  4  7  1  0  0  0  0
  6  8  2  0  0  0  0
  6  4  1  0  0  0  0
  7 10  1  6  0  0  0
  7  5  1  0  0  0  0
  7  1  1  0  0  0  0
  8  3  1  0  0  0  0
  9 10  1  0  0  0  0
 11  6  1  0  0  0  0
 12 19  1  0  0  0  0
 13 14  1  0  0  0  0
 13 18  1  0  0  0  0
 15 12  1  0  0  0  0
 16 17  1  0  0  0  0
 16 12  2  0  0  0  0
 17 13  2  0  0  0  0
 18 11  1  0  0  0  0
 19 18  2  0  0  0  0
 21 20  1  0  0  0  0
 21 17  1  0  0  0  0
 22  1  1  1  0  0  0
 22 24  1  0  0  0  0
 23 26  1  6  0  0  0
 23 24  1  0  0  0  0
 25 38  1  6  0  0  0
 25 22  1  0  0  0  0
 25 23  1  0  0  0  0
 27 26  1  6  0  0  0
 27 28  1  0  0  0  0
 28 30  1  0  0  0  0
 28 31  1  0  0  0  0
 28 29  1  1  0  0  0
 31 32  1  0  0  0  0
 32 33  1  0  0  0  0
 34 35  1  6  0  0  0
 34 27  1  0  0  0  0
 37 36  1  0  0  0  0
 37 34  1  0  0  0  0
 39 38  1  0  0  0  0
 40 39  1  0  0  0  0
M  END
>  <MODEL>
2

>  <REMARK>
 VINA RESULT:      -7.0      2.754      5.347
  Name = 
  15 active torsions:
  status: ('A' for Active; 'I' for Inactive)
    1  A    between atoms: C_1  and  C_10
    2  A    between atoms: C_1  and  C_28
    3  A    between atoms: C_7  and  C_8
    4  A    between atoms: C_7  and  C_24
    5  A    between atoms: C_7  and  C_30
    6  A    between atoms: C_8  and  C_32
    7  A    between atoms: C_14  and  O_15
    8  A    between atoms: C_16  and  C_24
    9  A    between atoms: N_18  and  N_34
   10  A    between atoms: C_19  and  C_28
   11  A    between atoms: C_22  and  C_29
   12  A    between atoms: C_23  and  O_38
   13  A    between atoms: C_25  and  O_38
   14  A    between atoms: C_29  and  C_35
   15  A    between atoms: C_30  and  N_34
                            x       y       z     vdW  Elec       q    Type
                         _______ _______ _______ _____ _____    ______ ____

>  <TORSDO>
F 15

$$$$
=
 OpenBabel11062413083D

 40 42  0  0  1  0  0  0  0  0999 V2000
  189.9690  176.9290  138.9700 C   0  0  0  0  0  0  0  0  0  0  0  0
  190.9210  175.9820  139.0150 C   0  0  0  0  0  2  0  0  0  0  0  0
  188.5300  177.6400  135.4670 C   0  0  0  0  0  2  0  0  0  0  0  0
  187.6590  177.7070  138.2900 C   0  0  0  0  0  2  0  0  0  0  0  0
  189.5370  177.5860  136.6130 C   0  0  0  0  0  2  0  0  0  0  0  0
  186.8190  178.2770  137.1730 C   0  0  0  0  0  0  0  0  0  0  0  0
  188.9230  176.9290  137.8590 C   0  0  1  0  0  0  0  0  0  0  0  0
  187.2450  178.2730  135.9000 C   0  0  0  0  0  3  0  0  0  0  0  0
  187.1010  175.3570  137.5660 F   0  0  0  0  0  0  0  0  0  0  0  0
  188.4800  175.4890  137.5610 C   0  0  0  0  0  2  0  0  0  0  0  0
  185.5760  178.8240  137.5290 O   0  0  0  0  0  0  0  0  0  0  0  0
  183.1140  176.2840  138.7030 C   0  0  0  0  0  0  0  0  0  0  0  0
  183.8760  178.9240  139.2480 C   0  0  0  0  0  0  0  0  0  0  0  0
  184.2690  180.2370  139.4880 O   0  0  0  0  0  1  0  0  0  0  0  0
  182.7490  175.0050  138.4420 F   0  0  0  0  0  0  0  0  0  0  0  0
  182.4420  177.0140  139.6810 C   0  0  0  0  0  3  0  0  0  0  0  0
  182.8100  178.3320  139.9710 C   0  0  0  0  0  0  0  0  0  0  0  0
  184.5510  178.1910  138.2560 C   0  0  0  0  0  0  0  0  0  0  0  0
  184.1590  176.8700  137.9920 C   0  0  0  0  0  3  0  0  0  0  0  0
  180.8360  178.5520  141.4920 C   0  0  0  0  0  1  0  0  0  0  0  0
  182.0850  178.9920  140.9750 O   0  0  0  0  0  0  0  0  0  0  0  0
  189.7780  177.8530  140.1590 C   0  0  2  0  0  3  0  0  0  0  0  0
  189.6500  177.1020  142.1810 C   0  0  2  0  0  3  0  0  0  0  0  0
  190.7810  177.5680  141.2700 C   0  0  0  0  0  2  0  0  0  0  0  0
  188.6360  177.4130  141.0720 C   0  0  1  0  0  3  0  0  0  0  0  0
  189.5560  177.9800  143.4270 C   0  0  0  0  0  2  0  0  0  0  0  0
  189.7770  177.1420  144.6920 C   0  0  1  0  0  3  0  0  0  0  0  0
  191.2910  177.0240  145.0040 C   0  0  1  0  0  0  0  0  0  0  0  0
  191.8800  175.7940  144.3140 C   0  0  0  0  0  1  0  0  0  0  0  0
  191.9520  178.1660  144.5420 O   0  0  0  0  0  1  0  0  0  0  0  0
  191.4780  176.9130  146.4550 N   0  0  0  0  0  2  0  0  0  0  0  0
  192.1920  175.7390  146.7410 N   0  0  0  0  0  2  0  0  0  0  0  0
  192.6390  175.8450  148.1180 C   0  0  0  0  0  1  0  0  0  0  0  0
  188.9360  177.6770  145.8810 C   0  0  1  0  0  3  0  0  0  0  0  0
  187.4980  177.9990  145.4900 C   0  0  0  0  0  1  0  0  0  0  0  0
  188.6490  177.4020  148.2560 O   0  0  0  0  0  1  0  0  0  0  0  0
  188.9200  176.7170  147.0670 C   0  0  0  0  0  2  0  0  0  0  0  0
  187.6040  178.5250  141.3570 C   0  0  0  0  0  2  0  0  0  0  0  0
  186.2390  178.0370  141.8380 C   0  0  0  0  0  2  0  0  0  0  0  0
  185.5120  179.1510  142.5620 C   0  0  0  0  0  1  0  0  0  0  0  0
  1  2  2  0  0  0  0
  3  8  1  0  0  0  0
  3  5  1  0  0  0  0
  5  7  1  0  0  0  0
  6 11  1  0  0  0  0
  6  4  1  0  0  0  0
  7 10  1  6  0  0  0
  7  4  1  0  0  0  0
  7  1  1  0  0  0  0
  8  6  2  0  0  0  0
 10  9  1  0  0  0  0
 11 18  1  0  0  0  0
 12 16  1  0  0  0  0
 13 14  1  0  0  0  0
 13 17  1  0  0  0  0
 15 12  1  0  0  0  0
 16 17  2  0  0  0  0
 17 21  1  0  0  0  0
 18 13  2  0  0  0  0
 19 18  1  0  0  0  0
 19 12  2  0  0  0  0
 21 20  1  0  0  0  0
 22  1  1  6  0  0  0
 22 25  1  0  0  0  0
 22 24  1  0  0  0  0
 23 26  1  1  0  0  0
 24 23  1  0  0  0  0
 25 38  1  1  0  0  0
 25 23  1  0  0  0  0
 27 26  1  6  0  0  0
 27 28  1  0  0  0  0
 27 34  1  0  0  0  0
 28 29  1  6  0  0  0
 28 31  1  0  0  0  0
 30 28  1  0  0  0  0
 31 32  1  0  0  0  0
 32 33  1  0  0  0  0
 34 35  1  6  0  0  0
 34 37  1  0  0  0  0
 37 36  1  0  0  0  0
 38 39  1  0  0  0  0
 39 40  1  0  0  0  0
M  END
>  <MODEL>
3

>  <REMARK>
 VINA RESULT:      -7.0      2.468      5.676
  Name = 
  15 active torsions:
  status: ('A' for Active; 'I' for Inactive)
    1  A    between atoms: C_1  and  C_10
    2  A    between atoms: C_1  and  C_28
    3  A    between atoms: C_7  and  C_8
    4  A    between atoms: C_7  and  C_24
    5  A    between atoms: C_7  and  C_30
    6  A    between atoms: C_8  and  C_32
    7  A    between atoms: C_14  and  O_15
    8  A    between atoms: C_16  and  C_24
    9  A    between atoms: N_18  and  N_34
   10  A    between atoms: C_19  and  C_28
   11  A    between atoms: C_22  and  C_29
   12  A    between atoms: C_23  and  O_38
   13  A    between atoms: C_25  and  O_38
   14  A    between atoms: C_29  and  C_35
   15  A    between atoms: C_30  and  N_34
                            x       y       z     vdW  Elec       q    Type
                         _______ _______ _______ _____ _____    ______ ____

>  <TORSDO>
F 15

$$$$
=
 OpenBabel11062413083D

 40 42  0  0  1  0  0  0  0  0999 V2000
  184.6880  178.6620  142.4990 C   0  0  0  0  0  0  0  0  0  0  0  0
  184.4710  179.7800  143.2130 C   0  0  0  0  0  2  0  0  0  0  0  0
  182.8190  176.9620  139.5900 C   0  0  0  0  0  2  0  0  0  0  0  0
  185.2590  178.5680  140.0360 C   0  0  0  0  0  2  0  0  0  0  0  0
  183.3860  177.1770  140.9900 C   0  0  0  0  0  2  0  0  0  0  0  0
  184.9680  177.8910  138.7180 C   0  0  0  0  0  0  0  0  0  0  0  0
  184.1270  178.5200  141.0870 C   0  0  1  0  0  0  0  0  0  0  0  0
  183.8740  177.1330  138.5420 C   0  0  0  0  0  3  0  0  0  0  0  0
  183.3870  180.2060  139.5090 F   0  0  0  0  0  0  0  0  0  0  0  0
  183.1850  179.6930  140.7800 C   0  0  0  0  0  2  0  0  0  0  0  0
  185.9020  178.0800  137.6870 O   0  0  0  0  0  0  0  0  0  0  0  0
  187.8030  175.0610  136.6060 C   0  0  0  0  0  0  0  0  0  0  0  0
  188.2790  177.6880  137.4580 C   0  0  0  0  0  0  0  0  0  0  0  0
  188.4850  178.9930  137.8930 O   0  0  0  0  0  1  0  0  0  0  0  0
  187.5720  173.7930  136.1900 F   0  0  0  0  0  0  0  0  0  0  0  0
  189.1100  175.5250  136.7340 C   0  0  0  0  0  3  0  0  0  0  0  0
  189.3690  176.8350  137.1530 C   0  0  0  0  0  0  0  0  0  0  0  0
  186.9590  177.2200  137.3360 C   0  0  0  0  0  0  0  0  0  0  0  0
  186.7330  175.9020  136.9090 C   0  0  0  0  0  3  0  0  0  0  0  0
  191.8070  176.3210  137.3830 C   0  0  0  0  0  1  0  0  0  0  0  0
  190.7140  177.2210  137.2470 O   0  0  0  0  0  0  0  0  0  0  0  0
  185.6970  177.6430  142.9950 C   0  0  2  0  0  3  0  0  0  0  0  0
  187.2210  178.1530  144.4380 C   0  0  2  0  0  3  0  0  0  0  0  0
  185.7920  177.6280  144.5160 C   0  0  0  0  0  2  0  0  0  0  0  0
  187.1360  178.1430  142.9060 C   0  0  1  0  0  3  0  0  0  0  0  0
  188.2030  177.1560  145.0510 C   0  0  0  0  0  2  0  0  0  0  0  0
  189.3260  177.8930  145.7890 C   0  0  1  0  0  3  0  0  0  0  0  0
  189.4440  177.3770  147.2470 C   0  0  1  0  0  0  0  0  0  0  0  0
  188.8100  178.3760  148.2150 C   0  0  0  0  0  1  0  0  0  0  0  0
  188.7840  176.1500  147.3610 O   0  0  0  0  0  1  0  0  0  0  0  0
  190.8610  177.1950  147.5810 N   0  0  0  0  0  2  0  0  0  0  0  0
  191.1590  175.8240  147.5960 N   0  0  0  0  0  2  0  0  0  0  0  0
  192.5660  175.7040  147.9350 C   0  0  0  0  0  1  0  0  0  0  0  0
  190.6590  177.8350  144.9980 C   0  0  1  0  0  3  0  0  0  0  0  0
  190.8240  176.5400  144.2110 C   0  0  0  0  0  1  0  0  0  0  0  0
  191.8520  178.7670  143.1260 O   0  0  0  0  0  1  0  0  0  0  0  0
  190.8280  179.0150  144.0460 C   0  0  0  0  0  2  0  0  0  0  0  0
  188.0840  177.1830  142.1560 C   0  0  0  0  0  2  0  0  0  0  0  0
  188.9810  177.8400  141.1100 C   0  0  0  0  0  2  0  0  0  0  0  0
  190.0980  176.8970  140.7140 C   0  0  0  0  0  1  0  0  0  0  0  0
  1  2  2  0  0  0  0
  3  5  1  0  0  0  0
  4  7  1  0  0  0  0
  5  7  1  0  0  0  0
  6  4  1  0  0  0  0
  7 10  1  6  0  0  0
  7  1  1  0  0  0  0
  8  6  2  0  0  0  0
  8  3  1  0  0  0  0
  9 10  1  0  0  0  0
 11  6  1  0  0  0  0
 12 16  2  0  0  0  0
 12 19  1  0  0  0  0
 13 14  1  0  0  0  0
 15 12  1  0  0  0  0
 16 17  1  0  0  0  0
 17 21  1  0  0  0  0
 17 13  2  0  0  0  0
 18 13  1  0  0  0  0
 18 11  1  0  0  0  0
 19 18  2  0  0  0  0
 21 20  1  0  0  0  0
 22  1  1  1  0  0  0
 22 24  1  0  0  0  0
 23 24  1  0  0  0  0
 23 26  1  6  0  0  0
 25 38  1  6  0  0  0
 25 22  1  0  0  0  0
 25 23  1  0  0  0  0
 27 26  1  6  0  0  0
 27 28  1  0  0  0  0
 28 30  1  0  0  0  0
 28 31  1  0  0  0  0
 28 29  1  1  0  0  0
 31 32  1  0  0  0  0
 32 33  1  0  0  0  0
 34 35  1  6  0  0  0
 34 27  1  0  0  0  0
 36 37  1  0  0  0  0
 37 34  1  0  0  0  0
 39 38  1  0  0  0  0
 40 39  1  0  0  0  0
M  END
>  <MODEL>
4

>  <REMARK>
 VINA RESULT:      -7.0      2.122      4.027
  Name = 
  15 active torsions:
  status: ('A' for Active; 'I' for Inactive)
    1  A    between atoms: C_1  and  C_10
    2  A    between atoms: C_1  and  C_28
    3  A    between atoms: C_7  and  C_8
    4  A    between atoms: C_7  and  C_24
    5  A    between atoms: C_7  and  C_30
    6  A    between atoms: C_8  and  C_32
    7  A    between atoms: C_14  and  O_15
    8  A    between atoms: C_16  and  C_24
    9  A    between atoms: N_18  and  N_34
   10  A    between atoms: C_19  and  C_28
   11  A    between atoms: C_22  and  C_29
   12  A    between atoms: C_23  and  O_38
   13  A    between atoms: C_25  and  O_38
   14  A    between atoms: C_29  and  C_35
   15  A    between atoms: C_30  and  N_34
                            x       y       z     vdW  Elec       q    Type
                         _______ _______ _______ _____ _____    ______ ____

>  <TORSDO>
F 15

$$$$
=
 OpenBabel11062413083D

 40 42  0  0  1  0  0  0  0  0999 V2000
  190.0760  176.9740  138.6050 C   0  0  0  0  0  0  0  0  0  0  0  0
  190.8530  175.8780  138.5810 C   0  0  0  0  0  2  0  0  0  0  0  0
  187.9090  179.1230  136.2520 C   0  0  0  0  0  2  0  0  0  0  0  0
  187.7260  176.5840  137.7520 C   0  0  0  0  0  2  0  0  0  0  0  0
  188.9050  178.7750  137.3540 C   0  0  0  0  0  2  0  0  0  0  0  0
  186.5300  177.2080  137.0740 C   0  0  0  0  0  0  0  0  0  0  0  0
  189.0900  177.2540  137.4740 C   0  0  1  0  0  0  0  0  0  0  0  0
  186.6210  178.3820  136.4280 C   0  0  0  0  0  3  0  0  0  0  0  0
  188.9900  175.4660  135.8390 F   0  0  0  0  0  0  0  0  0  0  0  0
  189.6200  176.6570  136.1620 C   0  0  0  0  0  2  0  0  0  0  0  0
  185.3140  176.5110  137.1610 O   0  0  0  0  0  0  0  0  0  0  0  0
  182.8320  178.5110  139.0920 C   0  0  0  0  0  0  0  0  0  0  0  0
  183.3240  175.8500  138.3690 C   0  0  0  0  0  0  0  0  0  0  0  0
  183.6010  174.5360  138.0030 O   0  0  0  0  0  1  0  0  0  0  0  0
  182.5910  179.7990  139.4380 F   0  0  0  0  0  0  0  0  0  0  0  0
  181.9790  177.5010  139.5330 C   0  0  0  0  0  3  0  0  0  0  0  0
  182.2060  176.1670  139.1790 C   0  0  0  0  0  0  0  0  0  0  0  0
  184.1890  176.8670  137.9290 C   0  0  0  0  0  0  0  0  0  0  0  0
  183.9320  178.1960  138.2980 C   0  0  0  0  0  3  0  0  0  0  0  0
  180.2590  174.6230  138.8860 C   0  0  0  0  0  1  0  0  0  0  0  0
  181.2940  175.2150  139.6600 O   0  0  0  0  0  0  0  0  0  0  0  0
  189.9950  177.8050  139.8720 C   0  0  2  0  0  3  0  0  0  0  0  0
  189.6340  176.9100  141.8050 C   0  0  2  0  0  3  0  0  0  0  0  0
  190.8740  177.2410  140.9810 C   0  0  0  0  0  2  0  0  0  0  0  0
  188.7490  177.5030  140.7000 C   0  0  1  0  0  3  0  0  0  0  0  0
  189.6380  177.6730  143.1280 C   0  0  0  0  0  2  0  0  0  0  0  0
  189.6690  176.6980  144.3100 C   0  0  1  0  0  3  0  0  0  0  0  0
  191.0960  176.6240  144.9120 C   0  0  1  0  0  0  0  0  0  0  0  0
  191.8970  175.5090  144.2400 C   0  0  0  0  0  1  0  0  0  0  0  0
  191.7510  177.8420  144.7090 O   0  0  0  0  0  1  0  0  0  0  0  0
  190.9990  176.3630  146.3530 N   0  0  0  0  0  2  0  0  0  0  0  0
  192.2200  176.6870  146.9640 N   0  0  0  0  0  2  0  0  0  0  0  0
  192.4530  175.6880  147.9910 C   0  0  0  0  0  1  0  0  0  0  0  0
  188.5700  177.0350  145.3520 C   0  0  1  0  0  3  0  0  0  0  0  0
  188.8500  178.3270  146.1100 C   0  0  0  0  0  1  0  0  0  0  0  0
  186.4180  178.1140  145.3520 O   0  0  0  0  0  1  0  0  0  0  0  0
  187.1790  177.1190  144.7310 C   0  0  0  0  0  2  0  0  0  0  0  0
  187.9210  178.7550  141.0600 C   0  0  0  0  0  2  0  0  0  0  0  0
  186.4350  178.6720  140.7180 C   0  0  0  0  0  2  0  0  0  0  0  0
  185.6030  178.7960  141.9780 C   0  0  0  0  0  1  0  0  0  0  0  0
  2  1  2  0  0  0  0
  3  8  1  0  0  0  0
  3  5  1  0  0  0  0
  5  7  1  0  0  0  0
  6 11  1  0  0  0  0
  6  4  1  0  0  0  0
  7 10  1  6  0  0  0
  7  4  1  0  0  0  0
  7  1  1  0  0  0  0
  8  6  2  0  0  0  0
  9 10  1  0  0  0  0
 11 18  1  0  0  0  0
 12 15  1  0  0  0  0
 12 16  1  0  0  0  0
 13 17  1  0  0  0  0
 14 13  1  0  0  0  0
 17 16  2  0  0  0  0
 17 21  1  0  0  0  0
 18 19  1  0  0  0  0
 18 13  2  0  0  0  0
 19 12  2  0  0  0  0
 20 21  1  0  0  0  0
 22  1  1  6  0  0  0
 22 25  1  0  0  0  0
 22 24  1  0  0  0  0
 23 26  1  1  0  0  0
 24 23  1  0  0  0  0
 25 38  1  1  0  0  0
 25 23  1  0  0  0  0
 27 26  1  6  0  0  0
 27 28  1  0  0  0  0
 27 34  1  0  0  0  0
 28 29  1  6  0  0  0
 28 31  1  0  0  0  0
 30 28  1  0  0  0  0
 31 32  1  0  0  0  0
 32 33  1  0  0  0  0
 34 35  1  6  0  0  0
 37 34  1  0  0  0  0
 37 36  1  0  0  0  0
 39 38  1  0  0  0  0
 39 40  1  0  0  0  0
M  END
>  <MODEL>
5

>  <REMARK>
 VINA RESULT:      -6.9      2.618      5.852
  Name = 
  15 active torsions:
  status: ('A' for Active; 'I' for Inactive)
    1  A    between atoms: C_1  and  C_10
    2  A    between atoms: C_1  and  C_28
    3  A    between atoms: C_7  and  C_8
    4  A    between atoms: C_7  and  C_24
    5  A    between atoms: C_7  and  C_30
    6  A    between atoms: C_8  and  C_32
    7  A    between atoms: C_14  and  O_15
    8  A    between atoms: C_16  and  C_24
    9  A    between atoms: N_18  and  N_34
   10  A    between atoms: C_19  and  C_28
   11  A    between atoms: C_22  and  C_29
   12  A    between atoms: C_23  and  O_38
   13  A    between atoms: C_25  and  O_38
   14  A    between atoms: C_29  and  C_35
   15  A    between atoms: C_30  and  N_34
                            x       y       z     vdW  Elec       q    Type
                         _______ _______ _______ _____ _____    ______ ____

>  <TORSDO>
F 15

$$$$
=
 OpenBabel11062413083D

 40 42  0  0  1  0  0  0  0  0999 V2000
  184.7980  178.2550  145.1570 C   0  0  0  0  0  0  0  0  0  0  0  0
  184.5930  178.7540  146.3880 C   0  0  0  0  0  2  0  0  0  0  0  0
  181.7440  179.3710  143.0900 C   0  0  0  0  0  2  0  0  0  0  0  0
  184.3180  177.9760  142.6880 C   0  0  0  0  0  2  0  0  0  0  0  0
  182.5500  178.8330  144.2680 C   0  0  0  0  0  2  0  0  0  0  0  0
  183.2600  178.0440  141.6120 C   0  0  0  0  0  0  0  0  0  0  0  0
  184.0540  178.8250  143.9530 C   0  0  1  0  0  0  0  0  0  0  0  0
  182.0800  178.6480  141.8230 C   0  0  0  0  0  3  0  0  0  0  0  0
  185.4630  180.2610  142.5990 F   0  0  0  0  0  0  0  0  0  0  0  0
  184.5610  180.2430  143.6510 C   0  0  0  0  0  2  0  0  0  0  0  0
  183.5630  177.4330  140.3860 O   0  0  0  0  0  0  0  0  0  0  0  0
  181.1160  175.5020  138.3420 C   0  0  0  0  0  0  0  0  0  0  0  0
  182.4510  177.9650  138.3030 C   0  0  0  0  0  0  0  0  0  0  0  0
  183.1370  179.1760  138.3060 O   0  0  0  0  0  1  0  0  0  0  0  0
  180.4670  174.3130  138.3630 F   0  0  0  0  0  0  0  0  0  0  0  0
  180.9210  176.3820  137.2790 C   0  0  0  0  0  3  0  0  0  0  0  0
  181.5750  177.6190  137.2440 C   0  0  0  0  0  0  0  0  0  0  0  0
  182.6540  177.0750  139.3720 C   0  0  0  0  0  0  0  0  0  0  0  0
  181.9800  175.8440  139.3800 C   0  0  0  0  0  3  0  0  0  0  0  0
  181.7420  178.1790  134.8110 C   0  0  0  0  0  1  0  0  0  0  0  0
  181.3160  178.4470  136.1410 O   0  0  0  0  0  0  0  0  0  0  0  0
  185.9500  177.2960  144.9220 C   0  0  2  0  0  3  0  0  0  0  0  0
  187.9860  177.8070  145.4340 C   0  0  2  0  0  3  0  0  0  0  0  0
  186.8240  177.1390  146.1610 C   0  0  0  0  0  2  0  0  0  0  0  0
  187.1150  177.9410  144.1770 C   0  0  1  0  0  3  0  0  0  0  0  0
  189.1750  176.8560  145.3140 C   0  0  0  0  0  2  0  0  0  0  0  0
  190.4310  177.4860  145.9260 C   0  0  1  0  0  3  0  0  0  0  0  0
  190.6880  176.9130  147.3430 C   0  0  1  0  0  0  0  0  0  0  0  0
  190.1620  177.8740  148.4080 C   0  0  0  0  0  1  0  0  0  0  0  0
  190.0340  175.6840  147.4740 O   0  0  0  0  0  1  0  0  0  0  0  0
  192.1310  176.7130  147.5270 N   0  0  0  0  0  2  0  0  0  0  0  0
  192.4890  177.1060  148.8260 N   0  0  0  0  0  2  0  0  0  0  0  0
  193.4030  176.0990  149.3320 C   0  0  0  0  0  1  0  0  0  0  0  0
  191.6490  177.3640  144.9730 C   0  0  1  0  0  3  0  0  0  0  0  0
  191.6020  176.1070  144.1130 C   0  0  0  0  0  1  0  0  0  0  0  0
  190.8270  179.5370  144.3420 O   0  0  0  0  0  1  0  0  0  0  0  0
  191.8060  178.5780  144.0620 C   0  0  0  0  0  2  0  0  0  0  0  0
  187.5640  177.1580  142.9250 C   0  0  0  0  0  2  0  0  0  0  0  0
  188.3530  177.9680  141.8990 C   0  0  0  0  0  2  0  0  0  0  0  0
  187.4110  178.5970  140.8940 C   0  0  0  0  0  1  0  0  0  0  0  0
  1  2  2  0  0  0  0
  3  5  1  0  0  0  0
  4  7  1  0  0  0  0
  6  8  2  0  0  0  0
  6  4  1  0  0  0  0
  7 10  1  6  0  0  0
  7  5  1  0  0  0  0
  7  1  1  0  0  0  0
  8  3  1  0  0  0  0
  9 10  1  0  0  0  0
 11  6  1  0  0  0  0
 12 15  1  0  0  0  0
 12 19  1  0  0  0  0
 13 14  1  0  0  0  0
 13 18  1  0  0  0  0
 16 12  2  0  0  0  0
 17 16  1  0  0  0  0
 17 13  2  0  0  0  0
 18 19  2  0  0  0  0
 18 11  1  0  0  0  0
 20 21  1  0  0  0  0
 21 17  1  0  0  0  0
 22  1  1  1  0  0  0
 22 24  1  0  0  0  0
 23 26  1  6  0  0  0
 23 24  1  0  0  0  0
 25 38  1  6  0  0  0
 25 22  1  0  0  0  0
 25 23  1  0  0  0  0
 27 26  1  6  0  0  0
 27 28  1  0  0  0  0
 28 30  1  0  0  0  0
 28 31  1  0  0  0  0
 28 29  1  1  0  0  0
 31 32  1  0  0  0  0
 32 33  1  0  0  0  0
 34 35  1  6  0  0  0
 34 27  1  0  0  0  0
 37 36  1  0  0  0  0
 37 34  1  0  0  0  0
 39 38  1  0  0  0  0
 40 39  1  0  0  0  0
M  END
>  <MODEL>
6

>  <REMARK>
 VINA RESULT:      -6.9      3.345      6.488
  Name = 
  15 active torsions:
  status: ('A' for Active; 'I' for Inactive)
    1  A    between atoms: C_1  and  C_10
    2  A    between atoms: C_1  and  C_28
    3  A    between atoms: C_7  and  C_8
    4  A    between atoms: C_7  and  C_24
    5  A    between atoms: C_7  and  C_30
    6  A    between atoms: C_8  and  C_32
    7  A    between atoms: C_14  and  O_15
    8  A    between atoms: C_16  and  C_24
    9  A    between atoms: N_18  and  N_34
   10  A    between atoms: C_19  and  C_28
   11  A    between atoms: C_22  and  C_29
   12  A    between atoms: C_23  and  O_38
   13  A    between atoms: C_25  and  O_38
   14  A    between atoms: C_29  and  C_35
   15  A    between atoms: C_30  and  N_34
                            x       y       z     vdW  Elec       q    Type
                         _______ _______ _______ _____ _____    ______ ____

>  <TORSDO>
F 15

$$$$
=
 OpenBabel11062413083D

 40 42  0  0  1  0  0  0  0  0999 V2000
  187.0110  177.6620  143.0270 C   0  0  0  0  0  0  0  0  0  0  0  0
  187.1970  176.6230  143.8590 C   0  0  0  0  0  2  0  0  0  0  0  0
  183.9130  179.2790  144.6520 C   0  0  0  0  0  2  0  0  0  0  0  0
  184.6460  177.8800  142.1530 C   0  0  0  0  0  2  0  0  0  0  0  0
  185.2150  178.4920  144.5320 C   0  0  0  0  0  2  0  0  0  0  0  0
  183.2130  178.1970  142.5110 C   0  0  0  0  0  0  0  0  0  0  0  0
  185.7250  178.4820  143.0820 C   0  0  1  0  0  0  0  0  0  0  0  0
  182.8930  178.7980  143.6680 C   0  0  0  0  0  3  0  0  0  0  0  0
  185.5690  180.0950  141.2780 F   0  0  0  0  0  0  0  0  0  0  0  0
  185.9960  179.9090  142.5830 C   0  0  0  0  0  2  0  0  0  0  0  0
  182.2290  177.8190  141.5840 O   0  0  0  0  0  0  0  0  0  0  0  0
  182.0340  179.7410  138.3960 C   0  0  0  0  0  0  0  0  0  0  0  0
  182.2010  177.0870  139.2770 C   0  0  0  0  0  0  0  0  0  0  0  0
  182.2740  175.7790  139.7450 O   0  0  0  0  0  1  0  0  0  0  0  0
  181.9580  181.0250  137.9710 F   0  0  0  0  0  0  0  0  0  0  0  0
  182.0360  178.7000  137.4710 C   0  0  0  0  0  3  0  0  0  0  0  0
  182.1230  177.3680  137.8910 C   0  0  0  0  0  0  0  0  0  0  0  0
  182.1930  178.1360  140.2130 C   0  0  0  0  0  0  0  0  0  0  0  0
  182.1080  179.4620  139.7590 C   0  0  0  0  0  3  0  0  0  0  0  0
  182.7700  176.5110  135.6300 C   0  0  0  0  0  1  0  0  0  0  0  0
  182.1260  176.3830  136.8920 O   0  0  0  0  0  0  0  0  0  0  0  0
  188.1760  178.1770  142.2020 C   0  0  2  0  0  3  0  0  0  0  0  0
  188.9390  177.0910  140.4980 C   0  0  2  0  0  3  0  0  0  0  0  0
  187.8710  178.1580  140.7100 C   0  0  0  0  0  2  0  0  0  0  0  0
  189.2650  177.1280  141.9980 C   0  0  1  0  0  3  0  0  0  0  0  0
  190.0420  177.5980  139.5700 C   0  0  0  0  0  2  0  0  0  0  0  0
  190.0980  176.7530  138.2920 C   0  0  1  0  0  3  0  0  0  0  0  0
  189.2850  177.4320  137.1600 C   0  0  1  0  0  0  0  0  0  0  0  0
  189.2410  178.9450  137.3720 C   0  0  0  0  0  1  0  0  0  0  0  0
  189.8880  177.1610  135.9280 O   0  0  0  0  0  1  0  0  0  0  0  0
  187.9200  176.8930  137.1560 N   0  0  0  0  0  2  0  0  0  0  0  0
  187.0100  177.9430  136.9560 N   0  0  0  0  0  2  0  0  0  0  0  0
  185.7750  177.5580  137.6150 C   0  0  0  0  0  1  0  0  0  0  0  0
  191.5600  176.4200  137.8960 C   0  0  1  0  0  3  0  0  0  0  0  0
  192.5690  176.8210  138.9670 C   0  0  0  0  0  1  0  0  0  0  0  0
  190.6100  174.2070  137.8810 O   0  0  0  0  0  1  0  0  0  0  0  0
  191.7560  174.9430  137.5640 C   0  0  0  0  0  2  0  0  0  0  0  0
  190.6770  177.6090  142.3970 C   0  0  0  0  0  2  0  0  0  0  0  0
  191.4120  176.7140  143.3920 C   0  0  0  0  0  2  0  0  0  0  0  0
  191.2630  177.2620  144.7960 C   0  0  0  0  0  1  0  0  0  0  0  0
  1  7  1  0  0  0  0
  1  2  2  0  0  0  0
  4  6  1  0  0  0  0
  4  7  1  0  0  0  0
  5  3  1  0  0  0  0
  6  8  2  0  0  0  0
  7 10  1  6  0  0  0
  7  5  1  0  0  0  0
  8  3  1  0  0  0  0
  9 10  1  0  0  0  0
 11  6  1  0  0  0  0
 12 19  1  0  0  0  0
 13 14  1  0  0  0  0
 13 18  1  0  0  0  0
 15 12  1  0  0  0  0
 16 17  1  0  0  0  0
 16 12  2  0  0  0  0
 17 13  2  0  0  0  0
 18 11  1  0  0  0  0
 19 18  2  0  0  0  0
 20 21  1  0  0  0  0
 21 17  1  0  0  0  0
 22  1  1  1  0  0  0
 23 26  1  6  0  0  0
 23 24  1  0  0  0  0
 23 25  1  0  0  0  0
 24 22  1  0  0  0  0
 25 22  1  0  0  0  0
 25 38  1  6  0  0  0
 27 26  1  1  0  0  0
 28 29  1  1  0  0  0
 28 27  1  0  0  0  0
 30 28  1  0  0  0  0
 31 28  1  0  0  0  0
 32 31  1  0  0  0  0
 32 33  1  0  0  0  0
 34 27  1  0  0  0  0
 34 35  1  1  0  0  0
 37 36  1  0  0  0  0
 37 34  1  0  0  0  0
 38 39  1  0  0  0  0
 39 40  1  0  0  0  0
M  END
>  <MODEL>
7

>  <REMARK>
 VINA RESULT:      -6.7      3.016      7.646
  Name = 
  15 active torsions:
  status: ('A' for Active; 'I' for Inactive)
    1  A    between atoms: C_1  and  C_10
    2  A    between atoms: C_1  and  C_28
    3  A    between atoms: C_7  and  C_8
    4  A    between atoms: C_7  and  C_24
    5  A    between atoms: C_7  and  C_30
    6  A    between atoms: C_8  and  C_32
    7  A    between atoms: C_14  and  O_15
    8  A    between atoms: C_16  and  C_24
    9  A    between atoms: N_18  and  N_34
   10  A    between atoms: C_19  and  C_28
   11  A    between atoms: C_22  and  C_29
   12  A    between atoms: C_23  and  O_38
   13  A    between atoms: C_25  and  O_38
   14  A    between atoms: C_29  and  C_35
   15  A    between atoms: C_30  and  N_34
                            x       y       z     vdW  Elec       q    Type
                         _______ _______ _______ _____ _____    ______ ____

>  <TORSDO>
F 15

$$$$
=
 OpenBabel11062413083D

 40 42  0  0  1  0  0  0  0  0999 V2000
  187.3490  176.4720  137.4460 C   0  0  0  0  0  0  0  0  0  0  0  0
  187.2460  175.1810  137.0890 C   0  0  0  0  0  2  0  0  0  0  0  0
  190.9930  176.3470  138.6930 C   0  0  0  0  0  2  0  0  0  0  0  0
  188.4440  177.6740  139.3850 C   0  0  0  0  0  2  0  0  0  0  0  0
  189.6630  175.8660  138.1210 C   0  0  0  0  0  2  0  0  0  0  0  0
  189.6570  177.7360  140.2840 C   0  0  0  0  0  0  0  0  0  0  0  0
  188.6600  177.0240  138.0000 C   0  0  1  0  0  0  0  0  0  0  0  0
  190.7960  177.0970  139.9740 C   0  0  0  0  0  3  0  0  0  0  0  0
  189.0490  179.3860  137.6200 F   0  0  0  0  0  0  0  0  0  0  0  0
  189.1960  178.1230  137.0710 C   0  0  0  0  0  2  0  0  0  0  0  0
  189.5330  178.4830  141.4660 O   0  0  0  0  0  0  0  0  0  0  0  0
  187.5650  177.2000  144.3590 C   0  0  0  0  0  0  0  0  0  0  0  0
  190.2000  177.9050  143.7190 C   0  0  0  0  0  0  0  0  0  0  0  0
  191.4970  178.2720  143.3750 O   0  0  0  0  0  1  0  0  0  0  0  0
  186.2920  176.8540  144.6670 F   0  0  0  0  0  0  0  0  0  0  0  0
  188.5630  177.1150  145.3280 C   0  0  0  0  0  3  0  0  0  0  0  0
  189.8860  177.4590  145.0270 C   0  0  0  0  0  0  0  0  0  0  0  0
  189.1940  177.9960  142.7420 C   0  0  0  0  0  0  0  0  0  0  0  0
  187.8770  177.6410  143.0750 C   0  0  0  0  0  3  0  0  0  0  0  0
  191.8360  176.3370  146.1210 C   0  0  0  0  0  1  0  0  0  0  0  0
  190.8280  177.3380  146.0590 O   0  0  0  0  0  0  0  0  0  0  0  0
  186.2450  177.4430  137.0700 C   0  0  2  0  0  3  0  0  0  0  0  0
  184.3310  177.4420  138.0720 C   0  0  2  0  0  3  0  0  0  0  0  0
  185.6650  178.1490  138.2890 C   0  0  0  0  0  2  0  0  0  0  0  0
  184.9060  176.7510  136.8280 C   0  0  1  0  0  3  0  0  0  0  0  0
  183.2150  178.4510  137.8100 C   0  0  0  0  0  2  0  0  0  0  0  0
  181.9110  177.9930  138.4730 C   0  0  1  0  0  3  0  0  0  0  0  0
  181.5220  178.9560  139.6240 C   0  0  1  0  0  0  0  0  0  0  0  0
  180.8730  180.2200  139.0620 C   0  0  0  0  0  1  0  0  0  0  0  0
  180.6170  178.3190  140.4780 O   0  0  0  0  0  1  0  0  0  0  0  0
  182.7280  179.3140  140.3810 N   0  0  0  0  0  2  0  0  0  0  0  0
  182.7620  178.5720  141.5720 N   0  0  0  0  0  2  0  0  0  0  0  0
  184.1350  178.1390  141.7580 C   0  0  0  0  0  1  0  0  0  0  0  0
  180.7850  177.7870  137.4260 C   0  0  1  0  0  3  0  0  0  0  0  0
  181.0570  178.5120  136.1140 C   0  0  0  0  0  1  0  0  0  0  0  0
  180.5360  175.5600  138.3080 O   0  0  0  0  0  1  0  0  0  0  0  0
  180.5220  176.3130  137.1300 C   0  0  0  0  0  2  0  0  0  0  0  0
  184.2610  177.1000  135.4700 C   0  0  0  0  0  2  0  0  0  0  0  0
  183.8240  175.9020  134.6300 C   0  0  0  0  0  2  0  0  0  0  0  0
  183.5260  174.7180  135.5260 C   0  0  0  0  0  1  0  0  0  0  0  0
  1  7  1  0  0  0  0
  2  1  2  0  0  0  0
  3  8  1  0  0  0  0
  4  6  1  0  0  0  0
  5  3  1  0  0  0  0
  6 11  1  0  0  0  0
  7 10  1  6  0  0  0
  7  5  1  0  0  0  0
  7  4  1  0  0  0  0
  8  6  2  0  0  0  0
 10  9  1  0  0  0  0
 11 18  1  0  0  0  0
 12 15  1  0  0  0  0
 12 16  1  0  0  0  0
 13 17  1  0  0  0  0
 14 13  1  0  0  0  0
 17 16  2  0  0  0  0
 17 21  1  0  0  0  0
 18 19  1  0  0  0  0
 18 13  2  0  0  0  0
 19 12  2  0  0  0  0
 21 20  1  0  0  0  0
 22  1  1  1  0  0  0
 22 24  1  0  0  0  0
 23 26  1  6  0  0  0
 23 24  1  0  0  0  0
 25 38  1  6  0  0  0
 25 22  1  0  0  0  0
 25 23  1  0  0  0  0
 27 26  1  6  0  0  0
 27 28  1  0  0  0  0
 28 29  1  6  0  0  0
 28 31  1  0  0  0  0
 28 30  1  0  0  0  0
 31 32  1  0  0  0  0
 32 33  1  0  0  0  0
 34 35  1  6  0  0  0
 34 27  1  0  0  0  0
 37 34  1  0  0  0  0
 37 36  1  0  0  0  0
 39 38  1  0  0  0  0
 39 40  1  0  0  0  0
M  END
>  <MODEL>
8

>  <REMARK>
 VINA RESULT:      -6.6      3.213      7.581
  Name = 
  15 active torsions:
  status: ('A' for Active; 'I' for Inactive)
    1  A    between atoms: C_1  and  C_10
    2  A    between atoms: C_1  and  C_28
    3  A    between atoms: C_7  and  C_8
    4  A    between atoms: C_7  and  C_24
    5  A    between atoms: C_7  and  C_30
    6  A    between atoms: C_8  and  C_32
    7  A    between atoms: C_14  and  O_15
    8  A    between atoms: C_16  and  C_24
    9  A    between atoms: N_18  and  N_34
   10  A    between atoms: C_19  and  C_28
   11  A    between atoms: C_22  and  C_29
   12  A    between atoms: C_23  and  O_38
   13  A    between atoms: C_25  and  O_38
   14  A    between atoms: C_29  and  C_35
   15  A    between atoms: C_30  and  N_34
                            x       y       z     vdW  Elec       q    Type
                         _______ _______ _______ _____ _____    ______ ____

>  <TORSDO>
F 15

$$$$
=
 OpenBabel11062413083D

 40 42  0  0  1  0  0  0  0  0999 V2000
  184.6020  179.1310  144.4200 C   0  0  0  0  0  0  0  0  0  0  0  0
  184.5340  180.4710  144.3410 C   0  0  0  0  0  2  0  0  0  0  0  0
  186.6570  178.9230  147.6730 C   0  0  0  0  0  2  0  0  0  0  0  0
  186.6520  177.7500  144.9610 C   0  0  0  0  0  2  0  0  0  0  0  0
  185.8300  179.5300  146.5440 C   0  0  0  0  0  2  0  0  0  0  0  0
  187.7980  177.5500  145.9240 C   0  0  0  0  0  0  0  0  0  0  0  0
  185.4020  178.4570  145.5310 C   0  0  1  0  0  0  0  0  0  0  0  0
  187.8030  178.1220  147.1390 C   0  0  0  0  0  3  0  0  0  0  0  0
  183.8070  177.8770  147.2620 F   0  0  0  0  0  0  0  0  0  0  0  0
  184.5460  177.3740  146.2040 C   0  0  0  0  0  2  0  0  0  0  0  0
  188.8650  176.7510  145.4850 O   0  0  0  0  0  0  0  0  0  0  0  0
  191.7680  178.3230  143.7550 C   0  0  0  0  0  0  0  0  0  0  0  0
  189.6990  176.5100  143.2260 C   0  0  0  0  0  0  0  0  0  0  0  0
  188.6550  175.6210  142.9900 O   0  0  0  0  0  1  0  0  0  0  0  0
  192.7710  179.1970  144.0130 F   0  0  0  0  0  0  0  0  0  0  0  0
  191.6430  177.7620  142.4860 C   0  0  0  0  0  3  0  0  0  0  0  0
  190.6190  176.8510  142.2030 C   0  0  0  0  0  0  0  0  0  0  0  0
  189.8200  177.0800  144.5050 C   0  0  0  0  0  0  0  0  0  0  0  0
  190.8610  177.9880  144.7570 C   0  0  0  0  0  3  0  0  0  0  0  0
  190.8140  177.0810  139.7190 C   0  0  0  0  0  1  0  0  0  0  0  0
  190.5700  176.3290  140.9020 O   0  0  0  0  0  0  0  0  0  0  0  0
  183.6830  178.2840  143.5580 C   0  0  2  0  0  3  0  0  0  0  0  0
  182.8870  179.0070  141.6840 C   0  0  2  0  0  3  0  0  0  0  0  0
  184.1400  178.2460  142.1050 C   0  0  0  0  0  2  0  0  0  0  0  0
  182.4140  179.0230  143.1450 C   0  0  1  0  0  3  0  0  0  0  0  0
  182.0390  178.1750  140.7250 C   0  0  0  0  0  2  0  0  0  0  0  0
  182.3390  178.5590  139.2720 C   0  0  1  0  0  3  0  0  0  0  0  0
  182.6210  177.2910  138.4250 C   0  0  1  0  0  0  0  0  0  0  0  0
  182.6810  176.0560  139.3230 C   0  0  0  0  0  1  0  0  0  0  0  0
  181.6000  177.1230  137.4850 O   0  0  0  0  0  1  0  0  0  0  0  0
  183.9000  177.4540  137.7230 N   0  0  0  0  0  2  0  0  0  0  0  0
  184.7330  178.2990  138.4730 N   0  0  0  0  0  2  0  0  0  0  0  0
  186.0910  178.0600  138.0180 C   0  0  0  0  0  1  0  0  0  0  0  0
  181.2280  179.4670  138.6830 C   0  0  1  0  0  3  0  0  0  0  0  0
  180.0620  179.6710  139.6430 C   0  0  0  0  0  1  0  0  0  0  0  0
  183.0510  181.0400  138.7320 O   0  0  0  0  0  1  0  0  0  0  0  0
  181.7540  180.8320  138.2500 C   0  0  0  0  0  2  0  0  0  0  0  0
  181.1130  178.2570  143.4690 C   0  0  0  0  0  2  0  0  0  0  0  0
  180.0370  179.0740  144.1790 C   0  0  0  0  0  2  0  0  0  0  0  0
  179.4180  180.0690  143.2190 C   0  0  0  0  0  1  0  0  0  0  0  0
  1  7  1  0  0  0  0
  2  1  2  0  0  0  0
  4  7  1  0  0  0  0
  4  6  1  0  0  0  0
  5  3  1  0  0  0  0
  6  8  2  0  0  0  0
  7 10  1  1  0  0  0
  7  5  1  0  0  0  0
  8  3  1  0  0  0  0
 10  9  1  0  0  0  0
 11  6  1  0  0  0  0
 12 15  1  0  0  0  0
 12 19  1  0  0  0  0
 13 18  1  0  0  0  0
 14 13  1  0  0  0  0
 16 12  2  0  0  0  0
 17 16  1  0  0  0  0
 17 13  2  0  0  0  0
 18 19  2  0  0  0  0
 18 11  1  0  0  0  0
 20 21  1  0  0  0  0
 21 17  1  0  0  0  0
 22  1  1  1  0  0  0
 23 26  1  6  0  0  0
 23 24  1  0  0  0  0
 23 25  1  0  0  0  0
 24 22  1  0  0  0  0
 25 38  1  6  0  0  0
 25 22  1  0  0  0  0
 27 26  1  1  0  0  0
 28 27  1  0  0  0  0
 28 29  1  1  0  0  0
 30 28  1  0  0  0  0
 31 28  1  0  0  0  0
 31 32  1  0  0  0  0
 33 32  1  0  0  0  0
 34 27  1  0  0  0  0
 34 35  1  1  0  0  0
 37 34  1  0  0  0  0
 37 36  1  0  0  0  0
 38 39  1  0  0  0  0
 40 39  1  0  0  0  0
M  END
>  <MODEL>
9

>  <REMARK>
 VINA RESULT:      -6.6      3.178      7.077
  Name = 
  15 active torsions:
  status: ('A' for Active; 'I' for Inactive)
    1  A    between atoms: C_1  and  C_10
    2  A    between atoms: C_1  and  C_28
    3  A    between atoms: C_7  and  C_8
    4  A    between atoms: C_7  and  C_24
    5  A    between atoms: C_7  and  C_30
    6  A    between atoms: C_8  and  C_32
    7  A    between atoms: C_14  and  O_15
    8  A    between atoms: C_16  and  C_24
    9  A    between atoms: N_18  and  N_34
   10  A    between atoms: C_19  and  C_28
   11  A    between atoms: C_22  and  C_29
   12  A    between atoms: C_23  and  O_38
   13  A    between atoms: C_25  and  O_38
   14  A    between atoms: C_29  and  C_35
   15  A    between atoms: C_30  and  N_34
                            x       y       z     vdW  Elec       q    Type
                         _______ _______ _______ _____ _____    ______ ____

>  <TORSDO>
F 15

$$$$
