=
 OpenBabel11062412373D

 51 55  0  0  1  0  0  0  0  0999 V2000
  186.5920  178.6750  143.3390 C   0  0  1  0  0  3  0  0  0  0  0  0
  185.7440  177.8910  144.3550 C   0  0  1  0  0  3  0  0  0  0  0  0
  186.4760  176.7400  145.0240 C   0  0  0  0  0  1  0  0  0  0  0  0
  185.1010  178.7890  145.3630 C   0  0  0  0  0  0  0  0  0  0  0  0
  183.6920  178.9920  145.3640 N   0  0  0  0  0  1  0  0  0  0  0  0
  185.8120  179.3600  146.2260 O   0  0  0  0  0  0  0  0  0  0  0  0
  188.8320  177.6450  142.9240 C   0  0  0  0  0  0  0  0  0  0  0  0
  187.5790  177.8550  142.6250 N   0  0  0  0  0  0  0  0  0  0  0  0
  189.6240  176.7900  142.0140 C   0  0  0  0  0  0  0  0  0  0  0  0
  190.0670  175.6750  142.4070 O   0  0  0  0  0  0  0  0  0  0  0  0
  189.9010  177.2390  140.6830 N   0  0  0  0  0  2  0  0  0  0  0  0
  190.7450  176.4940  139.7610 C   0  0  0  0  0  2  0  0  0  0  0  0
  189.7560  177.3200  137.7260 N   0  0  0  0  0  0  0  0  0  0  0  0
  190.0450  176.3060  138.4560 C   0  0  0  0  0  3  0  0  0  0  0  0
  189.1030  177.1440  136.4540 C   0  0  0  0  0  2  0  0  0  0  0  0
  187.4410  178.2290  135.0740 O   0  0  0  0  0  0  0  0  0  0  0  0
  186.1630  177.6850  134.8270 C   0  0  0  0  0  2  0  0  0  0  0  0
  185.7660  176.8960  136.0160 C   0  0  0  0  0  3  0  0  0  0  0  0
  187.8460  179.0490  137.1800 O   0  0  0  0  0  1  0  0  0  0  0  0
  186.6980  177.0160  136.9280 C   0  0  0  0  0  3  0  0  0  0  0  0
  187.7730  177.8910  136.4050 C   0  0  2  0  0  0  0  0  0  0  0  0
  189.4460  178.2260  144.1820 C   0  0  1  0  0  3  0  0  0  0  0  0
  189.4440  177.8490  146.4470 C   0  0  0  0  0  1  0  0  0  0  0  0
  189.7050  177.2730  145.1940 O   0  0  0  0  0  0  0  0  0  0  0  0
  190.5670  179.2450  143.9560 C   0  0  0  0  0  2  0  0  0  0  0  0
  191.9070  178.5410  143.9010 C   0  0  0  0  0  1  0  0  0  0  0  0
  185.7910  179.5970  142.4170 C   0  0  0  0  0  2  0  0  0  0  0  0
  183.2340  179.6150  139.2820 C   0  0  0  0  0  2  0  0  0  0  0  0
  182.9730  177.5140  140.8040 C   0  0  0  0  0  2  0  0  0  0  0  0
  182.3920  178.3800  139.6730 C   0  0  2  0  0  3  0  0  0  0  0  0
  185.5210  178.6260  140.0350 C   0  0  0  0  0  2  0  0  0  0  0  0
  183.8000  178.2980  141.7830 C   0  0  0  0  0  3  0  0  0  0  0  0
  184.7020  179.3220  138.9350 C   0  0  0  0  0  2  0  0  0  0  0  0
  184.9820  178.8220  141.4270 C   0  0  0  0  0  0  0  0  0  0  0  0
  180.5730  177.7520  138.1610 O   0  0  0  0  0  0  0  0  0  0  0  0
  181.4420  177.2770  135.9760 C   0  0  1  0  0  3  0  0  0  0  0  0
  181.9120  177.5070  138.5040 C   0  0  2  0  0  0  0  0  0  0  0  0
  182.2920  176.0200  136.0750 C   0  0  0  0  0  2  0  0  0  0  0  0
  182.2480  176.0080  138.5580 C   0  0  0  0  0  2  0  0  0  0  0  0
  181.8620  175.2370  137.2980 C   0  0  2  0  0  3  0  0  0  0  0  0
  181.5430  178.1750  137.2180 C   0  0  2  0  0  3  0  0  0  0  0  0
  181.8370  178.0440  134.7580 C   0  0  0  0  0  3  0  0  0  0  0  0
  181.4440  179.1890  134.5940 O   0  0  0  0  0  0  0  0  0  0  0  0
  182.5190  173.9400  137.2960 N   0  0  0  0  0  2  0  0  0  0  0  0
  183.8630  174.1540  137.6340 N   0  0  0  0  0  2  0  0  0  0  0  0
  185.7970  172.5010  134.8360 C   0  0  0  0  0  2  0  0  0  0  0  0
  184.6840  173.0930  135.6590 C   0  0  0  0  0  3  0  0  0  0  0  0
  186.2570  173.3570  137.5020 C   0  0  0  0  0  3  0  0  0  0  0  0
  187.1500  172.5400  136.9340 C   0  0  0  0  0  3  0  0  0  0  0  0
  184.9180  173.5380  136.8980 C   0  0  0  0  0  0  0  0  0  0  0  0
  186.7740  171.7260  135.7250 C   0  0  0  0  0  2  0  0  0  0  0  0
  1 27  1  6  0  0  0
  1  2  1  0  0  0  0
  2  3  1  1  0  0  0
  2  4  1  0  0  0  0
  4  5  1  0  0  0  0
  4  6  2  0  0  0  0
  7 22  1  0  0  0  0
  8  7  2  0  0  0  0
  8  1  1  0  0  0  0
  9 10  2  0  0  0  0
  9  7  1  0  0  0  0
 11  9  1  0  0  0  0
 12 11  1  0  0  0  0
 13 14  2  0  0  0  0
 14 12  1  0  0  0  0
 15 13  1  0  0  0  0
 16 21  1  0  0  0  0
 17 16  1  0  0  0  0
 17 18  1  0  0  0  0
 18 20  2  0  0  0  0
 21 15  1  0  0  0  0
 21 20  1  0  0  0  0
 21 19  1  1  0  0  0
 22 25  1  6  0  0  0
 22 24  1  0  0  0  0
 24 23  1  0  0  0  0
 26 25  1  0  0  0  0
 29 32  1  0  0  0  0
 30 28  1  6  0  0  0
 30 29  1  0  0  0  0
 31 34  1  0  0  0  0
 33 28  1  0  0  0  0
 33 31  1  0  0  0  0
 34 32  2  0  0  0  0
 34 27  1  0  0  0  0
 35 37  1  0  0  0  0
 36 42  1  6  0  0  0
 36 38  1  0  0  0  0
 36 41  1  0  0  0  0
 37 39  1  6  0  0  0
 37 30  1  0  0  0  0
 38 40  1  0  0  0  0
 40 44  1  1  0  0  0
 40 39  1  0  0  0  0
 41 35  1  1  0  0  0
 41 37  1  0  0  0  0
 43 42  2  0  0  0  0
 44 45  1  0  0  0  0
 46 47  1  0  0  0  0
 46 51  1  0  0  0  0
 47 50  2  0  0  0  0
 49 48  2  0  0  0  0
 50 48  1  0  0  0  0
 50 45  1  0  0  0  0
 51 49  1  0  0  0  0
M  END
>  <MODEL>
1

>  <REMARK>
 VINA RESULT:      -6.6      0.000      0.000
  Name = 
  18 active torsions:
  status: ('A' for Active; 'I' for Inactive)
    1  A    between atoms: C_1  and  C_11
    2  A    between atoms: C_1  and  C_14
    3  A    between atoms: C_1  and  N_33
    4  A    between atoms: N_3  and  N_7
    5  A    between atoms: N_3  and  C_44
    6  A    between atoms: N_7  and  C_35
    7  A    between atoms: C_8  and  C_31
    8  A    between atoms: C_10  and  C_23
    9  A    between atoms: C_11  and  C_48
   10  A    between atoms: C_12  and  C_19
   11  A    between atoms: C_14  and  C_27
   12  A    between atoms: C_18  and  C_50
   13  A    between atoms: C_20  and  C_30
   14  A    between atoms: C_20  and  N_41
   15  A    between atoms: N_29  and  C_37
   16  A    between atoms: C_31  and  C_50
   17  A    between atoms: C_37  and  C_46
   18  A    between atoms: O_42  and  C_50
                            x       y       z     vdW  Elec       q    Type
                         _______ _______ _______ _____ _____    ______ ____

>  <TORSDO>
F 18

$$$$
=
 OpenBabel11062412373D

 51 55  0  0  1  0  0  0  0  0999 V2000
  190.6850  176.1550  137.7470 C   0  0  1  0  0  3  0  0  0  0  0  0
  191.9960  175.5410  138.2700 C   0  0  1  0  0  3  0  0  0  0  0  0
  192.3980  174.2470  137.5830 C   0  0  0  0  0  1  0  0  0  0  0  0
  193.1170  176.5290  138.2750 C   0  0  0  0  0  0  0  0  0  0  0  0
  193.5440  177.1420  139.4880 N   0  0  0  0  0  1  0  0  0  0  0  0
  193.6980  176.8120  137.1980 O   0  0  0  0  0  0  0  0  0  0  0  0
  188.9230  174.8180  136.5810 C   0  0  0  0  0  0  0  0  0  0  0  0
  189.5760  175.1980  137.6450 N   0  0  0  0  0  0  0  0  0  0  0  0
  187.8180  173.8530  136.7580 C   0  0  0  0  0  0  0  0  0  0  0  0
  187.9350  172.8850  137.5610 O   0  0  0  0  0  0  0  0  0  0  0  0
  186.6120  174.0110  136.0020 N   0  0  0  0  0  2  0  0  0  0  0  0
  185.5180  173.0530  136.0570 C   0  0  0  0  0  2  0  0  0  0  0  0
  183.9650  174.6150  137.0340 N   0  0  0  0  0  0  0  0  0  0  0  0
  184.5250  173.4630  137.0940 C   0  0  0  0  0  3  0  0  0  0  0  0
  182.9880  175.0070  138.0170 C   0  0  0  0  0  2  0  0  0  0  0  0
  180.9340  173.7390  137.8890 O   0  0  0  0  0  0  0  0  0  0  0  0
  179.7370  174.1350  138.5220 C   0  0  0  0  0  2  0  0  0  0  0  0
  179.7140  175.6150  138.5680 C   0  0  0  0  0  3  0  0  0  0  0  0
  181.6080  174.9520  136.0600 O   0  0  0  0  0  1  0  0  0  0  0  0
  180.7760  176.0690  137.9500 C   0  0  0  0  0  3  0  0  0  0  0  0
  181.5710  174.9220  137.4550 C   0  0  2  0  0  0  0  0  0  0  0  0
  189.3100  175.3200  135.2040 C   0  0  1  0  0  3  0  0  0  0  0  0
  187.9070  177.1380  135.2000 C   0  0  0  0  0  1  0  0  0  0  0  0
  189.2400  176.7240  135.0580 O   0  0  0  0  0  0  0  0  0  0  0  0
  190.5550  174.6710  134.5940 C   0  0  0  0  0  2  0  0  0  0  0  0
  190.4110  173.1630  134.5940 C   0  0  0  0  0  1  0  0  0  0  0  0
  190.2880  177.4740  138.4140 C   0  0  0  0  0  2  0  0  0  0  0  0
  188.6690  179.0410  141.7740 C   0  0  0  0  0  2  0  0  0  0  0  0
  189.7380  176.6930  142.1520 C   0  0  0  0  0  2  0  0  0  0  0  0
  189.1600  177.9740  142.7770 C   0  0  2  0  0  3  0  0  0  0  0  0
  188.1390  177.3710  139.8490 C   0  0  0  0  0  2  0  0  0  0  0  0
  190.3750  176.9270  140.8120 C   0  0  0  0  0  3  0  0  0  0  0  0
  187.6620  178.5390  140.7270 C   0  0  0  0  0  2  0  0  0  0  0  0
  189.6350  177.2480  139.7400 C   0  0  0  0  0  0  0  0  0  0  0  0
  188.3200  176.3150  144.3700 O   0  0  0  0  0  0  0  0  0  0  0  0
  187.7690  177.3730  146.4510 C   0  0  1  0  0  3  0  0  0  0  0  0
  188.1860  177.6370  143.9170 C   0  0  2  0  0  0  0  0  0  0  0  0
  186.5790  178.2890  146.2080 C   0  0  0  0  0  2  0  0  0  0  0  0
  186.7190  178.0600  143.7390 C   0  0  0  0  0  2  0  0  0  0  0  0
  185.8470  177.8170  144.9680 C   0  0  2  0  0  3  0  0  0  0  0  0
  188.7470  177.3250  145.2670 C   0  0  2  0  0  3  0  0  0  0  0  0
  188.4820  177.8110  147.6860 C   0  0  0  0  0  3  0  0  0  0  0  0
  188.0990  177.4410  148.7850 O   0  0  0  0  0  0  0  0  0  0  0  0
  184.5990  178.5510  144.8370 N   0  0  0  0  0  2  0  0  0  0  0  0
  184.5840  179.1220  143.5560 N   0  0  0  0  0  2  0  0  0  0  0  0
  181.0900  178.8800  142.1310 C   0  0  0  0  0  2  0  0  0  0  0  0
  182.2460  179.0520  143.0800 C   0  0  0  0  0  3  0  0  0  0  0  0
  183.7570  178.4430  141.2670 C   0  0  0  0  0  3  0  0  0  0  0  0
  182.7600  177.9580  140.5200 C   0  0  0  0  0  3  0  0  0  0  0  0
  183.5030  178.8910  142.6540 C   0  0  0  0  0  0  0  0  0  0  0  0
  181.3870  177.7780  141.1100 C   0  0  0  0  0  2  0  0  0  0  0  0
  1  2  1  0  0  0  0
  1 27  1  1  0  0  0
  2  3  1  6  0  0  0
  2  4  1  0  0  0  0
  4  5  1  0  0  0  0
  6  4  2  0  0  0  0
  7  9  1  0  0  0  0
  7  8  2  0  0  0  0
  8  1  1  0  0  0  0
  9 10  2  0  0  0  0
 11 12  1  0  0  0  0
 11  9  1  0  0  0  0
 12 14  1  0  0  0  0
 13 14  2  0  0  0  0
 13 15  1  0  0  0  0
 16 17  1  0  0  0  0
 17 18  1  0  0  0  0
 20 18  2  0  0  0  0
 21 19  1  6  0  0  0
 21 16  1  0  0  0  0
 21 20  1  0  0  0  0
 21 15  1  0  0  0  0
 22 25  1  1  0  0  0
 22  7  1  0  0  0  0
 24 23  1  0  0  0  0
 24 22  1  0  0  0  0
 26 25  1  0  0  0  0
 27 34  1  0  0  0  0
 29 30  1  0  0  0  0
 30 28  1  6  0  0  0
 30 37  1  0  0  0  0
 31 33  1  0  0  0  0
 32 29  1  0  0  0  0
 33 28  1  0  0  0  0
 34 31  1  0  0  0  0
 34 32  2  0  0  0  0
 36 42  1  1  0  0  0
 37 39  1  6  0  0  0
 37 35  1  0  0  0  0
 37 41  1  0  0  0  0
 38 36  1  0  0  0  0
 39 40  1  0  0  0  0
 40 44  1  6  0  0  0
 40 38  1  0  0  0  0
 41 35  1  6  0  0  0
 41 36  1  0  0  0  0
 42 43  2  0  0  0  0
 45 44  1  0  0  0  0
 46 47  1  0  0  0  0
 48 50  1  0  0  0  0
 49 51  1  0  0  0  0
 49 48  2  0  0  0  0
 50 47  2  0  0  0  0
 50 45  1  0  0  0  0
 51 46  1  0  0  0  0
M  END
>  <MODEL>
2

>  <REMARK>
 VINA RESULT:      -6.2      2.421      8.794
  Name = 
  18 active torsions:
  status: ('A' for Active; 'I' for Inactive)
    1  A    between atoms: C_1  and  C_11
    2  A    between atoms: C_1  and  C_14
    3  A    between atoms: C_1  and  N_33
    4  A    between atoms: N_3  and  N_7
    5  A    between atoms: N_3  and  C_44
    6  A    between atoms: N_7  and  C_35
    7  A    between atoms: C_8  and  C_31
    8  A    between atoms: C_10  and  C_23
    9  A    between atoms: C_11  and  C_48
   10  A    between atoms: C_12  and  C_19
   11  A    between atoms: C_14  and  C_27
   12  A    between atoms: C_18  and  C_50
   13  A    between atoms: C_20  and  C_30
   14  A    between atoms: C_20  and  N_41
   15  A    between atoms: N_29  and  C_37
   16  A    between atoms: C_31  and  C_50
   17  A    between atoms: C_37  and  C_46
   18  A    between atoms: O_42  and  C_50
                            x       y       z     vdW  Elec       q    Type
                         _______ _______ _______ _____ _____    ______ ____

>  <TORSDO>
F 18

$$$$
=
 OpenBabel11062412373D

 51 55  0  0  1  0  0  0  0  0999 V2000
  182.5750  176.4010  135.8960 C   0  0  1  0  0  3  0  0  0  0  0  0
  182.1550  174.9710  135.5130 C   0  0  1  0  0  3  0  0  0  0  0  0
  182.8300  173.8820  136.3300 C   0  0  0  0  0  1  0  0  0  0  0  0
  180.6700  174.8050  135.5020 C   0  0  0  0  0  0  0  0  0  0  0  0
  179.8330  175.7740  134.8790 N   0  0  0  0  0  1  0  0  0  0  0  0
  180.1560  173.7920  136.0380 O   0  0  0  0  0  0  0  0  0  0  0  0
  181.8870  177.4540  138.0560 C   0  0  0  0  0  0  0  0  0  0  0  0
  182.6200  176.6430  137.3440 N   0  0  0  0  0  0  0  0  0  0  0  0
  182.1560  177.5310  139.5080 C   0  0  0  0  0  0  0  0  0  0  0  0
  181.5200  176.8010  140.3170 O   0  0  0  0  0  0  0  0  0  0  0  0
  183.1370  178.4520  139.9980 N   0  0  0  0  0  2  0  0  0  0  0  0
  183.3930  178.6470  141.4180 C   0  0  0  0  0  2  0  0  0  0  0  0
  185.3640  178.2410  142.7430 N   0  0  0  0  0  0  0  0  0  0  0  0
  184.8620  178.7320  141.6700 C   0  0  0  0  0  3  0  0  0  0  0  0
  186.7840  178.2980  142.9800 C   0  0  0  0  0  2  0  0  0  0  0  0
  188.3090  177.9400  144.8210 O   0  0  0  0  0  0  0  0  0  0  0  0
  187.9370  178.0850  146.1750 C   0  0  0  0  0  2  0  0  0  0  0  0
  186.5060  177.7290  146.2950 C   0  0  0  0  0  3  0  0  0  0  0  0
  187.4820  176.1200  143.6920 O   0  0  0  0  0  1  0  0  0  0  0  0
  186.0720  177.3360  145.1240 C   0  0  0  0  0  3  0  0  0  0  0  0
  187.1870  177.4050  144.1510 C   0  0  2  0  0  0  0  0  0  0  0  0
  180.7710  178.2620  137.4250 C   0  0  1  0  0  3  0  0  0  0  0  0
  179.4140  179.5890  138.7160 C   0  0  0  0  0  1  0  0  0  0  0  0
  179.5810  178.3010  138.1860 O   0  0  0  0  0  0  0  0  0  0  0  0
  181.1920  179.6060  136.8220 C   0  0  0  0  0  2  0  0  0  0  0  0
  180.8200  179.6590  135.3550 C   0  0  0  0  0  1  0  0  0  0  0  0
  183.8100  176.9220  135.1570 C   0  0  0  0  0  2  0  0  0  0  0  0
  187.7340  177.6030  135.8660 C   0  0  0  0  0  2  0  0  0  0  0  0
  187.1010  175.0750  135.9600 C   0  0  0  0  0  2  0  0  0  0  0  0
  188.2140  176.1340  135.8960 C   0  0  2  0  0  3  0  0  0  0  0  0
  185.4880  177.1730  137.1090 C   0  0  0  0  0  2  0  0  0  0  0  0
  185.8260  175.5180  135.3000 C   0  0  0  0  0  3  0  0  0  0  0  0
  186.7790  178.0010  137.0020 C   0  0  0  0  0  2  0  0  0  0  0  0
  185.0770  176.4980  135.8280 C   0  0  0  0  0  0  0  0  0  0  0  0
  189.5160  174.4430  137.0940 O   0  0  0  0  0  0  0  0  0  0  0  0
  191.7890  175.1690  137.3370 C   0  0  1  0  0  3  0  0  0  0  0  0
  189.3280  175.8210  136.9050 C   0  0  2  0  0  0  0  0  0  0  0  0
  191.7980  176.3710  138.2670 C   0  0  0  0  0  2  0  0  0  0  0  0
  189.3260  176.6090  138.2260 C   0  0  0  0  0  2  0  0  0  0  0  0
  190.5400  176.3430  139.1120 C   0  0  2  0  0  3  0  0  0  0  0  0
  190.5580  175.1240  136.4180 C   0  0  2  0  0  3  0  0  0  0  0  0
  193.0370  175.1690  136.5190 C   0  0  0  0  0  3  0  0  0  0  0  0
  193.3640  176.1650  135.8900 O   0  0  0  0  0  0  0  0  0  0  0  0
  190.6280  177.3640  140.1420 N   0  0  0  0  0  2  0  0  0  0  0  0
  190.0980  176.8160  141.3190 N   0  0  0  0  0  2  0  0  0  0  0  0
  191.7720  175.7890  144.5500 C   0  0  0  0  0  2  0  0  0  0  0  0
  190.9660  175.7650  143.2790 C   0  0  0  0  0  3  0  0  0  0  0  0
  191.3510  178.1610  143.0510 C   0  0  0  0  0  3  0  0  0  0  0  0
  191.7620  178.2750  144.3190 C   0  0  0  0  0  3  0  0  0  0  0  0
  190.8110  176.8770  142.5520 C   0  0  0  0  0  0  0  0  0  0  0  0
  191.5980  177.1270  145.2760 C   0  0  0  0  0  2  0  0  0  0  0  0
  1 27  1  1  0  0  0
  1  8  1  0  0  0  0
  2  1  1  0  0  0  0
  2  3  1  1  0  0  0
  4  2  1  0  0  0  0
  4  6  2  0  0  0  0
  5  4  1  0  0  0  0
  7  9  1  0  0  0  0
  8  7  2  0  0  0  0
  9 11  1  0  0  0  0
  9 10  2  0  0  0  0
 11 12  1  0  0  0  0
 12 14  1  0  0  0  0
 13 15  1  0  0  0  0
 14 13  2  0  0  0  0
 15 21  1  0  0  0  0
 16 17  1  0  0  0  0
 17 18  1  0  0  0  0
 20 18  2  0  0  0  0
 21 19  1  6  0  0  0
 21 16  1  0  0  0  0
 21 20  1  0  0  0  0
 22 25  1  1  0  0  0
 22  7  1  0  0  0  0
 22 24  1  0  0  0  0
 24 23  1  0  0  0  0
 26 25  1  0  0  0  0
 27 34  1  0  0  0  0
 28 33  1  0  0  0  0
 30 28  1  1  0  0  0
 30 29  1  0  0  0  0
 30 37  1  0  0  0  0
 32 34  2  0  0  0  0
 32 29  1  0  0  0  0
 33 31  1  0  0  0  0
 34 31  1  0  0  0  0
 36 42  1  6  0  0  0
 36 38  1  0  0  0  0
 37 35  1  0  0  0  0
 37 39  1  1  0  0  0
 38 40  1  0  0  0  0
 39 40  1  0  0  0  0
 40 44  1  1  0  0  0
 41 37  1  0  0  0  0
 41 35  1  1  0  0  0
 41 36  1  0  0  0  0
 43 42  2  0  0  0  0
 44 45  1  0  0  0  0
 45 50  1  0  0  0  0
 46 51  1  0  0  0  0
 47 46  1  0  0  0  0
 48 49  2  0  0  0  0
 49 51  1  0  0  0  0
 50 48  1  0  0  0  0
 50 47  2  0  0  0  0
M  END
>  <MODEL>
3

>  <REMARK>
 VINA RESULT:      -5.9      2.255      9.386
  Name = 
  18 active torsions:
  status: ('A' for Active; 'I' for Inactive)
    1  A    between atoms: C_1  and  C_11
    2  A    between atoms: C_1  and  C_14
    3  A    between atoms: C_1  and  N_33
    4  A    between atoms: N_3  and  N_7
    5  A    between atoms: N_3  and  C_44
    6  A    between atoms: N_7  and  C_35
    7  A    between atoms: C_8  and  C_31
    8  A    between atoms: C_10  and  C_23
    9  A    between atoms: C_11  and  C_48
   10  A    between atoms: C_12  and  C_19
   11  A    between atoms: C_14  and  C_27
   12  A    between atoms: C_18  and  C_50
   13  A    between atoms: C_20  and  C_30
   14  A    between atoms: C_20  and  N_41
   15  A    between atoms: N_29  and  C_37
   16  A    between atoms: C_31  and  C_50
   17  A    between atoms: C_37  and  C_46
   18  A    between atoms: O_42  and  C_50
                            x       y       z     vdW  Elec       q    Type
                         _______ _______ _______ _____ _____    ______ ____

>  <TORSDO>
F 18

$$$$
=
 OpenBabel11062412373D

 51 55  0  0  1  0  0  0  0  0999 V2000
  183.0870  176.4410  136.8930 C   0  0  1  0  0  3  0  0  0  0  0  0
  182.9820  174.9100  136.7850 C   0  0  1  0  0  3  0  0  0  0  0  0
  183.7910  174.1530  137.8250 C   0  0  0  0  0  1  0  0  0  0  0  0
  181.5620  174.4450  136.7530 C   0  0  0  0  0  0  0  0  0  0  0  0
  181.2470  173.0580  136.8330 N   0  0  0  0  0  1  0  0  0  0  0  0
  180.6350  175.2880  136.6680 O   0  0  0  0  0  0  0  0  0  0  0  0
  182.9680  177.7700  139.0080 C   0  0  0  0  0  0  0  0  0  0  0  0
  183.5440  176.9170  138.2050 N   0  0  0  0  0  0  0  0  0  0  0  0
  183.6590  178.1030  140.2710 C   0  0  0  0  0  0  0  0  0  0  0  0
  183.1260  177.8320  141.3840 O   0  0  0  0  0  0  0  0  0  0  0  0
  184.9360  178.7500  140.2310 N   0  0  0  0  0  2  0  0  0  0  0  0
  185.6350  179.1870  141.4300 C   0  0  0  0  0  2  0  0  0  0  0  0
  187.4270  177.8960  142.3930 N   0  0  0  0  0  0  0  0  0  0  0  0
  187.0290  178.6540  141.4380 C   0  0  0  0  0  3  0  0  0  0  0  0
  188.7630  177.3580  142.3930 C   0  0  0  0  0  2  0  0  0  0  0  0
  190.1600  176.4030  144.1180 O   0  0  0  0  0  0  0  0  0  0  0  0
  191.4900  176.8120  144.3550 C   0  0  0  0  0  2  0  0  0  0  0  0
  191.5950  178.2450  144.0000 C   0  0  0  0  0  3  0  0  0  0  0  0
  188.4890  177.8580  144.7190 O   0  0  0  0  0  1  0  0  0  0  0  0
  190.4100  178.6770  143.6470 C   0  0  0  0  0  3  0  0  0  0  0  0
  189.4430  177.5600  143.7440 C   0  0  2  0  0  0  0  0  0  0  0  0
  181.6150  178.3690  138.6750 C   0  0  1  0  0  3  0  0  0  0  0  0
  179.4990  177.5910  139.1110 C   0  0  0  0  0  1  0  0  0  0  0  0
  180.6370  178.1840  139.6790 O   0  0  0  0  0  0  0  0  0  0  0  0
  181.6510  179.7710  138.0620 C   0  0  0  0  0  2  0  0  0  0  0  0
  181.0850  179.7420  136.6580 C   0  0  0  0  0  1  0  0  0  0  0  0
  183.8040  177.1140  135.7210 C   0  0  0  0  0  2  0  0  0  0  0  0
  187.0030  175.1170  137.1840 C   0  0  0  0  0  2  0  0  0  0  0  0
  187.4510  177.6650  136.8550 C   0  0  0  0  0  2  0  0  0  0  0  0
  187.9160  176.3320  137.4650 C   0  0  2  0  0  3  0  0  0  0  0  0
  186.0240  176.0310  134.9530 C   0  0  0  0  0  2  0  0  0  0  0  0
  185.9580  177.7630  136.7200 C   0  0  0  0  0  3  0  0  0  0  0  0
  186.6890  174.8640  135.7020 C   0  0  0  0  0  2  0  0  0  0  0  0
  185.2900  177.0000  135.8420 C   0  0  0  0  0  0  0  0  0  0  0  0
  190.0300  177.2040  136.5890 O   0  0  0  0  0  0  0  0  0  0  0  0
  191.8550  176.4840  137.9690 C   0  0  1  0  0  3  0  0  0  0  0  0
  189.4150  176.1070  137.2140 C   0  0  2  0  0  0  0  0  0  0  0  0
  191.9870  174.9770  137.8210 C   0  0  0  0  0  2  0  0  0  0  0  0
  189.8340  174.7610  136.6010 C   0  0  0  0  0  2  0  0  0  0  0  0
  191.3440  174.5590  136.5130 C   0  0  2  0  0  3  0  0  0  0  0  0
  190.3980  176.9710  137.9370 C   0  0  2  0  0  3  0  0  0  0  0  0
  192.5090  176.9130  139.2400 C   0  0  0  0  0  3  0  0  0  0  0  0
  191.8610  177.4740  140.1110 O   0  0  0  0  0  0  0  0  0  0  0  0
  191.6380  173.1580  136.2580 N   0  0  0  0  0  2  0  0  0  0  0  0
  192.9200  173.0980  135.6950 N   0  0  0  0  0  2  0  0  0  0  0  0
  195.7050  171.8090  137.9050 C   0  0  0  0  0  2  0  0  0  0  0  0
  194.6770  172.7020  137.2620 C   0  0  0  0  0  3  0  0  0  0  0  0
  194.1880  170.9110  135.6820 C   0  0  0  0  0  3  0  0  0  0  0  0
  195.3030  170.2460  136.0000 C   0  0  0  0  0  3  0  0  0  0  0  0
  193.9320  172.2560  136.2450 C   0  0  0  0  0  0  0  0  0  0  0  0
  196.3520  170.8920  136.8630 C   0  0  0  0  0  2  0  0  0  0  0  0
  1 27  1  6  0  0  0
  1  8  1  0  0  0  0
  2  1  1  0  0  0  0
  2  3  1  1  0  0  0
  4  2  1  0  0  0  0
  4  5  1  0  0  0  0
  6  4  2  0  0  0  0
  7  9  1  0  0  0  0
  8  7  2  0  0  0  0
  9 10  2  0  0  0  0
 11  9  1  0  0  0  0
 11 12  1  0  0  0  0
 12 14  1  0  0  0  0
 13 15  1  0  0  0  0
 14 13  2  0  0  0  0
 15 21  1  0  0  0  0
 16 17  1  0  0  0  0
 18 17  1  0  0  0  0
 20 21  1  0  0  0  0
 20 18  2  0  0  0  0
 21 16  1  0  0  0  0
 21 19  1  1  0  0  0
 22 25  1  1  0  0  0
 22  7  1  0  0  0  0
 22 24  1  0  0  0  0
 23 24  1  0  0  0  0
 26 25  1  0  0  0  0
 27 34  1  0  0  0  0
 28 30  1  0  0  0  0
 30 29  1  6  0  0  0
 31 33  1  0  0  0  0
 31 34  1  0  0  0  0
 32 29  1  0  0  0  0
 33 28  1  0  0  0  0
 34 32  2  0  0  0  0
 35 37  1  0  0  0  0
 36 42  1  1  0  0  0
 37 39  1  6  0  0  0
 37 30  1  0  0  0  0
 37 41  1  0  0  0  0
 38 36  1  0  0  0  0
 40 44  1  1  0  0  0
 40 39  1  0  0  0  0
 40 38  1  0  0  0  0
 41 35  1  6  0  0  0
 41 36  1  0  0  0  0
 42 43  2  0  0  0  0
 45 50  1  0  0  0  0
 45 44  1  0  0  0  0
 47 46  1  0  0  0  0
 48 49  2  0  0  0  0
 48 50  1  0  0  0  0
 49 51  1  0  0  0  0
 50 47  2  0  0  0  0
 51 46  1  0  0  0  0
M  END
>  <MODEL>
4

>  <REMARK>
 VINA RESULT:      -5.4      3.219      8.740
  Name = 
  18 active torsions:
  status: ('A' for Active; 'I' for Inactive)
    1  A    between atoms: C_1  and  C_11
    2  A    between atoms: C_1  and  C_14
    3  A    between atoms: C_1  and  N_33
    4  A    between atoms: N_3  and  N_7
    5  A    between atoms: N_3  and  C_44
    6  A    between atoms: N_7  and  C_35
    7  A    between atoms: C_8  and  C_31
    8  A    between atoms: C_10  and  C_23
    9  A    between atoms: C_11  and  C_48
   10  A    between atoms: C_12  and  C_19
   11  A    between atoms: C_14  and  C_27
   12  A    between atoms: C_18  and  C_50
   13  A    between atoms: C_20  and  C_30
   14  A    between atoms: C_20  and  N_41
   15  A    between atoms: N_29  and  C_37
   16  A    between atoms: C_31  and  C_50
   17  A    between atoms: C_37  and  C_46
   18  A    between atoms: O_42  and  C_50
                            x       y       z     vdW  Elec       q    Type
                         _______ _______ _______ _____ _____    ______ ____

>  <TORSDO>
F 18

$$$$
=
 OpenBabel11062412373D

 51 55  0  0  1  0  0  0  0  0999 V2000
  182.0620  176.3880  135.7970 C   0  0  1  0  0  3  0  0  0  0  0  0
  180.8480  176.0680  134.9070 C   0  0  1  0  0  3  0  0  0  0  0  0
  180.6730  174.5910  134.5950 C   0  0  0  0  0  1  0  0  0  0  0  0
  179.5860  176.6660  135.4400 C   0  0  0  0  0  0  0  0  0  0  0  0
  179.0730  176.2740  136.7090 N   0  0  0  0  0  1  0  0  0  0  0  0
  178.9790  177.5350  134.7660 O   0  0  0  0  0  0  0  0  0  0  0  0
  183.8860  174.6810  135.8900 C   0  0  0  0  0  0  0  0  0  0  0  0
  183.3030  175.7280  135.3740 N   0  0  0  0  0  0  0  0  0  0  0  0
  185.1570  174.2300  135.2850 C   0  0  0  0  0  0  0  0  0  0  0  0
  185.1990  173.1740  134.5940 O   0  0  0  0  0  0  0  0  0  0  0  0
  186.3510  174.9900  135.4990 N   0  0  0  0  0  2  0  0  0  0  0  0
  187.6540  174.5630  135.0100 C   0  0  0  0  0  2  0  0  0  0  0  0
  188.6540  176.0840  136.5880 N   0  0  0  0  0  0  0  0  0  0  0  0
  188.7070  175.5350  135.4310 C   0  0  0  0  0  3  0  0  0  0  0  0
  189.6810  177.0030  137.0090 C   0  0  0  0  0  2  0  0  0  0  0  0
  187.7210  177.9460  138.0640 O   0  0  0  0  0  0  0  0  0  0  0  0
  187.5520  178.0190  139.4630 C   0  0  0  0  0  2  0  0  0  0  0  0
  188.8920  178.1700  140.0760 C   0  0  0  0  0  3  0  0  0  0  0  0
  189.2620  179.3590  137.1160 O   0  0  0  0  0  1  0  0  0  0  0  0
  189.7820  178.2520  139.1200 C   0  0  0  0  0  3  0  0  0  0  0  0
  189.0940  178.1610  137.8120 C   0  0  2  0  0  0  0  0  0  0  0  0
  183.2600  173.9270  137.0470 C   0  0  1  0  0  3  0  0  0  0  0  0
  181.2070  173.7630  138.0630 C   0  0  0  0  0  1  0  0  0  0  0  0
  181.9000  173.5930  136.8540 O   0  0  0  0  0  0  0  0  0  0  0  0
  184.1180  172.8070  137.6420 C   0  0  0  0  0  2  0  0  0  0  0  0
  183.6450  171.4610  137.1340 C   0  0  0  0  0  1  0  0  0  0  0  0
  182.2440  177.8730  136.1160 C   0  0  0  0  0  2  0  0  0  0  0  0
  183.9420  179.3530  139.4770 C   0  0  0  0  0  2  0  0  0  0  0  0
  182.2750  177.4020  139.9460 C   0  0  0  0  0  2  0  0  0  0  0  0
  183.3920  178.3140  140.4810 C   0  0  2  0  0  3  0  0  0  0  0  0
  181.7690  179.5200  138.0540 C   0  0  0  0  0  2  0  0  0  0  0  0
  182.3730  177.1560  138.4670 C   0  0  0  0  0  3  0  0  0  0  0  0
  182.8820  180.2520  138.8220 C   0  0  0  0  0  2  0  0  0  0  0  0
  182.1450  178.1400  137.5840 C   0  0  0  0  0  0  0  0  0  0  0  0
  182.2090  179.9930  141.8130 O   0  0  0  0  0  0  0  0  0  0  0  0
  181.3430  178.9990  143.8160 C   0  0  1  0  0  3  0  0  0  0  0  0
  183.0360  178.8600  141.8720 C   0  0  2  0  0  0  0  0  0  0  0  0
  182.5230  178.6000  144.6870 C   0  0  0  0  0  2  0  0  0  0  0  0
  184.1820  179.0120  142.8850 C   0  0  0  0  0  2  0  0  0  0  0  0
  183.7280  179.4260  144.2830 C   0  0  2  0  0  3  0  0  0  0  0  0
  181.6080  178.8120  142.3150 C   0  0  2  0  0  3  0  0  0  0  0  0
  180.1420  178.2120  144.2240 C   0  0  0  0  0  3  0  0  0  0  0  0
  179.7240  177.3090  143.5150 O   0  0  0  0  0  0  0  0  0  0  0  0
  184.8050  179.2060  145.2330 N   0  0  0  0  0  2  0  0  0  0  0  0
  185.2820  177.9030  145.0280 N   0  0  0  0  0  2  0  0  0  0  0  0
  188.7500  177.3420  146.4260 C   0  0  0  0  0  2  0  0  0  0  0  0
  187.2990  177.7190  146.2920 C   0  0  0  0  0  3  0  0  0  0  0  0
  187.4370  177.1940  143.9150 C   0  0  0  0  0  3  0  0  0  0  0  0
  188.7740  177.1880  143.9340 C   0  0  0  0  0  3  0  0  0  0  0  0
  186.6730  177.6020  145.1160 C   0  0  0  0  0  0  0  0  0  0  0  0
  189.5180  177.6820  145.1450 C   0  0  0  0  0  2  0  0  0  0  0  0
  1 27  1  6  0  0  0
  2  3  1  1  0  0  0
  2  4  1  0  0  0  0
  2  1  1  0  0  0  0
  4  5  1  0  0  0  0
  6  4  2  0  0  0  0
  7 22  1  0  0  0  0
  8  1  1  0  0  0  0
  8  7  2  0  0  0  0
  9 11  1  0  0  0  0
  9  7  1  0  0  0  0
 10  9  2  0  0  0  0
 12 14  1  0  0  0  0
 12 11  1  0  0  0  0
 13 15  1  0  0  0  0
 14 13  2  0  0  0  0
 15 21  1  0  0  0  0
 16 17  1  0  0  0  0
 17 18  1  0  0  0  0
 20 18  2  0  0  0  0
 21 19  1  6  0  0  0
 21 16  1  0  0  0  0
 21 20  1  0  0  0  0
 22 25  1  6  0  0  0
 24 22  1  0  0  0  0
 24 23  1  0  0  0  0
 26 25  1  0  0  0  0
 27 34  1  0  0  0  0
 29 30  1  0  0  0  0
 30 28  1  6  0  0  0
 30 37  1  0  0  0  0
 31 33  1  0  0  0  0
 32 29  1  0  0  0  0
 33 28  1  0  0  0  0
 34 31  1  0  0  0  0
 34 32  2  0  0  0  0
 35 37  1  0  0  0  0
 36 42  1  1  0  0  0
 36 38  1  0  0  0  0
 37 41  1  0  0  0  0
 37 39  1  1  0  0  0
 39 40  1  0  0  0  0
 40 38  1  0  0  0  0
 40 44  1  1  0  0  0
 41 35  1  6  0  0  0
 41 36  1  0  0  0  0
 43 42  2  0  0  0  0
 45 50  1  0  0  0  0
 45 44  1  0  0  0  0
 47 46  1  0  0  0  0
 48 49  2  0  0  0  0
 48 50  1  0  0  0  0
 49 51  1  0  0  0  0
 50 47  2  0  0  0  0
 51 46  1  0  0  0  0
M  END
>  <MODEL>
5

>  <REMARK>
 VINA RESULT:      -5.2      2.516      8.151
  Name = 
  18 active torsions:
  status: ('A' for Active; 'I' for Inactive)
    1  A    between atoms: C_1  and  C_11
    2  A    between atoms: C_1  and  C_14
    3  A    between atoms: C_1  and  N_33
    4  A    between atoms: N_3  and  N_7
    5  A    between atoms: N_3  and  C_44
    6  A    between atoms: N_7  and  C_35
    7  A    between atoms: C_8  and  C_31
    8  A    between atoms: C_10  and  C_23
    9  A    between atoms: C_11  and  C_48
   10  A    between atoms: C_12  and  C_19
   11  A    between atoms: C_14  and  C_27
   12  A    between atoms: C_18  and  C_50
   13  A    between atoms: C_20  and  C_30
   14  A    between atoms: C_20  and  N_41
   15  A    between atoms: N_29  and  C_37
   16  A    between atoms: C_31  and  C_50
   17  A    between atoms: C_37  and  C_46
   18  A    between atoms: O_42  and  C_50
                            x       y       z     vdW  Elec       q    Type
                         _______ _______ _______ _____ _____    ______ ____

>  <TORSDO>
F 18

$$$$
=
 OpenBabel11062412373D

 51 55  0  0  1  0  0  0  0  0999 V2000
  186.9440  178.6210  143.0130 C   0  0  1  0  0  3  0  0  0  0  0  0
  186.1180  177.7240  143.9510 C   0  0  1  0  0  3  0  0  0  0  0  0
  186.6830  176.3260  144.1390 C   0  0  0  0  0  1  0  0  0  0  0  0
  185.8440  178.3840  145.2640 C   0  0  0  0  0  0  0  0  0  0  0  0
  184.5160  178.7360  145.6400 N   0  0  0  0  0  1  0  0  0  0  0  0
  186.7950  178.6200  146.0490 O   0  0  0  0  0  0  0  0  0  0  0  0
  189.1780  177.5830  142.5800 C   0  0  0  0  0  0  0  0  0  0  0  0
  187.9590  177.8970  142.2360 N   0  0  0  0  0  0  0  0  0  0  0  0
  190.0120  176.8690  141.5910 C   0  0  0  0  0  0  0  0  0  0  0  0
  190.5490  175.7640  141.8840 O   0  0  0  0  0  0  0  0  0  0  0  0
  190.2230  177.4440  140.2960 N   0  0  0  0  0  2  0  0  0  0  0  0
  191.1010  176.8440  139.3030 C   0  0  0  0  0  2  0  0  0  0  0  0
  191.0040  175.0320  137.7190 N   0  0  0  0  0  0  0  0  0  0  0  0
  190.3740  175.7850  138.5430 C   0  0  0  0  0  3  0  0  0  0  0  0
  190.3130  173.9910  137.0020 C   0  0  0  0  0  2  0  0  0  0  0  0
  191.6180  174.7050  135.0970 O   0  0  0  0  0  0  0  0  0  0  0  0
  193.0060  174.4810  134.9800 C   0  0  0  0  0  2  0  0  0  0  0  0
  193.3260  173.2220  135.6910 C   0  0  0  0  0  3  0  0  0  0  0  0
  190.2370  172.8840  134.8800 O   0  0  0  0  0  1  0  0  0  0  0  0
  192.2110  172.6980  136.1360 C   0  0  0  0  0  3  0  0  0  0  0  0
  191.0810  173.5740  135.7510 C   0  0  2  0  0  0  0  0  0  0  0  0
  189.7080  177.9050  143.9640 C   0  0  1  0  0  3  0  0  0  0  0  0
  190.0560  177.2260  146.1290 C   0  0  0  0  0  1  0  0  0  0  0  0
  189.3100  176.9890  144.9640 O   0  0  0  0  0  0  0  0  0  0  0  0
  191.1810  178.3210  144.0220 C   0  0  0  0  0  2  0  0  0  0  0  0
  191.2940  179.8280  144.1160 C   0  0  0  0  0  1  0  0  0  0  0  0
  186.1180  179.5950  142.1710 C   0  0  0  0  0  2  0  0  0  0  0  0
  183.5090  179.7040  139.0800 C   0  0  0  0  0  2  0  0  0  0  0  0
  182.8370  177.9900  140.9270 C   0  0  0  0  0  2  0  0  0  0  0  0
  182.4240  178.7750  139.6710 C   0  0  2  0  0  3  0  0  0  0  0  0
  185.5390  178.3460  139.9810 C   0  0  0  0  0  2  0  0  0  0  0  0
  183.8590  178.7080  141.7620 C   0  0  0  0  0  3  0  0  0  0  0  0
  184.8560  179.0280  138.7830 C   0  0  0  0  0  2  0  0  0  0  0  0
  185.1150  178.8810  141.3230 C   0  0  0  0  0  0  0  0  0  0  0  0
  180.3450  177.7090  138.9420 O   0  0  0  0  0  0  0  0  0  0  0  0
  180.2490  177.6370  136.5470 C   0  0  1  0  0  3  0  0  0  0  0  0
  181.7120  177.8630  138.6620 C   0  0  2  0  0  0  0  0  0  0  0  0
  181.3380  176.6920  136.0640 C   0  0  0  0  0  2  0  0  0  0  0  0
  182.3980  176.5340  138.3050 C   0  0  0  0  0  2  0  0  0  0  0  0
  181.7020  175.7510  137.1950 C   0  0  2  0  0  3  0  0  0  0  0  0
  180.6600  178.4550  137.7800 C   0  0  2  0  0  3  0  0  0  0  0  0
  179.8610  178.5510  135.4330 C   0  0  0  0  0  3  0  0  0  0  0  0
  180.7130  179.0270  134.6980 O   0  0  0  0  0  0  0  0  0  0  0  0
  182.5900  174.7160  136.6930 N   0  0  0  0  0  2  0  0  0  0  0  0
  183.3850  175.2970  135.6950 N   0  0  0  0  0  2  0  0  0  0  0  0
  186.9350  175.2640  136.9980 C   0  0  0  0  0  2  0  0  0  0  0  0
  185.4870  174.9250  136.7650 C   0  0  0  0  0  3  0  0  0  0  0  0
  185.3050  176.9040  135.3540 C   0  0  0  0  0  3  0  0  0  0  0  0
  186.4560  177.4070  135.8100 C   0  0  0  0  0  3  0  0  0  0  0  0
  184.7360  175.6750  135.9510 C   0  0  0  0  0  0  0  0  0  0  0  0
  187.1420  176.7820  136.9940 C   0  0  0  0  0  2  0  0  0  0  0  0
  1 27  1  6  0  0  0
  1  2  1  0  0  0  0
  2  3  1  1  0  0  0
  2  4  1  0  0  0  0
  4  5  1  0  0  0  0
  4  6  2  0  0  0  0
  7 22  1  0  0  0  0
  8  7  2  0  0  0  0
  8  1  1  0  0  0  0
  9 10  2  0  0  0  0
  9  7  1  0  0  0  0
 11  9  1  0  0  0  0
 12 11  1  0  0  0  0
 13 14  2  0  0  0  0
 14 12  1  0  0  0  0
 15 13  1  0  0  0  0
 16 21  1  0  0  0  0
 17 16  1  0  0  0  0
 17 18  1  0  0  0  0
 18 20  2  0  0  0  0
 21 19  1  6  0  0  0
 21 20  1  0  0  0  0
 21 15  1  0  0  0  0
 22 25  1  6  0  0  0
 22 24  1  0  0  0  0
 24 23  1  0  0  0  0
 25 26  1  0  0  0  0
 29 32  1  0  0  0  0
 30 28  1  6  0  0  0
 30 29  1  0  0  0  0
 31 34  1  0  0  0  0
 33 28  1  0  0  0  0
 33 31  1  0  0  0  0
 34 32  2  0  0  0  0
 34 27  1  0  0  0  0
 36 42  1  6  0  0  0
 36 41  1  0  0  0  0
 37 39  1  6  0  0  0
 37 35  1  0  0  0  0
 37 30  1  0  0  0  0
 38 36  1  0  0  0  0
 38 40  1  0  0  0  0
 40 44  1  6  0  0  0
 40 39  1  0  0  0  0
 41 37  1  0  0  0  0
 41 35  1  1  0  0  0
 43 42  2  0  0  0  0
 45 50  1  0  0  0  0
 45 44  1  0  0  0  0
 47 46  1  0  0  0  0
 48 49  2  0  0  0  0
 48 50  1  0  0  0  0
 49 51  1  0  0  0  0
 50 47  2  0  0  0  0
 51 46  1  0  0  0  0
M  END
>  <MODEL>
6

>  <REMARK>
 VINA RESULT:      -5.0      2.022      2.905
  Name = 
  18 active torsions:
  status: ('A' for Active; 'I' for Inactive)
    1  A    between atoms: C_1  and  C_11
    2  A    between atoms: C_1  and  C_14
    3  A    between atoms: C_1  and  N_33
    4  A    between atoms: N_3  and  N_7
    5  A    between atoms: N_3  and  C_44
    6  A    between atoms: N_7  and  C_35
    7  A    between atoms: C_8  and  C_31
    8  A    between atoms: C_10  and  C_23
    9  A    between atoms: C_11  and  C_48
   10  A    between atoms: C_12  and  C_19
   11  A    between atoms: C_14  and  C_27
   12  A    between atoms: C_18  and  C_50
   13  A    between atoms: C_20  and  C_30
   14  A    between atoms: C_20  and  N_41
   15  A    between atoms: N_29  and  C_37
   16  A    between atoms: C_31  and  C_50
   17  A    between atoms: C_37  and  C_46
   18  A    between atoms: O_42  and  C_50
                            x       y       z     vdW  Elec       q    Type
                         _______ _______ _______ _____ _____    ______ ____

>  <TORSDO>
F 18

$$$$
=
 OpenBabel11062412373D

 51 55  0  0  1  0  0  0  0  0999 V2000
  187.3290  178.0590  145.9500 C   0  0  1  0  0  3  0  0  0  0  0  0
  187.6650  177.3280  147.2610 C   0  0  1  0  0  3  0  0  0  0  0  0
  188.5670  176.1170  147.0890 C   0  0  0  0  0  1  0  0  0  0  0  0
  188.1940  178.2590  148.3040 C   0  0  0  0  0  0  0  0  0  0  0  0
  189.5670  178.2270  148.6810 N   0  0  0  0  0  1  0  0  0  0  0  0
  187.4200  179.0870  148.8450 O   0  0  0  0  0  0  0  0  0  0  0  0
  189.0280  177.2490  144.3050 C   0  0  0  0  0  0  0  0  0  0  0  0
  187.8060  177.3700  144.7440 N   0  0  0  0  0  0  0  0  0  0  0  0
  189.2370  176.5230  143.0340 C   0  0  0  0  0  0  0  0  0  0  0  0
  188.8690  175.3210  142.9160 O   0  0  0  0  0  0  0  0  0  0  0  0
  189.8740  177.1850  141.9360 N   0  0  0  0  0  2  0  0  0  0  0  0
  190.1910  176.5090  140.6870 C   0  0  0  0  0  2  0  0  0  0  0  0
  188.7320  177.2840  138.9340 N   0  0  0  0  0  0  0  0  0  0  0  0
  189.8650  177.3890  139.5260 C   0  0  0  0  0  3  0  0  0  0  0  0
  188.4000  178.1480  137.8300 C   0  0  0  0  0  2  0  0  0  0  0  0
  188.8190  176.3490  136.2700 O   0  0  0  0  0  0  0  0  0  0  0  0
  188.1210  175.1230  136.2960 C   0  0  0  0  0  2  0  0  0  0  0  0
  186.7550  175.3870  136.8020 C   0  0  0  0  0  3  0  0  0  0  0  0
  187.6680  178.2000  135.5500 O   0  0  0  0  0  1  0  0  0  0  0  0
  186.6220  176.6750  136.9970 C   0  0  0  0  0  3  0  0  0  0  0  0
  187.8900  177.3490  136.6340 C   0  0  2  0  0  0  0  0  0  0  0  0
  190.2010  177.8020  145.0900 C   0  0  1  0  0  3  0  0  0  0  0  0
  191.6660  176.7140  146.4850 C   0  0  0  0  0  1  0  0  0  0  0  0
  191.3200  176.9400  145.1440 O   0  0  0  0  0  0  0  0  0  0  0  0
  190.5350  179.2730  144.8260 C   0  0  0  0  0  2  0  0  0  0  0  0
  191.7880  179.3800  143.9820 C   0  0  0  0  0  1  0  0  0  0  0  0
  185.8800  178.5380  145.8410 C   0  0  0  0  0  2  0  0  0  0  0  0
  182.9960  178.3470  143.0090 C   0  0  0  0  0  2  0  0  0  0  0  0
  185.4000  178.0480  142.0440 C   0  0  0  0  0  2  0  0  0  0  0  0
  183.8840  177.9330  141.8140 C   0  0  2  0  0  3  0  0  0  0  0  0
  184.7140  180.0000  144.0540 C   0  0  0  0  0  2  0  0  0  0  0  0
  185.7970  177.8500  143.4790 C   0  0  0  0  0  3  0  0  0  0  0  0
  183.2750  179.7480  143.5740 C   0  0  0  0  0  2  0  0  0  0  0  0
  185.4730  178.7520  144.4180 C   0  0  0  0  0  0  0  0  0  0  0  0
  184.5960  178.7920  139.6350 O   0  0  0  0  0  0  0  0  0  0  0  0
  183.0160  178.1640  137.9430 C   0  0  1  0  0  3  0  0  0  0  0  0
  183.4880  178.5290  140.4550 C   0  0  2  0  0  0  0  0  0  0  0  0
  181.7150  178.9000  138.2240 C   0  0  0  0  0  2  0  0  0  0  0  0
  182.4660  179.6780  140.4600 C   0  0  0  0  0  2  0  0  0  0  0  0
  182.0190  180.1210  139.0690 C   0  0  2  0  0  3  0  0  0  0  0  0
  183.7540  177.7310  139.2190 C   0  0  2  0  0  3  0  0  0  0  0  0
  182.7340  176.9750  137.0870 C   0  0  0  0  0  3  0  0  0  0  0  0
  183.2830  175.9070  137.3120 O   0  0  0  0  0  0  0  0  0  0  0  0
  180.8250  180.9430  139.1760 N   0  0  0  0  0  2  0  0  0  0  0  0
  180.3410  181.1440  137.8750 N   0  0  0  0  0  2  0  0  0  0  0  0
  181.5470  184.6240  137.0190 C   0  0  0  0  0  2  0  0  0  0  0  0
  181.1290  183.3960  137.7820 C   0  0  0  0  0  3  0  0  0  0  0  0
  180.4760  182.3700  135.6700 C   0  0  0  0  0  3  0  0  0  0  0  0
  180.5110  183.5400  135.0230 C   0  0  0  0  0  3  0  0  0  0  0  0
  180.6700  182.3190  137.1360 C   0  0  0  0  0  0  0  0  0  0  0  0
  180.6560  184.8260  135.7890 C   0  0  0  0  0  2  0  0  0  0  0  0
  1 27  1  6  0  0  0
  1  2  1  0  0  0  0
  2  3  1  6  0  0  0
  2  4  1  0  0  0  0
  4  5  1  0  0  0  0
  4  6  2  0  0  0  0
  7  8  2  0  0  0  0
  7 22  1  0  0  0  0
  8  1  1  0  0  0  0
  9  7  1  0  0  0  0
 10  9  2  0  0  0  0
 11  9  1  0  0  0  0
 12 11  1  0  0  0  0
 13 14  2  0  0  0  0
 14 12  1  0  0  0  0
 15 13  1  0  0  0  0
 16 17  1  0  0  0  0
 16 21  1  0  0  0  0
 17 18  1  0  0  0  0
 18 20  2  0  0  0  0
 21 19  1  6  0  0  0
 21 20  1  0  0  0  0
 21 15  1  0  0  0  0
 22 25  1  6  0  0  0
 22 24  1  0  0  0  0
 24 23  1  0  0  0  0
 26 25  1  0  0  0  0
 28 33  1  0  0  0  0
 29 32  1  0  0  0  0
 30 29  1  1  0  0  0
 30 28  1  0  0  0  0
 31 34  1  0  0  0  0
 32 34  2  0  0  0  0
 33 31  1  0  0  0  0
 34 27  1  0  0  0  0
 35 37  1  0  0  0  0
 36 42  1  6  0  0  0
 36 38  1  0  0  0  0
 36 41  1  0  0  0  0
 37 39  1  6  0  0  0
 37 30  1  0  0  0  0
 38 40  1  0  0  0  0
 40 44  1  1  0  0  0
 40 39  1  0  0  0  0
 41 35  1  6  0  0  0
 41 37  1  0  0  0  0
 42 43  2  0  0  0  0
 45 44  1  0  0  0  0
 46 47  1  0  0  0  0
 48 50  1  0  0  0  0
 49 48  2  0  0  0  0
 49 51  1  0  0  0  0
 50 47  2  0  0  0  0
 50 45  1  0  0  0  0
 51 46  1  0  0  0  0
M  END
>  <MODEL>
7

>  <REMARK>
 VINA RESULT:      -5.0      2.962      5.231
  Name = 
  18 active torsions:
  status: ('A' for Active; 'I' for Inactive)
    1  A    between atoms: C_1  and  C_11
    2  A    between atoms: C_1  and  C_14
    3  A    between atoms: C_1  and  N_33
    4  A    between atoms: N_3  and  N_7
    5  A    between atoms: N_3  and  C_44
    6  A    between atoms: N_7  and  C_35
    7  A    between atoms: C_8  and  C_31
    8  A    between atoms: C_10  and  C_23
    9  A    between atoms: C_11  and  C_48
   10  A    between atoms: C_12  and  C_19
   11  A    between atoms: C_14  and  C_27
   12  A    between atoms: C_18  and  C_50
   13  A    between atoms: C_20  and  C_30
   14  A    between atoms: C_20  and  N_41
   15  A    between atoms: N_29  and  C_37
   16  A    between atoms: C_31  and  C_50
   17  A    between atoms: C_37  and  C_46
   18  A    between atoms: O_42  and  C_50
                            x       y       z     vdW  Elec       q    Type
                         _______ _______ _______ _____ _____    ______ ____

>  <TORSDO>
F 18

$$$$
=
 OpenBabel11062412373D

 51 55  0  0  1  0  0  0  0  0999 V2000
  187.0640  178.4580  144.6180 C   0  0  1  0  0  3  0  0  0  0  0  0
  186.2920  177.6490  145.6760 C   0  0  1  0  0  3  0  0  0  0  0  0
  187.1660  176.7530  146.5370 C   0  0  0  0  0  1  0  0  0  0  0  0
  185.4070  178.5160  146.5120 C   0  0  0  0  0  0  0  0  0  0  0  0
  185.9410  179.2770  147.5910 N   0  0  0  0  0  1  0  0  0  0  0  0
  184.1810  178.5840  146.2500 O   0  0  0  0  0  0  0  0  0  0  0  0
  189.1780  177.3560  143.8660 C   0  0  0  0  0  0  0  0  0  0  0  0
  187.9100  177.6390  143.7410 N   0  0  0  0  0  0  0  0  0  0  0  0
  189.8060  176.5240  142.8180 C   0  0  0  0  0  0  0  0  0  0  0  0
  190.1570  175.3370  143.0670 O   0  0  0  0  0  0  0  0  0  0  0  0
  190.0290  177.0750  141.5150 N   0  0  0  0  0  2  0  0  0  0  0  0
  190.7200  176.3480  140.4610 C   0  0  0  0  0  2  0  0  0  0  0  0
  189.4610  177.7520  138.9620 N   0  0  0  0  0  0  0  0  0  0  0  0
  190.4910  177.0100  139.1420 C   0  0  0  0  0  3  0  0  0  0  0  0
  189.2480  178.4140  137.7000 C   0  0  0  0  0  2  0  0  0  0  0  0
  187.7740  176.5170  137.4280 O   0  0  0  0  0  0  0  0  0  0  0  0
  186.4200  176.6350  137.0480 C   0  0  0  0  0  2  0  0  0  0  0  0
  186.2940  177.8260  136.1780 C   0  0  0  0  0  3  0  0  0  0  0  0
  189.3580  176.9350  135.8190 O   0  0  0  0  0  1  0  0  0  0  0  0
  187.4840  178.3380  135.9940 C   0  0  0  0  0  3  0  0  0  0  0  0
  188.4770  177.5220  136.7290 C   0  0  2  0  0  0  0  0  0  0  0  0
  189.9730  177.8320  145.0660 C   0  0  1  0  0  3  0  0  0  0  0  0
  191.3780  176.7310  146.5110 C   0  0  0  0  0  1  0  0  0  0  0  0
  190.0390  176.8970  146.1250 O   0  0  0  0  0  0  0  0  0  0  0  0
  191.2960  178.5310  144.7430 C   0  0  0  0  0  2  0  0  0  0  0  0
  191.0770  179.6050  143.6980 C   0  0  0  0  0  1  0  0  0  0  0  0
  186.2190  179.4830  143.8590 C   0  0  0  0  0  2  0  0  0  0  0  0
  184.0870  179.5260  140.4200 C   0  0  0  0  0  2  0  0  0  0  0  0
  182.8670  178.2910  142.3660 C   0  0  0  0  0  2  0  0  0  0  0  0
  182.7760  178.9140  140.9630 C   0  0  2  0  0  3  0  0  0  0  0  0
  185.6820  178.0050  141.8050 C   0  0  0  0  0  2  0  0  0  0  0  0
  183.8980  178.9490  143.2380 C   0  0  0  0  0  3  0  0  0  0  0  0
  185.3010  178.5840  140.4330 C   0  0  0  0  0  2  0  0  0  0  0  0
  185.2080  178.8230  142.9770 C   0  0  0  0  0  0  0  0  0  0  0  0
  180.9930  177.2720  140.6220 O   0  0  0  0  0  0  0  0  0  0  0  0
  179.9910  177.5760  138.4650 C   0  0  1  0  0  3  0  0  0  0  0  0
  182.0290  177.9830  139.9960 C   0  0  2  0  0  0  0  0  0  0  0  0
  181.0290  177.2190  137.4130 C   0  0  0  0  0  2  0  0  0  0  0  0
  182.8790  177.1020  139.0660 C   0  0  0  0  0  2  0  0  0  0  0  0
  182.0680  176.3130  138.0420 C   0  0  2  0  0  3  0  0  0  0  0  0
  180.5910  178.2670  139.6980 C   0  0  2  0  0  3  0  0  0  0  0  0
  178.9460  178.4470  137.8490 C   0  0  0  0  0  3  0  0  0  0  0  0
  179.1550  179.6380  137.6790 O   0  0  0  0  0  0  0  0  0  0  0  0
  182.9500  175.7990  137.0080 N   0  0  0  0  0  2  0  0  0  0  0  0
  183.4930  174.5960  137.4830 N   0  0  0  0  0  2  0  0  0  0  0  0
  183.0830  170.9510  136.5650 C   0  0  0  0  0  2  0  0  0  0  0  0
  183.6810  172.3050  136.8390 C   0  0  0  0  0  3  0  0  0  0  0  0
  181.4270  173.1770  137.1610 C   0  0  0  0  0  3  0  0  0  0  0  0
  180.8670  172.1010  136.5960 C   0  0  0  0  0  3  0  0  0  0  0  0
  182.8980  173.3390  137.1650 C   0  0  0  0  0  0  0  0  0  0  0  0
  181.7200  171.0890  135.8800 C   0  0  0  0  0  2  0  0  0  0  0  0
  1 27  1  6  0  0  0
  1  2  1  0  0  0  0
  2  4  1  0  0  0  0
  2  3  1  1  0  0  0
  4  5  1  0  0  0  0
  6  4  2  0  0  0  0
  7 22  1  0  0  0  0
  8  7  2  0  0  0  0
  8  1  1  0  0  0  0
  9 10  2  0  0  0  0
  9  7  1  0  0  0  0
 11  9  1  0  0  0  0
 12 11  1  0  0  0  0
 13 14  2  0  0  0  0
 14 12  1  0  0  0  0
 15 13  1  0  0  0  0
 17 16  1  0  0  0  0
 18 17  1  0  0  0  0
 20 18  2  0  0  0  0
 20 21  1  0  0  0  0
 21 19  1  6  0  0  0
 21 16  1  0  0  0  0
 21 15  1  0  0  0  0
 22 25  1  6  0  0  0
 22 24  1  0  0  0  0
 24 23  1  0  0  0  0
 26 25  1  0  0  0  0
 28 33  1  0  0  0  0
 29 32  1  0  0  0  0
 30 28  1  6  0  0  0
 30 29  1  0  0  0  0
 31 34  1  0  0  0  0
 33 31  1  0  0  0  0
 34 32  2  0  0  0  0
 34 27  1  0  0  0  0
 36 42  1  6  0  0  0
 36 41  1  0  0  0  0
 37 39  1  6  0  0  0
 37 35  1  0  0  0  0
 37 30  1  0  0  0  0
 38 40  1  0  0  0  0
 38 36  1  0  0  0  0
 40 44  1  6  0  0  0
 40 39  1  0  0  0  0
 41 37  1  0  0  0  0
 41 35  1  1  0  0  0
 43 42  2  0  0  0  0
 44 45  1  0  0  0  0
 46 47  1  0  0  0  0
 47 50  2  0  0  0  0
 48 50  1  0  0  0  0
 49 48  2  0  0  0  0
 50 45  1  0  0  0  0
 51 46  1  0  0  0  0
 51 49  1  0  0  0  0
M  END
>  <MODEL>
8

>  <REMARK>
 VINA RESULT:      -4.8      1.706      2.311
  Name = 
  18 active torsions:
  status: ('A' for Active; 'I' for Inactive)
    1  A    between atoms: C_1  and  C_11
    2  A    between atoms: C_1  and  C_14
    3  A    between atoms: C_1  and  N_33
    4  A    between atoms: N_3  and  N_7
    5  A    between atoms: N_3  and  C_44
    6  A    between atoms: N_7  and  C_35
    7  A    between atoms: C_8  and  C_31
    8  A    between atoms: C_10  and  C_23
    9  A    between atoms: C_11  and  C_48
   10  A    between atoms: C_12  and  C_19
   11  A    between atoms: C_14  and  C_27
   12  A    between atoms: C_18  and  C_50
   13  A    between atoms: C_20  and  C_30
   14  A    between atoms: C_20  and  N_41
   15  A    between atoms: N_29  and  C_37
   16  A    between atoms: C_31  and  C_50
   17  A    between atoms: C_37  and  C_46
   18  A    between atoms: O_42  and  C_50
                            x       y       z     vdW  Elec       q    Type
                         _______ _______ _______ _____ _____    ______ ____

>  <TORSDO>
F 18

$$$$
=
 OpenBabel11062412373D

 51 55  0  0  1  0  0  0  0  0999 V2000
  188.5180  176.8010  138.4700 C   0  0  1  0  0  3  0  0  0  0  0  0
  188.9410  176.1810  137.1270 C   0  0  1  0  0  3  0  0  0  0  0  0
  190.2910  176.6570  136.6160 C   0  0  0  0  0  1  0  0  0  0  0  0
  188.8590  174.6880  137.1460 C   0  0  0  0  0  0  0  0  0  0  0  0
  189.9850  173.9010  137.5230 N   0  0  0  0  0  1  0  0  0  0  0  0
  187.7810  174.1230  136.8370 O   0  0  0  0  0  0  0  0  0  0  0  0
  189.4280  176.9940  140.7900 C   0  0  0  0  0  0  0  0  0  0  0  0
  189.5310  176.6860  139.5260 N   0  0  0  0  0  0  0  0  0  0  0  0
  190.6190  176.8060  141.6450 C   0  0  0  0  0  0  0  0  0  0  0  0
  191.7140  177.3610  141.3500 O   0  0  0  0  0  0  0  0  0  0  0  0
  190.5310  175.9770  142.8100 N   0  0  0  0  0  2  0  0  0  0  0  0
  191.6800  175.6750  143.6500 C   0  0  0  0  0  2  0  0  0  0  0  0
  190.5820  177.1810  145.1760 N   0  0  0  0  0  0  0  0  0  0  0  0
  191.5830  176.4140  144.9430 C   0  0  0  0  0  3  0  0  0  0  0  0
  190.4690  177.8770  146.4320 C   0  0  0  0  0  2  0  0  0  0  0  0
  189.0210  178.2190  148.3370 O   0  0  0  0  0  0  0  0  0  0  0  0
  187.6680  178.6040  148.2240 C   0  0  0  0  0  2  0  0  0  0  0  0
  187.1400  178.0430  146.9590 C   0  0  0  0  0  3  0  0  0  0  0  0
  189.5600  176.0740  147.7210 O   0  0  0  0  0  1  0  0  0  0  0  0
  188.0780  177.3230  146.3970 C   0  0  0  0  0  3  0  0  0  0  0  0
  189.2880  177.3590  147.2490 C   0  0  2  0  0  0  0  0  0  0  0  0
  188.1190  177.4910  141.3720 C   0  0  1  0  0  3  0  0  0  0  0  0
  186.6080  177.4260  143.1000 C   0  0  0  0  0  1  0  0  0  0  0  0
  187.6380  176.7220  142.4560 O   0  0  0  0  0  0  0  0  0  0  0  0
  188.0190  179.0060  141.5640 C   0  0  0  0  0  2  0  0  0  0  0  0
  189.0760  179.4790  142.5400 C   0  0  0  0  0  1  0  0  0  0  0  0
  187.9110  178.2020  138.3620 C   0  0  0  0  0  2  0  0  0  0  0  0
  184.2500  177.5400  139.9510 C   0  0  0  0  0  2  0  0  0  0  0  0
  184.3700  177.0080  137.4010 C   0  0  0  0  0  2  0  0  0  0  0  0
  183.5870  176.8850  138.7190 C   0  0  2  0  0  3  0  0  0  0  0  0
  185.5940  179.3230  138.6130 C   0  0  0  0  0  2  0  0  0  0  0  0
  185.8570  177.0780  137.6030 C   0  0  0  0  0  3  0  0  0  0  0  0
  184.6370  179.0170  139.7770 C   0  0  0  0  0  2  0  0  0  0  0  0
  186.4290  178.1500  138.1720 C   0  0  0  0  0  0  0  0  0  0  0  0
  181.3010  176.0740  138.3850 O   0  0  0  0  0  0  0  0  0  0  0  0
  179.7440  177.5030  139.5190 C   0  0  1  0  0  3  0  0  0  0  0  0
  182.1030  177.2200  138.5080 C   0  0  2  0  0  0  0  0  0  0  0  0
  179.7610  178.8560  138.8260 C   0  0  0  0  0  2  0  0  0  0  0  0
  181.7630  178.2980  137.4660 C   0  0  0  0  0  2  0  0  0  0  0  0
  180.2840  178.6730  137.4150 C   0  0  2  0  0  3  0  0  0  0  0  0
  181.1240  176.8310  139.5700 C   0  0  2  0  0  3  0  0  0  0  0  0
  179.2040  177.6650  140.9010 C   0  0  0  0  0  3  0  0  0  0  0  0
  179.0950  176.6980  141.6400 O   0  0  0  0  0  0  0  0  0  0  0  0
  180.1180  179.9130  136.6750 N   0  0  0  0  0  2  0  0  0  0  0  0
  180.9070  180.8850  137.3060 N   0  0  0  0  0  2  0  0  0  0  0  0
  181.4400  184.6240  137.1210 C   0  0  0  0  0  2  0  0  0  0  0  0
  181.2870  183.2180  137.6380 C   0  0  0  0  0  3  0  0  0  0  0  0
  180.7000  182.5080  135.3810 C   0  0  0  0  0  3  0  0  0  0  0  0
  180.4930  183.7660  134.9760 C   0  0  0  0  0  3  0  0  0  0  0  0
  180.9840  182.2180  136.8040 C   0  0  0  0  0  0  0  0  0  0  0  0
  180.4580  184.8890  135.9760 C   0  0  0  0  0  2  0  0  0  0  0  0
  1 27  1  6  0  0  0
  1  8  1  0  0  0  0
  2  3  1  1  0  0  0
  2  4  1  0  0  0  0
  2  1  1  0  0  0  0
  4  5  1  0  0  0  0
  6  4  2  0  0  0  0
  7 22  1  0  0  0  0
  7  9  1  0  0  0  0
  8  7  2  0  0  0  0
  9 11  1  0  0  0  0
 10  9  2  0  0  0  0
 11 12  1  0  0  0  0
 12 14  1  0  0  0  0
 13 15  1  0  0  0  0
 14 13  2  0  0  0  0
 15 21  1  0  0  0  0
 17 16  1  0  0  0  0
 18 17  1  0  0  0  0
 20 18  2  0  0  0  0
 20 21  1  0  0  0  0
 21 19  1  1  0  0  0
 21 16  1  0  0  0  0
 22 25  1  1  0  0  0
 22 24  1  0  0  0  0
 24 23  1  0  0  0  0
 25 26  1  0  0  0  0
 29 32  1  0  0  0  0
 30 29  1  6  0  0  0
 30 28  1  0  0  0  0
 31 33  1  0  0  0  0
 32 34  2  0  0  0  0
 33 28  1  0  0  0  0
 34 27  1  0  0  0  0
 34 31  1  0  0  0  0
 35 37  1  0  0  0  0
 36 41  1  0  0  0  0
 36 42  1  1  0  0  0
 37 39  1  6  0  0  0
 37 30  1  0  0  0  0
 37 41  1  0  0  0  0
 38 36  1  0  0  0  0
 40 44  1  6  0  0  0
 40 39  1  0  0  0  0
 40 38  1  0  0  0  0
 41 35  1  6  0  0  0
 42 43  2  0  0  0  0
 44 45  1  0  0  0  0
 46 47  1  0  0  0  0
 48 50  1  0  0  0  0
 49 48  2  0  0  0  0
 49 51  1  0  0  0  0
 50 45  1  0  0  0  0
 50 47  2  0  0  0  0
 51 46  1  0  0  0  0
M  END
>  <MODEL>
9

>  <REMARK>
 VINA RESULT:      -4.7      3.056      7.552
  Name = 
  18 active torsions:
  status: ('A' for Active; 'I' for Inactive)
    1  A    between atoms: C_1  and  C_11
    2  A    between atoms: C_1  and  C_14
    3  A    between atoms: C_1  and  N_33
    4  A    between atoms: N_3  and  N_7
    5  A    between atoms: N_3  and  C_44
    6  A    between atoms: N_7  and  C_35
    7  A    between atoms: C_8  and  C_31
    8  A    between atoms: C_10  and  C_23
    9  A    between atoms: C_11  and  C_48
   10  A    between atoms: C_12  and  C_19
   11  A    between atoms: C_14  and  C_27
   12  A    between atoms: C_18  and  C_50
   13  A    between atoms: C_20  and  C_30
   14  A    between atoms: C_20  and  N_41
   15  A    between atoms: N_29  and  C_37
   16  A    between atoms: C_31  and  C_50
   17  A    between atoms: C_37  and  C_46
   18  A    between atoms: O_42  and  C_50
                            x       y       z     vdW  Elec       q    Type
                         _______ _______ _______ _____ _____    ______ ____

>  <TORSDO>
F 18

$$$$
