=
 OpenBabel11062413123D

 42 47  0  0  1  0  0  0  0  0999 V2000
  194.5390  173.2900  135.5650 C   0  0  1  0  0  0  0  0  0  0  0  0
  192.5170  176.6790  139.1030 C   0  0  0  0  0  3  0  0  0  0  0  0
  194.7040  172.5310  137.9140 C   0  0  0  0  0  2  0  0  0  0  0  0
  194.9570  174.4480  136.4860 C   0  0  2  0  0  3  0  0  0  0  0  0
  193.9620  176.7900  137.1030 C   0  0  0  0  0  2  0  0  0  0  0  0
  190.3190  175.7520  139.0980 N   0  0  0  0  0  0  0  0  0  0  0  0
  195.6470  176.5280  135.2910 C   0  0  0  0  0  1  0  0  0  0  0  0
  193.2710  173.5590  134.7290 C   0  0  0  0  0  2  0  0  0  0  0  0
  195.6860  173.0420  134.5940 C   0  0  0  0  0  1  0  0  0  0  0  0
  190.4270  175.4390  137.7810 C   0  0  0  0  0  3  0  0  0  0  0  0
  191.7060  175.3070  135.6400 C   0  0  2  0  0  3  0  0  0  0  0  0
  194.2840  172.1040  136.5180 C   0  0  2  0  0  3  0  0  0  0  0  0
  191.5920  175.7470  137.0670 C   0  0  0  0  0  0  0  0  0  0  0  0
  190.8670  172.9610  135.0560 C   0  0  0  0  0  1  0  0  0  0  0  0
  190.5710  175.6660  134.9020 O   0  0  0  0  0  1  0  0  0  0  0  0
  194.6150  174.0390  137.9100 C   0  0  0  0  0  2  0  0  0  0  0  0
  194.5100  175.8500  136.0250 C   0  0  1  0  0  3  0  0  0  0  0  0
  192.0220  173.8070  135.5690 C   0  0  1  0  0  3  0  0  0  0  0  0
  191.3270  176.3660  139.7700 C   0  0  0  0  0  0  0  0  0  0  0  0
  192.6680  176.3640  137.7500 C   0  0  0  0  0  0  0  0  0  0  0  0
  189.7620  177.1500  143.9580 C   0  0  2  0  0  3  0  0  0  0  0  0
  190.2250  178.4410  143.4480 N   0  0  0  0  0  2  0  0  0  0  0  0
  189.8150  176.5500  141.6020 O   0  0  0  0  0  0  0  0  0  0  0  0
  189.8440  176.0330  142.9030 C   0  0  0  0  0  2  0  0  0  0  0  0
  191.6220  178.3360  143.0450 C   0  0  0  0  0  2  0  0  0  0  0  0
  191.7050  178.0530  141.5480 C   0  0  0  0  0  2  0  0  0  0  0  0
  191.1630  176.6610  141.2260 C   0  0  2  0  0  3  0  0  0  0  0  0
  188.3890  177.2870  144.4250 N   0  0  0  0  0  2  0  0  0  0  0  0
  186.4410  178.4500  147.3700 N   0  0  0  0  0  0  0  0  0  0  0  0
  188.9580  177.5080  146.8010 C   0  0  0  0  0  3  0  0  0  0  0  0
  186.7340  178.1490  146.0720 C   0  0  0  0  0  0  0  0  0  0  0  0
  188.0270  177.6530  145.7640 C   0  0  0  0  0  0  0  0  0  0  0  0
  188.6200  177.8350  148.1110 C   0  0  0  0  0  3  0  0  0  0  0  0
  187.3390  178.3080  148.3790 C   0  0  0  0  0  3  0  0  0  0  0  0
  185.6680  178.3540  145.0510 C   0  0  0  0  0  0  0  0  0  0  0  0
  183.4000  179.0720  144.5180 C   0  0  0  0  0  3  0  0  0  0  0  0
  185.8770  178.0900  143.6860 C   0  0  0  0  0  3  0  0  0  0  0  0
  184.4170  178.8530  145.4520 C   0  0  0  0  0  3  0  0  0  0  0  0
  184.8620  178.3080  142.7510 C   0  0  0  0  0  3  0  0  0  0  0  0
  183.6220  178.7970  143.1670 C   0  0  0  0  0  3  0  0  0  0  0  0
  194.8460  170.7360  136.1190 C   0  0  0  0  0  2  0  0  0  0  0  0
  194.4000  169.7360  136.9860 O   0  0  0  0  0  1  0  0  0  0  0  0
  1  9  1  6  0  0  0
  1  4  1  0  0  0  0
  1 12  1  0  0  0  0
  2 19  1  0  0  0  0
  4 16  1  1  0  0  0
  5 20  1  0  0  0  0
  6 19  2  0  0  0  0
  8  1  1  0  0  0  0
  8 18  1  0  0  0  0
 10  6  1  0  0  0  0
 11 15  1  6  0  0  0
 11 13  1  0  0  0  0
 12 41  1  6  0  0  0
 12  3  1  0  0  0  0
 13 20  1  0  0  0  0
 13 10  2  0  0  0  0
 16  3  1  0  0  0  0
 17  7  1  1  0  0  0
 17  4  1  0  0  0  0
 17  5  1  0  0  0  0
 18 14  1  6  0  0  0
 18 11  1  0  0  0  0
 20  2  2  0  0  0  0
 21 28  1  6  0  0  0
 22 21  1  0  0  0  0
 23 24  1  0  0  0  0
 24 21  1  0  0  0  0
 25 22  1  0  0  0  0
 26 25  1  0  0  0  0
 27 19  1  6  0  0  0
 27 26  1  0  0  0  0
 27 23  1  0  0  0  0
 28 32  1  0  0  0  0
 29 34  1  0  0  0  0
 30 33  1  0  0  0  0
 31 29  2  0  0  0  0
 32 31  1  0  0  0  0
 32 30  2  0  0  0  0
 33 34  2  0  0  0  0
 35 38  1  0  0  0  0
 35 31  1  0  0  0  0
 36 38  2  0  0  0  0
 37 35  2  0  0  0  0
 39 40  2  0  0  0  0
 39 37  1  0  0  0  0
 40 36  1  0  0  0  0
 41 42  1  0  0  0  0
M  END
>  <MODEL>
1

>  <REMARK>
 VINA RESULT:      -9.7      0.000      0.000
  Name = 
  5 active torsions:
  status: ('A' for Active; 'I' for Inactive)
    1  A    between atoms: C_6  and  N_33
    2  A    between atoms: C_10  and  C_25
    3  A    between atoms: C_15  and  C_28
    4  A    between atoms: C_26  and  N_33
    5  A    between atoms: C_37  and  C_41
                            x       y       z     vdW  Elec       q    Type
                         _______ _______ _______ _____ _____    ______ ____

>  <TORSDO>
F 5

$$$$
=
 OpenBabel11062413123D

 42 47  0  0  1  0  0  0  0  0999 V2000
  182.1810  174.5120  136.0290 C   0  0  1  0  0  0  0  0  0  0  0  0
  183.2100  178.3920  139.4920 C   0  0  0  0  0  3  0  0  0  0  0  0
  183.7750  173.8880  137.8160 C   0  0  0  0  0  2  0  0  0  0  0  0
  183.1840  175.6490  136.2900 C   0  0  2  0  0  3  0  0  0  0  0  0
  183.0110  178.1510  137.0410 C   0  0  0  0  0  2  0  0  0  0  0  0
  181.4740  177.8150  141.0240 N   0  0  0  0  0  0  0  0  0  0  0  0
  183.0880  177.5170  134.6370 C   0  0  0  0  0  1  0  0  0  0  0  0
  180.6990  174.9200  136.1630 C   0  0  0  0  0  2  0  0  0  0  0  0
  182.3980  174.0290  134.6020 C   0  0  0  0  0  1  0  0  0  0  0  0
  180.6760  177.4060  140.0050 C   0  0  0  0  0  3  0  0  0  0  0  0
  180.2410  176.9420  137.5890 C   0  0  2  0  0  3  0  0  0  0  0  0
  182.5180  173.4430  137.0890 C   0  0  2  0  0  3  0  0  0  0  0  0
  181.1160  177.4850  138.6770 C   0  0  0  0  0  0  0  0  0  0  0  0
  179.0490  174.7210  138.0290 C   0  0  0  0  0  1  0  0  0  0  0  0
  178.9310  177.4240  137.6990 O   0  0  0  0  0  1  0  0  0  0  0  0
  183.8200  175.3890  137.6450 C   0  0  0  0  0  2  0  0  0  0  0  0
  182.6530  177.0700  136.0160 C   0  0  1  0  0  3  0  0  0  0  0  0
  180.3200  175.4100  137.5560 C   0  0  1  0  0  3  0  0  0  0  0  0
  182.7200  178.3090  140.8000 C   0  0  0  0  0  0  0  0  0  0  0  0
  182.4210  177.9710  138.4190 C   0  0  0  0  0  0  0  0  0  0  0  0
  185.7580  178.5730  144.1620 C   0  0  2  0  0  3  0  0  0  0  0  0
  184.4590  178.3640  144.8030 N   0  0  0  0  0  2  0  0  0  0  0  0
  184.5710  177.7670  142.1980 O   0  0  0  0  0  0  0  0  0  0  0  0
  185.6780  178.5120  142.6270 C   0  0  0  0  0  2  0  0  0  0  0  0
  183.5310  179.4070  144.3820 C   0  0  0  0  0  2  0  0  0  0  0  0
  182.6960  178.9090  143.2060 C   0  0  0  0  0  2  0  0  0  0  0  0
  183.5640  178.7170  141.9630 C   0  0  2  0  0  3  0  0  0  0  0  0
  186.6950  177.5680  144.6470 N   0  0  0  0  0  2  0  0  0  0  0  0
  189.5900  177.8430  146.9620 N   0  0  0  0  0  0  0  0  0  0  0  0
  186.8460  177.9050  147.0730 C   0  0  0  0  0  3  0  0  0  0  0  0
  188.8990  177.6720  145.7990 C   0  0  0  0  0  0  0  0  0  0  0  0
  187.4810  177.7090  145.8390 C   0  0  0  0  0  0  0  0  0  0  0  0
  187.5900  178.0680  148.2370 C   0  0  0  0  0  3  0  0  0  0  0  0
  188.9800  178.0370  148.1590 C   0  0  0  0  0  3  0  0  0  0  0  0
  189.6800  177.4600  144.5480 C   0  0  0  0  0  0  0  0  0  0  0  0
  190.1860  176.0630  142.6160 C   0  0  0  0  0  3  0  0  0  0  0  0
  190.5970  178.4110  144.0680 C   0  0  0  0  0  3  0  0  0  0  0  0
  189.4810  176.2860  143.8020 C   0  0  0  0  0  3  0  0  0  0  0  0
  191.3040  178.1900  142.8820 C   0  0  0  0  0  3  0  0  0  0  0  0
  191.1000  177.0150  142.1570 C   0  0  0  0  0  3  0  0  0  0  0  0
  182.5800  171.9820  136.6330 C   0  0  0  0  0  2  0  0  0  0  0  0
  181.3040  171.4180  136.5760 O   0  0  0  0  0  1  0  0  0  0  0  0
  1  9  1  6  0  0  0
  1  8  1  0  0  0  0
  1  4  1  0  0  0  0
  1 12  1  0  0  0  0
  2 19  1  0  0  0  0
  4 16  1  1  0  0  0
  5 20  1  0  0  0  0
  8 18  1  0  0  0  0
 10  6  1  0  0  0  0
 11 15  1  1  0  0  0
 11 13  1  0  0  0  0
 12 41  1  6  0  0  0
 12  3  1  0  0  0  0
 13 10  2  0  0  0  0
 16  3  1  0  0  0  0
 17  7  1  6  0  0  0
 17  4  1  0  0  0  0
 17  5  1  0  0  0  0
 18 11  1  0  0  0  0
 18 14  1  6  0  0  0
 19  6  2  0  0  0  0
 20 13  1  0  0  0  0
 20  2  2  0  0  0  0
 21 28  1  1  0  0  0
 21 22  1  0  0  0  0
 23 24  1  0  0  0  0
 24 21  1  0  0  0  0
 25 22  1  0  0  0  0
 26 25  1  0  0  0  0
 27 19  1  6  0  0  0
 27 23  1  0  0  0  0
 27 26  1  0  0  0  0
 28 32  1  0  0  0  0
 29 34  1  0  0  0  0
 30 33  1  0  0  0  0
 31 32  1  0  0  0  0
 31 29  2  0  0  0  0
 32 30  2  0  0  0  0
 34 33  2  0  0  0  0
 35 31  1  0  0  0  0
 36 38  1  0  0  0  0
 37 35  1  0  0  0  0
 38 35  2  0  0  0  0
 39 37  2  0  0  0  0
 40 36  2  0  0  0  0
 40 39  1  0  0  0  0
 42 41  1  0  0  0  0
M  END
>  <MODEL>
2

>  <REMARK>
 VINA RESULT:      -9.4      5.599      9.141
  Name = 
  5 active torsions:
  status: ('A' for Active; 'I' for Inactive)
    1  A    between atoms: C_6  and  N_33
    2  A    between atoms: C_10  and  C_25
    3  A    between atoms: C_15  and  C_28
    4  A    between atoms: C_26  and  N_33
    5  A    between atoms: C_37  and  C_41
                            x       y       z     vdW  Elec       q    Type
                         _______ _______ _______ _____ _____    ______ ____

>  <TORSDO>
F 5

$$$$
=
 OpenBabel11062413123D

 42 47  0  0  1  0  0  0  0  0999 V2000
  179.9110  176.9560  138.3710 C   0  0  1  0  0  0  0  0  0  0  0  0
  184.6420  178.6380  140.0680 C   0  0  0  0  0  3  0  0  0  0  0  0
  181.5910  175.1620  138.6480 C   0  0  0  0  0  2  0  0  0  0  0  0
  181.2820  177.4040  137.8390 C   0  0  2  0  0  3  0  0  0  0  0  0
  182.9580  179.3360  138.4010 C   0  0  0  0  0  2  0  0  0  0  0  0
  184.1740  178.3740  142.3930 N   0  0  0  0  0  0  0  0  0  0  0  0
  181.2580  179.5710  136.6010 C   0  0  0  0  0  1  0  0  0  0  0  0
  179.3060  177.8810  139.4480 C   0  0  0  0  0  2  0  0  0  0  0  0
  178.9480  176.9330  137.1920 C   0  0  0  0  0  1  0  0  0  0  0  0
  182.8730  178.7050  142.1940 C   0  0  0  0  0  3  0  0  0  0  0  0
  180.9460  179.3040  140.7200 C   0  0  2  0  0  3  0  0  0  0  0  0
  180.1630  175.5590  138.9760 C   0  0  2  0  0  3  0  0  0  0  0  0
  182.4060  179.0290  140.9120 C   0  0  0  0  0  0  0  0  0  0  0  0
  179.2870  177.7870  141.9460 C   0  0  0  0  0  1  0  0  0  0  0  0
  180.4710  180.2260  141.6610 O   0  0  0  0  0  1  0  0  0  0  0  0
  182.3230  176.4640  138.4260 C   0  0  0  0  0  2  0  0  0  0  0  0
  181.5610  178.9170  137.9320 C   0  0  1  0  0  3  0  0  0  0  0  0
  180.1530  177.9890  140.7110 C   0  0  1  0  0  3  0  0  0  0  0  0
  185.0650  178.3390  141.3680 C   0  0  0  0  0  0  0  0  0  0  0  0
  183.3090  178.9740  139.8240 C   0  0  0  0  0  0  0  0  0  0  0  0
  189.1900  177.6630  143.1410 C   0  0  2  0  0  3  0  0  0  0  0  0
  189.3640  178.6390  142.0640 N   0  0  0  0  0  2  0  0  0  0  0  0
  186.8570  178.3210  142.9390 O   0  0  0  0  0  0  0  0  0  0  0  0
  187.7120  177.3040  143.3810 C   0  0  0  0  0  2  0  0  0  0  0  0
  188.8500  178.0870  140.8150 C   0  0  0  0  0  2  0  0  0  0  0  0
  187.4140  178.5530  140.6000 C   0  0  0  0  0  2  0  0  0  0  0  0
  186.4790  177.9390  141.6420 C   0  0  2  0  0  3  0  0  0  0  0  0
  189.7720  178.1970  144.3650 N   0  0  0  0  0  2  0  0  0  0  0  0
  190.1320  176.3290  147.5580 N   0  0  0  0  0  0  0  0  0  0  0  0
  191.5830  176.8170  145.2780 C   0  0  0  0  0  3  0  0  0  0  0  0
  189.5760  177.1320  146.6060 C   0  0  0  0  0  0  0  0  0  0  0  0
  190.3110  177.3870  145.4190 C   0  0  0  0  0  0  0  0  0  0  0  0
  192.1150  176.0090  146.2780 C   0  0  0  0  0  3  0  0  0  0  0  0
  191.3630  175.7710  147.4250 C   0  0  0  0  0  3  0  0  0  0  0  0
  188.2210  177.6920  146.8690 C   0  0  0  0  0  0  0  0  0  0  0  0
  186.8090  179.2380  148.1180 C   0  0  0  0  0  3  0  0  0  0  0  0
  187.0880  177.2850  146.1440 C   0  0  0  0  0  3  0  0  0  0  0  0
  188.0640  178.6810  147.8560 C   0  0  0  0  0  3  0  0  0  0  0  0
  185.8320  177.8400  146.4040 C   0  0  0  0  0  3  0  0  0  0  0  0
  185.6930  178.8160  147.3930 C   0  0  0  0  0  3  0  0  0  0  0  0
  179.1500  174.4540  138.6620 C   0  0  0  0  0  2  0  0  0  0  0  0
  179.6630  173.5520  137.7260 O   0  0  0  0  0  1  0  0  0  0  0  0
  1  9  1  6  0  0  0
  1 12  1  0  0  0  0
  1  8  1  0  0  0  0
  2 19  1  0  0  0  0
  3 12  1  0  0  0  0
  4 17  1  0  0  0  0
  4  1  1  0  0  0  0
  4 16  1  1  0  0  0
  5 20  1  0  0  0  0
  8 18  1  0  0  0  0
 10  6  1  0  0  0  0
 11 13  1  0  0  0  0
 11 15  1  1  0  0  0
 12 41  1  6  0  0  0
 13 10  2  0  0  0  0
 16  3  1  0  0  0  0
 17  7  1  6  0  0  0
 17  5  1  0  0  0  0
 18 11  1  0  0  0  0
 18 14  1  1  0  0  0
 19  6  2  0  0  0  0
 20  2  2  0  0  0  0
 20 13  1  0  0  0  0
 21 24  1  0  0  0  0
 21 28  1  1  0  0  0
 22 21  1  0  0  0  0
 23 24  1  0  0  0  0
 25 22  1  0  0  0  0
 26 25  1  0  0  0  0
 26 27  1  0  0  0  0
 27 19  1  6  0  0  0
 27 23  1  0  0  0  0
 28 32  1  0  0  0  0
 30 32  2  0  0  0  0
 30 33  1  0  0  0  0
 31 35  1  0  0  0  0
 31 29  2  0  0  0  0
 32 31  1  0  0  0  0
 33 34  2  0  0  0  0
 34 29  1  0  0  0  0
 35 38  1  0  0  0  0
 37 39  1  0  0  0  0
 37 35  2  0  0  0  0
 38 36  2  0  0  0  0
 39 40  2  0  0  0  0
 40 36  1  0  0  0  0
 42 41  1  0  0  0  0
M  END
>  <MODEL>
3

>  <REMARK>
 VINA RESULT:      -8.7      5.912      9.757
  Name = 
  5 active torsions:
  status: ('A' for Active; 'I' for Inactive)
    1  A    between atoms: C_6  and  N_33
    2  A    between atoms: C_10  and  C_25
    3  A    between atoms: C_15  and  C_28
    4  A    between atoms: C_26  and  N_33
    5  A    between atoms: C_37  and  C_41
                            x       y       z     vdW  Elec       q    Type
                         _______ _______ _______ _____ _____    ______ ____

>  <TORSDO>
F 5

$$$$
=
 OpenBabel11062413123D

 42 47  0  0  1  0  0  0  0  0999 V2000
  180.0580  180.9360  138.7190 C   0  0  1  0  0  0  0  0  0  0  0  0
  183.8990  177.3570  137.9940 C   0  0  0  0  0  3  0  0  0  0  0  0
  182.3010  181.9100  138.3440 C   0  0  0  0  0  2  0  0  0  0  0  0
  181.1300  180.1570  139.4990 C   0  0  2  0  0  3  0  0  0  0  0  0
  181.9870  177.6840  139.5240 C   0  0  0  0  0  2  0  0  0  0  0  0
  183.6930  177.2570  135.6190 N   0  0  0  0  0  0  0  0  0  0  0  0
  180.2260  178.4660  141.0970 C   0  0  0  0  0  1  0  0  0  0  0  0
  179.2110  180.0770  137.7580 C   0  0  0  0  0  2  0  0  0  0  0  0
  179.1110  181.5570  139.7370 C   0  0  0  0  0  1  0  0  0  0  0  0
  182.3540  177.4620  135.7020 C   0  0  0  0  0  3  0  0  0  0  0  0
  180.2650  177.9230  136.9930 C   0  0  2  0  0  3  0  0  0  0  0  0
  180.8480  181.9850  137.9090 C   0  0  2  0  0  3  0  0  0  0  0  0
  181.7290  177.6130  136.9480 C   0  0  0  0  0  0  0  0  0  0  0  0
  179.3660  179.6250  135.3050 C   0  0  0  0  0  1  0  0  0  0  0  0
  179.5320  177.0490  136.1810 O   0  0  0  0  0  1  0  0  0  0  0  0
  182.4780  180.5140  138.8930 C   0  0  0  0  0  2  0  0  0  0  0  0
  180.8260  178.6630  139.7210 C   0  0  1  0  0  3  0  0  0  0  0  0
  180.0240  179.4020  136.6580 C   0  0  1  0  0  3  0  0  0  0  0  0
  184.4750  177.1950  136.7290 C   0  0  0  0  0  0  0  0  0  0  0  0
  182.5260  177.5780  138.1180 C   0  0  0  0  0  0  0  0  0  0  0  0
  188.8710  176.2130  137.2910 C   0  0  2  0  0  3  0  0  0  0  0  0
  188.7730  177.6730  137.3190 N   0  0  0  0  0  2  0  0  0  0  0  0
  186.4790  176.3540  137.7050 O   0  0  0  0  0  0  0  0  0  0  0  0
  187.4950  175.5290  137.2080 C   0  0  0  0  0  2  0  0  0  0  0  0
  188.1340  178.1450  136.0960 C   0  0  0  0  0  2  0  0  0  0  0  0
  186.6400  178.3390  136.3370 C   0  0  0  0  0  2  0  0  0  0  0  0
  185.9480  176.9970  136.5750 C   0  0  2  0  0  3  0  0  0  0  0  0
  189.5750  175.7610  138.4830 N   0  0  0  0  0  2  0  0  0  0  0  0
  192.0590  177.5030  140.6310 N   0  0  0  0  0  0  0  0  0  0  0  0
  191.9640  176.2400  138.1940 C   0  0  0  0  0  3  0  0  0  0  0  0
  190.8600  177.0010  140.2170 C   0  0  0  0  0  0  0  0  0  0  0  0
  190.7970  176.3390  138.9630 C   0  0  0  0  0  0  0  0  0  0  0  0
  193.1650  176.7730  138.6520 C   0  0  0  0  0  3  0  0  0  0  0  0
  193.1930  177.4060  139.8910 C   0  0  0  0  0  3  0  0  0  0  0  0
  189.6830  177.1750  141.1140 C   0  0  0  0  0  0  0  0  0  0  0  0
  188.5030  176.5460  143.1520 C   0  0  0  0  0  3  0  0  0  0  0  0
  188.6730  178.1150  140.8510 C   0  0  0  0  0  3  0  0  0  0  0  0
  189.5860  176.3970  142.2800 C   0  0  0  0  0  3  0  0  0  0  0  0
  187.5890  178.2660  141.7200 C   0  0  0  0  0  3  0  0  0  0  0  0
  187.5030  177.4800  142.8710 C   0  0  0  0  0  3  0  0  0  0  0  0
  180.3080  183.4180  137.8810 C   0  0  0  0  0  2  0  0  0  0  0  0
  181.1850  184.2740  137.2100 O   0  0  0  0  0  1  0  0  0  0  0  0
  1  4  1  0  0  0  0
  1  9  1  1  0  0  0
  2 20  1  0  0  0  0
  3 16  1  0  0  0  0
  4 16  1  6  0  0  0
  4 17  1  0  0  0  0
  5 17  1  0  0  0  0
  6 10  2  0  0  0  0
  6 19  1  0  0  0  0
  8  1  1  0  0  0  0
 10 13  1  0  0  0  0
 11 15  1  6  0  0  0
 12 41  1  1  0  0  0
 12  3  1  0  0  0  0
 12  1  1  0  0  0  0
 13 11  1  0  0  0  0
 13 20  2  0  0  0  0
 17  7  1  1  0  0  0
 18 14  1  6  0  0  0
 18 11  1  0  0  0  0
 18  8  1  0  0  0  0
 19  2  2  0  0  0  0
 20  5  1  0  0  0  0
 21 22  1  0  0  0  0
 21 28  1  1  0  0  0
 24 21  1  0  0  0  0
 24 23  1  0  0  0  0
 25 26  1  0  0  0  0
 25 22  1  0  0  0  0
 26 27  1  0  0  0  0
 27 19  1  1  0  0  0
 27 23  1  0  0  0  0
 28 32  1  0  0  0  0
 30 33  2  0  0  0  0
 30 32  1  0  0  0  0
 31 29  1  0  0  0  0
 31 35  1  0  0  0  0
 32 31  2  0  0  0  0
 33 34  1  0  0  0  0
 34 29  2  0  0  0  0
 35 38  1  0  0  0  0
 37 35  2  0  0  0  0
 37 39  1  0  0  0  0
 38 36  2  0  0  0  0
 39 40  2  0  0  0  0
 40 36  1  0  0  0  0
 42 41  1  0  0  0  0
M  END
>  <MODEL>
4

>  <REMARK>
 VINA RESULT:      -8.4      5.405     11.258
  Name = 
  5 active torsions:
  status: ('A' for Active; 'I' for Inactive)
    1  A    between atoms: C_6  and  N_33
    2  A    between atoms: C_10  and  C_25
    3  A    between atoms: C_15  and  C_28
    4  A    between atoms: C_26  and  N_33
    5  A    between atoms: C_37  and  C_41
                            x       y       z     vdW  Elec       q    Type
                         _______ _______ _______ _____ _____    ______ ____

>  <TORSDO>
F 5

$$$$
=
 OpenBabel11062413123D

 42 47  0  0  1  0  0  0  0  0999 V2000
  180.2500  177.0600  139.4050 C   0  0  1  0  0  0  0  0  0  0  0  0
  185.0670  179.1130  140.2250 C   0  0  0  0  0  3  0  0  0  0  0  0
  182.1070  175.4500  139.1190 C   0  0  0  0  0  2  0  0  0  0  0  0
  181.4210  177.7040  138.6440 C   0  0  2  0  0  3  0  0  0  0  0  0
  182.9960  179.7570  139.0430 C   0  0  0  0  0  2  0  0  0  0  0  0
  185.1570  178.5980  142.5530 N   0  0  0  0  0  0  0  0  0  0  0  0
  180.9220  179.9530  137.6840 C   0  0  0  0  0  1  0  0  0  0  0  0
  179.8200  177.8130  140.6800 C   0  0  0  0  0  2  0  0  0  0  0  0
  179.0540  177.0300  138.4620 C   0  0  0  0  0  1  0  0  0  0  0  0
  183.8200  178.7960  142.6740 C   0  0  0  0  0  3  0  0  0  0  0  0
  181.5650  179.2970  141.7210 C   0  0  2  0  0  3  0  0  0  0  0  0
  180.7580  175.6530  139.7850 C   0  0  2  0  0  3  0  0  0  0  0  0
  183.0500  179.1740  141.5650 C   0  0  0  0  0  0  0  0  0  0  0  0
  180.3680  177.5020  143.0990 C   0  0  0  0  0  1  0  0  0  0  0  0
  181.2310  180.0750  142.8360 O   0  0  0  0  0  1  0  0  0  0  0  0
  182.6480  176.8410  138.8890 C   0  0  0  0  0  2  0  0  0  0  0  0
  181.5740  179.2260  138.8400 C   0  0  1  0  0  3  0  0  0  0  0  0
  180.9150  177.9070  141.7380 C   0  0  1  0  0  3  0  0  0  0  0  0
  185.7960  178.7520  141.3640 C   0  0  0  0  0  0  0  0  0  0  0  0
  183.6880  179.3160  140.3100 C   0  0  0  0  0  0  0  0  0  0  0  0
  189.9490  177.1880  140.4090 C   0  0  2  0  0  3  0  0  0  0  0  0
  189.6450  176.7320  141.7660 N   0  0  0  0  0  2  0  0  0  0  0  0
  187.5420  177.5180  140.3120 O   0  0  0  0  0  0  0  0  0  0  0  0
  188.7620  177.9080  139.7460 C   0  0  0  0  0  2  0  0  0  0  0  0
  189.3160  177.8780  142.6060 C   0  0  0  0  0  2  0  0  0  0  0  0
  187.8030  178.0660  142.6500 C   0  0  0  0  0  2  0  0  0  0  0  0
  187.2660  178.4930  141.2840 C   0  0  2  0  0  3  0  0  0  0  0  0
  190.3460  176.0430  139.6000 N   0  0  0  0  0  2  0  0  0  0  0  0
  191.7100  176.0620  136.1420 N   0  0  0  0  0  0  0  0  0  0  0  0
  192.6110  176.3770  138.7170 C   0  0  0  0  0  3  0  0  0  0  0  0
  190.8030  175.9500  137.1560 C   0  0  0  0  0  0  0  0  0  0  0  0
  191.2520  176.1180  138.4910 C   0  0  0  0  0  0  0  0  0  0  0  0
  193.5030  176.4760  137.6540 C   0  0  0  0  0  3  0  0  0  0  0  0
  193.0260  176.3170  136.3570 C   0  0  0  0  0  3  0  0  0  0  0  0
  189.3860  175.6610  136.7950 C   0  0  0  0  0  0  0  0  0  0  0  0
  187.2340  176.4690  135.9860 C   0  0  0  0  0  3  0  0  0  0  0  0
  188.8460  174.3660  136.8610 C   0  0  0  0  0  3  0  0  0  0  0  0
  188.5630  176.7080  136.3470 C   0  0  0  0  0  3  0  0  0  0  0  0
  187.5170  174.1240  136.5010 C   0  0  0  0  0  3  0  0  0  0  0  0
  186.7100  175.1770  136.0650 C   0  0  0  0  0  3  0  0  0  0  0  0
  179.8060  174.4720  139.5750 C   0  0  0  0  0  2  0  0  0  0  0  0
  180.2350  173.6590  138.5230 O   0  0  0  0  0  1  0  0  0  0  0  0
  1  9  1  6  0  0  0
  1 12  1  0  0  0  0
  1  8  1  0  0  0  0
  2 20  2  0  0  0  0
  2 19  1  0  0  0  0
  3 12  1  0  0  0  0
  4 17  1  0  0  0  0
  4 16  1  1  0  0  0
  4  1  1  0  0  0  0
  5 20  1  0  0  0  0
  6 10  1  0  0  0  0
  8 18  1  0  0  0  0
 11 18  1  0  0  0  0
 11 15  1  1  0  0  0
 12 41  1  6  0  0  0
 13 11  1  0  0  0  0
 13 10  2  0  0  0  0
 16  3  1  0  0  0  0
 17  7  1  6  0  0  0
 17  5  1  0  0  0  0
 18 14  1  1  0  0  0
 19  6  2  0  0  0  0
 20 13  1  0  0  0  0
 21 28  1  6  0  0  0
 21 22  1  0  0  0  0
 22 25  1  0  0  0  0
 23 27  1  0  0  0  0
 24 23  1  0  0  0  0
 24 21  1  0  0  0  0
 25 26  1  0  0  0  0
 27 19  1  1  0  0  0
 27 26  1  0  0  0  0
 29 34  2  0  0  0  0
 29 31  1  0  0  0  0
 31 32  2  0  0  0  0
 32 30  1  0  0  0  0
 32 28  1  0  0  0  0
 33 30  2  0  0  0  0
 34 33  1  0  0  0  0
 35 37  1  0  0  0  0
 35 31  1  0  0  0  0
 36 40  2  0  0  0  0
 36 38  1  0  0  0  0
 38 35  2  0  0  0  0
 39 37  2  0  0  0  0
 40 39  1  0  0  0  0
 42 41  1  0  0  0  0
M  END
>  <MODEL>
5

>  <REMARK>
 VINA RESULT:      -7.7      4.101     10.887
  Name = 
  5 active torsions:
  status: ('A' for Active; 'I' for Inactive)
    1  A    between atoms: C_6  and  N_33
    2  A    between atoms: C_10  and  C_25
    3  A    between atoms: C_15  and  C_28
    4  A    between atoms: C_26  and  N_33
    5  A    between atoms: C_37  and  C_41
                            x       y       z     vdW  Elec       q    Type
                         _______ _______ _______ _____ _____    ______ ____

>  <TORSDO>
F 5

$$$$
=
 OpenBabel11062413123D

 42 47  0  0  1  0  0  0  0  0999 V2000
  179.8410  181.8040  138.2580 C   0  0  1  0  0  0  0  0  0  0  0  0
  183.2540  177.7950  137.6540 C   0  0  0  0  0  3  0  0  0  0  0  0
  182.1960  182.5050  137.9690 C   0  0  0  0  0  2  0  0  0  0  0  0
  180.7840  180.9030  139.0730 C   0  0  2  0  0  3  0  0  0  0  0  0
  181.3400  178.3450  139.1150 C   0  0  0  0  0  2  0  0  0  0  0  0
  183.1250  177.7220  135.2730 N   0  0  0  0  0  0  0  0  0  0  0  0
  179.6290  179.3290  140.6280 C   0  0  0  0  0  1  0  0  0  0  0  0
  178.9330  181.0520  137.2630 C   0  0  0  0  0  2  0  0  0  0  0  0
  178.9370  182.5320  139.2450 C   0  0  0  0  0  1  0  0  0  0  0  0
  181.8170  178.0840  135.3080 C   0  0  0  0  0  3  0  0  0  0  0  0
  179.7520  178.7890  136.5250 C   0  0  2  0  0  3  0  0  0  0  0  0
  180.7790  182.7530  137.4820 C   0  0  2  0  0  3  0  0  0  0  0  0
  181.1700  178.3070  136.5320 C   0  0  0  0  0  0  0  0  0  0  0  0
  179.1230  180.5870  134.8150 C   0  0  0  0  0  1  0  0  0  0  0  0
  178.9500  178.0090  135.6830 O   0  0  0  0  0  1  0  0  0  0  0  0
  182.1850  181.0980  138.5180 C   0  0  0  0  0  2  0  0  0  0  0  0
  180.2970  179.4550  139.2760 C   0  0  1  0  0  3  0  0  0  0  0  0
  179.7000  180.2860  136.1900 C   0  0  1  0  0  3  0  0  0  0  0  0
  183.8520  177.5670  136.4090 C   0  0  0  0  0  0  0  0  0  0  0  0
  181.9130  178.1770  137.7290 C   0  0  0  0  0  0  0  0  0  0  0  0
  188.3420  177.1490  136.9340 C   0  0  2  0  0  3  0  0  0  0  0  0
  188.1460  177.9000  135.6930 N   0  0  0  0  0  2  0  0  0  0  0  0
  186.0350  177.8070  137.3340 O   0  0  0  0  0  0  0  0  0  0  0  0
  187.0220  176.8730  137.6750 C   0  0  0  0  0  2  0  0  0  0  0  0
  187.2980  177.1350  134.7860 C   0  0  0  0  0  2  0  0  0  0  0  0
  185.8480  177.5820  134.9360 C   0  0  0  0  0  2  0  0  0  0  0  0
  185.2960  177.1960  136.3080 C   0  0  2  0  0  3  0  0  0  0  0  0
  189.2480  177.8910  137.8000 N   0  0  0  0  0  2  0  0  0  0  0  0
  190.7360  176.4380  140.8820 N   0  0  0  0  0  0  0  0  0  0  0  0
  188.6980  178.1400  140.1780 C   0  0  0  0  0  3  0  0  0  0  0  0
  190.5350  176.6830  139.5540 C   0  0  0  0  0  0  0  0  0  0  0  0
  189.4910  177.5660  139.1760 C   0  0  0  0  0  0  0  0  0  0  0  0
  188.9320  177.8570  141.5200 C   0  0  0  0  0  3  0  0  0  0  0  0
  189.9710  176.9950  141.8560 C   0  0  0  0  0  3  0  0  0  0  0  0
  191.4350  176.0080  138.5770 C   0  0  0  0  0  0  0  0  0  0  0  0
  193.5520  175.9730  137.3690 C   0  0  0  0  0  3  0  0  0  0  0  0
  191.0970  174.7870  137.9670 C   0  0  0  0  0  3  0  0  0  0  0  0
  192.6770  176.5880  138.2690 C   0  0  0  0  0  3  0  0  0  0  0  0
  191.9700  174.1700  137.0660 C   0  0  0  0  0  3  0  0  0  0  0  0
  193.1970  174.7640  136.7660 C   0  0  0  0  0  3  0  0  0  0  0  0
  180.4140  184.2390  137.4430 C   0  0  0  0  0  2  0  0  0  0  0  0
  181.4280  184.9910  136.8440 O   0  0  0  0  0  1  0  0  0  0  0  0
  1  4  1  0  0  0  0
  1  9  1  1  0  0  0
  2 20  1  0  0  0  0
  3 16  1  0  0  0  0
  4 16  1  6  0  0  0
  4 17  1  0  0  0  0
  5 17  1  0  0  0  0
  6 10  2  0  0  0  0
  6 19  1  0  0  0  0
  8  1  1  0  0  0  0
 10 13  1  0  0  0  0
 11 15  1  6  0  0  0
 11 13  1  0  0  0  0
 12 41  1  1  0  0  0
 12  3  1  0  0  0  0
 12  1  1  0  0  0  0
 13 20  2  0  0  0  0
 17  7  1  1  0  0  0
 18 14  1  6  0  0  0
 18 11  1  0  0  0  0
 18  8  1  0  0  0  0
 19  2  2  0  0  0  0
 20  5  1  0  0  0  0
 21 24  1  0  0  0  0
 21 28  1  1  0  0  0
 22 21  1  0  0  0  0
 23 24  1  0  0  0  0
 25 26  1  0  0  0  0
 25 22  1  0  0  0  0
 26 27  1  0  0  0  0
 27 19  1  6  0  0  0
 27 23  1  0  0  0  0
 28 32  1  0  0  0  0
 29 34  1  0  0  0  0
 30 33  1  0  0  0  0
 31 29  2  0  0  0  0
 32 31  1  0  0  0  0
 32 30  2  0  0  0  0
 33 34  2  0  0  0  0
 35 31  1  0  0  0  0
 36 38  2  0  0  0  0
 37 35  2  0  0  0  0
 38 35  1  0  0  0  0
 39 37  1  0  0  0  0
 40 39  2  0  0  0  0
 40 36  1  0  0  0  0
 42 41  1  0  0  0  0
M  END
>  <MODEL>
6

>  <REMARK>
 VINA RESULT:      -7.4      5.934     12.083
  Name = 
  5 active torsions:
  status: ('A' for Active; 'I' for Inactive)
    1  A    between atoms: C_6  and  N_33
    2  A    between atoms: C_10  and  C_25
    3  A    between atoms: C_15  and  C_28
    4  A    between atoms: C_26  and  N_33
    5  A    between atoms: C_37  and  C_41
                            x       y       z     vdW  Elec       q    Type
                         _______ _______ _______ _____ _____    ______ ____

>  <TORSDO>
F 5

$$$$
=
 OpenBabel11062413123D

 42 47  0  0  1  0  0  0  0  0999 V2000
  194.9850  173.2310  135.6400 C   0  0  1  0  0  0  0  0  0  0  0  0
  192.2460  176.6390  138.6360 C   0  0  0  0  0  3  0  0  0  0  0  0
  195.1930  172.8430  138.0750 C   0  0  0  0  0  2  0  0  0  0  0  0
  195.1500  174.5610  136.3940 C   0  0  2  0  0  3  0  0  0  0  0  0
  193.7240  176.7410  136.6600 C   0  0  0  0  0  2  0  0  0  0  0  0
  190.2540  175.3300  138.7340 N   0  0  0  0  0  0  0  0  0  0  0  0
  195.4980  176.5500  134.9260 C   0  0  0  0  0  1  0  0  0  0  0  0
  193.7220  173.1440  134.7580 C   0  0  0  0  0  2  0  0  0  0  0  0
  196.1950  173.0680  134.7300 C   0  0  0  0  0  1  0  0  0  0  0  0
  190.4680  174.8650  137.4760 C   0  0  0  0  0  3  0  0  0  0  0  0
  191.8330  174.6810  135.3920 C   0  0  2  0  0  3  0  0  0  0  0  0
  194.9120  172.1600  136.7480 C   0  0  2  0  0  3  0  0  0  0  0  0
  191.5860  175.2830  136.7410 C   0  0  0  0  0  0  0  0  0  0  0  0
  191.4560  172.1620  135.1350 C   0  0  0  0  0  1  0  0  0  0  0  0
  190.6810  174.7200  134.5960 O   0  0  0  0  0  1  0  0  0  0  0  0
  194.8330  174.2940  137.8560 C   0  0  0  0  0  2  0  0  0  0  0  0
  194.4750  175.7800  135.7340 C   0  0  1  0  0  3  0  0  0  0  0  0
  192.4180  173.2690  135.5380 C   0  0  1  0  0  3  0  0  0  0  0  0
  191.1070  176.2060  139.3250 C   0  0  0  0  0  0  0  0  0  0  0  0
  192.5040  176.1760  137.3440 C   0  0  0  0  0  0  0  0  0  0  0  0
  189.4550  178.1280  143.0910 C   0  0  2  0  0  3  0  0  0  0  0  0
  190.7060  178.8270  142.7930 N   0  0  0  0  0  2  0  0  0  0  0  0
  189.6570  177.4220  140.7730 O   0  0  0  0  0  0  0  0  0  0  0  0
  189.0750  177.1040  142.0060 C   0  0  0  0  0  2  0  0  0  0  0  0
  191.7980  177.8630  142.7120 C   0  0  0  0  0  2  0  0  0  0  0  0
  192.0230  177.4620  141.2570 C   0  0  0  0  0  2  0  0  0  0  0  0
  190.8360  176.6610  140.7220 C   0  0  2  0  0  3  0  0  0  0  0  0
  188.3870  179.1070  143.2410 N   0  0  0  0  0  2  0  0  0  0  0  0
  185.0770  177.9580  144.4820 N   0  0  0  0  0  0  0  0  0  0  0  0
  186.1720  179.0080  142.1920 C   0  0  0  0  0  3  0  0  0  0  0  0
  186.4150  178.2240  144.4760 C   0  0  0  0  0  0  0  0  0  0  0  0
  186.9940  178.7740  143.3030 C   0  0  0  0  0  0  0  0  0  0  0  0
  184.8130  178.7140  142.2390 C   0  0  0  0  0  3  0  0  0  0  0  0
  184.2770  178.1860  143.4100 C   0  0  0  0  0  3  0  0  0  0  0  0
  187.1920  177.9240  145.7120 C   0  0  0  0  0  0  0  0  0  0  0  0
  187.5380  178.2880  148.0970 C   0  0  0  0  0  3  0  0  0  0  0  0
  188.2520  177.0030  145.7250 C   0  0  0  0  0  3  0  0  0  0  0  0
  186.8410  178.5590  146.9160 C   0  0  0  0  0  3  0  0  0  0  0  0
  188.9520  176.7310  146.9050 C   0  0  0  0  0  3  0  0  0  0  0  0
  188.5960  177.3750  148.0910 C   0  0  0  0  0  3  0  0  0  0  0  0
  195.7280  170.8780  136.5550 C   0  0  0  0  0  2  0  0  0  0  0  0
  196.9290  170.9330  137.2660 O   0  0  0  0  0  1  0  0  0  0  0  0
  1  9  1  6  0  0  0
  1  4  1  0  0  0  0
  1 12  1  0  0  0  0
  2 19  1  0  0  0  0
  4 16  1  1  0  0  0
  5 20  1  0  0  0  0
  6 19  2  0  0  0  0
  8 18  1  0  0  0  0
  8  1  1  0  0  0  0
 10  6  1  0  0  0  0
 11 15  1  1  0  0  0
 11 18  1  0  0  0  0
 11 13  1  0  0  0  0
 12 41  1  6  0  0  0
 12  3  1  0  0  0  0
 13 20  1  0  0  0  0
 13 10  2  0  0  0  0
 16  3  1  0  0  0  0
 17  7  1  1  0  0  0
 17  4  1  0  0  0  0
 17  5  1  0  0  0  0
 18 14  1  6  0  0  0
 20  2  2  0  0  0  0
 21 28  1  6  0  0  0
 22 21  1  0  0  0  0
 23 24  1  0  0  0  0
 24 21  1  0  0  0  0
 25 22  1  0  0  0  0
 26 25  1  0  0  0  0
 27 19  1  6  0  0  0
 27 23  1  0  0  0  0
 27 26  1  0  0  0  0
 28 32  1  0  0  0  0
 30 33  2  0  0  0  0
 30 32  1  0  0  0  0
 31 29  1  0  0  0  0
 31 35  1  0  0  0  0
 32 31  2  0  0  0  0
 33 34  1  0  0  0  0
 34 29  2  0  0  0  0
 35 37  2  0  0  0  0
 35 38  1  0  0  0  0
 37 39  1  0  0  0  0
 38 36  2  0  0  0  0
 39 40  2  0  0  0  0
 40 36  1  0  0  0  0
 41 42  1  0  0  0  0
M  END
>  <MODEL>
7

>  <REMARK>
 VINA RESULT:      -7.2      1.106      2.696
  Name = 
  5 active torsions:
  status: ('A' for Active; 'I' for Inactive)
    1  A    between atoms: C_6  and  N_33
    2  A    between atoms: C_10  and  C_25
    3  A    between atoms: C_15  and  C_28
    4  A    between atoms: C_26  and  N_33
    5  A    between atoms: C_37  and  C_41
                            x       y       z     vdW  Elec       q    Type
                         _______ _______ _______ _____ _____    ______ ____

>  <TORSDO>
F 5

$$$$
