=
 OpenBabel11062416263D

 46 50  0  0  1  0  0  0  0  0999 V2000
  186.2710  178.0030  142.8540 N   0  0  0  0  0  2  0  0  0  0  0  0
  186.3930  178.0560  145.3170 C   0  0  0  0  0  3  0  0  0  0  0  0
  188.1710  177.0150  144.0770 C   0  0  0  0  0  0  0  0  0  0  0  0
  188.2090  177.0550  146.4480 C   0  0  0  0  0  3  0  0  0  0  0  0
  188.7640  176.7020  145.2610 N   0  0  0  0  0  0  0  0  0  0  0  0
  186.9430  177.6980  144.0810 C   0  0  0  0  0  0  0  0  0  0  0  0
  187.0320  177.7340  146.4710 N   0  0  0  0  0  0  0  0  0  0  0  0
  189.5750  175.3860  142.9440 N   0  0  0  0  0  1  0  0  0  0  0  0
  188.8120  176.6120  142.7830 C   0  0  2  0  0  3  0  0  0  0  0  0
  189.6390  177.7330  142.1410 C   0  0  2  0  0  3  0  0  0  0  0  0
  191.5830  178.6220  143.8670 S   0  0  0  0  0  1  0  0  0  0  0  0
  189.9380  178.8540  143.1300 C   0  0  0  0  0  2  0  0  0  0  0  0
  189.1360  178.1980  140.7600 C   0  0  0  0  0  2  0  0  0  0  0  0
  190.6290  176.5950  139.7330 O   0  0  0  0  0  1  0  0  0  0  0  0
  189.3910  177.2310  139.6050 C   0  0  2  0  0  3  0  0  0  0  0  0
  189.2820  177.9490  138.2560 C   0  0  2  0  0  3  0  0  0  0  0  0
  188.9990  179.2980  138.4790 O   0  0  0  0  0  1  0  0  0  0  0  0
  188.7930  176.8990  136.1090 O   0  0  0  0  0  1  0  0  0  0  0  0
  188.2290  177.3420  137.3150 C   0  0  2  0  0  3  0  0  0  0  0  0
  185.6830  177.6170  136.8560 N   0  0  0  0  0  0  0  0  0  0  0  0
  186.9970  178.2710  137.1220 C   0  0  1  0  0  3  0  0  0  0  0  0
  185.6830  176.1660  136.9990 C   0  0  0  0  0  1  0  0  0  0  0  0
  185.9970  178.1660  138.1860 C   0  0  0  0  0  2  0  0  0  0  0  0
  184.9470  180.2430  143.8490 C   0  0  0  0  0  1  0  0  0  0  0  0
  182.7310  178.8790  143.7890 C   0  0  0  0  0  1  0  0  0  0  0  0
  184.3420  178.9520  141.7050 C   0  0  1  0  0  3  0  0  0  0  0  0
  184.1070  179.1550  143.2000 C   0  0  0  0  0  0  0  0  0  0  0  0
  184.8240  177.9020  142.7040 C   0  0  2  0  0  3  0  0  0  0  0  0
  179.7540  178.4470  138.1300 C   0  0  0  0  0  3  0  0  0  0  0  0
  183.3820  177.0400  140.3930 C   0  0  0  0  0  2  0  0  0  0  0  0
  180.5780  178.3080  139.1730 C   0  0  0  0  0  0  0  0  0  0  0  0
  180.9130  176.9390  139.7220 C   0  0  2  0  0  3  0  0  0  0  0  0
  182.3500  176.5290  139.3790 C   0  0  0  0  0  2  0  0  0  0  0  0
  183.1120  178.4400  140.9630 C   0  0  2  0  0  3  0  0  0  0  0  0
  182.7010  179.4380  139.8860 C   0  0  0  0  0  2  0  0  0  0  0  0
  181.1800  179.5210  139.8230 C   0  0  0  0  0  2  0  0  0  0  0  0
  179.9570  175.9480  139.4110 O   0  0  0  0  0  0  0  0  0  0  0  0
  180.1210  174.9570  140.2690 O   0  0  0  0  0  1  0  0  0  0  0  0
  179.4230  179.7300  137.6060 N   0  0  0  0  0  2  0  0  0  0  0  0
  180.1640  180.2780  136.4800 C   0  0  0  0  0  2  0  0  0  0  0  0
  180.8260  183.8830  135.1710 C   0  0  0  0  0  2  0  0  0  0  0  0
  180.7250  184.5200  136.5670 C   0  0  0  0  0  2  0  0  0  0  0  0
  180.1120  181.7930  136.5230 C   0  0  2  0  0  3  0  0  0  0  0  0
  180.4490  182.3850  135.1420 C   0  0  0  0  0  2  0  0  0  0  0  0
  181.0550  182.3130  137.5730 C   0  0  0  0  0  3  0  0  0  0  0  0
  181.3470  183.6170  137.5950 C   0  0  0  0  0  3  0  0  0  0  0  0
  1  6  1  0  0  0  0
  2  7  1  0  0  0  0
  3  6  1  0  0  0  0
  3  5  2  0  0  0  0
  4  7  2  0  0  0  0
  5  4  1  0  0  0  0
  6  2  2  0  0  0  0
  9  8  1  1  0  0  0
  9  3  1  0  0  0  0
 10 13  1  6  0  0  0
 10  9  1  0  0  0  0
 10 12  1  0  0  0  0
 12 11  1  0  0  0  0
 15 14  1  1  0  0  0
 15 13  1  0  0  0  0
 16 17  1  1  0  0  0
 16 15  1  0  0  0  0
 19 18  1  6  0  0  0
 19 16  1  0  0  0  0
 20 22  1  0  0  0  0
 20 21  1  0  0  0  0
 20 23  1  0  0  0  0
 21 19  1  1  0  0  0
 21 23  1  0  0  0  0
 26 28  1  0  0  0  0
 26 27  1  1  0  0  0
 27 25  1  0  0  0  0
 27 24  1  0  0  0  0
 28  1  1  1  0  0  0
 28 27  1  0  0  0  0
 29 31  2  0  0  0  0
 30 34  1  0  0  0  0
 31 32  1  0  0  0  0
 31 36  1  0  0  0  0
 32 37  1  6  0  0  0
 33 32  1  0  0  0  0
 33 30  1  0  0  0  0
 34 35  1  6  0  0  0
 34 26  1  0  0  0  0
 36 35  1  0  0  0  0
 37 38  1  0  0  0  0
 39 29  1  0  0  0  0
 40 39  1  0  0  0  0
 41 42  1  0  0  0  0
 42 46  1  0  0  0  0
 43 40  1  6  0  0  0
 43 45  1  0  0  0  0
 44 41  1  0  0  0  0
 44 43  1  0  0  0  0
 45 46  2  0  0  0  0
M  END
>  <MODEL>
1

>  <REMARK>
 VINA RESULT:      -7.3      0.000      0.000
  Name = 
  15 active torsions:
  status: ('A' for Active; 'I' for Inactive)
    1  A    between atoms: C_4  and  N_29
    2  A    between atoms: C_5  and  C_46
    3  A    between atoms: N_7  and  C_25
    4  A    between atoms: N_7  and  C_41
    5  A    between atoms: C_9  and  O_15
    6  A    between atoms: C_12  and  C_31
    7  A    between atoms: C_12  and  C_45
    8  A    between atoms: C_16  and  C_22
    9  A    between atoms: C_19  and  C_21
   10  A    between atoms: C_19  and  N_29
   11  A    between atoms: C_28  and  C_37
   12  A    between atoms: C_28  and  C_38
   13  A    between atoms: C_28  and  C_46
   14  A    between atoms: C_31  and  C_38
   15  A    between atoms: C_32  and  C_45
                            x       y       z     vdW  Elec       q    Type
                         _______ _______ _______ _____ _____    ______ ____

>  <TORSDO>
F 15

$$$$
=
 OpenBabel11062416263D

 46 50  0  0  1  0  0  0  0  0999 V2000
  183.6330  177.1640  137.0350 N   0  0  0  0  0  2  0  0  0  0  0  0
  183.9990  174.8080  137.6660 C   0  0  0  0  0  3  0  0  0  0  0  0
  185.8140  176.0620  136.7090 C   0  0  0  0  0  0  0  0  0  0  0  0
  186.0920  173.7790  137.2920 C   0  0  0  0  0  3  0  0  0  0  0  0
  186.5810  174.9400  136.7840 N   0  0  0  0  0  0  0  0  0  0  0  0
  184.4780  176.0140  137.1420 C   0  0  0  0  0  0  0  0  0  0  0  0
  184.8090  173.7200  137.7350 N   0  0  0  0  0  0  0  0  0  0  0  0
  186.3380  177.3140  134.6930 N   0  0  0  0  0  1  0  0  0  0  0  0
  186.3850  177.3290  136.1450 C   0  0  2  0  0  3  0  0  0  0  0  0
  187.7850  177.6530  136.6790 C   0  0  2  0  0  3  0  0  0  0  0  0
  189.8510  176.0180  135.9020 S   0  0  0  0  0  1  0  0  0  0  0  0
  188.8520  177.5050  135.6000 C   0  0  0  0  0  2  0  0  0  0  0  0
  188.1290  176.9950  138.0310 C   0  0  0  0  0  2  0  0  0  0  0  0
  188.9020  179.2080  138.6320 O   0  0  0  0  0  1  0  0  0  0  0  0
  188.5550  177.9550  139.1420 C   0  0  2  0  0  3  0  0  0  0  0  0
  189.7020  177.3620  139.9660 C   0  0  2  0  0  3  0  0  0  0  0  0
  190.0460  176.1150  139.4400 O   0  0  0  0  0  1  0  0  0  0  0  0
  188.0740  177.6420  141.7620 O   0  0  0  0  0  1  0  0  0  0  0  0
  189.3820  177.2270  141.4640 C   0  0  2  0  0  3  0  0  0  0  0  0
  191.1200  177.0200  143.3880 N   0  0  0  0  0  0  0  0  0  0  0  0
  190.4640  177.8860  142.3660 C   0  0  1  0  0  3  0  0  0  0  0  0
  190.7960  175.6030  143.2880 C   0  0  0  0  0  1  0  0  0  0  0  0
  191.8180  177.3780  142.1410 C   0  0  0  0  0  2  0  0  0  0  0  0
  181.5340  178.9220  136.5210 C   0  0  0  0  0  1  0  0  0  0  0  0
  182.2990  180.3320  138.5720 C   0  0  0  0  0  1  0  0  0  0  0  0
  181.9940  177.7210  138.7520 C   0  0  1  0  0  3  0  0  0  0  0  0
  182.1780  178.9730  137.8970 C   0  0  0  0  0  0  0  0  0  0  0  0
  183.3640  178.0500  138.1630 C   0  0  2  0  0  3  0  0  0  0  0  0
  183.5270  179.2060  144.1860 C   0  0  0  0  0  3  0  0  0  0  0  0
  180.8080  178.9190  140.6110 C   0  0  0  0  0  2  0  0  0  0  0  0
  182.9150  178.6290  143.1480 C   0  0  0  0  0  0  0  0  0  0  0  0
  181.4050  178.5630  143.0750 C   0  0  2  0  0  3  0  0  0  0  0  0
  180.8480  179.5250  142.0190 C   0  0  0  0  0  2  0  0  0  0  0  0
  181.9880  178.0060  140.2500 C   0  0  2  0  0  3  0  0  0  0  0  0
  183.3300  178.5930  140.6740 C   0  0  0  0  0  2  0  0  0  0  0  0
  183.7260  178.0290  142.0340 C   0  0  0  0  0  2  0  0  0  0  0  0
  180.7660  178.6730  144.3290 O   0  0  0  0  0  0  0  0  0  0  0  0
  179.6600  179.3730  144.1480 O   0  0  0  0  0  1  0  0  0  0  0  0
  184.9480  179.2710  144.2730 N   0  0  0  0  0  2  0  0  0  0  0  0
  185.7280  178.0570  144.4620 C   0  0  0  0  0  2  0  0  0  0  0  0
  189.0190  177.2560  146.3820 C   0  0  0  0  0  2  0  0  0  0  0  0
  188.6840  178.1920  147.5550 C   0  0  0  0  0  2  0  0  0  0  0  0
  186.8490  178.3200  145.4500 C   0  0  2  0  0  3  0  0  0  0  0  0
  188.0250  177.3560  145.2030 C   0  0  0  0  0  2  0  0  0  0  0  0
  186.3370  178.1890  146.8580 C   0  0  0  0  0  3  0  0  0  0  0  0
  187.2150  178.1300  147.8650 C   0  0  0  0  0  3  0  0  0  0  0  0
  1  6  1  0  0  0  0
  2  7  1  0  0  0  0
  3  5  2  0  0  0  0
  3  6  1  0  0  0  0
  4  7  2  0  0  0  0
  5  4  1  0  0  0  0
  6  2  2  0  0  0  0
  9  8  1  6  0  0  0
  9 10  1  0  0  0  0
  9  3  1  0  0  0  0
 10 12  1  6  0  0  0
 10 13  1  0  0  0  0
 12 11  1  0  0  0  0
 13 15  1  0  0  0  0
 15 14  1  6  0  0  0
 15 16  1  0  0  0  0
 16 17  1  6  0  0  0
 16 19  1  0  0  0  0
 19 18  1  6  0  0  0
 21 19  1  6  0  0  0
 21 20  1  0  0  0  0
 22 20  1  0  0  0  0
 23 21  1  0  0  0  0
 23 20  1  0  0  0  0
 24 27  1  0  0  0  0
 26 27  1  6  0  0  0
 26 34  1  0  0  0  0
 27 28  1  0  0  0  0
 27 25  1  0  0  0  0
 28  1  1  6  0  0  0
 28 26  1  0  0  0  0
 29 39  1  0  0  0  0
 30 33  1  0  0  0  0
 31 29  2  0  0  0  0
 32 31  1  0  0  0  0
 32 37  1  1  0  0  0
 33 32  1  0  0  0  0
 34 30  1  6  0  0  0
 34 35  1  0  0  0  0
 35 36  1  0  0  0  0
 36 31  1  0  0  0  0
 38 37  1  0  0  0  0
 39 40  1  0  0  0  0
 41 42  1  0  0  0  0
 42 46  1  0  0  0  0
 43 40  1  6  0  0  0
 43 45  1  0  0  0  0
 44 43  1  0  0  0  0
 44 41  1  0  0  0  0
 45 46  2  0  0  0  0
M  END
>  <MODEL>
2

>  <REMARK>
 VINA RESULT:      -7.1      2.771      7.734
  Name = 
  15 active torsions:
  status: ('A' for Active; 'I' for Inactive)
    1  A    between atoms: C_4  and  N_29
    2  A    between atoms: C_5  and  C_46
    3  A    between atoms: N_7  and  C_25
    4  A    between atoms: N_7  and  C_41
    5  A    between atoms: C_9  and  O_15
    6  A    between atoms: C_12  and  C_31
    7  A    between atoms: C_12  and  C_45
    8  A    between atoms: C_16  and  C_22
    9  A    between atoms: C_19  and  C_21
   10  A    between atoms: C_19  and  N_29
   11  A    between atoms: C_28  and  C_37
   12  A    between atoms: C_28  and  C_38
   13  A    between atoms: C_28  and  C_46
   14  A    between atoms: C_31  and  C_38
   15  A    between atoms: C_32  and  C_45
                            x       y       z     vdW  Elec       q    Type
                         _______ _______ _______ _____ _____    ______ ____

>  <TORSDO>
F 15

$$$$
=
 OpenBabel11062416263D

 46 50  0  0  1  0  0  0  0  0999 V2000
  186.8140  175.9260  136.9240 N   0  0  0  0  0  2  0  0  0  0  0  0
  188.0280  173.7890  136.7010 C   0  0  0  0  0  3  0  0  0  0  0  0
  185.7590  173.9370  135.9180 C   0  0  0  0  0  0  0  0  0  0  0  0
  186.9610  171.8970  135.7750 C   0  0  0  0  0  3  0  0  0  0  0  0
  185.8290  172.6210  135.5770 N   0  0  0  0  0  0  0  0  0  0  0  0
  186.8720  174.5560  136.5130 C   0  0  0  0  0  0  0  0  0  0  0  0
  188.0540  172.4840  136.3290 N   0  0  0  0  0  0  0  0  0  0  0  0
  184.7780  175.9790  135.0380 N   0  0  0  0  0  1  0  0  0  0  0  0
  184.4950  174.7090  135.6850 C   0  0  2  0  0  3  0  0  0  0  0  0
  183.6460  174.8780  136.9510 C   0  0  2  0  0  3  0  0  0  0  0  0
  182.0060  173.2550  135.4610 S   0  0  0  0  0  1  0  0  0  0  0  0
  182.6160  173.7630  137.0950 C   0  0  0  0  0  2  0  0  0  0  0  0
  183.1010  176.3030  137.1770 C   0  0  0  0  0  2  0  0  0  0  0  0
  182.8690  176.1890  139.5830 O   0  0  0  0  0  1  0  0  0  0  0  0
  183.4270  176.9250  138.5350 C   0  0  2  0  0  3  0  0  0  0  0  0
  182.9710  178.3870  138.5890 C   0  0  2  0  0  3  0  0  0  0  0  0
  183.7930  179.0890  139.4750 O   0  0  0  0  0  1  0  0  0  0  0  0
  180.7120  179.0280  137.9280 O   0  0  0  0  0  1  0  0  0  0  0  0
  181.4980  178.5610  138.9930 C   0  0  2  0  0  3  0  0  0  0  0  0
  180.2050  179.0210  141.2030 N   0  0  0  0  0  0  0  0  0  0  0  0
  181.3320  179.3900  140.2980 C   0  0  1  0  0  3  0  0  0  0  0  0
  179.5050  177.7960  140.8380 C   0  0  0  0  0  1  0  0  0  0  0  0
  181.5880  178.6310  141.5240 C   0  0  0  0  0  2  0  0  0  0  0  0
  186.3520  178.6710  137.0050 C   0  0  0  0  0  1  0  0  0  0  0  0
  188.9280  179.0380  137.0760 C   0  0  0  0  0  1  0  0  0  0  0  0
  187.7510  177.3190  138.6910 C   0  0  1  0  0  3  0  0  0  0  0  0
  187.7250  178.1730  137.4240 C   0  0  0  0  0  0  0  0  0  0  0  0
  187.9990  176.6750  137.3280 C   0  0  2  0  0  3  0  0  0  0  0  0
  191.7540  177.6330  142.9290 C   0  0  0  0  0  3  0  0  0  0  0  0
  190.0660  176.3820  138.9490 C   0  0  0  0  0  2  0  0  0  0  0  0
  191.1230  177.7750  141.7600 C   0  0  0  0  0  0  0  0  0  0  0  0
  191.8270  177.4710  140.4550 C   0  0  2  0  0  3  0  0  0  0  0  0
  191.3080  176.1740  139.8230 C   0  0  0  0  0  2  0  0  0  0  0  0
  189.0620  177.4240  139.4640 C   0  0  2  0  0  3  0  0  0  0  0  0
  188.7960  177.2870  140.9600 C   0  0  0  0  0  2  0  0  0  0  0  0
  189.6970  178.2480  141.7260 C   0  0  0  0  0  2  0  0  0  0  0  0
  193.2350  177.5320  140.5370 O   0  0  0  0  0  0  0  0  0  0  0  0
  193.7160  177.0950  139.3870 O   0  0  0  0  0  1  0  0  0  0  0  0
  191.1080  177.9220  144.1650 N   0  0  0  0  0  2  0  0  0  0  0  0
  190.2760  176.9180  144.8130 C   0  0  0  0  0  2  0  0  0  0  0  0
  187.9480  177.4630  147.8850 C   0  0  0  0  0  2  0  0  0  0  0  0
  186.8740  178.2030  147.0710 C   0  0  0  0  0  2  0  0  0  0  0  0
  189.1820  177.5990  145.6120 C   0  0  2  0  0  3  0  0  0  0  0  0
  189.2370  177.1640  147.0880 C   0  0  0  0  0  2  0  0  0  0  0  0
  187.8370  177.2890  145.0130 C   0  0  0  0  0  3  0  0  0  0  0  0
  186.7330  177.5790  145.7100 C   0  0  0  0  0  3  0  0  0  0  0  0
  3  6  2  0  0  0  0
  4  7  1  0  0  0  0
  5  4  2  0  0  0  0
  5  3  1  0  0  0  0
  6  2  1  0  0  0  0
  6  1  1  0  0  0  0
  7  2  2  0  0  0  0
  9  8  1  1  0  0  0
  9  3  1  0  0  0  0
  9 10  1  0  0  0  0
 10 12  1  6  0  0  0
 10 13  1  0  0  0  0
 11 12  1  0  0  0  0
 13 15  1  0  0  0  0
 15 16  1  0  0  0  0
 15 14  1  1  0  0  0
 16 19  1  0  0  0  0
 16 17  1  1  0  0  0
 19 18  1  6  0  0  0
 20 23  1  0  0  0  0
 21 19  1  6  0  0  0
 21 20  1  0  0  0  0
 21 23  1  0  0  0  0
 22 20  1  0  0  0  0
 24 27  1  0  0  0  0
 25 27  1  0  0  0  0
 26 27  1  6  0  0  0
 26 34  1  0  0  0  0
 28  1  1  6  0  0  0
 28 27  1  0  0  0  0
 28 26  1  0  0  0  0
 29 39  1  0  0  0  0
 30 33  1  0  0  0  0
 31 29  2  0  0  0  0
 32 37  1  1  0  0  0
 32 31  1  0  0  0  0
 33 32  1  0  0  0  0
 34 30  1  6  0  0  0
 34 35  1  0  0  0  0
 35 36  1  0  0  0  0
 36 31  1  0  0  0  0
 38 37  1  0  0  0  0
 39 40  1  0  0  0  0
 42 41  1  0  0  0  0
 43 40  1  6  0  0  0
 43 44  1  0  0  0  0
 44 41  1  0  0  0  0
 45 43  1  0  0  0  0
 45 46  2  0  0  0  0
 46 42  1  0  0  0  0
M  END
>  <MODEL>
3

>  <REMARK>
 VINA RESULT:      -6.6      3.721      9.934
  Name = 
  15 active torsions:
  status: ('A' for Active; 'I' for Inactive)
    1  A    between atoms: C_4  and  N_29
    2  A    between atoms: C_5  and  C_46
    3  A    between atoms: N_7  and  C_25
    4  A    between atoms: N_7  and  C_41
    5  A    between atoms: C_9  and  O_15
    6  A    between atoms: C_12  and  C_31
    7  A    between atoms: C_12  and  C_45
    8  A    between atoms: C_16  and  C_22
    9  A    between atoms: C_19  and  C_21
   10  A    between atoms: C_19  and  N_29
   11  A    between atoms: C_28  and  C_37
   12  A    between atoms: C_28  and  C_38
   13  A    between atoms: C_28  and  C_46
   14  A    between atoms: C_31  and  C_38
   15  A    between atoms: C_32  and  C_45
                            x       y       z     vdW  Elec       q    Type
                         _______ _______ _______ _____ _____    ______ ____

>  <TORSDO>
F 15

$$$$
=
 OpenBabel11062416263D

 46 50  0  0  1  0  0  0  0  0999 V2000
  187.2510  178.5120  141.4340 N   0  0  0  0  0  2  0  0  0  0  0  0
  188.1230  177.2380  143.3580 C   0  0  0  0  0  3  0  0  0  0  0  0
  189.2660  177.1030  141.2460 C   0  0  0  0  0  0  0  0  0  0  0  0
  190.0300  175.8640  143.1190 C   0  0  0  0  0  3  0  0  0  0  0  0
  190.1390  176.2270  141.8150 N   0  0  0  0  0  0  0  0  0  0  0  0
  188.2120  177.6240  142.0150 C   0  0  0  0  0  0  0  0  0  0  0  0
  189.0290  176.3730  143.8840 N   0  0  0  0  0  0  0  0  0  0  0  0
  188.1240  177.5010  139.1380 N   0  0  0  0  0  1  0  0  0  0  0  0
  189.4150  177.4860  139.8040 C   0  0  2  0  0  3  0  0  0  0  0  0
  190.4470  176.6340  139.0550 C   0  0  2  0  0  3  0  0  0  0  0  0
  192.9980  176.3800  138.0670 S   0  0  0  0  0  1  0  0  0  0  0  0
  191.8670  177.1500  139.2630 C   0  0  0  0  0  2  0  0  0  0  0  0
  190.0780  176.3110  137.5930 C   0  0  0  0  0  2  0  0  0  0  0  0
  190.4050  173.9150  137.5020 O   0  0  0  0  0  1  0  0  0  0  0  0
  189.4590  174.9330  137.3580 C   0  0  2  0  0  3  0  0  0  0  0  0
  188.7850  174.8640  135.9840 C   0  0  2  0  0  3  0  0  0  0  0  0
  189.4700  175.6960  135.0960 O   0  0  0  0  0  1  0  0  0  0  0  0
  187.0980  176.6250  135.9020 O   0  0  0  0  0  1  0  0  0  0  0  0
  187.2940  175.2390  136.0080 C   0  0  2  0  0  3  0  0  0  0  0  0
  185.1990  173.9960  136.9220 N   0  0  0  0  0  0  0  0  0  0  0  0
  186.5360  174.5950  137.2040 C   0  0  1  0  0  3  0  0  0  0  0  0
  184.8480  173.9240  135.5100 C   0  0  0  0  0  1  0  0  0  0  0  0
  186.3860  173.1420  137.1010 C   0  0  0  0  0  2  0  0  0  0  0  0
  185.4130  179.8730  143.0240 C   0  0  0  0  0  1  0  0  0  0  0  0
  183.6240  178.1030  142.3570 C   0  0  0  0  0  1  0  0  0  0  0  0
  185.1200  179.2820  140.5350 C   0  0  1  0  0  3  0  0  0  0  0  0
  184.8700  178.8980  141.9930 C   0  0  0  0  0  0  0  0  0  0  0  0
  185.8760  178.1100  141.1580 C   0  0  2  0  0  3  0  0  0  0  0  0
  180.6490  178.8870  136.8020 C   0  0  0  0  0  3  0  0  0  0  0  0
  184.6850  177.8620  138.5120 C   0  0  0  0  0  2  0  0  0  0  0  0
  181.5490  178.5990  137.7460 C   0  0  0  0  0  0  0  0  0  0  0  0
  182.3180  177.2960  137.7160 C   0  0  2  0  0  3  0  0  0  0  0  0
  183.7830  177.5140  137.3210 C   0  0  0  0  0  2  0  0  0  0  0  0
  184.0500  178.7640  139.5800 C   0  0  2  0  0  3  0  0  0  0  0  0
  183.2820  179.9340  138.9740 C   0  0  0  0  0  2  0  0  0  0  0  0
  181.8060  179.5710  138.8630 C   0  0  0  0  0  2  0  0  0  0  0  0
  181.6830  176.2740  136.9770 O   0  0  0  0  0  0  0  0  0  0  0  0
  182.0190  175.1210  137.5290 O   0  0  0  0  0  1  0  0  0  0  0  0
  179.9130  180.1060  136.8200 N   0  0  0  0  0  2  0  0  0  0  0  0
  179.9210  180.9880  135.6620 C   0  0  0  0  0  2  0  0  0  0  0  0
  180.8570  184.7540  135.3620 C   0  0  0  0  0  2  0  0  0  0  0  0
  180.8390  184.9860  136.8820 C   0  0  0  0  0  2  0  0  0  0  0  0
  179.9970  182.4320  136.1200 C   0  0  2  0  0  3  0  0  0  0  0  0
  180.3550  183.3550  134.9410 C   0  0  0  0  0  2  0  0  0  0  0  0
  181.0030  182.5680  137.2310 C   0  0  0  0  0  3  0  0  0  0  0  0
  181.4040  183.7900  137.5960 C   0  0  0  0  0  3  0  0  0  0  0  0
  1  6  1  0  0  0  0
  2  7  1  0  0  0  0
  3  5  2  0  0  0  0
  3  6  1  0  0  0  0
  4  7  2  0  0  0  0
  5  4  1  0  0  0  0
  6  2  2  0  0  0  0
  9  8  1  6  0  0  0
  9  3  1  0  0  0  0
 10 13  1  6  0  0  0
 10 12  1  0  0  0  0
 10  9  1  0  0  0  0
 11 12  1  0  0  0  0
 15 14  1  6  0  0  0
 15 13  1  0  0  0  0
 16 17  1  6  0  0  0
 16 19  1  0  0  0  0
 16 15  1  0  0  0  0
 19 18  1  1  0  0  0
 20 23  1  0  0  0  0
 20 21  1  0  0  0  0
 21 19  1  6  0  0  0
 22 20  1  0  0  0  0
 23 21  1  0  0  0  0
 26 28  1  0  0  0  0
 26 27  1  1  0  0  0
 27 25  1  0  0  0  0
 27 24  1  0  0  0  0
 28  1  1  1  0  0  0
 28 27  1  0  0  0  0
 29 39  1  0  0  0  0
 29 31  2  0  0  0  0
 31 36  1  0  0  0  0
 32 37  1  6  0  0  0
 32 31  1  0  0  0  0
 33 32  1  0  0  0  0
 33 30  1  0  0  0  0
 34 30  1  6  0  0  0
 34 26  1  0  0  0  0
 35 34  1  0  0  0  0
 36 35  1  0  0  0  0
 37 38  1  0  0  0  0
 40 39  1  0  0  0  0
 41 42  1  0  0  0  0
 42 46  1  0  0  0  0
 43 40  1  6  0  0  0
 43 45  1  0  0  0  0
 44 41  1  0  0  0  0
 44 43  1  0  0  0  0
 45 46  2  0  0  0  0
M  END
>  <MODEL>
4

>  <REMARK>
 VINA RESULT:      -6.5      2.143      2.909
  Name = 
  15 active torsions:
  status: ('A' for Active; 'I' for Inactive)
    1  A    between atoms: C_4  and  N_29
    2  A    between atoms: C_5  and  C_46
    3  A    between atoms: N_7  and  C_25
    4  A    between atoms: N_7  and  C_41
    5  A    between atoms: C_9  and  O_15
    6  A    between atoms: C_12  and  C_31
    7  A    between atoms: C_12  and  C_45
    8  A    between atoms: C_16  and  C_22
    9  A    between atoms: C_19  and  C_21
   10  A    between atoms: C_19  and  N_29
   11  A    between atoms: C_28  and  C_37
   12  A    between atoms: C_28  and  C_38
   13  A    between atoms: C_28  and  C_46
   14  A    between atoms: C_31  and  C_38
   15  A    between atoms: C_32  and  C_45
                            x       y       z     vdW  Elec       q    Type
                         _______ _______ _______ _____ _____    ______ ____

>  <TORSDO>
F 15

$$$$
=
 OpenBabel11062416263D

 46 50  0  0  1  0  0  0  0  0999 V2000
  182.9220  175.5880  135.4270 N   0  0  0  0  0  2  0  0  0  0  0  0
  183.5900  173.5190  136.5910 C   0  0  0  0  0  3  0  0  0  0  0  0
  185.1760  175.3150  136.3890 C   0  0  0  0  0  0  0  0  0  0  0  0
  185.7750  173.2830  137.4560 C   0  0  0  0  0  3  0  0  0  0  0  0
  186.0880  174.5340  137.0300 N   0  0  0  0  0  0  0  0  0  0  0  0
  183.8890  174.8090  136.1380 C   0  0  0  0  0  0  0  0  0  0  0  0
  184.5300  172.7840  137.2400 N   0  0  0  0  0  0  0  0  0  0  0  0
  186.2520  176.6430  134.6610 N   0  0  0  0  0  1  0  0  0  0  0  0
  185.5510  176.6930  135.9330 C   0  0  2  0  0  3  0  0  0  0  0  0
  186.3220  177.4930  136.9920 C   0  0  2  0  0  3  0  0  0  0  0  0
  185.4820  178.3430  139.4650 S   0  0  0  0  0  1  0  0  0  0  0  0
  185.4420  178.5440  137.6590 C   0  0  0  0  0  2  0  0  0  0  0  0
  187.7080  177.9930  136.5390 C   0  0  0  0  0  2  0  0  0  0  0  0
  189.0490  179.7420  137.5390 O   0  0  0  0  0  1  0  0  0  0  0  0
  188.6590  178.4060  137.6630 C   0  0  2  0  0  3  0  0  0  0  0  0
  189.8790  177.4820  137.7140 C   0  0  2  0  0  3  0  0  0  0  0  0
  189.6400  176.3640  136.9130 O   0  0  0  0  0  1  0  0  0  0  0  0
  190.8950  175.7850  139.1430 O   0  0  0  0  0  1  0  0  0  0  0  0
  190.2570  177.0350  139.1360 C   0  0  2  0  0  3  0  0  0  0  0  0
  189.3540  176.8980  141.5720 N   0  0  0  0  0  0  0  0  0  0  0  0
  189.0630  177.1290  140.1270 C   0  0  1  0  0  3  0  0  0  0  0  0
  190.7700  176.7960  141.9000 C   0  0  0  0  0  1  0  0  0  0  0  0
  189.1430  178.2600  141.0530 C   0  0  0  0  0  2  0  0  0  0  0  0
  180.4260  174.4400  135.8880 C   0  0  0  0  0  1  0  0  0  0  0  0
  179.4870  176.8240  136.3500 C   0  0  0  0  0  1  0  0  0  0  0  0
  181.7050  175.9860  137.5010 C   0  0  1  0  0  3  0  0  0  0  0  0
  180.6590  175.8530  136.3960 C   0  0  0  0  0  0  0  0  0  0  0  0
  182.0060  176.5050  136.0970 C   0  0  2  0  0  3  0  0  0  0  0  0
  181.5030  179.4970  142.1610 C   0  0  0  0  0  3  0  0  0  0  0  0
  181.9000  178.4710  137.7970 C   0  0  0  0  0  2  0  0  0  0  0  0
  181.2060  178.8960  141.0060 C   0  0  0  0  0  0  0  0  0  0  0  0
  180.8470  179.7040  139.7790 C   0  0  2  0  0  3  0  0  0  0  0  0
  181.9720  179.6800  138.7380 C   0  0  0  0  0  2  0  0  0  0  0  0
  181.4440  177.1560  138.4450 C   0  0  2  0  0  3  0  0  0  0  0  0
  182.1210  176.9020  139.7880 C   0  0  0  0  0  2  0  0  0  0  0  0
  181.2180  177.3960  140.9130 C   0  0  0  0  0  2  0  0  0  0  0  0
  180.3760  181.0030  140.0670 O   0  0  0  0  0  0  0  0  0  0  0  0
  180.1460  181.6050  138.9130 O   0  0  0  0  0  1  0  0  0  0  0  0
  181.8360  178.7500  143.3280 N   0  0  0  0  0  2  0  0  0  0  0  0
  182.7060  179.3230  144.3440 C   0  0  0  0  0  2  0  0  0  0  0  0
  186.2700  178.4520  145.6460 C   0  0  0  0  0  2  0  0  0  0  0  0
  186.5660  177.4810  144.4910 C   0  0  0  0  0  2  0  0  0  0  0  0
  183.9520  178.4710  144.4900 C   0  0  2  0  0  3  0  0  0  0  0  0
  184.8140  178.9680  145.6650 C   0  0  0  0  0  2  0  0  0  0  0  0
  184.7380  178.4830  143.2080 C   0  0  0  0  0  3  0  0  0  0  0  0
  185.9880  178.0080  143.2080 C   0  0  0  0  0  3  0  0  0  0  0  0
  1  6  1  0  0  0  0
  2  7  1  0  0  0  0
  3  5  2  0  0  0  0
  5  4  1  0  0  0  0
  6  3  1  0  0  0  0
  6  2  2  0  0  0  0
  7  4  2  0  0  0  0
  9  8  1  6  0  0  0
  9  3  1  0  0  0  0
  9 10  1  0  0  0  0
 10 13  1  6  0  0  0
 10 12  1  0  0  0  0
 12 11  1  0  0  0  0
 13 15  1  0  0  0  0
 15 14  1  6  0  0  0
 15 16  1  0  0  0  0
 16 17  1  6  0  0  0
 16 19  1  0  0  0  0
 19 18  1  6  0  0  0
 20 22  1  0  0  0  0
 21 19  1  6  0  0  0
 21 23  1  0  0  0  0
 21 20  1  0  0  0  0
 23 20  1  0  0  0  0
 24 27  1  0  0  0  0
 25 27  1  0  0  0  0
 26 27  1  6  0  0  0
 26 34  1  0  0  0  0
 28  1  1  6  0  0  0
 28 27  1  0  0  0  0
 28 26  1  0  0  0  0
 29 39  1  0  0  0  0
 30 33  1  0  0  0  0
 31 29  2  0  0  0  0
 32 37  1  1  0  0  0
 32 31  1  0  0  0  0
 33 32  1  0  0  0  0
 34 30  1  6  0  0  0
 34 35  1  0  0  0  0
 35 36  1  0  0  0  0
 36 31  1  0  0  0  0
 38 37  1  0  0  0  0
 39 40  1  0  0  0  0
 41 44  1  0  0  0  0
 42 41  1  0  0  0  0
 43 40  1  6  0  0  0
 43 44  1  0  0  0  0
 45 46  2  0  0  0  0
 45 43  1  0  0  0  0
 46 42  1  0  0  0  0
M  END
>  <MODEL>
5

>  <REMARK>
 VINA RESULT:      -6.4      2.976      7.219
  Name = 
  15 active torsions:
  status: ('A' for Active; 'I' for Inactive)
    1  A    between atoms: C_4  and  N_29
    2  A    between atoms: C_5  and  C_46
    3  A    between atoms: N_7  and  C_25
    4  A    between atoms: N_7  and  C_41
    5  A    between atoms: C_9  and  O_15
    6  A    between atoms: C_12  and  C_31
    7  A    between atoms: C_12  and  C_45
    8  A    between atoms: C_16  and  C_22
    9  A    between atoms: C_19  and  C_21
   10  A    between atoms: C_19  and  N_29
   11  A    between atoms: C_28  and  C_37
   12  A    between atoms: C_28  and  C_38
   13  A    between atoms: C_28  and  C_46
   14  A    between atoms: C_31  and  C_38
   15  A    between atoms: C_32  and  C_45
                            x       y       z     vdW  Elec       q    Type
                         _______ _______ _______ _____ _____    ______ ____

>  <TORSDO>
F 15

$$$$
=
 OpenBabel11062416263D

 46 50  0  0  1  0  0  0  0  0999 V2000
  183.6910  177.5270  137.1660 N   0  0  0  0  0  2  0  0  0  0  0  0
  182.9780  175.2210  137.6760 C   0  0  0  0  0  3  0  0  0  0  0  0
  185.2630  175.6310  137.0490 C   0  0  0  0  0  0  0  0  0  0  0  0
  184.5080  173.4290  137.5060 C   0  0  0  0  0  3  0  0  0  0  0  0
  185.4920  174.2930  137.1460 N   0  0  0  0  0  0  0  0  0  0  0  0
  183.9740  176.1300  137.3020 C   0  0  0  0  0  0  0  0  0  0  0  0
  183.2600  173.8960  137.7740 N   0  0  0  0  0  0  0  0  0  0  0  0
  186.3540  176.8000  135.2190 N   0  0  0  0  0  1  0  0  0  0  0  0
  186.3720  176.5580  136.6520 C   0  0  2  0  0  3  0  0  0  0  0  0
  187.7500  176.1030  137.1480 C   0  0  2  0  0  3  0  0  0  0  0  0
  188.3520  178.7810  137.2600 S   0  0  0  0  0  1  0  0  0  0  0  0
  188.4000  177.1460  138.0510 C   0  0  0  0  0  2  0  0  0  0  0  0
  188.6700  175.5220  136.0560 C   0  0  0  0  0  2  0  0  0  0  0  0
  190.4670  176.7030  134.9450 O   0  0  0  0  0  1  0  0  0  0  0  0
  190.1240  175.9930  136.0990 C   0  0  2  0  0  3  0  0  0  0  0  0
  191.0750  174.8120  136.3180 C   0  0  2  0  0  3  0  0  0  0  0  0
  190.3240  173.6460  136.4800 O   0  0  0  0  0  1  0  0  0  0  0  0
  191.3240  175.2570  138.7040 O   0  0  0  0  0  1  0  0  0  0  0  0
  192.0220  174.9960  137.5150 C   0  0  2  0  0  3  0  0  0  0  0  0
  194.5500  175.6080  137.5740 N   0  0  0  0  0  0  0  0  0  0  0  0
  193.1590  176.0160  137.2240 C   0  0  1  0  0  3  0  0  0  0  0  0
  194.6940  174.2160  137.9780 C   0  0  0  0  0  1  0  0  0  0  0  0
  194.0880  175.5920  136.1760 C   0  0  0  0  0  2  0  0  0  0  0  0
  181.5410  179.1870  136.5480 C   0  0  0  0  0  1  0  0  0  0  0  0
  182.0790  180.5710  138.6860 C   0  0  0  0  0  1  0  0  0  0  0  0
  181.9050  177.9420  138.7720 C   0  0  1  0  0  3  0  0  0  0  0  0
  182.0810  179.2290  137.9680 C   0  0  0  0  0  0  0  0  0  0  0  0
  183.2940  178.3620  138.2950 C   0  0  2  0  0  3  0  0  0  0  0  0
  182.9790  179.2780  144.3540 C   0  0  0  0  0  3  0  0  0  0  0  0
  180.5560  179.0640  140.5670 C   0  0  0  0  0  2  0  0  0  0  0  0
  182.4600  178.7250  143.2530 C   0  0  0  0  0  0  0  0  0  0  0  0
  180.9620  178.6390  143.0580 C   0  0  2  0  0  3  0  0  0  0  0  0
  180.4740  179.6260  141.9910 C   0  0  0  0  0  2  0  0  0  0  0  0
  181.7760  178.1800  140.2740 C   0  0  2  0  0  3  0  0  0  0  0  0
  183.0700  178.7730  140.8200 C   0  0  0  0  0  2  0  0  0  0  0  0
  183.3660  178.1720  142.1900 C   0  0  0  0  0  2  0  0  0  0  0  0
  180.2240  178.7010  144.2610 O   0  0  0  0  0  0  0  0  0  0  0  0
  179.6780  177.5130  144.4500 O   0  0  0  0  0  1  0  0  0  0  0  0
  184.3860  179.3600  144.5550 N   0  0  0  0  0  2  0  0  0  0  0  0
  185.0150  178.6420  145.6540 C   0  0  0  0  0  2  0  0  0  0  0  0
  188.0560  176.8610  144.0010 C   0  0  0  0  0  2  0  0  0  0  0  0
  189.0560  177.3640  145.0560 C   0  0  0  0  0  2  0  0  0  0  0  0
  186.4830  178.4180  145.3450 C   0  0  2  0  0  3  0  0  0  0  0  0
  186.6450  177.4750  144.1400 C   0  0  0  0  0  2  0  0  0  0  0  0
  187.1860  177.8660  146.5550 C   0  0  0  0  0  3  0  0  0  0  0  0
  188.4170  177.3630  146.4170 C   0  0  0  0  0  3  0  0  0  0  0  0
  1  6  1  0  0  0  0
  2  7  1  0  0  0  0
  3  5  2  0  0  0  0
  3  6  1  0  0  0  0
  4  7  2  0  0  0  0
  5  4  1  0  0  0  0
  6  2  2  0  0  0  0
  9  8  1  6  0  0  0
  9  3  1  0  0  0  0
  9 10  1  0  0  0  0
 10 13  1  6  0  0  0
 10 12  1  0  0  0  0
 11 12  1  0  0  0  0
 13 15  1  0  0  0  0
 15 14  1  6  0  0  0
 15 16  1  0  0  0  0
 16 17  1  1  0  0  0
 16 19  1  0  0  0  0
 19 18  1  1  0  0  0
 20 22  1  0  0  0  0
 21 19  1  1  0  0  0
 21 20  1  0  0  0  0
 23 21  1  0  0  0  0
 23 20  1  0  0  0  0
 24 27  1  0  0  0  0
 26 27  1  6  0  0  0
 26 34  1  0  0  0  0
 27 28  1  0  0  0  0
 27 25  1  0  0  0  0
 28  1  1  6  0  0  0
 28 26  1  0  0  0  0
 29 39  1  0  0  0  0
 30 33  1  0  0  0  0
 31 29  2  0  0  0  0
 32 31  1  0  0  0  0
 32 37  1  1  0  0  0
 33 32  1  0  0  0  0
 34 30  1  6  0  0  0
 34 35  1  0  0  0  0
 35 36  1  0  0  0  0
 36 31  1  0  0  0  0
 37 38  1  0  0  0  0
 39 40  1  0  0  0  0
 41 44  1  0  0  0  0
 41 42  1  0  0  0  0
 42 46  1  0  0  0  0
 43 40  1  1  0  0  0
 43 45  1  0  0  0  0
 44 43  1  0  0  0  0
 46 45  2  0  0  0  0
M  END
>  <MODEL>
6

>  <REMARK>
 VINA RESULT:      -6.3      3.041      7.649
  Name = 
  15 active torsions:
  status: ('A' for Active; 'I' for Inactive)
    1  A    between atoms: C_4  and  N_29
    2  A    between atoms: C_5  and  C_46
    3  A    between atoms: N_7  and  C_25
    4  A    between atoms: N_7  and  C_41
    5  A    between atoms: C_9  and  O_15
    6  A    between atoms: C_12  and  C_31
    7  A    between atoms: C_12  and  C_45
    8  A    between atoms: C_16  and  C_22
    9  A    between atoms: C_19  and  C_21
   10  A    between atoms: C_19  and  N_29
   11  A    between atoms: C_28  and  C_37
   12  A    between atoms: C_28  and  C_38
   13  A    between atoms: C_28  and  C_46
   14  A    between atoms: C_31  and  C_38
   15  A    between atoms: C_32  and  C_45
                            x       y       z     vdW  Elec       q    Type
                         _______ _______ _______ _____ _____    ______ ____

>  <TORSDO>
F 15

$$$$
=
 OpenBabel11062416263D

 46 50  0  0  1  0  0  0  0  0999 V2000
  179.7750  178.0240  138.6940 N   0  0  0  0  0  2  0  0  0  0  0  0
  179.4060  176.5350  140.6270 C   0  0  0  0  0  3  0  0  0  0  0  0
  179.6500  175.5750  138.4360 C   0  0  0  0  0  0  0  0  0  0  0  0
  179.2460  174.1980  140.3250 C   0  0  0  0  0  3  0  0  0  0  0  0
  179.4520  174.3480  138.9910 N   0  0  0  0  0  0  0  0  0  0  0  0
  179.6150  176.7160  139.2550 C   0  0  0  0  0  0  0  0  0  0  0  0
  179.2300  175.2890  141.1350 N   0  0  0  0  0  0  0  0  0  0  0  0
  178.9410  174.8770  136.2180 N   0  0  0  0  0  1  0  0  0  0  0  0
  179.8760  175.7060  136.9590 C   0  0  2  0  0  3  0  0  0  0  0  0
  181.3320  175.4550  136.5450 C   0  0  2  0  0  3  0  0  0  0  0  0
  181.7500  177.7990  135.1750 S   0  0  0  0  0  1  0  0  0  0  0  0
  181.6220  175.9860  135.1460 C   0  0  0  0  0  2  0  0  0  0  0  0
  181.8440  174.0270  136.8200 C   0  0  0  0  0  2  0  0  0  0  0  0
  182.7720  172.6060  135.0960 O   0  0  0  0  0  1  0  0  0  0  0  0
  183.0790  173.6040  136.0240 C   0  0  2  0  0  3  0  0  0  0  0  0
  184.2050  173.1550  136.9600 C   0  0  2  0  0  3  0  0  0  0  0  0
  184.3690  174.1080  137.9680 O   0  0  0  0  0  1  0  0  0  0  0  0
  185.8270  171.5480  136.1000 O   0  0  0  0  0  1  0  0  0  0  0  0
  185.5450  172.9160  136.2440 C   0  0  2  0  0  3  0  0  0  0  0  0
  187.8830  174.0310  136.0020 N   0  0  0  0  0  0  0  0  0  0  0  0
  186.7110  173.7290  136.8740 C   0  0  1  0  0  3  0  0  0  0  0  0
  187.7050  173.6840  134.5980 C   0  0  0  0  0  1  0  0  0  0  0  0
  186.8810  175.0670  136.3060 C   0  0  0  0  0  2  0  0  0  0  0  0
  179.7620  180.4670  140.0330 C   0  0  0  0  0  1  0  0  0  0  0  0
  181.9800  181.0730  138.8120 C   0  0  0  0  0  1  0  0  0  0  0  0
  181.6830  178.7520  140.0250 C   0  0  1  0  0  3  0  0  0  0  0  0
  181.0700  180.0090  139.4100 C   0  0  0  0  0  0  0  0  0  0  0  0
  181.0670  178.6980  138.6280 C   0  0  2  0  0  3  0  0  0  0  0  0
  187.3690  178.1970  141.2260 C   0  0  0  0  0  3  0  0  0  0  0  0
  183.6340  177.8310  138.7420 C   0  0  0  0  0  2  0  0  0  0  0  0
  186.2160  178.5830  140.6720 C   0  0  0  0  0  0  0  0  0  0  0  0
  186.0400  178.5920  139.1700 C   0  0  2  0  0  3  0  0  0  0  0  0
  185.1210  177.4580  138.7010 C   0  0  0  0  0  2  0  0  0  0  0  0
  183.2040  178.7090  139.9260 C   0  0  2  0  0  3  0  0  0  0  0  0
  183.7990  178.2370  141.2480 C   0  0  0  0  0  2  0  0  0  0  0  0
  185.0720  179.0210  141.5430 C   0  0  0  0  0  2  0  0  0  0  0  0
  187.2540  178.6640  138.4520 O   0  0  0  0  0  0  0  0  0  0  0  0
  186.9560  178.9650  137.2010 O   0  0  0  0  0  1  0  0  0  0  0  0
  187.5520  178.1890  142.6390 N   0  0  0  0  0  2  0  0  0  0  0  0
  188.8660  177.9280  143.2080 C   0  0  0  0  0  2  0  0  0  0  0  0
  189.5820  176.8470  146.8790 C   0  0  0  0  0  2  0  0  0  0  0  0
  188.3770  177.6140  147.4490 C   0  0  0  0  0  2  0  0  0  0  0  0
  188.8010  178.0440  144.7190 C   0  0  2  0  0  3  0  0  0  0  0  0
  189.8370  177.1160  145.3790 C   0  0  0  0  0  2  0  0  0  0  0  0
  187.4120  177.7240  145.2010 C   0  0  0  0  0  3  0  0  0  0  0  0
  187.2090  177.5200  146.5070 C   0  0  0  0  0  3  0  0  0  0  0  0
  1  6  1  0  0  0  0
  2  7  1  0  0  0  0
  3  5  2  0  0  0  0
  3  6  1  0  0  0  0
  4  7  2  0  0  0  0
  5  4  1  0  0  0  0
  6  2  2  0  0  0  0
  9  8  1  6  0  0  0
  9  3  1  0  0  0  0
 10 12  1  6  0  0  0
 10 13  1  0  0  0  0
 10  9  1  0  0  0  0
 12 11  1  0  0  0  0
 15 14  1  6  0  0  0
 15 13  1  0  0  0  0
 15 16  1  0  0  0  0
 16 17  1  1  0  0  0
 19 18  1  1  0  0  0
 19 16  1  0  0  0  0
 20 23  1  0  0  0  0
 20 21  1  0  0  0  0
 21 19  1  6  0  0  0
 22 20  1  0  0  0  0
 23 21  1  0  0  0  0
 25 27  1  0  0  0  0
 26 27  1  6  0  0  0
 27 24  1  0  0  0  0
 28  1  1  1  0  0  0
 28 27  1  0  0  0  0
 28 26  1  0  0  0  0
 29 39  1  0  0  0  0
 31 29  2  0  0  0  0
 31 36  1  0  0  0  0
 32 37  1  6  0  0  0
 32 31  1  0  0  0  0
 33 30  1  0  0  0  0
 33 32  1  0  0  0  0
 34 30  1  6  0  0  0
 34 26  1  0  0  0  0
 34 35  1  0  0  0  0
 35 36  1  0  0  0  0
 38 37  1  0  0  0  0
 39 40  1  0  0  0  0
 41 42  1  0  0  0  0
 43 40  1  6  0  0  0
 43 45  1  0  0  0  0
 43 44  1  0  0  0  0
 44 41  1  0  0  0  0
 45 46  2  0  0  0  0
 46 42  1  0  0  0  0
M  END
>  <MODEL>
7

>  <REMARK>
 VINA RESULT:      -6.3      3.512      8.898
  Name = 
  15 active torsions:
  status: ('A' for Active; 'I' for Inactive)
    1  A    between atoms: C_4  and  N_29
    2  A    between atoms: C_5  and  C_46
    3  A    between atoms: N_7  and  C_25
    4  A    between atoms: N_7  and  C_41
    5  A    between atoms: C_9  and  O_15
    6  A    between atoms: C_12  and  C_31
    7  A    between atoms: C_12  and  C_45
    8  A    between atoms: C_16  and  C_22
    9  A    between atoms: C_19  and  C_21
   10  A    between atoms: C_19  and  N_29
   11  A    between atoms: C_28  and  C_37
   12  A    between atoms: C_28  and  C_38
   13  A    between atoms: C_28  and  C_46
   14  A    between atoms: C_31  and  C_38
   15  A    between atoms: C_32  and  C_45
                            x       y       z     vdW  Elec       q    Type
                         _______ _______ _______ _____ _____    ______ ____

>  <TORSDO>
F 15

$$$$
=
 OpenBabel11062416263D

 46 50  0  0  1  0  0  0  0  0999 V2000
  186.8540  175.8890  135.7670 N   0  0  0  0  0  2  0  0  0  0  0  0
  187.0890  173.4480  135.5040 C   0  0  0  0  0  3  0  0  0  0  0  0
  189.0640  174.7970  135.7480 C   0  0  0  0  0  0  0  0  0  0  0  0
  189.2290  172.4500  135.4440 C   0  0  0  0  0  3  0  0  0  0  0  0
  189.8100  173.6660  135.6160 N   0  0  0  0  0  0  0  0  0  0  0  0
  187.6640  174.7120  135.6780 C   0  0  0  0  0  0  0  0  0  0  0  0
  187.8760  172.3460  135.3940 N   0  0  0  0  0  0  0  0  0  0  0  0
  190.6560  176.4000  134.8490 N   0  0  0  0  0  1  0  0  0  0  0  0
  189.7360  176.1240  135.9400 C   0  0  2  0  0  3  0  0  0  0  0  0
  190.4010  176.2740  137.3130 C   0  0  2  0  0  3  0  0  0  0  0  0
  193.0570  176.3760  138.0070 S   0  0  0  0  0  1  0  0  0  0  0  0
  191.6370  175.3910  137.4440 C   0  0  0  0  0  2  0  0  0  0  0  0
  189.4300  176.2180  138.5100 C   0  0  0  0  0  2  0  0  0  0  0  0
  189.7910  178.6070  138.6400 O   0  0  0  0  0  1  0  0  0  0  0  0
  189.3490  177.4900  139.3540 C   0  0  2  0  0  3  0  0  0  0  0  0
  190.1320  177.3300  140.6610 C   0  0  2  0  0  3  0  0  0  0  0  0
  190.5560  176.0050  140.7800 O   0  0  0  0  0  1  0  0  0  0  0  0
  188.1100  178.3390  141.5830 O   0  0  0  0  0  1  0  0  0  0  0  0
  189.3360  177.7390  141.9120 C   0  0  2  0  0  3  0  0  0  0  0  0
  190.2370  178.0940  144.3260 N   0  0  0  0  0  0  0  0  0  0  0  0
  190.1870  178.5700  142.9130 C   0  0  1  0  0  3  0  0  0  0  0  0
  189.6280  176.7900  144.5530 C   0  0  0  0  0  1  0  0  0  0  0  0
  191.3720  177.8710  143.4130 C   0  0  0  0  0  2  0  0  0  0  0  0
  186.9780  178.6340  136.2260 C   0  0  0  0  0  1  0  0  0  0  0  0
  186.2230  178.1930  138.6780 C   0  0  0  0  0  1  0  0  0  0  0  0
  184.9390  177.1170  136.6430 C   0  0  1  0  0  3  0  0  0  0  0  0
  186.1880  177.7880  137.2110 C   0  0  0  0  0  0  0  0  0  0  0  0
  186.1650  176.2770  136.9930 C   0  0  2  0  0  3  0  0  0  0  0  0
  181.0770  177.8470  140.9600 C   0  0  0  0  0  3  0  0  0  0  0  0
  182.5960  176.2980  137.0170 C   0  0  0  0  0  2  0  0  0  0  0  0
  181.9430  177.2950  140.1050 C   0  0  0  0  0  0  0  0  0  0  0  0
  181.5940  176.0270  139.3570 C   0  0  2  0  0  3  0  0  0  0  0  0
  181.3240  176.3020  137.8730 C   0  0  0  0  0  2  0  0  0  0  0  0
  183.8430  176.9000  137.6810 C   0  0  2  0  0  3  0  0  0  0  0  0
  183.5430  178.2090  138.4030 C   0  0  0  0  0  2  0  0  0  0  0  0
  183.2870  177.9280  139.8790 C   0  0  0  0  0  2  0  0  0  0  0  0
  180.5880  175.2540  139.9780 O   0  0  0  0  0  0  0  0  0  0  0  0
  179.7040  174.9390  139.0480 O   0  0  0  0  0  1  0  0  0  0  0  0
  181.3930  179.0370  141.6770 N   0  0  0  0  0  2  0  0  0  0  0  0
  181.4750  179.0200  143.1300 C   0  0  0  0  0  2  0  0  0  0  0  0
  184.5700  178.9620  145.4900 C   0  0  0  0  0  2  0  0  0  0  0  0
  185.5550  178.6230  144.3600 C   0  0  0  0  0  2  0  0  0  0  0  0
  182.8770  178.6310  143.5580 C   0  0  2  0  0  3  0  0  0  0  0  0
  183.0880  178.9280  145.0540 C   0  0  0  0  0  2  0  0  0  0  0  0
  183.8930  179.3590  142.7200 C   0  0  0  0  0  3  0  0  0  0  0  0
  185.1740  179.3530  143.1020 C   0  0  0  0  0  3  0  0  0  0  0  0
  2  6  1  0  0  0  0
  3  9  1  0  0  0  0
  4  5  2  0  0  0  0
  5  3  1  0  0  0  0
  6  3  2  0  0  0  0
  6  1  1  0  0  0  0
  7  4  1  0  0  0  0
  7  2  2  0  0  0  0
  9  8  1  6  0  0  0
  9 10  1  0  0  0  0
 10 12  1  1  0  0  0
 10 13  1  0  0  0  0
 12 11  1  0  0  0  0
 13 15  1  0  0  0  0
 15 14  1  6  0  0  0
 15 16  1  0  0  0  0
 16 17  1  1  0  0  0
 16 19  1  0  0  0  0
 19 18  1  6  0  0  0
 20 22  1  0  0  0  0
 21 19  1  6  0  0  0
 21 23  1  0  0  0  0
 21 20  1  0  0  0  0
 23 20  1  0  0  0  0
 24 27  1  0  0  0  0
 26 28  1  0  0  0  0
 26 27  1  1  0  0  0
 26 34  1  0  0  0  0
 27 25  1  0  0  0  0
 28  1  1  6  0  0  0
 28 27  1  0  0  0  0
 29 39  1  0  0  0  0
 30 33  1  0  0  0  0
 31 29  2  0  0  0  0
 32 37  1  1  0  0  0
 32 31  1  0  0  0  0
 33 32  1  0  0  0  0
 34 30  1  6  0  0  0
 34 35  1  0  0  0  0
 35 36  1  0  0  0  0
 36 31  1  0  0  0  0
 38 37  1  0  0  0  0
 39 40  1  0  0  0  0
 42 41  1  0  0  0  0
 43 40  1  6  0  0  0
 43 44  1  0  0  0  0
 44 41  1  0  0  0  0
 45 46  2  0  0  0  0
 45 43  1  0  0  0  0
 46 42  1  0  0  0  0
M  END
>  <MODEL>
8

>  <REMARK>
 VINA RESULT:      -6.2      3.045      6.911
  Name = 
  15 active torsions:
  status: ('A' for Active; 'I' for Inactive)
    1  A    between atoms: C_4  and  N_29
    2  A    between atoms: C_5  and  C_46
    3  A    between atoms: N_7  and  C_25
    4  A    between atoms: N_7  and  C_41
    5  A    between atoms: C_9  and  O_15
    6  A    between atoms: C_12  and  C_31
    7  A    between atoms: C_12  and  C_45
    8  A    between atoms: C_16  and  C_22
    9  A    between atoms: C_19  and  C_21
   10  A    between atoms: C_19  and  N_29
   11  A    between atoms: C_28  and  C_37
   12  A    between atoms: C_28  and  C_38
   13  A    between atoms: C_28  and  C_46
   14  A    between atoms: C_31  and  C_38
   15  A    between atoms: C_32  and  C_45
                            x       y       z     vdW  Elec       q    Type
                         _______ _______ _______ _____ _____    ______ ____

>  <TORSDO>
F 15

$$$$
=
 OpenBabel11062416263D

 46 50  0  0  1  0  0  0  0  0999 V2000
  186.5410  175.9770  136.5760 N   0  0  0  0  0  2  0  0  0  0  0  0
  186.4020  173.5510  136.9990 C   0  0  0  0  0  3  0  0  0  0  0  0
  188.5630  174.5740  136.7390 C   0  0  0  0  0  0  0  0  0  0  0  0
  188.3630  172.2380  137.1010 C   0  0  0  0  0  3  0  0  0  0  0  0
  189.1240  173.3430  136.8900 N   0  0  0  0  0  0  0  0  0  0  0  0
  187.1640  174.7040  136.7760 C   0  0  0  0  0  0  0  0  0  0  0  0
  187.0100  172.3470  137.1590 N   0  0  0  0  0  0  0  0  0  0  0  0
  190.2520  175.6000  135.3240 N   0  0  0  0  0  1  0  0  0  0  0  0
  189.4310  175.7750  136.5100 C   0  0  2  0  0  3  0  0  0  0  0  0
  190.2590  176.1670  137.7390 C   0  0  2  0  0  3  0  0  0  0  0  0
  192.9970  176.3040  137.5610 S   0  0  0  0  0  1  0  0  0  0  0  0
  191.5110  175.3070  137.8770 C   0  0  0  0  0  2  0  0  0  0  0  0
  189.4450  176.3470  139.0360 C   0  0  0  0  0  2  0  0  0  0  0  0
  191.1880  177.5120  140.2450 O   0  0  0  0  0  1  0  0  0  0  0  0
  189.8350  177.5470  139.8990 C   0  0  2  0  0  3  0  0  0  0  0  0
  188.9520  177.6320  141.1480 C   0  0  2  0  0  3  0  0  0  0  0  0
  188.5740  178.9620  141.3500 O   0  0  0  0  0  1  0  0  0  0  0  0
  188.9710  175.9310  142.8960 O   0  0  0  0  0  1  0  0  0  0  0  0
  189.6210  177.0790  142.4170 C   0  0  2  0  0  3  0  0  0  0  0  0
  190.6600  177.8030  144.6890 N   0  0  0  0  0  0  0  0  0  0  0  0
  189.8340  178.1720  143.5020 C   0  0  1  0  0  3  0  0  0  0  0  0
  191.3250  176.5110  144.5920 C   0  0  0  0  0  1  0  0  0  0  0  0
  191.2170  178.6410  143.6130 C   0  0  0  0  0  2  0  0  0  0  0  0
  187.2580  178.6460  136.9300 C   0  0  0  0  0  1  0  0  0  0  0  0
  185.9470  178.6320  139.1790 C   0  0  0  0  0  1  0  0  0  0  0  0
  184.8630  177.7010  136.9640 C   0  0  1  0  0  3  0  0  0  0  0  0
  186.1030  178.1080  137.7580 C   0  0  0  0  0  0  0  0  0  0  0  0
  185.7440  176.6320  137.6070 C   0  0  2  0  0  3  0  0  0  0  0  0
  179.5150  179.2480  138.7220 C   0  0  0  0  0  3  0  0  0  0  0  0
  183.0000  176.4670  138.1060 C   0  0  0  0  0  2  0  0  0  0  0  0
  180.7920  178.8550  138.7230 C   0  0  0  0  0  0  0  0  0  0  0  0
  181.2370  177.6560  139.5310 C   0  0  2  0  0  3  0  0  0  0  0  0
  181.5590  176.4570  138.6320 C   0  0  0  0  0  2  0  0  0  0  0  0
  183.5640  177.8500  137.7500 C   0  0  2  0  0  3  0  0  0  0  0  0
  182.5730  178.6990  136.9630 C   0  0  0  0  0  2  0  0  0  0  0  0
  181.8120  179.6110  137.9190 C   0  0  0  0  0  2  0  0  0  0  0  0
  180.3750  177.3380  140.6040 O   0  0  0  0  0  0  0  0  0  0  0  0
  180.6670  178.1560  141.6000 O   0  0  0  0  0  1  0  0  0  0  0  0
  179.0820  180.3790  137.9720 N   0  0  0  0  0  2  0  0  0  0  0  0
  179.3170  181.7260  138.4710 C   0  0  0  0  0  2  0  0  0  0  0  0
  180.7190  182.7320  134.9820 C   0  0  0  0  0  2  0  0  0  0  0  0
  180.7540  184.2330  135.3140 C   0  0  0  0  0  2  0  0  0  0  0  0
  179.5830  182.6620  137.3090 C   0  0  2  0  0  3  0  0  0  0  0  0
  180.0370  181.8710  136.0680 C   0  0  0  0  0  2  0  0  0  0  0  0
  180.6150  183.6860  137.6970 C   0  0  0  0  0  3  0  0  0  0  0  0
  181.1740  184.4380  136.7430 C   0  0  0  0  0  3  0  0  0  0  0  0
  1  6  1  0  0  0  0
  2  7  1  0  0  0  0
  3  6  1  0  0  0  0
  3  5  2  0  0  0  0
  4  7  2  0  0  0  0
  5  4  1  0  0  0  0
  6  2  2  0  0  0  0
  9  8  1  6  0  0  0
  9  3  1  0  0  0  0
  9 10  1  0  0  0  0
 10 12  1  1  0  0  0
 10 13  1  0  0  0  0
 11 12  1  0  0  0  0
 13 15  1  0  0  0  0
 15 14  1  1  0  0  0
 15 16  1  0  0  0  0
 16 17  1  1  0  0  0
 16 19  1  0  0  0  0
 19 18  1  1  0  0  0
 21 19  1  6  0  0  0
 21 23  1  0  0  0  0
 21 20  1  0  0  0  0
 22 20  1  0  0  0  0
 23 20  1  0  0  0  0
 24 27  1  0  0  0  0
 26 28  1  0  0  0  0
 26 34  1  0  0  0  0
 26 27  1  1  0  0  0
 27 25  1  0  0  0  0
 28  1  1  6  0  0  0
 28 27  1  0  0  0  0
 29 31  2  0  0  0  0
 30 33  1  0  0  0  0
 31 32  1  0  0  0  0
 32 37  1  1  0  0  0
 33 32  1  0  0  0  0
 34 35  1  6  0  0  0
 34 30  1  0  0  0  0
 35 36  1  0  0  0  0
 36 31  1  0  0  0  0
 37 38  1  0  0  0  0
 39 40  1  0  0  0  0
 39 29  1  0  0  0  0
 41 42  1  0  0  0  0
 41 44  1  0  0  0  0
 42 46  1  0  0  0  0
 43 45  1  0  0  0  0
 43 40  1  1  0  0  0
 44 43  1  0  0  0  0
 46 45  2  0  0  0  0
M  END
>  <MODEL>
9

>  <REMARK>
 VINA RESULT:      -6.2      2.627      5.511
  Name = 
  15 active torsions:
  status: ('A' for Active; 'I' for Inactive)
    1  A    between atoms: C_4  and  N_29
    2  A    between atoms: C_5  and  C_46
    3  A    between atoms: N_7  and  C_25
    4  A    between atoms: N_7  and  C_41
    5  A    between atoms: C_9  and  O_15
    6  A    between atoms: C_12  and  C_31
    7  A    between atoms: C_12  and  C_45
    8  A    between atoms: C_16  and  C_22
    9  A    between atoms: C_19  and  C_21
   10  A    between atoms: C_19  and  N_29
   11  A    between atoms: C_28  and  C_37
   12  A    between atoms: C_28  and  C_38
   13  A    between atoms: C_28  and  C_46
   14  A    between atoms: C_31  and  C_38
   15  A    between atoms: C_32  and  C_45
                            x       y       z     vdW  Elec       q    Type
                         _______ _______ _______ _____ _____    ______ ____

>  <TORSDO>
F 15

$$$$
