=
 OpenBabel11062412353D

 51 60  0  0  1  0  0  0  0  0999 V2000
  188.5610  178.7760  139.4820 O   0  0  0  0  0  0  0  0  0  0  0  0
  186.2500  175.7670  136.8870 N   0  0  0  0  0  0  0  0  0  0  0  0
  190.0070  176.7400  136.8370 C   0  0  0  0  0  1  0  0  0  0  0  0
  188.8250  177.5560  138.8550 C   0  0  2  0  0  3  0  0  0  0  0  0
  185.6980  176.9370  136.8330 C   0  0  0  0  0  0  0  0  0  0  0  0
  187.4870  175.8210  137.5290 N   0  0  0  0  0  2  0  0  0  0  0  0
  189.0340  177.7860  137.3590 C   0  0  2  0  0  3  0  0  0  0  0  0
  187.7190  177.2070  137.8760 C   0  0  2  0  0  0  0  0  0  0  0  0
  186.5020  178.0260  137.4720 C   0  0  2  0  0  3  0  0  0  0  0  0
  185.7560  178.5310  138.6950 C   0  0  0  0  0  1  0  0  0  0  0  0
  184.4530  177.1670  136.2370 O   0  0  0  0  0  0  0  0  0  0  0  0
  182.0580  177.5590  136.4940 C   0  0  1  0  0  3  0  0  0  0  0  0
  181.1260  176.9090  137.4860 C   0  0  0  0  0  2  0  0  0  0  0  0
  182.4520  178.5640  137.5580 C   0  0  2  0  0  3  0  0  0  0  0  0
  183.2290  176.6120  136.7330 C   0  0  2  0  0  0  0  0  0  0  0  0
  182.1720  177.3820  138.4680 C   0  0  2  0  0  3  0  0  0  0  0  0
  183.2530  176.5300  138.1530 O   0  0  0  0  0  0  0  0  0  0  0  0
  180.4170  181.3230  139.0780 C   0  0  0  0  0  3  0  0  0  0  0  0
  180.8320  180.2030  136.6170 N   0  0  0  0  0  0  0  0  0  0  0  0
  179.7450  181.8390  137.9710 C   0  0  0  0  0  3  0  0  0  0  0  0
  181.2670  180.2730  138.9300 N   0  0  0  0  0  0  0  0  0  0  0  0
  181.4700  179.7020  137.7100 C   0  0  0  0  0  0  0  0  0  0  0  0
  179.9750  181.2530  136.7270 C   0  0  0  0  0  3  0  0  0  0  0  0
  182.9960  175.3210  136.1620 O   0  0  0  0  0  0  0  0  0  0  0  0
  182.1250  173.2770  136.9400 C   0  0  0  0  0  2  0  0  0  0  0  0
  183.1130  174.1570  136.9180 C   0  0  0  0  0  3  0  0  0  0  0  0
  188.6900  178.5080  140.8460 C   0  0  0  0  0  2  0  0  0  0  0  0
  189.4750  177.2230  141.0660 C   0  0  0  0  0  2  0  0  0  0  0  0
  190.6110  177.4420  142.0540 C   0  0  0  0  0  2  0  0  0  0  0  0
  191.2130  176.9120  144.2230 C   0  0  1  0  0  3  0  0  0  0  0  0
  191.9880  176.1920  143.3700 O   0  0  0  0  0  0  0  0  0  0  0  0
  190.6610  176.3540  143.0140 N   0  0  0  0  0  0  0  0  0  0  0  0
  190.8530  176.1170  145.3200 O   0  0  0  0  0  0  0  0  0  0  0  0
  188.0360  178.3630  146.0810 N   0  0  1  0  0  0  0  0  0  0  0  0
  188.0440  178.2830  147.5410 C   0  0  0  0  0  2  0  0  0  0  0  0
  190.1100  176.9480  146.1860 C   0  0  1  0  0  0  0  0  0  0  0  0
  191.9450  176.4330  147.6710 C   0  0  0  0  0  1  0  0  0  0  0  0
  189.4090  178.1940  145.6080 C   0  0  0  0  0  2  0  0  0  0  0  0
  189.6400  176.2920  147.3750 N   0  0  1  0  0  0  0  0  0  0  0  0
  190.7400  177.2270  147.4510 N   0  0  0  0  0  0  0  0  0  0  0  0
  188.4730  176.8970  148.0440 C   0  0  0  0  0  2  0  0  0  0  0  0
  182.5350  179.1840  141.9510 C   0  0  0  0  0  2  0  0  0  0  0  0
  187.1500  177.3550  145.4800 C   0  0  2  0  0  3  0  0  0  0  0  0
  187.4370  177.2200  144.0920 O   0  0  0  0  0  0  0  0  0  0  0  0
  185.4000  177.9460  144.0290 C   0  0  0  0  0  0  0  0  0  0  0  0
  184.1570  178.4010  143.4870 N   0  0  0  0  0  0  0  0  0  0  0  0
  185.6960  177.8460  145.4870 C   0  0  0  0  0  2  0  0  0  0  0  0
  183.9130  178.5570  142.0660 C   0  0  0  0  0  2  0  0  0  0  0  0
  183.0220  178.7720  144.3060 C   0  0  0  0  0  2  0  0  0  0  0  0
  181.8980  179.0820  143.3310 C   0  0  0  0  0  2  0  0  0  0  0  0
  186.3890  177.5870  143.2910 N   0  0  0  0  0  0  0  0  0  0  0  0
  1 27  1  0  0  0  0
  2  6  1  0  0  0  0
  4  1  1  1  0  0  0
  5  2  2  0  0  0  0
  5  9  1  0  0  0  0
  7  3  1  6  0  0  0
  7  8  1  0  0  0  0
  7  4  1  0  0  0  0
  8  6  1  6  0  0  0
  8  4  1  0  0  0  0
  9  8  1  0  0  0  0
  9 10  1  1  0  0  0
 11 15  1  0  0  0  0
 11  5  1  0  0  0  0
 12 15  1  0  0  0  0
 12 13  1  1  0  0  0
 12 14  1  0  0  0  0
 14 22  1  1  0  0  0
 14 16  1  0  0  0  0
 15 24  1  6  0  0  0
 15 17  1  0  0  0  0
 16 13  1  6  0  0  0
 17 16  1  0  0  0  0
 19 23  1  0  0  0  0
 19 22  2  0  0  0  0
 20 18  1  0  0  0  0
 21 18  2  0  0  0  0
 22 21  1  0  0  0  0
 23 20  2  0  0  0  0
 24 26  1  0  0  0  0
 26 25  2  0  0  0  0
 27 28  1  0  0  0  0
 28 29  1  0  0  0  0
 29 32  1  0  0  0  0
 30 33  1  1  0  0  0
 31 30  1  0  0  0  0
 32 31  1  0  0  0  0
 32 30  1  0  0  0  0
 34 38  1  6  0  0  0
 34 35  1  0  0  0  0
 35 41  1  0  0  0  0
 36 33  1  6  0  0  0
 36 39  1  0  0  0  0
 36 40  1  0  0  0  0
 38 36  1  0  0  0  0
 39 40  1  0  0  0  0
 39 41  1  1  0  0  0
 40 37  1  0  0  0  0
 42 48  1  0  0  0  0
 42 50  1  0  0  0  0
 43 47  1  6  0  0  0
 43 34  1  0  0  0  0
 44 43  1  0  0  0  0
 45 47  1  0  0  0  0
 46 45  1  0  0  0  0
 46 49  1  0  0  0  0
 48 46  1  0  0  0  0
 50 49  1  0  0  0  0
 51 45  2  0  0  0  0
 51 44  1  0  0  0  0
M  END
>  <MODEL>
1

>  <REMARK>
 VINA RESULT:      -7.9      0.000      0.000
  Name = 
  13 active torsions:
  status: ('A' for Active; 'I' for Inactive)
    1  A    between atoms: N_5  and  C_11
    2  A    between atoms: C_7  and  O_43
    3  A    between atoms: C_10  and  O_22
    4  A    between atoms: C_12  and  O_45
    5  A    between atoms: C_17  and  O_45
    6  A    between atoms: C_18  and  N_29
    7  A    between atoms: C_18  and  C_34
    8  A    between atoms: O_21  and  C_26
    9  A    between atoms: O_21  and  C_28
   10  A    between atoms: O_22  and  C_28
   11  A    between atoms: C_27  and  C_36
   12  A    between atoms: C_30  and  C_34
   13  A    between atoms: C_30  and  O_43
                            x       y       z     vdW  Elec       q    Type
                         _______ _______ _______ _____ _____    ______ ____

>  <TORSDO>
F 13

$$$$
=
 OpenBabel11062412353D

 51 60  0  0  1  0  0  0  0  0999 V2000
  182.7670  178.5010  142.8620 O   0  0  0  0  0  0  0  0  0  0  0  0
  181.0520  179.7960  138.7980 N   0  0  0  0  0  0  0  0  0  0  0  0
  179.2640  178.2970  141.8990 C   0  0  0  0  0  1  0  0  0  0  0  0
  181.5730  179.0500  142.3860 C   0  0  2  0  0  3  0  0  0  0  0  0
  182.0130  178.9410  138.6380 C   0  0  0  0  0  0  0  0  0  0  0  0
  180.6830  179.8970  140.1390 N   0  0  0  0  0  2  0  0  0  0  0  0
  180.7350  177.9560  141.7250 C   0  0  2  0  0  3  0  0  0  0  0  0
  181.5080  178.9610  140.8720 C   0  0  2  0  0  0  0  0  0  0  0  0
  182.4850  178.3040  139.9080 C   0  0  2  0  0  3  0  0  0  0  0  0
  183.9080  178.7580  140.1820 C   0  0  0  0  0  1  0  0  0  0  0  0
  182.5700  178.6450  137.3900 O   0  0  0  0  0  0  0  0  0  0  0  0
  182.4100  176.2550  136.9180 C   0  0  1  0  0  3  0  0  0  0  0  0
  182.0910  175.6040  135.5960 C   0  0  0  0  0  2  0  0  0  0  0  0
  183.8600  176.3580  136.4900 C   0  0  2  0  0  3  0  0  0  0  0  0
  182.0230  177.6690  136.4950 C   0  0  2  0  0  0  0  0  0  0  0  0
  183.2210  176.4870  135.1200 C   0  0  2  0  0  3  0  0  0  0  0  0
  182.6290  177.7660  135.2120 O   0  0  0  0  0  0  0  0  0  0  0  0
  186.4790  173.7000  136.1110 C   0  0  0  0  0  3  0  0  0  0  0  0
  184.2870  174.2070  137.6670 N   0  0  0  0  0  0  0  0  0  0  0  0
  186.1200  172.7890  137.1030 C   0  0  0  0  0  3  0  0  0  0  0  0
  185.7410  174.8270  135.9220 N   0  0  0  0  0  0  0  0  0  0  0  0
  184.6410  175.0800  136.6850 C   0  0  0  0  0  0  0  0  0  0  0  0
  185.0010  173.0700  137.8840 C   0  0  0  0  0  3  0  0  0  0  0  0
  180.6040  177.8240  136.3910 O   0  0  0  0  0  0  0  0  0  0  0  0
  179.8260  179.8220  135.4200 C   0  0  0  0  0  2  0  0  0  0  0  0
  180.0220  178.5170  135.3320 C   0  0  0  0  0  3  0  0  0  0  0  0
  183.2280  179.4200  143.8060 C   0  0  0  0  0  2  0  0  0  0  0  0
  184.7500  179.4360  143.8360 C   0  0  0  0  0  2  0  0  0  0  0  0
  185.2910  178.2390  144.6010 C   0  0  0  0  0  2  0  0  0  0  0  0
  187.3130  177.5350  145.4740 C   0  0  1  0  0  3  0  0  0  0  0  0
  186.4450  177.7340  146.5000 O   0  0  0  0  0  0  0  0  0  0  0  0
  186.3910  178.6430  145.4580 N   0  0  0  0  0  0  0  0  0  0  0  0
  188.5900  177.9850  145.8410 O   0  0  0  0  0  0  0  0  0  0  0  0
  189.7080  176.5830  142.6260 N   0  0  1  0  0  0  0  0  0  0  0  0
  191.1330  176.4200  142.9100 C   0  0  0  0  0  2  0  0  0  0  0  0
  189.5070  177.2830  145.0300 C   0  0  1  0  0  0  0  0  0  0  0  0
  190.6080  176.9840  147.1600 C   0  0  0  0  0  1  0  0  0  0  0  0
  188.9710  176.4110  143.8760 C   0  0  0  0  0  2  0  0  0  0  0  0
  190.8280  177.8470  145.0090 N   0  0  1  0  0  0  0  0  0  0  0  0
  190.5730  176.6290  145.7440 N   0  0  0  0  0  0  0  0  0  0  0  0
  191.6680  177.5160  143.8430 C   0  0  0  0  0  2  0  0  0  0  0  0
  187.1020  178.1150  136.3920 C   0  0  0  0  0  2  0  0  0  0  0  0
  189.4140  177.8910  142.0230 C   0  0  2  0  0  3  0  0  0  0  0  0
  188.0090  178.1210  142.0180 O   0  0  0  0  0  0  0  0  0  0  0  0
  188.4340  178.0880  139.8970 C   0  0  0  0  0  0  0  0  0  0  0  0
  188.2070  178.1270  138.4850 N   0  0  0  0  0  0  0  0  0  0  0  0
  189.7690  177.8870  140.5290 C   0  0  0  0  0  2  0  0  0  0  0  0
  186.8920  178.2550  137.8900 C   0  0  0  0  0  2  0  0  0  0  0  0
  189.2700  178.0210  137.5080 C   0  0  0  0  0  2  0  0  0  0  0  0
  188.6030  178.2190  136.1560 C   0  0  0  0  0  2  0  0  0  0  0  0
  187.4860  178.2160  140.7560 N   0  0  0  0  0  0  0  0  0  0  0  0
  1 27  1  0  0  0  0
  2  6  1  0  0  0  0
  4  1  1  1  0  0  0
  5  2  2  0  0  0  0
  5  9  1  0  0  0  0
  7  3  1  6  0  0  0
  7  4  1  0  0  0  0
  8  6  1  6  0  0  0
  8  7  1  0  0  0  0
  8  4  1  0  0  0  0
  9 10  1  1  0  0  0
  9  8  1  0  0  0  0
 11  5  1  0  0  0  0
 12 13  1  6  0  0  0
 14 22  1  6  0  0  0
 14 12  1  0  0  0  0
 15 24  1  6  0  0  0
 15 12  1  0  0  0  0
 15 11  1  0  0  0  0
 16 17  1  0  0  0  0
 16 13  1  1  0  0  0
 16 14  1  0  0  0  0
 17 15  1  0  0  0  0
 18 20  1  0  0  0  0
 19 23  1  0  0  0  0
 20 23  2  0  0  0  0
 21 18  2  0  0  0  0
 21 22  1  0  0  0  0
 22 19  2  0  0  0  0
 26 25  2  0  0  0  0
 26 24  1  0  0  0  0
 27 28  1  0  0  0  0
 28 29  1  0  0  0  0
 29 32  1  0  0  0  0
 30 33  1  1  0  0  0
 30 31  1  0  0  0  0
 32 30  1  0  0  0  0
 32 31  1  0  0  0  0
 34 35  1  1  0  0  0
 34 38  1  0  0  0  0
 35 41  1  0  0  0  0
 36 40  1  0  0  0  0
 36 33  1  1  0  0  0
 38 36  1  0  0  0  0
 39 41  1  6  0  0  0
 39 36  1  0  0  0  0
 39 40  1  0  0  0  0
 40 37  1  0  0  0  0
 42 48  1  0  0  0  0
 43 47  1  6  0  0  0
 43 34  1  0  0  0  0
 44 43  1  0  0  0  0
 45 47  1  0  0  0  0
 45 51  2  0  0  0  0
 46 45  1  0  0  0  0
 48 46  1  0  0  0  0
 49 46  1  0  0  0  0
 50 42  1  0  0  0  0
 50 49  1  0  0  0  0
 51 44  1  0  0  0  0
M  END
>  <MODEL>
2

>  <REMARK>
 VINA RESULT:      -7.9      1.984      6.068
  Name = 
  13 active torsions:
  status: ('A' for Active; 'I' for Inactive)
    1  A    between atoms: N_5  and  C_11
    2  A    between atoms: C_7  and  O_43
    3  A    between atoms: C_10  and  O_22
    4  A    between atoms: C_12  and  O_45
    5  A    between atoms: C_17  and  O_45
    6  A    between atoms: C_18  and  N_29
    7  A    between atoms: C_18  and  C_34
    8  A    between atoms: O_21  and  C_26
    9  A    between atoms: O_21  and  C_28
   10  A    between atoms: O_22  and  C_28
   11  A    between atoms: C_27  and  C_36
   12  A    between atoms: C_30  and  C_34
   13  A    between atoms: C_30  and  O_43
                            x       y       z     vdW  Elec       q    Type
                         _______ _______ _______ _____ _____    ______ ____

>  <TORSDO>
F 13

$$$$
=
 OpenBabel11062412353D

 51 60  0  0  1  0  0  0  0  0999 V2000
  183.6930  178.5450  143.1450 O   0  0  0  0  0  0  0  0  0  0  0  0
  180.4260  179.8680  140.1950 N   0  0  0  0  0  0  0  0  0  0  0  0
  180.1240  178.5930  143.8480 C   0  0  0  0  0  1  0  0  0  0  0  0
  182.4480  179.1740  143.2170 C   0  0  2  0  0  3  0  0  0  0  0  0
  181.1620  178.9370  139.6750 C   0  0  0  0  0  0  0  0  0  0  0  0
  180.7010  180.0310  141.5520 N   0  0  0  0  0  2  0  0  0  0  0  0
  181.3400  178.1330  143.0590 C   0  0  2  0  0  3  0  0  0  0  0  0
  181.7090  179.0520  141.8970 C   0  0  2  0  0  0  0  0  0  0  0  0
  182.1130  178.2960  140.6390 C   0  0  2  0  0  3  0  0  0  0  0  0
  183.5330  178.6440  140.2270 C   0  0  0  0  0  1  0  0  0  0  0  0
  181.0850  178.5660  138.3290 O   0  0  0  0  0  0  0  0  0  0  0  0
  181.7030  176.2400  137.9220 C   0  0  1  0  0  3  0  0  0  0  0  0
  181.0040  175.2520  137.0220 C   0  0  0  0  0  2  0  0  0  0  0  0
  182.4560  176.7690  136.7180 C   0  0  2  0  0  3  0  0  0  0  0  0
  180.5990  177.2920  137.8900 C   0  0  2  0  0  0  0  0  0  0  0  0
  181.1760  176.3620  136.0120 C   0  0  2  0  0  3  0  0  0  0  0  0
  180.2720  177.3280  136.5060 O   0  0  0  0  0  0  0  0  0  0  0  0
  185.1700  175.1580  134.6910 C   0  0  0  0  0  3  0  0  0  0  0  0
  184.3720  175.2900  137.3040 N   0  0  0  0  0  0  0  0  0  0  0  0
  185.9030  174.4820  135.6640 C   0  0  0  0  0  3  0  0  0  0  0  0
  184.0680  175.8730  135.0430 N   0  0  0  0  0  0  0  0  0  0  0  0
  183.6570  175.9330  136.3410 C   0  0  0  0  0  0  0  0  0  0  0  0
  185.4790  174.5660  136.9890 C   0  0  0  0  0  3  0  0  0  0  0  0
  179.4630  176.8960  138.6620 O   0  0  0  0  0  0  0  0  0  0  0  0
  179.2330  175.9830  140.8200 C   0  0  0  0  0  2  0  0  0  0  0  0
  179.5160  175.8140  139.5390 C   0  0  0  0  0  3  0  0  0  0  0  0
  184.5460  179.3630  143.8880 C   0  0  0  0  0  2  0  0  0  0  0  0
  184.3500  179.1260  145.3790 C   0  0  0  0  0  2  0  0  0  0  0  0
  185.2750  178.0280  145.8810 C   0  0  0  0  0  2  0  0  0  0  0  0
  187.5430  177.5940  146.0000 C   0  0  1  0  0  3  0  0  0  0  0  0
  187.0650  177.7450  147.2630 O   0  0  0  0  0  0  0  0  0  0  0  0
  186.5460  178.5920  146.2980 N   0  0  0  0  0  0  0  0  0  0  0  0
  188.8040  178.1990  145.8960 O   0  0  0  0  0  0  0  0  0  0  0  0
  189.4830  176.5600  142.6700 N   0  0  1  0  0  0  0  0  0  0  0  0
  190.9060  176.2670  142.8380 C   0  0  0  0  0  2  0  0  0  0  0  0
  189.5710  177.3760  145.0450 C   0  0  1  0  0  0  0  0  0  0  0  0
  190.8280  177.0560  147.0830 C   0  0  0  0  0  1  0  0  0  0  0  0
  188.8510  176.5150  143.9870 C   0  0  0  0  0  2  0  0  0  0  0  0
  190.9330  177.8030  144.8810 N   0  0  1  0  0  0  0  0  0  0  0  0
  190.6300  176.6480  145.6950 N   0  0  0  0  0  0  0  0  0  0  0  0
  191.6270  177.3410  143.6640 C   0  0  0  0  0  2  0  0  0  0  0  0
  186.7580  178.0670  136.4820 C   0  0  0  0  0  2  0  0  0  0  0  0
  189.2620  177.8650  142.0310 C   0  0  2  0  0  3  0  0  0  0  0  0
  187.8790  178.1990  142.0680 O   0  0  0  0  0  0  0  0  0  0  0  0
  188.2190  178.0610  139.9350 C   0  0  0  0  0  0  0  0  0  0  0  0
  187.9410  178.0690  138.5320 N   0  0  0  0  0  0  0  0  0  0  0  0
  189.5590  177.7830  140.5260 C   0  0  0  0  0  2  0  0  0  0  0  0
  186.6160  178.2740  137.9800 C   0  0  0  0  0  2  0  0  0  0  0  0
  188.9550  177.8510  137.5220 C   0  0  0  0  0  2  0  0  0  0  0  0
  188.2520  178.0520  136.1890 C   0  0  0  0  0  2  0  0  0  0  0  0
  187.3170  178.2900  140.8220 N   0  0  0  0  0  0  0  0  0  0  0  0
  1 27  1  0  0  0  0
  2  6  1  0  0  0  0
  4  1  1  6  0  0  0
  5  2  2  0  0  0  0
  5  9  1  0  0  0  0
  7  4  1  0  0  0  0
  7  3  1  1  0  0  0
  8  6  1  6  0  0  0
  8  7  1  0  0  0  0
  8  4  1  0  0  0  0
  9 10  1  6  0  0  0
  9  8  1  0  0  0  0
 11  5  1  0  0  0  0
 12 13  1  6  0  0  0
 14 22  1  6  0  0  0
 14 12  1  0  0  0  0
 15 12  1  0  0  0  0
 15 11  1  1  0  0  0
 15 24  1  0  0  0  0
 16 17  1  0  0  0  0
 16 14  1  0  0  0  0
 16 13  1  1  0  0  0
 17 15  1  0  0  0  0
 18 21  2  0  0  0  0
 18 20  1  0  0  0  0
 20 23  2  0  0  0  0
 21 22  1  0  0  0  0
 22 19  2  0  0  0  0
 23 19  1  0  0  0  0
 24 26  1  0  0  0  0
 26 25  2  0  0  0  0
 27 28  1  0  0  0  0
 28 29  1  0  0  0  0
 29 32  1  0  0  0  0
 30 33  1  1  0  0  0
 30 32  1  0  0  0  0
 30 31  1  0  0  0  0
 32 31  1  0  0  0  0
 34 35  1  1  0  0  0
 34 38  1  0  0  0  0
 35 41  1  0  0  0  0
 36 40  1  0  0  0  0
 36 33  1  1  0  0  0
 38 36  1  0  0  0  0
 39 41  1  6  0  0  0
 39 36  1  0  0  0  0
 39 40  1  0  0  0  0
 40 37  1  0  0  0  0
 42 48  1  0  0  0  0
 43 47  1  6  0  0  0
 43 44  1  0  0  0  0
 43 34  1  0  0  0  0
 45 47  1  0  0  0  0
 45 51  2  0  0  0  0
 46 45  1  0  0  0  0
 48 46  1  0  0  0  0
 49 46  1  0  0  0  0
 50 42  1  0  0  0  0
 50 49  1  0  0  0  0
 51 44  1  0  0  0  0
M  END
>  <MODEL>
3

>  <REMARK>
 VINA RESULT:      -7.7      2.138      5.935
  Name = 
  13 active torsions:
  status: ('A' for Active; 'I' for Inactive)
    1  A    between atoms: N_5  and  C_11
    2  A    between atoms: C_7  and  O_43
    3  A    between atoms: C_10  and  O_22
    4  A    between atoms: C_12  and  O_45
    5  A    between atoms: C_17  and  O_45
    6  A    between atoms: C_18  and  N_29
    7  A    between atoms: C_18  and  C_34
    8  A    between atoms: O_21  and  C_26
    9  A    between atoms: O_21  and  C_28
   10  A    between atoms: O_22  and  C_28
   11  A    between atoms: C_27  and  C_36
   12  A    between atoms: C_30  and  C_34
   13  A    between atoms: C_30  and  O_43
                            x       y       z     vdW  Elec       q    Type
                         _______ _______ _______ _____ _____    ______ ____

>  <TORSDO>
F 13

$$$$
=
 OpenBabel11062412353D

 51 60  0  0  1  0  0  0  0  0999 V2000
  182.8080  178.6110  143.3080 O   0  0  0  0  0  0  0  0  0  0  0  0
  179.5950  179.5850  140.1670 N   0  0  0  0  0  0  0  0  0  0  0  0
  179.3330  179.4040  144.0350 C   0  0  0  0  0  1  0  0  0  0  0  0
  181.6740  179.4230  143.2260 C   0  0  2  0  0  3  0  0  0  0  0  0
  180.1550  178.4450  139.9110 C   0  0  0  0  0  0  0  0  0  0  0  0
  179.9730  180.0630  141.4220 N   0  0  0  0  0  2  0  0  0  0  0  0
  180.4190  178.5640  143.3820 C   0  0  2  0  0  3  0  0  0  0  0  0
  180.8460  179.0670  142.0040 C   0  0  2  0  0  0  0  0  0  0  0  0
  181.0590  177.9470  140.9960 C   0  0  2  0  0  3  0  0  0  0  0  0
  182.4870  177.9450  140.4790 C   0  0  0  0  0  1  0  0  0  0  0  0
  179.9440  177.7420  138.7200 O   0  0  0  0  0  0  0  0  0  0  0  0
  181.3420  179.2180  137.3700 C   0  0  1  0  0  3  0  0  0  0  0  0
  181.8260  178.9820  135.9610 C   0  0  0  0  0  2  0  0  0  0  0  0
  180.0400  179.7510  136.8080 C   0  0  2  0  0  3  0  0  0  0  0  0
  180.8400  177.7970  137.6040 C   0  0  2  0  0  0  0  0  0  0  0  0
  180.3540  178.7500  135.7130 C   0  0  2  0  0  3  0  0  0  0  0  0
  180.1490  177.5280  136.3900 O   0  0  0  0  0  0  0  0  0  0  0  0
  179.4120  182.9230  134.9070 C   0  0  0  0  0  3  0  0  0  0  0  0
  180.8710  182.0840  137.0640 N   0  0  0  0  0  0  0  0  0  0  0  0
  180.1900  183.8440  135.6060 C   0  0  0  0  0  3  0  0  0  0  0  0
  179.3840  181.6210  135.2980 N   0  0  0  0  0  0  0  0  0  0  0  0
  180.1180  181.1930  136.3630 C   0  0  0  0  0  0  0  0  0  0  0  0
  180.9230  183.3940  136.7020 C   0  0  0  0  0  3  0  0  0  0  0  0
  181.9180  176.8730  137.7810 O   0  0  0  0  0  0  0  0  0  0  0  0
  181.2620  174.6310  138.0780 C   0  0  0  0  0  2  0  0  0  0  0  0
  181.8340  175.5580  137.3270 C   0  0  0  0  0  3  0  0  0  0  0  0
  183.3420  178.8730  144.5710 C   0  0  0  0  0  2  0  0  0  0  0  0
  184.8540  179.0270  144.4900 C   0  0  0  0  0  2  0  0  0  0  0  0
  185.5500  178.0750  145.4500 C   0  0  0  0  0  2  0  0  0  0  0  0
  187.7180  177.5970  146.0960 C   0  0  1  0  0  3  0  0  0  0  0  0
  187.0390  178.0710  147.1740 O   0  0  0  0  0  0  0  0  0  0  0  0
  186.7700  178.6750  145.9580 N   0  0  0  0  0  0  0  0  0  0  0  0
  189.0230  178.1090  146.0960 O   0  0  0  0  0  0  0  0  0  0  0  0
  189.5330  176.5610  142.7940 N   0  0  1  0  0  0  0  0  0  0  0  0
  190.9720  176.3100  142.8600 C   0  0  0  0  0  2  0  0  0  0  0  0
  189.7560  177.3290  145.1760 C   0  0  1  0  0  0  0  0  0  0  0  0
  191.1560  177.0050  147.1190 C   0  0  0  0  0  1  0  0  0  0  0  0
  188.9930  176.4690  144.1490 C   0  0  0  0  0  2  0  0  0  0  0  0
  191.0900  177.8030  144.9320 N   0  0  1  0  0  0  0  0  0  0  0  0
  190.8780  176.6210  145.7380 N   0  0  0  0  0  0  0  0  0  0  0  0
  191.7140  177.3880  143.6610 C   0  0  0  0  0  2  0  0  0  0  0  0
  185.9900  178.1260  137.0510 C   0  0  0  0  0  2  0  0  0  0  0  0
  189.2310  177.8720  142.2010 C   0  0  2  0  0  3  0  0  0  0  0  0
  187.8670  178.2080  142.4310 O   0  0  0  0  0  0  0  0  0  0  0  0
  187.9100  178.0880  140.2710 C   0  0  0  0  0  0  0  0  0  0  0  0
  187.4430  178.1070  138.9190 N   0  0  0  0  0  0  0  0  0  0  0  0
  189.3180  177.8020  140.6700 C   0  0  0  0  0  2  0  0  0  0  0  0
  186.0560  178.3200  138.5560 C   0  0  0  0  0  2  0  0  0  0  0  0
  188.3080  177.8970  137.7770 C   0  0  0  0  0  2  0  0  0  0  0  0
  187.4290  178.1100  136.5550 C   0  0  0  0  0  2  0  0  0  0  0  0
  187.1390  178.3110  141.2750 N   0  0  0  0  0  0  0  0  0  0  0  0
  1 27  1  0  0  0  0
  2  6  1  0  0  0  0
  4  1  1  6  0  0  0
  4  7  1  0  0  0  0
  5  2  2  0  0  0  0
  5  9  1  0  0  0  0
  7  3  1  1  0  0  0
  8  6  1  6  0  0  0
  8  4  1  0  0  0  0
  8  7  1  0  0  0  0
  9 10  1  6  0  0  0
  9  8  1  0  0  0  0
 11  5  1  0  0  0  0
 12 13  1  6  0  0  0
 12 15  1  0  0  0  0
 14 22  1  6  0  0  0
 14 12  1  0  0  0  0
 15 24  1  1  0  0  0
 15 11  1  0  0  0  0
 16 13  1  1  0  0  0
 16 17  1  0  0  0  0
 16 14  1  0  0  0  0
 17 15  1  0  0  0  0
 18 21  2  0  0  0  0
 18 20  1  0  0  0  0
 20 23  2  0  0  0  0
 21 22  1  0  0  0  0
 22 19  2  0  0  0  0
 23 19  1  0  0  0  0
 26 24  1  0  0  0  0
 26 25  2  0  0  0  0
 28 27  1  0  0  0  0
 28 29  1  0  0  0  0
 29 32  1  0  0  0  0
 30 33  1  1  0  0  0
 30 31  1  0  0  0  0
 32 30  1  0  0  0  0
 32 31  1  0  0  0  0
 34 35  1  1  0  0  0
 34 38  1  0  0  0  0
 35 41  1  0  0  0  0
 36 40  1  0  0  0  0
 36 33  1  1  0  0  0
 38 36  1  0  0  0  0
 39 41  1  6  0  0  0
 39 36  1  0  0  0  0
 39 40  1  0  0  0  0
 40 37  1  0  0  0  0
 42 48  1  0  0  0  0
 43 47  1  6  0  0  0
 43 44  1  0  0  0  0
 43 34  1  0  0  0  0
 45 47  1  0  0  0  0
 45 51  2  0  0  0  0
 46 45  1  0  0  0  0
 48 46  1  0  0  0  0
 49 46  1  0  0  0  0
 50 42  1  0  0  0  0
 50 49  1  0  0  0  0
 51 44  1  0  0  0  0
M  END
>  <MODEL>
4

>  <REMARK>
 VINA RESULT:      -7.2      2.006      5.459
  Name = 
  13 active torsions:
  status: ('A' for Active; 'I' for Inactive)
    1  A    between atoms: N_5  and  C_11
    2  A    between atoms: C_7  and  O_43
    3  A    between atoms: C_10  and  O_22
    4  A    between atoms: C_12  and  O_45
    5  A    between atoms: C_17  and  O_45
    6  A    between atoms: C_18  and  N_29
    7  A    between atoms: C_18  and  C_34
    8  A    between atoms: O_21  and  C_26
    9  A    between atoms: O_21  and  C_28
   10  A    between atoms: O_22  and  C_28
   11  A    between atoms: C_27  and  C_36
   12  A    between atoms: C_30  and  C_34
   13  A    between atoms: C_30  and  O_43
                            x       y       z     vdW  Elec       q    Type
                         _______ _______ _______ _____ _____    ______ ____

>  <TORSDO>
F 13

$$$$
=
 OpenBabel11062412353D

 51 60  0  0  1  0  0  0  0  0999 V2000
  185.0460  177.4230  137.1030 O   0  0  0  0  0  0  0  0  0  0  0  0
  189.1000  179.1790  138.3750 N   0  0  0  0  0  0  0  0  0  0  0  0
  188.1880  176.9490  135.3320 C   0  0  0  0  0  1  0  0  0  0  0  0
  186.1990  177.8910  136.4680 C   0  0  2  0  0  3  0  0  0  0  0  0
  188.5740  178.4930  139.3410 C   0  0  0  0  0  0  0  0  0  0  0  0
  188.3950  178.9970  137.1850 N   0  0  0  0  0  2  0  0  0  0  0  0
  187.2980  176.8320  136.5590 C   0  0  2  0  0  3  0  0  0  0  0  0
  187.3300  178.0590  137.4670 C   0  0  2  0  0  0  0  0  0  0  0  0
  187.3610  177.7100  138.9480 C   0  0  2  0  0  3  0  0  0  0  0  0
  186.1530  178.2860  139.6680 C   0  0  0  0  0  1  0  0  0  0  0  0
  189.0880  178.4920  140.6420 O   0  0  0  0  0  0  0  0  0  0  0  0
  189.1240  176.8230  142.4230 C   0  0  1  0  0  3  0  0  0  0  0  0
  190.3250  176.0820  142.9570 C   0  0  0  0  0  2  0  0  0  0  0  0
  189.4570  177.9790  143.3440 C   0  0  2  0  0  3  0  0  0  0  0  0
  189.8260  177.3960  141.1950 C   0  0  2  0  0  0  0  0  0  0  0  0
  190.8700  177.4840  143.0990 C   0  0  2  0  0  3  0  0  0  0  0  0
  191.0580  177.8460  141.7470 O   0  0  0  0  0  0  0  0  0  0  0  0
  189.4260  177.7370  147.0870 C   0  0  0  0  0  3  0  0  0  0  0  0
  187.6520  177.5730  145.0110 N   0  0  0  0  0  0  0  0  0  0  0  0
  188.0770  177.5090  147.3570 C   0  0  0  0  0  3  0  0  0  0  0  0
  189.8490  177.8740  145.8020 N   0  0  0  0  0  0  0  0  0  0  0  0
  188.9740  177.7800  144.7620 C   0  0  0  0  0  0  0  0  0  0  0  0
  187.1930  177.4310  146.2830 C   0  0  0  0  0  3  0  0  0  0  0  0
  190.0600  176.3960  140.2000 O   0  0  0  0  0  0  0  0  0  0  0  0
  191.0920  176.0180  138.1180 C   0  0  0  0  0  2  0  0  0  0  0  0
  191.1770  176.4410  139.3690 C   0  0  0  0  0  3  0  0  0  0  0  0
  184.1290  177.2250  136.0700 C   0  0  0  0  0  2  0  0  0  0  0  0
  183.6640  175.7750  136.0380 C   0  0  0  0  0  2  0  0  0  0  0  0
  182.2640  175.6410  136.6140 C   0  0  0  0  0  2  0  0  0  0  0  0
  180.3940  176.9930  136.7590 C   0  0  1  0  0  3  0  0  0  0  0  0
  180.0640  175.8710  136.0670 O   0  0  0  0  0  0  0  0  0  0  0  0
  181.3170  176.4050  135.8220 N   0  0  0  0  0  0  0  0  0  0  0  0
  179.7730  178.1080  136.1780 O   0  0  0  0  0  0  0  0  0  0  0  0
  179.7900  179.8630  139.4140 N   0  0  1  0  0  0  0  0  0  0  0  0
  180.8380  180.8490  139.1540 C   0  0  0  0  0  2  0  0  0  0  0  0
  180.0780  179.2090  137.0050 C   0  0  1  0  0  0  0  0  0  0  0  0
  180.8080  180.1320  134.8950 C   0  0  0  0  0  1  0  0  0  0  0  0
  179.1130  179.5740  138.1510 C   0  0  0  0  0  2  0  0  0  0  0  0
  181.4740  179.5470  137.0480 N   0  0  1  0  0  0  0  0  0  0  0  0
  180.5500  180.3790  136.3110 N   0  0  0  0  0  0  0  0  0  0  0  0
  181.9340  180.3010  138.2290 C   0  0  0  0  0  2  0  0  0  0  0  0
  183.8000  179.0150  144.9990 C   0  0  0  0  0  2  0  0  0  0  0  0
  180.3290  178.6310  140.0090 C   0  0  2  0  0  3  0  0  0  0  0  0
  179.6140  178.3100  141.1970 O   0  0  0  0  0  0  0  0  0  0  0  0
  181.5990  178.6580  141.9850 C   0  0  0  0  0  0  0  0  0  0  0  0
  182.6550  178.7950  142.9390 N   0  0  0  0  0  0  0  0  0  0  0  0
  181.7600  178.8610  140.5170 C   0  0  0  0  0  2  0  0  0  0  0  0
  182.4640  178.6600  144.3700 C   0  0  0  0  0  2  0  0  0  0  0  0
  184.0220  179.1020  142.5710 C   0  0  0  0  0  2  0  0  0  0  0  0
  184.8160  179.0440  143.8660 C   0  0  0  0  0  2  0  0  0  0  0  0
  180.3960  178.3510  142.3200 N   0  0  0  0  0  0  0  0  0  0  0  0
  2  5  2  0  0  0  0
  4  7  1  0  0  0  0
  4  1  1  1  0  0  0
  4  8  1  0  0  0  0
  5 11  1  0  0  0  0
  6  2  1  0  0  0  0
  7  3  1  6  0  0  0
  7  8  1  0  0  0  0
  8  6  1  6  0  0  0
  8  9  1  0  0  0  0
  9  5  1  0  0  0  0
  9 10  1  1  0  0  0
 11 15  1  0  0  0  0
 12 13  1  1  0  0  0
 12 14  1  0  0  0  0
 14 22  1  1  0  0  0
 15 24  1  6  0  0  0
 15 17  1  0  0  0  0
 15 12  1  0  0  0  0
 16 13  1  6  0  0  0
 16 14  1  0  0  0  0
 17 16  1  0  0  0  0
 18 20  1  0  0  0  0
 19 23  1  0  0  0  0
 21 18  2  0  0  0  0
 22 19  2  0  0  0  0
 22 21  1  0  0  0  0
 23 20  2  0  0  0  0
 25 26  2  0  0  0  0
 26 24  1  0  0  0  0
 27  1  1  0  0  0  0
 28 27  1  0  0  0  0
 28 29  1  0  0  0  0
 30 33  1  6  0  0  0
 31 30  1  0  0  0  0
 32 31  1  0  0  0  0
 32 29  1  0  0  0  0
 32 30  1  0  0  0  0
 34 38  1  6  0  0  0
 34 43  1  0  0  0  0
 35 34  1  0  0  0  0
 36 33  1  6  0  0  0
 36 39  1  0  0  0  0
 36 38  1  0  0  0  0
 37 40  1  0  0  0  0
 39 41  1  1  0  0  0
 40 36  1  0  0  0  0
 40 39  1  0  0  0  0
 41 35  1  0  0  0  0
 43 47  1  1  0  0  0
 43 44  1  0  0  0  0
 44 51  1  0  0  0  0
 45 51  2  0  0  0  0
 45 46  1  0  0  0  0
 46 48  1  0  0  0  0
 47 45  1  0  0  0  0
 48 42  1  0  0  0  0
 49 46  1  0  0  0  0
 49 50  1  0  0  0  0
 50 42  1  0  0  0  0
M  END
>  <MODEL>
5

>  <REMARK>
 VINA RESULT:      -7.0      2.034      9.314
  Name = 
  13 active torsions:
  status: ('A' for Active; 'I' for Inactive)
    1  A    between atoms: N_5  and  C_11
    2  A    between atoms: C_7  and  O_43
    3  A    between atoms: C_10  and  O_22
    4  A    between atoms: C_12  and  O_45
    5  A    between atoms: C_17  and  O_45
    6  A    between atoms: C_18  and  N_29
    7  A    between atoms: C_18  and  C_34
    8  A    between atoms: O_21  and  C_26
    9  A    between atoms: O_21  and  C_28
   10  A    between atoms: O_22  and  C_28
   11  A    between atoms: C_27  and  C_36
   12  A    between atoms: C_30  and  C_34
   13  A    between atoms: C_30  and  O_43
                            x       y       z     vdW  Elec       q    Type
                         _______ _______ _______ _____ _____    ______ ____

>  <TORSDO>
F 13

$$$$
=
 OpenBabel11062412353D

 51 60  0  0  1  0  0  0  0  0999 V2000
  184.4080  179.2260  140.9660 O   0  0  0  0  0  0  0  0  0  0  0  0
  186.6500  177.3160  144.4950 N   0  0  0  0  0  0  0  0  0  0  0  0
  183.2730  179.2270  144.4220 C   0  0  0  0  0  1  0  0  0  0  0  0
  184.0720  178.5940  142.1650 C   0  0  2  0  0  3  0  0  0  0  0  0
  187.4130  178.1540  143.8670 C   0  0  0  0  0  0  0  0  0  0  0  0
  185.3290  177.4090  144.0560 N   0  0  0  0  0  2  0  0  0  0  0  0
  184.2750  179.5630  143.3290 C   0  0  2  0  0  3  0  0  0  0  0  0
  185.2920  178.4570  143.0590 C   0  0  2  0  0  0  0  0  0  0  0  0
  186.7040  178.9790  142.8390 C   0  0  2  0  0  3  0  0  0  0  0  0
  187.2190  178.5950  141.4630 C   0  0  0  0  0  1  0  0  0  0  0  0
  188.7850  178.2710  144.1170 O   0  0  0  0  0  0  0  0  0  0  0  0
  190.8680  177.2470  143.3650 C   0  0  1  0  0  3  0  0  0  0  0  0
  191.2600  175.7940  143.4610 C   0  0  0  0  0  2  0  0  0  0  0  0
  190.1210  176.9370  142.0840 C   0  0  2  0  0  3  0  0  0  0  0  0
  189.6540  177.1450  144.2820 C   0  0  2  0  0  0  0  0  0  0  0  0
  189.9270  175.6010  142.7770 C   0  0  2  0  0  3  0  0  0  0  0  0
  189.0320  175.9560  143.8110 O   0  0  0  0  0  0  0  0  0  0  0  0
  191.3260  176.2660  138.5960 C   0  0  0  0  0  3  0  0  0  0  0  0
  192.2450  177.4420  140.8890 N   0  0  0  0  0  0  0  0  0  0  0  0
  192.6000  176.8330  138.6100 C   0  0  0  0  0  3  0  0  0  0  0  0
  190.5540  176.2980  139.7150 N   0  0  0  0  0  0  0  0  0  0  0  0
  191.0100  176.8710  140.8640 C   0  0  0  0  0  0  0  0  0  0  0  0
  193.0450  177.4280  139.7890 C   0  0  0  0  0  3  0  0  0  0  0  0
  190.0340  177.0010  145.6540 O   0  0  0  0  0  0  0  0  0  0  0  0
  188.6580  177.2830  147.5440 C   0  0  0  0  0  2  0  0  0  0  0  0
  189.4840  177.8040  146.6520 C   0  0  0  0  0  3  0  0  0  0  0  0
  183.6990  178.5290  139.9870 C   0  0  0  0  0  2  0  0  0  0  0  0
  182.6510  177.6280  140.6260 C   0  0  0  0  0  2  0  0  0  0  0  0
  181.5050  177.3580  139.6630 C   0  0  0  0  0  2  0  0  0  0  0  0
  180.6190  175.5580  138.5140 C   0  0  1  0  0  3  0  0  0  0  0  0
  179.6970  175.9940  139.4130 O   0  0  0  0  0  0  0  0  0  0  0  0
  181.0180  176.0010  139.8270 N   0  0  0  0  0  0  0  0  0  0  0  0
  180.6080  174.1570  138.4690 O   0  0  0  0  0  0  0  0  0  0  0  0
  183.1210  174.5520  135.8070 N   0  0  1  0  0  0  0  0  0  0  0  0
  183.0240  173.2360  135.1790 C   0  0  0  0  0  2  0  0  0  0  0  0
  181.2020  173.7950  137.2410 C   0  0  1  0  0  0  0  0  0  0  0  0
  179.3340  172.2630  137.2020 C   0  0  0  0  0  1  0  0  0  0  0  0
  181.8080  174.8970  136.3490 C   0  0  0  0  0  2  0  0  0  0  0  0
  181.6560  172.4330  137.1840 N   0  0  1  0  0  0  0  0  0  0  0  0
  180.4630  172.8290  136.4690 N   0  0  0  0  0  0  0  0  0  0  0  0
  182.7070  172.1290  136.1940 C   0  0  0  0  0  2  0  0  0  0  0  0
  188.9840  178.2210  136.2040 C   0  0  0  0  0  2  0  0  0  0  0  0
  184.1450  174.5830  136.8630 C   0  0  2  0  0  3  0  0  0  0  0  0
  184.0310  175.7840  137.6180 O   0  0  0  0  0  0  0  0  0  0  0  0
  186.0010  176.0180  136.7530 C   0  0  0  0  0  0  0  0  0  0  0  0
  187.2600  176.6170  136.4330 N   0  0  0  0  0  0  0  0  0  0  0  0
  185.5480  174.6910  136.2490 C   0  0  0  0  0  2  0  0  0  0  0  0
  187.6540  177.9390  136.8790 C   0  0  0  0  0  2  0  0  0  0  0  0
  188.2610  175.9670  135.6130 C   0  0  0  0  0  2  0  0  0  0  0  0
  189.4630  176.8980  135.6240 C   0  0  0  0  0  2  0  0  0  0  0  0
  185.1330  176.5900  137.5110 N   0  0  0  0  0  0  0  0  0  0  0  0
  4  1  1  6  0  0  0
  4  8  1  0  0  0  0
  4  7  1  0  0  0  0
  5 11  1  0  0  0  0
  5  2  2  0  0  0  0
  6  2  1  0  0  0  0
  7  3  1  1  0  0  0
  8  7  1  0  0  0  0
  8  6  1  1  0  0  0
  9 10  1  6  0  0  0
  9  8  1  0  0  0  0
  9  5  1  0  0  0  0
 12 13  1  1  0  0  0
 12 15  1  0  0  0  0
 14 22  1  6  0  0  0
 14 16  1  0  0  0  0
 14 12  1  0  0  0  0
 15 11  1  6  0  0  0
 15 24  1  0  0  0  0
 16 13  1  1  0  0  0
 16 17  1  0  0  0  0
 17 15  1  0  0  0  0
 18 20  1  0  0  0  0
 18 21  2  0  0  0  0
 20 23  2  0  0  0  0
 21 22  1  0  0  0  0
 22 19  2  0  0  0  0
 23 19  1  0  0  0  0
 24 26  1  0  0  0  0
 26 25  2  0  0  0  0
 27 28  1  0  0  0  0
 27  1  1  0  0  0  0
 29 32  1  0  0  0  0
 29 28  1  0  0  0  0
 30 33  1  1  0  0  0
 30 31  1  0  0  0  0
 30 32  1  0  0  0  0
 31 32  1  0  0  0  0
 34 35  1  1  0  0  0
 34 38  1  0  0  0  0
 34 43  1  0  0  0  0
 35 41  1  0  0  0  0
 36 33  1  1  0  0  0
 38 36  1  0  0  0  0
 39 41  1  6  0  0  0
 39 36  1  0  0  0  0
 40 39  1  0  0  0  0
 40 37  1  0  0  0  0
 40 36  1  0  0  0  0
 42 48  1  0  0  0  0
 43 47  1  6  0  0  0
 43 44  1  0  0  0  0
 45 51  2  0  0  0  0
 46 45  1  0  0  0  0
 46 48  1  0  0  0  0
 47 45  1  0  0  0  0
 49 50  1  0  0  0  0
 49 46  1  0  0  0  0
 50 42  1  0  0  0  0
 51 44  1  0  0  0  0
M  END
>  <MODEL>
6

>  <REMARK>
 VINA RESULT:      -6.8      2.481     10.441
  Name = 
  13 active torsions:
  status: ('A' for Active; 'I' for Inactive)
    1  A    between atoms: N_5  and  C_11
    2  A    between atoms: C_7  and  O_43
    3  A    between atoms: C_10  and  O_22
    4  A    between atoms: C_12  and  O_45
    5  A    between atoms: C_17  and  O_45
    6  A    between atoms: C_18  and  N_29
    7  A    between atoms: C_18  and  C_34
    8  A    between atoms: O_21  and  C_26
    9  A    between atoms: O_21  and  C_28
   10  A    between atoms: O_22  and  C_28
   11  A    between atoms: C_27  and  C_36
   12  A    between atoms: C_30  and  C_34
   13  A    between atoms: C_30  and  O_43
                            x       y       z     vdW  Elec       q    Type
                         _______ _______ _______ _____ _____    ______ ____

>  <TORSDO>
F 13

$$$$
=
 OpenBabel11062412353D

 51 60  0  0  1  0  0  0  0  0999 V2000
  190.0860  177.2250  138.1970 O   0  0  0  0  0  0  0  0  0  0  0  0
  188.6860  173.4090  136.0500 N   0  0  0  0  0  0  0  0  0  0  0  0
  192.0350  175.3480  135.7650 C   0  0  0  0  0  1  0  0  0  0  0  0
  190.6740  176.0550  137.7090 C   0  0  2  0  0  3  0  0  0  0  0  0
  187.8360  174.3710  135.8750 C   0  0  0  0  0  0  0  0  0  0  0  0
  189.8610  173.8740  136.6410 N   0  0  0  0  0  2  0  0  0  0  0  0
  190.8140  176.1480  136.1910 C   0  0  2  0  0  3  0  0  0  0  0  0
  189.7060  175.3020  136.8140 C   0  0  2  0  0  0  0  0  0  0  0  0
  188.3120  175.7060  136.3560 C   0  0  2  0  0  3  0  0  0  0  0  0
  187.4550  176.1350  137.5340 C   0  0  0  0  0  1  0  0  0  0  0  0
  186.5770  174.1800  135.2970 O   0  0  0  0  0  0  0  0  0  0  0  0
  184.2410  173.6670  135.7860 C   0  0  1  0  0  3  0  0  0  0  0  0
  183.7110  172.5350  136.6290 C   0  0  0  0  0  2  0  0  0  0  0  0
  184.4450  174.4810  137.0480 C   0  0  2  0  0  3  0  0  0  0  0  0
  185.6720  173.1460  135.7040 C   0  0  2  0  0  0  0  0  0  0  0  0
  184.6820  173.1030  137.6370 C   0  0  2  0  0  3  0  0  0  0  0  0
  185.9200  172.7620  137.0510 O   0  0  0  0  0  0  0  0  0  0  0  0
  181.9210  176.0550  139.3320 C   0  0  0  0  0  3  0  0  0  0  0  0
  182.2340  175.5580  136.6600 N   0  0  0  0  0  0  0  0  0  0  0  0
  180.9290  176.4620  138.4400 C   0  0  0  0  0  3  0  0  0  0  0  0
  183.0290  175.4150  138.8720 N   0  0  0  0  0  0  0  0  0  0  0  0
  183.1860  175.1530  137.5440 C   0  0  0  0  0  0  0  0  0  0  0  0
  181.1120  176.2000  137.0840 C   0  0  0  0  0  3  0  0  0  0  0  0
  185.7790  172.0160  134.8340 O   0  0  0  0  0  0  0  0  0  0  0  0
  187.2710  170.1990  134.7130 C   0  0  0  0  0  2  0  0  0  0  0  0
  186.2340  170.7820  135.2930 C   0  0  0  0  0  3  0  0  0  0  0  0
  190.6340  177.3930  139.4700 C   0  0  0  0  0  2  0  0  0  0  0  0
  189.6030  177.0700  140.5420 C   0  0  0  0  0  2  0  0  0  0  0  0
  190.0160  177.6500  141.8860 C   0  0  0  0  0  2  0  0  0  0  0  0
  190.8580  177.2340  143.9990 C   0  0  1  0  0  3  0  0  0  0  0  0
  191.7250  176.7330  143.0810 O   0  0  0  0  0  0  0  0  0  0  0  0
  190.3770  176.5850  142.8040 N   0  0  0  0  0  0  0  0  0  0  0  0
  190.7610  176.3550  145.0870 O   0  0  0  0  0  0  0  0  0  0  0  0
  187.9180  178.3260  146.3470 N   0  0  1  0  0  0  0  0  0  0  0  0
  188.0890  178.1160  147.7830 C   0  0  0  0  0  2  0  0  0  0  0  0
  190.0690  177.0520  146.1000 C   0  0  1  0  0  0  0  0  0  0  0  0
  192.0820  176.5310  147.3320 C   0  0  0  0  0  1  0  0  0  0  0  0
  189.2390  178.2950  145.7210 C   0  0  0  0  0  2  0  0  0  0  0  0
  189.7700  176.2610  147.2620 N   0  0  1  0  0  0  0  0  0  0  0  0
  190.8160  177.2580  147.3150 N   0  0  0  0  0  0  0  0  0  0  0  0
  188.6500  176.7230  148.1030 C   0  0  0  0  0  2  0  0  0  0  0  0
  182.6420  179.1240  141.9280 C   0  0  0  0  0  2  0  0  0  0  0  0
  187.0320  177.3190  145.7450 C   0  0  2  0  0  3  0  0  0  0  0  0
  187.3790  177.1170  144.3790 O   0  0  0  0  0  0  0  0  0  0  0  0
  185.3700  177.8970  144.1890 C   0  0  0  0  0  0  0  0  0  0  0  0
  184.1680  178.3620  143.5700 N   0  0  0  0  0  0  0  0  0  0  0  0
  185.5940  177.8490  145.6620 C   0  0  0  0  0  2  0  0  0  0  0  0
  183.9950  178.4650  142.1340 C   0  0  0  0  0  2  0  0  0  0  0  0
  183.0070  178.7980  144.3180 C   0  0  0  0  0  2  0  0  0  0  0  0
  181.9390  179.0970  143.2780 C   0  0  0  0  0  2  0  0  0  0  0  0
  186.3820  177.4800  143.5140 N   0  0  0  0  0  0  0  0  0  0  0  0
  1 27  1  0  0  0  0
  2  6  1  0  0  0  0
  4  1  1  6  0  0  0
  5  2  2  0  0  0  0
  5  9  1  0  0  0  0
  7  3  1  1  0  0  0
  7  8  1  0  0  0  0
  7  4  1  0  0  0  0
  8  6  1  6  0  0  0
  8  4  1  0  0  0  0
  9  8  1  0  0  0  0
  9 10  1  1  0  0  0
 11 15  1  0  0  0  0
 11  5  1  0  0  0  0
 12 13  1  1  0  0  0
 12 14  1  0  0  0  0
 14 22  1  1  0  0  0
 14 16  1  0  0  0  0
 15 24  1  6  0  0  0
 15 12  1  0  0  0  0
 15 17  1  0  0  0  0
 16 13  1  6  0  0  0
 17 16  1  0  0  0  0
 19 23  1  0  0  0  0
 19 22  2  0  0  0  0
 20 18  1  0  0  0  0
 21 18  2  0  0  0  0
 22 21  1  0  0  0  0
 23 20  2  0  0  0  0
 24 26  1  0  0  0  0
 25 26  2  0  0  0  0
 27 28  1  0  0  0  0
 28 29  1  0  0  0  0
 29 32  1  0  0  0  0
 30 33  1  1  0  0  0
 31 30  1  0  0  0  0
 32 31  1  0  0  0  0
 32 30  1  0  0  0  0
 34 38  1  6  0  0  0
 34 35  1  0  0  0  0
 35 41  1  0  0  0  0
 36 33  1  6  0  0  0
 36 39  1  0  0  0  0
 36 40  1  0  0  0  0
 38 36  1  0  0  0  0
 39 40  1  0  0  0  0
 39 41  1  1  0  0  0
 40 37  1  0  0  0  0
 42 48  1  0  0  0  0
 42 50  1  0  0  0  0
 43 47  1  6  0  0  0
 43 34  1  0  0  0  0
 44 43  1  0  0  0  0
 45 47  1  0  0  0  0
 46 45  1  0  0  0  0
 46 49  1  0  0  0  0
 48 46  1  0  0  0  0
 50 49  1  0  0  0  0
 51 45  2  0  0  0  0
 51 44  1  0  0  0  0
M  END
>  <MODEL>
7

>  <REMARK>
 VINA RESULT:      -6.8      2.316      3.119
  Name = 
  13 active torsions:
  status: ('A' for Active; 'I' for Inactive)
    1  A    between atoms: N_5  and  C_11
    2  A    between atoms: C_7  and  O_43
    3  A    between atoms: C_10  and  O_22
    4  A    between atoms: C_12  and  O_45
    5  A    between atoms: C_17  and  O_45
    6  A    between atoms: C_18  and  N_29
    7  A    between atoms: C_18  and  C_34
    8  A    between atoms: O_21  and  C_26
    9  A    between atoms: O_21  and  C_28
   10  A    between atoms: O_22  and  C_28
   11  A    between atoms: C_27  and  C_36
   12  A    between atoms: C_30  and  C_34
   13  A    between atoms: C_30  and  O_43
                            x       y       z     vdW  Elec       q    Type
                         _______ _______ _______ _____ _____    ______ ____

>  <TORSDO>
F 13

$$$$
=
 OpenBabel11062412353D

 51 60  0  0  1  0  0  0  0  0999 V2000
  188.9540  177.4590  144.6560 O   0  0  0  0  0  0  0  0  0  0  0  0
  184.7540  179.1810  143.9300 N   0  0  0  0  0  0  0  0  0  0  0  0
  186.4310  177.9900  147.2210 C   0  0  0  0  0  1  0  0  0  0  0  0
  188.0410  178.2490  145.3580 C   0  0  2  0  0  3  0  0  0  0  0  0
  184.9670  178.1550  143.1680 C   0  0  0  0  0  0  0  0  0  0  0  0
  185.7620  179.3180  144.8850 N   0  0  0  0  0  2  0  0  0  0  0  0
  186.9340  177.3640  145.9300 C   0  0  2  0  0  3  0  0  0  0  0  0
  186.6790  178.2160  144.6890 C   0  0  2  0  0  0  0  0  0  0  0  0
  186.2210  177.4020  143.4860 C   0  0  2  0  0  3  0  0  0  0  0  0
  187.1890  177.5530  142.3260 C   0  0  0  0  0  1  0  0  0  0  0  0
  184.1060  177.7860  142.1280 O   0  0  0  0  0  0  0  0  0  0  0  0
  182.8450  178.0470  140.0550 C   0  0  1  0  0  3  0  0  0  0  0  0
  182.6830  179.3020  139.2350 C   0  0  0  0  0  2  0  0  0  0  0  0
  184.1620  177.7860  139.3540 C   0  0  2  0  0  3  0  0  0  0  0  0
  183.4510  178.7320  141.2760 C   0  0  2  0  0  0  0  0  0  0  0  0
  184.1920  179.3020  139.3140 C   0  0  2  0  0  3  0  0  0  0  0  0
  184.3970  179.6100  140.6770 O   0  0  0  0  0  0  0  0  0  0  0  0
  184.6630  176.9730  135.7270 C   0  0  0  0  0  3  0  0  0  0  0  0
  183.1670  176.0820  137.8370 N   0  0  0  0  0  0  0  0  0  0  0  0
  183.7940  175.8990  135.5430 C   0  0  0  0  0  3  0  0  0  0  0  0
  184.7590  177.5690  136.9450 N   0  0  0  0  0  0  0  0  0  0  0  0
  184.0080  177.1390  137.9970 C   0  0  0  0  0  0  0  0  0  0  0  0
  183.0440  175.4610  136.6330 C   0  0  0  0  0  3  0  0  0  0  0  0
  182.4740  179.4760  142.0090 O   0  0  0  0  0  0  0  0  0  0  0  0
  180.7440  179.1010  143.5620 C   0  0  0  0  0  2  0  0  0  0  0  0
  181.2400  178.9250  142.3480 C   0  0  0  0  0  3  0  0  0  0  0  0
  190.1550  178.1690  144.7120 C   0  0  0  0  0  2  0  0  0  0  0  0
  191.2730  177.3820  144.0440 C   0  0  0  0  0  2  0  0  0  0  0  0
  190.7960  176.7590  142.7420 C   0  0  0  0  0  2  0  0  0  0  0  0
  190.6790  177.0220  140.4470 C   0  0  1  0  0  3  0  0  0  0  0  0
  191.8710  177.5130  140.8790 O   0  0  0  0  0  0  0  0  0  0  0  0
  190.7720  177.7550  141.6850 N   0  0  0  0  0  0  0  0  0  0  0  0
  190.1620  177.8510  139.4420 O   0  0  0  0  0  0  0  0  0  0  0  0
  191.6070  175.8210  136.7320 N   0  0  1  0  0  0  0  0  0  0  0  0
  190.4170  175.0780  136.3200 C   0  0  0  0  0  2  0  0  0  0  0  0
  190.0610  177.0540  138.2820 C   0  0  1  0  0  0  0  0  0  0  0  0
  187.7340  177.6680  138.4990 C   0  0  0  0  0  1  0  0  0  0  0  0
  191.1800  177.1290  137.2230 C   0  0  0  0  0  2  0  0  0  0  0  0
  189.2350  175.8890  138.4370 N   0  0  1  0  0  0  0  0  0  0  0  0
  188.7540  177.0220  137.6780 N   0  0  0  0  0  0  0  0  0  0  0  0
  189.4820  174.7770  137.4990 C   0  0  0  0  0  2  0  0  0  0  0  0
  198.0020  173.1700  136.4670 C   0  0  0  0  0  2  0  0  0  0  0  0
  192.3730  175.1030  137.7620 C   0  0  2  0  0  3  0  0  0  0  0  0
  193.3800  175.9530  138.3010 O   0  0  0  0  0  0  0  0  0  0  0  0
  194.5840  174.3980  137.3990 C   0  0  0  0  0  0  0  0  0  0  0  0
  195.7480  173.6820  136.9750 N   0  0  0  0  0  0  0  0  0  0  0  0
  193.1840  173.9630  137.1310 C   0  0  0  0  0  2  0  0  0  0  0  0
  197.1010  174.1580  137.1870 C   0  0  0  0  0  2  0  0  0  0  0  0
  195.6890  172.4180  136.2730 C   0  0  0  0  0  2  0  0  0  0  0  0
  197.1330  171.9690  136.1180 C   0  0  0  0  0  2  0  0  0  0  0  0
  194.6490  175.5030  138.0530 N   0  0  0  0  0  0  0  0  0  0  0  0
  1 27  1  0  0  0  0
  2  6  1  0  0  0  0
  4  1  1  6  0  0  0
  4  7  1  0  0  0  0
  5  9  1  0  0  0  0
  5  2  2  0  0  0  0
  7  3  1  1  0  0  0
  8  6  1  1  0  0  0
  8  4  1  0  0  0  0
  8  7  1  0  0  0  0
  9 10  1  6  0  0  0
  9  8  1  0  0  0  0
 11  5  1  0  0  0  0
 12 13  1  6  0  0  0
 12 15  1  0  0  0  0
 14 22  1  6  0  0  0
 14 12  1  0  0  0  0
 15 24  1  1  0  0  0
 15 11  1  0  0  0  0
 16 13  1  1  0  0  0
 16 14  1  0  0  0  0
 16 17  1  0  0  0  0
 17 15  1  0  0  0  0
 18 21  2  0  0  0  0
 19 22  2  0  0  0  0
 20 18  1  0  0  0  0
 20 23  2  0  0  0  0
 21 22  1  0  0  0  0
 23 19  1  0  0  0  0
 24 26  1  0  0  0  0
 26 25  2  0  0  0  0
 28 27  1  0  0  0  0
 29 28  1  0  0  0  0
 30 33  1  6  0  0  0
 30 31  1  0  0  0  0
 30 32  1  0  0  0  0
 31 32  1  0  0  0  0
 32 29  1  0  0  0  0
 34 35  1  1  0  0  0
 34 38  1  0  0  0  0
 34 43  1  0  0  0  0
 35 41  1  0  0  0  0
 36 39  1  0  0  0  0
 36 33  1  1  0  0  0
 38 36  1  0  0  0  0
 39 41  1  6  0  0  0
 40 36  1  0  0  0  0
 40 39  1  0  0  0  0
 40 37  1  0  0  0  0
 42 48  1  0  0  0  0
 43 47  1  6  0  0  0
 43 44  1  0  0  0  0
 45 51  2  0  0  0  0
 46 48  1  0  0  0  0
 46 45  1  0  0  0  0
 47 45  1  0  0  0  0
 49 46  1  0  0  0  0
 50 49  1  0  0  0  0
 50 42  1  0  0  0  0
 51 44  1  0  0  0  0
M  END
>  <MODEL>
8

>  <REMARK>
 VINA RESULT:      -6.8      3.512      8.641
  Name = 
  13 active torsions:
  status: ('A' for Active; 'I' for Inactive)
    1  A    between atoms: N_5  and  C_11
    2  A    between atoms: C_7  and  O_43
    3  A    between atoms: C_10  and  O_22
    4  A    between atoms: C_12  and  O_45
    5  A    between atoms: C_17  and  O_45
    6  A    between atoms: C_18  and  N_29
    7  A    between atoms: C_18  and  C_34
    8  A    between atoms: O_21  and  C_26
    9  A    between atoms: O_21  and  C_28
   10  A    between atoms: O_22  and  C_28
   11  A    between atoms: C_27  and  C_36
   12  A    between atoms: C_30  and  C_34
   13  A    between atoms: C_30  and  O_43
                            x       y       z     vdW  Elec       q    Type
                         _______ _______ _______ _____ _____    ______ ____

>  <TORSDO>
F 13

$$$$
=
 OpenBabel11062412353D

 51 60  0  0  1  0  0  0  0  0999 V2000
  183.2080  178.2980  144.1830 O   0  0  0  0  0  0  0  0  0  0  0  0
  180.8490  180.0150  140.6300 N   0  0  0  0  0  0  0  0  0  0  0  0
  179.5880  178.6150  144.0230 C   0  0  0  0  0  1  0  0  0  0  0  0
  182.0300  179.0260  143.9970 C   0  0  2  0  0  3  0  0  0  0  0  0
  181.6210  179.0490  140.2440 C   0  0  0  0  0  0  0  0  0  0  0  0
  180.8010  180.0970  142.0220 N   0  0  0  0  0  2  0  0  0  0  0  0
  180.9220  178.0890  143.5170 C   0  0  2  0  0  3  0  0  0  0  0  0
  181.6240  179.0230  142.5340 C   0  0  2  0  0  0  0  0  0  0  0  0
  182.2640  178.2910  141.3630 C   0  0  2  0  0  3  0  0  0  0  0  0
  183.7620  178.5350  141.3220 C   0  0  0  0  0  1  0  0  0  0  0  0
  181.8440  178.7440  138.8970 O   0  0  0  0  0  0  0  0  0  0  0  0
  180.1250  177.1700  138.1720 C   0  0  1  0  0  3  0  0  0  0  0  0
  179.4590  177.1020  136.8210 C   0  0  0  0  0  2  0  0  0  0  0  0
  181.2720  176.3460  137.6220 C   0  0  2  0  0  3  0  0  0  0  0  0
  180.7890  178.5260  137.9540 C   0  0  2  0  0  0  0  0  0  0  0  0
  180.8910  177.0690  136.3440 C   0  0  2  0  0  3  0  0  0  0  0  0
  181.3110  178.3850  136.6370 O   0  0  0  0  0  0  0  0  0  0  0  0
  181.6060  172.6790  136.9080 C   0  0  0  0  0  3  0  0  0  0  0  0
  179.9490  174.3500  138.3020 N   0  0  0  0  0  0  0  0  0  0  0  0
  180.5320  172.1420  137.6170 C   0  0  0  0  0  3  0  0  0  0  0  0
  181.8200  174.0220  136.9120 N   0  0  0  0  0  0  0  0  0  0  0  0
  180.9910  174.8620  137.5940 C   0  0  0  0  0  0  0  0  0  0  0  0
  179.7040  173.0120  138.3210 C   0  0  0  0  0  3  0  0  0  0  0  0
  179.8420  179.5970  138.0040 O   0  0  0  0  0  0  0  0  0  0  0  0
  180.0660  181.8780  137.4680 C   0  0  0  0  0  2  0  0  0  0  0  0
  179.8610  180.6320  137.0720 C   0  0  0  0  0  3  0  0  0  0  0  0
  183.7890  178.8510  145.3260 C   0  0  0  0  0  2  0  0  0  0  0  0
  185.2180  179.2880  145.0410 C   0  0  0  0  0  2  0  0  0  0  0  0
  186.1210  179.0060  146.2310 C   0  0  0  0  0  2  0  0  0  0  0  0
  187.9890  177.8560  145.4980 C   0  0  1  0  0  3  0  0  0  0  0  0
  186.9150  177.4450  144.7730 O   0  0  0  0  0  0  0  0  0  0  0  0
  186.7010  177.6790  146.1200 N   0  0  0  0  0  0  0  0  0  0  0  0
  188.8120  176.7590  145.7890 O   0  0  0  0  0  0  0  0  0  0  0  0
  190.3820  176.9400  142.4640 N   0  0  1  0  0  0  0  0  0  0  0  0
  191.6770  177.5100  142.8340 C   0  0  0  0  0  2  0  0  0  0  0  0
  189.9300  176.8630  144.9340 C   0  0  1  0  0  0  0  0  0  0  0  0
  191.1010  176.7360  147.0430 C   0  0  0  0  0  1  0  0  0  0  0  0
  189.9080  176.1250  143.5800 C   0  0  0  0  0  2  0  0  0  0  0  0
  190.7290  178.0370  145.1490 N   0  0  1  0  0  0  0  0  0  0  0  0
  191.2080  176.7450  145.5870 N   0  0  0  0  0  0  0  0  0  0  0  0
  191.5670  178.4800  144.0180 C   0  0  0  0  0  2  0  0  0  0  0  0
  186.9740  178.0650  136.5380 C   0  0  0  0  0  2  0  0  0  0  0  0
  189.4000  177.9800  142.1240 C   0  0  2  0  0  3  0  0  0  0  0  0
  188.0910  177.4220  142.0890 O   0  0  0  0  0  0  0  0  0  0  0  0
  188.3340  178.0480  140.0320 C   0  0  0  0  0  0  0  0  0  0  0  0
  188.0330  178.2420  138.6470 N   0  0  0  0  0  0  0  0  0  0  0  0
  189.6080  178.4660  140.6830 C   0  0  0  0  0  2  0  0  0  0  0  0
  186.8170  177.7670  138.0190 C   0  0  0  0  0  2  0  0  0  0  0  0
  188.9250  178.9190  137.7290 C   0  0  0  0  0  2  0  0  0  0  0  0
  188.1710  178.9980  136.4110 C   0  0  0  0  0  2  0  0  0  0  0  0
  187.5200  177.4760  140.8460 N   0  0  0  0  0  0  0  0  0  0  0  0
  1 27  1  0  0  0  0
  2  6  1  0  0  0  0
  4  1  1  6  0  0  0
  5  2  2  0  0  0  0
  5  9  1  0  0  0  0
  7  4  1  0  0  0  0
  7  3  1  1  0  0  0
  8  6  1  6  0  0  0
  8  7  1  0  0  0  0
  8  4  1  0  0  0  0
  9 10  1  1  0  0  0
  9  8  1  0  0  0  0
 11  5  1  0  0  0  0
 12 13  1  6  0  0  0
 14 22  1  6  0  0  0
 14 12  1  0  0  0  0
 15 24  1  1  0  0  0
 15 12  1  0  0  0  0
 15 11  1  0  0  0  0
 16 17  1  0  0  0  0
 16 13  1  1  0  0  0
 16 14  1  0  0  0  0
 17 15  1  0  0  0  0
 18 21  2  0  0  0  0
 18 20  1  0  0  0  0
 19 23  1  0  0  0  0
 20 23  2  0  0  0  0
 21 22  1  0  0  0  0
 22 19  2  0  0  0  0
 26 25  2  0  0  0  0
 26 24  1  0  0  0  0
 28 27  1  0  0  0  0
 28 29  1  0  0  0  0
 30 33  1  1  0  0  0
 30 32  1  0  0  0  0
 31 30  1  0  0  0  0
 31 32  1  0  0  0  0
 32 29  1  0  0  0  0
 34 35  1  1  0  0  0
 34 38  1  0  0  0  0
 35 41  1  0  0  0  0
 36 39  1  0  0  0  0
 36 40  1  0  0  0  0
 36 33  1  1  0  0  0
 38 36  1  0  0  0  0
 39 41  1  6  0  0  0
 39 40  1  0  0  0  0
 40 37  1  0  0  0  0
 42 48  1  0  0  0  0
 43 47  1  6  0  0  0
 43 34  1  0  0  0  0
 44 43  1  0  0  0  0
 45 47  1  0  0  0  0
 45 51  2  0  0  0  0
 46 45  1  0  0  0  0
 48 46  1  0  0  0  0
 49 46  1  0  0  0  0
 50 42  1  0  0  0  0
 50 49  1  0  0  0  0
 51 44  1  0  0  0  0
M  END
>  <MODEL>
9

>  <REMARK>
 VINA RESULT:      -6.7      2.148      6.147
  Name = 
  13 active torsions:
  status: ('A' for Active; 'I' for Inactive)
    1  A    between atoms: N_5  and  C_11
    2  A    between atoms: C_7  and  O_43
    3  A    between atoms: C_10  and  O_22
    4  A    between atoms: C_12  and  O_45
    5  A    between atoms: C_17  and  O_45
    6  A    between atoms: C_18  and  N_29
    7  A    between atoms: C_18  and  C_34
    8  A    between atoms: O_21  and  C_26
    9  A    between atoms: O_21  and  C_28
   10  A    between atoms: O_22  and  C_28
   11  A    between atoms: C_27  and  C_36
   12  A    between atoms: C_30  and  C_34
   13  A    between atoms: C_30  and  O_43
                            x       y       z     vdW  Elec       q    Type
                         _______ _______ _______ _____ _____    ______ ____

>  <TORSDO>
F 13

$$$$
