=
 OpenBabel11062415013D

 31 34  0  0  1  0  0  0  0  0999 V2000
  189.0650  177.7600  148.1370 C   0  0  0  0  0  2  0  0  0  0  0  0
  186.6710  178.2030  147.2350 C   0  0  0  0  0  3  0  0  0  0  0  0
  189.6320  177.0800  146.8770 C   0  0  1  0  0  3  0  0  0  0  0  0
  187.0380  178.4300  145.7820 C   0  0  1  0  0  3  0  0  0  0  0  0
  189.1880  177.9330  145.7170 C   0  0  1  0  0  3  0  0  0  0  0  0
  188.8990  177.5340  144.3430 C   0  0  2  0  0  3  0  0  0  0  0  0
  187.8900  177.3280  145.3880 N   0  0  2  0  0  0  0  0  0  0  0  0
  187.5450  177.8820  148.2200 C   0  0  0  0  0  3  0  0  0  0  0  0
  185.9030  178.1570  143.5700 C   0  0  0  0  0  3  0  0  0  0  0  0
  183.5850  178.5790  143.2690 C   0  0  0  0  0  3  0  0  0  0  0  0
  184.5710  178.8780  145.4460 C   0  0  0  0  0  3  0  0  0  0  0  0
  184.7990  178.2080  142.7780 N   0  0  0  0  0  0  0  0  0  0  0  0
  183.4500  178.9240  144.6160 C   0  0  0  0  0  3  0  0  0  0  0  0
  185.8120  178.4900  144.9250 C   0  0  0  0  0  0  0  0  0  0  0  0
  191.0900  176.9950  146.9390 N   0  0  0  0  0  2  0  0  0  0  0  0
  191.8260  175.8900  147.4780 C   0  0  0  0  0  0  0  0  0  0  0  0
  191.2320  174.8920  147.9620 O   0  0  0  0  0  1  0  0  0  0  0  0
  193.2150  175.9260  147.4720 O   0  0  0  0  0  0  0  0  0  0  0  0
  189.5280  176.3230  144.0510 O   0  0  0  0  0  0  0  0  0  0  0  0
  189.9330  176.4500  142.7240 C   0  0  0  0  0  2  0  0  0  0  0  0
  189.4090  177.7590  142.1570 C   0  0  0  0  0  2  0  0  0  0  0  0
  188.7060  177.5160  140.8350 C   0  0  0  0  0  2  0  0  0  0  0  0
  189.7000  177.5870  139.6870 C   0  0  0  0  0  2  0  0  0  0  0  0
  188.8980  179.3690  138.3290 O   0  0  0  0  0  1  0  0  0  0  0  0
  188.9880  177.9770  138.4000 C   0  0  2  0  0  3  0  0  0  0  0  0
  187.5540  176.3320  137.4130 O   0  0  0  0  0  1  0  0  0  0  0  0
  187.5920  177.3600  138.3580 C   0  0  2  0  0  3  0  0  0  0  0  0
  184.9670  179.7090  138.8900 O   0  0  0  0  0  1  0  0  0  0  0  0
  186.5560  178.4090  137.9860 C   0  0  1  0  0  3  0  0  0  0  0  0
  185.3420  177.8190  137.8390 O   0  0  0  0  0  0  0  0  0  0  0  0
  185.5620  178.5000  139.0250 N   0  0  0  0  0  0  0  0  0  0  0  0
  1  8  1  0  0  0  0
  2  8  2  0  0  0  0
  3 15  1  1  0  0  0
  3  1  1  0  0  0  0
  4 14  1  6  0  0  0
  4  2  1  0  0  0  0
  5  3  1  0  0  0  0
  6  7  1  0  0  0  0
  6  5  1  0  0  0  0
  7  5  1  0  0  0  0
  7  4  1  0  0  0  0
  9 14  1  0  0  0  0
 10 13  2  0  0  0  0
 12 10  1  0  0  0  0
 12  9  2  0  0  0  0
 13 11  1  0  0  0  0
 14 11  2  0  0  0  0
 15 16  1  0  0  0  0
 16 17  1  0  0  0  0
 18 16  2  0  0  0  0
 19  6  1  0  0  0  0
 20 19  1  0  0  0  0
 21 20  1  0  0  0  0
 22 21  1  0  0  0  0
 23 22  1  0  0  0  0
 24 25  1  0  0  0  0
 25 23  1  0  0  0  0
 26 27  1  0  0  0  0
 27 25  1  0  0  0  0
 28 31  1  0  0  0  0
 29 27  1  0  0  0  0
 29 31  1  0  0  0  0
 30 29  1  0  0  0  0
 30 31  1  0  0  0  0
M  END
>  <MODEL>
1

>  <REMARK>
 VINA RESULT:      -8.4      0.000      0.000
  Name = 
  10 active torsions:
  status: ('A' for Active; 'I' for Inactive)
    1  A    between atoms: C_4  and  C_23
    2  A    between atoms: C_4  and  C_26
    3  A    between atoms: C_6  and  N_10
    4  A    between atoms: C_7  and  C_25
    5  A    between atoms: O_8  and  C_20
    6  A    between atoms: O_8  and  C_28
    7  A    between atoms: C_9  and  C_30
    8  A    between atoms: C_17  and  C_25
    9  A    between atoms: C_17  and  C_26
   10  A    between atoms: C_23  and  C_28
                            x       y       z     vdW  Elec       q    Type
                         _______ _______ _______ _____ _____    ______ ____

>  <TORSDO>
F 10

$$$$
=
 OpenBabel11062415013D

 31 34  0  0  1  0  0  0  0  0999 V2000
  184.9440  178.5680  145.6790 C   0  0  0  0  0  2  0  0  0  0  0  0
  187.2370  178.1910  146.8380 C   0  0  0  0  0  3  0  0  0  0  0  0
  185.4360  178.4680  144.2230 C   0  0  1  0  0  3  0  0  0  0  0  0
  187.8340  177.2510  145.8100 C   0  0  1  0  0  3  0  0  0  0  0  0
  186.3450  177.2670  144.1800 C   0  0  1  0  0  3  0  0  0  0  0  0
  187.5020  177.0220  143.3260 C   0  0  2  0  0  3  0  0  0  0  0  0
  187.6430  177.8700  144.5150 N   0  0  2  0  0  0  0  0  0  0  0  0
  186.0150  178.7730  146.7480 C   0  0  0  0  0  3  0  0  0  0  0  0
  189.7240  176.8550  147.4000 C   0  0  0  0  0  3  0  0  0  0  0  0
  191.9680  176.5890  146.6680 C   0  0  0  0  0  3  0  0  0  0  0  0
  190.2290  176.9690  145.0440 C   0  0  0  0  0  3  0  0  0  0  0  0
  191.0410  176.6440  147.6630 N   0  0  0  0  0  0  0  0  0  0  0  0
  191.5760  176.7530  145.3370 C   0  0  0  0  0  3  0  0  0  0  0  0
  189.2880  177.0190  146.0810 C   0  0  0  0  0  0  0  0  0  0  0  0
  184.3130  178.3080  143.3010 N   0  0  0  0  0  2  0  0  0  0  0  0
  184.2110  178.9350  142.0160 C   0  0  0  0  0  0  0  0  0  0  0  0
  185.1160  179.7030  141.5970 O   0  0  0  0  0  1  0  0  0  0  0  0
  183.0930  178.6980  141.2260 O   0  0  0  0  0  0  0  0  0  0  0  0
  187.4350  177.8220  142.1840 O   0  0  0  0  0  0  0  0  0  0  0  0
  188.7550  178.2000  141.9430 C   0  0  0  0  0  2  0  0  0  0  0  0
  189.5620  176.9840  141.5230 C   0  0  0  0  0  2  0  0  0  0  0  0
  189.7050  176.9420  140.0140 C   0  0  0  0  0  2  0  0  0  0  0  0
  189.5190  178.3320  139.4260 C   0  0  0  0  0  2  0  0  0  0  0  0
  188.9360  179.5190  137.4480 O   0  0  0  0  0  1  0  0  0  0  0  0
  189.1420  178.2340  137.9550 C   0  0  2  0  0  3  0  0  0  0  0  0
  188.0440  176.4850  136.7410 O   0  0  0  0  0  1  0  0  0  0  0  0
  187.8760  177.3970  137.7870 C   0  0  2  0  0  3  0  0  0  0  0  0
  185.0780  179.4880  138.4830 O   0  0  0  0  0  1  0  0  0  0  0  0
  186.6850  178.2880  137.4770 C   0  0  1  0  0  3  0  0  0  0  0  0
  185.5400  177.5590  137.5430 O   0  0  0  0  0  0  0  0  0  0  0  0
  185.8250  178.3680  138.6300 N   0  0  0  0  0  0  0  0  0  0  0  0
  1  8  1  0  0  0  0
  3 15  1  6  0  0  0
  3  1  1  0  0  0  0
  4 14  1  1  0  0  0
  4  2  1  0  0  0  0
  5  3  1  0  0  0  0
  5  7  1  0  0  0  0
  6  5  1  0  0  0  0
  6  7  1  0  0  0  0
  7  4  1  0  0  0  0
  8  2  2  0  0  0  0
  9 12  1  0  0  0  0
 10 12  2  0  0  0  0
 11 13  2  0  0  0  0
 11 14  1  0  0  0  0
 13 10  1  0  0  0  0
 14  9  2  0  0  0  0
 16 15  1  0  0  0  0
 17 16  1  0  0  0  0
 18 16  2  0  0  0  0
 19  6  1  0  0  0  0
 20 19  1  0  0  0  0
 21 20  1  0  0  0  0
 22 21  1  0  0  0  0
 23 22  1  0  0  0  0
 24 25  1  0  0  0  0
 25 23  1  0  0  0  0
 26 27  1  0  0  0  0
 27 25  1  0  0  0  0
 28 31  1  0  0  0  0
 29 30  1  0  0  0  0
 29 27  1  0  0  0  0
 29 31  1  0  0  0  0
 30 31  1  0  0  0  0
M  END
>  <MODEL>
2

>  <REMARK>
 VINA RESULT:      -8.4      2.267      5.106
  Name = 
  10 active torsions:
  status: ('A' for Active; 'I' for Inactive)
    1  A    between atoms: C_4  and  C_23
    2  A    between atoms: C_4  and  C_26
    3  A    between atoms: C_6  and  N_10
    4  A    between atoms: C_7  and  C_25
    5  A    between atoms: O_8  and  C_20
    6  A    between atoms: O_8  and  C_28
    7  A    between atoms: C_9  and  C_30
    8  A    between atoms: C_17  and  C_25
    9  A    between atoms: C_17  and  C_26
   10  A    between atoms: C_23  and  C_28
                            x       y       z     vdW  Elec       q    Type
                         _______ _______ _______ _____ _____    ______ ____

>  <TORSDO>
F 10

$$$$
=
 OpenBabel11062415013D

 31 34  0  0  1  0  0  0  0  0999 V2000
  183.3640  178.6530  143.9040 C   0  0  0  0  0  2  0  0  0  0  0  0
  184.9440  178.6450  145.9640 C   0  0  0  0  0  3  0  0  0  0  0  0
  184.4530  178.6330  142.8150 C   0  0  1  0  0  3  0  0  0  0  0  0
  186.0590  177.8120  145.3640 C   0  0  1  0  0  3  0  0  0  0  0  0
  185.4500  177.5920  143.2540 C   0  0  1  0  0  3  0  0  0  0  0  0
  186.8870  177.5350  143.0040 C   0  0  2  0  0  3  0  0  0  0  0  0
  186.3690  178.3930  144.0750 N   0  0  2  0  0  0  0  0  0  0  0  0
  183.8170  179.0250  145.3140 C   0  0  0  0  0  3  0  0  0  0  0  0
  187.1350  178.2240  147.5850 C   0  0  0  0  0  3  0  0  0  0  0  0
  189.4500  177.8510  147.9660 C   0  0  0  0  0  3  0  0  0  0  0  0
  188.5240  177.4210  145.7840 C   0  0  0  0  0  3  0  0  0  0  0  0
  188.2190  178.2330  148.4050 N   0  0  0  0  0  0  0  0  0  0  0  0
  189.6240  177.4390  146.6420 C   0  0  0  0  0  3  0  0  0  0  0  0
  187.2630  177.8140  146.2540 C   0  0  0  0  0  0  0  0  0  0  0  0
  183.8840  178.2970  141.5110 N   0  0  0  0  0  2  0  0  0  0  0  0
  184.2450  178.9220  140.2730 C   0  0  0  0  0  0  0  0  0  0  0  0
  185.1010  179.8450  140.2390 O   0  0  0  0  0  1  0  0  0  0  0  0
  183.6360  178.5080  139.0950 O   0  0  0  0  0  0  0  0  0  0  0  0
  187.2130  178.3150  141.8930 O   0  0  0  0  0  0  0  0  0  0  0  0
  188.6060  178.2890  141.8450 C   0  0  0  0  0  2  0  0  0  0  0  0
  189.0820  176.8540  141.6950 C   0  0  0  0  0  2  0  0  0  0  0  0
  190.4780  176.8210  141.1030 C   0  0  0  0  0  2  0  0  0  0  0  0
  190.4970  177.5220  139.7540 C   0  0  0  0  0  2  0  0  0  0  0  0
  190.2170  175.9740  137.9680 O   0  0  0  0  0  1  0  0  0  0  0  0
  189.5190  176.8510  138.8010 C   0  0  2  0  0  3  0  0  0  0  0  0
  189.1220  179.1820  138.4130 O   0  0  0  0  0  1  0  0  0  0  0  0
  188.7930  177.9010  137.9610 C   0  0  2  0  0  3  0  0  0  0  0  0
  185.5050  177.1270  136.8330 O   0  0  0  0  0  1  0  0  0  0  0  0
  187.2880  177.7150  138.0600 C   0  0  1  0  0  3  0  0  0  0  0  0
  186.6600  178.8280  137.6010 O   0  0  0  0  0  0  0  0  0  0  0  0
  186.7070  177.7430  136.7420 N   0  0  0  0  0  0  0  0  0  0  0  0
  1  8  1  0  0  0  0
  3 15  1  6  0  0  0
  3  5  1  0  0  0  0
  3  1  1  0  0  0  0
  4  2  1  0  0  0  0
  4 14  1  1  0  0  0
  5  7  1  0  0  0  0
  6  5  1  0  0  0  0
  6  7  1  0  0  0  0
  7  4  1  0  0  0  0
  8  2  2  0  0  0  0
  9 12  1  0  0  0  0
 10 12  2  0  0  0  0
 11 14  1  0  0  0  0
 11 13  2  0  0  0  0
 13 10  1  0  0  0  0
 14  9  2  0  0  0  0
 16 15  1  0  0  0  0
 17 16  1  0  0  0  0
 18 16  2  0  0  0  0
 19  6  1  0  0  0  0
 20 19  1  0  0  0  0
 21 20  1  0  0  0  0
 22 21  1  0  0  0  0
 23 22  1  0  0  0  0
 24 25  1  0  0  0  0
 25 23  1  0  0  0  0
 27 29  1  0  0  0  0
 27 26  1  0  0  0  0
 27 25  1  0  0  0  0
 30 29  1  0  0  0  0
 31 28  1  0  0  0  0
 31 30  1  0  0  0  0
 31 29  1  0  0  0  0
M  END
>  <MODEL>
3

>  <REMARK>
 VINA RESULT:      -8.4      2.597      5.420
  Name = 
  10 active torsions:
  status: ('A' for Active; 'I' for Inactive)
    1  A    between atoms: C_4  and  C_23
    2  A    between atoms: C_4  and  C_26
    3  A    between atoms: C_6  and  N_10
    4  A    between atoms: C_7  and  C_25
    5  A    between atoms: O_8  and  C_20
    6  A    between atoms: O_8  and  C_28
    7  A    between atoms: C_9  and  C_30
    8  A    between atoms: C_17  and  C_25
    9  A    between atoms: C_17  and  C_26
   10  A    between atoms: C_23  and  C_28
                            x       y       z     vdW  Elec       q    Type
                         _______ _______ _______ _____ _____    ______ ____

>  <TORSDO>
F 10

$$$$
=
 OpenBabel11062415013D

 31 34  0  0  1  0  0  0  0  0999 V2000
  189.0740  177.7300  148.0600 C   0  0  0  0  0  2  0  0  0  0  0  0
  186.6680  178.2080  147.2090 C   0  0  0  0  0  3  0  0  0  0  0  0
  189.5980  177.0250  146.7950 C   0  0  1  0  0  3  0  0  0  0  0  0
  187.0050  178.4120  145.7450 C   0  0  1  0  0  3  0  0  0  0  0  0
  189.1430  177.8740  145.6360 C   0  0  1  0  0  3  0  0  0  0  0  0
  188.8140  177.4660  144.2730 C   0  0  2  0  0  3  0  0  0  0  0  0
  187.8260  177.2900  145.3440 N   0  0  2  0  0  0  0  0  0  0  0  0
  187.5590  177.8820  148.1770 C   0  0  0  0  0  3  0  0  0  0  0  0
  185.8220  178.1790  143.5540 C   0  0  0  0  0  3  0  0  0  0  0  0
  183.4960  178.6020  143.3120 C   0  0  0  0  0  3  0  0  0  0  0  0
  184.5300  178.8620  145.4720 C   0  0  0  0  0  3  0  0  0  0  0  0
  184.7000  178.2420  142.7870 N   0  0  0  0  0  0  0  0  0  0  0  0
  183.3910  178.9210  144.6680 C   0  0  0  0  0  3  0  0  0  0  0  0
  185.7600  178.4860  144.9170 C   0  0  0  0  0  0  0  0  0  0  0  0
  191.0550  176.9140  146.8230 N   0  0  0  0  0  2  0  0  0  0  0  0
  191.7850  175.8250  147.4010 C   0  0  0  0  0  0  0  0  0  0  0  0
  191.1840  174.8650  147.9540 O   0  0  0  0  0  1  0  0  0  0  0  0
  193.1730  175.8310  147.3570 O   0  0  0  0  0  0  0  0  0  0  0  0
  189.4130  176.2400  143.9810 O   0  0  0  0  0  0  0  0  0  0  0  0
  189.8480  176.3690  142.6620 C   0  0  0  0  0  2  0  0  0  0  0  0
  188.8090  177.1340  141.8590 C   0  0  0  0  0  2  0  0  0  0  0  0
  189.3630  177.4980  140.4940 C   0  0  0  0  0  2  0  0  0  0  0  0
  188.3760  178.3740  139.7410 C   0  0  0  0  0  2  0  0  0  0  0  0
  189.0940  179.6340  137.8540 O   0  0  0  0  0  1  0  0  0  0  0  0
  188.6890  178.3590  138.2520 C   0  0  2  0  0  3  0  0  0  0  0  0
  186.3200  178.5600  137.9630 O   0  0  0  0  0  1  0  0  0  0  0  0
  187.4590  177.9290  137.4560 C   0  0  2  0  0  3  0  0  0  0  0  0
  187.6110  174.5390  136.3740 O   0  0  0  0  0  1  0  0  0  0  0  0
  187.2670  176.4240  137.5410 C   0  0  1  0  0  3  0  0  0  0  0  0
  186.1270  176.0710  136.8920 O   0  0  0  0  0  0  0  0  0  0  0  0
  187.3180  175.8520  136.2190 N   0  0  0  0  0  0  0  0  0  0  0  0
  1  8  1  0  0  0  0
  2  8  2  0  0  0  0
  3 15  1  1  0  0  0
  3  1  1  0  0  0  0
  4 14  1  6  0  0  0
  4  2  1  0  0  0  0
  5  3  1  0  0  0  0
  6  7  1  0  0  0  0
  6  5  1  0  0  0  0
  7  5  1  0  0  0  0
  7  4  1  0  0  0  0
  9 14  1  0  0  0  0
 10 13  2  0  0  0  0
 12 10  1  0  0  0  0
 12  9  2  0  0  0  0
 13 11  1  0  0  0  0
 14 11  2  0  0  0  0
 15 16  1  0  0  0  0
 16 17  1  0  0  0  0
 18 16  2  0  0  0  0
 19  6  1  0  0  0  0
 20 19  1  0  0  0  0
 21 20  1  0  0  0  0
 22 21  1  0  0  0  0
 23 22  1  0  0  0  0
 24 25  1  0  0  0  0
 25 23  1  0  0  0  0
 27 29  1  0  0  0  0
 27 26  1  0  0  0  0
 27 25  1  0  0  0  0
 30 29  1  0  0  0  0
 31 28  1  0  0  0  0
 31 30  1  0  0  0  0
 31 29  1  0  0  0  0
M  END
>  <MODEL>
4

>  <REMARK>
 VINA RESULT:      -8.1      1.035      1.604
  Name = 
  10 active torsions:
  status: ('A' for Active; 'I' for Inactive)
    1  A    between atoms: C_4  and  C_23
    2  A    between atoms: C_4  and  C_26
    3  A    between atoms: C_6  and  N_10
    4  A    between atoms: C_7  and  C_25
    5  A    between atoms: O_8  and  C_20
    6  A    between atoms: O_8  and  C_28
    7  A    between atoms: C_9  and  C_30
    8  A    between atoms: C_17  and  C_25
    9  A    between atoms: C_17  and  C_26
   10  A    between atoms: C_23  and  C_28
                            x       y       z     vdW  Elec       q    Type
                         _______ _______ _______ _____ _____    ______ ____

>  <TORSDO>
F 10

$$$$
=
 OpenBabel11062415013D

 31 34  0  0  1  0  0  0  0  0999 V2000
  184.8170  178.6230  145.1010 C   0  0  0  0  0  2  0  0  0  0  0  0
  187.0160  178.2390  146.4270 C   0  0  0  0  0  3  0  0  0  0  0  0
  185.4210  178.5490  143.6860 C   0  0  1  0  0  3  0  0  0  0  0  0
  187.6970  177.3190  145.4340 C   0  0  1  0  0  3  0  0  0  0  0  0
  186.3380  177.3530  143.6950 C   0  0  1  0  0  3  0  0  0  0  0  0
  187.5600  177.1280  142.9290 C   0  0  2  0  0  3  0  0  0  0  0  0
  187.6020  177.9570  144.1390 N   0  0  2  0  0  0  0  0  0  0  0  0
  185.8020  178.8160  146.2530 C   0  0  0  0  0  3  0  0  0  0  0  0
  190.1110  177.0960  144.8200 C   0  0  0  0  0  3  0  0  0  0  0  0
  191.8010  176.6690  146.4350 C   0  0  0  0  0  3  0  0  0  0  0  0
  189.5060  176.8620  147.1430 C   0  0  0  0  0  3  0  0  0  0  0  0
  191.4150  176.8880  145.1480 N   0  0  0  0  0  0  0  0  0  0  0  0
  190.8490  176.6500  147.4580 C   0  0  0  0  0  3  0  0  0  0  0  0
  189.1270  177.0900  145.8140 C   0  0  0  0  0  0  0  0  0  0  0  0
  184.3740  178.3990  142.6770 N   0  0  0  0  0  2  0  0  0  0  0  0
  184.4090  178.9740  141.3650 C   0  0  0  0  0  0  0  0  0  0  0  0
  185.3820  179.6830  140.9960 O   0  0  0  0  0  1  0  0  0  0  0  0
  183.3530  178.7510  140.4910 O   0  0  0  0  0  0  0  0  0  0  0  0
  187.5760  177.9470  141.7980 O   0  0  0  0  0  0  0  0  0  0  0  0
  188.9130  177.9760  141.4060 C   0  0  0  0  0  2  0  0  0  0  0  0
  189.0910  177.1450  140.1470 C   0  0  0  0  0  2  0  0  0  0  0  0
  189.9180  177.9030  139.1270 C   0  0  0  0  0  2  0  0  0  0  0  0
  189.5700  177.4480  137.7200 C   0  0  0  0  0  2  0  0  0  0  0  0
  188.9480  179.7440  137.6800 O   0  0  0  0  0  1  0  0  0  0  0  0
  188.8030  178.5400  136.9890 C   0  0  2  0  0  3  0  0  0  0  0  0
  186.6040  178.8080  137.9000 O   0  0  0  0  0  1  0  0  0  0  0  0
  187.3240  178.1710  136.8860 C   0  0  2  0  0  3  0  0  0  0  0  0
  186.7440  174.8310  135.7940 O   0  0  0  0  0  1  0  0  0  0  0  0
  187.1390  176.6680  137.0190 C   0  0  1  0  0  3  0  0  0  0  0  0
  185.8140  176.3730  137.0490 O   0  0  0  0  0  0  0  0  0  0  0  0
  186.4710  176.1560  135.8490 N   0  0  0  0  0  0  0  0  0  0  0  0
  1  8  1  0  0  0  0
  3 15  1  6  0  0  0
  3  5  1  0  0  0  0
  3  1  1  0  0  0  0
  4 14  1  1  0  0  0
  4  2  1  0  0  0  0
  5  7  1  0  0  0  0
  6  5  1  0  0  0  0
  6  7  1  0  0  0  0
  7  4  1  0  0  0  0
  8  2  2  0  0  0  0
  9 12  2  0  0  0  0
  9 14  1  0  0  0  0
 10 13  2  0  0  0  0
 11 13  1  0  0  0  0
 12 10  1  0  0  0  0
 14 11  2  0  0  0  0
 16 15  1  0  0  0  0
 17 16  1  0  0  0  0
 18 16  2  0  0  0  0
 19  6  1  0  0  0  0
 20 19  1  0  0  0  0
 21 20  1  0  0  0  0
 22 21  1  0  0  0  0
 23 22  1  0  0  0  0
 25 24  1  0  0  0  0
 25 23  1  0  0  0  0
 27 25  1  0  0  0  0
 27 29  1  0  0  0  0
 27 26  1  0  0  0  0
 28 31  1  0  0  0  0
 29 30  1  0  0  0  0
 31 29  1  0  0  0  0
 31 30  1  0  0  0  0
M  END
>  <MODEL>
5

>  <REMARK>
 VINA RESULT:      -8.1      2.554      5.335
  Name = 
  10 active torsions:
  status: ('A' for Active; 'I' for Inactive)
    1  A    between atoms: C_4  and  C_23
    2  A    between atoms: C_4  and  C_26
    3  A    between atoms: C_6  and  N_10
    4  A    between atoms: C_7  and  C_25
    5  A    between atoms: O_8  and  C_20
    6  A    between atoms: O_8  and  C_28
    7  A    between atoms: C_9  and  C_30
    8  A    between atoms: C_17  and  C_25
    9  A    between atoms: C_17  and  C_26
   10  A    between atoms: C_23  and  C_28
                            x       y       z     vdW  Elec       q    Type
                         _______ _______ _______ _____ _____    ______ ____

>  <TORSDO>
F 10

$$$$
=
 OpenBabel11062415013D

 31 34  0  0  1  0  0  0  0  0999 V2000
  183.5710  178.6100  143.8500 C   0  0  0  0  0  2  0  0  0  0  0  0
  185.0650  178.6920  145.9710 C   0  0  0  0  0  3  0  0  0  0  0  0
  184.7020  178.5180  142.8090 C   0  0  1  0  0  3  0  0  0  0  0  0
  186.1910  177.8130  145.4620 C   0  0  1  0  0  3  0  0  0  0  0  0
  185.6650  177.4890  143.3430 C   0  0  1  0  0  3  0  0  0  0  0  0
  187.1100  177.3990  143.1560 C   0  0  2  0  0  3  0  0  0  0  0  0
  186.5610  178.3210  144.1580 N   0  0  2  0  0  0  0  0  0  0  0  0
  183.9710  179.0510  145.2560 C   0  0  0  0  0  3  0  0  0  0  0  0
  188.6210  177.4620  145.9380 C   0  0  0  0  0  3  0  0  0  0  0  0
  189.5720  177.8770  148.0760 C   0  0  0  0  0  3  0  0  0  0  0  0
  187.2170  178.2490  147.7340 C   0  0  0  0  0  3  0  0  0  0  0  0
  189.6920  177.4850  146.7770 N   0  0  0  0  0  0  0  0  0  0  0  0
  188.3280  178.2650  148.5780 C   0  0  0  0  0  3  0  0  0  0  0  0
  187.3580  177.8470  146.3990 C   0  0  0  0  0  0  0  0  0  0  0  0
  184.1820  178.1210  141.5030 N   0  0  0  0  0  2  0  0  0  0  0  0
  184.5040  178.7610  140.2610 C   0  0  0  0  0  0  0  0  0  0  0  0
  185.2790  179.7530  140.2270 O   0  0  0  0  0  1  0  0  0  0  0  0
  183.9490  178.2830  139.0810 O   0  0  0  0  0  0  0  0  0  0  0  0
  187.4920  178.1150  142.0200 O   0  0  0  0  0  0  0  0  0  0  0  0
  188.8850  178.0450  142.0150 C   0  0  0  0  0  2  0  0  0  0  0  0
  189.3680  177.6560  140.6290 C   0  0  0  0  0  2  0  0  0  0  0  0
  188.4610  178.2510  139.5680 C   0  0  0  0  0  2  0  0  0  0  0  0
  189.2320  178.4700  138.2770 C   0  0  0  0  0  2  0  0  0  0  0  0
  186.9590  178.6510  137.5940 O   0  0  0  0  0  1  0  0  0  0  0  0
  188.2680  178.6140  137.1080 C   0  0  2  0  0  3  0  0  0  0  0  0
  187.2470  176.7080  136.0780 O   0  0  0  0  0  1  0  0  0  0  0  0
  188.4320  177.4460  136.1380 C   0  0  2  0  0  3  0  0  0  0  0  0
  191.6570  175.9360  136.0620 O   0  0  0  0  0  1  0  0  0  0  0  0
  189.5600  176.5330  136.5900 C   0  0  1  0  0  3  0  0  0  0  0  0
  189.5410  175.3880  135.8580 O   0  0  0  0  0  0  0  0  0  0  0  0
  190.4880  176.3350  135.5060 N   0  0  0  0  0  0  0  0  0  0  0  0
  1  8  1  0  0  0  0
  3 15  1  6  0  0  0
  3  5  1  0  0  0  0
  3  1  1  0  0  0  0
  4  2  1  0  0  0  0
  4 14  1  1  0  0  0
  5  7  1  0  0  0  0
  6  5  1  0  0  0  0
  6  7  1  0  0  0  0
  7  4  1  0  0  0  0
  8  2  2  0  0  0  0
  9 14  2  0  0  0  0
  9 12  1  0  0  0  0
 10 13  1  0  0  0  0
 11 13  2  0  0  0  0
 12 10  2  0  0  0  0
 14 11  1  0  0  0  0
 16 15  1  0  0  0  0
 17 16  1  0  0  0  0
 18 16  2  0  0  0  0
 19  6  1  0  0  0  0
 20 19  1  0  0  0  0
 21 20  1  0  0  0  0
 22 21  1  0  0  0  0
 23 22  1  0  0  0  0
 25 24  1  0  0  0  0
 25 23  1  0  0  0  0
 26 27  1  0  0  0  0
 27 29  1  0  0  0  0
 27 25  1  0  0  0  0
 30 29  1  0  0  0  0
 31 30  1  0  0  0  0
 31 28  1  0  0  0  0
 31 29  1  0  0  0  0
M  END
>  <MODEL>
6

>  <REMARK>
 VINA RESULT:      -7.8      2.540      5.624
  Name = 
  10 active torsions:
  status: ('A' for Active; 'I' for Inactive)
    1  A    between atoms: C_4  and  C_23
    2  A    between atoms: C_4  and  C_26
    3  A    between atoms: C_6  and  N_10
    4  A    between atoms: C_7  and  C_25
    5  A    between atoms: O_8  and  C_20
    6  A    between atoms: O_8  and  C_28
    7  A    between atoms: C_9  and  C_30
    8  A    between atoms: C_17  and  C_25
    9  A    between atoms: C_17  and  C_26
   10  A    between atoms: C_23  and  C_28
                            x       y       z     vdW  Elec       q    Type
                         _______ _______ _______ _____ _____    ______ ____

>  <TORSDO>
F 10

$$$$
=
 OpenBabel11062415013D

 31 34  0  0  1  0  0  0  0  0999 V2000
  187.6340  178.0650  147.2550 C   0  0  0  0  0  2  0  0  0  0  0  0
  185.3290  178.6680  146.2230 C   0  0  0  0  0  3  0  0  0  0  0  0
  188.1110  177.1160  146.1400 C   0  0  1  0  0  3  0  0  0  0  0  0
  185.7330  178.6000  144.7640 C   0  0  1  0  0  3  0  0  0  0  0  0
  187.7950  177.8160  144.8440 C   0  0  1  0  0  3  0  0  0  0  0  0
  187.4640  177.2380  143.5460 C   0  0  2  0  0  3  0  0  0  0  0  0
  186.4290  177.3440  144.5810 N   0  0  2  0  0  0  0  0  0  0  0  0
  186.1440  178.4010  147.2730 C   0  0  0  0  0  3  0  0  0  0  0  0
  184.6850  178.5010  142.4950 C   0  0  0  0  0  3  0  0  0  0  0  0
  182.3550  178.8180  142.1560 C   0  0  0  0  0  3  0  0  0  0  0  0
  183.2540  178.9370  144.3870 C   0  0  0  0  0  3  0  0  0  0  0  0
  183.6040  178.5720  141.6730 N   0  0  0  0  0  0  0  0  0  0  0  0
  182.1590  179.0070  143.5260 C   0  0  0  0  0  3  0  0  0  0  0  0
  184.5320  178.6800  143.8740 C   0  0  0  0  0  0  0  0  0  0  0  0
  189.5430  176.8490  146.2570 N   0  0  0  0  0  2  0  0  0  0  0  0
  190.5770  177.6330  145.6480 C   0  0  0  0  0  0  0  0  0  0  0  0
  190.2960  178.6330  144.9370 O   0  0  0  0  0  0  0  0  0  0  0  0
  191.9070  177.2810  145.8410 O   0  0  0  0  0  1  0  0  0  0  0  0
  187.9240  175.9220  143.4740 O   0  0  0  0  0  0  0  0  0  0  0  0
  189.1600  176.0180  142.8380 C   0  0  0  0  0  2  0  0  0  0  0  0
  189.1140  177.1310  141.8040 C   0  0  0  0  0  2  0  0  0  0  0  0
  190.3130  177.0420  140.8800 C   0  0  0  0  0  2  0  0  0  0  0  0
  189.9720  177.6180  139.5150 C   0  0  0  0  0  2  0  0  0  0  0  0
  190.6140  176.1240  137.7780 O   0  0  0  0  0  1  0  0  0  0  0  0
  189.5310  176.5090  138.5720 C   0  0  2  0  0  3  0  0  0  0  0  0
  188.8670  177.3460  136.4280 O   0  0  0  0  0  1  0  0  0  0  0  0
  188.3810  176.9900  137.6890 C   0  0  2  0  0  3  0  0  0  0  0  0
  185.6730  178.9630  138.8970 O   0  0  0  0  0  1  0  0  0  0  0  0
  187.6990  178.1970  138.3120 C   0  0  1  0  0  3  0  0  0  0  0  0
  187.2130  179.0030  137.3330 O   0  0  0  0  0  0  0  0  0  0  0  0
  186.2970  178.1880  137.9780 N   0  0  0  0  0  0  0  0  0  0  0  0
  1  8  1  0  0  0  0
  2  8  2  0  0  0  0
  3 15  1  1  0  0  0
  3  1  1  0  0  0  0
  4 14  1  6  0  0  0
  4  2  1  0  0  0  0
  5  3  1  0  0  0  0
  6  7  1  0  0  0  0
  6  5  1  0  0  0  0
  7  4  1  0  0  0  0
  7  5  1  0  0  0  0
  9 14  1  0  0  0  0
 10 13  2  0  0  0  0
 12 10  1  0  0  0  0
 12  9  2  0  0  0  0
 13 11  1  0  0  0  0
 14 11  2  0  0  0  0
 16 18  1  0  0  0  0
 16 15  1  0  0  0  0
 17 16  2  0  0  0  0
 19  6  1  0  0  0  0
 20 19  1  0  0  0  0
 21 20  1  0  0  0  0
 22 21  1  0  0  0  0
 23 22  1  0  0  0  0
 24 25  1  0  0  0  0
 25 23  1  0  0  0  0
 26 27  1  0  0  0  0
 27 29  1  0  0  0  0
 27 25  1  0  0  0  0
 30 31  1  0  0  0  0
 30 29  1  0  0  0  0
 31 29  1  0  0  0  0
 31 28  1  0  0  0  0
M  END
>  <MODEL>
7

>  <REMARK>
 VINA RESULT:      -7.8      1.530      1.958
  Name = 
  10 active torsions:
  status: ('A' for Active; 'I' for Inactive)
    1  A    between atoms: C_4  and  C_23
    2  A    between atoms: C_4  and  C_26
    3  A    between atoms: C_6  and  N_10
    4  A    between atoms: C_7  and  C_25
    5  A    between atoms: O_8  and  C_20
    6  A    between atoms: O_8  and  C_28
    7  A    between atoms: C_9  and  C_30
    8  A    between atoms: C_17  and  C_25
    9  A    between atoms: C_17  and  C_26
   10  A    between atoms: C_23  and  C_28
                            x       y       z     vdW  Elec       q    Type
                         _______ _______ _______ _____ _____    ______ ____

>  <TORSDO>
F 10

$$$$
=
 OpenBabel11062415013D

 31 34  0  0  1  0  0  0  0  0999 V2000
  190.9550  176.9790  145.8090 C   0  0  0  0  0  2  0  0  0  0  0  0
  191.2380  177.3170  143.2500 C   0  0  0  0  0  3  0  0  0  0  0  0
  189.5010  177.4750  145.9180 C   0  0  1  0  0  3  0  0  0  0  0  0
  189.8090  177.0170  142.8440 C   0  0  1  0  0  3  0  0  0  0  0  0
  188.7610  176.8240  144.7770 C   0  0  1  0  0  3  0  0  0  0  0  0
  187.6100  177.3190  144.0290 C   0  0  2  0  0  3  0  0  0  0  0  0
  188.9540  177.8080  143.7030 N   0  0  2  0  0  0  0  0  0  0  0  0
  191.7010  177.3320  144.5240 C   0  0  0  0  0  3  0  0  0  0  0  0
  190.5740  177.0660  140.4630 C   0  0  0  0  0  3  0  0  0  0  0  0
  189.2370  177.9600  138.7150 C   0  0  0  0  0  3  0  0  0  0  0  0
  188.3960  177.9680  140.9730 C   0  0  0  0  0  3  0  0  0  0  0  0
  190.3830  177.3700  139.1510 N   0  0  0  0  0  0  0  0  0  0  0  0
  188.2210  178.2730  139.6220 C   0  0  0  0  0  3  0  0  0  0  0  0
  189.5810  177.3570  141.4040 C   0  0  0  0  0  0  0  0  0  0  0  0
  188.9150  177.1020  147.2030 N   0  0  0  0  0  2  0  0  0  0  0  0
  188.3970  178.0260  148.1690 C   0  0  0  0  0  0  0  0  0  0  0  0
  188.4320  179.2670  147.9600 O   0  0  0  0  0  0  0  0  0  0  0  0
  187.8570  177.5450  149.3550 O   0  0  0  0  0  1  0  0  0  0  0  0
  186.9280  178.2820  144.7770 O   0  0  0  0  0  0  0  0  0  0  0  0
  185.8690  177.5870  145.3580 C   0  0  0  0  0  2  0  0  0  0  0  0
  184.6460  178.4860  145.4190 C   0  0  0  0  0  2  0  0  0  0  0  0
  184.5830  179.3750  144.1920 C   0  0  0  0  0  2  0  0  0  0  0  0
  183.9520  178.6270  143.0290 C   0  0  0  0  0  2  0  0  0  0  0  0
  185.7230  179.7610  141.9150 O   0  0  0  0  0  1  0  0  0  0  0  0
  184.8800  178.6520  141.8240 C   0  0  2  0  0  3  0  0  0  0  0  0
  184.5440  179.7520  139.7230 O   0  0  0  0  0  1  0  0  0  0  0  0
  184.0680  178.7170  140.5310 C   0  0  2  0  0  3  0  0  0  0  0  0
  180.6050  177.9400  140.8270 O   0  0  0  0  0  1  0  0  0  0  0  0
  182.6000  178.9650  140.8360 C   0  0  1  0  0  3  0  0  0  0  0  0
  181.9390  179.2580  139.6860 O   0  0  0  0  0  0  0  0  0  0  0  0
  181.7920  177.9710  140.1770 N   0  0  0  0  0  0  0  0  0  0  0  0
  1  3  1  0  0  0  0
  2  8  2  0  0  0  0
  3 15  1  1  0  0  0
  4 14  1  6  0  0  0
  4  2  1  0  0  0  0
  4  7  1  0  0  0  0
  5  3  1  0  0  0  0
  6 19  1  0  0  0  0
  6  5  1  0  0  0  0
  7  6  1  0  0  0  0
  7  5  1  0  0  0  0
  8  1  1  0  0  0  0
  9 14  1  0  0  0  0
 10 12  1  0  0  0  0
 10 13  2  0  0  0  0
 11 14  2  0  0  0  0
 12  9  2  0  0  0  0
 13 11  1  0  0  0  0
 15 16  1  0  0  0  0
 16 18  1  0  0  0  0
 17 16  2  0  0  0  0
 19 20  1  0  0  0  0
 20 21  1  0  0  0  0
 22 21  1  0  0  0  0
 23 22  1  0  0  0  0
 25 24  1  0  0  0  0
 25 23  1  0  0  0  0
 26 27  1  0  0  0  0
 27 29  1  0  0  0  0
 27 25  1  0  0  0  0
 30 31  1  0  0  0  0
 30 29  1  0  0  0  0
 31 28  1  0  0  0  0
 31 29  1  0  0  0  0
M  END
>  <MODEL>
8

>  <REMARK>
 VINA RESULT:      -7.7      2.510      4.947
  Name = 
  10 active torsions:
  status: ('A' for Active; 'I' for Inactive)
    1  A    between atoms: C_4  and  C_23
    2  A    between atoms: C_4  and  C_26
    3  A    between atoms: C_6  and  N_10
    4  A    between atoms: C_7  and  C_25
    5  A    between atoms: O_8  and  C_20
    6  A    between atoms: O_8  and  C_28
    7  A    between atoms: C_9  and  C_30
    8  A    between atoms: C_17  and  C_25
    9  A    between atoms: C_17  and  C_26
   10  A    between atoms: C_23  and  C_28
                            x       y       z     vdW  Elec       q    Type
                         _______ _______ _______ _____ _____    ______ ____

>  <TORSDO>
F 10

$$$$
=
 OpenBabel11062415013D

 31 34  0  0  1  0  0  0  0  0999 V2000
  190.9340  177.6190  145.2320 C   0  0  0  0  0  2  0  0  0  0  0  0
  190.8880  178.0300  142.6690 C   0  0  0  0  0  3  0  0  0  0  0  0
  189.4140  177.6740  145.4730 C   0  0  1  0  0  3  0  0  0  0  0  0
  189.5760  177.3320  142.3730 C   0  0  1  0  0  3  0  0  0  0  0  0
  188.7970  176.8410  144.3790 C   0  0  1  0  0  3  0  0  0  0  0  0
  187.4920  176.9850  143.7410 C   0  0  2  0  0  3  0  0  0  0  0  0
  188.6070  177.8410  143.3200 N   0  0  2  0  0  0  0  0  0  0  0  0
  191.4350  178.1750  143.9010 C   0  0  0  0  0  3  0  0  0  0  0  0
  187.9750  178.3380  140.7350 C   0  0  0  0  0  3  0  0  0  0  0  0
  188.2560  178.1230  138.3860 C   0  0  0  0  0  3  0  0  0  0  0  0
  189.8610  177.1090  139.8690 C   0  0  0  0  0  3  0  0  0  0  0  0
  187.5630  178.5850  139.4630 N   0  0  0  0  0  0  0  0  0  0  0  0
  189.4200  177.3730  138.5710 C   0  0  0  0  0  3  0  0  0  0  0  0
  189.1380  177.5950  140.9660 C   0  0  0  0  0  0  0  0  0  0  0  0
  189.0720  177.1450  146.7910 N   0  0  0  0  0  2  0  0  0  0  0  0
  188.0740  177.6930  147.6620 C   0  0  0  0  0  0  0  0  0  0  0  0
  187.4160  178.7140  147.3310 O   0  0  0  0  0  0  0  0  0  0  0  0
  187.8360  177.0930  148.8920 O   0  0  0  0  0  1  0  0  0  0  0  0
  186.6300  177.7090  144.5670 O   0  0  0  0  0  0  0  0  0  0  0  0
  185.6330  178.1720  143.7100 C   0  0  0  0  0  2  0  0  0  0  0  0
  184.8170  179.2430  144.4150 C   0  0  0  0  0  2  0  0  0  0  0  0
  183.3350  179.0030  144.2000 C   0  0  0  0  0  2  0  0  0  0  0  0
  183.0650  178.6240  142.7530 C   0  0  0  0  0  2  0  0  0  0  0  0
  180.7190  178.2350  142.8400 O   0  0  0  0  0  1  0  0  0  0  0  0
  181.6850  179.1070  142.3330 C   0  0  2  0  0  3  0  0  0  0  0  0
  180.7380  178.1560  140.3480 O   0  0  0  0  0  1  0  0  0  0  0  0
  181.5850  179.1660  140.8100 C   0  0  2  0  0  3  0  0  0  0  0  0
  184.5560  180.1280  139.0960 O   0  0  0  0  0  1  0  0  0  0  0  0
  182.9560  178.9870  140.1780 C   0  0  1  0  0  3  0  0  0  0  0  0
  182.8220  178.8070  138.8390 O   0  0  0  0  0  0  0  0  0  0  0  0
  183.2130  180.0670  139.2600 N   0  0  0  0  0  0  0  0  0  0  0  0
  1  3  1  0  0  0  0
  2  8  2  0  0  0  0
  3 15  1  1  0  0  0
  4 14  1  6  0  0  0
  4  2  1  0  0  0  0
  4  7  1  0  0  0  0
  5  3  1  0  0  0  0
  6  5  1  0  0  0  0
  6 19  1  0  0  0  0
  7  6  1  0  0  0  0
  7  5  1  0  0  0  0
  8  1  1  0  0  0  0
  9 14  1  0  0  0  0
 10 13  2  0  0  0  0
 10 12  1  0  0  0  0
 11 14  2  0  0  0  0
 12  9  2  0  0  0  0
 13 11  1  0  0  0  0
 15 16  1  0  0  0  0
 16 18  1  0  0  0  0
 17 16  2  0  0  0  0
 20 21  1  0  0  0  0
 20 19  1  0  0  0  0
 22 21  1  0  0  0  0
 23 22  1  0  0  0  0
 25 23  1  0  0  0  0
 25 24  1  0  0  0  0
 26 27  1  0  0  0  0
 27 25  1  0  0  0  0
 28 31  1  0  0  0  0
 29 27  1  0  0  0  0
 30 31  1  0  0  0  0
 30 29  1  0  0  0  0
 31 29  1  0  0  0  0
M  END
>  <MODEL>
9

>  <REMARK>
 VINA RESULT:      -7.7      2.413      5.380
  Name = 
  10 active torsions:
  status: ('A' for Active; 'I' for Inactive)
    1  A    between atoms: C_4  and  C_23
    2  A    between atoms: C_4  and  C_26
    3  A    between atoms: C_6  and  N_10
    4  A    between atoms: C_7  and  C_25
    5  A    between atoms: O_8  and  C_20
    6  A    between atoms: O_8  and  C_28
    7  A    between atoms: C_9  and  C_30
    8  A    between atoms: C_17  and  C_25
    9  A    between atoms: C_17  and  C_26
   10  A    between atoms: C_23  and  C_28
                            x       y       z     vdW  Elec       q    Type
                         _______ _______ _______ _____ _____    ______ ____

>  <TORSDO>
F 10

$$$$
