=
 OpenBabel11062412183D

 43 48  0  0  1  0  0  0  0  0999 V2000
  189.1720  178.7060  138.7730 C   0  0  0  0  0  2  0  0  0  0  0  0
  187.5450  178.0780  136.9230 C   0  0  1  0  0  3  0  0  0  0  0  0
  187.1110  176.9490  135.9850 C   0  0  2  0  0  3  0  0  0  0  0  0
  188.0020  176.8220  134.7460 C   0  0  0  0  0  2  0  0  0  0  0  0
  187.8360  178.5930  139.3490 N   0  0  1  0  0  0  0  0  0  0  0  0
  189.5350  176.4190  137.5460 C   0  0  0  0  0  0  0  0  0  0  0  0
  189.5010  176.7170  135.0430 C   0  0  0  0  0  2  0  0  0  0  0  0
  187.5260  177.5680  138.3510 C   0  0  2  0  0  3  0  0  0  0  0  0
  189.8220  175.7810  136.2100 C   0  0  0  0  0  2  0  0  0  0  0  0
  189.8790  175.8350  138.5610 O   0  0  0  0  0  0  0  0  0  0  0  0
  188.8530  177.7650  137.6410 C   0  0  1  0  0  0  0  0  0  0  0  0
  187.2170  178.6960  141.7340 C   0  0  1  0  0  3  0  0  0  0  0  0
  189.3810  178.0110  141.1350 C   0  0  0  0  0  2  0  0  0  0  0  0
  187.9690  178.6770  142.9270 O   0  0  0  0  0  0  0  0  0  0  0  0
  187.9680  177.9390  140.6530 C   0  0  2  0  0  3  0  0  0  0  0  0
  189.2300  178.1250  142.6330 C   0  0  1  0  0  3  0  0  0  0  0  0
  185.8450  178.0570  141.9550 C   0  0  0  0  0  2  0  0  0  0  0  0
  184.9290  178.8480  142.8890 C   0  0  0  0  0  3  0  0  0  0  0  0
  183.4770  178.7270  142.4830 C   0  0  0  0  0  1  0  0  0  0  0  0
  185.1090  178.4580  144.3450 C   0  0  0  0  0  1  0  0  0  0  0  0
  189.3340  176.7460  143.2720 C   0  0  0  0  0  2  0  0  0  0  0  0
  189.8790  176.9920  146.3370 C   0  0  0  0  0  0  0  0  0  0  0  0
  190.4010  176.9090  147.5750 N   0  0  0  0  0  0  0  0  0  0  0  0
  191.6650  176.4950  147.3400 C   0  0  0  0  0  3  0  0  0  0  0  0
  188.3350  177.4740  146.0710 S   0  0  0  0  0  0  0  0  0  0  0  0
  190.7790  176.6410  145.3910 N   0  0  0  0  0  0  0  0  0  0  0  0
  191.6610  176.2790  143.2650 O   0  0  0  0  0  0  0  0  0  0  0  0
  191.8990  176.3340  146.0220 N   0  0  0  0  0  2  0  0  0  0  0  0
  190.6500  176.5610  143.9600 C   0  0  0  0  0  0  0  0  0  0  0  0
  185.6770  177.1670  135.5310 C   0  0  0  0  0  2  0  0  0  0  0  0
  184.9580  175.8440  135.2910 C   0  0  0  0  0  2  0  0  0  0  0  0
  182.8870  174.7050  135.3930 O   0  0  0  0  0  1  0  0  0  0  0  0
  183.5290  175.8660  135.8210 C   0  0  1  0  0  3  0  0  0  0  0  0
  183.5090  175.9550  137.3560 C   0  0  2  0  0  3  0  0  0  0  0  0
  182.7770  174.8210  137.9280 N   0  0  0  0  0  2  0  0  0  0  0  0
  182.8250  177.2390  137.8010 C   0  0  1  0  0  3  0  0  0  0  0  0
  181.6710  175.3610  138.7060 C   0  0  0  0  0  2  0  0  0  0  0  0
  181.4730  176.7990  138.2910 C   0  0  0  0  0  2  0  0  0  0  0  0
  183.5960  177.8660  138.9540 C   0  0  0  0  0  2  0  0  0  0  0  0
  183.5690  179.3500  138.8530 C   0  0  0  0  0  0  0  0  0  0  0  0
  184.5420  180.0230  139.2880 O   0  0  0  0  0  0  0  0  0  0  0  0
  181.4740  180.6320  139.0010 C   0  0  0  0  0  1  0  0  0  0  0  0
  182.4770  179.9730  138.2450 O   0  0  0  0  0  0  0  0  0  0  0  0
  1  5  1  0  0  0  0
  2 11  1  0  0  0  0
  2  8  1  0  0  0  0
  3  2  1  0  0  0  0
  4  7  1  0  0  0  0
  4  3  1  0  0  0  0
  5 15  1  0  0  0  0
  6 11  1  0  0  0  0
  6 10  2  0  0  0  0
  7  9  1  0  0  0  0
  8  5  1  0  0  0  0
  9  6  1  0  0  0  0
 11  8  1  0  0  0  0
 11  1  1  0  0  0  0
 12 17  1  0  0  0  0
 12 14  1  0  0  0  0
 13 16  1  0  0  0  0
 15 13  1  0  0  0  0
 15 12  1  0  0  0  0
 16 14  1  0  0  0  0
 16 21  1  0  0  0  0
 17 18  1  0  0  0  0
 18 20  1  0  0  0  0
 19 18  1  0  0  0  0
 21 29  1  0  0  0  0
 22 23  1  0  0  0  0
 24 23  2  0  0  0  0
 25 22  2  0  0  0  0
 26 28  1  0  0  0  0
 26 22  1  0  0  0  0
 27 29  2  0  0  0  0
 28 24  1  0  0  0  0
 29 26  1  0  0  0  0
 30  3  1  0  0  0  0
 31 30  1  0  0  0  0
 31 33  1  0  0  0  0
 32 33  1  0  0  0  0
 33 34  1  0  0  0  0
 34 36  1  0  0  0  0
 34 35  1  0  0  0  0
 35 37  1  0  0  0  0
 36 38  1  0  0  0  0
 36 39  1  0  0  0  0
 38 37  1  0  0  0  0
 40 39  1  0  0  0  0
 40 41  2  0  0  0  0
 43 40  1  0  0  0  0
 43 42  1  0  0  0  0
M  END
>  <MODEL>
1

>  <REMARK>
 VINA RESULT:      -7.5      0.000      0.000
  Name = 
  12 active torsions:
  status: ('A' for Active; 'I' for Inactive)
    1  A    between atoms: C_2  and  C_13
    2  A    between atoms: C_2  and  O_29
    3  A    between atoms: C_5  and  C_15
    4  A    between atoms: C_5  and  C_22
    5  A    between atoms: C_10  and  C_19
    6  A    between atoms: C_11  and  C_27
    7  A    between atoms: C_13  and  C_16
    8  A    between atoms: C_15  and  C_27
    9  A    between atoms: C_17  and  C_19
   10  A    between atoms: C_21  and  C_40
   11  A    between atoms: C_21  and  C_43
   12  A    between atoms: N_24  and  C_41
                            x       y       z     vdW  Elec       q    Type
                         _______ _______ _______ _____ _____    ______ ____

>  <TORSDO>
F 12

$$$$
=
 OpenBabel11062412183D

 43 48  0  0  1  0  0  0  0  0999 V2000
  183.7820  179.2730  138.8600 C   0  0  0  0  0  2  0  0  0  0  0  0
  184.3790  179.2930  141.3310 C   0  0  1  0  0  3  0  0  0  0  0  0
  184.0980  178.6250  142.6800 C   0  0  2  0  0  3  0  0  0  0  0  0
  182.8280  179.1490  143.3550 C   0  0  0  0  0  2  0  0  0  0  0  0
  185.1400  178.7600  139.0140 N   0  0  1  0  0  0  0  0  0  0  0  0
  182.3510  177.7900  140.4780 C   0  0  0  0  0  0  0  0  0  0  0  0
  181.5730  179.1160  142.4760 C   0  0  0  0  0  2  0  0  0  0  0  0
  184.7570  178.2260  140.3220 C   0  0  2  0  0  3  0  0  0  0  0  0
  181.4330  177.8210  141.6730 C   0  0  0  0  0  2  0  0  0  0  0  0
  182.2390  176.8770  139.6750 O   0  0  0  0  0  0  0  0  0  0  0  0
  183.3840  178.8700  140.2560 C   0  0  1  0  0  0  0  0  0  0  0  0
  186.5090  177.8190  137.1920 C   0  0  1  0  0  3  0  0  0  0  0  0
  184.1730  177.6060  137.1030 C   0  0  0  0  0  2  0  0  0  0  0  0
  186.2040  177.3630  135.8920 O   0  0  0  0  0  0  0  0  0  0  0  0
  185.2980  177.6360  138.0880 C   0  0  2  0  0  3  0  0  0  0  0  0
  184.8260  177.0770  135.8490 C   0  0  1  0  0  3  0  0  0  0  0  0
  187.6990  177.0470  137.7650 C   0  0  0  0  0  2  0  0  0  0  0  0
  189.0630  177.6070  137.3620 C   0  0  0  0  0  3  0  0  0  0  0  0
  189.0300  179.1130  137.2240 C   0  0  0  0  0  1  0  0  0  0  0  0
  190.1680  177.1820  138.3110 C   0  0  0  0  0  1  0  0  0  0  0  0
  184.6310  175.5690  135.7570 C   0  0  0  0  0  2  0  0  0  0  0  0
  183.0030  173.0910  136.7380 C   0  0  0  0  0  0  0  0  0  0  0  0
  182.0270  172.2210  137.0580 N   0  0  0  0  0  0  0  0  0  0  0  0
  180.9530  172.7260  136.4150 C   0  0  0  0  0  3  0  0  0  0  0  0
  184.5430  172.9130  137.2730 S   0  0  0  0  0  0  0  0  0  0  0  0
  182.5460  174.0820  135.9400 N   0  0  0  0  0  0  0  0  0  0  0  0
  182.6030  175.9840  134.5940 O   0  0  0  0  0  0  0  0  0  0  0  0
  181.2610  173.8490  135.7350 N   0  0  0  0  0  2  0  0  0  0  0  0
  183.2240  175.2230  135.3830 C   0  0  0  0  0  0  0  0  0  0  0  0
  185.2710  178.8350  143.6230 C   0  0  0  0  0  2  0  0  0  0  0  0
  184.8530  178.6710  145.0800 C   0  0  0  0  0  2  0  0  0  0  0  0
  185.5390  178.9680  147.3250 O   0  0  0  0  0  1  0  0  0  0  0  0
  186.0360  178.8070  146.0320 C   0  0  1  0  0  3  0  0  0  0  0  0
  186.9500  177.5740  145.9590 C   0  0  2  0  0  3  0  0  0  0  0  0
  187.4830  177.2480  147.2850 N   0  0  0  0  0  2  0  0  0  0  0  0
  188.1230  177.8410  145.0270 C   0  0  1  0  0  3  0  0  0  0  0  0
  188.9360  177.3050  147.2010 C   0  0  0  0  0  2  0  0  0  0  0  0
  189.2960  178.0560  145.9430 C   0  0  0  0  0  2  0  0  0  0  0  0
  188.3850  176.6190  144.1570 C   0  0  0  0  0  2  0  0  0  0  0  0
  189.1390  177.0030  142.9340 C   0  0  0  0  0  0  0  0  0  0  0  0
  189.8970  176.1610  142.3790 O   0  0  0  0  0  0  0  0  0  0  0  0
  188.2290  178.5030  141.2090 C   0  0  0  0  0  1  0  0  0  0  0  0
  188.9690  178.2810  142.3990 O   0  0  0  0  0  0  0  0  0  0  0  0
  1  5  1  0  0  0  0
  1 11  1  0  0  0  0
  2  3  1  0  0  0  0
  3  4  1  0  0  0  0
  3 30  1  0  0  0  0
  5  8  1  0  0  0  0
  6  9  1  0  0  0  0
  7  4  1  0  0  0  0
  8  2  1  0  0  0  0
  9  7  1  0  0  0  0
 10  6  2  0  0  0  0
 11  8  1  0  0  0  0
 11  6  1  0  0  0  0
 11  2  1  0  0  0  0
 12 17  1  0  0  0  0
 12 15  1  0  0  0  0
 13 15  1  0  0  0  0
 14 12  1  0  0  0  0
 15  5  1  0  0  0  0
 16 14  1  0  0  0  0
 16 13  1  0  0  0  0
 18 17  1  0  0  0  0
 18 20  1  0  0  0  0
 19 18  1  0  0  0  0
 21 16  1  0  0  0  0
 22 23  1  0  0  0  0
 22 25  2  0  0  0  0
 24 23  2  0  0  0  0
 26 22  1  0  0  0  0
 27 29  2  0  0  0  0
 28 26  1  0  0  0  0
 28 24  1  0  0  0  0
 29 21  1  0  0  0  0
 29 26  1  0  0  0  0
 30 31  1  0  0  0  0
 31 33  1  0  0  0  0
 33 32  1  0  0  0  0
 34 33  1  0  0  0  0
 34 35  1  0  0  0  0
 36 38  1  0  0  0  0
 36 34  1  0  0  0  0
 37 35  1  0  0  0  0
 38 37  1  0  0  0  0
 39 36  1  0  0  0  0
 40 39  1  0  0  0  0
 41 40  2  0  0  0  0
 42 43  1  0  0  0  0
 43 40  1  0  0  0  0
M  END
>  <MODEL>
2

>  <REMARK>
 VINA RESULT:      -7.5      2.664      9.363
  Name = 
  12 active torsions:
  status: ('A' for Active; 'I' for Inactive)
    1  A    between atoms: C_2  and  C_13
    2  A    between atoms: C_2  and  O_29
    3  A    between atoms: C_5  and  C_15
    4  A    between atoms: C_5  and  C_22
    5  A    between atoms: C_10  and  C_19
    6  A    between atoms: C_11  and  C_27
    7  A    between atoms: C_13  and  C_16
    8  A    between atoms: C_15  and  C_27
    9  A    between atoms: C_17  and  C_19
   10  A    between atoms: C_21  and  C_40
   11  A    between atoms: C_21  and  C_43
   12  A    between atoms: N_24  and  C_41
                            x       y       z     vdW  Elec       q    Type
                         _______ _______ _______ _____ _____    ______ ____

>  <TORSDO>
F 12

$$$$
=
 OpenBabel11062412183D

 43 48  0  0  1  0  0  0  0  0999 V2000
  187.1500  176.2330  143.9970 C   0  0  0  0  0  2  0  0  0  0  0  0
  185.2570  177.9260  143.8710 C   0  0  1  0  0  3  0  0  0  0  0  0
  184.7060  179.2160  144.4840 C   0  0  2  0  0  3  0  0  0  0  0  0
  183.9200  178.9780  145.7760 C   0  0  0  0  0  2  0  0  0  0  0  0
  187.3030  177.0110  142.7720 N   0  0  1  0  0  0  0  0  0  0  0  0
  186.9950  178.0400  145.8880 C   0  0  0  0  0  0  0  0  0  0  0  0
  184.6640  178.1620  146.8390 C   0  0  0  0  0  2  0  0  0  0  0  0
  186.6980  178.1540  143.4590 C   0  0  2  0  0  3  0  0  0  0  0  0
  186.1290  178.5740  147.0000 C   0  0  0  0  0  2  0  0  0  0  0  0
  188.2060  178.1760  145.9700 O   0  0  0  0  0  0  0  0  0  0  0  0
  186.3930  177.3310  144.6970 C   0  0  1  0  0  0  0  0  0  0  0  0
  189.1570  177.1170  141.1490 C   0  0  1  0  0  3  0  0  0  0  0  0
  189.5540  176.2490  143.2930 C   0  0  0  0  0  2  0  0  0  0  0  0
  190.4340  176.5180  141.1020 O   0  0  0  0  0  0  0  0  0  0  0  0
  188.7320  177.2850  142.5960 C   0  0  2  0  0  3  0  0  0  0  0  0
  190.7710  176.1210  142.4090 C   0  0  1  0  0  3  0  0  0  0  0  0
  189.1780  178.4790  140.4540 C   0  0  0  0  0  2  0  0  0  0  0  0
  188.7210  178.4470  138.9950 C   0  0  0  0  0  3  0  0  0  0  0  0
  189.6820  177.6650  138.1260 C   0  0  0  0  0  1  0  0  0  0  0  0
  187.3090  177.9140  138.8410 C   0  0  0  0  0  1  0  0  0  0  0  0
  191.8880  177.0150  142.9310 C   0  0  0  0  0  2  0  0  0  0  0  0
  192.0210  175.7110  145.7660 C   0  0  0  0  0  0  0  0  0  0  0  0
  192.0720  175.4870  147.0920 N   0  0  0  0  0  0  0  0  0  0  0  0
  191.7270  176.6850  147.6120 C   0  0  0  0  0  3  0  0  0  0  0  0
  192.3510  174.5390  144.6680 S   0  0  0  0  0  0  0  0  0  0  0  0
  191.6650  176.9860  145.4880 N   0  0  0  0  0  0  0  0  0  0  0  0
  191.0920  178.8490  144.2110 O   0  0  0  0  0  0  0  0  0  0  0  0
  191.4780  177.5930  146.6470 N   0  0  0  0  0  2  0  0  0  0  0  0
  191.5110  177.6610  144.2270 C   0  0  0  0  0  0  0  0  0  0  0  0
  183.8010  179.9240  143.4900 C   0  0  0  0  0  2  0  0  0  0  0  0
  183.3520  178.9860  142.3750 C   0  0  0  0  0  2  0  0  0  0  0  0
  181.2500  179.8960  142.9680 O   0  0  0  0  0  1  0  0  0  0  0  0
  181.8420  178.7830  142.3720 C   0  0  1  0  0  3  0  0  0  0  0  0
  181.3110  178.5940  140.9420 C   0  0  2  0  0  3  0  0  0  0  0  0
  180.2540  177.5780  140.9140 N   0  0  0  0  0  2  0  0  0  0  0  0
  182.4310  178.1410  140.0180 C   0  0  1  0  0  3  0  0  0  0  0  0
  180.6840  176.5220  140.0100 C   0  0  0  0  0  2  0  0  0  0  0  0
  182.1690  176.6780  139.7910 C   0  0  0  0  0  2  0  0  0  0  0  0
  182.3400  178.8790  138.6890 C   0  0  0  0  0  2  0  0  0  0  0  0
  183.0130  180.2030  138.7810 C   0  0  0  0  0  0  0  0  0  0  0  0
  184.2220  180.2650  139.1340 O   0  0  0  0  0  0  0  0  0  0  0  0
  180.9360  181.5210  138.7830 C   0  0  0  0  0  1  0  0  0  0  0  0
  182.3020  181.3550  138.4400 O   0  0  0  0  0  0  0  0  0  0  0  0
  1 11  1  0  0  0  0
  2  3  1  0  0  0  0
  2 11  1  0  0  0  0
  3  4  1  0  0  0  0
  4  7  1  0  0  0  0
  5  8  1  0  0  0  0
  5  1  1  0  0  0  0
  6 10  2  0  0  0  0
  6  9  1  0  0  0  0
  7  9  1  0  0  0  0
  8  2  1  0  0  0  0
  8 11  1  0  0  0  0
 11  6  1  0  0  0  0
 12 15  1  0  0  0  0
 14 12  1  0  0  0  0
 14 16  1  0  0  0  0
 15  5  1  0  0  0  0
 15 13  1  0  0  0  0
 16 21  1  0  0  0  0
 16 13  1  0  0  0  0
 17 12  1  0  0  0  0
 18 17  1  0  0  0  0
 19 18  1  0  0  0  0
 20 18  1  0  0  0  0
 21 29  1  0  0  0  0
 22 23  1  0  0  0  0
 23 24  2  0  0  0  0
 25 22  2  0  0  0  0
 26 22  1  0  0  0  0
 26 28  1  0  0  0  0
 27 29  2  0  0  0  0
 28 24  1  0  0  0  0
 29 26  1  0  0  0  0
 30  3  1  0  0  0  0
 31 30  1  0  0  0  0
 33 31  1  0  0  0  0
 33 32  1  0  0  0  0
 34 33  1  0  0  0  0
 35 34  1  0  0  0  0
 36 34  1  0  0  0  0
 37 35  1  0  0  0  0
 38 37  1  0  0  0  0
 38 36  1  0  0  0  0
 39 40  1  0  0  0  0
 39 36  1  0  0  0  0
 40 41  2  0  0  0  0
 43 40  1  0  0  0  0
 43 42  1  0  0  0  0
M  END
>  <MODEL>
3

>  <REMARK>
 VINA RESULT:      -7.2      2.581      5.786
  Name = 
  12 active torsions:
  status: ('A' for Active; 'I' for Inactive)
    1  A    between atoms: C_2  and  C_13
    2  A    between atoms: C_2  and  O_29
    3  A    between atoms: C_5  and  C_15
    4  A    between atoms: C_5  and  C_22
    5  A    between atoms: C_10  and  C_19
    6  A    between atoms: C_11  and  C_27
    7  A    between atoms: C_13  and  C_16
    8  A    between atoms: C_15  and  C_27
    9  A    between atoms: C_17  and  C_19
   10  A    between atoms: C_21  and  C_40
   11  A    between atoms: C_21  and  C_43
   12  A    between atoms: N_24  and  C_41
                            x       y       z     vdW  Elec       q    Type
                         _______ _______ _______ _____ _____    ______ ____

>  <TORSDO>
F 12

$$$$
=
 OpenBabel11062412183D

 43 48  0  0  1  0  0  0  0  0999 V2000
  184.1760  179.3810  139.0280 C   0  0  0  0  0  2  0  0  0  0  0  0
  185.0880  179.1770  141.3920 C   0  0  1  0  0  3  0  0  0  0  0  0
  184.9100  178.4580  142.7320 C   0  0  2  0  0  3  0  0  0  0  0  0
  183.8080  179.0720  143.6000 C   0  0  0  0  0  2  0  0  0  0  0  0
  185.4740  178.7150  138.9690 N   0  0  1  0  0  0  0  0  0  0  0  0
  182.8050  177.9610  140.7520 C   0  0  0  0  0  0  0  0  0  0  0  0
  182.4540  179.2320  142.9000 C   0  0  0  0  0  2  0  0  0  0  0  0
  185.2050  178.1430  140.2900 C   0  0  2  0  0  3  0  0  0  0  0  0
  182.0600  178.0150  142.0610 C   0  0  0  0  0  2  0  0  0  0  0  0
  182.4840  177.1190  139.9270 O   0  0  0  0  0  0  0  0  0  0  0  0
  183.9190  178.9350  140.4430 C   0  0  1  0  0  0  0  0  0  0  0  0
  186.4210  177.8000  136.8850 C   0  0  1  0  0  3  0  0  0  0  0  0
  184.0970  177.7470  137.2120 C   0  0  0  0  0  2  0  0  0  0  0  0
  185.8550  177.4460  135.6410 O   0  0  0  0  0  0  0  0  0  0  0  0
  185.3780  177.6420  137.9760 C   0  0  2  0  0  3  0  0  0  0  0  0
  184.4740  177.2550  135.8360 C   0  0  1  0  0  3  0  0  0  0  0  0
  187.6310  176.9160  137.1940 C   0  0  0  0  0  2  0  0  0  0  0  0
  188.9790  177.5740  136.8980 C   0  0  0  0  0  3  0  0  0  0  0  0
  189.4130  177.3390  135.4680 C   0  0  0  0  0  1  0  0  0  0  0  0
  188.9850  179.0560  137.2210 C   0  0  0  0  0  1  0  0  0  0  0  0
  184.1500  175.7720  135.7080 C   0  0  0  0  0  2  0  0  0  0  0  0
  182.4530  173.3580  136.7280 C   0  0  0  0  0  0  0  0  0  0  0  0
  181.4540  172.5400  137.1080 N   0  0  0  0  0  0  0  0  0  0  0  0
  180.3580  173.1590  136.6190 C   0  0  0  0  0  3  0  0  0  0  0  0
  184.0230  173.0380  137.0750 S   0  0  0  0  0  0  0  0  0  0  0  0
  181.9900  174.4270  136.0430 N   0  0  0  0  0  0  0  0  0  0  0  0
  182.0470  176.4010  134.8060 O   0  0  0  0  0  0  0  0  0  0  0  0
  180.6760  174.2980  135.9720 N   0  0  0  0  0  2  0  0  0  0  0  0
  182.6890  175.5500  135.4760 C   0  0  0  0  0  0  0  0  0  0  0  0
  186.2110  178.4780  143.5160 C   0  0  0  0  0  2  0  0  0  0  0  0
  186.9270  177.1340  143.4450 C   0  0  0  0  0  2  0  0  0  0  0  0
  188.4220  177.9620  141.8080 O   0  0  0  0  0  1  0  0  0  0  0  0
  188.3850  177.2840  143.0260 C   0  0  1  0  0  3  0  0  0  0  0  0
  189.1910  178.0480  144.0890 C   0  0  2  0  0  3  0  0  0  0  0  0
  190.5360  178.3560  143.5940 N   0  0  0  0  0  2  0  0  0  0  0  0
  189.3280  177.2100  145.3510 C   0  0  1  0  0  3  0  0  0  0  0  0
  191.4900  177.7380  144.5040 C   0  0  0  0  0  2  0  0  0  0  0  0
  190.7470  176.7150  145.3280 C   0  0  0  0  0  2  0  0  0  0  0  0
  189.1220  178.0840  146.5810 C   0  0  0  0  0  2  0  0  0  0  0  0
  187.9210  177.6420  147.3400 C   0  0  0  0  0  0  0  0  0  0  0  0
  188.0380  177.2960  148.5470 O   0  0  0  0  0  0  0  0  0  0  0  0
  185.6320  178.5170  147.1240 C   0  0  0  0  0  1  0  0  0  0  0  0
  186.6750  177.6490  146.7100 O   0  0  0  0  0  0  0  0  0  0  0  0
  1 11  1  0  0  0  0
  2  3  1  0  0  0  0
  3 30  1  0  0  0  0
  3  4  1  0  0  0  0
  5  1  1  0  0  0  0
  5  8  1  0  0  0  0
  6  9  1  0  0  0  0
  7  4  1  0  0  0  0
  8 11  1  0  0  0  0
  8  2  1  0  0  0  0
  9  7  1  0  0  0  0
 10  6  2  0  0  0  0
 11  6  1  0  0  0  0
 11  2  1  0  0  0  0
 12 17  1  0  0  0  0
 12 15  1  0  0  0  0
 13 15  1  0  0  0  0
 14 16  1  0  0  0  0
 14 12  1  0  0  0  0
 15  5  1  0  0  0  0
 16 13  1  0  0  0  0
 18 17  1  0  0  0  0
 18 20  1  0  0  0  0
 19 18  1  0  0  0  0
 21 16  1  0  0  0  0
 22 25  2  0  0  0  0
 22 23  1  0  0  0  0
 24 23  2  0  0  0  0
 26 22  1  0  0  0  0
 27 29  2  0  0  0  0
 28 26  1  0  0  0  0
 28 24  1  0  0  0  0
 29 21  1  0  0  0  0
 29 26  1  0  0  0  0
 31 30  1  0  0  0  0
 32 33  1  0  0  0  0
 33 31  1  0  0  0  0
 33 34  1  0  0  0  0
 34 36  1  0  0  0  0
 35 34  1  0  0  0  0
 35 37  1  0  0  0  0
 36 39  1  0  0  0  0
 37 38  1  0  0  0  0
 38 36  1  0  0  0  0
 39 40  1  0  0  0  0
 40 41  2  0  0  0  0
 43 42  1  0  0  0  0
 43 40  1  0  0  0  0
M  END
>  <MODEL>
4

>  <REMARK>
 VINA RESULT:      -6.9      2.720      9.508
  Name = 
  12 active torsions:
  status: ('A' for Active; 'I' for Inactive)
    1  A    between atoms: C_2  and  C_13
    2  A    between atoms: C_2  and  O_29
    3  A    between atoms: C_5  and  C_15
    4  A    between atoms: C_5  and  C_22
    5  A    between atoms: C_10  and  C_19
    6  A    between atoms: C_11  and  C_27
    7  A    between atoms: C_13  and  C_16
    8  A    between atoms: C_15  and  C_27
    9  A    between atoms: C_17  and  C_19
   10  A    between atoms: C_21  and  C_40
   11  A    between atoms: C_21  and  C_43
   12  A    between atoms: N_24  and  C_41
                            x       y       z     vdW  Elec       q    Type
                         _______ _______ _______ _____ _____    ______ ____

>  <TORSDO>
F 12

$$$$
=
 OpenBabel11062412183D

 43 48  0  0  1  0  0  0  0  0999 V2000
  189.4310  178.6150  138.8070 C   0  0  0  0  0  2  0  0  0  0  0  0
  187.6600  178.1890  137.0330 C   0  0  1  0  0  3  0  0  0  0  0  0
  187.0760  177.1310  136.0930 C   0  0  2  0  0  3  0  0  0  0  0  0
  187.8880  176.9580  134.8060 C   0  0  0  0  0  2  0  0  0  0  0  0
  188.1200  178.6080  139.4500 N   0  0  1  0  0  0  0  0  0  0  0  0
  189.5190  176.3400  137.5100 C   0  0  0  0  0  0  0  0  0  0  0  0
  189.3850  176.7090  135.0190 C   0  0  0  0  0  2  0  0  0  0  0  0
  187.6670  177.6430  138.4460 C   0  0  2  0  0  3  0  0  0  0  0  0
  189.6770  175.7160  136.1460 C   0  0  0  0  0  2  0  0  0  0  0  0
  189.8580  175.6990  138.4920 O   0  0  0  0  0  0  0  0  0  0  0  0
  188.9690  177.7390  137.6720 C   0  0  1  0  0  0  0  0  0  0  0  0
  187.5390  178.6450  141.8460 C   0  0  1  0  0  3  0  0  0  0  0  0
  189.6800  177.9360  141.1930 C   0  0  0  0  0  2  0  0  0  0  0  0
  188.3080  178.5710  143.0270 O   0  0  0  0  0  0  0  0  0  0  0  0
  188.2580  177.9090  140.7300 C   0  0  2  0  0  3  0  0  0  0  0  0
  189.5530  178.0040  142.6950 C   0  0  1  0  0  3  0  0  0  0  0  0
  186.1570  178.0260  142.0670 C   0  0  0  0  0  2  0  0  0  0  0  0
  185.2130  178.8870  142.9070 C   0  0  0  0  0  3  0  0  0  0  0  0
  183.8120  178.9010  142.3350 C   0  0  0  0  0  1  0  0  0  0  0  0
  185.1880  178.4680  144.3650 C   0  0  0  0  0  1  0  0  0  0  0  0
  189.6370  176.6030  143.2880 C   0  0  0  0  0  2  0  0  0  0  0  0
  190.0380  176.8510  146.3750 C   0  0  0  0  0  0  0  0  0  0  0  0
  190.4990  176.7650  147.6360 N   0  0  0  0  0  0  0  0  0  0  0  0
  191.7680  176.3360  147.4630 C   0  0  0  0  0  3  0  0  0  0  0  0
  188.5140  177.3500  146.0340 S   0  0  0  0  0  0  0  0  0  0  0  0
  190.9780  176.4870  145.4740 N   0  0  0  0  0  0  0  0  0  0  0  0
  191.9570  176.1090  143.3930 O   0  0  0  0  0  0  0  0  0  0  0  0
  192.0630  176.1680  146.1580 N   0  0  0  0  0  2  0  0  0  0  0  0
  190.9160  176.4040  144.0390 C   0  0  0  0  0  0  0  0  0  0  0  0
  185.6480  177.4900  135.7210 C   0  0  0  0  0  2  0  0  0  0  0  0
  184.6400  176.6160  136.4600 C   0  0  0  0  0  2  0  0  0  0  0  0
  182.6680  175.8900  135.3730 O   0  0  0  0  0  1  0  0  0  0  0  0
  183.2030  176.9610  136.0870 C   0  0  1  0  0  3  0  0  0  0  0  0
  182.3590  177.2450  137.3400 C   0  0  2  0  0  3  0  0  0  0  0  0
  181.5240  178.4340  137.1400 N   0  0  0  0  0  2  0  0  0  0  0  0
  183.2610  177.4920  138.5390 C   0  0  1  0  0  3  0  0  0  0  0  0
  181.8810  179.3980  138.1710 C   0  0  0  0  0  2  0  0  0  0  0  0
  183.2070  178.9790  138.7570 C   0  0  0  0  0  2  0  0  0  0  0  0
  182.7000  176.7860  139.7660 C   0  0  0  0  0  2  0  0  0  0  0  0
  181.8020  175.6720  139.3610 C   0  0  0  0  0  0  0  0  0  0  0  0
  182.2340  174.7690  138.5940 O   0  0  0  0  0  0  0  0  0  0  0  0
  179.7010  174.4580  139.7700 C   0  0  0  0  0  1  0  0  0  0  0  0
  180.5000  175.6260  139.8650 O   0  0  0  0  0  0  0  0  0  0  0  0
  1  5  1  0  0  0  0
  2 11  1  0  0  0  0
  2  8  1  0  0  0  0
  3  2  1  0  0  0  0
  4  7  1  0  0  0  0
  4  3  1  0  0  0  0
  5 15  1  0  0  0  0
  6 11  1  0  0  0  0
  6 10  2  0  0  0  0
  7  9  1  0  0  0  0
  8  5  1  0  0  0  0
  9  6  1  0  0  0  0
 11  8  1  0  0  0  0
 11  1  1  0  0  0  0
 12 17  1  0  0  0  0
 12 14  1  0  0  0  0
 13 16  1  0  0  0  0
 15 13  1  0  0  0  0
 15 12  1  0  0  0  0
 16 14  1  0  0  0  0
 16 21  1  0  0  0  0
 17 18  1  0  0  0  0
 18 20  1  0  0  0  0
 19 18  1  0  0  0  0
 21 29  1  0  0  0  0
 22 23  1  0  0  0  0
 24 23  2  0  0  0  0
 25 22  2  0  0  0  0
 26 28  1  0  0  0  0
 26 22  1  0  0  0  0
 27 29  2  0  0  0  0
 28 24  1  0  0  0  0
 29 26  1  0  0  0  0
 30  3  1  0  0  0  0
 30 31  1  0  0  0  0
 32 33  1  0  0  0  0
 33 31  1  0  0  0  0
 33 34  1  0  0  0  0
 34 36  1  0  0  0  0
 35 34  1  0  0  0  0
 35 37  1  0  0  0  0
 36 38  1  0  0  0  0
 36 39  1  0  0  0  0
 37 38  1  0  0  0  0
 40 39  1  0  0  0  0
 40 43  1  0  0  0  0
 41 40  2  0  0  0  0
 42 43  1  0  0  0  0
M  END
>  <MODEL>
5

>  <REMARK>
 VINA RESULT:      -6.7      1.414      1.994
  Name = 
  12 active torsions:
  status: ('A' for Active; 'I' for Inactive)
    1  A    between atoms: C_2  and  C_13
    2  A    between atoms: C_2  and  O_29
    3  A    between atoms: C_5  and  C_15
    4  A    between atoms: C_5  and  C_22
    5  A    between atoms: C_10  and  C_19
    6  A    between atoms: C_11  and  C_27
    7  A    between atoms: C_13  and  C_16
    8  A    between atoms: C_15  and  C_27
    9  A    between atoms: C_17  and  C_19
   10  A    between atoms: C_21  and  C_40
   11  A    between atoms: C_21  and  C_43
   12  A    between atoms: N_24  and  C_41
                            x       y       z     vdW  Elec       q    Type
                         _______ _______ _______ _____ _____    ______ ____

>  <TORSDO>
F 12

$$$$
=
 OpenBabel11062412183D

 43 48  0  0  1  0  0  0  0  0999 V2000
  185.8770  176.4150  135.5400 C   0  0  0  0  0  2  0  0  0  0  0  0
  184.5620  177.8160  137.2060 C   0  0  1  0  0  3  0  0  0  0  0  0
  183.7780  177.7670  138.5190 C   0  0  2  0  0  3  0  0  0  0  0  0
  182.3350  177.2850  138.3390 C   0  0  0  0  0  2  0  0  0  0  0  0
  186.8080  177.2810  136.2560 N   0  0  1  0  0  0  0  0  0  0  0  0
  184.5790  175.1610  137.4390 C   0  0  0  0  0  0  0  0  0  0  0  0
  182.1910  175.9580  137.5870 C   0  0  0  0  0  2  0  0  0  0  0  0
  185.9310  177.2040  137.4270 C   0  0  2  0  0  3  0  0  0  0  0  0
  183.2120  174.9040  138.0210 C   0  0  0  0  0  2  0  0  0  0  0  0
  185.4500  174.3190  137.5920 O   0  0  0  0  0  0  0  0  0  0  0  0
  184.8750  176.4250  136.6650 C   0  0  1  0  0  0  0  0  0  0  0  0
  189.2740  177.2980  136.2460 C   0  0  1  0  0  3  0  0  0  0  0  0
  188.1340  175.3570  135.5780 C   0  0  0  0  0  2  0  0  0  0  0  0
  190.2420  176.4510  135.6650 O   0  0  0  0  0  0  0  0  0  0  0  0
  188.0160  176.5000  136.5360 C   0  0  2  0  0  3  0  0  0  0  0  0
  189.6250  175.2160  135.3910 C   0  0  1  0  0  3  0  0  0  0  0  0
  189.8070  177.9120  137.5410 C   0  0  0  0  0  2  0  0  0  0  0  0
  189.3410  177.1990  138.8110 C   0  0  0  0  0  3  0  0  0  0  0  0
  190.4810  176.4830  139.5010 C   0  0  0  0  0  1  0  0  0  0  0  0
  188.6370  178.1340  139.7770 C   0  0  0  0  0  1  0  0  0  0  0  0
  190.1710  174.1620  136.3450 C   0  0  0  0  0  2  0  0  0  0  0  0
  193.1500  173.2370  136.4970 C   0  0  0  0  0  0  0  0  0  0  0  0
  194.2990  172.5390  136.4330 N   0  0  0  0  0  0  0  0  0  0  0  0
  193.9690  171.4910  135.6490 C   0  0  0  0  0  3  0  0  0  0  0  0
  193.0250  174.6380  137.3410 S   0  0  0  0  0  0  0  0  0  0  0  0
  192.1640  172.6420  135.7890 N   0  0  0  0  0  0  0  0  0  0  0  0
  190.0640  172.3420  134.8250 O   0  0  0  0  0  0  0  0  0  0  0  0
  192.6810  171.5490  135.2540 N   0  0  0  0  0  2  0  0  0  0  0  0
  190.7880  173.0200  135.6010 C   0  0  0  0  0  0  0  0  0  0  0  0
  183.7520  179.1410  139.1670 C   0  0  0  0  0  2  0  0  0  0  0  0
  183.5760  179.0450  140.6780 C   0  0  0  0  0  2  0  0  0  0  0  0
  185.7230  179.6960  141.4290 O   0  0  0  0  0  1  0  0  0  0  0  0
  184.8570  178.6040  141.3760 C   0  0  1  0  0  3  0  0  0  0  0  0
  184.5650  178.0820  142.7920 C   0  0  2  0  0  3  0  0  0  0  0  0
  183.1490  178.2580  143.1250 N   0  0  0  0  0  2  0  0  0  0  0  0
  185.3940  178.8430  143.8170 C   0  0  1  0  0  3  0  0  0  0  0  0
  183.0780  179.0970  144.3120 C   0  0  0  0  0  2  0  0  0  0  0  0
  184.4170  179.7720  144.4810 C   0  0  0  0  0  2  0  0  0  0  0  0
  185.9520  177.8780  144.8540 C   0  0  0  0  0  2  0  0  0  0  0  0
  187.4350  177.8060  144.7540 C   0  0  0  0  0  0  0  0  0  0  0  0
  188.1330  177.8490  145.8030 O   0  0  0  0  0  0  0  0  0  0  0  0
  188.4590  176.3940  143.0200 C   0  0  0  0  0  1  0  0  0  0  0  0
  188.0290  177.6580  143.4990 O   0  0  0  0  0  0  0  0  0  0  0  0
  1  5  1  0  0  0  0
  1 11  1  0  0  0  0
  2  8  1  0  0  0  0
  2  3  1  0  0  0  0
  3 30  1  0  0  0  0
  4  3  1  0  0  0  0
  5 15  1  0  0  0  0
  5  8  1  0  0  0  0
  6 10  2  0  0  0  0
  6  9  1  0  0  0  0
  7  9  1  0  0  0  0
  7  4  1  0  0  0  0
 11  2  1  0  0  0  0
 11  8  1  0  0  0  0
 11  6  1  0  0  0  0
 12 15  1  0  0  0  0
 12 17  1  0  0  0  0
 13 15  1  0  0  0  0
 14 12  1  0  0  0  0
 16 13  1  0  0  0  0
 16 14  1  0  0  0  0
 16 21  1  0  0  0  0
 17 18  1  0  0  0  0
 18 19  1  0  0  0  0
 18 20  1  0  0  0  0
 22 25  2  0  0  0  0
 23 22  1  0  0  0  0
 24 23  2  0  0  0  0
 26 22  1  0  0  0  0
 27 29  2  0  0  0  0
 28 24  1  0  0  0  0
 28 26  1  0  0  0  0
 29 26  1  0  0  0  0
 29 21  1  0  0  0  0
 30 31  1  0  0  0  0
 31 33  1  0  0  0  0
 33 32  1  0  0  0  0
 33 34  1  0  0  0  0
 34 35  1  0  0  0  0
 34 36  1  0  0  0  0
 35 37  1  0  0  0  0
 36 38  1  0  0  0  0
 36 39  1  0  0  0  0
 37 38  1  0  0  0  0
 40 39  1  0  0  0  0
 40 41  2  0  0  0  0
 42 43  1  0  0  0  0
 43 40  1  0  0  0  0
M  END
>  <MODEL>
6

>  <REMARK>
 VINA RESULT:      -6.6      3.670      7.476
  Name = 
  12 active torsions:
  status: ('A' for Active; 'I' for Inactive)
    1  A    between atoms: C_2  and  C_13
    2  A    between atoms: C_2  and  O_29
    3  A    between atoms: C_5  and  C_15
    4  A    between atoms: C_5  and  C_22
    5  A    between atoms: C_10  and  C_19
    6  A    between atoms: C_11  and  C_27
    7  A    between atoms: C_13  and  C_16
    8  A    between atoms: C_15  and  C_27
    9  A    between atoms: C_17  and  C_19
   10  A    between atoms: C_21  and  C_40
   11  A    between atoms: C_21  and  C_43
   12  A    between atoms: N_24  and  C_41
                            x       y       z     vdW  Elec       q    Type
                         _______ _______ _______ _____ _____    ______ ____

>  <TORSDO>
F 12

$$$$
=
 OpenBabel11062412183D

 43 48  0  0  1  0  0  0  0  0999 V2000
  188.9250  179.0040  139.1990 C   0  0  0  0  0  2  0  0  0  0  0  0
  190.1050  177.1610  137.9030 C   0  0  1  0  0  3  0  0  0  0  0  0
  190.9590  175.8980  138.0440 C   0  0  2  0  0  3  0  0  0  0  0  0
  192.4450  176.1990  138.2580 C   0  0  0  0  0  2  0  0  0  0  0  0
  187.9160  178.1240  138.6200 N   0  0  1  0  0  0  0  0  0  0  0  0
  190.4990  177.3850  140.5290 C   0  0  0  0  0  0  0  0  0  0  0  0
  192.7440  177.1720  139.4040 C   0  0  0  0  0  2  0  0  0  0  0  0
  188.8570  177.0090  138.7500 C   0  0  2  0  0  3  0  0  0  0  0  0
  191.9180  176.8950  140.6620 C   0  0  0  0  0  2  0  0  0  0  0  0
  189.7730  177.3540  141.5110 O   0  0  0  0  0  0  0  0  0  0  0  0
  189.9740  177.9230  139.2180 C   0  0  1  0  0  0  0  0  0  0  0  0
  185.5850  178.6730  139.2100 C   0  0  1  0  0  3  0  0  0  0  0  0
  187.2190  178.6320  140.8950 C   0  0  0  0  0  2  0  0  0  0  0  0
  184.9890  179.2480  140.3520 O   0  0  0  0  0  0  0  0  0  0  0  0
  186.8550  177.9480  139.6160 C   0  0  2  0  0  3  0  0  0  0  0  0
  185.8870  179.1020  141.4260 C   0  0  1  0  0  3  0  0  0  0  0  0
  184.6220  177.6910  138.5390 C   0  0  0  0  0  2  0  0  0  0  0  0
  183.1540  177.9030  138.9090 C   0  0  0  0  0  3  0  0  0  0  0  0
  182.2920  178.1040  137.6820 C   0  0  0  0  0  1  0  0  0  0  0  0
  182.6040  176.7800  139.7680 C   0  0  0  0  0  1  0  0  0  0  0  0
  185.3300  178.0810  142.4090 C   0  0  0  0  0  2  0  0  0  0  0  0
  186.6030  177.8660  145.2520 C   0  0  0  0  0  0  0  0  0  0  0  0
  186.9650  178.0680  146.5330 N   0  0  0  0  0  0  0  0  0  0  0  0
  186.0630  178.9780  146.9590 C   0  0  0  0  0  3  0  0  0  0  0  0
  187.3960  176.8140  144.2760 S   0  0  0  0  0  0  0  0  0  0  0  0
  185.5340  178.6190  144.9110 N   0  0  0  0  0  0  0  0  0  0  0  0
  183.8030  179.4590  143.5950 O   0  0  0  0  0  0  0  0  0  0  0  0
  185.1940  179.3130  145.9830 N   0  0  0  0  0  2  0  0  0  0  0  0
  184.8350  178.7400  143.6580 C   0  0  0  0  0  0  0  0  0  0  0  0
  190.8130  175.0260  136.8090 C   0  0  0  0  0  2  0  0  0  0  0  0
  192.1700  174.6720  136.2110 C   0  0  0  0  0  2  0  0  0  0  0  0
  191.7270  172.5160  135.3400 O   0  0  0  0  0  1  0  0  0  0  0  0
  192.4690  173.1800  136.3170 C   0  0  1  0  0  3  0  0  0  0  0  0
  193.9690  172.9020  136.1320 C   0  0  2  0  0  3  0  0  0  0  0  0
  194.3540  171.6690  136.8270 N   0  0  0  0  0  2  0  0  0  0  0  0
  194.7930  174.0470  136.7020 C   0  0  1  0  0  3  0  0  0  0  0  0
  195.3810  172.0160  137.8000 C   0  0  0  0  0  2  0  0  0  0  0  0
  195.3460  173.5120  137.9940 C   0  0  0  0  0  2  0  0  0  0  0  0
  195.9450  174.3770  135.7630 C   0  0  0  0  0  2  0  0  0  0  0  0
  196.3960  175.7810  135.9640 C   0  0  0  0  0  0  0  0  0  0  0  0
  197.5850  176.0100  136.3170 O   0  0  0  0  0  0  0  0  0  0  0  0
  195.7900  177.8610  134.7990 C   0  0  0  0  0  1  0  0  0  0  0  0
  195.5020  176.8260  135.7250 O   0  0  0  0  0  0  0  0  0  0  0  0
  1 11  1  0  0  0  0
  2  3  1  0  0  0  0
  2  8  1  0  0  0  0
  2 11  1  0  0  0  0
  3  4  1  0  0  0  0
  4  7  1  0  0  0  0
  5  8  1  0  0  0  0
  5  1  1  0  0  0  0
  5 15  1  0  0  0  0
  6  9  1  0  0  0  0
  6 10  2  0  0  0  0
  7  9  1  0  0  0  0
  8 11  1  0  0  0  0
 11  6  1  0  0  0  0
 12 15  1  0  0  0  0
 12 14  1  0  0  0  0
 13 16  1  0  0  0  0
 14 16  1  0  0  0  0
 15 13  1  0  0  0  0
 16 21  1  0  0  0  0
 17 18  1  0  0  0  0
 17 12  1  0  0  0  0
 18 20  1  0  0  0  0
 19 18  1  0  0  0  0
 21 29  1  0  0  0  0
 22 23  1  0  0  0  0
 23 24  2  0  0  0  0
 25 22  2  0  0  0  0
 26 22  1  0  0  0  0
 26 28  1  0  0  0  0
 27 29  2  0  0  0  0
 28 24  1  0  0  0  0
 29 26  1  0  0  0  0
 30  3  1  0  0  0  0
 31 33  1  0  0  0  0
 31 30  1  0  0  0  0
 32 33  1  0  0  0  0
 34 33  1  0  0  0  0
 34 36  1  0  0  0  0
 34 35  1  0  0  0  0
 35 37  1  0  0  0  0
 36 38  1  0  0  0  0
 37 38  1  0  0  0  0
 39 40  1  0  0  0  0
 39 36  1  0  0  0  0
 40 41  2  0  0  0  0
 42 43  1  0  0  0  0
 43 40  1  0  0  0  0
M  END
>  <MODEL>
7

>  <REMARK>
 VINA RESULT:      -6.6      4.017      7.798
  Name = 
  12 active torsions:
  status: ('A' for Active; 'I' for Inactive)
    1  A    between atoms: C_2  and  C_13
    2  A    between atoms: C_2  and  O_29
    3  A    between atoms: C_5  and  C_15
    4  A    between atoms: C_5  and  C_22
    5  A    between atoms: C_10  and  C_19
    6  A    between atoms: C_11  and  C_27
    7  A    between atoms: C_13  and  C_16
    8  A    between atoms: C_15  and  C_27
    9  A    between atoms: C_17  and  C_19
   10  A    between atoms: C_21  and  C_40
   11  A    between atoms: C_21  and  C_43
   12  A    between atoms: N_24  and  C_41
                            x       y       z     vdW  Elec       q    Type
                         _______ _______ _______ _____ _____    ______ ____

>  <TORSDO>
F 12

$$$$
=
 OpenBabel11062412183D

 43 48  0  0  1  0  0  0  0  0999 V2000
  189.2820  178.6240  138.8350 C   0  0  0  0  0  2  0  0  0  0  0  0
  187.8570  177.6980  136.9440 C   0  0  1  0  0  3  0  0  0  0  0  0
  187.6310  176.4800  136.0440 C   0  0  2  0  0  3  0  0  0  0  0  0
  188.5960  176.4240  134.8570 C   0  0  0  0  0  2  0  0  0  0  0  0
  187.9440  178.3530  139.3510 N   0  0  1  0  0  0  0  0  0  0  0  0
  190.0180  176.3580  137.7420 C   0  0  0  0  0  0  0  0  0  0  0  0
  190.0780  176.5400  135.2290 C   0  0  0  0  0  2  0  0  0  0  0  0
  187.8310  177.2520  138.3930 C   0  0  2  0  0  3  0  0  0  0  0  0
  190.4590  175.7090  136.4560 C   0  0  0  0  0  2  0  0  0  0  0  0
  190.3820  175.8710  138.8010 O   0  0  0  0  0  0  0  0  0  0  0  0
  189.1550  177.6000  137.7380 C   0  0  1  0  0  0  0  0  0  0  0  0
  187.3630  178.6070  141.7340 C   0  0  1  0  0  3  0  0  0  0  0  0
  189.5150  177.8740  141.1470 C   0  0  0  0  0  2  0  0  0  0  0  0
  188.1340  178.6580  142.9160 O   0  0  0  0  0  0  0  0  0  0  0  0
  188.0940  177.7800  140.6920 C   0  0  2  0  0  3  0  0  0  0  0  0
  189.3870  178.0820  142.6370 C   0  0  1  0  0  3  0  0  0  0  0  0
  185.9920  177.9900  142.0160 C   0  0  0  0  0  2  0  0  0  0  0  0
  184.8800  179.0130  142.2500 C   0  0  0  0  0  3  0  0  0  0  0  0
  183.6030  178.6240  141.5390 C   0  0  0  0  0  1  0  0  0  0  0  0
  184.6170  179.2570  143.7250 C   0  0  0  0  0  1  0  0  0  0  0  0
  189.4950  176.7450  143.3590 C   0  0  0  0  0  2  0  0  0  0  0  0
  189.9080  177.0800  146.4360 C   0  0  0  0  0  0  0  0  0  0  0  0
  190.3830  177.0460  147.6950 N   0  0  0  0  0  0  0  0  0  0  0  0
  191.6710  176.6790  147.5190 C   0  0  0  0  0  3  0  0  0  0  0  0
  188.3580  177.4930  146.0990 S   0  0  0  0  0  0  0  0  0  0  0  0
  190.8580  176.7460  145.5350 N   0  0  0  0  0  0  0  0  0  0  0  0
  191.8380  176.3730  143.4530 O   0  0  0  0  0  0  0  0  0  0  0  0
  191.9640  176.4980  146.2150 N   0  0  0  0  0  2  0  0  0  0  0  0
  190.7890  176.6290  144.1020 C   0  0  0  0  0  0  0  0  0  0  0  0
  186.2070  176.4780  135.5130 C   0  0  0  0  0  2  0  0  0  0  0  0
  185.4970  175.1650  135.8200 C   0  0  0  0  0  2  0  0  0  0  0  0
  184.4170  176.2950  137.5970 O   0  0  0  0  0  1  0  0  0  0  0  0
  185.0380  175.0890  137.2720 C   0  0  1  0  0  3  0  0  0  0  0  0
  184.0700  173.9140  137.4860 C   0  0  2  0  0  3  0  0  0  0  0  0
  184.8040  172.6470  137.5480 N   0  0  0  0  0  2  0  0  0  0  0  0
  183.0750  173.8330  136.3390 C   0  0  1  0  0  3  0  0  0  0  0  0
  184.2970  171.7940  136.4820 C   0  0  0  0  0  2  0  0  0  0  0  0
  183.5420  172.6680  135.5110 C   0  0  0  0  0  2  0  0  0  0  0  0
  181.6820  173.5380  136.8780 C   0  0  0  0  0  2  0  0  0  0  0  0
  181.0730  174.7700  137.4490 C   0  0  0  0  0  0  0  0  0  0  0  0
  181.2230  175.0300  138.6740 O   0  0  0  0  0  0  0  0  0  0  0  0
  180.2020  177.0100  136.9250 C   0  0  0  0  0  1  0  0  0  0  0  0
  180.3720  175.6380  136.6100 O   0  0  0  0  0  0  0  0  0  0  0  0
  1  5  1  0  0  0  0
  2 11  1  0  0  0  0
  2  8  1  0  0  0  0
  3  2  1  0  0  0  0
  4  7  1  0  0  0  0
  4  3  1  0  0  0  0
  5 15  1  0  0  0  0
  6 10  2  0  0  0  0
  7  9  1  0  0  0  0
  8  5  1  0  0  0  0
  9  6  1  0  0  0  0
 11  6  1  0  0  0  0
 11  8  1  0  0  0  0
 11  1  1  0  0  0  0
 12 17  1  0  0  0  0
 12 14  1  0  0  0  0
 13 16  1  0  0  0  0
 15 13  1  0  0  0  0
 15 12  1  0  0  0  0
 16 14  1  0  0  0  0
 16 21  1  0  0  0  0
 17 18  1  0  0  0  0
 18 20  1  0  0  0  0
 19 18  1  0  0  0  0
 21 29  1  0  0  0  0
 22 23  1  0  0  0  0
 24 23  2  0  0  0  0
 25 22  2  0  0  0  0
 26 28  1  0  0  0  0
 26 22  1  0  0  0  0
 27 29  2  0  0  0  0
 28 24  1  0  0  0  0
 29 26  1  0  0  0  0
 30 31  1  0  0  0  0
 30  3  1  0  0  0  0
 31 33  1  0  0  0  0
 33 34  1  0  0  0  0
 33 32  1  0  0  0  0
 34 35  1  0  0  0  0
 36 39  1  0  0  0  0
 36 34  1  0  0  0  0
 37 35  1  0  0  0  0
 38 36  1  0  0  0  0
 38 37  1  0  0  0  0
 39 40  1  0  0  0  0
 40 41  2  0  0  0  0
 43 42  1  0  0  0  0
 43 40  1  0  0  0  0
M  END
>  <MODEL>
8

>  <REMARK>
 VINA RESULT:      -6.5      1.608      2.367
  Name = 
  12 active torsions:
  status: ('A' for Active; 'I' for Inactive)
    1  A    between atoms: C_2  and  C_13
    2  A    between atoms: C_2  and  O_29
    3  A    between atoms: C_5  and  C_15
    4  A    between atoms: C_5  and  C_22
    5  A    between atoms: C_10  and  C_19
    6  A    between atoms: C_11  and  C_27
    7  A    between atoms: C_13  and  C_16
    8  A    between atoms: C_15  and  C_27
    9  A    between atoms: C_17  and  C_19
   10  A    between atoms: C_21  and  C_40
   11  A    between atoms: C_21  and  C_43
   12  A    between atoms: N_24  and  C_41
                            x       y       z     vdW  Elec       q    Type
                         _______ _______ _______ _____ _____    ______ ____

>  <TORSDO>
F 12

$$$$
=
 OpenBabel11062412183D

 43 48  0  0  1  0  0  0  0  0999 V2000
  188.6980  177.1380  136.0690 C   0  0  0  0  0  2  0  0  0  0  0  0
  186.8640  178.1380  137.5190 C   0  0  1  0  0  3  0  0  0  0  0  0
  185.6180  177.8080  138.3440 C   0  0  2  0  0  3  0  0  0  0  0  0
  184.3560  177.6540  137.4890 C   0  0  0  0  0  2  0  0  0  0  0  0
  189.2870  177.5650  137.3340 N   0  0  1  0  0  0  0  0  0  0  0  0
  186.7130  175.5820  136.7810 C   0  0  0  0  0  0  0  0  0  0  0  0
  184.4900  176.6760  136.3170 C   0  0  0  0  0  2  0  0  0  0  0  0
  188.0130  177.2690  137.9920 C   0  0  2  0  0  3  0  0  0  0  0  0
  185.2220  175.3850  136.6890 C   0  0  0  0  0  2  0  0  0  0  0  0
  187.4270  174.6020  136.9310 O   0  0  0  0  0  0  0  0  0  0  0  0
  187.3300  176.9580  136.6730 C   0  0  1  0  0  0  0  0  0  0  0  0
  191.1520  177.0430  138.8610 C   0  0  1  0  0  3  0  0  0  0  0  0
  191.2410  176.2930  136.6380 C   0  0  0  0  0  2  0  0  0  0  0  0
  192.4680  176.5790  138.6530 O   0  0  0  0  0  0  0  0  0  0  0  0
  190.2600  176.5460  137.7380 C   0  0  2  0  0  3  0  0  0  0  0  0
  192.5180  175.9820  137.3800 C   0  0  1  0  0  3  0  0  0  0  0  0
  190.6150  176.5490  140.2050 C   0  0  0  0  0  2  0  0  0  0  0  0
  190.6290  177.6030  141.3120 C   0  0  0  0  0  3  0  0  0  0  0  0
  189.2360  178.1090  141.6190 C   0  0  0  0  0  1  0  0  0  0  0  0
  191.3070  177.1100  142.5770 C   0  0  0  0  0  1  0  0  0  0  0  0
  192.6720  174.4750  137.5410 C   0  0  0  0  0  2  0  0  0  0  0  0
  195.6330  173.4970  137.3670 C   0  0  0  0  0  0  0  0  0  0  0  0
  196.7830  172.8920  137.0180 N   0  0  0  0  0  0  0  0  0  0  0  0
  196.5090  172.4170  135.7840 C   0  0  0  0  0  3  0  0  0  0  0  0
  195.4490  174.2590  138.8070 S   0  0  0  0  0  0  0  0  0  0  0  0
  194.6990  173.3940  136.3950 N   0  0  0  0  0  0  0  0  0  0  0  0
  192.6710  173.7150  135.2920 O   0  0  0  0  0  0  0  0  0  0  0  0
  195.2510  172.7190  135.4020 N   0  0  0  0  0  2  0  0  0  0  0  0
  193.3390  173.8640  136.3490 C   0  0  0  0  0  0  0  0  0  0  0  0
  185.3730  178.8920  139.3800 C   0  0  0  0  0  2  0  0  0  0  0  0
  185.7270  178.4140  140.7840 C   0  0  0  0  0  2  0  0  0  0  0  0
  183.5820  179.2570  141.3200 O   0  0  0  0  0  1  0  0  0  0  0  0
  184.8590  179.0750  141.8490 C   0  0  1  0  0  3  0  0  0  0  0  0
  184.7950  178.2170  143.1220 C   0  0  2  0  0  3  0  0  0  0  0  0
  183.4980  178.3760  143.7870 N   0  0  0  0  0  2  0  0  0  0  0  0
  185.8850  178.6390  144.0980 C   0  0  1  0  0  3  0  0  0  0  0  0
  183.7510  178.8780  145.1300 C   0  0  0  0  0  2  0  0  0  0  0  0
  185.1620  179.4130  145.1650 C   0  0  0  0  0  2  0  0  0  0  0  0
  186.5280  177.4080  144.7220 C   0  0  0  0  0  2  0  0  0  0  0  0
  187.7220  177.7940  145.5230 C   0  0  0  0  0  0  0  0  0  0  0  0
  188.7870  178.1250  144.9350 O   0  0  0  0  0  0  0  0  0  0  0  0
  188.2990  176.8600  147.7240 C   0  0  0  0  0  1  0  0  0  0  0  0
  187.6310  177.8150  146.9160 O   0  0  0  0  0  0  0  0  0  0  0  0
  1 11  1  0  0  0  0
  1  5  1  0  0  0  0
  2  8  1  0  0  0  0
  2  3  1  0  0  0  0
  3 30  1  0  0  0  0
  4  3  1  0  0  0  0
  5 15  1  0  0  0  0
  5  8  1  0  0  0  0
  6 10  2  0  0  0  0
  7  9  1  0  0  0  0
  7  4  1  0  0  0  0
  9  6  1  0  0  0  0
 11  6  1  0  0  0  0
 11  2  1  0  0  0  0
 11  8  1  0  0  0  0
 12 17  1  0  0  0  0
 13 16  1  0  0  0  0
 13 15  1  0  0  0  0
 14 12  1  0  0  0  0
 15 12  1  0  0  0  0
 16 21  1  0  0  0  0
 16 14  1  0  0  0  0
 17 18  1  0  0  0  0
 18 19  1  0  0  0  0
 18 20  1  0  0  0  0
 22 25  2  0  0  0  0
 23 22  1  0  0  0  0
 24 23  2  0  0  0  0
 26 22  1  0  0  0  0
 27 29  2  0  0  0  0
 28 24  1  0  0  0  0
 28 26  1  0  0  0  0
 29 26  1  0  0  0  0
 29 21  1  0  0  0  0
 30 31  1  0  0  0  0
 31 33  1  0  0  0  0
 32 33  1  0  0  0  0
 33 34  1  0  0  0  0
 34 35  1  0  0  0  0
 34 36  1  0  0  0  0
 35 37  1  0  0  0  0
 36 39  1  0  0  0  0
 36 38  1  0  0  0  0
 37 38  1  0  0  0  0
 39 40  1  0  0  0  0
 40 43  1  0  0  0  0
 41 40  2  0  0  0  0
 43 42  1  0  0  0  0
M  END
>  <MODEL>
9

>  <REMARK>
 VINA RESULT:      -6.5      4.103      7.254
  Name = 
  12 active torsions:
  status: ('A' for Active; 'I' for Inactive)
    1  A    between atoms: C_2  and  C_13
    2  A    between atoms: C_2  and  O_29
    3  A    between atoms: C_5  and  C_15
    4  A    between atoms: C_5  and  C_22
    5  A    between atoms: C_10  and  C_19
    6  A    between atoms: C_11  and  C_27
    7  A    between atoms: C_13  and  C_16
    8  A    between atoms: C_15  and  C_27
    9  A    between atoms: C_17  and  C_19
   10  A    between atoms: C_21  and  C_40
   11  A    between atoms: C_21  and  C_43
   12  A    between atoms: N_24  and  C_41
                            x       y       z     vdW  Elec       q    Type
                         _______ _______ _______ _____ _____    ______ ____

>  <TORSDO>
F 12

$$$$
