=
 OpenBabel11062414403D

 38 42  0  0  1  0  0  0  0  0999 V2000
  180.7120  177.0890  140.1140 C   0  0  0  0  0  2  0  0  0  0  0  0
  182.3400  176.7740  137.1310 C   0  0  0  0  0  2  0  0  0  0  0  0
  180.2480  174.6870  139.4160 C   0  0  1  0  0  3  0  0  0  0  0  0
  182.1440  176.6790  139.7290 C   0  0  1  0  0  3  0  0  0  0  0  0
  184.2060  179.7940  139.3830 N   0  0  0  0  0  0  0  0  0  0  0  0
  184.1480  177.9110  140.9030 C   0  0  2  0  0  3  0  0  0  0  0  0
  181.1710  174.8260  138.2100 C   0  0  0  0  0  2  0  0  0  0  0  0
  185.8140  179.6800  141.0930 O   0  0  0  0  0  0  0  0  0  0  0  0
  183.1650  178.8990  139.0160 C   0  0  0  0  0  0  0  0  0  0  0  0
  179.6480  176.0470  139.7550 C   0  0  0  0  0  2  0  0  0  0  0  0
  184.8110  179.1890  140.5120 C   0  0  0  0  0  0  0  0  0  0  0  0
  179.2270  173.7880  139.1160 O   0  0  0  0  0  1  0  0  0  0  0  0
  182.2530  175.9030  138.3910 C   0  0  1  0  0  3  0  0  0  0  0  0
  182.2850  179.2010  137.8270 C   0  0  0  0  0  2  0  0  0  0  0  0
  183.0970  177.8350  139.8370 C   0  0  1  0  0  3  0  0  0  0  0  0
  181.4840  178.0280  137.2570 C   0  0  1  0  0  3  0  0  0  0  0  0
  183.9660  179.1920  144.2520 C   0  0  1  0  0  3  0  0  0  0  0  0
  183.5230  177.9610  142.3060 C   0  0  1  0  0  3  0  0  0  0  0  0
  184.5410  178.2310  143.3160 N   0  0  0  0  0  2  0  0  0  0  0  0
  182.4170  178.9880  142.4530 C   0  0  0  0  0  2  0  0  0  0  0  0
  182.5120  179.4100  143.8890 C   0  0  0  0  0  2  0  0  0  0  0  0
  184.0870  178.6630  145.6730 C   0  0  0  0  0  2  0  0  0  0  0  0
  185.8770  178.7310  147.3700 C   0  0  0  0  0  3  0  0  0  0  0  0
  185.5210  178.5880  146.0930 C   0  0  0  0  0  3  0  0  0  0  0  0
  187.3210  178.6830  147.7470 C   0  0  0  0  0  2  0  0  0  0  0  0
  187.9850  177.3490  147.3630 C   0  0  0  0  0  2  0  0  0  0  0  0
  189.3090  177.4550  146.7290 N   0  0  0  0  0  0  0  0  0  0  0  0
  191.5750  176.5090  146.6090 C   0  0  0  0  0  0  0  0  0  0  0  0
  190.4630  177.5020  144.5680 C   0  0  0  0  0  0  0  0  0  0  0  0
  192.6130  176.0590  147.1630 O   0  0  0  0  0  0  0  0  0  0  0  0
  190.2860  176.5640  147.3740 C   0  0  0  0  0  2  0  0  0  0  0  0
  190.3790  177.0570  143.2610 F   0  0  0  0  0  0  0  0  0  0  0  0
  189.1730  177.1490  145.3030 C   0  0  0  0  0  2  0  0  0  0  0  0
  190.6370  178.8750  144.5690 F   0  0  0  0  0  0  0  0  0  0  0  0
  191.6040  176.8700  145.2230 N   0  0  0  0  0  2  0  0  0  0  0  0
  180.3350  177.5170  135.2350 O   0  0  0  0  0  0  0  0  0  0  0  0
  181.0080  179.6980  135.4550 O   0  0  0  0  0  1  0  0  0  0  0  0
  180.9080  178.3950  135.9310 C   0  0  0  0  0  0  0  0  0  0  0  0
  2 16  1  0  0  0  0
  3 12  1  6  0  0  0
  3 10  1  0  0  0  0
  4 15  1  0  0  0  0
  4  1  1  6  0  0  0
  5 11  1  0  0  0  0
  6 11  1  6  0  0  0
  6 18  1  0  0  0  0
  7 13  1  0  0  0  0
  7  3  1  0  0  0  0
  9  5  2  0  0  0  0
 10  1  1  0  0  0  0
 11  8  2  0  0  0  0
 13  2  1  6  0  0  0
 13  4  1  0  0  0  0
 14  9  1  0  0  0  0
 15  9  1  6  0  0  0
 15  6  1  0  0  0  0
 16 38  1  6  0  0  0
 16 14  1  0  0  0  0
 17 22  1  1  0  0  0
 18 20  1  6  0  0  0
 18 19  1  0  0  0  0
 19 17  1  0  0  0  0
 20 21  1  0  0  0  0
 21 17  1  0  0  0  0
 22 24  1  0  0  0  0
 23 25  1  0  0  0  0
 24 23  2  0  0  0  0
 26 25  1  0  0  0  0
 27 26  1  0  0  0  0
 27 31  1  0  0  0  0
 28 30  2  0  0  0  0
 28 31  1  0  0  0  0
 29 34  1  0  0  0  0
 29 35  1  0  0  0  0
 29 33  1  0  0  0  0
 32 29  1  0  0  0  0
 33 27  1  0  0  0  0
 35 28  1  0  0  0  0
 36 38  2  0  0  0  0
 37 38  1  0  0  0  0
M  END
>  <MODEL>
1

>  <REMARK>
 VINA RESULT:      -9.2      0.000      0.000
  Name = 
  7 active torsions:
  status: ('A' for Active; 'I' for Inactive)
    1  A    between atoms: N_2  and  C_21
    2  A    between atoms: C_4  and  C_5
    3  A    between atoms: C_5  and  C_30
    4  A    between atoms: C_9  and  C_10
    5  A    between atoms: C_10  and  C_21
    6  A    between atoms: C_13  and  C_19
    7  A    between atoms: C_36  and  C_37
                            x       y       z     vdW  Elec       q    Type
                         _______ _______ _______ _____ _____    ______ ____

>  <TORSDO>
F 7

$$$$
=
 OpenBabel11062414403D

 38 42  0  0  1  0  0  0  0  0999 V2000
  180.7150  177.2540  140.4930 C   0  0  0  0  0  2  0  0  0  0  0  0
  182.0770  176.9260  137.3820 C   0  0  0  0  0  2  0  0  0  0  0  0
  180.1210  174.8750  139.8140 C   0  0  1  0  0  3  0  0  0  0  0  0
  182.0960  176.8050  139.9860 C   0  0  1  0  0  3  0  0  0  0  0  0
  184.2160  179.8620  139.4980 N   0  0  0  0  0  0  0  0  0  0  0  0
  184.2270  177.9640  141.0000 C   0  0  2  0  0  3  0  0  0  0  0  0
  180.9430  175.0010  138.5360 C   0  0  0  0  0  2  0  0  0  0  0  0
  185.9570  179.6800  141.0670 O   0  0  0  0  0  0  0  0  0  0  0  0
  183.1210  179.0030  139.2120 C   0  0  0  0  0  0  0  0  0  0  0  0
  179.5920  176.2470  140.2150 C   0  0  0  0  0  2  0  0  0  0  0  0
  184.8950  179.2260  140.5670 C   0  0  0  0  0  0  0  0  0  0  0  0
  179.0510  174.0100  139.5920 O   0  0  0  0  0  1  0  0  0  0  0  0
  182.0690  176.0430  138.6360 C   0  0  1  0  0  3  0  0  0  0  0  0
  182.1550  179.3450  138.1030 C   0  0  0  0  0  2  0  0  0  0  0  0
  183.0900  177.9320  140.0250 C   0  0  1  0  0  3  0  0  0  0  0  0
  181.2730  178.2030  137.5910 C   0  0  1  0  0  3  0  0  0  0  0  0
  184.3830  179.1880  144.3720 C   0  0  1  0  0  3  0  0  0  0  0  0
  183.7240  178.0150  142.4510 C   0  0  1  0  0  3  0  0  0  0  0  0
  184.8330  178.2200  143.3760 N   0  0  0  0  0  2  0  0  0  0  0  0
  182.6820  179.0880  142.7050 C   0  0  0  0  0  2  0  0  0  0  0  0
  182.9150  179.4780  144.1350 C   0  0  0  0  0  2  0  0  0  0  0  0
  184.5960  178.6270  145.7690 C   0  0  0  0  0  2  0  0  0  0  0  0
  186.7110  177.4100  146.1310 C   0  0  0  0  0  3  0  0  0  0  0  0
  186.0530  178.5690  146.1030 C   0  0  0  0  0  3  0  0  0  0  0  0
  188.1570  177.3870  146.5010 C   0  0  0  0  0  2  0  0  0  0  0  0
  189.0360  178.1410  145.4870 C   0  0  0  0  0  2  0  0  0  0  0  0
  189.3350  177.4180  144.2400 N   0  0  0  0  0  0  0  0  0  0  0  0
  189.0510  177.3940  141.7980 C   0  0  0  0  0  0  0  0  0  0  0  0
  191.1560  176.5070  142.8780 C   0  0  0  0  0  0  0  0  0  0  0  0
  188.3330  177.5220  140.7710 O   0  0  0  0  0  0  0  0  0  0  0  0
  188.5970  177.9850  143.1010 C   0  0  0  0  0  2  0  0  0  0  0  0
  192.4910  176.6770  142.5610 F   0  0  0  0  0  0  0  0  0  0  0  0
  190.7810  177.4600  144.0080 C   0  0  0  0  0  2  0  0  0  0  0  0
  190.9500  175.2000  143.2850 F   0  0  0  0  0  0  0  0  0  0  0  0
  190.3400  176.7790  141.6980 N   0  0  0  0  0  2  0  0  0  0  0  0
  180.5710  179.8160  135.9860 O   0  0  0  0  0  1  0  0  0  0  0  0
  179.9960  177.6470  135.5120 O   0  0  0  0  0  0  0  0  0  0  0  0
  180.6000  178.6030  136.3220 C   0  0  0  0  0  0  0  0  0  0  0  0
  2 16  1  0  0  0  0
  3 12  1  6  0  0  0
  3 10  1  0  0  0  0
  4 15  1  0  0  0  0
  4  1  1  6  0  0  0
  5 11  1  0  0  0  0
  6 11  1  6  0  0  0
  6 18  1  0  0  0  0
  7 13  1  0  0  0  0
  7  3  1  0  0  0  0
  9  5  2  0  0  0  0
 10  1  1  0  0  0  0
 11  8  2  0  0  0  0
 13  2  1  6  0  0  0
 13  4  1  0  0  0  0
 14  9  1  0  0  0  0
 15  9  1  6  0  0  0
 15  6  1  0  0  0  0
 16 38  1  6  0  0  0
 16 14  1  0  0  0  0
 17 22  1  1  0  0  0
 18 20  1  6  0  0  0
 18 19  1  0  0  0  0
 19 17  1  0  0  0  0
 20 21  1  0  0  0  0
 21 17  1  0  0  0  0
 22 24  1  0  0  0  0
 23 25  1  0  0  0  0
 24 23  2  0  0  0  0
 26 25  1  0  0  0  0
 27 26  1  0  0  0  0
 28 31  1  0  0  0  0
 29 34  1  0  0  0  0
 29 33  1  0  0  0  0
 30 28  2  0  0  0  0
 31 27  1  0  0  0  0
 32 29  1  0  0  0  0
 33 27  1  0  0  0  0
 35 28  1  0  0  0  0
 35 29  1  0  0  0  0
 36 38  1  0  0  0  0
 37 38  2  0  0  0  0
M  END
>  <MODEL>
2

>  <REMARK>
 VINA RESULT:      -8.9      1.749      2.247
  Name = 
  7 active torsions:
  status: ('A' for Active; 'I' for Inactive)
    1  A    between atoms: N_2  and  C_21
    2  A    between atoms: C_4  and  C_5
    3  A    between atoms: C_5  and  C_30
    4  A    between atoms: C_9  and  C_10
    5  A    between atoms: C_10  and  C_21
    6  A    between atoms: C_13  and  C_19
    7  A    between atoms: C_36  and  C_37
                            x       y       z     vdW  Elec       q    Type
                         _______ _______ _______ _____ _____    ______ ____

>  <TORSDO>
F 7

$$$$
=
 OpenBabel11062414403D

 38 42  0  0  1  0  0  0  0  0999 V2000
  188.1910  178.6970  142.4780 C   0  0  0  0  0  2  0  0  0  0  0  0
  189.7030  176.3360  144.4230 C   0  0  0  0  0  2  0  0  0  0  0  0
  188.9830  176.9470  140.8100 C   0  0  1  0  0  3  0  0  0  0  0  0
  187.6810  177.4390  143.2020 C   0  0  1  0  0  3  0  0  0  0  0  0
  186.8460  178.3760  146.7380 N   0  0  0  0  0  2  0  0  0  0  0  0
  185.5970  177.6760  144.7860 C   0  0  2  0  0  3  0  0  0  0  0  0
  189.4490  176.0350  141.9400 C   0  0  0  0  0  2  0  0  0  0  0  0
  184.5220  178.0880  146.9350 O   0  0  0  0  0  0  0  0  0  0  0  0
  187.7250  178.1690  145.6400 C   0  0  0  0  0  0  0  0  0  0  0  0
  189.0740  178.4000  141.2610 C   0  0  0  0  0  2  0  0  0  0  0  0
  185.5630  178.0620  146.2270 C   0  0  0  0  0  0  0  0  0  0  0  0
  189.7960  176.7530  139.6950 O   0  0  0  0  0  1  0  0  0  0  0  0
  188.7030  176.2740  143.2630 C   0  0  1  0  0  3  0  0  0  0  0  0
  189.2100  178.3960  145.8000 C   0  0  0  0  0  2  0  0  0  0  0  0
  187.0700  177.7780  144.5320 C   0  0  0  0  0  0  0  0  0  0  0  0
  190.1120  177.7710  144.7340 C   0  0  1  0  0  3  0  0  0  0  0  0
  183.2780  178.3490  142.1290 C   0  0  1  0  0  3  0  0  0  0  0  0
  184.8030  178.6370  143.8860 C   0  0  1  0  0  3  0  0  0  0  0  0
  184.6510  178.0820  142.5450 N   0  0  0  0  0  2  0  0  0  0  0  0
  183.4280  178.9880  144.4200 C   0  0  0  0  0  2  0  0  0  0  0  0
  182.6120  179.2120  143.1800 C   0  0  0  0  0  2  0  0  0  0  0  0
  183.2760  179.0550  140.7810 C   0  0  0  0  0  2  0  0  0  0  0  0
  182.9760  176.8480  139.7210 C   0  0  0  0  0  3  0  0  0  0  0  0
  182.7360  178.1590  139.7120 C   0  0  0  0  0  3  0  0  0  0  0  0
  182.4490  175.9890  138.6190 C   0  0  0  0  0  2  0  0  0  0  0  0
  183.3180  176.0620  137.3500 C   0  0  0  0  0  2  0  0  0  0  0  0
  184.7630  176.2280  137.5760 N   0  0  0  0  0  0  0  0  0  0  0  0
  187.0050  175.3670  137.0470 C   0  0  0  0  0  0  0  0  0  0  0  0
  186.6090  177.8340  137.4340 C   0  0  0  0  0  0  0  0  0  0  0  0
  187.8120  174.4120  136.8990 O   0  0  0  0  0  0  0  0  0  0  0  0
  185.5270  175.1070  137.0070 C   0  0  0  0  0  2  0  0  0  0  0  0
  187.0510  178.9510  136.7520 F   0  0  0  0  0  0  0  0  0  0  0  0
  185.1850  177.5050  136.9950 C   0  0  0  0  0  2  0  0  0  0  0  0
  186.6270  178.0960  138.7940 F   0  0  0  0  0  0  0  0  0  0  0  0
  187.4960  176.7090  137.1480 N   0  0  0  0  0  2  0  0  0  0  0  0
  192.3400  178.6020  144.6070 O   0  0  0  0  0  0  0  0  0  0  0  0
  191.9840  176.9920  146.2020 O   0  0  0  0  0  1  0  0  0  0  0  0
  191.5360  177.8170  145.1750 C   0  0  0  0  0  0  0  0  0  0  0  0
  2 16  1  0  0  0  0
  3 12  1  6  0  0  0
  3 10  1  0  0  0  0
  3  7  1  0  0  0  0
  4  1  1  1  0  0  0
  4 13  1  0  0  0  0
  4 15  1  0  0  0  0
  6 15  1  6  0  0  0
  6 11  1  0  0  0  0
  9 14  1  0  0  0  0
  9  5  1  0  0  0  0
 10  1  1  0  0  0  0
 11  5  1  0  0  0  0
 11  8  2  0  0  0  0
 13  7  1  6  0  0  0
 13  2  1  0  0  0  0
 15  9  2  0  0  0  0
 16 38  1  1  0  0  0
 16 14  1  0  0  0  0
 17 22  1  6  0  0  0
 17 19  1  0  0  0  0
 17 21  1  0  0  0  0
 18 20  1  1  0  0  0
 18  6  1  0  0  0  0
 19 18  1  0  0  0  0
 21 20  1  0  0  0  0
 24 23  2  0  0  0  0
 24 22  1  0  0  0  0
 25 23  1  0  0  0  0
 26 27  1  0  0  0  0
 26 25  1  0  0  0  0
 28 35  1  0  0  0  0
 29 34  1  0  0  0  0
 30 28  2  0  0  0  0
 31 28  1  0  0  0  0
 31 27  1  0  0  0  0
 32 29  1  0  0  0  0
 33 29  1  0  0  0  0
 33 27  1  0  0  0  0
 35 29  1  0  0  0  0
 36 38  2  0  0  0  0
 38 37  1  0  0  0  0
M  END
>  <MODEL>
3

>  <REMARK>
 VINA RESULT:      -8.3      3.519      8.974
  Name = 
  7 active torsions:
  status: ('A' for Active; 'I' for Inactive)
    1  A    between atoms: N_2  and  C_21
    2  A    between atoms: C_4  and  C_5
    3  A    between atoms: C_5  and  C_30
    4  A    between atoms: C_9  and  C_10
    5  A    between atoms: C_10  and  C_21
    6  A    between atoms: C_13  and  C_19
    7  A    between atoms: C_36  and  C_37
                            x       y       z     vdW  Elec       q    Type
                         _______ _______ _______ _____ _____    ______ ____

>  <TORSDO>
F 7

$$$$
=
 OpenBabel11062414403D

 38 42  0  0  1  0  0  0  0  0999 V2000
  189.9260  178.6240  144.4740 C   0  0  0  0  0  2  0  0  0  0  0  0
  190.5290  175.9140  146.4580 C   0  0  0  0  0  2  0  0  0  0  0  0
  191.2820  177.0690  142.9870 C   0  0  1  0  0  3  0  0  0  0  0  0
  189.1580  177.3190  144.7420 C   0  0  1  0  0  3  0  0  0  0  0  0
  187.0240  177.8170  147.7880 N   0  0  0  0  0  2  0  0  0  0  0  0
  186.6240  177.4850  145.4240 C   0  0  2  0  0  3  0  0  0  0  0  0
  191.2590  175.9780  144.0530 C   0  0  0  0  0  2  0  0  0  0  0  0
  184.8030  177.6730  147.0330 O   0  0  0  0  0  0  0  0  0  0  0  0
  188.2580  177.7000  147.0930 C   0  0  0  0  0  0  0  0  0  0  0  0
  191.2100  178.4350  143.6580 C   0  0  0  0  0  2  0  0  0  0  0  0
  186.0370  177.6700  146.7830 C   0  0  0  0  0  0  0  0  0  0  0  0
  192.4630  176.9710  142.2530 O   0  0  0  0  0  1  0  0  0  0  0  0
  190.0590  176.0850  145.0090 C   0  0  1  0  0  3  0  0  0  0  0  0
  189.5660  177.7940  147.8430 C   0  0  0  0  0  2  0  0  0  0  0  0
  188.0820  177.5140  145.7720 C   0  0  0  0  0  0  0  0  0  0  0  0
  190.8040  177.2580  147.1200 C   0  0  1  0  0  3  0  0  0  0  0  0
  184.9760  178.7350  142.4890 C   0  0  1  0  0  3  0  0  0  0  0  0
  186.2570  178.6160  144.4500 C   0  0  1  0  0  3  0  0  0  0  0  0
  186.1520  178.1090  143.0850 N   0  0  0  0  0  2  0  0  0  0  0  0
  184.9670  179.3340  144.7960 C   0  0  0  0  0  2  0  0  0  0  0  0
  184.4270  179.7580  143.4620 C   0  0  0  0  0  2  0  0  0  0  0  0
  185.3570  179.4010  141.1750 C   0  0  0  0  0  2  0  0  0  0  0  0
  185.3070  178.6210  138.8350 C   0  0  0  0  0  3  0  0  0  0  0  0
  185.6030  178.3770  140.1120 C   0  0  0  0  0  3  0  0  0  0  0  0
  185.5350  177.5640  137.8060 C   0  0  0  0  0  2  0  0  0  0  0  0
  186.9570  177.6110  137.2190 C   0  0  0  0  0  2  0  0  0  0  0  0
  187.9870  176.8930  137.9880 N   0  0  0  0  0  0  0  0  0  0  0  0
  189.8370  175.2770  137.8720 C   0  0  0  0  0  0  0  0  0  0  0  0
  189.8800  177.1990  139.5140 C   0  0  0  0  0  0  0  0  0  0  0  0
  190.3270  174.1900  137.4670 O   0  0  0  0  0  0  0  0  0  0  0  0
  188.6510  175.8680  137.1670 C   0  0  0  0  0  2  0  0  0  0  0  0
  190.8830  178.0820  139.8660 F   0  0  0  0  0  0  0  0  0  0  0  0
  188.9530  177.8670  138.5030 C   0  0  0  0  0  2  0  0  0  0  0  0
  189.1610  176.8540  140.6460 F   0  0  0  0  0  0  0  0  0  0  0  0
  190.4730  175.9960  138.9350 N   0  0  0  0  0  2  0  0  0  0  0  0
  192.8060  176.2380  147.9090 O   0  0  0  0  0  0  0  0  0  0  0  0
  192.0560  178.0140  149.1520 O   0  0  0  0  0  1  0  0  0  0  0  0
  191.9440  177.1400  148.0740 C   0  0  0  0  0  0  0  0  0  0  0  0
  2 16  1  0  0  0  0
  3 12  1  1  0  0  0
  3 10  1  0  0  0  0
  3  7  1  0  0  0  0
  4  1  1  1  0  0  0
  4 13  1  0  0  0  0
  4 15  1  0  0  0  0
  6 15  1  1  0  0  0
  6 11  1  0  0  0  0
  9  5  1  0  0  0  0
  9 14  1  0  0  0  0
 10  1  1  0  0  0  0
 11  8  2  0  0  0  0
 11  5  1  0  0  0  0
 13  7  1  6  0  0  0
 13  2  1  0  0  0  0
 15  9  2  0  0  0  0
 16 14  1  0  0  0  0
 16 38  1  1  0  0  0
 17 22  1  6  0  0  0
 17 19  1  0  0  0  0
 17 21  1  0  0  0  0
 18 20  1  1  0  0  0
 18  6  1  0  0  0  0
 19 18  1  0  0  0  0
 21 20  1  0  0  0  0
 23 24  2  0  0  0  0
 24 22  1  0  0  0  0
 25 23  1  0  0  0  0
 26 25  1  0  0  0  0
 26 27  1  0  0  0  0
 27 33  1  0  0  0  0
 28 35  1  0  0  0  0
 29 32  1  0  0  0  0
 29 34  1  0  0  0  0
 30 28  2  0  0  0  0
 31 28  1  0  0  0  0
 31 27  1  0  0  0  0
 33 29  1  0  0  0  0
 35 29  1  0  0  0  0
 36 38  2  0  0  0  0
 38 37  1  0  0  0  0
M  END
>  <MODEL>
4

>  <REMARK>
 VINA RESULT:      -8.1      4.407      9.661
  Name = 
  7 active torsions:
  status: ('A' for Active; 'I' for Inactive)
    1  A    between atoms: N_2  and  C_21
    2  A    between atoms: C_4  and  C_5
    3  A    between atoms: C_5  and  C_30
    4  A    between atoms: C_9  and  C_10
    5  A    between atoms: C_10  and  C_21
    6  A    between atoms: C_13  and  C_19
    7  A    between atoms: C_36  and  C_37
                            x       y       z     vdW  Elec       q    Type
                         _______ _______ _______ _____ _____    ______ ____

>  <TORSDO>
F 7

$$$$
=
 OpenBabel11062414403D

 38 42  0  0  1  0  0  0  0  0999 V2000
  188.1940  178.7060  142.4320 C   0  0  0  0  0  2  0  0  0  0  0  0
  189.7390  176.3780  144.3900 C   0  0  0  0  0  2  0  0  0  0  0  0
  188.9940  176.9490  140.7750 C   0  0  1  0  0  3  0  0  0  0  0  0
  187.7000  177.4500  143.1700 C   0  0  1  0  0  3  0  0  0  0  0  0
  186.8760  178.4110  146.7010 N   0  0  0  0  0  2  0  0  0  0  0  0
  185.6220  177.6820  144.7640 C   0  0  2  0  0  3  0  0  0  0  0  0
  189.4740  176.0510  141.9110 C   0  0  0  0  0  2  0  0  0  0  0  0
  184.5560  178.1030  146.9150 O   0  0  0  0  0  0  0  0  0  0  0  0
  187.7500  178.2030  145.6010 C   0  0  0  0  0  0  0  0  0  0  0  0
  189.0730  178.4070  141.2120 C   0  0  0  0  0  2  0  0  0  0  0  0
  185.5930  178.0800  146.2010 C   0  0  0  0  0  0  0  0  0  0  0  0
  189.8020  176.7520  139.6580 O   0  0  0  0  0  1  0  0  0  0  0  0
  188.7330  176.2950  143.2360 C   0  0  1  0  0  3  0  0  0  0  0  0
  189.2340  178.4450  145.7510 C   0  0  0  0  0  2  0  0  0  0  0  0
  187.0940  177.7950  144.5000 C   0  0  0  0  0  0  0  0  0  0  0  0
  190.1370  177.8180  144.6850 C   0  0  1  0  0  3  0  0  0  0  0  0
  183.4150  178.3170  142.0040 C   0  0  1  0  0  3  0  0  0  0  0  0
  184.8150  178.6270  143.8600 C   0  0  1  0  0  3  0  0  0  0  0  0
  184.7780  178.1260  142.4900 N   0  0  0  0  0  2  0  0  0  0  0  0
  183.3900  178.8590  144.3250 C   0  0  0  0  0  2  0  0  0  0  0  0
  182.6320  179.0840  143.0500 C   0  0  0  0  0  2  0  0  0  0  0  0
  183.4390  179.0830  140.6890 C   0  0  0  0  0  2  0  0  0  0  0  0
  184.9790  178.3360  138.9120 C   0  0  0  0  0  3  0  0  0  0  0  0
  184.7900  179.0020  140.0510 C   0  0  0  0  0  3  0  0  0  0  0  0
  186.3470  178.2490  138.3210 C   0  0  0  0  0  2  0  0  0  0  0  0
  186.3840  177.3810  137.0500 C   0  0  0  0  0  2  0  0  0  0  0  0
  186.9040  176.0160  137.2260 N   0  0  0  0  0  0  0  0  0  0  0  0
  186.3500  173.6200  137.1880 C   0  0  0  0  0  0  0  0  0  0  0  0
  188.6260  174.4470  136.4640 C   0  0  0  0  0  0  0  0  0  0  0  0
  185.5950  172.6580  137.4910 O   0  0  0  0  0  0  0  0  0  0  0  0
  185.8180  175.0230  137.2190 C   0  0  0  0  0  2  0  0  0  0  0  0
  189.4190  174.1190  135.3800 F   0  0  0  0  0  0  0  0  0  0  0  0
  187.8770  175.7430  136.1660 C   0  0  0  0  0  2  0  0  0  0  0  0
  189.4300  174.6210  137.5780 F   0  0  0  0  0  0  0  0  0  0  0  0
  187.6780  173.3660  136.7170 N   0  0  0  0  0  2  0  0  0  0  0  0
  192.3560  178.6680  144.5370 O   0  0  0  0  0  0  0  0  0  0  0  0
  192.0230  177.0730  146.1510 O   0  0  0  0  0  1  0  0  0  0  0  0
  191.5620  177.8830  145.1180 C   0  0  0  0  0  0  0  0  0  0  0  0
  2 16  1  0  0  0  0
  3 12  1  6  0  0  0
  3 10  1  0  0  0  0
  3  7  1  0  0  0  0
  4  1  1  1  0  0  0
  4 13  1  0  0  0  0
  4 15  1  0  0  0  0
  6 15  1  6  0  0  0
  6 11  1  0  0  0  0
  9 14  1  0  0  0  0
  9  5  1  0  0  0  0
 10  1  1  0  0  0  0
 11  5  1  0  0  0  0
 11  8  2  0  0  0  0
 13  7  1  6  0  0  0
 13  2  1  0  0  0  0
 15  9  2  0  0  0  0
 16 38  1  1  0  0  0
 16 14  1  0  0  0  0
 17 22  1  6  0  0  0
 17 19  1  0  0  0  0
 17 21  1  0  0  0  0
 18 20  1  1  0  0  0
 18  6  1  0  0  0  0
 19 18  1  0  0  0  0
 21 20  1  0  0  0  0
 23 24  2  0  0  0  0
 24 22  1  0  0  0  0
 25 23  1  0  0  0  0
 26 27  1  0  0  0  0
 26 25  1  0  0  0  0
 28 31  1  0  0  0  0
 28 30  2  0  0  0  0
 29 35  1  0  0  0  0
 29 34  1  0  0  0  0
 31 27  1  0  0  0  0
 32 29  1  0  0  0  0
 33 29  1  0  0  0  0
 33 27  1  0  0  0  0
 35 28  1  0  0  0  0
 36 38  2  0  0  0  0
 38 37  1  0  0  0  0
M  END
>  <MODEL>
5

>  <REMARK>
 VINA RESULT:      -8.1      3.868      9.023
  Name = 
  7 active torsions:
  status: ('A' for Active; 'I' for Inactive)
    1  A    between atoms: N_2  and  C_21
    2  A    between atoms: C_4  and  C_5
    3  A    between atoms: C_5  and  C_30
    4  A    between atoms: C_9  and  C_10
    5  A    between atoms: C_10  and  C_21
    6  A    between atoms: C_13  and  C_19
    7  A    between atoms: C_36  and  C_37
                            x       y       z     vdW  Elec       q    Type
                         _______ _______ _______ _____ _____    ______ ____

>  <TORSDO>
F 7

$$$$
=
 OpenBabel11062414403D

 38 42  0  0  1  0  0  0  0  0999 V2000
  183.8550  178.8900  138.6380 C   0  0  0  0  0  2  0  0  0  0  0  0
  181.7830  176.4670  137.4220 C   0  0  0  0  0  2  0  0  0  0  0  0
  182.5510  178.1190  140.6820 C   0  0  1  0  0  3  0  0  0  0  0  0
  184.0030  177.3710  138.4480 C   0  0  1  0  0  3  0  0  0  0  0  0
  185.1650  176.7340  134.9380 N   0  0  0  0  0  0  0  0  0  0  0  0
  186.1090  176.4790  137.1520 C   0  0  2  0  0  3  0  0  0  0  0  0
  181.8740  177.0170  139.8740 C   0  0  0  0  0  2  0  0  0  0  0  0
  187.3140  175.8040  135.1440 O   0  0  0  0  0  0  0  0  0  0  0  0
  184.2350  177.1670  135.9220 C   0  0  0  0  0  0  0  0  0  0  0  0
  182.8920  179.2860  139.7630 C   0  0  0  0  0  2  0  0  0  0  0  0
  186.2910  176.3020  135.6820 C   0  0  0  0  0  0  0  0  0  0  0  0
  181.6870  178.5530  141.6860 O   0  0  0  0  0  1  0  0  0  0  0  0
  182.6930  176.5670  138.6530 C   0  0  1  0  0  3  0  0  0  0  0  0
  182.8820  177.6970  135.5090 C   0  0  0  0  0  2  0  0  0  0  0  0
  184.7200  177.0420  137.1700 C   0  0  1  0  0  3  0  0  0  0  0  0
  181.8100  177.7500  136.6000 C   0  0  1  0  0  3  0  0  0  0  0  0
  189.4580  177.4980  137.9550 C   0  0  1  0  0  3  0  0  0  0  0  0
  187.1210  177.4580  137.7710 C   0  0  1  0  0  3  0  0  0  0  0  0
  188.2660  176.7400  138.3200 N   0  0  0  0  0  2  0  0  0  0  0  0
  187.6320  178.5100  136.8060 C   0  0  0  0  0  2  0  0  0  0  0  0
  189.0260  178.7860  137.2860 C   0  0  0  0  0  2  0  0  0  0  0  0
  190.2830  177.7930  139.1980 C   0  0  0  0  0  2  0  0  0  0  0  0
  189.5810  177.4000  141.5310 C   0  0  0  0  0  3  0  0  0  0  0  0
  189.8770  176.9020  140.3300 C   0  0  0  0  0  3  0  0  0  0  0  0
  189.2120  176.4790  142.6460 C   0  0  0  0  0  2  0  0  0  0  0  0
  188.5070  177.2090  143.8030 C   0  0  0  0  0  2  0  0  0  0  0  0
  189.0330  176.9270  145.1490 N   0  0  0  0  0  0  0  0  0  0  0  0
  191.0530  176.8080  146.5460 C   0  0  0  0  0  0  0  0  0  0  0  0
  188.8360  177.5440  147.5120 C   0  0  0  0  0  0  0  0  0  0  0  0
  192.2480  176.4540  146.7280 O   0  0  0  0  0  0  0  0  0  0  0  0
  190.5040  176.8860  145.1520 C   0  0  0  0  0  2  0  0  0  0  0  0
  188.5050  178.5860  148.3580 F   0  0  0  0  0  0  0  0  0  0  0  0
  188.5300  177.9470  146.0730 C   0  0  0  0  0  2  0  0  0  0  0  0
  188.0890  176.4290  147.8510 F   0  0  0  0  0  0  0  0  0  0  0  0
  190.2560  177.2340  147.6570 N   0  0  0  0  0  2  0  0  0  0  0  0
  179.6380  178.7250  136.5980 O   0  0  0  0  0  1  0  0  0  0  0  0
  180.1340  177.4350  134.7680 O   0  0  0  0  0  0  0  0  0  0  0  0
  180.4720  178.0020  135.9930 C   0  0  0  0  0  0  0  0  0  0  0  0
  1 10  1  0  0  0  0
  3 12  1  1  0  0  0
  4  1  1  6  0  0  0
  4 13  1  0  0  0  0
  5 11  1  0  0  0  0
  5  9  2  0  0  0  0
  6 11  1  6  0  0  0
  6 15  1  0  0  0  0
  6 18  1  0  0  0  0
  7  3  1  0  0  0  0
  8 11  2  0  0  0  0
 10  3  1  0  0  0  0
 13  2  1  6  0  0  0
 13  7  1  0  0  0  0
 14  9  1  0  0  0  0
 14 16  1  0  0  0  0
 15  9  1  1  0  0  0
 15  4  1  0  0  0  0
 16 38  1  6  0  0  0
 16  2  1  0  0  0  0
 17 19  1  0  0  0  0
 17 22  1  1  0  0  0
 18 20  1  6  0  0  0
 18 19  1  0  0  0  0
 20 21  1  0  0  0  0
 21 17  1  0  0  0  0
 22 24  1  0  0  0  0
 23 25  1  0  0  0  0
 24 23  2  0  0  0  0
 25 26  1  0  0  0  0
 26 27  1  0  0  0  0
 27 31  1  0  0  0  0
 27 33  1  0  0  0  0
 28 30  2  0  0  0  0
 28 35  1  0  0  0  0
 29 35  1  0  0  0  0
 29 34  1  0  0  0  0
 29 32  1  0  0  0  0
 31 28  1  0  0  0  0
 33 29  1  0  0  0  0
 37 38  2  0  0  0  0
 38 36  1  0  0  0  0
M  END
>  <MODEL>
6

>  <REMARK>
 VINA RESULT:      -8.0      3.248      4.856
  Name = 
  7 active torsions:
  status: ('A' for Active; 'I' for Inactive)
    1  A    between atoms: N_2  and  C_21
    2  A    between atoms: C_4  and  C_5
    3  A    between atoms: C_5  and  C_30
    4  A    between atoms: C_9  and  C_10
    5  A    between atoms: C_10  and  C_21
    6  A    between atoms: C_13  and  C_19
    7  A    between atoms: C_36  and  C_37
                            x       y       z     vdW  Elec       q    Type
                         _______ _______ _______ _____ _____    ______ ____

>  <TORSDO>
F 7

$$$$
=
 OpenBabel11062414403D

 38 42  0  0  1  0  0  0  0  0999 V2000
  188.4480  176.1960  143.2690 C   0  0  0  0  0  2  0  0  0  0  0  0
  190.5160  178.1080  145.1950 C   0  0  0  0  0  2  0  0  0  0  0  0
  186.8570  177.6780  144.5880 C   0  0  1  0  0  3  0  0  0  0  0  0
  189.1510  177.5460  143.0460 C   0  0  1  0  0  3  0  0  0  0  0  0
  192.6120  176.8700  141.7660 N   0  0  0  0  0  0  0  0  0  0  0  0
  190.5910  177.8520  140.8680 C   0  0  2  0  0  3  0  0  0  0  0  0
  188.0260  178.4500  145.1920 C   0  0  0  0  0  2  0  0  0  0  0  0
  192.6580  177.7380  139.5830 O   0  0  0  0  0  0  0  0  0  0  0  0
  191.5780  176.8420  142.7400 C   0  0  0  0  0  0  0  0  0  0  0  0
  187.2950  176.2520  144.2780 C   0  0  0  0  0  2  0  0  0  0  0  0
  192.0210  177.4960  140.6410 C   0  0  0  0  0  0  0  0  0  0  0  0
  185.8000  177.6550  145.4970 O   0  0  0  0  0  1  0  0  0  0  0  0
  189.2930  178.4150  144.3230 C   0  0  1  0  0  3  0  0  0  0  0  0
  191.8330  176.2480  144.1050 C   0  0  0  0  0  2  0  0  0  0  0  0
  190.4330  177.3800  142.2820 C   0  0  1  0  0  3  0  0  0  0  0  0
  190.8370  176.6180  145.2060 C   0  0  1  0  0  3  0  0  0  0  0  0
  188.9430  177.4550  137.7030 C   0  0  1  0  0  3  0  0  0  0  0  0
  189.6290  177.1190  139.9200 C   0  0  1  0  0  3  0  0  0  0  0  0
  188.9610  178.0620  139.0290 N   0  0  0  0  0  2  0  0  0  0  0  0
  190.2920  176.0490  139.0750 C   0  0  0  0  0  2  0  0  0  0  0  0
  189.4870  176.0450  137.8090 C   0  0  0  0  0  2  0  0  0  0  0  0
  187.5220  177.4380  137.1620 C   0  0  0  0  0  2  0  0  0  0  0  0
  185.2730  178.0800  137.9490 C   0  0  0  0  0  3  0  0  0  0  0  0
  186.5970  178.1820  138.0720 C   0  0  0  0  0  3  0  0  0  0  0  0
  184.3810  178.8630  138.8540 C   0  0  0  0  0  2  0  0  0  0  0  0
  184.6830  178.6080  140.3420 C   0  0  0  0  0  2  0  0  0  0  0  0
  183.6400  179.0400  141.2870 N   0  0  0  0  0  0  0  0  0  0  0  0
  181.2400  178.9800  141.8160 C   0  0  0  0  0  0  0  0  0  0  0  0
  182.9820  179.0100  143.6470 C   0  0  0  0  0  0  0  0  0  0  0  0
  180.0320  179.0750  141.4720 O   0  0  0  0  0  0  0  0  0  0  0  0
  182.2940  178.7350  140.7770 C   0  0  0  0  0  2  0  0  0  0  0  0
  183.0970  178.2820  144.8170 F   0  0  0  0  0  0  0  0  0  0  0  0
  183.8770  178.3910  142.5780 C   0  0  0  0  0  2  0  0  0  0  0  0
  183.3790  180.3150  143.8850 F   0  0  0  0  0  0  0  0  0  0  0  0
  181.5910  179.0020  143.2050 N   0  0  0  0  0  2  0  0  0  0  0  0
  190.8920  176.7280  147.5840 O   0  0  0  0  0  1  0  0  0  0  0  0
  192.4010  175.2850  146.6350 O   0  0  0  0  0  0  0  0  0  0  0  0
  191.3710  176.2150  146.5390 C   0  0  0  0  0  0  0  0  0  0  0  0
  1 10  1  0  0  0  0
  2 16  1  0  0  0  0
  3  7  1  0  0  0  0
  3 12  1  1  0  0  0
  4  1  1  1  0  0  0
  4 13  1  0  0  0  0
  5  9  2  0  0  0  0
  6 11  1  6  0  0  0
  6 15  1  0  0  0  0
  8 11  2  0  0  0  0
  9 14  1  0  0  0  0
 10  3  1  0  0  0  0
 11  5  1  0  0  0  0
 13  7  1  1  0  0  0
 13  2  1  0  0  0  0
 14 16  1  0  0  0  0
 15  9  1  1  0  0  0
 15  4  1  0  0  0  0
 16 38  1  1  0  0  0
 17 22  1  1  0  0  0
 17 21  1  0  0  0  0
 17 19  1  0  0  0  0
 18 20  1  6  0  0  0
 18  6  1  0  0  0  0
 19 18  1  0  0  0  0
 21 20  1  0  0  0  0
 22 24  1  0  0  0  0
 23 24  2  0  0  0  0
 23 25  1  0  0  0  0
 25 26  1  0  0  0  0
 26 27  1  0  0  0  0
 27 33  1  0  0  0  0
 28 35  1  0  0  0  0
 29 34  1  0  0  0  0
 29 32  1  0  0  0  0
 30 28  2  0  0  0  0
 31 27  1  0  0  0  0
 31 28  1  0  0  0  0
 33 29  1  0  0  0  0
 35 29  1  0  0  0  0
 38 37  2  0  0  0  0
 38 36  1  0  0  0  0
M  END
>  <MODEL>
7

>  <REMARK>
 VINA RESULT:      -8.0      3.696      9.886
  Name = 
  7 active torsions:
  status: ('A' for Active; 'I' for Inactive)
    1  A    between atoms: N_2  and  C_21
    2  A    between atoms: C_4  and  C_5
    3  A    between atoms: C_5  and  C_30
    4  A    between atoms: C_9  and  C_10
    5  A    between atoms: C_10  and  C_21
    6  A    between atoms: C_13  and  C_19
    7  A    between atoms: C_36  and  C_37
                            x       y       z     vdW  Elec       q    Type
                         _______ _______ _______ _____ _____    ______ ____

>  <TORSDO>
F 7

$$$$
=
 OpenBabel11062414403D

 38 42  0  0  1  0  0  0  0  0999 V2000
  187.7680  178.7440  142.6650 C   0  0  0  0  0  2  0  0  0  0  0  0
  187.0500  176.7120  145.3110 C   0  0  0  0  0  2  0  0  0  0  0  0
  189.2630  176.7180  142.3020 C   0  0  1  0  0  3  0  0  0  0  0  0
  186.7220  177.6400  142.8960 C   0  0  1  0  0  3  0  0  0  0  0  0
  183.7330  179.1830  144.5570 N   0  0  0  0  0  2  0  0  0  0  0  0
  184.2010  178.1920  142.3990 C   0  0  2  0  0  3  0  0  0  0  0  0
  188.6320  176.0000  143.4910 C   0  0  0  0  0  2  0  0  0  0  0  0
  181.9780  178.9870  143.0050 O   0  0  0  0  0  0  0  0  0  0  0  0
  185.0910  178.7710  144.4890 C   0  0  0  0  0  0  0  0  0  0  0  0
  189.2040  178.2240  142.5300 C   0  0  0  0  0  2  0  0  0  0  0  0
  183.1900  178.8170  143.3000 C   0  0  0  0  0  0  0  0  0  0  0  0
  190.5920  176.3180  142.1740 O   0  0  0  0  0  1  0  0  0  0  0  0
  187.2050  176.4780  143.8030 C   0  0  1  0  0  3  0  0  0  0  0  0
  186.0110  178.9870  145.6680 C   0  0  0  0  0  2  0  0  0  0  0  0
  185.3950  178.2140  143.3040 C   0  0  0  0  0  0  0  0  0  0  0  0
  187.3050  178.1680  145.6800 C   0  0  1  0  0  3  0  0  0  0  0  0
  184.8560  178.4450  138.8770 C   0  0  1  0  0  3  0  0  0  0  0  0
  184.4510  179.0040  141.1180 C   0  0  1  0  0  3  0  0  0  0  0  0
  185.3760  178.3040  140.2340 N   0  0  0  0  0  2  0  0  0  0  0  0
  183.1920  179.3280  140.3370 C   0  0  0  0  0  2  0  0  0  0  0  0
  183.6590  179.3730  138.9120 C   0  0  0  0  0  2  0  0  0  0  0  0
  185.9380  179.0040  137.9660 C   0  0  0  0  0  2  0  0  0  0  0  0
  187.1040  178.2970  135.9100 C   0  0  0  0  0  3  0  0  0  0  0  0
  186.4080  177.9650  136.9980 C   0  0  0  0  0  3  0  0  0  0  0  0
  187.5280  177.2370  134.9480 C   0  0  0  0  0  2  0  0  0  0  0  0
  189.0210  176.8860  135.0800 C   0  0  0  0  0  2  0  0  0  0  0  0
  189.4300  176.3180  136.3750 N   0  0  0  0  0  0  0  0  0  0  0  0
  191.0230  174.8350  137.5190 C   0  0  0  0  0  0  0  0  0  0  0  0
  190.1050  176.8960  138.6580 C   0  0  0  0  0  0  0  0  0  0  0  0
  191.6640  173.7530  137.5940 O   0  0  0  0  0  0  0  0  0  0  0  0
  190.4510  175.2720  136.2030 C   0  0  0  0  0  2  0  0  0  0  0  0
  190.7200  177.8780  139.4130 F   0  0  0  0  0  0  0  0  0  0  0  0
  189.9200  177.4010  137.2300 C   0  0  0  0  0  2  0  0  0  0  0  0
  188.8700  176.6060  139.2120 F   0  0  0  0  0  0  0  0  0  0  0  0
  190.9310  175.6920  138.6630 N   0  0  0  0  0  2  0  0  0  0  0  0
  187.2750  178.5990  148.0220 O   0  0  0  0  0  1  0  0  0  0  0  0
  189.3080  177.9690  147.1670 O   0  0  0  0  0  0  0  0  0  0  0  0
  187.9550  178.2550  147.0190 C   0  0  0  0  0  0  0  0  0  0  0  0
  2 16  1  0  0  0  0
  3 12  1  1  0  0  0
  3 10  1  0  0  0  0
  3  7  1  0  0  0  0
  4  1  1  1  0  0  0
  4 15  1  0  0  0  0
  4 13  1  0  0  0  0
  6 11  1  1  0  0  0
  6 15  1  0  0  0  0
  8 11  2  0  0  0  0
  9  5  1  0  0  0  0
  9 14  1  0  0  0  0
 10  1  1  0  0  0  0
 11  5  1  0  0  0  0
 13  7  1  1  0  0  0
 13  2  1  0  0  0  0
 14 16  1  0  0  0  0
 15  9  2  0  0  0  0
 16 38  1  1  0  0  0
 17 22  1  6  0  0  0
 17 21  1  0  0  0  0
 17 19  1  0  0  0  0
 18 20  1  6  0  0  0
 18  6  1  0  0  0  0
 19 18  1  0  0  0  0
 21 20  1  0  0  0  0
 23 24  2  0  0  0  0
 24 22  1  0  0  0  0
 25 26  1  0  0  0  0
 25 23  1  0  0  0  0
 26 27  1  0  0  0  0
 27 33  1  0  0  0  0
 28 30  2  0  0  0  0
 28 35  1  0  0  0  0
 29 35  1  0  0  0  0
 29 34  1  0  0  0  0
 29 32  1  0  0  0  0
 31 27  1  0  0  0  0
 31 28  1  0  0  0  0
 33 29  1  0  0  0  0
 38 37  2  0  0  0  0
 38 36  1  0  0  0  0
M  END
>  <MODEL>
8

>  <REMARK>
 VINA RESULT:      -7.9      4.331      8.640
  Name = 
  7 active torsions:
  status: ('A' for Active; 'I' for Inactive)
    1  A    between atoms: N_2  and  C_21
    2  A    between atoms: C_4  and  C_5
    3  A    between atoms: C_5  and  C_30
    4  A    between atoms: C_9  and  C_10
    5  A    between atoms: C_10  and  C_21
    6  A    between atoms: C_13  and  C_19
    7  A    between atoms: C_36  and  C_37
                            x       y       z     vdW  Elec       q    Type
                         _______ _______ _______ _____ _____    ______ ____

>  <TORSDO>
F 7

$$$$
=
 OpenBabel11062414403D

 38 42  0  0  1  0  0  0  0  0999 V2000
  186.2550  177.2500  138.3670 C   0  0  0  0  0  2  0  0  0  0  0  0
  186.5760  175.3470  135.5530 C   0  0  0  0  0  2  0  0  0  0  0  0
  187.7650  178.6360  136.8610 C   0  0  1  0  0  3  0  0  0  0  0  0
  185.4430  177.1440  137.0640 C   0  0  1  0  0  3  0  0  0  0  0  0
  182.9560  174.3620  137.4530 N   0  0  0  0  0  2  0  0  0  0  0  0
  182.8470  176.7710  137.2440 C   0  0  2  0  0  3  0  0  0  0  0  0
  187.5970  177.6380  135.7200 C   0  0  0  0  0  2  0  0  0  0  0  0
  180.8440  175.3900  137.3870 O   0  0  0  0  0  0  0  0  0  0  0  0
  184.2650  174.9060  137.3470 C   0  0  0  0  0  0  0  0  0  0  0  0
  187.6270  177.9110  138.1940 C   0  0  0  0  0  2  0  0  0  0  0  0
  182.0990  175.4870  137.3730 C   0  0  0  0  0  0  0  0  0  0  0  0
  189.0260  179.2240  136.7780 O   0  0  0  0  0  1  0  0  0  0  0  0
  186.2900  176.8320  135.8030 C   0  0  1  0  0  3  0  0  0  0  0  0
  185.4720  173.9970  137.3810 C   0  0  0  0  0  2  0  0  0  0  0  0
  184.2510  176.2450  137.2290 C   0  0  0  0  0  0  0  0  0  0  0  0
  186.7830  174.5890  136.8580 C   0  0  1  0  0  3  0  0  0  0  0  0
  183.7530  178.1470  140.4350 C   0  0  1  0  0  3  0  0  0  0  0  0
  182.6170  177.7240  138.4280 C   0  0  1  0  0  3  0  0  0  0  0  0
  183.0560  177.1130  139.6770 N   0  0  0  0  0  2  0  0  0  0  0  0
  183.3060  179.0670  138.2820 C   0  0  0  0  0  2  0  0  0  0  0  0
  183.6170  179.4620  139.6950 C   0  0  0  0  0  2  0  0  0  0  0  0
  183.1570  178.2550  141.8300 C   0  0  0  0  0  2  0  0  0  0  0  0
  183.9270  178.7560  144.1190 C   0  0  0  0  0  3  0  0  0  0  0  0
  184.1800  178.7350  142.8100 C   0  0  0  0  0  3  0  0  0  0  0  0
  184.9600  179.2730  145.0660 C   0  0  0  0  0  2  0  0  0  0  0  0
  185.1450  178.3590  146.2910 C   0  0  0  0  0  2  0  0  0  0  0  0
  186.4690  177.7290  146.4220 N   0  0  0  0  0  0  0  0  0  0  0  0
  188.6590  177.3870  145.3590 C   0  0  0  0  0  0  0  0  0  0  0  0
  188.4380  177.5630  147.8710 C   0  0  0  0  0  0  0  0  0  0  0  0
  189.3660  177.1140  144.3520 O   0  0  0  0  0  0  0  0  0  0  0  0
  187.2400  177.8360  145.1740 C   0  0  0  0  0  2  0  0  0  0  0  0
  189.1800  178.2550  148.8100 F   0  0  0  0  0  0  0  0  0  0  0  0
  187.1790  178.3580  147.5380 C   0  0  0  0  0  2  0  0  0  0  0  0
  188.0850  176.3300  148.3900 F   0  0  0  0  0  0  0  0  0  0  0  0
  189.2420  177.3670  146.6670 N   0  0  0  0  0  2  0  0  0  0  0  0
  187.6420  172.4030  137.2540 O   0  0  0  0  0  1  0  0  0  0  0  0
  188.9120  173.7190  135.8700 O   0  0  0  0  0  0  0  0  0  0  0  0
  187.7950  173.5090  136.6730 C   0  0  0  0  0  0  0  0  0  0  0  0
  2 16  1  0  0  0  0
  3 12  1  1  0  0  0
  3 10  1  0  0  0  0
  4 15  1  0  0  0  0
  4  1  1  1  0  0  0
  6 15  1  1  0  0  0
  6 11  1  0  0  0  0
  6 18  1  0  0  0  0
  7 13  1  0  0  0  0
  7  3  1  0  0  0  0
  9 14  1  0  0  0  0
  9  5  1  0  0  0  0
 10  1  1  0  0  0  0
 11  8  2  0  0  0  0
 11  5  1  0  0  0  0
 13  2  1  1  0  0  0
 13  4  1  0  0  0  0
 15  9  2  0  0  0  0
 16 38  1  6  0  0  0
 16 14  1  0  0  0  0
 17 22  1  1  0  0  0
 18 20  1  6  0  0  0
 18 19  1  0  0  0  0
 19 17  1  0  0  0  0
 20 21  1  0  0  0  0
 21 17  1  0  0  0  0
 22 24  1  0  0  0  0
 23 25  1  0  0  0  0
 24 23  2  0  0  0  0
 25 26  1  0  0  0  0
 26 27  1  0  0  0  0
 27 33  1  0  0  0  0
 28 35  1  0  0  0  0
 29 34  1  0  0  0  0
 29 32  1  0  0  0  0
 30 28  2  0  0  0  0
 31 28  1  0  0  0  0
 31 27  1  0  0  0  0
 33 29  1  0  0  0  0
 35 29  1  0  0  0  0
 37 38  2  0  0  0  0
 38 36  1  0  0  0  0
M  END
>  <MODEL>
9

>  <REMARK>
 VINA RESULT:      -7.9      3.739      5.699
  Name = 
  7 active torsions:
  status: ('A' for Active; 'I' for Inactive)
    1  A    between atoms: N_2  and  C_21
    2  A    between atoms: C_4  and  C_5
    3  A    between atoms: C_5  and  C_30
    4  A    between atoms: C_9  and  C_10
    5  A    between atoms: C_10  and  C_21
    6  A    between atoms: C_13  and  C_19
    7  A    between atoms: C_36  and  C_37
                            x       y       z     vdW  Elec       q    Type
                         _______ _______ _______ _____ _____    ______ ____

>  <TORSDO>
F 7

$$$$
