=
 OpenBabel11062415493D

 44 49  0  0  1  0  0  0  0  0999 V2000
  189.1070  176.1210  138.1150 C   0  0  2  0  0  3  0  0  0  0  0  0
  186.6740  177.2360  136.3830 C   0  0  0  0  0  2  0  0  0  0  0  0
  187.6420  179.3290  136.8870 O   0  0  0  0  0  0  0  0  0  0  0  0
  187.5020  175.0250  136.2170 C   0  0  2  0  0  0  0  0  0  0  0  0
  188.8090  177.5370  137.8470 N   0  0  0  0  0  0  0  0  0  0  0  0
  190.1420  176.1220  139.2250 C   0  0  0  0  0  2  0  0  0  0  0  0
  190.7340  177.5210  139.2290 C   0  0  0  0  0  2  0  0  0  0  0  0
  188.7870  174.4690  136.1840 O   0  0  0  0  0  0  0  0  0  0  0  0
  189.6710  178.4160  138.6250 C   0  0  2  0  0  3  0  0  0  0  0  0
  186.7590  175.1030  135.0320 O   0  0  0  0  0  0  0  0  0  0  0  0
  187.7180  178.0840  137.0540 C   0  0  0  0  0  0  0  0  0  0  0  0
  187.4000  176.2920  135.4610 C   0  0  1  0  0  3  0  0  0  0  0  0
  189.6790  175.3340  136.8910 C   0  0  1  0  0  3  0  0  0  0  0  0
  186.6920  174.7410  137.3280 O   0  0  0  0  0  1  0  0  0  0  0  0
  188.8700  179.0510  139.7540 C   0  0  0  0  0  2  0  0  0  0  0  0
  188.3570  177.9860  140.7190 C   0  0  2  0  0  3  0  0  0  0  0  0
  186.8300  177.9840  140.8720 C   0  0  2  0  0  3  0  0  0  0  0  0
  186.2350  178.7080  139.8370 O   0  0  0  0  0  1  0  0  0  0  0  0
  185.6660  179.6860  142.1150 O   0  0  0  0  0  1  0  0  0  0  0  0
  186.3190  178.4600  142.2340 C   0  0  0  0  0  2  0  0  0  0  0  0
  189.0770  178.0410  142.0670 C   0  0  0  0  0  2  0  0  0  0  0  0
  189.3630  176.7530  142.5320 O   0  0  0  0  0  0  0  0  0  0  0  0
  190.6930  176.9270  143.5710 P   0  0  0  0  0  0  0  0  0  0  0  0
  191.5150  175.6580  143.5740 O   0  0  0  0  0  1  0  0  0  0  0  0
  191.6590  178.2280  143.0800 O   0  0  0  0  0  0  0  0  0  0  0  0
  190.1270  177.2200  145.1400 O   0  0  0  0  0  1  0  0  0  0  0  0
  190.7230  176.3140  135.7560 S   0  0  0  0  0  0  0  0  0  0  0  0
  193.2660  175.4500  135.2750 C   0  0  1  0  0  3  0  0  0  0  0  0
  192.9910  174.2490  134.5940 O   0  0  0  0  0  0  0  0  0  0  0  0
  193.2970  173.2580  136.8390 C   0  0  1  0  0  3  0  0  0  0  0  0
  194.6010  173.9590  136.6850 N   0  0  0  0  0  0  0  0  0  0  0  0
  192.0190  174.1240  136.7580 C   0  0  1  0  0  3  0  0  0  0  0  0
  192.2550  175.5620  136.3770 C   0  0  2  0  0  3  0  0  0  0  0  0
  194.5870  175.2610  135.9940 C   0  0  0  0  0  2  0  0  0  0  0  0
  192.4620  173.3410  135.5450 C   0  0  1  0  0  3  0  0  0  0  0  0
  195.0700  172.9020  139.0470 O   0  0  0  0  0  0  0  0  0  0  0  0
  194.8830  175.3230  138.9330 O   0  0  0  0  0  0  0  0  0  0  0  0
  195.4060  174.1090  138.2210 S   0  0  0  0  0  0  0  0  0  0  0  0
  197.7080  172.9290  138.1470 F   0  0  0  0  0  0  0  0  0  0  0  0
  197.1930  174.2130  138.1010 C   0  0  0  0  0  0  0  0  0  0  0  0
  197.5590  174.7780  136.8940 F   0  0  0  0  0  0  0  0  0  0  0  0
  197.5280  174.6260  140.5200 F   0  0  0  0  0  0  0  0  0  0  0  0
  198.4620  175.9880  139.0260 O   0  0  0  0  0  0  0  0  0  0  0  0
  197.7730  175.0040  139.2380 C   0  0  0  0  0  0  0  0  0  0  0  0
  1  6  1  1  0  0  0
  2 11  1  0  0  0  0
  3 11  2  0  0  0  0
  4 14  1  1  0  0  0
  5  1  1  0  0  0  0
  5  9  1  0  0  0  0
  6  7  1  0  0  0  0
  8  4  1  0  0  0  0
  8 13  1  0  0  0  0
  9  7  1  0  0  0  0
  9 15  1  1  0  0  0
 10 12  1  0  0  0  0
 10  4  1  0  0  0  0
 11  5  1  0  0  0  0
 12  4  1  0  0  0  0
 12  2  1  1  0  0  0
 13 27  1  6  0  0  0
 13  1  1  0  0  0  0
 16 15  1  6  0  0  0
 16 17  1  0  0  0  0
 16 21  1  0  0  0  0
 17 18  1  6  0  0  0
 17 20  1  0  0  0  0
 19 20  1  0  0  0  0
 21 22  1  0  0  0  0
 22 23  1  0  0  0  0
 23 24  1  0  0  0  0
 23 26  1  0  0  0  0
 25 23  2  0  0  0  0
 27 33  1  0  0  0  0
 28 34  1  1  0  0  0
 28 33  1  0  0  0  0
 29 28  1  0  0  0  0
 29 35  1  0  0  0  0
 30 31  1  6  0  0  0
 31 38  1  0  0  0  0
 32 30  1  0  0  0  0
 33 32  1  0  0  0  0
 34 31  1  0  0  0  0
 35 32  1  0  0  0  0
 35 30  1  0  0  0  0
 38 37  2  0  0  0  0
 38 36  2  0  0  0  0
 40 39  1  0  0  0  0
 40 38  1  0  0  0  0
 40 44  1  0  0  0  0
 41 40  1  0  0  0  0
 43 44  2  0  0  0  0
 44 42  1  0  0  0  0
M  END
>  <MODEL>
1

>  <REMARK>
 VINA RESULT:      -6.4      0.000      0.000
  Name = 
  12 active torsions:
  status: ('A' for Active; 'I' for Inactive)
    1  A    between atoms: C_5  and  C_19
    2  A    between atoms: C_5  and  C_31
    3  A    between atoms: C_6  and  C_19
    4  A    between atoms: C_6  and  C_24
    5  A    between atoms: C_14  and  C_19
    6  A    between atoms: C_14  and  O_37
    7  A    between atoms: C_15  and  C_23
    8  A    between atoms: C_15  and  S_41
    9  A    between atoms: S_17  and  C_32
   10  A    between atoms: S_17  and  C_42
   11  A    between atoms: N_21  and  S_41
   12  A    between atoms: P_26  and  O_37
                            x       y       z     vdW  Elec       q    Type
                         _______ _______ _______ _____ _____    ______ ____

>  <TORSDO>
F 12

$$$$
=
 OpenBabel11062415493D

 44 49  0  0  1  0  0  0  0  0999 V2000
  188.1040  177.3180  136.7710 C   0  0  2  0  0  3  0  0  0  0  0  0
  190.8640  175.7250  136.8530 C   0  0  0  0  0  2  0  0  0  0  0  0
  190.4830  175.7460  139.1830 O   0  0  0  0  0  0  0  0  0  0  0  0
  189.4680  175.8390  134.9450 C   0  0  2  0  0  0  0  0  0  0  0  0
  188.8010  176.8510  137.9800 N   0  0  0  0  0  0  0  0  0  0  0  0
  187.0370  178.2800  137.2590 C   0  0  0  0  0  2  0  0  0  0  0  0
  186.8580  177.9750  138.7360 C   0  0  0  0  0  2  0  0  0  0  0  0
  188.0840  175.7480  134.7480 O   0  0  0  0  0  0  0  0  0  0  0  0
  188.1660  177.3590  139.1880 C   0  0  2  0  0  3  0  0  0  0  0  0
  190.2830  174.7560  134.5940 O   0  0  0  0  0  0  0  0  0  0  0  0
  190.0530  176.1120  138.0580 C   0  0  0  0  0  0  0  0  0  0  0  0
  189.9690  174.8960  135.9690 C   0  0  1  0  0  3  0  0  0  0  0  0
  187.4210  176.1860  135.9360 C   0  0  1  0  0  3  0  0  0  0  0  0
  190.0890  177.0710  134.6850 O   0  0  0  0  0  1  0  0  0  0  0  0
  189.0320  178.4510  139.8010 C   0  0  0  0  0  2  0  0  0  0  0  0
  188.7940  178.5500  141.3060 C   0  0  2  0  0  3  0  0  0  0  0  0
  189.8680  177.8410  142.1420 C   0  0  2  0  0  3  0  0  0  0  0  0
  190.9770  177.5300  141.3520 O   0  0  0  0  0  1  0  0  0  0  0  0
  190.2150  175.5170  142.6660 O   0  0  0  0  0  1  0  0  0  0  0  0
  189.3790  176.6070  142.9040 C   0  0  0  0  0  2  0  0  0  0  0  0
  187.3780  178.1200  141.6900 C   0  0  0  0  0  2  0  0  0  0  0  0
  186.5770  179.2340  141.9650 O   0  0  0  0  0  0  0  0  0  0  0  0
  185.3620  178.6740  143.0100 P   0  0  0  0  0  0  0  0  0  0  0  0
  184.3120  177.9230  142.2220 O   0  0  0  0  0  0  0  0  0  0  0  0
  186.0210  177.6570  144.1920 O   0  0  0  0  0  1  0  0  0  0  0  0
  184.6360  180.0040  143.7660 O   0  0  0  0  0  1  0  0  0  0  0  0
  186.7720  174.7840  136.9110 S   0  0  0  0  0  0  0  0  0  0  0  0
  184.1300  174.5420  137.5480 C   0  0  1  0  0  3  0  0  0  0  0  0
  183.6600  173.8860  136.3950 O   0  0  0  0  0  0  0  0  0  0  0  0
  183.0700  176.1840  135.6960 C   0  0  1  0  0  3  0  0  0  0  0  0
  182.3350  176.1090  136.9880 N   0  0  0  0  0  0  0  0  0  0  0  0
  184.6000  175.9690  135.7440 C   0  0  1  0  0  3  0  0  0  0  0  0
  185.1360  175.5540  137.0890 C   0  0  2  0  0  3  0  0  0  0  0  0
  182.9810  175.3710  138.0880 C   0  0  0  0  0  2  0  0  0  0  0  0
  183.7030  174.8250  135.3340 C   0  0  1  0  0  3  0  0  0  0  0  0
  180.4110  177.6740  137.8660 O   0  0  0  0  0  0  0  0  0  0  0  0
  182.0770  178.6760  136.4070 O   0  0  0  0  0  0  0  0  0  0  0  0
  181.8730  177.6990  137.5280 S   0  0  0  0  0  0  0  0  0  0  0  0
  181.9890  177.9990  140.0960 F   0  0  0  0  0  0  0  0  0  0  0  0
  182.7640  178.2630  138.9800 C   0  0  0  0  0  0  0  0  0  0  0  0
  183.9530  177.5710  139.1100 F   0  0  0  0  0  0  0  0  0  0  0  0
  182.0140  180.6000  138.6470 F   0  0  0  0  0  0  0  0  0  0  0  0
  184.1520  180.1800  139.1070 O   0  0  0  0  0  0  0  0  0  0  0  0
  183.0300  179.7390  138.9180 C   0  0  0  0  0  0  0  0  0  0  0  0
  1  6  1  1  0  0  0
  1  5  1  0  0  0  0
  2 11  1  0  0  0  0
  4 14  1  6  0  0  0
  4 12  1  0  0  0  0
  5 11  1  0  0  0  0
  5  9  1  0  0  0  0
  6  7  1  0  0  0  0
  7  9  1  0  0  0  0
  8  4  1  0  0  0  0
  8 13  1  0  0  0  0
  9 15  1  6  0  0  0
 10  4  1  0  0  0  0
 10 12  1  0  0  0  0
 11  3  2  0  0  0  0
 12  2  1  1  0  0  0
 13  1  1  0  0  0  0
 13 27  1  1  0  0  0
 16 15  1  6  0  0  0
 16 21  1  0  0  0  0
 16 17  1  0  0  0  0
 17 18  1  6  0  0  0
 17 20  1  0  0  0  0
 19 20  1  0  0  0  0
 21 22  1  0  0  0  0
 22 23  1  0  0  0  0
 23 26  1  0  0  0  0
 23 25  1  0  0  0  0
 24 23  2  0  0  0  0
 27 33  1  0  0  0  0
 28 34  1  6  0  0  0
 29 28  1  0  0  0  0
 30 32  1  0  0  0  0
 30 31  1  1  0  0  0
 31 38  1  0  0  0  0
 31 34  1  0  0  0  0
 32 33  1  0  0  0  0
 33 28  1  0  0  0  0
 35 30  1  0  0  0  0
 35 32  1  0  0  0  0
 35 29  1  0  0  0  0
 37 38  2  0  0  0  0
 38 36  2  0  0  0  0
 38 40  1  0  0  0  0
 40 41  1  0  0  0  0
 40 39  1  0  0  0  0
 42 44  1  0  0  0  0
 44 40  1  0  0  0  0
 44 43  2  0  0  0  0
M  END
>  <MODEL>
2

>  <REMARK>
 VINA RESULT:      -6.4      5.192      8.646
  Name = 
  12 active torsions:
  status: ('A' for Active; 'I' for Inactive)
    1  A    between atoms: C_5  and  C_19
    2  A    between atoms: C_5  and  C_31
    3  A    between atoms: C_6  and  C_19
    4  A    between atoms: C_6  and  C_24
    5  A    between atoms: C_14  and  C_19
    6  A    between atoms: C_14  and  O_37
    7  A    between atoms: C_15  and  C_23
    8  A    between atoms: C_15  and  S_41
    9  A    between atoms: S_17  and  C_32
   10  A    between atoms: S_17  and  C_42
   11  A    between atoms: N_21  and  S_41
   12  A    between atoms: P_26  and  O_37
                            x       y       z     vdW  Elec       q    Type
                         _______ _______ _______ _____ _____    ______ ____

>  <TORSDO>
F 12

$$$$
=
 OpenBabel11062415493D

 44 49  0  0  1  0  0  0  0  0999 V2000
  189.6390  178.3630  140.5040 C   0  0  2  0  0  3  0  0  0  0  0  0
  189.6240  176.9570  143.3640 C   0  0  0  0  0  2  0  0  0  0  0  0
  187.3900  176.4510  142.7920 O   0  0  0  0  0  0  0  0  0  0  0  0
  191.5920  177.3980  142.1260 C   0  0  2  0  0  0  0  0  0  0  0  0
  188.4930  177.6880  141.1330 N   0  0  0  0  0  0  0  0  0  0  0  0
  189.0660  179.1320  139.3270 C   0  0  0  0  0  2  0  0  0  0  0  0
  187.7110  178.5040  139.0510 C   0  0  0  0  0  2  0  0  0  0  0  0
  191.9390  177.2700  140.7750 O   0  0  0  0  0  0  0  0  0  0  0  0
  187.2730  177.8840  140.3620 C   0  0  2  0  0  3  0  0  0  0  0  0
  192.0820  176.4670  143.0510 O   0  0  0  0  0  0  0  0  0  0  0  0
  188.4500  177.0260  142.4290 C   0  0  0  0  0  0  0  0  0  0  0  0
  190.7460  176.2880  142.6140 C   0  0  1  0  0  3  0  0  0  0  0  0
  190.7560  177.4000  139.9830 C   0  0  1  0  0  3  0  0  0  0  0  0
  191.5270  178.6920  142.6670 O   0  0  0  0  0  1  0  0  0  0  0  0
  186.3620  178.8670  141.0860 C   0  0  0  0  0  2  0  0  0  0  0  0
  184.9130  178.3900  141.0490 C   0  0  2  0  0  3  0  0  0  0  0  0
  184.1740  178.7810  139.7620 C   0  0  2  0  0  3  0  0  0  0  0  0
  184.5500  180.0620  139.3520 O   0  0  0  0  0  1  0  0  0  0  0  0
  182.1870  177.7140  138.9190 O   0  0  0  0  0  1  0  0  0  0  0  0
  182.6500  178.6590  139.8330 C   0  0  0  0  0  2  0  0  0  0  0  0
  184.1450  178.7950  142.3070 C   0  0  0  0  0  2  0  0  0  0  0  0
  184.4370  177.9300  143.3680 O   0  0  0  0  0  0  0  0  0  0  0  0
  184.8610  178.9320  144.6710 P   0  0  0  0  0  0  0  0  0  0  0  0
  183.7950  178.8630  145.7410 O   0  0  0  0  0  1  0  0  0  0  0  0
  186.3510  178.4580  145.3210 O   0  0  0  0  0  1  0  0  0  0  0  0
  184.9820  180.5280  144.1160 O   0  0  0  0  0  0  0  0  0  0  0  0
  190.1650  175.7850  139.3680 S   0  0  0  0  0  0  0  0  0  0  0  0
  191.7250  176.6200  137.2920 C   0  0  1  0  0  3  0  0  0  0  0  0
  190.9310  176.2020  136.2070 O   0  0  0  0  0  0  0  0  0  0  0  0
  192.4240  174.2310  136.2670 C   0  0  1  0  0  3  0  0  0  0  0  0
  193.4330  175.3160  136.1210 N   0  0  0  0  0  0  0  0  0  0  0  0
  191.4990  174.2930  137.5030 C   0  0  1  0  0  3  0  0  0  0  0  0
  191.6370  175.5440  138.3310 C   0  0  2  0  0  3  0  0  0  0  0  0
  193.1680  176.5810  136.8290 C   0  0  0  0  0  2  0  0  0  0  0  0
  190.9890  174.7860  136.1700 C   0  0  1  0  0  3  0  0  0  0  0  0
  196.0160  175.8090  136.1720 O   0  0  0  0  0  0  0  0  0  0  0  0
  195.3320  173.5300  135.6720 O   0  0  0  0  0  0  0  0  0  0  0  0
  195.0260  174.7340  136.5150 S   0  0  0  0  0  0  0  0  0  0  0  0
  194.6900  175.3340  139.0110 F   0  0  0  0  0  0  0  0  0  0  0  0
  195.2420  174.3190  138.2470 C   0  0  0  0  0  0  0  0  0  0  0  0
  194.5740  173.1470  138.5450 F   0  0  0  0  0  0  0  0  0  0  0  0
  197.4330  173.1750  138.0770 F   0  0  0  0  0  0  0  0  0  0  0  0
  197.2260  174.9850  139.3590 O   0  0  0  0  0  0  0  0  0  0  0  0
  196.6950  174.1890  138.6010 C   0  0  0  0  0  0  0  0  0  0  0  0
  1  6  1  6  0  0  0
  1  5  1  0  0  0  0
  4 12  1  0  0  0  0
  4 14  1  1  0  0  0
  4 10  1  0  0  0  0
  5 11  1  0  0  0  0
  7  6  1  0  0  0  0
  7  9  1  0  0  0  0
  8  4  1  0  0  0  0
  9 15  1  1  0  0  0
  9  5  1  0  0  0  0
 11  3  2  0  0  0  0
 11  2  1  0  0  0  0
 12 10  1  0  0  0  0
 12  2  1  1  0  0  0
 13 27  1  1  0  0  0
 13  1  1  0  0  0  0
 13  8  1  0  0  0  0
 16 15  1  1  0  0  0
 16 21  1  0  0  0  0
 17 18  1  1  0  0  0
 17 20  1  0  0  0  0
 17 16  1  0  0  0  0
 19 20  1  0  0  0  0
 21 22  1  0  0  0  0
 22 23  1  0  0  0  0
 23 25  1  0  0  0  0
 23 24  1  0  0  0  0
 26 23  2  0  0  0  0
 28 34  1  6  0  0  0
 28 33  1  0  0  0  0
 29 28  1  0  0  0  0
 30 31  1  1  0  0  0
 30 32  1  0  0  0  0
 31 38  1  0  0  0  0
 31 34  1  0  0  0  0
 32 33  1  0  0  0  0
 33 27  1  0  0  0  0
 35 29  1  0  0  0  0
 35 30  1  0  0  0  0
 35 32  1  0  0  0  0
 36 38  2  0  0  0  0
 37 38  2  0  0  0  0
 38 40  1  0  0  0  0
 40 41  1  0  0  0  0
 40 44  1  0  0  0  0
 40 39  1  0  0  0  0
 42 44  1  0  0  0  0
 44 43  2  0  0  0  0
M  END
>  <MODEL>
3

>  <REMARK>
 VINA RESULT:      -6.1      2.496      4.691
  Name = 
  12 active torsions:
  status: ('A' for Active; 'I' for Inactive)
    1  A    between atoms: C_5  and  C_19
    2  A    between atoms: C_5  and  C_31
    3  A    between atoms: C_6  and  C_19
    4  A    between atoms: C_6  and  C_24
    5  A    between atoms: C_14  and  C_19
    6  A    between atoms: C_14  and  O_37
    7  A    between atoms: C_15  and  C_23
    8  A    between atoms: C_15  and  S_41
    9  A    between atoms: S_17  and  C_32
   10  A    between atoms: S_17  and  C_42
   11  A    between atoms: N_21  and  S_41
   12  A    between atoms: P_26  and  O_37
                            x       y       z     vdW  Elec       q    Type
                         _______ _______ _______ _____ _____    ______ ____

>  <TORSDO>
F 12

$$$$
=
 OpenBabel11062415493D

 44 49  0  0  1  0  0  0  0  0999 V2000
  186.2820  178.8080  138.7280 C   0  0  2  0  0  3  0  0  0  0  0  0
  189.3890  178.1080  138.8520 C   0  0  0  0  0  2  0  0  0  0  0  0
  188.7880  177.0770  140.8890 O   0  0  0  0  0  0  0  0  0  0  0  0
  188.2350  178.6170  136.8490 C   0  0  2  0  0  0  0  0  0  0  0  0
  186.9670  178.0900  139.8150 N   0  0  0  0  0  0  0  0  0  0  0  0
  184.9130  179.1690  139.2750 C   0  0  0  0  0  2  0  0  0  0  0  0
  184.6950  178.2540  140.4670 C   0  0  0  0  0  2  0  0  0  0  0  0
  186.9870  178.2530  136.3290 O   0  0  0  0  0  0  0  0  0  0  0  0
  186.0810  177.8750  140.9500 C   0  0  2  0  0  3  0  0  0  0  0  0
  189.3930  178.0280  136.3270 O   0  0  0  0  0  0  0  0  0  0  0  0
  188.3780  177.7420  139.9020 C   0  0  0  0  0  0  0  0  0  0  0  0
  188.9130  177.5080  137.5550 C   0  0  1  0  0  3  0  0  0  0  0  0
  186.0990  177.9780  137.4150 C   0  0  1  0  0  3  0  0  0  0  0  0
  188.4380  179.9640  137.1890 O   0  0  0  0  0  1  0  0  0  0  0  0
  186.4710  178.8080  142.0880 C   0  0  0  0  0  2  0  0  0  0  0  0
  186.2730  178.1260  143.4390 C   0  0  2  0  0  3  0  0  0  0  0  0
  185.1270  178.7270  144.2640 C   0  0  2  0  0  3  0  0  0  0  0  0
  184.6050  179.8550  143.6280 O   0  0  0  0  0  1  0  0  0  0  0  0
  184.4240  178.6960  146.5670 O   0  0  0  0  0  1  0  0  0  0  0  0
  185.4780  179.0380  145.7220 C   0  0  0  0  0  2  0  0  0  0  0  0
  187.5770  178.0380  144.2320 C   0  0  0  0  0  2  0  0  0  0  0  0
  188.1710  176.7810  144.0750 O   0  0  0  0  0  0  0  0  0  0  0  0
  189.8320  177.0260  144.3240 P   0  0  0  0  0  0  0  0  0  0  0  0
  190.1500  176.9410  145.7990 O   0  0  0  0  0  1  0  0  0  0  0  0
  190.7330  175.8670  143.4800 O   0  0  0  0  0  0  0  0  0  0  0  0
  190.2480  178.5680  143.7590 O   0  0  0  0  0  1  0  0  0  0  0  0
  185.8530  176.1840  137.6560 S   0  0  0  0  0  0  0  0  0  0  0  0
  183.4520  175.0440  137.0400 C   0  0  1  0  0  3  0  0  0  0  0  0
  183.5170  175.0840  135.6340 O   0  0  0  0  0  0  0  0  0  0  0  0
  182.2190  177.1680  135.9360 C   0  0  1  0  0  3  0  0  0  0  0  0
  181.3340  176.2060  136.6460 N   0  0  0  0  0  0  0  0  0  0  0  0
  183.6670  177.3080  136.4570 C   0  0  1  0  0  3  0  0  0  0  0  0
  184.0460  176.3280  137.5360 C   0  0  2  0  0  3  0  0  0  0  0  0
  181.9870  175.1350  137.4200 C   0  0  0  0  0  2  0  0  0  0  0  0
  183.3940  176.4430  135.2500 C   0  0  1  0  0  3  0  0  0  0  0  0
  179.1880  176.0510  138.1600 O   0  0  0  0  0  0  0  0  0  0  0  0
  179.4510  178.0560  136.8120 O   0  0  0  0  0  0  0  0  0  0  0  0
  180.1850  177.0480  137.6480 S   0  0  0  0  0  0  0  0  0  0  0  0
  181.7250  176.9600  139.7270 F   0  0  0  0  0  0  0  0  0  0  0  0
  180.9180  177.8700  139.0650 C   0  0  0  0  0  0  0  0  0  0  0  0
  181.7120  178.9220  138.6500 F   0  0  0  0  0  0  0  0  0  0  0  0
  179.1080  179.4400  139.6910 F   0  0  0  0  0  0  0  0  0  0  0  0
  179.6830  177.8020  141.0860 O   0  0  0  0  0  0  0  0  0  0  0  0
  179.8660  178.3600  140.0170 C   0  0  0  0  0  0  0  0  0  0  0  0
  1  6  1  1  0  0  0
  1  5  1  0  0  0  0
  2 11  1  0  0  0  0
  4 14  1  1  0  0  0
  4 12  1  0  0  0  0
  5 11  1  0  0  0  0
  5  9  1  0  0  0  0
  6  7  1  0  0  0  0
  7  9  1  0  0  0  0
  8  4  1  0  0  0  0
  8 13  1  0  0  0  0
  9 15  1  1  0  0  0
 10  4  1  0  0  0  0
 10 12  1  0  0  0  0
 11  3  2  0  0  0  0
 12  2  1  1  0  0  0
 13 27  1  1  0  0  0
 13  1  1  0  0  0  0
 16 15  1  6  0  0  0
 16 21  1  0  0  0  0
 16 17  1  0  0  0  0
 17 18  1  6  0  0  0
 17 20  1  0  0  0  0
 20 19  1  0  0  0  0
 22 21  1  0  0  0  0
 22 23  1  0  0  0  0
 23 24  1  0  0  0  0
 25 23  2  0  0  0  0
 26 23  1  0  0  0  0
 28 34  1  6  0  0  0
 28 33  1  0  0  0  0
 29 28  1  0  0  0  0
 30 32  1  0  0  0  0
 30 31  1  1  0  0  0
 31 34  1  0  0  0  0
 31 38  1  0  0  0  0
 32 33  1  0  0  0  0
 33 27  1  0  0  0  0
 35 29  1  0  0  0  0
 35 30  1  0  0  0  0
 35 32  1  0  0  0  0
 37 38  2  0  0  0  0
 38 36  2  0  0  0  0
 38 40  1  0  0  0  0
 40 39  1  0  0  0  0
 40 44  1  0  0  0  0
 41 40  1  0  0  0  0
 42 44  1  0  0  0  0
 44 43  2  0  0  0  0
M  END
>  <MODEL>
4

>  <REMARK>
 VINA RESULT:      -6.0      6.112      9.495
  Name = 
  12 active torsions:
  status: ('A' for Active; 'I' for Inactive)
    1  A    between atoms: C_5  and  C_19
    2  A    between atoms: C_5  and  C_31
    3  A    between atoms: C_6  and  C_19
    4  A    between atoms: C_6  and  C_24
    5  A    between atoms: C_14  and  C_19
    6  A    between atoms: C_14  and  O_37
    7  A    between atoms: C_15  and  C_23
    8  A    between atoms: C_15  and  S_41
    9  A    between atoms: S_17  and  C_32
   10  A    between atoms: S_17  and  C_42
   11  A    between atoms: N_21  and  S_41
   12  A    between atoms: P_26  and  O_37
                            x       y       z     vdW  Elec       q    Type
                         _______ _______ _______ _____ _____    ______ ____

>  <TORSDO>
F 12

$$$$
=
 OpenBabel11062415493D

 44 49  0  0  1  0  0  0  0  0999 V2000
  188.8150  178.6990  142.3860 C   0  0  2  0  0  3  0  0  0  0  0  0
  188.8440  177.6090  145.3810 C   0  0  0  0  0  2  0  0  0  0  0  0
  186.7160  176.7700  144.7980 O   0  0  0  0  0  0  0  0  0  0  0  0
  190.7970  178.1620  144.1650 C   0  0  2  0  0  0  0  0  0  0  0  0
  187.7330  177.9540  143.0490 N   0  0  0  0  0  0  0  0  0  0  0  0
  188.2070  179.2620  141.1150 C   0  0  0  0  0  2  0  0  0  0  0  0
  186.9510  178.4450  140.8670 C   0  0  0  0  0  2  0  0  0  0  0  0
  191.2170  177.9370  142.8470 O   0  0  0  0  0  0  0  0  0  0  0  0
  186.5340  177.9150  142.2230 C   0  0  2  0  0  3  0  0  0  0  0  0
  191.3550  177.4010  145.2010 O   0  0  0  0  0  0  0  0  0  0  0  0
  187.7130  177.4320  144.4080 C   0  0  0  0  0  0  0  0  0  0  0  0
  190.0710  177.0110  144.7440 C   0  0  1  0  0  3  0  0  0  0  0  0
  190.0630  177.8350  142.0100 C   0  0  1  0  0  3  0  0  0  0  0  0
  190.5510  179.4860  144.5590 O   0  0  0  0  0  1  0  0  0  0  0  0
  185.4790  178.8460  142.8070 C   0  0  0  0  0  2  0  0  0  0  0  0
  184.0770  178.3930  142.4080 C   0  0  2  0  0  3  0  0  0  0  0  0
  183.8600  178.3400  140.8900 C   0  0  2  0  0  3  0  0  0  0  0  0
  183.7330  179.6300  140.3700 O   0  0  0  0  0  1  0  0  0  0  0  0
  181.7160  178.2120  139.8030 O   0  0  0  0  0  1  0  0  0  0  0  0
  182.6990  177.4530  140.4360 C   0  0  0  0  0  2  0  0  0  0  0  0
  182.9910  179.1970  143.1240 C   0  0  0  0  0  2  0  0  0  0  0  0
  182.1210  178.3490  143.8190 O   0  0  0  0  0  0  0  0  0  0  0  0
  180.5570  178.8370  143.3750 P   0  0  0  0  0  0  0  0  0  0  0  0
  179.7420  179.1390  144.6120 O   0  0  0  0  0  1  0  0  0  0  0  0
  180.6260  180.2130  142.3900 O   0  0  0  0  0  0  0  0  0  0  0  0
  179.8140  177.5800  142.5190 O   0  0  0  0  0  1  0  0  0  0  0  0
  189.7010  176.1020  141.5570 S   0  0  0  0  0  0  0  0  0  0  0  0
  191.4370  177.4890  139.9740 C   0  0  1  0  0  3  0  0  0  0  0  0
  190.5290  178.0790  139.0740 O   0  0  0  0  0  0  0  0  0  0  0  0
  191.1250  176.1320  137.6700 C   0  0  1  0  0  3  0  0  0  0  0  0
  192.4770  176.7090  137.9000 N   0  0  0  0  0  0  0  0  0  0  0  0
  190.3150  175.7170  138.9190 C   0  0  1  0  0  3  0  0  0  0  0  0
  190.9450  176.0970  140.2330 C   0  0  2  0  0  3  0  0  0  0  0  0
  192.7420  177.2950  139.2260 C   0  0  0  0  0  2  0  0  0  0  0  0
  190.0240  177.0410  138.2520 C   0  0  1  0  0  3  0  0  0  0  0  0
  193.0820  174.1970  137.4060 O   0  0  0  0  0  0  0  0  0  0  0  0
  194.7290  175.5180  138.6110 O   0  0  0  0  0  0  0  0  0  0  0  0
  193.7170  175.5530  137.5020 S   0  0  0  0  0  0  0  0  0  0  0  0
  193.7680  175.3800  134.9200 F   0  0  0  0  0  0  0  0  0  0  0  0
  194.5490  175.8830  135.9470 C   0  0  0  0  0  0  0  0  0  0  0  0
  194.6810  177.2450  135.7550 F   0  0  0  0  0  0  0  0  0  0  0  0
  197.0220  175.9790  135.8390 F   0  0  0  0  0  0  0  0  0  0  0  0
  195.9920  174.0040  135.9010 O   0  0  0  0  0  0  0  0  0  0  0  0
  195.8950  175.2210  135.8950 C   0  0  0  0  0  0  0  0  0  0  0  0
  1  6  1  6  0  0  0
  1  5  1  0  0  0  0
  4 14  1  1  0  0  0
  4 12  1  0  0  0  0
  4 10  1  0  0  0  0
  5 11  1  0  0  0  0
  7  6  1  0  0  0  0
  7  9  1  0  0  0  0
  8  4  1  0  0  0  0
  9 15  1  1  0  0  0
  9  5  1  0  0  0  0
 11  3  2  0  0  0  0
 11  2  1  0  0  0  0
 12 10  1  0  0  0  0
 12  2  1  1  0  0  0
 13 27  1  1  0  0  0
 13  1  1  0  0  0  0
 13  8  1  0  0  0  0
 16 15  1  6  0  0  0
 16 21  1  0  0  0  0
 17 18  1  1  0  0  0
 17 16  1  0  0  0  0
 19 20  1  0  0  0  0
 20 17  1  0  0  0  0
 21 22  1  0  0  0  0
 23 22  1  0  0  0  0
 23 24  1  0  0  0  0
 25 23  2  0  0  0  0
 26 23  1  0  0  0  0
 28 34  1  6  0  0  0
 28 33  1  0  0  0  0
 29 28  1  0  0  0  0
 30 31  1  1  0  0  0
 30 35  1  0  0  0  0
 30 32  1  0  0  0  0
 31 34  1  0  0  0  0
 32 33  1  0  0  0  0
 33 27  1  0  0  0  0
 35 32  1  0  0  0  0
 35 29  1  0  0  0  0
 36 38  2  0  0  0  0
 38 31  1  0  0  0  0
 38 37  2  0  0  0  0
 39 40  1  0  0  0  0
 40 38  1  0  0  0  0
 41 40  1  0  0  0  0
 42 44  1  0  0  0  0
 44 43  2  0  0  0  0
 44 40  1  0  0  0  0
M  END
>  <MODEL>
5

>  <REMARK>
 VINA RESULT:      -5.3      3.456      6.476
  Name = 
  12 active torsions:
  status: ('A' for Active; 'I' for Inactive)
    1  A    between atoms: C_5  and  C_19
    2  A    between atoms: C_5  and  C_31
    3  A    between atoms: C_6  and  C_19
    4  A    between atoms: C_6  and  C_24
    5  A    between atoms: C_14  and  C_19
    6  A    between atoms: C_14  and  O_37
    7  A    between atoms: C_15  and  C_23
    8  A    between atoms: C_15  and  S_41
    9  A    between atoms: S_17  and  C_32
   10  A    between atoms: S_17  and  C_42
   11  A    between atoms: N_21  and  S_41
   12  A    between atoms: P_26  and  O_37
                            x       y       z     vdW  Elec       q    Type
                         _______ _______ _______ _____ _____    ______ ____

>  <TORSDO>
F 12

$$$$
=
 OpenBabel11062415493D

 44 49  0  0  1  0  0  0  0  0999 V2000
  189.0420  176.1350  138.2050 C   0  0  2  0  0  3  0  0  0  0  0  0
  186.6940  177.3030  136.3940 C   0  0  0  0  0  2  0  0  0  0  0  0
  187.6060  179.3810  137.0420 O   0  0  0  0  0  0  0  0  0  0  0  0
  187.5560  175.1100  136.1750 C   0  0  2  0  0  0  0  0  0  0  0  0
  188.7420  177.5600  137.9840 N   0  0  0  0  0  0  0  0  0  0  0  0
  190.0150  176.0970  139.3700 C   0  0  0  0  0  2  0  0  0  0  0  0
  190.5890  177.5000  139.4680 C   0  0  0  0  0  2  0  0  0  0  0  0
  188.8490  174.5690  136.1880 O   0  0  0  0  0  0  0  0  0  0  0  0
  189.5500  178.4110  138.8460 C   0  0  2  0  0  3  0  0  0  0  0  0
  186.8780  175.2330  134.9560 O   0  0  0  0  0  0  0  0  0  0  0  0
  187.6890  178.1300  137.1570 C   0  0  0  0  0  0  0  0  0  0  0  0
  187.4800  176.4080  135.4720 C   0  0  1  0  0  3  0  0  0  0  0  0
  189.6900  175.4100  136.9810 C   0  0  1  0  0  3  0  0  0  0  0  0
  186.6910  174.7690  137.2270 O   0  0  0  0  0  1  0  0  0  0  0  0
  188.6800  178.9870  139.9570 C   0  0  0  0  0  2  0  0  0  0  0  0
  187.8630  177.8870  140.6290 C   0  0  2  0  0  3  0  0  0  0  0  0
  186.3630  178.2050  140.7120 C   0  0  2  0  0  3  0  0  0  0  0  0
  185.9730  179.0050  139.6360 O   0  0  0  0  0  1  0  0  0  0  0  0
  184.6640  178.3140  142.4150 O   0  0  0  0  0  1  0  0  0  0  0  0
  185.9080  178.8180  142.0390 C   0  0  0  0  0  2  0  0  0  0  0  0
  188.4480  177.4850  141.9830 C   0  0  0  0  0  2  0  0  0  0  0  0
  189.3880  178.4270  142.4170 O   0  0  0  0  0  0  0  0  0  0  0  0
  190.3840  177.6030  143.5170 P   0  0  0  0  0  0  0  0  0  0  0  0
  190.0450  176.1300  143.5160 O   0  0  0  0  0  1  0  0  0  0  0  0
  192.0140  177.8110  143.1070 O   0  0  0  0  0  0  0  0  0  0  0  0
  190.1200  178.2280  145.0690 O   0  0  0  0  0  1  0  0  0  0  0  0
  190.7810  176.4500  135.9490 S   0  0  0  0  0  0  0  0  0  0  0  0
  193.0110  175.6240  137.2870 C   0  0  1  0  0  3  0  0  0  0  0  0
  193.9240  176.6130  136.8740 O   0  0  0  0  0  0  0  0  0  0  0  0
  194.5480  174.9070  135.1960 C   0  0  1  0  0  3  0  0  0  0  0  0
  194.7570  174.1290  136.4470 N   0  0  0  0  0  0  0  0  0  0  0  0
  193.1300  175.4710  134.9470 C   0  0  1  0  0  3  0  0  0  0  0  0
  192.1700  175.2870  136.0930 C   0  0  2  0  0  3  0  0  0  0  0  0
  193.8110  174.3640  137.5520 C   0  0  0  0  0  2  0  0  0  0  0  0
  194.2020  176.3770  135.5040 C   0  0  1  0  0  3  0  0  0  0  0  0
  195.4190  172.2570  134.7210 O   0  0  0  0  0  0  0  0  0  0  0  0
  193.4800  171.8350  136.1250 O   0  0  0  0  0  0  0  0  0  0  0  0
  194.8610  172.4240  136.1040 S   0  0  0  0  0  0  0  0  0  0  0  0
  195.2000  171.2750  138.3980 F   0  0  0  0  0  0  0  0  0  0  0  0
  195.9150  171.5160  137.2370 C   0  0  0  0  0  0  0  0  0  0  0  0
  196.2650  170.2960  136.6900 F   0  0  0  0  0  0  0  0  0  0  0  0
  197.0550  173.3720  138.4160 F   0  0  0  0  0  0  0  0  0  0  0  0
  198.2340  171.9870  137.1290 O   0  0  0  0  0  0  0  0  0  0  0  0
  197.1460  172.2990  137.5860 C   0  0  0  0  0  0  0  0  0  0  0  0
  1  6  1  1  0  0  0
  2 11  1  0  0  0  0
  3 11  2  0  0  0  0
  4  8  1  0  0  0  0
  4 14  1  1  0  0  0
  5  1  1  0  0  0  0
  5  9  1  0  0  0  0
  6  7  1  0  0  0  0
  8 13  1  0  0  0  0
  9  7  1  0  0  0  0
  9 15  1  1  0  0  0
 10 12  1  0  0  0  0
 10  4  1  0  0  0  0
 11  5  1  0  0  0  0
 12  4  1  0  0  0  0
 12  2  1  1  0  0  0
 13 27  1  6  0  0  0
 13  1  1  0  0  0  0
 16 15  1  1  0  0  0
 16 17  1  0  0  0  0
 16 21  1  0  0  0  0
 17 18  1  6  0  0  0
 17 20  1  0  0  0  0
 20 19  1  0  0  0  0
 21 22  1  0  0  0  0
 22 23  1  0  0  0  0
 23 26  1  0  0  0  0
 24 23  1  0  0  0  0
 25 23  2  0  0  0  0
 27 33  1  0  0  0  0
 28 34  1  6  0  0  0
 29 28  1  0  0  0  0
 30 35  1  0  0  0  0
 30 31  1  1  0  0  0
 31 34  1  0  0  0  0
 32 30  1  0  0  0  0
 32 35  1  0  0  0  0
 32 33  1  0  0  0  0
 33 28  1  0  0  0  0
 35 29  1  0  0  0  0
 36 38  2  0  0  0  0
 38 37  2  0  0  0  0
 38 31  1  0  0  0  0
 38 40  1  0  0  0  0
 40 44  1  0  0  0  0
 40 39  1  0  0  0  0
 41 40  1  0  0  0  0
 43 44  2  0  0  0  0
 44 42  1  0  0  0  0
M  END
>  <MODEL>
6

>  <REMARK>
 VINA RESULT:      -5.3      1.516      2.043
  Name = 
  12 active torsions:
  status: ('A' for Active; 'I' for Inactive)
    1  A    between atoms: C_5  and  C_19
    2  A    between atoms: C_5  and  C_31
    3  A    between atoms: C_6  and  C_19
    4  A    between atoms: C_6  and  C_24
    5  A    between atoms: C_14  and  C_19
    6  A    between atoms: C_14  and  O_37
    7  A    between atoms: C_15  and  C_23
    8  A    between atoms: C_15  and  S_41
    9  A    between atoms: S_17  and  C_32
   10  A    between atoms: S_17  and  C_42
   11  A    between atoms: N_21  and  S_41
   12  A    between atoms: P_26  and  O_37
                            x       y       z     vdW  Elec       q    Type
                         _______ _______ _______ _____ _____    ______ ____

>  <TORSDO>
F 12

$$$$
=
 OpenBabel11062415493D

 44 49  0  0  1  0  0  0  0  0999 V2000
  182.0350  176.9730  138.2200 C   0  0  2  0  0  3  0  0  0  0  0  0
  180.4450  179.5370  137.1910 C   0  0  0  0  0  2  0  0  0  0  0  0
  180.8000  180.2950  139.3980 O   0  0  0  0  0  0  0  0  0  0  0  0
  181.5660  178.0220  135.7590 C   0  0  2  0  0  0  0  0  0  0  0  0
  181.6850  178.1570  139.0220 N   0  0  0  0  0  0  0  0  0  0  0  0
  182.4850  175.9210  139.2180 C   0  0  0  0  0  2  0  0  0  0  0  0
  182.8160  176.6810  140.4900 C   0  0  0  0  0  2  0  0  0  0  0  0
  182.8070  177.3740  135.8110 O   0  0  0  0  0  0  0  0  0  0  0  0
  181.9990  177.9560  140.4290 C   0  0  2  0  0  3  0  0  0  0  0  0
  181.3980  179.1080  134.8910 O   0  0  0  0  0  0  0  0  0  0  0  0
  180.9720  179.3490  138.5850 C   0  0  0  0  0  0  0  0  0  0  0  0
  181.6200  179.4140  136.2570 C   0  0  1  0  0  3  0  0  0  0  0  0
  183.1800  177.2070  137.1810 C   0  0  1  0  0  3  0  0  0  0  0  0
  180.4080  177.2340  135.8460 O   0  0  0  0  0  1  0  0  0  0  0  0
  180.7120  177.7480  141.2160 C   0  0  0  0  0  2  0  0  0  0  0  0
  180.7900  178.4390  142.5750 C   0  0  2  0  0  3  0  0  0  0  0  0
  179.6380  179.4220  142.8270 C   0  0  2  0  0  3  0  0  0  0  0  0
  180.0710  180.7380  142.6480 O   0  0  0  0  0  1  0  0  0  0  0  0
  179.1860  177.9970  144.7140 O   0  0  0  0  0  1  0  0  0  0  0  0
  178.9370  179.2590  144.1770 C   0  0  0  0  0  2  0  0  0  0  0  0
  182.1600  179.0740  142.8160 C   0  0  0  0  0  2  0  0  0  0  0  0
  182.4450  179.1370  144.1840 O   0  0  0  0  0  0  0  0  0  0  0  0
  184.1240  178.9210  144.3110 P   0  0  0  0  0  0  0  0  0  0  0  0
  184.4730  178.3850  145.6810 O   0  0  0  0  0  1  0  0  0  0  0  0
  184.6720  177.8450  143.1230 O   0  0  0  0  0  0  0  0  0  0  0  0
  184.8860  180.4180  144.0950 O   0  0  0  0  0  1  0  0  0  0  0  0
  184.4590  178.4080  137.6910 S   0  0  0  0  0  0  0  0  0  0  0  0
  187.0820  177.6900  137.9040 C   0  0  1  0  0  3  0  0  0  0  0  0
  187.6770  178.7050  137.1310 O   0  0  0  0  0  0  0  0  0  0  0  0
  187.5660  176.9950  135.3490 C   0  0  1  0  0  3  0  0  0  0  0  0
  188.3380  176.2470  136.3780 N   0  0  0  0  0  0  0  0  0  0  0  0
  186.1620  177.5010  135.7530 C   0  0  1  0  0  3  0  0  0  0  0  0
  185.8150  177.3010  137.2050 C   0  0  2  0  0  3  0  0  0  0  0  0
  187.9680  176.4650  137.7870 C   0  0  0  0  0  2  0  0  0  0  0  0
  187.3310  178.4560  135.7790 C   0  0  1  0  0  3  0  0  0  0  0  0
  187.9010  174.3550  134.6020 O   0  0  0  0  0  0  0  0  0  0  0  0
  187.3670  173.8470  136.9190 O   0  0  0  0  0  0  0  0  0  0  0  0
  188.3500  174.5420  136.0220 S   0  0  0  0  0  0  0  0  0  0  0  0
  190.1580  173.4680  137.5320 F   0  0  0  0  0  0  0  0  0  0  0  0
  189.9620  173.7730  136.1960 C   0  0  0  0  0  0  0  0  0  0  0  0
  190.0090  172.5940  135.4770 F   0  0  0  0  0  0  0  0  0  0  0  0
  190.7600  175.7930  135.0050 F   0  0  0  0  0  0  0  0  0  0  0  0
  192.2220  174.4700  136.0420 O   0  0  0  0  0  0  0  0  0  0  0  0
  191.0590  174.6950  135.7480 C   0  0  0  0  0  0  0  0  0  0  0  0
  1  5  1  0  0  0  0
  1  6  1  1  0  0  0
  2 11  1  0  0  0  0
  4  8  1  0  0  0  0
  4 14  1  1  0  0  0
  4 12  1  0  0  0  0
  5  9  1  0  0  0  0
  6  7  1  0  0  0  0
  8 13  1  0  0  0  0
  9  7  1  0  0  0  0
  9 15  1  1  0  0  0
 10  4  1  0  0  0  0
 10 12  1  0  0  0  0
 11  5  1  0  0  0  0
 11  3  2  0  0  0  0
 12  2  1  1  0  0  0
 13 27  1  1  0  0  0
 13  1  1  0  0  0  0
 16 15  1  6  0  0  0
 16 21  1  0  0  0  0
 16 17  1  0  0  0  0
 17 18  1  1  0  0  0
 17 20  1  0  0  0  0
 20 19  1  0  0  0  0
 21 22  1  0  0  0  0
 22 23  1  0  0  0  0
 23 24  1  0  0  0  0
 25 23  2  0  0  0  0
 26 23  1  0  0  0  0
 28 34  1  6  0  0  0
 29 28  1  0  0  0  0
 30 32  1  0  0  0  0
 30 35  1  0  0  0  0
 30 31  1  1  0  0  0
 31 34  1  0  0  0  0
 32 35  1  0  0  0  0
 32 33  1  0  0  0  0
 33 27  1  0  0  0  0
 33 28  1  0  0  0  0
 35 29  1  0  0  0  0
 36 38  2  0  0  0  0
 38 40  1  0  0  0  0
 38 31  1  0  0  0  0
 38 37  2  0  0  0  0
 40 39  1  0  0  0  0
 41 40  1  0  0  0  0
 42 44  1  0  0  0  0
 44 43  2  0  0  0  0
 44 40  1  0  0  0  0
M  END
>  <MODEL>
7

>  <REMARK>
 VINA RESULT:      -5.2      4.890      7.312
  Name = 
  12 active torsions:
  status: ('A' for Active; 'I' for Inactive)
    1  A    between atoms: C_5  and  C_19
    2  A    between atoms: C_5  and  C_31
    3  A    between atoms: C_6  and  C_19
    4  A    between atoms: C_6  and  C_24
    5  A    between atoms: C_14  and  C_19
    6  A    between atoms: C_14  and  O_37
    7  A    between atoms: C_15  and  C_23
    8  A    between atoms: C_15  and  S_41
    9  A    between atoms: S_17  and  C_32
   10  A    between atoms: S_17  and  C_42
   11  A    between atoms: N_21  and  S_41
   12  A    between atoms: P_26  and  O_37
                            x       y       z     vdW  Elec       q    Type
                         _______ _______ _______ _____ _____    ______ ____

>  <TORSDO>
F 12

$$$$
=
 OpenBabel11062415493D

 44 49  0  0  1  0  0  0  0  0999 V2000
  189.3190  178.4210  141.5350 C   0  0  2  0  0  3  0  0  0  0  0  0
  189.5140  176.6820  144.1990 C   0  0  0  0  0  2  0  0  0  0  0  0
  187.1860  176.4500  143.8830 O   0  0  0  0  0  0  0  0  0  0  0  0
  191.3480  177.0950  142.7610 C   0  0  2  0  0  0  0  0  0  0  0  0
  188.1950  177.7770  142.2360 N   0  0  0  0  0  0  0  0  0  0  0  0
  188.6860  179.3750  140.5380 C   0  0  0  0  0  2  0  0  0  0  0  0
  187.2500  178.9090  140.3820 C   0  0  0  0  0  2  0  0  0  0  0  0
  191.5080  177.1020  141.3690 O   0  0  0  0  0  0  0  0  0  0  0  0
  186.9160  178.1740  141.6640 C   0  0  2  0  0  3  0  0  0  0  0  0
  191.8500  176.0180  143.5030 O   0  0  0  0  0  0  0  0  0  0  0  0
  188.2460  176.9680  143.4450 C   0  0  0  0  0  0  0  0  0  0  0  0
  190.4580  176.0130  143.2340 C   0  0  1  0  0  3  0  0  0  0  0  0
  190.2560  177.4330  140.7650 C   0  0  1  0  0  3  0  0  0  0  0  0
  191.4850  178.3130  143.4450 O   0  0  0  0  0  1  0  0  0  0  0  0
  186.2100  179.1380  142.6080 C   0  0  0  0  0  2  0  0  0  0  0  0
  184.6950  178.9820  142.5070 C   0  0  2  0  0  3  0  0  0  0  0  0
  184.0270  178.6250  143.8410 C   0  0  2  0  0  3  0  0  0  0  0  0
  182.7660  179.2190  143.9310 O   0  0  0  0  0  1  0  0  0  0  0  0
  184.1360  178.6900  146.2460 O   0  0  0  0  0  1  0  0  0  0  0  0
  184.8650  178.9370  145.0840 C   0  0  0  0  0  2  0  0  0  0  0  0
  184.2920  178.0300  141.3810 C   0  0  0  0  0  2  0  0  0  0  0  0
  183.1070  178.4560  140.7690 O   0  0  0  0  0  0  0  0  0  0  0  0
  183.5240  178.8010  139.1600 P   0  0  0  0  0  0  0  0  0  0  0  0
  184.5540  177.8080  138.6710 O   0  0  0  0  0  1  0  0  0  0  0  0
  182.1530  178.7330  138.1680 O   0  0  0  0  0  0  0  0  0  0  0  0
  184.1830  180.3590  139.0870 O   0  0  0  0  0  1  0  0  0  0  0  0
  189.4280  175.9640  140.0620 S   0  0  0  0  0  0  0  0  0  0  0  0
  190.4010  177.0810  137.7710 C   0  0  1  0  0  3  0  0  0  0  0  0
  189.3470  176.7810  136.8870 O   0  0  0  0  0  0  0  0  0  0  0  0
  190.7810  174.8500  136.3120 C   0  0  1  0  0  3  0  0  0  0  0  0
  191.7280  175.9660  136.0430 N   0  0  0  0  0  0  0  0  0  0  0  0
  190.2120  174.7410  137.7450 C   0  0  1  0  0  3  0  0  0  0  0  0
  190.5750  175.8830  138.6560 C   0  0  2  0  0  3  0  0  0  0  0  0
  191.6720  177.1290  136.9470 C   0  0  0  0  0  2  0  0  0  0  0  0
  189.3770  175.3820  136.6620 C   0  0  1  0  0  3  0  0  0  0  0  0
  194.2310  176.4860  135.4190 O   0  0  0  0  0  0  0  0  0  0  0  0
  193.4120  174.2470  134.9440 O   0  0  0  0  0  0  0  0  0  0  0  0
  193.3630  175.3750  135.9340 S   0  0  0  0  0  0  0  0  0  0  0  0
  193.8430  175.8210  138.4380 F   0  0  0  0  0  0  0  0  0  0  0  0
  194.0450  174.8240  137.5000 C   0  0  0  0  0  0  0  0  0  0  0  0
  193.3890  173.6880  137.9340 F   0  0  0  0  0  0  0  0  0  0  0  0
  196.0220  173.9780  136.2700 F   0  0  0  0  0  0  0  0  0  0  0  0
  196.2750  174.8580  138.3010 O   0  0  0  0  0  0  0  0  0  0  0  0
  195.5180  174.5590  137.3910 C   0  0  0  0  0  0  0  0  0  0  0  0
  1  6  1  6  0  0  0
  1  5  1  0  0  0  0
  4 12  1  0  0  0  0
  4 14  1  1  0  0  0
  4 10  1  0  0  0  0
  5 11  1  0  0  0  0
  7  6  1  0  0  0  0
  7  9  1  0  0  0  0
  8  4  1  0  0  0  0
  9  5  1  0  0  0  0
  9 15  1  1  0  0  0
 11  3  2  0  0  0  0
 11  2  1  0  0  0  0
 12 10  1  0  0  0  0
 12  2  1  1  0  0  0
 13 27  1  1  0  0  0
 13  8  1  0  0  0  0
 13  1  1  0  0  0  0
 16 21  1  6  0  0  0
 16 15  1  0  0  0  0
 16 17  1  0  0  0  0
 17 18  1  1  0  0  0
 17 20  1  0  0  0  0
 20 19  1  0  0  0  0
 22 21  1  0  0  0  0
 23 22  1  0  0  0  0
 24 23  1  0  0  0  0
 25 23  2  0  0  0  0
 26 23  1  0  0  0  0
 28 34  1  6  0  0  0
 28 33  1  0  0  0  0
 29 28  1  0  0  0  0
 30 31  1  1  0  0  0
 30 35  1  0  0  0  0
 30 32  1  0  0  0  0
 31 34  1  0  0  0  0
 32 33  1  0  0  0  0
 33 27  1  0  0  0  0
 35 29  1  0  0  0  0
 35 32  1  0  0  0  0
 36 38  2  0  0  0  0
 37 38  2  0  0  0  0
 38 31  1  0  0  0  0
 38 40  1  0  0  0  0
 40 41  1  0  0  0  0
 40 39  1  0  0  0  0
 42 44  1  0  0  0  0
 44 40  1  0  0  0  0
 44 43  2  0  0  0  0
M  END
>  <MODEL>
8

>  <REMARK>
 VINA RESULT:      -5.1      2.817      5.671
  Name = 
  12 active torsions:
  status: ('A' for Active; 'I' for Inactive)
    1  A    between atoms: C_5  and  C_19
    2  A    between atoms: C_5  and  C_31
    3  A    between atoms: C_6  and  C_19
    4  A    between atoms: C_6  and  C_24
    5  A    between atoms: C_14  and  C_19
    6  A    between atoms: C_14  and  O_37
    7  A    between atoms: C_15  and  C_23
    8  A    between atoms: C_15  and  S_41
    9  A    between atoms: S_17  and  C_32
   10  A    between atoms: S_17  and  C_42
   11  A    between atoms: N_21  and  S_41
   12  A    between atoms: P_26  and  O_37
                            x       y       z     vdW  Elec       q    Type
                         _______ _______ _______ _____ _____    ______ ____

>  <TORSDO>
F 12

$$$$
=
 OpenBabel11062415493D

 44 49  0  0  1  0  0  0  0  0999 V2000
  188.6940  175.8420  137.5040 C   0  0  2  0  0  3  0  0  0  0  0  0
  190.9240  176.0540  135.2360 C   0  0  0  0  0  2  0  0  0  0  0  0
  189.6890  177.9610  134.5940 O   0  0  0  0  0  0  0  0  0  0  0  0
  191.2250  174.8830  137.2710 C   0  0  2  0  0  0  0  0  0  0  0  0
  188.7580  176.8590  136.4410 N   0  0  0  0  0  0  0  0  0  0  0  0
  187.3090  175.9710  138.1110 C   0  0  0  0  0  2  0  0  0  0  0  0
  186.8070  177.3420  137.6950 C   0  0  0  0  0  2  0  0  0  0  0  0
  190.9020  175.1580  138.6060 O   0  0  0  0  0  0  0  0  0  0  0  0
  187.5590  177.6860  136.4260 C   0  0  2  0  0  3  0  0  0  0  0  0
  192.5560  174.9990  136.8500 O   0  0  0  0  0  0  0  0  0  0  0  0
  189.7630  176.9950  135.3980 C   0  0  0  0  0  0  0  0  0  0  0  0
  191.6920  176.0760  136.5320 C   0  0  1  0  0  3  0  0  0  0  0  0
  189.7600  176.0170  138.6350 C   0  0  1  0  0  3  0  0  0  0  0  0
  190.5650  173.8160  136.6410 O   0  0  0  0  0  1  0  0  0  0  0  0
  186.6930  177.3110  135.2310 C   0  0  0  0  0  2  0  0  0  0  0  0
  185.5850  176.3470  135.6460 C   0  0  2  0  0  3  0  0  0  0  0  0
  185.6080  175.0210  134.8740 C   0  0  2  0  0  3  0  0  0  0  0  0
  184.3080  174.5940  134.5960 O   0  0  0  0  0  1  0  0  0  0  0  0
  186.7490  172.9170  134.6140 O   0  0  0  0  0  1  0  0  0  0  0  0
  186.4170  173.9040  135.5390 C   0  0  0  0  0  2  0  0  0  0  0  0
  184.2090  177.0130  135.6180 C   0  0  0  0  0  2  0  0  0  0  0  0
  183.8500  177.4680  136.8920 O   0  0  0  0  0  0  0  0  0  0  0  0
  182.7230  176.3420  137.4780 P   0  0  0  0  0  0  0  0  0  0  0  0
  181.8570  176.9850  138.5380 O   0  0  0  0  0  1  0  0  0  0  0  0
  181.7470  175.7730  136.2160 O   0  0  0  0  0  0  0  0  0  0  0  0
  183.5570  175.0380  138.1640 O   0  0  0  0  0  1  0  0  0  0  0  0
  190.2160  177.7450  139.0140 S   0  0  0  0  0  0  0  0  0  0  0  0
  189.2550  176.4350  141.2060 C   0  0  1  0  0  3  0  0  0  0  0  0
  188.0780  177.1730  141.4350 O   0  0  0  0  0  0  0  0  0  0  0  0
  189.5140  178.3860  143.0430 C   0  0  1  0  0  3  0  0  0  0  0  0
  189.6710  176.9960  143.5510 N   0  0  0  0  0  0  0  0  0  0  0  0
  189.9330  178.6510  141.5790 C   0  0  1  0  0  3  0  0  0  0  0  0
  190.3100  177.4190  140.7990 C   0  0  2  0  0  3  0  0  0  0  0  0
  189.7230  175.9150  142.5510 C   0  0  0  0  0  2  0  0  0  0  0  0
  188.4730  178.4500  141.9070 C   0  0  1  0  0  3  0  0  0  0  0  0
  191.9260  178.0700  144.3790 O   0  0  0  0  0  0  0  0  0  0  0  0
  191.8190  175.6430  144.2930 O   0  0  0  0  0  0  0  0  0  0  0  0
  191.0400  176.8830  144.6220 S   0  0  0  0  0  0  0  0  0  0  0  0
  190.2220  178.1490  146.7260 F   0  0  0  0  0  0  0  0  0  0  0  0
  190.6050  176.8690  146.3630 C   0  0  0  0  0  0  0  0  0  0  0  0
  189.5340  176.0230  146.5810 F   0  0  0  0  0  0  0  0  0  0  0  0
  192.4400  175.3070  146.9360 F   0  0  0  0  0  0  0  0  0  0  0  0
  192.1260  177.1420  148.1590 O   0  0  0  0  0  0  0  0  0  0  0  0
  191.7710  176.4570  147.2140 C   0  0  0  0  0  0  0  0  0  0  0  0
  1  6  1  1  0  0  0
  1 13  1  0  0  0  0
  2 11  1  0  0  0  0
  3 11  2  0  0  0  0
  4 14  1  6  0  0  0
  4  8  1  0  0  0  0
  5  1  1  0  0  0  0
  7  6  1  0  0  0  0
  8 13  1  0  0  0  0
  9 15  1  6  0  0  0
  9  5  1  0  0  0  0
  9  7  1  0  0  0  0
 10  4  1  0  0  0  0
 11  5  1  0  0  0  0
 12  2  1  6  0  0  0
 12 10  1  0  0  0  0
 12  4  1  0  0  0  0
 13 27  1  6  0  0  0
 16 15  1  6  0  0  0
 17 18  1  1  0  0  0
 17 20  1  0  0  0  0
 17 16  1  0  0  0  0
 19 20  1  0  0  0  0
 21 16  1  0  0  0  0
 21 22  1  0  0  0  0
 22 23  1  0  0  0  0
 23 26  1  0  0  0  0
 23 24  1  0  0  0  0
 25 23  2  0  0  0  0
 27 33  1  0  0  0  0
 28 29  1  0  0  0  0
 28 34  1  1  0  0  0
 29 35  1  0  0  0  0
 30 31  1  6  0  0  0
 31 38  1  0  0  0  0
 32 35  1  0  0  0  0
 32 30  1  0  0  0  0
 33 28  1  0  0  0  0
 33 32  1  0  0  0  0
 34 31  1  0  0  0  0
 35 30  1  0  0  0  0
 36 38  2  0  0  0  0
 37 38  2  0  0  0  0
 38 40  1  0  0  0  0
 40 41  1  0  0  0  0
 40 39  1  0  0  0  0
 40 44  1  0  0  0  0
 42 44  1  0  0  0  0
 44 43  2  0  0  0  0
M  END
>  <MODEL>
9

>  <REMARK>
 VINA RESULT:      -5.0      4.218      7.594
  Name = 
  12 active torsions:
  status: ('A' for Active; 'I' for Inactive)
    1  A    between atoms: C_5  and  C_19
    2  A    between atoms: C_5  and  C_31
    3  A    between atoms: C_6  and  C_19
    4  A    between atoms: C_6  and  C_24
    5  A    between atoms: C_14  and  C_19
    6  A    between atoms: C_14  and  O_37
    7  A    between atoms: C_15  and  C_23
    8  A    between atoms: C_15  and  S_41
    9  A    between atoms: S_17  and  C_32
   10  A    between atoms: S_17  and  C_42
   11  A    between atoms: N_21  and  S_41
   12  A    between atoms: P_26  and  O_37
                            x       y       z     vdW  Elec       q    Type
                         _______ _______ _______ _____ _____    ______ ____

>  <TORSDO>
F 12

$$$$
