=
 OpenBabel11062414133D

 32 35  0  0  1  0  0  0  0  0999 V2000
  188.6000  177.6210  142.5520 C   0  0  2  0  0  3  0  0  0  0  0  0
  188.9370  178.0320  141.1890 N   0  0  0  0  0  2  0  0  0  0  0  0
  187.1230  177.8920  142.7780 C   0  0  0  0  0  2  0  0  0  0  0  0
  186.6920  178.7280  141.6030 C   0  0  1  0  0  3  0  0  0  0  0  0
  187.6850  178.3750  140.5280 C   0  0  0  0  0  2  0  0  0  0  0  0
  188.2070  177.3690  147.0250 C   0  0  0  0  0  3  0  0  0  0  0  0
  189.2890  177.8680  144.9370 C   0  0  0  0  0  0  0  0  0  0  0  0
  188.1410  177.9030  145.7320 C   0  0  0  0  0  3  0  0  0  0  0  0
  191.5100  177.5000  144.3690 C   0  0  0  0  0  3  0  0  0  0  0  0
  190.8860  178.2180  143.2470 N   0  0  0  0  0  0  0  0  0  0  0  0
  190.5650  176.8070  146.6950 C   0  0  0  0  0  0  0  0  0  0  0  0
  189.4100  176.8210  147.5020 C   0  0  0  0  0  3  0  0  0  0  0  0
  189.4580  178.3960  143.5610 C   0  0  1  0  0  3  0  0  0  0  0  0
  190.4630  177.3550  145.4030 C   0  0  0  0  0  0  0  0  0  0  0  0
  191.8200  176.2350  147.2250 C   0  0  0  0  0  0  0  0  0  0  0  0
  192.3440  175.2330  146.6690 O   0  0  0  0  0  0  0  0  0  0  0  0
  192.4460  176.7890  148.3360 O   0  0  0  0  0  1  0  0  0  0  0  0
  185.3790  178.3680  141.1890 O   0  0  0  0  0  0  0  0  0  0  0  0
  182.9550  178.5720  141.4570 C   0  0  0  0  0  3  0  0  0  0  0  0
  181.8430  178.7310  142.2890 C   0  0  0  0  0  0  0  0  0  0  0  0
  182.0210  178.8400  143.6780 C   0  0  0  0  0  0  0  0  0  0  0  0
  183.3110  178.8030  144.2190 C   0  0  0  0  0  0  0  0  0  0  0  0
  183.4920  178.9100  145.5580 F   0  0  0  0  0  0  0  0  0  0  0  0
  180.9500  178.9820  144.5000 F   0  0  0  0  0  0  0  0  0  0  0  0
  184.2490  178.5300  141.9980 C   0  0  0  0  0  0  0  0  0  0  0  0
  184.4190  178.6480  143.3800 C   0  0  0  0  0  3  0  0  0  0  0  0
  180.4730  178.7560  141.6920 C   0  0  0  0  0  2  0  0  0  0  0  0
  180.0890  180.1490  141.3130 C   0  0  0  0  0  0  0  0  0  0  0  0
  179.6640  180.9130  142.1660 O   0  0  0  0  0  0  0  0  0  0  0  0
  179.6650  181.8580  139.7260 O   0  0  0  0  0  1  0  0  0  0  0  0
  180.2690  180.6130  139.9010 C   0  0  2  0  0  3  0  0  0  0  0  0
  179.6720  179.6120  138.9300 C   0  0  0  0  0  1  0  0  0  0  0  0
  1  3  1  1  0  0  0
  1 13  1  0  0  0  0
  2  1  1  0  0  0  0
  4 18  1  6  0  0  0
  4  3  1  0  0  0  0
  5  2  1  0  0  0  0
  5  4  1  0  0  0  0
  6 12  1  0  0  0  0
  7 14  2  0  0  0  0
  7  8  1  0  0  0  0
  8  6  2  0  0  0  0
  9 14  1  0  0  0  0
 10  9  2  0  0  0  0
 11 15  1  0  0  0  0
 11 12  2  0  0  0  0
 13 10  1  6  0  0  0
 13  7  1  0  0  0  0
 14 11  1  0  0  0  0
 15 17  1  0  0  0  0
 16 15  2  0  0  0  0
 18 25  1  0  0  0  0
 19 25  2  0  0  0  0
 19 20  1  0  0  0  0
 20 21  2  0  0  0  0
 21 22  1  0  0  0  0
 21 24  1  0  0  0  0
 22 23  1  0  0  0  0
 25 26  1  0  0  0  0
 26 22  2  0  0  0  0
 27 20  1  0  0  0  0
 28 27  1  0  0  0  0
 28 29  2  0  0  0  0
 30 31  1  0  0  0  0
 31 32  1  6  0  0  0
 31 28  1  0  0  0  0
M  END
>  <MODEL>
1

>  <REMARK>
 VINA RESULT:      -9.8      0.000      0.000
  Name = 
  7 active torsions:
  status: ('A' for Active; 'I' for Inactive)
    1  A    between atoms: C_1  and  C_17
    2  A    between atoms: C_7  and  C_12
    3  A    between atoms: C_7  and  C_18
    4  A    between atoms: C_10  and  C_12
    5  A    between atoms: O_13  and  C_25
    6  A    between atoms: O_13  and  C_31
    7  A    between atoms: C_14  and  C_23
                            x       y       z     vdW  Elec       q    Type
                         _______ _______ _______ _____ _____    ______ ____

>  <TORSDO>
F 7

$$$$
=
 OpenBabel11062414133D

 32 35  0  0  1  0  0  0  0  0999 V2000
  184.9270  178.2460  142.3430 C   0  0  2  0  0  3  0  0  0  0  0  0
  183.9930  178.9620  143.2130 N   0  0  0  0  0  2  0  0  0  0  0  0
  186.0610  177.7140  143.2020 C   0  0  0  0  0  2  0  0  0  0  0  0
  185.8920  178.3860  144.5380 C   0  0  1  0  0  3  0  0  0  0  0  0
  184.4270  178.7300  144.5830 C   0  0  0  0  0  2  0  0  0  0  0  0
  188.8160  177.7330  140.1430 C   0  0  0  0  0  3  0  0  0  0  0  0
  186.6020  178.5860  140.5250 C   0  0  0  0  0  0  0  0  0  0  0  0
  187.8690  178.2750  141.0210 C   0  0  0  0  0  3  0  0  0  0  0  0
  184.9020  178.8630  138.9670 C   0  0  0  0  0  3  0  0  0  0  0  0
  184.4220  179.4230  140.2400 N   0  0  0  0  0  0  0  0  0  0  0  0
  187.2090  177.8530  138.3030 C   0  0  0  0  0  0  0  0  0  0  0  0
  188.4880  177.5190  138.7940 C   0  0  0  0  0  3  0  0  0  0  0  0
  185.4610  179.1900  141.2570 C   0  0  1  0  0  3  0  0  0  0  0  0
  186.2840  178.3990  139.2120 C   0  0  0  0  0  0  0  0  0  0  0  0
  186.8930  177.6290  136.8770 C   0  0  0  0  0  0  0  0  0  0  0  0
  186.3520  176.5520  136.5090 O   0  0  0  0  0  1  0  0  0  0  0  0
  187.1790  178.5970  135.9200 O   0  0  0  0  0  0  0  0  0  0  0  0
  186.2120  177.4860  145.5940 O   0  0  0  0  0  0  0  0  0  0  0  0
  188.6330  177.1360  145.6660 C   0  0  0  0  0  3  0  0  0  0  0  0
  189.8380  177.1800  146.3750 C   0  0  0  0  0  0  0  0  0  0  0  0
  189.8450  177.6150  147.7100 C   0  0  0  0  0  0  0  0  0  0  0  0
  188.6470  177.9900  148.3260 C   0  0  0  0  0  0  0  0  0  0  0  0
  188.6450  178.4100  149.6160 F   0  0  0  0  0  0  0  0  0  0  0  0
  191.0080  177.6750  148.4080 F   0  0  0  0  0  0  0  0  0  0  0  0
  187.4300  177.5160  146.2820 C   0  0  0  0  0  0  0  0  0  0  0  0
  187.4460  177.9410  147.6130 C   0  0  0  0  0  3  0  0  0  0  0  0
  191.1080  176.7860  145.6940 C   0  0  0  0  0  2  0  0  0  0  0  0
  191.2470  177.4970  144.3870 C   0  0  0  0  0  0  0  0  0  0  0  0
  191.1870  178.7170  144.3520 O   0  0  0  0  0  0  0  0  0  0  0  0
  191.7010  177.5800  142.0620 O   0  0  0  0  0  1  0  0  0  0  0  0
  191.5000  176.7140  143.1370 C   0  0  2  0  0  3  0  0  0  0  0  0
  190.3350  175.7900  142.8400 C   0  0  0  0  0  1  0  0  0  0  0  0
  1  3  1  1  0  0  0
  1  2  1  0  0  0  0
  2  5  1  0  0  0  0
  3  4  1  0  0  0  0
  4  5  1  0  0  0  0
  4 18  1  1  0  0  0
  6  8  1  0  0  0  0
  7  8  2  0  0  0  0
  7 13  1  0  0  0  0
  9 14  1  0  0  0  0
  9 10  2  0  0  0  0
 11 12  1  0  0  0  0
 11 14  2  0  0  0  0
 12  6  2  0  0  0  0
 13 10  1  6  0  0  0
 13  1  1  0  0  0  0
 14  7  1  0  0  0  0
 15 11  1  0  0  0  0
 16 15  1  0  0  0  0
 17 15  2  0  0  0  0
 18 25  1  0  0  0  0
 19 25  2  0  0  0  0
 19 20  1  0  0  0  0
 20 21  2  0  0  0  0
 21 22  1  0  0  0  0
 21 24  1  0  0  0  0
 22 23  1  0  0  0  0
 25 26  1  0  0  0  0
 26 22  2  0  0  0  0
 27 20  1  0  0  0  0
 28 27  1  0  0  0  0
 29 28  2  0  0  0  0
 30 31  1  0  0  0  0
 31 32  1  6  0  0  0
 31 28  1  0  0  0  0
M  END
>  <MODEL>
2

>  <REMARK>
 VINA RESULT:      -9.7      4.167      8.631
  Name = 
  7 active torsions:
  status: ('A' for Active; 'I' for Inactive)
    1  A    between atoms: C_1  and  C_17
    2  A    between atoms: C_7  and  C_12
    3  A    between atoms: C_7  and  C_18
    4  A    between atoms: C_10  and  C_12
    5  A    between atoms: O_13  and  C_25
    6  A    between atoms: O_13  and  C_31
    7  A    between atoms: C_14  and  C_23
                            x       y       z     vdW  Elec       q    Type
                         _______ _______ _______ _____ _____    ______ ____

>  <TORSDO>
F 7

$$$$
=
 OpenBabel11062414133D

 32 35  0  0  1  0  0  0  0  0999 V2000
  188.8790  178.0860  142.0740 C   0  0  2  0  0  3  0  0  0  0  0  0
  188.2220  178.6310  140.8860 N   0  0  0  0  0  2  0  0  0  0  0  0
  190.0720  177.2630  141.6200 C   0  0  0  0  0  2  0  0  0  0  0  0
  189.9100  177.1240  140.1300 C   0  0  1  0  0  3  0  0  0  0  0  0
  189.0740  178.3160  139.7480 C   0  0  0  0  0  2  0  0  0  0  0  0
  189.1600  177.2140  146.4770 C   0  0  0  0  0  3  0  0  0  0  0  0
  188.0870  177.3800  144.3330 C   0  0  0  0  0  0  0  0  0  0  0  0
  189.1930  176.9970  145.0940 C   0  0  0  0  0  3  0  0  0  0  0  0
  185.9570  178.1810  143.8730 C   0  0  0  0  0  3  0  0  0  0  0  0
  186.5120  177.6690  142.6100 N   0  0  0  0  0  0  0  0  0  0  0  0
  186.9130  178.1640  146.2950 C   0  0  0  0  0  0  0  0  0  0  0  0
  188.0290  177.7970  147.0740 C   0  0  0  0  0  3  0  0  0  0  0  0
  187.8910  177.2230  142.8710 C   0  0  1  0  0  3  0  0  0  0  0  0
  186.9800  177.9280  144.9090 C   0  0  0  0  0  0  0  0  0  0  0  0
  185.7310  178.7650  146.9480 C   0  0  0  0  0  0  0  0  0  0  0  0
  184.5930  178.2440  146.8020 O   0  0  0  0  0  0  0  0  0  0  0  0
  185.8520  179.9050  147.7350 O   0  0  0  0  0  1  0  0  0  0  0  0
  191.1760  177.1910  139.4830 O   0  0  0  0  0  0  0  0  0  0  0  0
  193.0480  175.9610  138.4970 C   0  0  0  0  0  3  0  0  0  0  0  0
  193.5150  174.9330  137.6720 C   0  0  0  0  0  0  0  0  0  0  0  0
  192.5980  174.1020  137.0080 C   0  0  0  0  0  0  0  0  0  0  0  0
  191.2250  174.3150  137.1650 C   0  0  0  0  0  0  0  0  0  0  0  0
  190.3340  173.5180  136.5260 F   0  0  0  0  0  0  0  0  0  0  0  0
  193.0360  173.0920  136.2130 F   0  0  0  0  0  0  0  0  0  0  0  0
  191.6700  176.1730  138.6600 C   0  0  0  0  0  0  0  0  0  0  0  0
  190.7650  175.3470  137.9890 C   0  0  0  0  0  3  0  0  0  0  0  0
  194.9860  174.7160  137.5270 C   0  0  0  0  0  2  0  0  0  0  0  0
  195.5180  173.9290  138.6810 C   0  0  0  0  0  0  0  0  0  0  0  0
  194.9960  172.8660  138.9810 O   0  0  0  0  0  0  0  0  0  0  0  0
  196.3650  175.5400  140.1990 O   0  0  0  0  0  1  0  0  0  0  0  0
  196.7120  174.4270  139.4340 C   0  0  2  0  0  3  0  0  0  0  0  0
  197.8320  174.7910  138.4780 C   0  0  0  0  0  1  0  0  0  0  0  0
  1  3  1  6  0  0  0
  1 13  1  0  0  0  0
  2  1  1  0  0  0  0
  4 18  1  6  0  0  0
  4  3  1  0  0  0  0
  5  4  1  0  0  0  0
  5  2  1  0  0  0  0
  6 12  1  0  0  0  0
  7 14  2  0  0  0  0
  7  8  1  0  0  0  0
  8  6  2  0  0  0  0
  9 14  1  0  0  0  0
 10  9  2  0  0  0  0
 11 15  1  0  0  0  0
 11 12  2  0  0  0  0
 13 10  1  1  0  0  0
 13  7  1  0  0  0  0
 14 11  1  0  0  0  0
 15 17  1  0  0  0  0
 16 15  2  0  0  0  0
 19 25  1  0  0  0  0
 20 19  2  0  0  0  0
 21 22  2  0  0  0  0
 21 20  1  0  0  0  0
 22 26  1  0  0  0  0
 23 22  1  0  0  0  0
 24 21  1  0  0  0  0
 25 18  1  0  0  0  0
 26 25  2  0  0  0  0
 27 20  1  0  0  0  0
 27 28  1  0  0  0  0
 28 29  2  0  0  0  0
 28 31  1  0  0  0  0
 31 32  1  6  0  0  0
 31 30  1  0  0  0  0
M  END
>  <MODEL>
3

>  <REMARK>
 VINA RESULT:      -9.7      6.032     10.163
  Name = 
  7 active torsions:
  status: ('A' for Active; 'I' for Inactive)
    1  A    between atoms: C_1  and  C_17
    2  A    between atoms: C_7  and  C_12
    3  A    between atoms: C_7  and  C_18
    4  A    between atoms: C_10  and  C_12
    5  A    between atoms: O_13  and  C_25
    6  A    between atoms: O_13  and  C_31
    7  A    between atoms: C_14  and  C_23
                            x       y       z     vdW  Elec       q    Type
                         _______ _______ _______ _____ _____    ______ ____

>  <TORSDO>
F 7

$$$$
=
 OpenBabel11062414133D

 32 35  0  0  1  0  0  0  0  0999 V2000
  185.6730  178.8030  145.1720 C   0  0  2  0  0  3  0  0  0  0  0  0
  184.3150  178.8380  145.7150 N   0  0  0  0  0  2  0  0  0  0  0  0
  185.5760  178.6950  143.6600 C   0  0  0  0  0  2  0  0  0  0  0  0
  184.1310  178.3850  143.3790 C   0  0  1  0  0  3  0  0  0  0  0  0
  183.4070  178.9330  144.5800 C   0  0  0  0  0  2  0  0  0  0  0  0
  188.6260  176.2640  142.9220 C   0  0  0  0  0  3  0  0  0  0  0  0
  187.5470  177.1850  144.8630 C   0  0  0  0  0  0  0  0  0  0  0  0
  187.4470  176.6240  143.5870 C   0  0  0  0  0  3  0  0  0  0  0  0
  188.5470  177.9170  146.8260 C   0  0  0  0  0  3  0  0  0  0  0  0
  187.0910  178.0050  147.0200 N   0  0  0  0  0  0  0  0  0  0  0  0
  189.9580  177.0100  144.8330 C   0  0  0  0  0  0  0  0  0  0  0  0
  189.8730  176.4580  143.5390 C   0  0  0  0  0  3  0  0  0  0  0  0
  186.4430  177.6120  145.7570 C   0  0  1  0  0  3  0  0  0  0  0  0
  188.7540  177.3580  145.4730 C   0  0  0  0  0  0  0  0  0  0  0  0
  191.2810  177.1930  145.4640 C   0  0  0  0  0  0  0  0  0  0  0  0
  192.0430  178.1210  145.0810 O   0  0  0  0  0  0  0  0  0  0  0  0
  191.7070  176.3560  146.4890 O   0  0  0  0  0  1  0  0  0  0  0  0
  183.6960  179.0570  142.2020 O   0  0  0  0  0  0  0  0  0  0  0  0
  184.8690  178.8090  140.0680 C   0  0  0  0  0  3  0  0  0  0  0  0
  184.9480  178.2360  138.7950 C   0  0  0  0  0  0  0  0  0  0  0  0
  183.9540  177.3390  138.3710 C   0  0  0  0  0  0  0  0  0  0  0  0
  182.8840  177.0350  139.2180 C   0  0  0  0  0  0  0  0  0  0  0  0
  181.9190  176.1720  138.8150 F   0  0  0  0  0  0  0  0  0  0  0  0
  184.0250  176.7650  137.1430 F   0  0  0  0  0  0  0  0  0  0  0  0
  183.7970  178.5010  140.9220 C   0  0  0  0  0  0  0  0  0  0  0  0
  182.8080  177.6140  140.4880 C   0  0  0  0  0  3  0  0  0  0  0  0
  186.1070  178.5650  137.9110 C   0  0  0  0  0  2  0  0  0  0  0  0
  187.2710  177.6790  138.2160 C   0  0  0  0  0  0  0  0  0  0  0  0
  187.3180  176.5550  137.7390 O   0  0  0  0  0  0  0  0  0  0  0  0
  188.9970  179.2860  138.4540 O   0  0  0  0  0  1  0  0  0  0  0  0
  188.3910  178.1890  139.0670 C   0  0  2  0  0  3  0  0  0  0  0  0
  189.4210  177.1010  139.3020 C   0  0  0  0  0  1  0  0  0  0  0  0
  1  3  1  6  0  0  0
  1  2  1  0  0  0  0
  1 13  1  0  0  0  0
  4 18  1  6  0  0  0
  4  3  1  0  0  0  0
  4  5  1  0  0  0  0
  5  2  1  0  0  0  0
  6 12  2  0  0  0  0
  6  8  1  0  0  0  0
  7 14  1  0  0  0  0
  8  7  2  0  0  0  0
  9 10  2  0  0  0  0
 11 15  1  0  0  0  0
 11 14  2  0  0  0  0
 12 11  1  0  0  0  0
 13  7  1  6  0  0  0
 13 10  1  0  0  0  0
 14  9  1  0  0  0  0
 15 17  1  0  0  0  0
 16 15  2  0  0  0  0
 19 25  1  0  0  0  0
 20 19  2  0  0  0  0
 21 20  1  0  0  0  0
 21 22  2  0  0  0  0
 22 26  1  0  0  0  0
 23 22  1  0  0  0  0
 24 21  1  0  0  0  0
 25 18  1  0  0  0  0
 26 25  2  0  0  0  0
 27 28  1  0  0  0  0
 27 20  1  0  0  0  0
 28 31  1  0  0  0  0
 29 28  2  0  0  0  0
 30 31  1  0  0  0  0
 31 32  1  6  0  0  0
M  END
>  <MODEL>
4

>  <REMARK>
 VINA RESULT:      -9.6      3.169      5.445
  Name = 
  7 active torsions:
  status: ('A' for Active; 'I' for Inactive)
    1  A    between atoms: C_1  and  C_17
    2  A    between atoms: C_7  and  C_12
    3  A    between atoms: C_7  and  C_18
    4  A    between atoms: C_10  and  C_12
    5  A    between atoms: O_13  and  C_25
    6  A    between atoms: O_13  and  C_31
    7  A    between atoms: C_14  and  C_23
                            x       y       z     vdW  Elec       q    Type
                         _______ _______ _______ _____ _____    ______ ____

>  <TORSDO>
F 7

$$$$
=
 OpenBabel11062414133D

 32 35  0  0  1  0  0  0  0  0999 V2000
  190.2520  176.9990  144.5000 C   0  0  2  0  0  3  0  0  0  0  0  0
  190.1790  178.4600  144.4770 N   0  0  0  0  0  2  0  0  0  0  0  0
  190.7440  176.5280  143.1420 C   0  0  0  0  0  2  0  0  0  0  0  0
  190.6800  177.7430  142.2570 C   0  0  1  0  0  3  0  0  0  0  0  0
  190.7750  178.8950  143.2220 C   0  0  0  0  0  2  0  0  0  0  0  0
  187.5570  178.3460  147.8390 C   0  0  0  0  0  3  0  0  0  0  0  0
  188.1200  177.2630  145.7680 C   0  0  0  0  0  0  0  0  0  0  0  0
  188.4250  177.5280  147.1050 C   0  0  0  0  0  3  0  0  0  0  0  0
  186.9060  177.2730  143.7890 C   0  0  0  0  0  3  0  0  0  0  0  0
  188.0510  176.3710  143.5930 N   0  0  0  0  0  0  0  0  0  0  0  0
  186.1000  178.5870  145.8890 C   0  0  0  0  0  0  0  0  0  0  0  0
  186.4040  178.8750  147.2340 C   0  0  0  0  0  3  0  0  0  0  0  0
  188.8710  176.4100  144.8160 C   0  0  1  0  0  3  0  0  0  0  0  0
  186.9920  177.7590  145.1820 C   0  0  0  0  0  0  0  0  0  0  0  0
  184.8760  179.1470  145.2800 C   0  0  0  0  0  0  0  0  0  0  0  0
  183.7600  178.9970  145.8470 O   0  0  0  0  0  1  0  0  0  0  0  0
  184.9300  179.8480  144.0800 O   0  0  0  0  0  0  0  0  0  0  0  0
  191.7860  177.7670  141.3610 O   0  0  0  0  0  0  0  0  0  0  0  0
  190.4990  177.2790  139.3370 C   0  0  0  0  0  3  0  0  0  0  0  0
  190.4550  176.8160  138.0190 C   0  0  0  0  0  0  0  0  0  0  0  0
  191.6340  176.3810  137.3920 C   0  0  0  0  0  0  0  0  0  0  0  0
  192.8430  176.4020  138.0950 C   0  0  0  0  0  0  0  0  0  0  0  0
  193.9860  175.9820  137.4990 F   0  0  0  0  0  0  0  0  0  0  0  0
  191.6090  175.9410  136.1090 F   0  0  0  0  0  0  0  0  0  0  0  0
  191.7130  177.3040  140.0420 C   0  0  0  0  0  0  0  0  0  0  0  0
  192.8800  176.8630  139.4150 C   0  0  0  0  0  3  0  0  0  0  0  0
  189.1540  176.8140  137.2820 C   0  0  0  0  0  2  0  0  0  0  0  0
  188.5020  178.1550  137.3630 C   0  0  0  0  0  0  0  0  0  0  0  0
  189.1490  179.1600  137.1110 O   0  0  0  0  0  0  0  0  0  0  0  0
  186.8990  178.4610  139.0830 O   0  0  0  0  0  1  0  0  0  0  0  0
  187.0490  178.2560  137.7110 C   0  0  2  0  0  3  0  0  0  0  0  0
  186.3120  176.9970  137.2960 C   0  0  0  0  0  1  0  0  0  0  0  0
  1  3  1  6  0  0  0
  1 13  1  0  0  0  0
  2  1  1  0  0  0  0
  4 18  1  6  0  0  0
  4  3  1  0  0  0  0
  4  5  1  0  0  0  0
  5  2  1  0  0  0  0
  7  8  1  0  0  0  0
  8  6  2  0  0  0  0
  9 14  1  0  0  0  0
 10  9  2  0  0  0  0
 11 12  2  0  0  0  0
 12  6  1  0  0  0  0
 13 10  1  6  0  0  0
 13  7  1  0  0  0  0
 14  7  2  0  0  0  0
 14 11  1  0  0  0  0
 15 16  1  0  0  0  0
 15 11  1  0  0  0  0
 17 15  2  0  0  0  0
 19 25  1  0  0  0  0
 20 19  2  0  0  0  0
 21 20  1  0  0  0  0
 21 22  2  0  0  0  0
 22 26  1  0  0  0  0
 23 22  1  0  0  0  0
 24 21  1  0  0  0  0
 25 18  1  0  0  0  0
 26 25  2  0  0  0  0
 27 28  1  0  0  0  0
 27 20  1  0  0  0  0
 28 31  1  0  0  0  0
 29 28  2  0  0  0  0
 31 32  1  1  0  0  0
 31 30  1  0  0  0  0
M  END
>  <MODEL>
5

>  <REMARK>
 VINA RESULT:      -9.3      5.106      7.664
  Name = 
  7 active torsions:
  status: ('A' for Active; 'I' for Inactive)
    1  A    between atoms: C_1  and  C_17
    2  A    between atoms: C_7  and  C_12
    3  A    between atoms: C_7  and  C_18
    4  A    between atoms: C_10  and  C_12
    5  A    between atoms: O_13  and  C_25
    6  A    between atoms: O_13  and  C_31
    7  A    between atoms: C_14  and  C_23
                            x       y       z     vdW  Elec       q    Type
                         _______ _______ _______ _____ _____    ______ ____

>  <TORSDO>
F 7

$$$$
=
 OpenBabel11062414133D

 32 35  0  0  1  0  0  0  0  0999 V2000
  189.2260  177.2000  141.4720 C   0  0  2  0  0  3  0  0  0  0  0  0
  190.5530  176.6910  141.1270 N   0  0  0  0  0  2  0  0  0  0  0  0
  188.6050  177.7930  140.2190 C   0  0  0  0  0  2  0  0  0  0  0  0
  189.7270  177.8590  139.2170 C   0  0  1  0  0  3  0  0  0  0  0  0
  190.6840  176.7930  139.6800 C   0  0  0  0  0  2  0  0  0  0  0  0
  186.4820  177.5580  145.0170 C   0  0  0  0  0  3  0  0  0  0  0  0
  188.4870  177.9220  143.7430 C   0  0  0  0  0  0  0  0  0  0  0  0
  187.0920  177.8710  143.7970 C   0  0  0  0  0  3  0  0  0  0  0  0
  190.6790  177.8750  144.5070 C   0  0  0  0  0  3  0  0  0  0  0  0
  190.7180  178.2930  143.0970 N   0  0  0  0  0  0  0  0  0  0  0  0
  188.6720  177.3830  146.0920 C   0  0  0  0  0  0  0  0  0  0  0  0
  187.2660  177.3120  146.1570 C   0  0  0  0  0  3  0  0  0  0  0  0
  189.3410  178.2580  142.5770 C   0  0  1  0  0  3  0  0  0  0  0  0
  189.2520  177.7030  144.8510 C   0  0  0  0  0  0  0  0  0  0  0  0
  189.4730  177.1310  147.3080 C   0  0  0  0  0  0  0  0  0  0  0  0
  190.3240  176.2010  147.3250 O   0  0  0  0  0  0  0  0  0  0  0  0
  189.3090  177.9110  148.4470 O   0  0  0  0  0  1  0  0  0  0  0  0
  189.2500  177.5500  137.9120 O   0  0  0  0  0  0  0  0  0  0  0  0
  186.8100  177.6820  137.7710 C   0  0  0  0  0  3  0  0  0  0  0  0
  185.5810  177.0630  137.5220 C   0  0  0  0  0  0  0  0  0  0  0  0
  185.5440  175.7060  137.1630 C   0  0  0  0  0  0  0  0  0  0  0  0
  186.7350  174.9790  137.0690 C   0  0  0  0  0  0  0  0  0  0  0  0
  186.7070  173.6670  136.7260 F   0  0  0  0  0  0  0  0  0  0  0  0
  184.3590  175.0950  136.9060 F   0  0  0  0  0  0  0  0  0  0  0  0
  188.0060  176.9540  137.6730 C   0  0  0  0  0  0  0  0  0  0  0  0
  187.9600  175.6030  137.3230 C   0  0  0  0  0  3  0  0  0  0  0  0
  184.3210  177.8630  137.6160 C   0  0  0  0  0  2  0  0  0  0  0  0
  183.8150  177.8830  139.0220 C   0  0  0  0  0  0  0  0  0  0  0  0
  183.2800  176.8880  139.4880 O   0  0  0  0  0  0  0  0  0  0  0  0
  184.5500  180.1360  139.0950 O   0  0  0  0  0  1  0  0  0  0  0  0
  184.0050  179.1070  139.8630 C   0  0  2  0  0  3  0  0  0  0  0  0
  184.9130  178.8090  141.0410 C   0  0  0  0  0  1  0  0  0  0  0  0
  1  3  1  6  0  0  0
  1 13  1  0  0  0  0
  2  1  1  0  0  0  0
  4 18  1  6  0  0  0
  4  5  1  0  0  0  0
  4  3  1  0  0  0  0
  5  2  1  0  0  0  0
  6 12  1  0  0  0  0
  7  8  1  0  0  0  0
  7 14  2  0  0  0  0
  8  6  2  0  0  0  0
  9 14  1  0  0  0  0
 10  9  2  0  0  0  0
 11 12  2  0  0  0  0
 11 15  1  0  0  0  0
 13 10  1  1  0  0  0
 13  7  1  0  0  0  0
 14 11  1  0  0  0  0
 15 16  2  0  0  0  0
 15 17  1  0  0  0  0
 20 27  1  0  0  0  0
 20 19  2  0  0  0  0
 21 20  1  0  0  0  0
 22 21  2  0  0  0  0
 22 26  1  0  0  0  0
 23 22  1  0  0  0  0
 24 21  1  0  0  0  0
 25 19  1  0  0  0  0
 25 18  1  0  0  0  0
 26 25  2  0  0  0  0
 27 28  1  0  0  0  0
 28 29  2  0  0  0  0
 28 31  1  0  0  0  0
 30 31  1  0  0  0  0
 31 32  1  1  0  0  0
M  END
>  <MODEL>
6

>  <REMARK>
 VINA RESULT:      -9.2      3.647      4.983
  Name = 
  7 active torsions:
  status: ('A' for Active; 'I' for Inactive)
    1  A    between atoms: C_1  and  C_17
    2  A    between atoms: C_7  and  C_12
    3  A    between atoms: C_7  and  C_18
    4  A    between atoms: C_10  and  C_12
    5  A    between atoms: O_13  and  C_25
    6  A    between atoms: O_13  and  C_31
    7  A    between atoms: C_14  and  C_23
                            x       y       z     vdW  Elec       q    Type
                         _______ _______ _______ _____ _____    ______ ____

>  <TORSDO>
F 7

$$$$
=
 OpenBabel11062414133D

 32 35  0  0  1  0  0  0  0  0999 V2000
  189.3680  177.7680  142.0520 C   0  0  2  0  0  3  0  0  0  0  0  0
  188.2390  178.4610  141.4300 N   0  0  0  0  0  2  0  0  0  0  0  0
  190.1460  177.0560  140.9590 C   0  0  0  0  0  2  0  0  0  0  0  0
  189.2690  177.1310  139.7380 C   0  0  1  0  0  3  0  0  0  0  0  0
  188.4090  178.3400  139.9890 C   0  0  0  0  0  2  0  0  0  0  0  0
  191.6790  176.3790  145.6510 C   0  0  0  0  0  3  0  0  0  0  0  0
  189.7250  176.7560  144.3040 C   0  0  0  0  0  0  0  0  0  0  0  0
  191.0520  176.3340  144.4000 C   0  0  0  0  0  3  0  0  0  0  0  0
  187.6430  177.5070  145.0080 C   0  0  0  0  0  3  0  0  0  0  0  0
  187.5280  177.1800  143.5780 N   0  0  0  0  0  0  0  0  0  0  0  0
  189.6290  177.2390  146.6710 C   0  0  0  0  0  0  0  0  0  0  0  0
  190.9740  176.8320  146.7790 C   0  0  0  0  0  3  0  0  0  0  0  0
  188.8590  176.7700  143.0990 C   0  0  1  0  0  3  0  0  0  0  0  0
  189.0300  177.1780  145.3990 C   0  0  0  0  0  0  0  0  0  0  0  0
  188.9060  177.7000  147.8750 C   0  0  0  0  0  0  0  0  0  0  0  0
  189.3810  178.6280  148.5820 O   0  0  0  0  0  1  0  0  0  0  0  0
  187.6950  177.1250  148.2460 O   0  0  0  0  0  0  0  0  0  0  0  0
  190.0570  177.3290  138.5690 O   0  0  0  0  0  0  0  0  0  0  0  0
  192.1390  176.3670  137.7130 C   0  0  0  0  0  3  0  0  0  0  0  0
  192.8100  175.3190  137.0770 C   0  0  0  0  0  0  0  0  0  0  0  0
  192.0960  174.1840  136.6600 C   0  0  0  0  0  0  0  0  0  0  0  0
  190.7150  174.1140  136.8730 C   0  0  0  0  0  0  0  0  0  0  0  0
  190.0180  173.0230  136.4720 F   0  0  0  0  0  0  0  0  0  0  0  0
  192.7360  173.1530  136.0530 F   0  0  0  0  0  0  0  0  0  0  0  0
  190.7530  176.2970  137.9310 C   0  0  0  0  0  0  0  0  0  0  0  0
  190.0490  175.1670  137.5060 C   0  0  0  0  0  3  0  0  0  0  0  0
  194.2880  175.4090  136.8700 C   0  0  0  0  0  2  0  0  0  0  0  0
  195.0160  174.7080  137.9700 C   0  0  0  0  0  0  0  0  0  0  0  0
  195.1330  175.2480  139.0600 O   0  0  0  0  0  0  0  0  0  0  0  0
  195.1850  172.4910  138.7920 O   0  0  0  0  0  1  0  0  0  0  0  0
  195.5610  173.3320  137.7440 C   0  0  2  0  0  3  0  0  0  0  0  0
  197.0730  173.3680  137.6320 C   0  0  0  0  0  1  0  0  0  0  0  0
  1  3  1  6  0  0  0
  1 13  1  0  0  0  0
  2  1  1  0  0  0  0
  4 18  1  6  0  0  0
  4  5  1  0  0  0  0
  4  3  1  0  0  0  0
  5  2  1  0  0  0  0
  6 12  1  0  0  0  0
  7  8  1  0  0  0  0
  7 14  2  0  0  0  0
  8  6  2  0  0  0  0
  9 14  1  0  0  0  0
 10  9  2  0  0  0  0
 11 12  2  0  0  0  0
 11 15  1  0  0  0  0
 13 10  1  1  0  0  0
 13  7  1  0  0  0  0
 14 11  1  0  0  0  0
 15 17  2  0  0  0  0
 15 16  1  0  0  0  0
 19 25  1  0  0  0  0
 20 19  2  0  0  0  0
 21 22  2  0  0  0  0
 21 20  1  0  0  0  0
 22 26  1  0  0  0  0
 23 22  1  0  0  0  0
 24 21  1  0  0  0  0
 25 18  1  0  0  0  0
 26 25  2  0  0  0  0
 27 20  1  0  0  0  0
 27 28  1  0  0  0  0
 28 29  2  0  0  0  0
 31 32  1  1  0  0  0
 31 28  1  0  0  0  0
 31 30  1  0  0  0  0
M  END
>  <MODEL>
7

>  <REMARK>
 VINA RESULT:      -9.1      5.979      9.728
  Name = 
  7 active torsions:
  status: ('A' for Active; 'I' for Inactive)
    1  A    between atoms: C_1  and  C_17
    2  A    between atoms: C_7  and  C_12
    3  A    between atoms: C_7  and  C_18
    4  A    between atoms: C_10  and  C_12
    5  A    between atoms: O_13  and  C_25
    6  A    between atoms: O_13  and  C_31
    7  A    between atoms: C_14  and  C_23
                            x       y       z     vdW  Elec       q    Type
                         _______ _______ _______ _____ _____    ______ ____

>  <TORSDO>
F 7

$$$$
=
 OpenBabel11062414133D

 32 35  0  0  1  0  0  0  0  0999 V2000
  185.8420  178.8060  140.9180 C   0  0  2  0  0  3  0  0  0  0  0  0
  186.4360  178.6270  139.5940 N   0  0  0  0  0  2  0  0  0  0  0  0
  186.9000  178.4840  141.9600 C   0  0  0  0  0  2  0  0  0  0  0  0
  188.0260  177.8450  141.1920 C   0  0  1  0  0  3  0  0  0  0  0  0
  187.8570  178.3820  139.7960 C   0  0  0  0  0  2  0  0  0  0  0  0
  183.1180  178.6990  144.4960 C   0  0  0  0  0  3  0  0  0  0  0  0
  183.7710  178.3050  142.2160 C   0  0  0  0  0  0  0  0  0  0  0  0
  184.0890  178.2840  143.5750 C   0  0  0  0  0  3  0  0  0  0  0  0
  182.4740  178.5610  140.3070 C   0  0  0  0  0  3  0  0  0  0  0  0
  183.7620  177.9890  139.8850 N   0  0  0  0  0  0  0  0  0  0  0  0
  181.5400  179.1160  142.6740 C   0  0  0  0  0  0  0  0  0  0  0  0
  181.8530  179.1160  144.0480 C   0  0  0  0  0  3  0  0  0  0  0  0
  184.6230  177.8880  141.0760 C   0  0  1  0  0  3  0  0  0  0  0  0
  182.5380  178.6900  141.7780 C   0  0  0  0  0  0  0  0  0  0  0  0
  180.1980  179.5490  142.2300 C   0  0  0  0  0  0  0  0  0  0  0  0
  180.0030  180.7410  141.8730 O   0  0  0  0  0  0  0  0  0  0  0  0
  179.1340  178.6540  142.1940 O   0  0  0  0  0  1  0  0  0  0  0  0
  189.2840  178.2530  141.7200 O   0  0  0  0  0  0  0  0  0  0  0  0
  189.3100  178.2330  144.1680 C   0  0  0  0  0  3  0  0  0  0  0  0
  189.8360  177.7370  145.3640 C   0  0  0  0  0  0  0  0  0  0  0  0
  190.8510  176.7670  145.3300 C   0  0  0  0  0  0  0  0  0  0  0  0
  191.3390  176.3140  144.1000 C   0  0  0  0  0  0  0  0  0  0  0  0
  192.3210  175.3790  144.0590 F   0  0  0  0  0  0  0  0  0  0  0  0
  191.3630  176.2670  146.4830 F   0  0  0  0  0  0  0  0  0  0  0  0
  189.7960  177.7760  142.9320 C   0  0  0  0  0  0  0  0  0  0  0  0
  190.8120  176.8170  142.9080 C   0  0  0  0  0  3  0  0  0  0  0  0
  189.2920  178.2260  146.6670 C   0  0  0  0  0  2  0  0  0  0  0  0
  188.2400  177.2980  147.1800 C   0  0  0  0  0  0  0  0  0  0  0  0
  188.5520  176.3780  147.9200 O   0  0  0  0  0  0  0  0  0  0  0  0
  186.5720  177.1200  145.5050 O   0  0  0  0  0  1  0  0  0  0  0  0
  186.8050  177.5270  146.8190 C   0  0  2  0  0  3  0  0  0  0  0  0
  186.4420  178.9920  146.9740 C   0  0  0  0  0  1  0  0  0  0  0  0
  1 13  1  0  0  0  0
  1  3  1  1  0  0  0
  2  5  1  0  0  0  0
  2  1  1  0  0  0  0
  4 18  1  1  0  0  0
  4  3  1  0  0  0  0
  5  4  1  0  0  0  0
  7  8  1  0  0  0  0
  8  6  2  0  0  0  0
  9 14  1  0  0  0  0
 10  9  2  0  0  0  0
 11 12  2  0  0  0  0
 12  6  1  0  0  0  0
 13 10  1  6  0  0  0
 13  7  1  0  0  0  0
 14  7  2  0  0  0  0
 14 11  1  0  0  0  0
 15 11  1  0  0  0  0
 16 15  2  0  0  0  0
 17 15  1  0  0  0  0
 18 25  1  0  0  0  0
 19 20  1  0  0  0  0
 20 27  1  0  0  0  0
 21 20  2  0  0  0  0
 21 24  1  0  0  0  0
 22 21  1  0  0  0  0
 23 22  1  0  0  0  0
 25 19  2  0  0  0  0
 26 25  1  0  0  0  0
 26 22  2  0  0  0  0
 27 28  1  0  0  0  0
 28 29  2  0  0  0  0
 30 31  1  0  0  0  0
 31 32  1  6  0  0  0
 31 28  1  0  0  0  0
M  END
>  <MODEL>
8

>  <REMARK>
 VINA RESULT:      -9.0      3.187      8.663
  Name = 
  7 active torsions:
  status: ('A' for Active; 'I' for Inactive)
    1  A    between atoms: C_1  and  C_17
    2  A    between atoms: C_7  and  C_12
    3  A    between atoms: C_7  and  C_18
    4  A    between atoms: C_10  and  C_12
    5  A    between atoms: O_13  and  C_25
    6  A    between atoms: O_13  and  C_31
    7  A    between atoms: C_14  and  C_23
                            x       y       z     vdW  Elec       q    Type
                         _______ _______ _______ _____ _____    ______ ____

>  <TORSDO>
F 7

$$$$
=
 OpenBabel11062414133D

 32 35  0  0  1  0  0  0  0  0999 V2000
  185.6400  178.8130  145.4380 C   0  0  2  0  0  3  0  0  0  0  0  0
  184.3500  178.8670  146.1260 N   0  0  0  0  0  2  0  0  0  0  0  0
  185.3780  178.7360  143.9440 C   0  0  0  0  0  2  0  0  0  0  0  0
  183.9030  178.4650  143.8160 C   0  0  1  0  0  3  0  0  0  0  0  0
  183.3280  179.0050  145.0980 C   0  0  0  0  0  2  0  0  0  0  0  0
  188.5780  176.4950  142.9430 C   0  0  0  0  0  3  0  0  0  0  0  0
  187.5290  177.2510  144.9690 C   0  0  0  0  0  0  0  0  0  0  0  0
  187.4090  176.7870  143.6570 C   0  0  0  0  0  3  0  0  0  0  0  0
  188.5620  177.8490  146.9610 C   0  0  0  0  0  3  0  0  0  0  0  0
  187.1100  177.9000  147.1910 N   0  0  0  0  0  0  0  0  0  0  0  0
  189.9410  177.1170  144.8770 C   0  0  0  0  0  0  0  0  0  0  0  0
  189.8360  176.6620  143.5470 C   0  0  0  0  0  3  0  0  0  0  0  0
  186.4390  177.5930  145.9160 C   0  0  1  0  0  3  0  0  0  0  0  0
  188.7460  177.3970  145.5660 C   0  0  0  0  0  0  0  0  0  0  0  0
  191.2750  177.2730  145.4920 C   0  0  0  0  0  0  0  0  0  0  0  0
  192.0560  178.1780  145.0920 O   0  0  0  0  0  0  0  0  0  0  0  0
  191.6910  176.4340  146.5200 O   0  0  0  0  0  1  0  0  0  0  0  0
  183.3600  179.1690  142.7050 O   0  0  0  0  0  0  0  0  0  0  0  0
  183.3740  177.7790  140.6900 C   0  0  0  0  0  3  0  0  0  0  0  0
  182.6770  177.1550  139.6510 C   0  0  0  0  0  0  0  0  0  0  0  0
  181.2810  177.2800  139.5750 C   0  0  0  0  0  0  0  0  0  0  0  0
  180.5960  178.0390  140.5300 C   0  0  0  0  0  0  0  0  0  0  0  0
  179.2480  178.1660  140.4620 F   0  0  0  0  0  0  0  0  0  0  0  0
  180.5890  176.6690  138.5790 F   0  0  0  0  0  0  0  0  0  0  0  0
  182.6880  178.5380  141.6530 C   0  0  0  0  0  0  0  0  0  0  0  0
  181.3000  178.6640  141.5640 C   0  0  0  0  0  3  0  0  0  0  0  0
  183.4270  176.3390  138.6480 C   0  0  0  0  0  2  0  0  0  0  0  0
  184.0400  177.2180  137.6080 C   0  0  0  0  0  0  0  0  0  0  0  0
  183.3290  177.7500  136.7680 O   0  0  0  0  0  0  0  0  0  0  0  0
  185.7790  178.6940  138.2540 O   0  0  0  0  0  1  0  0  0  0  0  0
  185.5150  177.4760  137.6260 C   0  0  2  0  0  3  0  0  0  0  0  0
  186.0710  177.4950  136.2160 C   0  0  0  0  0  1  0  0  0  0  0  0
  1  3  1  6  0  0  0
  1 13  1  0  0  0  0
  1  2  1  0  0  0  0
  4 18  1  6  0  0  0
  4  3  1  0  0  0  0
  4  5  1  0  0  0  0
  5  2  1  0  0  0  0
  6 12  2  0  0  0  0
  6  8  1  0  0  0  0
  7 14  1  0  0  0  0
  8  7  2  0  0  0  0
  9 10  2  0  0  0  0
 11 15  1  0  0  0  0
 11 14  2  0  0  0  0
 12 11  1  0  0  0  0
 13  7  1  6  0  0  0
 13 10  1  0  0  0  0
 14  9  1  0  0  0  0
 15 17  1  0  0  0  0
 16 15  2  0  0  0  0
 19 25  1  0  0  0  0
 20 19  2  0  0  0  0
 21 20  1  0  0  0  0
 21 22  2  0  0  0  0
 22 26  1  0  0  0  0
 23 22  1  0  0  0  0
 24 21  1  0  0  0  0
 25 18  1  0  0  0  0
 26 25  2  0  0  0  0
 27 20  1  0  0  0  0
 28 31  1  0  0  0  0
 28 27  1  0  0  0  0
 29 28  2  0  0  0  0
 31 32  1  6  0  0  0
 31 30  1  0  0  0  0
M  END
>  <MODEL>
9

>  <REMARK>
 VINA RESULT:      -9.0      3.035      4.585
  Name = 
  7 active torsions:
  status: ('A' for Active; 'I' for Inactive)
    1  A    between atoms: C_1  and  C_17
    2  A    between atoms: C_7  and  C_12
    3  A    between atoms: C_7  and  C_18
    4  A    between atoms: C_10  and  C_12
    5  A    between atoms: O_13  and  C_25
    6  A    between atoms: O_13  and  C_31
    7  A    between atoms: C_14  and  C_23
                            x       y       z     vdW  Elec       q    Type
                         _______ _______ _______ _____ _____    ______ ____

>  <TORSDO>
F 7

$$$$
