=
 OpenBabel11062414553D

 51 56  0  0  1  0  0  0  0  0999 V2000
  184.7130  175.0500  136.4700 C   0  0  1  0  0  3  0  0  0  0  0  0
  181.4270  179.3440  137.7220 C   0  0  0  0  0  2  0  0  0  0  0  0
  181.4790  178.1420  139.9980 C   0  0  2  0  0  3  0  0  0  0  0  0
  184.0720  173.6960  136.7320 C   0  0  0  0  0  2  0  0  0  0  0  0
  182.1940  178.0830  137.2840 C   0  0  1  0  0  3  0  0  0  0  0  0
  180.9390  179.3350  139.1930 C   0  0  1  0  0  3  0  0  0  0  0  0
  184.2310  175.9600  137.4120 O   0  0  0  0  0  0  0  0  0  0  0  0
  180.9060  173.4170  138.1000 C   0  0  0  0  0  1  0  0  0  0  0  0
  186.2440  175.0070  136.5780 C   0  0  0  0  0  2  0  0  0  0  0  0
  182.6410  173.7470  136.4290 N   0  0  0  0  0  2  0  0  0  0  0  0
  184.5070  177.2170  136.8780 C   0  0  1  0  0  3  0  0  0  0  0  0
  181.2470  175.6470  137.0740 C   0  0  0  0  0  2  0  0  0  0  0  0
  183.6810  178.2570  137.6160 C   0  0  0  0  0  2  0  0  0  0  0  0
  181.6000  176.8410  137.9220 C   0  0  0  0  0  0  0  0  0  0  0  0
  181.9400  174.3750  137.5480 C   0  0  1  0  0  3  0  0  0  0  0  0
  186.8120  176.4150  136.7250 C   0  0  0  0  0  0  0  0  0  0  0  0
  181.2630  176.8730  139.2170 C   0  0  0  0  0  3  0  0  0  0  0  0
  185.9910  177.4530  136.9570 C   0  0  0  0  0  3  0  0  0  0  0  0
  180.8970  178.0980  141.4160 C   0  0  2  0  0  3  0  0  0  0  0  0
  179.5340  178.3980  141.4010 O   0  0  0  0  0  1  0  0  0  0  0  0
  181.6460  178.9670  142.4270 C   0  0  0  0  0  2  0  0  0  0  0  0
  183.0450  178.7130  142.3520 O   0  0  0  0  0  0  0  0  0  0  0  0
  185.4550  178.4430  145.8000 C   0  0  0  0  0  0  0  0  0  0  0  0
  183.3330  178.8940  144.7180 C   0  0  0  0  0  3  0  0  0  0  0  0
  186.0220  178.1780  144.5510 C   0  0  0  0  0  3  0  0  0  0  0  0
  185.2570  178.2610  143.3800 C   0  0  0  0  0  0  0  0  0  0  0  0
  184.1060  178.8130  145.8760 C   0  0  0  0  0  3  0  0  0  0  0  0
  183.8850  178.6040  143.4640 C   0  0  0  0  0  0  0  0  0  0  0  0
  186.2590  178.3520  146.9450 O   0  0  0  0  0  0  0  0  0  0  0  0
  188.0650  177.1130  147.9600 C   0  0  0  0  0  1  0  0  0  0  0  0
  187.6590  178.1140  146.8970 C   0  0  0  0  0  2  0  0  0  0  0  0
  185.9610  178.0590  142.0800 C   0  0  0  0  0  2  0  0  0  0  0  0
  187.4330  178.4040  142.2120 C   0  0  0  0  0  2  0  0  0  0  0  0
  188.2620  177.1580  141.9810 C   0  0  0  0  0  2  0  0  0  0  0  0
  190.1120  176.3000  143.1390 C   0  0  0  0  0  2  0  0  0  0  0  0
  189.6520  177.4190  142.3220 N   0  0  0  0  0  0  0  0  0  0  0  0
  190.2500  176.7690  144.5640 C   0  0  0  0  0  2  0  0  0  0  0  0
  189.6600  178.6000  143.1770 C   0  0  0  0  0  2  0  0  0  0  0  0
  190.3870  178.2640  144.4490 C   0  0  0  0  0  2  0  0  0  0  0  0
  180.1640  181.3520  139.6980 C   0  0  0  0  0  1  0  0  0  0  0  0
  181.2940  180.5410  139.8160 O   0  0  0  0  0  0  0  0  0  0  0  0
  188.2250  176.6060  136.8440 N   0  0  0  0  0  2  0  0  0  0  0  0
  188.8870  176.7260  138.0790 N   0  0  0  0  0  2  0  0  0  0  0  0
  190.5020  175.9940  139.5800 O   0  0  0  0  0  0  0  0  0  0  0  0
  190.8840  175.4560  137.3340 N   0  0  0  0  0  2  0  0  0  0  0  0
  190.1090  176.0480  138.3830 C   0  0  0  0  0  0  0  0  0  0  0  0
  194.1320  173.8470  136.0990 C   0  0  0  0  0  2  0  0  0  0  0  0
  192.3680  173.4420  136.3040 S   0  0  0  0  0  0  0  0  0  0  0  0
  192.1500  174.7670  137.5240 C   0  0  1  0  0  3  0  0  0  0  0  0
  194.5220  174.8610  137.1460 C   0  0  0  0  0  2  0  0  0  0  0  0
  193.3150  175.7160  137.4160 C   0  0  0  0  0  2  0  0  0  0  0  0
  1  9  1  1  0  0  0
  1  4  1  0  0  0  0
  1  7  1  0  0  0  0
  2  6  1  0  0  0  0
  3 19  1  1  0  0  0
  5 13  1  1  0  0  0
  5  2  1  0  0  0  0
  5 14  1  0  0  0  0
  6 41  1  1  0  0  0
  6  3  1  0  0  0  0
  9 16  1  0  0  0  0
 10  4  1  0  0  0  0
 10 15  1  0  0  0  0
 11 18  1  1  0  0  0
 11  7  1  0  0  0  0
 11 13  1  0  0  0  0
 12 15  1  0  0  0  0
 12 14  1  0  0  0  0
 14 17  2  0  0  0  0
 15  8  1  6  0  0  0
 16 42  1  0  0  0  0
 16 18  2  0  0  0  0
 17  3  1  0  0  0  0
 19 20  1  6  0  0  0
 19 21  1  0  0  0  0
 22 21  1  0  0  0  0
 22 28  1  0  0  0  0
 23 27  1  0  0  0  0
 23 29  1  0  0  0  0
 24 27  2  0  0  0  0
 25 23  2  0  0  0  0
 26 28  2  0  0  0  0
 26 25  1  0  0  0  0
 28 24  1  0  0  0  0
 31 29  1  0  0  0  0
 31 30  1  0  0  0  0
 32 33  1  0  0  0  0
 32 26  1  0  0  0  0
 34 33  1  0  0  0  0
 34 36  1  0  0  0  0
 35 37  1  0  0  0  0
 36 35  1  0  0  0  0
 36 38  1  0  0  0  0
 38 39  1  0  0  0  0
 39 37  1  0  0  0  0
 40 41  1  0  0  0  0
 42 43  1  0  0  0  0
 43 46  1  0  0  0  0
 45 46  1  0  0  0  0
 46 44  2  0  0  0  0
 47 48  1  0  0  0  0
 47 50  1  0  0  0  0
 48 49  1  0  0  0  0
 49 45  1  6  0  0  0
 50 51  1  0  0  0  0
 51 49  1  0  0  0  0
M  END
>  <MODEL>
1

>  <REMARK>
 VINA RESULT:      -7.8      0.000      0.000
  Name = 
  14 active torsions:
  status: ('A' for Active; 'I' for Inactive)
    1  A    between atoms: C_4  and  O_9
    2  A    between atoms: C_4  and  C_20
    3  A    between atoms: C_5  and  C_20
    4  A    between atoms: C_8  and  O_28
    5  A    between atoms: O_9  and  C_51
    6  A    between atoms: N_10  and  C_35
    7  A    between atoms: C_12  and  O_25
    8  A    between atoms: N_14  and  N_29
    9  A    between atoms: N_14  and  C_37
   10  A    between atoms: C_16  and  C_35
   11  A    between atoms: C_16  and  C_42
   12  A    between atoms: C_27  and  N_43
   13  A    between atoms: O_28  and  C_45
   14  A    between atoms: C_41  and  C_42
                            x       y       z     vdW  Elec       q    Type
                         _______ _______ _______ _____ _____    ______ ____

>  <TORSDO>
F 14

$$$$
=
 OpenBabel11062414553D

 51 56  0  0  1  0  0  0  0  0999 V2000
  182.8580  173.3880  136.0220 C   0  0  1  0  0  3  0  0  0  0  0  0
  181.9140  178.7040  137.3090 C   0  0  0  0  0  2  0  0  0  0  0  0
  182.4310  177.7620  139.6480 C   0  0  2  0  0  3  0  0  0  0  0  0
  181.9580  172.4120  136.7650 C   0  0  0  0  0  2  0  0  0  0  0  0
  181.9940  177.2130  136.9300 C   0  0  1  0  0  3  0  0  0  0  0  0
  182.0520  179.0020  138.8230 C   0  0  1  0  0  3  0  0  0  0  0  0
  183.1020  174.4860  136.8490 O   0  0  0  0  0  0  0  0  0  0  0  0
  179.6540  173.4900  139.1110 C   0  0  0  0  0  1  0  0  0  0  0  0
  184.2070  172.7650  135.6350 C   0  0  0  0  0  2  0  0  0  0  0  0
  180.6240  172.9880  136.9390 N   0  0  0  0  0  2  0  0  0  0  0  0
  183.5510  175.4920  135.9950 C   0  0  1  0  0  3  0  0  0  0  0  0
  180.2930  175.3250  137.5720 C   0  0  0  0  0  2  0  0  0  0  0  0
  183.4620  176.8250  136.7170 C   0  0  0  0  0  2  0  0  0  0  0  0
  181.3150  176.3530  137.9790 C   0  0  0  0  0  0  0  0  0  0  0  0
  180.6530  173.9260  138.0600 C   0  0  1  0  0  3  0  0  0  0  0  0
  185.2190  173.8510  135.2810 C   0  0  0  0  0  0  0  0  0  0  0  0
  181.5280  176.6170  139.2750 C   0  0  0  0  0  3  0  0  0  0  0  0
  184.9400  175.1410  135.5350 C   0  0  0  0  0  3  0  0  0  0  0  0
  182.4550  178.0610  141.1520 C   0  0  2  0  0  3  0  0  0  0  0  0
  181.6880  179.1900  141.4450 O   0  0  0  0  0  1  0  0  0  0  0  0
  183.8600  178.1750  141.7450 C   0  0  0  0  0  2  0  0  0  0  0  0
  183.8240  178.9300  142.9520 O   0  0  0  0  0  0  0  0  0  0  0  0
  186.0330  178.1290  146.4520 C   0  0  0  0  0  0  0  0  0  0  0  0
  184.0220  178.8920  145.3340 C   0  0  0  0  0  3  0  0  0  0  0  0
  186.6250  177.9020  145.2070 C   0  0  0  0  0  3  0  0  0  0  0  0
  185.9270  178.1600  144.0190 C   0  0  0  0  0  0  0  0  0  0  0  0
  184.7280  178.6370  146.5090 C   0  0  0  0  0  3  0  0  0  0  0  0
  184.5960  178.6430  144.0820 C   0  0  0  0  0  0  0  0  0  0  0  0
  186.7700  177.8610  147.6140 O   0  0  0  0  0  0  0  0  0  0  0  0
  189.0650  178.2490  148.2560 C   0  0  0  0  0  1  0  0  0  0  0  0
  188.0780  177.3060  147.5970 C   0  0  0  0  0  2  0  0  0  0  0  0
  186.6650  177.9850  142.7340 C   0  0  0  0  0  2  0  0  0  0  0  0
  188.1540  177.8440  142.9900 C   0  0  0  0  0  2  0  0  0  0  0  0
  188.5860  176.4300  142.6560 C   0  0  0  0  0  2  0  0  0  0  0  0
  190.0480  176.8020  144.4510 C   0  0  0  0  0  2  0  0  0  0  0  0
  189.9450  176.2060  143.1230 N   0  0  0  0  0  0  0  0  0  0  0  0
  190.8780  178.0560  144.3530 C   0  0  0  0  0  2  0  0  0  0  0  0
  190.8220  176.9710  142.2450 C   0  0  0  0  0  2  0  0  0  0  0  0
  191.6780  177.8720  143.0920 C   0  0  0  0  0  2  0  0  0  0  0  0
  182.3110  181.2040  138.7210 C   0  0  0  0  0  1  0  0  0  0  0  0
  182.9940  180.0230  139.0200 O   0  0  0  0  0  0  0  0  0  0  0  0
  186.5470  173.4900  134.8920 N   0  0  0  0  0  2  0  0  0  0  0  0
  187.5300  173.0620  135.8020 N   0  0  0  0  0  2  0  0  0  0  0  0
  189.4610  173.4750  137.0260 O   0  0  0  0  0  0  0  0  0  0  0  0
  188.2240  175.3650  136.4110 N   0  0  0  0  0  2  0  0  0  0  0  0
  188.4540  173.9520  136.4340 C   0  0  0  0  0  0  0  0  0  0  0  0
  189.0620  178.9000  137.6230 C   0  0  0  0  0  2  0  0  0  0  0  0
  189.0990  177.9060  136.0980 S   0  0  0  0  0  0  0  0  0  0  0  0
  189.0800  176.3570  137.0410 C   0  0  1  0  0  3  0  0  0  0  0  0
  189.2480  177.9800  138.8060 C   0  0  0  0  0  2  0  0  0  0  0  0
  188.6320  176.6570  138.4480 C   0  0  0  0  0  2  0  0  0  0  0  0
  1  9  1  1  0  0  0
  1  4  1  0  0  0  0
  1  7  1  0  0  0  0
  2  6  1  0  0  0  0
  3 19  1  1  0  0  0
  4 10  1  0  0  0  0
  5 13  1  1  0  0  0
  5  2  1  0  0  0  0
  5 14  1  0  0  0  0
  6 41  1  6  0  0  0
  6  3  1  0  0  0  0
 10 15  1  0  0  0  0
 11 18  1  1  0  0  0
 11 13  1  0  0  0  0
 11  7  1  0  0  0  0
 12 14  1  0  0  0  0
 12 15  1  0  0  0  0
 14 17  2  0  0  0  0
 15  8  1  1  0  0  0
 16 18  2  0  0  0  0
 16  9  1  0  0  0  0
 17  3  1  0  0  0  0
 19 20  1  6  0  0  0
 19 21  1  0  0  0  0
 21 22  1  0  0  0  0
 22 28  1  0  0  0  0
 23 27  1  0  0  0  0
 23 29  1  0  0  0  0
 24 27  2  0  0  0  0
 25 23  2  0  0  0  0
 26 28  2  0  0  0  0
 26 25  1  0  0  0  0
 28 24  1  0  0  0  0
 31 29  1  0  0  0  0
 31 30  1  0  0  0  0
 32 33  1  0  0  0  0
 32 26  1  0  0  0  0
 34 33  1  0  0  0  0
 34 36  1  0  0  0  0
 36 35  1  0  0  0  0
 37 35  1  0  0  0  0
 38 39  1  0  0  0  0
 38 36  1  0  0  0  0
 39 37  1  0  0  0  0
 40 41  1  0  0  0  0
 42 16  1  0  0  0  0
 42 43  1  0  0  0  0
 43 46  1  0  0  0  0
 45 46  1  0  0  0  0
 46 44  2  0  0  0  0
 47 50  1  0  0  0  0
 48 49  1  0  0  0  0
 48 47  1  0  0  0  0
 49 45  1  6  0  0  0
 49 51  1  0  0  0  0
 51 50  1  0  0  0  0
M  END
>  <MODEL>
2

>  <REMARK>
 VINA RESULT:      -7.6      2.140      2.626
  Name = 
  14 active torsions:
  status: ('A' for Active; 'I' for Inactive)
    1  A    between atoms: C_4  and  O_9
    2  A    between atoms: C_4  and  C_20
    3  A    between atoms: C_5  and  C_20
    4  A    between atoms: C_8  and  O_28
    5  A    between atoms: O_9  and  C_51
    6  A    between atoms: N_10  and  C_35
    7  A    between atoms: C_12  and  O_25
    8  A    between atoms: N_14  and  N_29
    9  A    between atoms: N_14  and  C_37
   10  A    between atoms: C_16  and  C_35
   11  A    between atoms: C_16  and  C_42
   12  A    between atoms: C_27  and  N_43
   13  A    between atoms: O_28  and  C_45
   14  A    between atoms: C_41  and  C_42
                            x       y       z     vdW  Elec       q    Type
                         _______ _______ _______ _____ _____    ______ ____

>  <TORSDO>
F 14

$$$$
=
 OpenBabel11062414553D

 51 56  0  0  1  0  0  0  0  0999 V2000
  188.4980  175.5340  135.2230 C   0  0  1  0  0  3  0  0  0  0  0  0
  191.4880  177.0870  139.6330 C   0  0  0  0  0  2  0  0  0  0  0  0
  189.1150  177.2940  140.6070 C   0  0  2  0  0  3  0  0  0  0  0  0
  187.4830  176.5760  134.7780 C   0  0  0  0  0  2  0  0  0  0  0  0
  190.6990  176.8210  138.3380 C   0  0  1  0  0  3  0  0  0  0  0  0
  190.6230  177.4510  140.8650 C   0  0  1  0  0  3  0  0  0  0  0  0
  188.6410  175.6170  136.6090 O   0  0  0  0  0  0  0  0  0  0  0  0
  187.0630  179.5540  136.4910 C   0  0  0  0  0  1  0  0  0  0  0  0
  188.0670  174.1040  134.8660 C   0  0  0  0  0  2  0  0  0  0  0  0
  188.0250  177.9230  134.9660 N   0  0  0  0  0  2  0  0  0  0  0  0
  189.8430  174.9690  136.8900 C   0  0  1  0  0  3  0  0  0  0  0  0
  189.2770  178.5470  136.9690 C   0  0  0  0  0  2  0  0  0  0  0  0
  190.2880  175.3450  138.2920 C   0  0  0  0  0  2  0  0  0  0  0  0
  189.5090  177.7570  138.2300 C   0  0  0  0  0  0  0  0  0  0  0  0
  187.8960  178.2950  136.3740 C   0  0  1  0  0  3  0  0  0  0  0  0
  188.8680  173.0850  135.6710 C   0  0  0  0  0  0  0  0  0  0  0  0
  188.7550  177.9780  139.3140 C   0  0  0  0  0  3  0  0  0  0  0  0
  189.6440  173.4900  136.6910 C   0  0  0  0  0  3  0  0  0  0  0  0
  188.2780  177.7620  141.8040 C   0  0  2  0  0  3  0  0  0  0  0  0
  187.9290  176.6830  142.6170 O   0  0  0  0  0  1  0  0  0  0  0  0
  187.0510  178.5900  141.4230 C   0  0  0  0  0  2  0  0  0  0  0  0
  186.2650  178.8640  142.5790 O   0  0  0  0  0  0  0  0  0  0  0  0
  182.0520  178.7220  142.5020 C   0  0  0  0  0  0  0  0  0  0  0  0
  184.2070  178.5720  141.3990 C   0  0  0  0  0  3  0  0  0  0  0  0
  182.7020  178.9990  143.7070 C   0  0  0  0  0  3  0  0  0  0  0  0
  184.1000  179.0610  143.7750 C   0  0  0  0  0  0  0  0  0  0  0  0
  182.8140  178.5200  141.3430 C   0  0  0  0  0  3  0  0  0  0  0  0
  184.8680  178.8230  142.6080 C   0  0  0  0  0  0  0  0  0  0  0  0
  180.6510  178.6750  142.4790 O   0  0  0  0  0  0  0  0  0  0  0  0
  179.1220  179.0500  144.3090 C   0  0  0  0  0  1  0  0  0  0  0  0
  179.8290  179.6480  143.1090 C   0  0  0  0  0  2  0  0  0  0  0  0
  184.7110  179.4590  145.0770 C   0  0  0  0  0  2  0  0  0  0  0  0
  185.2960  178.2500  145.7820 C   0  0  0  0  0  2  0  0  0  0  0  0
  186.5620  178.6580  146.5080 C   0  0  0  0  0  2  0  0  0  0  0  0
  187.7480  177.7250  148.3020 C   0  0  0  0  0  2  0  0  0  0  0  0
  187.2870  177.4740  146.9400 N   0  0  0  0  0  0  0  0  0  0  0  0
  189.2380  177.9500  148.2720 C   0  0  0  0  0  2  0  0  0  0  0  0
  188.4750  177.3780  146.1010 C   0  0  0  0  0  2  0  0  0  0  0  0
  189.6840  177.2980  146.9910 C   0  0  0  0  0  2  0  0  0  0  0  0
  191.7910  177.5190  142.7500 C   0  0  0  0  0  1  0  0  0  0  0  0
  191.0100  176.6690  141.9640 O   0  0  0  0  0  0  0  0  0  0  0  0
  188.6250  171.6870  135.4960 N   0  0  0  0  0  2  0  0  0  0  0  0
  187.4750  171.1740  134.8700 N   0  0  0  0  0  2  0  0  0  0  0  0
  185.2440  170.5330  134.9660 O   0  0  0  0  0  0  0  0  0  0  0  0
  185.9210  172.0970  136.5690 N   0  0  0  0  0  2  0  0  0  0  0  0
  186.1710  171.2340  135.4540 C   0  0  0  0  0  0  0  0  0  0  0  0
  182.3920  173.5490  136.8880 C   0  0  0  0  0  2  0  0  0  0  0  0
  184.1190  173.9960  137.2520 S   0  0  0  0  0  0  0  0  0  0  0  0
  184.6330  172.2570  137.2240 C   0  0  1  0  0  3  0  0  0  0  0  0
  182.2520  172.0480  136.9700 C   0  0  0  0  0  2  0  0  0  0  0  0
  183.5610  171.4500  136.5370 C   0  0  0  0  0  2  0  0  0  0  0  0
  1  4  1  1  0  0  0
  1  7  1  0  0  0  0
  2  6  1  0  0  0  0
  3  6  1  0  0  0  0
  3 19  1  1  0  0  0
  4 10  1  0  0  0  0
  5 13  1  1  0  0  0
  5  2  1  0  0  0  0
  6 41  1  1  0  0  0
  7 11  1  0  0  0  0
  9  1  1  0  0  0  0
  9 16  1  0  0  0  0
 10 15  1  0  0  0  0
 11 18  1  1  0  0  0
 11 13  1  0  0  0  0
 12 14  1  0  0  0  0
 14  5  1  0  0  0  0
 14 17  2  0  0  0  0
 15  8  1  6  0  0  0
 15 12  1  0  0  0  0
 16 18  2  0  0  0  0
 17  3  1  0  0  0  0
 19 20  1  6  0  0  0
 21 19  1  0  0  0  0
 21 22  1  0  0  0  0
 22 28  1  0  0  0  0
 23 25  1  0  0  0  0
 24 28  2  0  0  0  0
 25 26  2  0  0  0  0
 26 32  1  0  0  0  0
 27 24  1  0  0  0  0
 27 23  2  0  0  0  0
 28 26  1  0  0  0  0
 29 23  1  0  0  0  0
 29 31  1  0  0  0  0
 31 30  1  0  0  0  0
 32 33  1  0  0  0  0
 33 34  1  0  0  0  0
 34 36  1  0  0  0  0
 36 35  1  0  0  0  0
 37 35  1  0  0  0  0
 38 36  1  0  0  0  0
 38 39  1  0  0  0  0
 39 37  1  0  0  0  0
 41 40  1  0  0  0  0
 42 16  1  0  0  0  0
 43 46  1  0  0  0  0
 43 42  1  0  0  0  0
 44 46  2  0  0  0  0
 46 45  1  0  0  0  0
 47 50  1  0  0  0  0
 47 48  1  0  0  0  0
 49 45  1  6  0  0  0
 49 48  1  0  0  0  0
 51 50  1  0  0  0  0
 51 49  1  0  0  0  0
M  END
>  <MODEL>
3

>  <REMARK>
 VINA RESULT:      -7.5      2.959      7.122
  Name = 
  14 active torsions:
  status: ('A' for Active; 'I' for Inactive)
    1  A    between atoms: C_4  and  O_9
    2  A    between atoms: C_4  and  C_20
    3  A    between atoms: C_5  and  C_20
    4  A    between atoms: C_8  and  O_28
    5  A    between atoms: O_9  and  C_51
    6  A    between atoms: N_10  and  C_35
    7  A    between atoms: C_12  and  O_25
    8  A    between atoms: N_14  and  N_29
    9  A    between atoms: N_14  and  C_37
   10  A    between atoms: C_16  and  C_35
   11  A    between atoms: C_16  and  C_42
   12  A    between atoms: C_27  and  N_43
   13  A    between atoms: O_28  and  C_45
   14  A    between atoms: C_41  and  C_42
                            x       y       z     vdW  Elec       q    Type
                         _______ _______ _______ _____ _____    ______ ____

>  <TORSDO>
F 14

$$$$
=
 OpenBabel11062414553D

 51 56  0  0  1  0  0  0  0  0999 V2000
  185.5380  175.4250  135.8050 C   0  0  1  0  0  3  0  0  0  0  0  0
  191.0390  174.8820  136.3090 C   0  0  0  0  0  2  0  0  0  0  0  0
  190.5320  176.2740  138.4130 C   0  0  2  0  0  3  0  0  0  0  0  0
  185.0690  176.8710  135.7760 C   0  0  0  0  0  2  0  0  0  0  0  0
  189.5480  175.1540  136.0350 C   0  0  1  0  0  3  0  0  0  0  0  0
  191.6130  175.5840  137.5650 C   0  0  1  0  0  3  0  0  0  0  0  0
  186.6680  175.3400  136.6210 O   0  0  0  0  0  0  0  0  0  0  0  0
  187.2830  179.5080  136.1230 C   0  0  0  0  0  1  0  0  0  0  0  0
  184.4690  174.4710  136.3590 C   0  0  0  0  0  2  0  0  0  0  0  0
  186.0420  177.7040  135.0670 N   0  0  0  0  0  2  0  0  0  0  0  0
  187.2760  174.1340  136.2760 C   0  0  1  0  0  3  0  0  0  0  0  0
  188.4500  177.4460  135.3940 C   0  0  0  0  0  2  0  0  0  0  0  0
  188.7010  174.1330  136.8030 C   0  0  0  0  0  2  0  0  0  0  0  0
  189.1880  176.5860  136.3850 C   0  0  0  0  0  0  0  0  0  0  0  0
  187.1540  178.0080  135.9670 C   0  0  1  0  0  3  0  0  0  0  0  0
  185.0940  173.1390  136.7600 C   0  0  0  0  0  0  0  0  0  0  0  0
  189.6580  177.1150  137.5220 C   0  0  0  0  0  3  0  0  0  0  0  0
  186.4310  173.0060  136.8060 C   0  0  0  0  0  3  0  0  0  0  0  0
  191.1380  177.0510  139.5890 C   0  0  2  0  0  3  0  0  0  0  0  0
  192.5310  177.0740  139.5020 O   0  0  0  0  0  1  0  0  0  0  0  0
  190.6750  176.5660  140.9630 C   0  0  0  0  0  2  0  0  0  0  0  0
  190.9390  177.5590  141.9490 O   0  0  0  0  0  0  0  0  0  0  0  0
  190.0710  177.1250  146.0520 C   0  0  0  0  0  0  0  0  0  0  0  0
  191.6120  177.0350  144.1820 C   0  0  0  0  0  3  0  0  0  0  0  0
  189.0490  177.4980  145.1760 C   0  0  0  0  0  3  0  0  0  0  0  0
  189.2940  177.6480  143.8040 C   0  0  0  0  0  0  0  0  0  0  0  0
  191.3550  176.8830  145.5440 C   0  0  0  0  0  3  0  0  0  0  0  0
  190.6010  177.4350  143.3000 C   0  0  0  0  0  0  0  0  0  0  0  0
  189.7800  176.9820  147.4160 O   0  0  0  0  0  0  0  0  0  0  0  0
  187.8820  177.8310  148.6420 C   0  0  0  0  0  1  0  0  0  0  0  0
  189.3240  178.0530  148.2310 C   0  0  0  0  0  2  0  0  0  0  0  0
  188.1280  177.9520  142.9250 C   0  0  0  0  0  2  0  0  0  0  0  0
  186.8250  177.7240  143.6690 C   0  0  0  0  0  2  0  0  0  0  0  0
  185.6640  177.9060  142.7130 C   0  0  0  0  0  2  0  0  0  0  0  0
  184.9970  179.2380  144.5230 C   0  0  0  0  0  2  0  0  0  0  0  0
  184.9080  179.0950  143.0740 N   0  0  0  0  0  0  0  0  0  0  0  0
  183.6630  178.8800  145.1260 C   0  0  0  0  0  2  0  0  0  0  0  0
  183.5120  178.8170  142.7600 C   0  0  0  0  0  2  0  0  0  0  0  0
  182.6880  179.0580  143.9940 C   0  0  0  0  0  2  0  0  0  0  0  0
  193.5150  174.4440  137.6510 C   0  0  0  0  0  1  0  0  0  0  0  0
  192.3210  174.6560  138.3440 O   0  0  0  0  0  0  0  0  0  0  0  0
  184.2750  172.1010  137.3050 N   0  0  0  0  0  2  0  0  0  0  0  0
  183.2060  171.5120  136.6050 N   0  0  0  0  0  2  0  0  0  0  0  0
  180.9240  171.2440  136.2640 O   0  0  0  0  0  0  0  0  0  0  0  0
  181.5700  173.2490  137.2850 N   0  0  0  0  0  2  0  0  0  0  0  0
  181.8550  171.9710  136.7060 C   0  0  0  0  0  0  0  0  0  0  0  0
  178.9470  175.4800  138.9610 C   0  0  0  0  0  2  0  0  0  0  0  0
  179.6890  173.8270  139.1410 S   0  0  0  0  0  0  0  0  0  0  0  0
  180.2420  173.8250  137.4140 C   0  0  1  0  0  3  0  0  0  0  0  0
  178.9790  175.8690  137.5020 C   0  0  0  0  0  2  0  0  0  0  0  0
  180.2020  175.2400  136.8960 C   0  0  0  0  0  2  0  0  0  0  0  0
  1  4  1  1  0  0  0
  1  9  1  0  0  0  0
  1  7  1  0  0  0  0
  2  6  1  0  0  0  0
  3 19  1  1  0  0  0
  5  2  1  1  0  0  0
  5 14  1  0  0  0  0
  5 13  1  0  0  0  0
  6 41  1  1  0  0  0
  6  3  1  0  0  0  0
  9 16  1  0  0  0  0
 10  4  1  0  0  0  0
 10 15  1  0  0  0  0
 11  7  1  0  0  0  0
 11 13  1  1  0  0  0
 11 18  1  0  0  0  0
 12 15  1  0  0  0  0
 12 14  1  0  0  0  0
 14 17  2  0  0  0  0
 15  8  1  6  0  0  0
 16 18  2  0  0  0  0
 16 42  1  0  0  0  0
 17  3  1  0  0  0  0
 19 20  1  1  0  0  0
 19 21  1  0  0  0  0
 21 22  1  0  0  0  0
 22 28  1  0  0  0  0
 23 29  1  0  0  0  0
 24 27  2  0  0  0  0
 25 23  2  0  0  0  0
 26 25  1  0  0  0  0
 27 23  1  0  0  0  0
 28 26  2  0  0  0  0
 28 24  1  0  0  0  0
 29 31  1  0  0  0  0
 31 30  1  0  0  0  0
 32 33  1  0  0  0  0
 32 26  1  0  0  0  0
 34 36  1  0  0  0  0
 34 33  1  0  0  0  0
 35 37  1  0  0  0  0
 36 35  1  0  0  0  0
 38 36  1  0  0  0  0
 38 39  1  0  0  0  0
 39 37  1  0  0  0  0
 40 41  1  0  0  0  0
 43 46  1  0  0  0  0
 43 42  1  0  0  0  0
 44 46  2  0  0  0  0
 46 45  1  0  0  0  0
 47 48  1  0  0  0  0
 49 45  1  1  0  0  0
 49 48  1  0  0  0  0
 50 47  1  0  0  0  0
 51 49  1  0  0  0  0
 51 50  1  0  0  0  0
M  END
>  <MODEL>
4

>  <REMARK>
 VINA RESULT:      -7.3      3.577      8.315
  Name = 
  14 active torsions:
  status: ('A' for Active; 'I' for Inactive)
    1  A    between atoms: C_4  and  O_9
    2  A    between atoms: C_4  and  C_20
    3  A    between atoms: C_5  and  C_20
    4  A    between atoms: C_8  and  O_28
    5  A    between atoms: O_9  and  C_51
    6  A    between atoms: N_10  and  C_35
    7  A    between atoms: C_12  and  O_25
    8  A    between atoms: N_14  and  N_29
    9  A    between atoms: N_14  and  C_37
   10  A    between atoms: C_16  and  C_35
   11  A    between atoms: C_16  and  C_42
   12  A    between atoms: C_27  and  N_43
   13  A    between atoms: O_28  and  C_45
   14  A    between atoms: C_41  and  C_42
                            x       y       z     vdW  Elec       q    Type
                         _______ _______ _______ _____ _____    ______ ____

>  <TORSDO>
F 14

$$$$
=
 OpenBabel11062414553D

 51 56  0  0  1  0  0  0  0  0999 V2000
  190.0490  175.7790  135.9040 C   0  0  1  0  0  3  0  0  0  0  0  0
  191.8170  177.8810  140.7270 C   0  0  0  0  0  2  0  0  0  0  0  0
  189.5410  176.9290  141.4610 C   0  0  2  0  0  3  0  0  0  0  0  0
  188.7080  176.3360  135.4520 C   0  0  0  0  0  2  0  0  0  0  0  0
  191.2950  177.4720  139.3370 C   0  0  1  0  0  3  0  0  0  0  0  0
  190.8130  177.6800  141.8890 C   0  0  1  0  0  3  0  0  0  0  0  0
  190.0660  175.7370  137.2990 O   0  0  0  0  0  0  0  0  0  0  0  0
  186.9390  178.6030  137.3770 C   0  0  0  0  0  1  0  0  0  0  0  0
  190.3050  174.3600  135.3740 C   0  0  0  0  0  2  0  0  0  0  0  0
  188.5980  177.7490  135.8180 N   0  0  0  0  0  2  0  0  0  0  0  0
  191.4120  175.6330  137.6440 C   0  0  1  0  0  3  0  0  0  0  0  0
  189.3400  178.5850  137.9910 C   0  0  0  0  0  2  0  0  0  0  0  0
  191.5720  175.9800  139.1140 C   0  0  0  0  0  2  0  0  0  0  0  0
  189.8240  177.8150  139.1910 C   0  0  0  0  0  0  0  0  0  0  0  0
  188.2420  177.8470  137.2330 C   0  0  1  0  0  3  0  0  0  0  0  0
  191.4240  173.6870  136.1620 C   0  0  0  0  0  0  0  0  0  0  0  0
  188.9910  177.5530  140.2060 C   0  0  0  0  0  3  0  0  0  0  0  0
  191.8890  174.2500  137.2910 C   0  0  0  0  0  3  0  0  0  0  0  0
  188.5200  176.8380  142.6020 C   0  0  2  0  0  3  0  0  0  0  0  0
  188.5820  175.5900  143.2240 O   0  0  0  0  0  1  0  0  0  0  0  0
  187.0890  177.1830  142.1890 C   0  0  0  0  0  2  0  0  0  0  0  0
  186.4760  178.0040  143.1780 O   0  0  0  0  0  0  0  0  0  0  0  0
  182.3800  178.9940  143.0630 C   0  0  0  0  0  0  0  0  0  0  0  0
  184.4470  178.3610  141.9650 C   0  0  0  0  0  3  0  0  0  0  0  0
  183.0460  178.9950  144.2900 C   0  0  0  0  0  3  0  0  0  0  0  0
  184.4080  178.6770  144.3720 C   0  0  0  0  0  0  0  0  0  0  0  0
  183.0930  178.6840  141.8960 C   0  0  0  0  0  3  0  0  0  0  0  0
  185.1170  178.3330  143.1940 C   0  0  0  0  0  0  0  0  0  0  0  0
  181.0180  179.3230  143.0270 O   0  0  0  0  0  0  0  0  0  0  0  0
  179.6880  177.9610  141.5420 C   0  0  0  0  0  1  0  0  0  0  0  0
  180.2510  179.3380  141.8300 C   0  0  0  0  0  2  0  0  0  0  0  0
  185.0660  178.7980  145.7050 C   0  0  0  0  0  2  0  0  0  0  0  0
  186.0630  177.6720  145.9110 C   0  0  0  0  0  2  0  0  0  0  0  0
  187.3740  178.2500  146.4050 C   0  0  0  0  0  2  0  0  0  0  0  0
  188.4370  178.1460  148.4930 C   0  0  0  0  0  2  0  0  0  0  0  0
  187.9840  177.3410  147.3630 N   0  0  0  0  0  0  0  0  0  0  0  0
  189.9410  178.2310  148.4510 C   0  0  0  0  0  2  0  0  0  0  0  0
  189.1760  176.7960  146.7250 C   0  0  0  0  0  2  0  0  0  0  0  0
  190.3550  177.0430  147.6250 C   0  0  0  0  0  2  0  0  0  0  0  0
  191.6560  177.9830  143.9190 C   0  0  0  0  0  1  0  0  0  0  0  0
  191.4420  177.0040  142.9460 O   0  0  0  0  0  0  0  0  0  0  0  0
  191.8250  172.3530  135.8350 N   0  0  0  0  0  2  0  0  0  0  0  0
  192.9870  172.0540  135.1000 N   0  0  0  0  0  2  0  0  0  0  0  0
  195.2890  172.1960  134.8210 O   0  0  0  0  0  0  0  0  0  0  0  0
  194.5150  172.4390  137.0160 N   0  0  0  0  0  2  0  0  0  0  0  0
  194.3090  172.2350  135.6140 C   0  0  0  0  0  0  0  0  0  0  0  0
  198.2770  173.1530  136.9940 C   0  0  0  0  0  2  0  0  0  0  0  0
  197.1200  171.7770  136.7080 S   0  0  0  0  0  0  0  0  0  0  0  0
  195.8120  172.6080  137.6500 C   0  0  1  0  0  3  0  0  0  0  0  0
  197.6610  174.1060  137.9900 C   0  0  0  0  0  2  0  0  0  0  0  0
  196.1720  174.0650  137.7900 C   0  0  0  0  0  2  0  0  0  0  0  0
  1  9  1  6  0  0  0
  1  7  1  0  0  0  0
  2  6  1  0  0  0  0
  3  6  1  0  0  0  0
  3 19  1  1  0  0  0
  4 10  1  0  0  0  0
  4  1  1  0  0  0  0
  5 13  1  1  0  0  0
  5  2  1  0  0  0  0
  6 41  1  1  0  0  0
  7 11  1  0  0  0  0
  9 16  1  0  0  0  0
 10 15  1  0  0  0  0
 11 18  1  1  0  0  0
 11 13  1  0  0  0  0
 12 14  1  0  0  0  0
 14  5  1  0  0  0  0
 14 17  2  0  0  0  0
 15  8  1  6  0  0  0
 15 12  1  0  0  0  0
 16 18  2  0  0  0  0
 17  3  1  0  0  0  0
 19 20  1  6  0  0  0
 21 19  1  0  0  0  0
 21 22  1  0  0  0  0
 22 28  1  0  0  0  0
 23 25  1  0  0  0  0
 24 28  2  0  0  0  0
 25 26  2  0  0  0  0
 26 32  1  0  0  0  0
 27 24  1  0  0  0  0
 27 23  2  0  0  0  0
 28 26  1  0  0  0  0
 29 23  1  0  0  0  0
 30 31  1  0  0  0  0
 31 29  1  0  0  0  0
 32 33  1  0  0  0  0
 33 34  1  0  0  0  0
 34 36  1  0  0  0  0
 36 35  1  0  0  0  0
 37 35  1  0  0  0  0
 38 36  1  0  0  0  0
 38 39  1  0  0  0  0
 39 37  1  0  0  0  0
 41 40  1  0  0  0  0
 42 16  1  0  0  0  0
 43 46  1  0  0  0  0
 43 42  1  0  0  0  0
 44 46  2  0  0  0  0
 46 45  1  0  0  0  0
 47 50  1  0  0  0  0
 48 47  1  0  0  0  0
 48 49  1  0  0  0  0
 49 45  1  6  0  0  0
 49 51  1  0  0  0  0
 51 50  1  0  0  0  0
M  END
>  <MODEL>
5

>  <REMARK>
 VINA RESULT:      -6.7      3.165      6.701
  Name = 
  14 active torsions:
  status: ('A' for Active; 'I' for Inactive)
    1  A    between atoms: C_4  and  O_9
    2  A    between atoms: C_4  and  C_20
    3  A    between atoms: C_5  and  C_20
    4  A    between atoms: C_8  and  O_28
    5  A    between atoms: O_9  and  C_51
    6  A    between atoms: N_10  and  C_35
    7  A    between atoms: C_12  and  O_25
    8  A    between atoms: N_14  and  N_29
    9  A    between atoms: N_14  and  C_37
   10  A    between atoms: C_16  and  C_35
   11  A    between atoms: C_16  and  C_42
   12  A    between atoms: C_27  and  N_43
   13  A    between atoms: O_28  and  C_45
   14  A    between atoms: C_41  and  C_42
                            x       y       z     vdW  Elec       q    Type
                         _______ _______ _______ _____ _____    ______ ____

>  <TORSDO>
F 14

$$$$
=
 OpenBabel11062414553D

 51 56  0  0  1  0  0  0  0  0999 V2000
  187.7350  173.7740  136.4680 C   0  0  1  0  0  3  0  0  0  0  0  0
  183.7640  177.6220  135.9840 C   0  0  0  0  0  2  0  0  0  0  0  0
  182.9760  176.4320  138.1270 C   0  0  2  0  0  3  0  0  0  0  0  0
  187.2020  172.3500  136.5040 C   0  0  0  0  0  2  0  0  0  0  0  0
  184.7830  176.4670  135.9790 C   0  0  1  0  0  3  0  0  0  0  0  0
  182.7000  177.5500  137.1080 C   0  0  1  0  0  3  0  0  0  0  0  0
  186.7970  174.6150  137.0690 O   0  0  0  0  0  0  0  0  0  0  0  0
  183.8090  171.6760  136.4130 C   0  0  0  0  0  1  0  0  0  0  0  0
  189.0670  173.9220  137.2170 C   0  0  0  0  0  2  0  0  0  0  0  0
  186.0420  172.2220  135.6210 N   0  0  0  0  0  2  0  0  0  0  0  0
  187.1290  175.8980  136.6370 C   0  0  1  0  0  3  0  0  0  0  0  0
  184.3000  173.9330  135.5140 C   0  0  0  0  0  2  0  0  0  0  0  0
  185.9550  176.8250  136.9000 C   0  0  0  0  0  2  0  0  0  0  0  0
  184.1190  175.1600  136.3690 C   0  0  0  0  0  0  0  0  0  0  0  0
  184.8630  172.7560  136.3030 C   0  0  1  0  0  3  0  0  0  0  0  0
  189.3540  175.3900  137.5180 C   0  0  0  0  0  0  0  0  0  0  0  0
  183.2590  175.1470  137.3950 C   0  0  0  0  0  3  0  0  0  0  0  0
  188.4000  176.3180  137.3250 C   0  0  0  0  0  3  0  0  0  0  0  0
  181.8530  176.3140  139.1650 C   0  0  2  0  0  3  0  0  0  0  0  0
  180.7640  177.1120  138.8080 O   0  0  0  0  0  1  0  0  0  0  0  0
  182.2970  176.5900  140.6010 C   0  0  0  0  0  2  0  0  0  0  0  0
  183.2130  177.6800  140.6310 O   0  0  0  0  0  0  0  0  0  0  0  0
  184.7860  179.2330  144.2210 C   0  0  0  0  0  0  0  0  0  0  0  0
  182.9460  178.3540  142.9090 C   0  0  0  0  0  3  0  0  0  0  0  0
  185.6240  179.1030  143.1120 C   0  0  0  0  0  3  0  0  0  0  0  0
  185.1400  178.5960  141.8980 C   0  0  0  0  0  0  0  0  0  0  0  0
  183.4380  178.8650  144.1100 C   0  0  0  0  0  3  0  0  0  0  0  0
  183.7850  178.1940  141.7990 C   0  0  0  0  0  0  0  0  0  0  0  0
  185.3120  179.7490  145.4140 O   0  0  0  0  0  0  0  0  0  0  0  0
  186.7650  178.0110  146.2470 C   0  0  0  0  0  1  0  0  0  0  0  0
  185.6090  178.9440  146.5470 C   0  0  0  0  0  2  0  0  0  0  0  0
  186.0740  178.5810  140.7350 C   0  0  0  0  0  2  0  0  0  0  0  0
  187.4980  178.8410  141.1910 C   0  0  0  0  0  2  0  0  0  0  0  0
  188.3350  177.6030  140.9460 C   0  0  0  0  0  2  0  0  0  0  0  0
  190.1730  176.3860  141.7480 C   0  0  0  0  0  2  0  0  0  0  0  0
  189.6150  177.7290  141.6260 N   0  0  0  0  0  0  0  0  0  0  0  0
  190.0760  175.9530  143.1880 C   0  0  0  0  0  2  0  0  0  0  0  0
  189.3280  178.1940  142.9780 C   0  0  0  0  0  2  0  0  0  0  0  0
  189.9630  177.2430  143.9540 C   0  0  0  0  0  2  0  0  0  0  0  0
  181.6030  179.4800  137.0880 C   0  0  0  0  0  1  0  0  0  0  0  0
  182.6150  178.7900  137.7590 O   0  0  0  0  0  0  0  0  0  0  0  0
  190.5480  175.7560  138.2140 N   0  0  0  0  0  2  0  0  0  0  0  0
  191.6030  176.4710  137.6190 N   0  0  0  0  0  2  0  0  0  0  0  0
  193.8730  176.7530  137.2160 O   0  0  0  0  0  0  0  0  0  0  0  0
  193.1980  174.5760  137.7460 N   0  0  0  0  0  2  0  0  0  0  0  0
  192.9370  175.9650  137.5200 C   0  0  0  0  0  0  0  0  0  0  0  0
  196.9080  174.5100  136.7970 C   0  0  0  0  0  2  0  0  0  0  0  0
  195.2720  174.2700  136.0350 S   0  0  0  0  0  0  0  0  0  0  0  0
  194.5060  173.9490  137.6480 C   0  0  1  0  0  3  0  0  0  0  0  0
  196.8260  174.1210  138.2540 C   0  0  0  0  0  2  0  0  0  0  0  0
  195.4360  174.4410  138.7270 C   0  0  0  0  0  2  0  0  0  0  0  0
  1  4  1  1  0  0  0
  1  7  1  0  0  0  0
  1  9  1  0  0  0  0
  2  6  1  0  0  0  0
  3 19  1  1  0  0  0
  5  2  1  1  0  0  0
  5 14  1  0  0  0  0
  5 13  1  0  0  0  0
  6 41  1  1  0  0  0
  6  3  1  0  0  0  0
  9 16  1  0  0  0  0
 10 15  1  0  0  0  0
 10  4  1  0  0  0  0
 11 13  1  1  0  0  0
 11  7  1  0  0  0  0
 11 18  1  0  0  0  0
 12 15  1  0  0  0  0
 12 14  1  0  0  0  0
 14 17  2  0  0  0  0
 15  8  1  6  0  0  0
 16 42  1  0  0  0  0
 17  3  1  0  0  0  0
 18 16  2  0  0  0  0
 19 20  1  6  0  0  0
 19 21  1  0  0  0  0
 21 22  1  0  0  0  0
 22 28  1  0  0  0  0
 23 29  1  0  0  0  0
 24 27  2  0  0  0  0
 25 23  2  0  0  0  0
 26 25  1  0  0  0  0
 27 23  1  0  0  0  0
 28 26  2  0  0  0  0
 28 24  1  0  0  0  0
 29 31  1  0  0  0  0
 30 31  1  0  0  0  0
 32 33  1  0  0  0  0
 32 26  1  0  0  0  0
 34 33  1  0  0  0  0
 34 36  1  0  0  0  0
 35 37  1  0  0  0  0
 36 35  1  0  0  0  0
 36 38  1  0  0  0  0
 37 39  1  0  0  0  0
 38 39  1  0  0  0  0
 40 41  1  0  0  0  0
 43 42  1  0  0  0  0
 44 46  2  0  0  0  0
 46 43  1  0  0  0  0
 46 45  1  0  0  0  0
 47 50  1  0  0  0  0
 48 47  1  0  0  0  0
 48 49  1  0  0  0  0
 49 45  1  6  0  0  0
 49 51  1  0  0  0  0
 50 51  1  0  0  0  0
M  END
>  <MODEL>
6

>  <REMARK>
 VINA RESULT:      -6.7      1.851      2.728
  Name = 
  14 active torsions:
  status: ('A' for Active; 'I' for Inactive)
    1  A    between atoms: C_4  and  O_9
    2  A    between atoms: C_4  and  C_20
    3  A    between atoms: C_5  and  C_20
    4  A    between atoms: C_8  and  O_28
    5  A    between atoms: O_9  and  C_51
    6  A    between atoms: N_10  and  C_35
    7  A    between atoms: C_12  and  O_25
    8  A    between atoms: N_14  and  N_29
    9  A    between atoms: N_14  and  C_37
   10  A    between atoms: C_16  and  C_35
   11  A    between atoms: C_16  and  C_42
   12  A    between atoms: C_27  and  N_43
   13  A    between atoms: O_28  and  C_45
   14  A    between atoms: C_41  and  C_42
                            x       y       z     vdW  Elec       q    Type
                         _______ _______ _______ _____ _____    ______ ____

>  <TORSDO>
F 14

$$$$
=
 OpenBabel11062414553D

 51 56  0  0  1  0  0  0  0  0999 V2000
  193.1470  176.4710  138.3440 C   0  0  1  0  0  3  0  0  0  0  0  0
  188.0430  174.6760  137.1060 C   0  0  0  0  0  2  0  0  0  0  0  0
  187.6510  177.2190  137.0410 C   0  0  2  0  0  3  0  0  0  0  0  0
  193.1960  177.3710  139.5690 C   0  0  0  0  0  2  0  0  0  0  0  0
  189.4240  175.1210  137.6230 C   0  0  1  0  0  3  0  0  0  0  0  0
  187.0260  175.8230  136.8830 C   0  0  1  0  0  3  0  0  0  0  0  0
  191.9280  176.6700  137.6940 O   0  0  0  0  0  0  0  0  0  0  0  0
  190.3260  178.2630  141.2860 C   0  0  0  0  0  1  0  0  0  0  0  0
  194.2790  176.7680  137.3510 C   0  0  0  0  0  2  0  0  0  0  0  0
  192.2220  176.9210  140.5660 N   0  0  0  0  0  2  0  0  0  0  0  0
  191.7690  175.5580  136.8700 C   0  0  1  0  0  3  0  0  0  0  0  0
  189.9680  176.2080  139.9450 C   0  0  0  0  0  2  0  0  0  0  0  0
  190.3180  175.4740  136.4290 C   0  0  0  0  0  2  0  0  0  0  0  0
  189.2870  176.2710  138.6040 C   0  0  0  0  0  0  0  0  0  0  0  0
  190.8930  177.3970  140.1810 C   0  0  1  0  0  3  0  0  0  0  0  0
  193.9680  176.1640  135.9850 C   0  0  0  0  0  0  0  0  0  0  0  0
  188.4420  177.2710  138.3210 C   0  0  0  0  0  3  0  0  0  0  0  0
  192.7450  175.6680  135.7290 C   0  0  0  0  0  3  0  0  0  0  0  0
  186.6020  178.3320  136.9210 C   0  0  2  0  0  3  0  0  0  0  0  0
  187.2020  179.5890  137.0090 O   0  0  0  0  0  1  0  0  0  0  0  0
  185.4380  178.2020  137.9030 C   0  0  0  0  0  2  0  0  0  0  0  0
  185.7900  178.7700  139.1610 O   0  0  0  0  0  0  0  0  0  0  0  0
  183.1910  178.7400  142.4800 C   0  0  0  0  0  0  0  0  0  0  0  0
  183.6070  179.0050  140.1060 C   0  0  0  0  0  3  0  0  0  0  0  0
  184.5530  178.5040  142.6800 C   0  0  0  0  0  3  0  0  0  0  0  0
  185.4520  178.5100  141.6050 C   0  0  0  0  0  0  0  0  0  0  0  0
  182.7230  179.0020  141.1850 C   0  0  0  0  0  3  0  0  0  0  0  0
  184.9700  178.7430  140.2930 C   0  0  0  0  0  0  0  0  0  0  0  0
  182.3290  178.7290  143.5850 O   0  0  0  0  0  0  0  0  0  0  0  0
  180.0420  178.0490  143.9590 C   0  0  0  0  0  1  0  0  0  0  0  0
  180.9760  179.1600  143.5210 C   0  0  0  0  0  2  0  0  0  0  0  0
  186.9020  178.3480  141.9170 C   0  0  0  0  0  2  0  0  0  0  0  0
  187.0930  177.3910  143.0780 C   0  0  0  0  0  2  0  0  0  0  0  0
  188.0540  178.0020  144.0780 C   0  0  0  0  0  2  0  0  0  0  0  0
  187.1400  177.3020  146.1200 C   0  0  0  0  0  2  0  0  0  0  0  0
  188.2480  177.0930  145.1960 N   0  0  0  0  0  0  0  0  0  0  0  0
  187.6570  178.0270  147.3360 C   0  0  0  0  0  2  0  0  0  0  0  0
  189.4610  177.5230  145.8810 C   0  0  0  0  0  2  0  0  0  0  0  0
  189.1360  177.7450  147.3320 C   0  0  0  0  0  2  0  0  0  0  0  0
  186.1970  174.3280  135.4670 C   0  0  0  0  0  1  0  0  0  0  0  0
  186.4400  175.6960  135.6140 O   0  0  0  0  0  0  0  0  0  0  0  0
  194.8930  176.3240  134.9060 N   0  0  0  0  0  2  0  0  0  0  0  0
  196.2800  176.4680  135.0910 N   0  0  0  0  0  2  0  0  0  0  0  0
  198.3200  175.6070  135.7930 O   0  0  0  0  0  0  0  0  0  0  0  0
  196.6990  174.0250  135.2020 N   0  0  0  0  0  2  0  0  0  0  0  0
  197.1490  175.3720  135.3860 C   0  0  0  0  0  0  0  0  0  0  0  0
  197.6690  170.8800  137.1600 C   0  0  0  0  0  2  0  0  0  0  0  0
  197.9320  172.6810  137.2000 S   0  0  0  0  0  0  0  0  0  0  0  0
  197.5030  172.8390  135.4450 C   0  0  1  0  0  3  0  0  0  0  0  0
  197.4620  170.4520  135.7270 C   0  0  0  0  0  2  0  0  0  0  0  0
  196.7840  171.5870  135.0120 C   0  0  0  0  0  2  0  0  0  0  0  0
  1  9  1  6  0  0  0
  1  4  1  0  0  0  0
  2  5  1  0  0  0  0
  3 19  1  1  0  0  0
  3 17  1  0  0  0  0
  4 10  1  0  0  0  0
  5 13  1  6  0  0  0
  5 14  1  0  0  0  0
  6 41  1  6  0  0  0
  6  3  1  0  0  0  0
  6  2  1  0  0  0  0
  7  1  1  0  0  0  0
 11 18  1  6  0  0  0
 11  7  1  0  0  0  0
 12 15  1  0  0  0  0
 13 11  1  0  0  0  0
 14 12  1  0  0  0  0
 15 10  1  0  0  0  0
 15  8  1  1  0  0  0
 16  9  1  0  0  0  0
 17 14  2  0  0  0  0
 18 16  2  0  0  0  0
 19 20  1  1  0  0  0
 19 21  1  0  0  0  0
 21 22  1  0  0  0  0
 22 28  1  0  0  0  0
 23 25  1  0  0  0  0
 23 29  1  0  0  0  0
 24 28  2  0  0  0  0
 24 27  1  0  0  0  0
 26 32  1  0  0  0  0
 26 25  2  0  0  0  0
 27 23  2  0  0  0  0
 28 26  1  0  0  0  0
 31 29  1  0  0  0  0
 31 30  1  0  0  0  0
 32 33  1  0  0  0  0
 33 34  1  0  0  0  0
 34 36  1  0  0  0  0
 35 37  1  0  0  0  0
 36 38  1  0  0  0  0
 36 35  1  0  0  0  0
 38 39  1  0  0  0  0
 39 37  1  0  0  0  0
 40 41  1  0  0  0  0
 42 43  1  0  0  0  0
 42 16  1  0  0  0  0
 43 46  1  0  0  0  0
 45 46  1  0  0  0  0
 46 44  2  0  0  0  0
 47 48  1  0  0  0  0
 49 45  1  1  0  0  0
 49 48  1  0  0  0  0
 50 47  1  0  0  0  0
 51 49  1  0  0  0  0
 51 50  1  0  0  0  0
M  END
>  <MODEL>
7

>  <REMARK>
 VINA RESULT:      -6.3      3.244      6.865
  Name = 
  14 active torsions:
  status: ('A' for Active; 'I' for Inactive)
    1  A    between atoms: C_4  and  O_9
    2  A    between atoms: C_4  and  C_20
    3  A    between atoms: C_5  and  C_20
    4  A    between atoms: C_8  and  O_28
    5  A    between atoms: O_9  and  C_51
    6  A    between atoms: N_10  and  C_35
    7  A    between atoms: C_12  and  O_25
    8  A    between atoms: N_14  and  N_29
    9  A    between atoms: N_14  and  C_37
   10  A    between atoms: C_16  and  C_35
   11  A    between atoms: C_16  and  C_42
   12  A    between atoms: C_27  and  N_43
   13  A    between atoms: O_28  and  C_45
   14  A    between atoms: C_41  and  C_42
                            x       y       z     vdW  Elec       q    Type
                         _______ _______ _______ _____ _____    ______ ____

>  <TORSDO>
F 14

$$$$
=
 OpenBabel11062414553D

 51 56  0  0  1  0  0  0  0  0999 V2000
  184.9260  175.2490  135.5870 C   0  0  1  0  0  3  0  0  0  0  0  0
  190.3120  174.1520  134.8140 C   0  0  0  0  0  2  0  0  0  0  0  0
  190.4350  175.4650  137.0240 C   0  0  2  0  0  3  0  0  0  0  0  0
  184.6190  176.7330  135.7130 C   0  0  0  0  0  2  0  0  0  0  0  0
  188.8350  174.5810  134.8940 C   0  0  1  0  0  3  0  0  0  0  0  0
  191.2210  174.7230  135.9310 C   0  0  1  0  0  3  0  0  0  0  0  0
  186.1930  175.0100  136.1220 O   0  0  0  0  0  0  0  0  0  0  0  0
  187.1220  179.1210  135.6390 C   0  0  0  0  0  1  0  0  0  0  0  0
  183.9110  174.3720  136.3350 C   0  0  0  0  0  2  0  0  0  0  0  0
  185.4930  177.5070  134.8310 N   0  0  0  0  0  2  0  0  0  0  0  0
  186.5770  173.7720  135.6090 C   0  0  1  0  0  3  0  0  0  0  0  0
  187.8720  177.0010  134.5960 C   0  0  0  0  0  2  0  0  0  0  0  0
  188.0750  173.6050  135.7990 C   0  0  0  0  0  2  0  0  0  0  0  0
  188.7160  176.0190  135.3650 C   0  0  0  0  0  0  0  0  0  0  0  0
  186.8030  177.6510  135.4660 C   0  0  1  0  0  3  0  0  0  0  0  0
  184.4640  172.9650  136.5390 C   0  0  0  0  0  0  0  0  0  0  0  0
  189.4790  176.4350  136.3830 C   0  0  0  0  0  3  0  0  0  0  0  0
  185.7560  172.7030  136.2770 C   0  0  0  0  0  3  0  0  0  0  0  0
  191.3660  176.1110  138.0580 C   0  0  2  0  0  3  0  0  0  0  0  0
  191.6170  175.2340  139.1150 O   0  0  0  0  0  1  0  0  0  0  0  0
  190.8870  177.4710  138.5670 C   0  0  0  0  0  2  0  0  0  0  0  0
  190.2580  177.3280  139.8360 O   0  0  0  0  0  0  0  0  0  0  0  0
  186.3100  178.6310  140.5370 C   0  0  0  0  0  0  0  0  0  0  0  0
  188.0850  177.9300  139.0410 C   0  0  0  0  0  3  0  0  0  0  0  0
  187.1810  178.4870  141.6190 C   0  0  0  0  0  3  0  0  0  0  0  0
  188.5030  178.0610  141.4290 C   0  0  0  0  0  0  0  0  0  0  0  0
  186.7740  178.3600  139.2420 C   0  0  0  0  0  3  0  0  0  0  0  0
  188.9580  177.7570  140.1220 C   0  0  0  0  0  0  0  0  0  0  0  0
  184.9980  179.0640  140.7720 O   0  0  0  0  0  0  0  0  0  0  0  0
  182.7340  178.5640  141.4450 C   0  0  0  0  0  1  0  0  0  0  0  0
  184.1970  178.5770  141.8400 C   0  0  0  0  0  2  0  0  0  0  0  0
  189.3950  178.0280  142.6240 C   0  0  0  0  0  2  0  0  0  0  0  0
  189.1710  176.7570  143.4220 C   0  0  0  0  0  2  0  0  0  0  0  0
  190.4550  176.3790  144.1320 C   0  0  0  0  0  2  0  0  0  0  0  0
  191.6220  176.6600  146.1460 C   0  0  0  0  0  2  0  0  0  0  0  0
  190.7170  177.3190  145.2110 N   0  0  0  0  0  0  0  0  0  0  0  0
  190.8510  176.3000  147.3900 C   0  0  0  0  0  2  0  0  0  0  0  0
  189.4550  177.5190  145.9110 C   0  0  0  0  0  2  0  0  0  0  0  0
  189.6660  177.2290  147.3710 C   0  0  0  0  0  2  0  0  0  0  0  0
  193.2780  173.8950  136.0220 C   0  0  0  0  0  1  0  0  0  0  0  0
  191.9810  173.6890  136.4970 O   0  0  0  0  0  0  0  0  0  0  0  0
  183.6800  171.9820  137.2200 N   0  0  0  0  0  2  0  0  0  0  0  0
  182.4480  171.5060  136.7370 N   0  0  0  0  0  2  0  0  0  0  0  0
  180.1250  171.5060  136.7920 O   0  0  0  0  0  0  0  0  0  0  0  0
  181.1600  173.4480  137.5900 N   0  0  0  0  0  2  0  0  0  0  0  0
  181.1950  172.1270  137.0370 C   0  0  0  0  0  0  0  0  0  0  0  0
  178.9310  175.5610  139.8770 C   0  0  0  0  0  2  0  0  0  0  0  0
  179.3770  173.8190  139.5900 S   0  0  0  0  0  0  0  0  0  0  0  0
  179.9480  174.1840  137.9080 C   0  0  1  0  0  3  0  0  0  0  0  0
  179.0510  176.3130  138.5730 C   0  0  0  0  0  2  0  0  0  0  0  0
  180.1580  175.6710  137.7850 C   0  0  0  0  0  2  0  0  0  0  0  0
  1  4  1  1  0  0  0
  1  7  1  0  0  0  0
  1  9  1  0  0  0  0
  2  6  1  0  0  0  0
  3 19  1  1  0  0  0
  5  2  1  1  0  0  0
  5 14  1  0  0  0  0
  5 13  1  0  0  0  0
  6 41  1  1  0  0  0
  6  3  1  0  0  0  0
  9 16  1  0  0  0  0
 10 15  1  0  0  0  0
 10  4  1  0  0  0  0
 11 13  1  1  0  0  0
 11  7  1  0  0  0  0
 11 18  1  0  0  0  0
 12 14  1  0  0  0  0
 12 15  1  0  0  0  0
 14 17  2  0  0  0  0
 15  8  1  6  0  0  0
 16 42  1  0  0  0  0
 17  3  1  0  0  0  0
 18 16  2  0  0  0  0
 19 21  1  0  0  0  0
 19 20  1  1  0  0  0
 21 22  1  0  0  0  0
 22 28  1  0  0  0  0
 23 29  1  0  0  0  0
 23 25  1  0  0  0  0
 24 27  1  0  0  0  0
 24 28  2  0  0  0  0
 26 25  2  0  0  0  0
 26 32  1  0  0  0  0
 27 23  2  0  0  0  0
 28 26  1  0  0  0  0
 29 31  1  0  0  0  0
 30 31  1  0  0  0  0
 32 33  1  0  0  0  0
 33 34  1  0  0  0  0
 34 36  1  0  0  0  0
 35 37  1  0  0  0  0
 36 38  1  0  0  0  0
 36 35  1  0  0  0  0
 38 39  1  0  0  0  0
 39 37  1  0  0  0  0
 40 41  1  0  0  0  0
 43 46  1  0  0  0  0
 43 42  1  0  0  0  0
 44 46  2  0  0  0  0
 46 45  1  0  0  0  0
 48 47  1  0  0  0  0
 49 45  1  1  0  0  0
 49 48  1  0  0  0  0
 50 47  1  0  0  0  0
 51 49  1  0  0  0  0
 51 50  1  0  0  0  0
M  END
>  <MODEL>
8

>  <REMARK>
 VINA RESULT:      -6.1      3.296      8.389
  Name = 
  14 active torsions:
  status: ('A' for Active; 'I' for Inactive)
    1  A    between atoms: C_4  and  O_9
    2  A    between atoms: C_4  and  C_20
    3  A    between atoms: C_5  and  C_20
    4  A    between atoms: C_8  and  O_28
    5  A    between atoms: O_9  and  C_51
    6  A    between atoms: N_10  and  C_35
    7  A    between atoms: C_12  and  O_25
    8  A    between atoms: N_14  and  N_29
    9  A    between atoms: N_14  and  C_37
   10  A    between atoms: C_16  and  C_35
   11  A    between atoms: C_16  and  C_42
   12  A    between atoms: C_27  and  N_43
   13  A    between atoms: O_28  and  C_45
   14  A    between atoms: C_41  and  C_42
                            x       y       z     vdW  Elec       q    Type
                         _______ _______ _______ _____ _____    ______ ____

>  <TORSDO>
F 14

$$$$
=
 OpenBabel11062414553D

 51 56  0  0  1  0  0  0  0  0999 V2000
  181.4750  177.5020  135.8460 C   0  0  1  0  0  3  0  0  0  0  0  0
  180.5580  177.9940  141.2980 C   0  0  0  0  0  2  0  0  0  0  0  0
  183.1170  178.2730  141.2470 C   0  0  2  0  0  3  0  0  0  0  0  0
  182.4450  176.3870  135.4900 C   0  0  0  0  0  2  0  0  0  0  0  0
  180.7810  177.6770  139.8070 C   0  0  1  0  0  3  0  0  0  0  0  0
  181.8510  178.2210  142.1190 C   0  0  1  0  0  3  0  0  0  0  0  0
  181.8430  178.0330  137.0830 O   0  0  0  0  0  0  0  0  0  0  0  0
  183.9850  174.4690  137.9250 C   0  0  0  0  0  1  0  0  0  0  0  0
  181.4790  178.6370  134.8120 C   0  0  0  0  0  2  0  0  0  0  0  0
  182.2640  175.2510  136.3950 N   0  0  0  0  0  2  0  0  0  0  0  0
  180.7160  178.7200  137.5340 C   0  0  1  0  0  3  0  0  0  0  0  0
  181.9310  175.5490  138.7970 C   0  0  0  0  0  2  0  0  0  0  0  0
  180.8670  178.9900  139.0210 C   0  0  0  0  0  2  0  0  0  0  0  0
  182.0110  176.8080  139.6190 C   0  0  0  0  0  0  0  0  0  0  0  0
  182.9440  175.5360  137.6580 C   0  0  1  0  0  3  0  0  0  0  0  0
  180.8340  179.8930  135.3900 C   0  0  0  0  0  0  0  0  0  0  0  0
  183.1230  177.0970  140.3060 C   0  0  0  0  0  3  0  0  0  0  0  0
  180.5540  179.9650  136.7030 C   0  0  0  0  0  3  0  0  0  0  0  0
  184.3900  178.3900  142.0930 C   0  0  2  0  0  3  0  0  0  0  0  0
  184.1820  179.2300  143.1890 O   0  0  0  0  0  1  0  0  0  0  0  0
  185.6310  178.8070  141.3020 C   0  0  0  0  0  2  0  0  0  0  0  0
  186.7270  177.9580  141.6260 O   0  0  0  0  0  0  0  0  0  0  0  0
  189.9820  177.4080  139.0030 C   0  0  0  0  0  0  0  0  0  0  0  0
  187.7340  178.1890  139.4700 C   0  0  0  0  0  3  0  0  0  0  0  0
  190.0830  176.9490  140.3180 C   0  0  0  0  0  3  0  0  0  0  0  0
  189.0230  177.1070  141.2210 C   0  0  0  0  0  0  0  0  0  0  0  0
  188.7940  178.0210  138.5790 C   0  0  0  0  0  3  0  0  0  0  0  0
  187.8360  177.7570  140.7980 C   0  0  0  0  0  0  0  0  0  0  0  0
  191.0660  177.2240  138.1330 O   0  0  0  0  0  0  0  0  0  0  0  0
  190.6180  175.0780  137.1220 C   0  0  0  0  0  1  0  0  0  0  0  0
  191.6260  175.9500  137.8440 C   0  0  0  0  0  2  0  0  0  0  0  0
  189.1740  176.5020  142.5760 C   0  0  0  0  0  2  0  0  0  0  0  0
  189.8990  177.4550  143.5070 C   0  0  0  0  0  2  0  0  0  0  0  0
  188.8880  178.1530  144.3940 C   0  0  0  0  0  2  0  0  0  0  0  0
  186.9790  177.8070  145.7100 C   0  0  0  0  0  2  0  0  0  0  0  0
  188.2020  177.1770  145.2250 N   0  0  0  0  0  0  0  0  0  0  0  0
  187.1450  178.1170  147.1750 C   0  0  0  0  0  2  0  0  0  0  0  0
  189.0500  176.9450  146.3880 C   0  0  0  0  0  2  0  0  0  0  0  0
  188.2350  177.1840  147.6280 C   0  0  0  0  0  2  0  0  0  0  0  0
  180.6200  179.1930  143.6890 C   0  0  0  0  0  1  0  0  0  0  0  0
  181.7330  179.4000  142.8720 O   0  0  0  0  0  0  0  0  0  0  0  0
  180.7350  181.0770  134.5940 N   0  0  0  0  0  2  0  0  0  0  0  0
  181.4470  182.2580  134.8710 N   0  0  0  0  0  2  0  0  0  0  0  0
  181.4750  184.4960  135.4950 O   0  0  0  0  0  0  0  0  0  0  0  0
  179.6050  183.2710  136.1890 N   0  0  0  0  0  2  0  0  0  0  0  0
  180.8620  183.3930  135.5140 C   0  0  0  0  0  0  0  0  0  0  0  0
  179.2630  185.8270  139.0200 C   0  0  0  0  0  2  0  0  0  0  0  0
  178.9410  184.0660  138.6880 S   0  0  0  0  0  0  0  0  0  0  0  0
  178.9330  184.3480  136.8970 C   0  0  1  0  0  3  0  0  0  0  0  0
  179.1400  186.5950  137.7250 C   0  0  0  0  0  2  0  0  0  0  0  0
  179.5800  185.6800  136.6170 C   0  0  0  0  0  2  0  0  0  0  0  0
  1  9  1  6  0  0  0
  1  7  1  0  0  0  0
  2  6  1  0  0  0  0
  3 19  1  1  0  0  0
  3  6  1  0  0  0  0
  4  1  1  0  0  0  0
  4 10  1  0  0  0  0
  5 13  1  6  0  0  0
  5  2  1  0  0  0  0
  6 41  1  6  0  0  0
  7 11  1  0  0  0  0
  9 16  1  0  0  0  0
 10 15  1  0  0  0  0
 11 18  1  6  0  0  0
 11 13  1  0  0  0  0
 12 14  1  0  0  0  0
 14  5  1  0  0  0  0
 14 17  2  0  0  0  0
 15  8  1  1  0  0  0
 15 12  1  0  0  0  0
 16 18  2  0  0  0  0
 17  3  1  0  0  0  0
 19 20  1  1  0  0  0
 21 22  1  0  0  0  0
 21 19  1  0  0  0  0
 23 25  1  0  0  0  0
 24 28  2  0  0  0  0
 25 26  2  0  0  0  0
 26 32  1  0  0  0  0
 27 23  2  0  0  0  0
 27 24  1  0  0  0  0
 28 26  1  0  0  0  0
 28 22  1  0  0  0  0
 29 23  1  0  0  0  0
 30 31  1  0  0  0  0
 31 29  1  0  0  0  0
 32 33  1  0  0  0  0
 33 34  1  0  0  0  0
 34 36  1  0  0  0  0
 35 37  1  0  0  0  0
 36 35  1  0  0  0  0
 36 38  1  0  0  0  0
 37 39  1  0  0  0  0
 38 39  1  0  0  0  0
 41 40  1  0  0  0  0
 42 43  1  0  0  0  0
 42 16  1  0  0  0  0
 43 46  1  0  0  0  0
 44 46  2  0  0  0  0
 46 45  1  0  0  0  0
 48 47  1  0  0  0  0
 49 45  1  6  0  0  0
 49 48  1  0  0  0  0
 50 47  1  0  0  0  0
 51 49  1  0  0  0  0
 51 50  1  0  0  0  0
M  END
>  <MODEL>
9

>  <REMARK>
 VINA RESULT:      -6.1      4.020      8.109
  Name = 
  14 active torsions:
  status: ('A' for Active; 'I' for Inactive)
    1  A    between atoms: C_4  and  O_9
    2  A    between atoms: C_4  and  C_20
    3  A    between atoms: C_5  and  C_20
    4  A    between atoms: C_8  and  O_28
    5  A    between atoms: O_9  and  C_51
    6  A    between atoms: N_10  and  C_35
    7  A    between atoms: C_12  and  O_25
    8  A    between atoms: N_14  and  N_29
    9  A    between atoms: N_14  and  C_37
   10  A    between atoms: C_16  and  C_35
   11  A    between atoms: C_16  and  C_42
   12  A    between atoms: C_27  and  N_43
   13  A    between atoms: O_28  and  C_45
   14  A    between atoms: C_41  and  C_42
                            x       y       z     vdW  Elec       q    Type
                         _______ _______ _______ _____ _____    ______ ____

>  <TORSDO>
F 14

$$$$
