=
 OpenBabel11062413333D

 28 31  0  0  1  0  0  0  0  0999 V2000
  188.0290  177.4220  144.5150 C   0  0  0  0  0  0  0  0  0  0  0  0
  188.6900  178.0420  148.5980 C   0  0  0  0  0  3  0  0  0  0  0  0
  189.1650  177.0310  143.5960 C   0  0  2  0  0  3  0  0  0  0  0  0
  190.5920  176.8510  145.6380 C   0  0  0  0  0  3  0  0  0  0  0  0
  190.4370  176.6490  144.3260 C   0  0  0  0  0  0  0  0  0  0  0  0
  187.4160  178.2790  148.0740 C   0  0  0  0  0  3  0  0  0  0  0  0
  191.5670  176.0570  143.5600 C   0  0  0  0  0  1  0  0  0  0  0  0
  189.6940  177.6010  147.7910 N   0  0  0  0  0  0  0  0  0  0  0  0
  188.2450  177.6300  145.8890 C   0  0  0  0  0  0  0  0  0  0  0  0
  187.1880  178.0650  146.7140 C   0  0  0  0  0  0  0  0  0  0  0  0
  185.6880  178.0460  144.8070 C   0  0  0  0  0  0  0  0  0  0  0  0
  185.9180  178.2690  146.1690 C   0  0  0  0  0  3  0  0  0  0  0  0
  189.4550  178.1640  142.6230 C   0  0  0  0  0  1  0  0  0  0  0  0
  189.5010  177.3890  146.4610 C   0  0  0  0  0  0  0  0  0  0  0  0
  186.7470  177.6260  143.9870 C   0  0  0  0  0  3  0  0  0  0  0  0
  184.3680  178.2600  144.2890 N   0  0  0  0  0  2  0  0  0  0  0  0
  184.0060  179.0990  143.1820 C   0  0  0  0  0  0  0  0  0  0  0  0
  184.8710  179.7750  142.5670 O   0  0  0  0  0  0  0  0  0  0  0  0
  182.5730  179.1830  142.7470 C   0  0  2  0  0  3  0  0  0  0  0  0
  181.7070  178.6900  143.8970 C   0  0  0  0  0  1  0  0  0  0  0  0
  182.7140  178.0880  138.5870 C   0  0  1  0  0  3  0  0  0  0  0  0
  183.5930  177.8140  140.8810 C   0  0  0  0  0  2  0  0  0  0  0  0
  181.6440  179.2920  140.3440 C   0  0  1  0  0  3  0  0  0  0  0  0
  183.3590  177.1080  139.5540 C   0  0  0  0  0  2  0  0  0  0  0  0
  182.2880  178.4040  141.4400 C   0  0  2  0  0  3  0  0  0  0  0  0
  182.5040  177.4090  137.2500 C   0  0  0  0  0  1  0  0  0  0  0  0
  181.4270  178.5190  139.1200 N   0  0  0  0  0  2  0  0  0  0  0  0
  180.3060  179.8670  140.7720 C   0  0  0  0  0  1  0  0  0  0  0  0
  1  9  1  0  0  0  0
  3 13  1  6  0  0  0
  3  5  1  0  0  0  0
  3  1  1  0  0  0  0
  4 14  1  0  0  0  0
  5  4  2  0  0  0  0
  6  2  1  0  0  0  0
  7  5  1  0  0  0  0
  8  2  2  0  0  0  0
  9 14  2  0  0  0  0
  9 10  1  0  0  0  0
 10  6  2  0  0  0  0
 11 12  2  0  0  0  0
 12 10  1  0  0  0  0
 14  8  1  0  0  0  0
 15  1  2  0  0  0  0
 15 11  1  0  0  0  0
 16 11  1  0  0  0  0
 17 16  1  0  0  0  0
 18 17  2  0  0  0  0
 19 17  1  0  0  0  0
 19 20  1  1  0  0  0
 21 26  1  6  0  0  0
 21 27  1  0  0  0  0
 21 24  1  0  0  0  0
 22 25  1  0  0  0  0
 23 28  1  1  0  0  0
 23 25  1  0  0  0  0
 24 22  1  0  0  0  0
 25 19  1  1  0  0  0
 27 23  1  0  0  0  0
M  END
>  <MODEL>
1

>  <REMARK>
 VINA RESULT:      -9.8      0.000      0.000
  Name = 
  3 active torsions:
  status: ('A' for Active; 'I' for Inactive)
    1  A    between atoms: N_5  and  C_20
    2  A    between atoms: C_13  and  C_26
    3  A    between atoms: C_17  and  C_26
                            x       y       z     vdW  Elec       q    Type
                         _______ _______ _______ _____ _____    ______ ____

>  <TORSDO>
F 3

$$$$
=
 OpenBabel11062413333D

 28 31  0  0  1  0  0  0  0  0999 V2000
  187.6850  177.5240  144.0210 C   0  0  0  0  0  0  0  0  0  0  0  0
  187.8150  178.2550  148.1380 C   0  0  0  0  0  3  0  0  0  0  0  0
  188.9260  177.0950  143.2700 C   0  0  0  0  0  0  0  0  0  0  0  0
  190.0720  176.9600  145.4850 C   0  0  0  0  0  3  0  0  0  0  0  0
  190.0860  176.7220  144.1710 C   0  0  0  0  0  0  0  0  0  0  0  0
  186.6240  178.4880  147.4440 C   0  0  0  0  0  3  0  0  0  0  0  0
  191.3000  176.0970  143.5750 C   0  0  0  0  0  1  0  0  0  0  0  0
  188.9100  177.7810  147.4810 N   0  0  0  0  0  0  0  0  0  0  0  0
  187.7220  177.7690  145.4060 C   0  0  0  0  0  0  0  0  0  0  0  0
  186.5720  178.2380  146.0730 C   0  0  0  0  0  0  0  0  0  0  0  0
  185.3350  178.1780  143.9880 C   0  0  0  0  0  0  0  0  0  0  0  0
  185.3880  178.4380  145.3600 C   0  0  0  0  0  3  0  0  0  0  0  0
  189.3550  178.1960  142.3120 C   0  0  0  0  0  1  0  0  0  0  0  0
  188.8900  177.5330  146.1430 C   0  0  0  0  0  0  0  0  0  0  0  0
  186.4860  177.7240  143.3250 C   0  0  0  0  0  2  0  0  0  0  0  0
  184.0970  178.3890  143.2950 N   0  0  0  0  0  2  0  0  0  0  0  0
  183.9270  178.9980  142.0060 C   0  0  0  0  0  0  0  0  0  0  0  0
  184.9110  179.4470  141.3630 O   0  0  0  0  0  0  0  0  0  0  0  0
  182.5560  179.1110  141.4100 C   0  0  2  0  0  3  0  0  0  0  0  0
  181.5500  178.6820  142.4670 C   0  0  0  0  0  1  0  0  0  0  0  0
  183.6130  176.9730  137.8270 C   0  0  1  0  0  3  0  0  0  0  0  0
  183.0810  176.9310  140.2400 C   0  0  0  0  0  2  0  0  0  0  0  0
  182.9910  179.0240  138.8690 C   0  0  1  0  0  3  0  0  0  0  0  0
  183.0060  176.1380  138.9440 C   0  0  0  0  0  2  0  0  0  0  0  0
  182.3930  178.2990  140.1020 C   0  0  2  0  0  3  0  0  0  0  0  0
  183.5750  176.1850  136.5350 C   0  0  0  0  0  1  0  0  0  0  0  0
  182.8430  178.2010  137.6680 N   0  0  0  0  0  2  0  0  0  0  0  0
  182.3250  180.3620  138.6000 C   0  0  0  0  0  1  0  0  0  0  0  0
  1  9  1  0  0  0  0
  3  1  2  0  0  0  0
  3  5  1  0  0  0  0
  4 14  1  0  0  0  0
  5  4  2  0  0  0  0
  6  2  2  0  0  0  0
  7  5  1  0  0  0  0
  8  2  1  0  0  0  0
  9 10  2  0  0  0  0
  9 14  1  0  0  0  0
 10  6  1  0  0  0  0
 11 12  2  0  0  0  0
 12 10  1  0  0  0  0
 13  3  1  0  0  0  0
 14  8  2  0  0  0  0
 15 11  1  0  0  0  0
 15  1  1  0  0  0  0
 16 11  1  0  0  0  0
 17 16  1  0  0  0  0
 18 17  2  0  0  0  0
 19 17  1  0  0  0  0
 19 20  1  1  0  0  0
 21 26  1  6  0  0  0
 21 24  1  0  0  0  0
 23 28  1  6  0  0  0
 23 25  1  0  0  0  0
 24 22  1  0  0  0  0
 25 22  1  0  0  0  0
 25 19  1  1  0  0  0
 27 21  1  0  0  0  0
 27 23  1  0  0  0  0
M  END
>  <MODEL>
2

>  <REMARK>
 VINA RESULT:      -9.6      1.051      1.251
  Name = 
  3 active torsions:
  status: ('A' for Active; 'I' for Inactive)
    1  A    between atoms: N_5  and  C_20
    2  A    between atoms: C_13  and  C_26
    3  A    between atoms: C_17  and  C_26
                            x       y       z     vdW  Elec       q    Type
                         _______ _______ _______ _____ _____    ______ ____

>  <TORSDO>
F 3

$$$$
=
 OpenBabel11062413333D

 28 31  0  0  1  0  0  0  0  0999 V2000
  188.7020  177.3070  144.5360 C   0  0  0  0  0  0  0  0  0  0  0  0
  191.6820  176.3780  147.3210 C   0  0  0  0  0  3  0  0  0  0  0  0
  187.3670  177.8590  144.9850 C   0  0  0  0  0  0  0  0  0  0  0  0
  188.3210  177.9610  147.2900 C   0  0  0  0  0  3  0  0  0  0  0  0
  187.3330  178.2650  146.4440 C   0  0  0  0  0  0  0  0  0  0  0  0
  191.9050  176.0980  145.9700 C   0  0  0  0  0  3  0  0  0  0  0  0
  186.1510  179.0030  146.9680 C   0  0  0  0  0  1  0  0  0  0  0  0
  190.5170  176.9600  147.7180 N   0  0  0  0  0  0  0  0  0  0  0  0
  189.7090  176.9950  145.4680 C   0  0  0  0  0  0  0  0  0  0  0  0
  190.9180  176.4140  145.0360 C   0  0  0  0  0  0  0  0  0  0  0  0
  190.1390  176.4930  142.7400 C   0  0  0  0  0  0  0  0  0  0  0  0
  191.1250  176.1680  143.6760 C   0  0  0  0  0  3  0  0  0  0  0  0
  186.2700  176.8410  144.7120 C   0  0  0  0  0  1  0  0  0  0  0  0
  189.5350  177.2740  146.8300 C   0  0  0  0  0  0  0  0  0  0  0  0
  188.9310  177.0590  143.1760 C   0  0  0  0  0  2  0  0  0  0  0  0
  190.3940  176.2320  141.3530 N   0  0  0  0  0  2  0  0  0  0  0  0
  191.3320  176.9160  140.5080 C   0  0  0  0  0  0  0  0  0  0  0  0
  192.0180  177.8780  140.9430 O   0  0  0  0  0  0  0  0  0  0  0  0
  191.4990  176.4900  139.0810 C   0  0  2  0  0  3  0  0  0  0  0  0
  192.8520  176.9880  138.6000 C   0  0  0  0  0  1  0  0  0  0  0  0
  187.5150  177.4450  137.7600 C   0  0  1  0  0  3  0  0  0  0  0  0
  189.6320  178.1740  138.8050 C   0  0  0  0  0  2  0  0  0  0  0  0
  189.3000  175.8700  137.8830 C   0  0  1  0  0  3  0  0  0  0  0  0
  188.4480  178.6270  137.9640 C   0  0  0  0  0  2  0  0  0  0  0  0
  190.3500  176.9750  138.1630 C   0  0  2  0  0  3  0  0  0  0  0  0
  186.3140  177.8870  136.9510 C   0  0  0  0  0  1  0  0  0  0  0  0
  188.2200  176.3890  137.0430 N   0  0  0  0  0  2  0  0  0  0  0  0
  189.8970  174.6640  137.1800 C   0  0  0  0  0  1  0  0  0  0  0  0
  1  3  2  0  0  0  0
  1  9  1  0  0  0  0
  2  8  1  0  0  0  0
  3  5  1  0  0  0  0
  5  7  1  0  0  0  0
  5  4  2  0  0  0  0
  6  2  2  0  0  0  0
  9 14  1  0  0  0  0
 10  9  2  0  0  0  0
 10  6  1  0  0  0  0
 11 15  1  0  0  0  0
 11 12  2  0  0  0  0
 12 10  1  0  0  0  0
 13  3  1  0  0  0  0
 14  4  1  0  0  0  0
 14  8  2  0  0  0  0
 15  1  1  0  0  0  0
 16 11  1  0  0  0  0
 17 18  2  0  0  0  0
 17 16  1  0  0  0  0
 19 20  1  6  0  0  0
 19 17  1  0  0  0  0
 21 26  1  6  0  0  0
 21 24  1  0  0  0  0
 23 28  1  6  0  0  0
 23 25  1  0  0  0  0
 24 22  1  0  0  0  0
 25 22  1  0  0  0  0
 25 19  1  1  0  0  0
 27 21  1  0  0  0  0
 27 23  1  0  0  0  0
M  END
>  <MODEL>
3

>  <REMARK>
 VINA RESULT:      -9.6      3.896      6.306
  Name = 
  3 active torsions:
  status: ('A' for Active; 'I' for Inactive)
    1  A    between atoms: N_5  and  C_20
    2  A    between atoms: C_13  and  C_26
    3  A    between atoms: C_17  and  C_26
                            x       y       z     vdW  Elec       q    Type
                         _______ _______ _______ _____ _____    ______ ____

>  <TORSDO>
F 3

$$$$
=
 OpenBabel11062413333D

 28 31  0  0  1  0  0  0  0  0999 V2000
  189.3500  177.0940  144.5400 C   0  0  0  0  0  0  0  0  0  0  0  0
  185.9470  178.2810  146.6620 C   0  0  0  0  0  3  0  0  0  0  0  0
  190.6600  176.8440  145.2530 C   0  0  0  0  0  0  0  0  0  0  0  0
  189.4200  177.1830  147.3940 C   0  0  0  0  0  3  0  0  0  0  0  0
  190.5370  176.8110  146.7630 C   0  0  0  0  0  0  0  0  0  0  0  0
  185.8810  178.1940  145.2690 C   0  0  0  0  0  3  0  0  0  0  0  0
  191.7050  176.3800  147.5800 C   0  0  0  0  0  1  0  0  0  0  0  0
  187.0990  177.9670  147.3160 N   0  0  0  0  0  0  0  0  0  0  0  0
  188.2020  177.4910  145.2490 C   0  0  0  0  0  0  0  0  0  0  0  0
  187.0110  177.7900  144.5560 C   0  0  0  0  0  0  0  0  0  0  0  0
  188.0960  177.2570  142.4540 C   0  0  0  0  0  0  0  0  0  0  0  0
  186.9660  177.6710  143.1660 C   0  0  0  0  0  3  0  0  0  0  0  0
  191.6790  177.8970  144.8460 C   0  0  0  0  0  1  0  0  0  0  0  0
  188.2170  177.5750  146.6470 C   0  0  0  0  0  0  0  0  0  0  0  0
  189.2840  176.9740  143.1460 C   0  0  0  0  0  2  0  0  0  0  0  0
  188.0050  177.1400  141.0270 N   0  0  0  0  0  2  0  0  0  0  0  0
  188.1680  178.1940  140.0660 C   0  0  0  0  0  0  0  0  0  0  0  0
  188.3850  179.3790  140.4310 O   0  0  0  0  0  0  0  0  0  0  0  0
  188.0730  177.8890  138.6010 C   0  0  2  0  0  3  0  0  0  0  0  0
  189.1160  178.7310  137.8810 C   0  0  0  0  0  1  0  0  0  0  0  0
  183.8680  177.3190  137.8810 C   0  0  1  0  0  3  0  0  0  0  0  0
  185.6670  178.4340  139.1580 C   0  0  0  0  0  2  0  0  0  0  0  0
  186.1230  176.8870  137.2420 C   0  0  1  0  0  3  0  0  0  0  0  0
  184.2480  178.5860  138.6320 C   0  0  0  0  0  2  0  0  0  0  0  0
  186.6550  178.1160  138.0230 C   0  0  2  0  0  3  0  0  0  0  0  0
  182.4460  177.4420  137.3780 C   0  0  0  0  0  1  0  0  0  0  0  0
  184.7690  177.1390  136.7490 N   0  0  0  0  0  2  0  0  0  0  0  0
  186.9940  176.5330  136.0500 C   0  0  0  0  0  1  0  0  0  0  0  0
  1  9  1  0  0  0  0
  1  3  2  0  0  0  0
  2  8  1  0  0  0  0
  3  5  1  0  0  0  0
  5  4  2  0  0  0  0
  5  7  1  0  0  0  0
  6  2  2  0  0  0  0
  9 14  1  0  0  0  0
 10  9  2  0  0  0  0
 10  6  1  0  0  0  0
 11 15  1  0  0  0  0
 11 12  2  0  0  0  0
 12 10  1  0  0  0  0
 13  3  1  0  0  0  0
 14  8  2  0  0  0  0
 14  4  1  0  0  0  0
 15  1  1  0  0  0  0
 16 11  1  0  0  0  0
 17 18  2  0  0  0  0
 17 16  1  0  0  0  0
 19 20  1  6  0  0  0
 19 17  1  0  0  0  0
 21 26  1  6  0  0  0
 21 24  1  0  0  0  0
 23 28  1  6  0  0  0
 23 25  1  0  0  0  0
 24 22  1  0  0  0  0
 25 19  1  1  0  0  0
 25 22  1  0  0  0  0
 27 23  1  0  0  0  0
 27 21  1  0  0  0  0
M  END
>  <MODEL>
4

>  <REMARK>
 VINA RESULT:      -9.5      2.644      4.211
  Name = 
  3 active torsions:
  status: ('A' for Active; 'I' for Inactive)
    1  A    between atoms: N_5  and  C_20
    2  A    between atoms: C_13  and  C_26
    3  A    between atoms: C_17  and  C_26
                            x       y       z     vdW  Elec       q    Type
                         _______ _______ _______ _____ _____    ______ ____

>  <TORSDO>
F 3

$$$$
=
 OpenBabel11062413333D

 28 31  0  0  1  0  0  0  0  0999 V2000
  187.9130  177.5060  144.8720 C   0  0  0  0  0  0  0  0  0  0  0  0
  184.1880  179.3280  144.3200 C   0  0  0  0  0  3  0  0  0  0  0  0
  188.5070  177.3610  146.2550 C   0  0  0  0  0  0  0  0  0  0  0  0
  186.3500  178.2530  147.1430 C   0  0  0  0  0  3  0  0  0  0  0  0
  187.5380  177.6870  147.3730 C   0  0  0  0  0  0  0  0  0  0  0  0
  184.9180  178.9220  143.1980 C   0  0  0  0  0  3  0  0  0  0  0  0
  187.9270  177.3990  148.7820 C   0  0  0  0  0  1  0  0  0  0  0  0
  184.6790  179.1160  145.5720 N   0  0  0  0  0  0  0  0  0  0  0  0
  186.6590  178.1150  144.6800 C   0  0  0  0  0  0  0  0  0  0  0  0
  186.1570  178.3060  143.3770 C   0  0  0  0  0  0  0  0  0  0  0  0
  188.1330  177.2420  142.4560 C   0  0  0  0  0  0  0  0  0  0  0  0
  186.8950  177.8680  142.2750 C   0  0  0  0  0  3  0  0  0  0  0  0
  189.7450  178.2370  146.3790 C   0  0  0  0  0  1  0  0  0  0  0  0
  185.8860  178.5220  145.7760 C   0  0  0  0  0  0  0  0  0  0  0  0
  188.6360  177.0670  143.7550 C   0  0  0  0  0  2  0  0  0  0  0  0
  188.8550  176.8010  141.2980 N   0  0  0  0  0  2  0  0  0  0  0  0
  190.1830  177.1900  140.9150 C   0  0  0  0  0  0  0  0  0  0  0  0
  190.8380  178.0240  141.5920 O   0  0  0  0  0  0  0  0  0  0  0  0
  190.8050  176.6030  139.6830 C   0  0  2  0  0  3  0  0  0  0  0  0
  192.2980  176.8930  139.7320 C   0  0  0  0  0  1  0  0  0  0  0  0
  187.7750  177.7610  136.8540 C   0  0  1  0  0  3  0  0  0  0  0  0
  189.3510  178.3960  138.6490 C   0  0  0  0  0  2  0  0  0  0  0  0
  189.2250  176.0760  137.7140 C   0  0  1  0  0  3  0  0  0  0  0  0
  188.6440  178.8860  137.3950 C   0  0  0  0  0  2  0  0  0  0  0  0
  190.1640  177.1200  138.3730 C   0  0  2  0  0  3  0  0  0  0  0  0
  187.0390  178.2440  135.6230 C   0  0  0  0  0  1  0  0  0  0  0  0
  188.6190  176.6260  136.5010 N   0  0  0  0  0  2  0  0  0  0  0  0
  189.9520  174.7990  137.3320 C   0  0  0  0  0  1  0  0  0  0  0  0
  1  3  2  0  0  0  0
  2  8  1  0  0  0  0
  3 13  1  0  0  0  0
  3  5  1  0  0  0  0
  4  5  2  0  0  0  0
  5  7  1  0  0  0  0
  6 10  1  0  0  0  0
  6  2  2  0  0  0  0
  8 14  2  0  0  0  0
  9  1  1  0  0  0  0
  9 14  1  0  0  0  0
 10  9  2  0  0  0  0
 11 15  1  0  0  0  0
 12 11  2  0  0  0  0
 12 10  1  0  0  0  0
 14  4  1  0  0  0  0
 15  1  1  0  0  0  0
 16 11  1  0  0  0  0
 17 16  1  0  0  0  0
 17 18  2  0  0  0  0
 19 20  1  6  0  0  0
 19 17  1  0  0  0  0
 21 26  1  6  0  0  0
 21 24  1  0  0  0  0
 23 28  1  6  0  0  0
 23 25  1  0  0  0  0
 24 22  1  0  0  0  0
 25 22  1  0  0  0  0
 25 19  1  1  0  0  0
 27 21  1  0  0  0  0
 27 23  1  0  0  0  0
M  END
>  <MODEL>
5

>  <REMARK>
 VINA RESULT:      -9.4      3.614      6.192
  Name = 
  3 active torsions:
  status: ('A' for Active; 'I' for Inactive)
    1  A    between atoms: N_5  and  C_20
    2  A    between atoms: C_13  and  C_26
    3  A    between atoms: C_17  and  C_26
                            x       y       z     vdW  Elec       q    Type
                         _______ _______ _______ _____ _____    ______ ____

>  <TORSDO>
F 3

$$$$
=
 OpenBabel11062413333D

 28 31  0  0  1  0  0  0  0  0999 V2000
  189.3570  177.7040  143.6200 C   0  0  0  0  0  0  0  0  0  0  0  0
  185.6470  178.0240  145.5240 C   0  0  0  0  0  3  0  0  0  0  0  0
  190.6210  177.4750  144.4180 C   0  0  0  0  0  0  0  0  0  0  0  0
  189.1610  177.2270  146.4290 C   0  0  0  0  0  3  0  0  0  0  0  0
  190.3700  177.1260  145.8710 C   0  0  0  0  0  0  0  0  0  0  0  0
  185.7180  178.2110  144.1400 C   0  0  0  0  0  3  0  0  0  0  0  0
  191.5100  176.6840  146.7220 C   0  0  0  0  0  1  0  0  0  0  0  0
  186.7690  177.7270  146.2350 N   0  0  0  0  0  0  0  0  0  0  0  0
  188.1070  177.8100  144.2540 C   0  0  0  0  0  0  0  0  0  0  0  0
  186.9520  178.0960  143.4990 C   0  0  0  0  0  0  0  0  0  0  0  0
  188.2820  178.1290  141.4710 C   0  0  0  0  0  0  0  0  0  0  0  0
  187.0470  178.2530  142.1140 C   0  0  0  0  0  3  0  0  0  0  0  0
  191.5150  178.7030  144.3340 C   0  0  0  0  0  1  0  0  0  0  0  0
  187.9860  177.6140  145.6370 C   0  0  0  0  0  0  0  0  0  0  0  0
  189.4320  177.8580  142.2290 C   0  0  0  0  0  2  0  0  0  0  0  0
  188.3350  178.2890  140.0470 N   0  0  0  0  0  2  0  0  0  0  0  0
  189.0160  177.4390  139.1110 C   0  0  0  0  0  0  0  0  0  0  0  0
  189.6850  176.4460  139.5010 O   0  0  0  0  0  0  0  0  0  0  0  0
  188.9410  177.7340  137.6430 C   0  0  2  0  0  3  0  0  0  0  0  0
  189.0560  179.2400  137.4640 C   0  0  0  0  0  1  0  0  0  0  0  0
  185.1500  175.7400  137.2180 C   0  0  1  0  0  3  0  0  0  0  0  0
  186.4140  177.8310  137.5880 C   0  0  0  0  0  2  0  0  0  0  0  0
  187.5300  175.6370  137.1310 C   0  0  1  0  0  3  0  0  0  0  0  0
  185.1360  177.2450  137.0080 C   0  0  0  0  0  2  0  0  0  0  0  0
  187.6620  177.1740  136.9750 C   0  0  2  0  0  3  0  0  0  0  0  0
  183.8690  175.1450  136.6740 C   0  0  0  0  0  1  0  0  0  0  0  0
  186.2900  175.1630  136.5150 N   0  0  0  0  0  2  0  0  0  0  0  0
  188.6830  174.8860  136.4900 C   0  0  0  0  0  1  0  0  0  0  0  0
  1  9  1  0  0  0  0
  1  3  2  0  0  0  0
  2  8  1  0  0  0  0
  3  5  1  0  0  0  0
  5  4  2  0  0  0  0
  5  7  1  0  0  0  0
  6  2  2  0  0  0  0
  9 14  1  0  0  0  0
 10  6  1  0  0  0  0
 10  9  2  0  0  0  0
 11 12  2  0  0  0  0
 11 15  1  0  0  0  0
 12 10  1  0  0  0  0
 13  3  1  0  0  0  0
 14  8  2  0  0  0  0
 14  4  1  0  0  0  0
 15  1  1  0  0  0  0
 16 11  1  0  0  0  0
 17 18  2  0  0  0  0
 17 16  1  0  0  0  0
 19 20  1  1  0  0  0
 19 17  1  0  0  0  0
 21 26  1  6  0  0  0
 23 28  1  6  0  0  0
 24 21  1  0  0  0  0
 24 22  1  0  0  0  0
 25 23  1  0  0  0  0
 25 22  1  0  0  0  0
 25 19  1  1  0  0  0
 27 23  1  0  0  0  0
 27 21  1  0  0  0  0
M  END
>  <MODEL>
6

>  <REMARK>
 VINA RESULT:      -9.3      3.505      5.134
  Name = 
  3 active torsions:
  status: ('A' for Active; 'I' for Inactive)
    1  A    between atoms: N_5  and  C_20
    2  A    between atoms: C_13  and  C_26
    3  A    between atoms: C_17  and  C_26
                            x       y       z     vdW  Elec       q    Type
                         _______ _______ _______ _____ _____    ______ ____

>  <TORSDO>
F 3

$$$$
=
 OpenBabel11062413333D

 28 31  0  0  1  0  0  0  0  0999 V2000
  186.5490  177.8530  143.3650 C   0  0  0  0  0  0  0  0  0  0  0  0
  186.7070  178.2730  147.5230 C   0  0  0  0  0  3  0  0  0  0  0  0
  187.7350  177.3190  142.5940 C   0  0  0  0  0  0  0  0  0  0  0  0
  188.8180  176.8810  144.8010 C   0  0  0  0  0  3  0  0  0  0  0  0
  188.8220  176.7350  143.4730 C   0  0  0  0  0  0  0  0  0  0  0  0
  185.5670  178.7080  146.8410 C   0  0  0  0  0  3  0  0  0  0  0  0
  189.9530  176.0000  142.8430 C   0  0  0  0  0  1  0  0  0  0  0  0
  187.7410  177.7070  146.8420 N   0  0  0  0  0  0  0  0  0  0  0  0
  186.5950  177.9940  144.7630 C   0  0  0  0  0  0  0  0  0  0  0  0
  185.5060  178.5620  145.4540 C   0  0  0  0  0  0  0  0  0  0  0  0
  184.3040  178.8100  143.3620 C   0  0  0  0  0  0  0  0  0  0  0  0
  184.3690  178.9650  144.7500 C   0  0  0  0  0  3  0  0  0  0  0  0
  188.3200  178.4180  141.7190 C   0  0  0  0  0  1  0  0  0  0  0  0
  187.7100  177.5560  145.4900 C   0  0  0  0  0  0  0  0  0  0  0  0
  185.3970  178.2570  142.6760 C   0  0  0  0  0  2  0  0  0  0  0  0
  183.1160  179.2300  142.6780 N   0  0  0  0  0  2  0  0  0  0  0  0
  181.7600  179.0050  143.0940 C   0  0  0  0  0  0  0  0  0  0  0  0
  181.5000  178.3540  144.1400 O   0  0  0  0  0  0  0  0  0  0  0  0
  180.6280  179.5450  142.2720 C   0  0  2  0  0  3  0  0  0  0  0  0
  179.4810  179.8720  143.2160 C   0  0  0  0  0  1  0  0  0  0  0  0
  180.5290  176.0690  139.7350 C   0  0  1  0  0  3  0  0  0  0  0  0
  179.7020  177.2520  141.7410 C   0  0  0  0  0  2  0  0  0  0  0  0
  181.3220  178.2820  140.1330 C   0  0  1  0  0  3  0  0  0  0  0  0
  179.3320  176.2560  140.6530 C   0  0  0  0  0  2  0  0  0  0  0  0
  180.1850  178.5840  141.1430 C   0  0  2  0  0  3  0  0  0  0  0  0
  180.1870  175.0560  138.6640 C   0  0  0  0  0  1  0  0  0  0  0  0
  180.8630  177.3430  139.1090 N   0  0  0  0  0  2  0  0  0  0  0  0
  181.8220  179.5300  139.4290 C   0  0  0  0  0  1  0  0  0  0  0  0
  1  9  1  0  0  0  0
  3  1  2  0  0  0  0
  3  5  1  0  0  0  0
  4 14  1  0  0  0  0
  5  4  2  0  0  0  0
  6  2  2  0  0  0  0
  7  5  1  0  0  0  0
  8  2  1  0  0  0  0
  9 10  2  0  0  0  0
  9 14  1  0  0  0  0
 10  6  1  0  0  0  0
 11 12  2  0  0  0  0
 12 10  1  0  0  0  0
 13  3  1  0  0  0  0
 14  8  2  0  0  0  0
 15 11  1  0  0  0  0
 15  1  1  0  0  0  0
 16 17  1  0  0  0  0
 16 11  1  0  0  0  0
 17 18  2  0  0  0  0
 19 17  1  0  0  0  0
 19 20  1  1  0  0  0
 21 26  1  6  0  0  0
 21 24  1  0  0  0  0
 23 28  1  6  0  0  0
 23 25  1  0  0  0  0
 24 22  1  0  0  0  0
 25 22  1  0  0  0  0
 25 19  1  1  0  0  0
 27 21  1  0  0  0  0
 27 23  1  0  0  0  0
M  END
>  <MODEL>
7

>  <REMARK>
 VINA RESULT:      -9.2      1.923      2.440
  Name = 
  3 active torsions:
  status: ('A' for Active; 'I' for Inactive)
    1  A    between atoms: N_5  and  C_20
    2  A    between atoms: C_13  and  C_26
    3  A    between atoms: C_17  and  C_26
                            x       y       z     vdW  Elec       q    Type
                         _______ _______ _______ _____ _____    ______ ____

>  <TORSDO>
F 3

$$$$
=
 OpenBabel11062413333D

 28 31  0  0  1  0  0  0  0  0999 V2000
  188.2570  177.3580  144.3900 C   0  0  0  0  0  0  0  0  0  0  0  0
  187.2320  178.6150  148.2460 C   0  0  0  0  0  3  0  0  0  0  0  0
  189.6690  176.9230  144.0660 C   0  0  0  0  0  0  0  0  0  0  0  0
  190.1680  177.1490  146.5020 C   0  0  0  0  0  3  0  0  0  0  0  0
  190.5490  176.7470  145.2870 C   0  0  0  0  0  0  0  0  0  0  0  0
  186.2700  178.6760  147.2340 C   0  0  0  0  0  3  0  0  0  0  0  0
  191.8970  176.1360  145.1310 C   0  0  0  0  0  1  0  0  0  0  0  0
  188.4790  178.1360  147.9790 N   0  0  0  0  0  0  0  0  0  0  0  0
  187.9060  177.7800  145.6850 C   0  0  0  0  0  0  0  0  0  0  0  0
  186.6040  178.2510  145.9480 C   0  0  0  0  0  0  0  0  0  0  0  0
  185.9870  177.8420  143.6380 C   0  0  0  0  0  0  0  0  0  0  0  0
  185.6540  178.2780  144.9240 C   0  0  0  0  0  3  0  0  0  0  0  0
  190.3100  177.9200  143.1120 C   0  0  0  0  0  1  0  0  0  0  0  0
  188.8340  177.7190  146.7340 C   0  0  0  0  0  0  0  0  0  0  0  0
  187.2890  177.3870  143.3770 C   0  0  0  0  0  2  0  0  0  0  0  0
  184.9800  177.8790  142.6170 N   0  0  0  0  0  2  0  0  0  0  0  0
  184.9190  178.7830  141.5040 C   0  0  0  0  0  0  0  0  0  0  0  0
  185.7820  179.6870  141.3510 O   0  0  0  0  0  0  0  0  0  0  0  0
  183.8070  178.6620  140.5050 C   0  0  2  0  0  3  0  0  0  0  0  0
  184.1520  179.5430  139.3140 C   0  0  0  0  0  1  0  0  0  0  0  0
  180.2790  178.4010  142.9560 C   0  0  1  0  0  3  0  0  0  0  0  0
  182.5440  179.3200  142.5950 C   0  0  0  0  0  2  0  0  0  0  0  0
  181.3870  177.8680  140.9140 C   0  0  1  0  0  3  0  0  0  0  0  0
  181.1850  179.5920  143.2210 C   0  0  0  0  0  2  0  0  0  0  0  0
  182.4190  179.0120  141.0930 C   0  0  2  0  0  3  0  0  0  0  0  0
  178.9310  178.6430  143.6010 C   0  0  0  0  0  1  0  0  0  0  0  0
  180.1060  178.2340  141.5170 N   0  0  0  0  0  2  0  0  0  0  0  0
  181.1350  177.5350  139.4550 C   0  0  0  0  0  1  0  0  0  0  0  0
  1  9  1  0  0  0  0
  3  1  2  0  0  0  0
  3  5  1  0  0  0  0
  4 14  1  0  0  0  0
  5  4  2  0  0  0  0
  6  2  2  0  0  0  0
  7  5  1  0  0  0  0
  8  2  1  0  0  0  0
  9 10  2  0  0  0  0
  9 14  1  0  0  0  0
 10  6  1  0  0  0  0
 11 12  2  0  0  0  0
 12 10  1  0  0  0  0
 13  3  1  0  0  0  0
 14  8  2  0  0  0  0
 15 11  1  0  0  0  0
 15  1  1  0  0  0  0
 16 11  1  0  0  0  0
 17 16  1  0  0  0  0
 18 17  2  0  0  0  0
 19 20  1  6  0  0  0
 19 17  1  0  0  0  0
 21 24  1  0  0  0  0
 21 26  1  1  0  0  0
 22 24  1  0  0  0  0
 23 28  1  6  0  0  0
 23 25  1  0  0  0  0
 23 27  1  0  0  0  0
 25 19  1  1  0  0  0
 25 22  1  0  0  0  0
 27 21  1  0  0  0  0
M  END
>  <MODEL>
8

>  <REMARK>
 VINA RESULT:      -9.2      1.357      2.611
  Name = 
  3 active torsions:
  status: ('A' for Active; 'I' for Inactive)
    1  A    between atoms: N_5  and  C_20
    2  A    between atoms: C_13  and  C_26
    3  A    between atoms: C_17  and  C_26
                            x       y       z     vdW  Elec       q    Type
                         _______ _______ _______ _____ _____    ______ ____

>  <TORSDO>
F 3

$$$$
=
 OpenBabel11062413333D

 28 31  0  0  1  0  0  0  0  0999 V2000
  188.0920  177.8080  143.6630 C   0  0  0  0  0  0  0  0  0  0  0  0
  184.1400  178.8720  144.5260 C   0  0  0  0  0  3  0  0  0  0  0  0
  189.0600  177.4590  144.7710 C   0  0  0  0  0  0  0  0  0  0  0  0
  187.1300  177.6260  146.3460 C   0  0  0  0  0  3  0  0  0  0  0  0
  188.4030  177.2880  146.1250 C   0  0  0  0  0  0  0  0  0  0  0  0
  184.5800  178.9180  143.2000 C   0  0  0  0  0  3  0  0  0  0  0  0
  189.2040  176.7540  147.2610 C   0  0  0  0  0  1  0  0  0  0  0  0
  184.9840  178.4700  145.5170 N   0  0  0  0  0  0  0  0  0  0  0  0
  186.7610  178.1640  143.9470 C   0  0  0  0  0  0  0  0  0  0  0  0
  185.8950  178.5560  142.9060 C   0  0  0  0  0  0  0  0  0  0  0  0
  187.6690  178.1960  141.2910 C   0  0  0  0  0  0  0  0  0  0  0  0
  186.3540  178.5690  141.5870 C   0  0  0  0  0  3  0  0  0  0  0  0
  190.1460  178.5220  144.8600 C   0  0  0  0  0  1  0  0  0  0  0  0
  186.2720  178.1160  145.2590 C   0  0  0  0  0  0  0  0  0  0  0  0
  188.5320  177.8210  142.3330 C   0  0  0  0  0  2  0  0  0  0  0  0
  188.0990  178.2160  139.9230 N   0  0  0  0  0  2  0  0  0  0  0  0
  189.1910  177.4780  139.3550 C   0  0  0  0  0  0  0  0  0  0  0  0
  189.9180  176.7380  140.0680 O   0  0  0  0  0  0  0  0  0  0  0  0
  189.4840  177.5900  137.8880 C   0  0  2  0  0  3  0  0  0  0  0  0
  189.0200  178.9610  137.4230 C   0  0  0  0  0  1  0  0  0  0  0  0
  187.4170  173.9290  136.9640 C   0  0  1  0  0  3  0  0  0  0  0  0
  187.3370  176.3700  137.3420 C   0  0  0  0  0  2  0  0  0  0  0  0
  189.4760  175.0690  137.3440 C   0  0  1  0  0  3  0  0  0  0  0  0
  186.6920  175.2130  136.5950 C   0  0  0  0  0  2  0  0  0  0  0  0
  188.8440  176.4550  137.0520 C   0  0  2  0  0  3  0  0  0  0  0  0
  186.7660  172.7630  136.2520 C   0  0  0  0  0  1  0  0  0  0  0  0
  188.8140  174.0280  136.5570 N   0  0  0  0  0  2  0  0  0  0  0  0
  190.9580  175.0240  137.0190 C   0  0  0  0  0  1  0  0  0  0  0  0
  1  9  1  0  0  0  0
  1  3  2  0  0  0  0
  2  8  1  0  0  0  0
  3 13  1  0  0  0  0
  3  5  1  0  0  0  0
  5  4  2  0  0  0  0
  5  7  1  0  0  0  0
  6  2  2  0  0  0  0
  9 14  1  0  0  0  0
 10  6  1  0  0  0  0
 10  9  2  0  0  0  0
 11 12  2  0  0  0  0
 11 15  1  0  0  0  0
 12 10  1  0  0  0  0
 14  8  2  0  0  0  0
 14  4  1  0  0  0  0
 15  1  1  0  0  0  0
 16 11  1  0  0  0  0
 17 16  1  0  0  0  0
 17 18  2  0  0  0  0
 19 20  1  6  0  0  0
 19 17  1  0  0  0  0
 21 26  1  6  0  0  0
 23 28  1  6  0  0  0
 24 21  1  0  0  0  0
 24 22  1  0  0  0  0
 25 22  1  0  0  0  0
 25 23  1  0  0  0  0
 25 19  1  1  0  0  0
 27 21  1  0  0  0  0
 27 23  1  0  0  0  0
M  END
>  <MODEL>
9

>  <REMARK>
 VINA RESULT:      -9.2      4.133      6.078
  Name = 
  3 active torsions:
  status: ('A' for Active; 'I' for Inactive)
    1  A    between atoms: N_5  and  C_20
    2  A    between atoms: C_13  and  C_26
    3  A    between atoms: C_17  and  C_26
                            x       y       z     vdW  Elec       q    Type
                         _______ _______ _______ _____ _____    ______ ____

>  <TORSDO>
F 3

$$$$
