=
 OpenBabel11062414053D

 53 60  0  0  1  0  0  0  0  0999 V2000
  185.9670  178.9380  147.3600 N   0  0  0  0  0  2  0  0  0  0  0  0
  187.1200  178.2260  147.9000 C   0  0  0  0  0  2  0  0  0  0  0  0
  186.2380  179.0850  145.9370 C   0  0  1  0  0  3  0  0  0  0  0  0
  187.6720  177.3530  146.7850 C   0  0  0  0  0  2  0  0  0  0  0  0
  187.1180  177.9310  145.5080 C   0  0  2  0  0  3  0  0  0  0  0  0
  185.0080  178.8500  143.6720 C   0  0  2  0  0  3  0  0  0  0  0  0
  184.9400  179.0780  145.1400 C   0  0  2  0  0  0  0  0  0  0  0  0
  184.8530  180.1440  144.2260 O   0  0  0  0  0  0  0  0  0  0  0  0
  183.7280  178.8530  145.8030 O   0  0  0  0  0  1  0  0  0  0  0  0
  183.6850  178.3990  143.0770 C   0  0  0  0  0  2  0  0  0  0  0  0
  183.5030  179.0180  141.7030 C   0  0  1  0  0  3  0  0  0  0  0  0
  184.5960  178.5460  140.7620 C   0  0  0  0  0  2  0  0  0  0  0  0
  182.4410  178.3940  139.8180 C   0  0  1  0  0  3  0  0  0  0  0  0
  183.8480  177.8430  139.6750 C   0  0  1  0  0  3  0  0  0  0  0  0
  182.2430  178.6540  141.1840 O   0  0  0  0  0  0  0  0  0  0  0  0
  184.4860  178.0870  138.3100 C   0  0  0  0  0  2  0  0  0  0  0  0
  185.0950  175.6670  135.2770 C   0  0  0  0  0  2  0  0  0  0  0  0
  184.1940  174.5300  135.7500 C   0  0  0  0  0  2  0  0  0  0  0  0
  184.9210  176.9990  136.0310 C   0  0  1  0  0  3  0  0  0  0  0  0
  183.5540  177.2990  136.2100 O   0  0  0  0  0  0  0  0  0  0  0  0
  184.2630  176.9120  137.3670 C   0  0  2  0  0  0  0  0  0  0  0  0
  184.3220  174.3780  137.2500 C   0  0  0  0  0  2  0  0  0  0  0  0
  183.7180  175.5950  137.9310 C   0  0  0  0  0  2  0  0  0  0  0  0
  182.2820  179.5880  139.0980 O   0  0  0  0  0  0  0  0  0  0  0  0
  180.9910  179.8410  139.1350 O   0  0  0  0  0  0  0  0  0  0  0  0
  180.8850  181.2050  138.8480 C   0  0  0  0  0  3  0  0  0  0  0  0
  181.0460  181.4120  137.3560 C   0  0  0  0  0  2  0  0  0  0  0  0
  179.6690  181.4390  137.9750 C   0  0  0  0  0  2  0  0  0  0  0  0
  188.2430  178.4460  144.6180 C   0  0  0  0  0  2  0  0  0  0  0  0
  189.3140  177.3910  144.3270 C   0  0  2  0  0  3  0  0  0  0  0  0
  192.5240  175.9690  147.4230 O   0  0  0  0  0  1  0  0  0  0  0  0
  191.2040  176.3200  147.1760 C   0  0  0  0  0  3  0  0  0  0  0  0
  190.6120  177.6810  145.0240 C   0  0  0  0  0  0  0  0  0  0  0  0
  190.9050  177.0000  146.1030 C   0  0  0  0  0  0  0  0  0  0  0  0
  191.1680  179.7990  143.8720 C   0  0  0  0  0  2  0  0  0  0  0  0
  191.5540  178.6730  144.4630 C   0  0  0  0  0  3  0  0  0  0  0  0
  190.3800  176.0020  140.9170 N   0  0  0  0  0  2  0  0  0  0  0  0
  190.3580  175.0550  143.0390 O   0  0  0  0  0  0  0  0  0  0  0  0
  190.0930  176.0530  142.3170 C   0  0  0  0  0  0  0  0  0  0  0  0
  189.5130  177.2280  142.8940 N   0  0  0  0  0  2  0  0  0  0  0  0
  190.1870  177.1260  140.0020 C   0  0  2  0  0  3  0  0  0  0  0  0
  188.7090  177.4790  139.8690 C   0  0  0  0  0  2  0  0  0  0  0  0
  188.2310  177.2140  138.4540 C   0  0  0  0  0  2  0  0  0  0  0  0
  187.5740  179.3630  136.9130 N   0  0  0  0  0  0  0  0  0  0  0  0
  188.8540  179.6220  137.2790 O   0  0  0  0  0  0  0  0  0  0  0  0
  188.2230  178.4890  137.6840 C   0  0  0  0  0  0  0  0  0  0  0  0
  190.7410  176.8050  138.6940 N   0  0  0  0  0  2  0  0  0  0  0  0
  191.2930  175.5730  138.7870 O   0  0  0  0  0  0  0  0  0  0  0  0
  193.7280  175.2080  137.4790 C   0  0  0  0  0  1  0  0  0  0  0  0
  189.9580  174.2400  137.1250 C   0  0  0  0  0  1  0  0  0  0  0  0
  191.6240  175.9910  136.4270 C   0  0  0  0  0  2  0  0  0  0  0  0
  191.2010  175.0220  137.4980 C   0  0  1  0  0  0  0  0  0  0  0  0
  192.4820  174.7700  136.7170 C   0  0  2  0  0  3  0  0  0  0  0  0
  1  2  1  0  0  0  0
  3  1  1  1  0  0  0
  4  2  1  0  0  0  0
  5 29  1  6  0  0  0
  5  3  1  0  0  0  0
  5  4  1  0  0  0  0
  6 10  1  6  0  0  0
  6  8  1  0  0  0  0
  6  7  1  0  0  0  0
  7  9  1  1  0  0  0
  7  3  1  0  0  0  0
  8  7  1  0  0  0  0
 11 10  1  1  0  0  0
 12 11  1  0  0  0  0
 13 24  1  6  0  0  0
 13 15  1  0  0  0  0
 14 16  1  6  0  0  0
 14 13  1  0  0  0  0
 14 12  1  0  0  0  0
 15 11  1  0  0  0  0
 17 18  1  0  0  0  0
 18 22  1  0  0  0  0
 19 17  1  6  0  0  0
 19 20  1  0  0  0  0
 19 21  1  0  0  0  0
 20 21  1  0  0  0  0
 21 23  1  0  0  0  0
 21 16  1  1  0  0  0
 22 23  1  0  0  0  0
 24 25  1  0  0  0  0
 26 25  1  0  0  0  0
 27 28  1  0  0  0  0
 27 26  1  0  0  0  0
 28 26  1  0  0  0  0
 30 29  1  6  0  0  0
 30 33  1  0  0  0  0
 32 31  1  0  0  0  0
 33 34  2  0  0  0  0
 34 32  2  0  0  0  0
 35 36  2  0  0  0  0
 36 33  1  0  0  0  0
 37 39  1  0  0  0  0
 39 40  1  0  0  0  0
 39 38  2  0  0  0  0
 40 30  1  0  0  0  0
 41 42  1  6  0  0  0
 41 37  1  0  0  0  0
 43 42  1  0  0  0  0
 44 45  1  0  0  0  0
 44 46  2  0  0  0  0
 45 46  1  0  0  0  0
 46 43  1  0  0  0  0
 47 48  1  0  0  0  0
 47 41  1  0  0  0  0
 51 53  1  0  0  0  0
 51 52  1  0  0  0  0
 52 50  1  6  0  0  0
 52 48  1  0  0  0  0
 53 49  1  1  0  0  0
 53 52  1  0  0  0  0
M  END
>  <MODEL>
1

>  <REMARK>
 VINA RESULT:      -7.8      0.000      0.000
  Name = 
  20 active torsions:
  status: ('A' for Active; 'I' for Inactive)
    1  A    between atoms: C_1  and  C_48
    2  A    between atoms: C_8  and  C_18
    3  A    between atoms: C_8  and  C_32
    4  A    between atoms: N_10  and  C_42
    5  A    between atoms: N_10  and  O_52
    6  A    between atoms: C_11  and  C_35
    7  A    between atoms: C_11  and  C_40
    8  A    between atoms: C_11  and  N_43
    9  A    between atoms: C_12  and  O_52
   10  A    between atoms: O_13  and  C_19
   11  A    between atoms: O_13  and  O_27
   12  A    between atoms: N_15  and  C_42
   13  A    between atoms: C_16  and  C_30
   14  A    between atoms: C_16  and  C_33
   15  A    between atoms: C_18  and  C_42
   16  A    between atoms: C_20  and  C_48
   17  A    between atoms: C_21  and  O_27
   18  A    between atoms: C_26  and  C_34
   19  A    between atoms: C_35  and  C_51
   20  A    between atoms: C_40  and  C_53
                            x       y       z     vdW  Elec       q    Type
                         _______ _______ _______ _____ _____    ______ ____

>  <TORSDO>
F 20

$$$$
=
 OpenBabel11062414053D

 53 60  0  0  1  0  0  0  0  0999 V2000
  190.7960  174.2460  137.5090 N   0  0  0  0  0  2  0  0  0  0  0  0
  192.0280  174.9770  137.7820 C   0  0  0  0  0  2  0  0  0  0  0  0
  189.7430  175.2510  137.5240 C   0  0  1  0  0  3  0  0  0  0  0  0
  191.8410  176.3890  137.2500 C   0  0  0  0  0  2  0  0  0  0  0  0
  190.3520  176.5730  137.1100 C   0  0  2  0  0  3  0  0  0  0  0  0
  187.3650  174.3060  137.1280 C   0  0  2  0  0  3  0  0  0  0  0  0
  188.6230  174.8680  136.5660 C   0  0  2  0  0  0  0  0  0  0  0  0
  188.3640  173.4840  136.5500 O   0  0  0  0  0  0  0  0  0  0  0  0
  188.5990  175.4220  135.2800 O   0  0  0  0  0  1  0  0  0  0  0  0
  186.1880  174.4080  136.1740 C   0  0  0  0  0  2  0  0  0  0  0  0
  184.9770  173.7210  136.7780 C   0  0  1  0  0  3  0  0  0  0  0  0
  184.1330  174.7210  137.5490 C   0  0  0  0  0  2  0  0  0  0  0  0
  182.8590  173.3680  136.0990 C   0  0  1  0  0  3  0  0  0  0  0  0
  182.8150  174.6890  136.8450 C   0  0  1  0  0  3  0  0  0  0  0  0
  184.2020  173.1420  135.7530 O   0  0  0  0  0  0  0  0  0  0  0  0
  181.6550  174.8200  137.8290 C   0  0  0  0  0  2  0  0  0  0  0  0
  181.7690  177.9720  140.1700 C   0  0  0  0  0  2  0  0  0  0  0  0
  181.5020  179.0230  139.0970 C   0  0  0  0  0  2  0  0  0  0  0  0
  181.5000  176.5160  139.7440 C   0  0  1  0  0  3  0  0  0  0  0  0
  180.2810  176.4160  139.0400 O   0  0  0  0  0  0  0  0  0  0  0  0
  181.4560  176.2640  138.2740 C   0  0  2  0  0  0  0  0  0  0  0  0
  182.2280  178.6380  137.8250 C   0  0  0  0  0  2  0  0  0  0  0  0
  181.5900  177.3890  137.2420 C   0  0  0  0  0  2  0  0  0  0  0  0
  182.4080  172.3090  136.9020 O   0  0  0  0  0  0  0  0  0  0  0  0
  181.5430  171.6570  136.1540 O   0  0  0  0  0  0  0  0  0  0  0  0
  180.3900  171.5660  136.9400 C   0  0  0  0  0  3  0  0  0  0  0  0
  179.1960  172.0210  136.1240 C   0  0  0  0  0  2  0  0  0  0  0  0
  179.4500  170.5460  136.3300 C   0  0  0  0  0  2  0  0  0  0  0  0
  189.8560  177.6790  138.0330 C   0  0  0  0  0  2  0  0  0  0  0  0
  188.5990  177.2920  138.8180 C   0  0  2  0  0  3  0  0  0  0  0  0
  184.7920  179.8360  139.7910 O   0  0  0  0  0  1  0  0  0  0  0  0
  185.5080  178.6650  139.9990 C   0  0  0  0  0  3  0  0  0  0  0  0
  187.3640  177.9670  138.2960 C   0  0  0  0  0  0  0  0  0  0  0  0
  186.4350  178.3130  139.1500 C   0  0  0  0  0  0  0  0  0  0  0  0
  186.1900  177.9330  136.1180 C   0  0  0  0  0  2  0  0  0  0  0  0
  187.2380  178.2810  136.8560 C   0  0  0  0  0  3  0  0  0  0  0  0
  189.7000  176.9930  142.4780 N   0  0  0  0  0  2  0  0  0  0  0  0
  190.4280  175.9240  140.5470 O   0  0  0  0  0  0  0  0  0  0  0  0
  189.6660  176.7850  141.0630 C   0  0  0  0  0  0  0  0  0  0  0  0
  188.7730  177.5440  140.2420 N   0  0  0  0  0  2  0  0  0  0  0  0
  188.8090  177.9070  143.1910 C   0  0  2  0  0  3  0  0  0  0  0  0
  189.5240  178.5650  144.3670 C   0  0  0  0  0  2  0  0  0  0  0  0
  189.4540  177.6720  145.5910 C   0  0  0  0  0  2  0  0  0  0  0  0
  191.7820  176.8340  146.7310 N   0  0  0  0  0  0  0  0  0  0  0  0
  191.9100  176.4430  145.4390 O   0  0  0  0  0  0  0  0  0  0  0  0
  190.8000  177.1000  145.8680 C   0  0  0  0  0  0  0  0  0  0  0  0
  187.6330  177.1890  143.6630 N   0  0  0  0  0  2  0  0  0  0  0  0
  186.5560  177.9570  143.3760 O   0  0  0  0  0  0  0  0  0  0  0  0
  183.9240  178.8340  143.0980 C   0  0  0  0  0  1  0  0  0  0  0  0
  186.2870  177.2330  145.7680 C   0  0  0  0  0  1  0  0  0  0  0  0
  185.4730  179.4610  144.9300 C   0  0  0  0  0  2  0  0  0  0  0  0
  185.8260  178.0430  144.5730 C   0  0  1  0  0  0  0  0  0  0  0  0
  184.3760  178.4940  144.5150 C   0  0  2  0  0  3  0  0  0  0  0  0
  1  2  1  0  0  0  0
  3  1  1  6  0  0  0
  4  2  1  0  0  0  0
  5  4  1  0  0  0  0
  5  3  1  0  0  0  0
  5 29  1  1  0  0  0
  6 10  1  6  0  0  0
  7  9  1  6  0  0  0
  7  6  1  0  0  0  0
  7  3  1  0  0  0  0
  8  7  1  0  0  0  0
  8  6  1  0  0  0  0
 11 10  1  6  0  0  0
 11 12  1  0  0  0  0
 13 14  1  0  0  0  0
 13 24  1  1  0  0  0
 14 12  1  0  0  0  0
 14 16  1  1  0  0  0
 15 13  1  0  0  0  0
 15 11  1  0  0  0  0
 18 17  1  0  0  0  0
 19 17  1  6  0  0  0
 20 19  1  0  0  0  0
 21 16  1  6  0  0  0
 21 20  1  0  0  0  0
 21 19  1  0  0  0  0
 22 18  1  0  0  0  0
 23 22  1  0  0  0  0
 23 21  1  0  0  0  0
 25 24  1  0  0  0  0
 25 26  1  0  0  0  0
 27 28  1  0  0  0  0
 27 26  1  0  0  0  0
 28 26  1  0  0  0  0
 30 29  1  6  0  0  0
 30 40  1  0  0  0  0
 31 32  1  0  0  0  0
 33 30  1  0  0  0  0
 33 34  2  0  0  0  0
 34 32  2  0  0  0  0
 35 36  2  0  0  0  0
 36 33  1  0  0  0  0
 37 41  1  0  0  0  0
 38 39  2  0  0  0  0
 39 37  1  0  0  0  0
 40 39  1  0  0  0  0
 41 47  1  0  0  0  0
 41 42  1  1  0  0  0
 42 43  1  0  0  0  0
 43 46  1  0  0  0  0
 45 46  1  0  0  0  0
 45 44  1  0  0  0  0
 46 44  2  0  0  0  0
 48 47  1  0  0  0  0
 48 52  1  0  0  0  0
 52 51  1  0  0  0  0
 52 50  1  1  0  0  0
 53 49  1  6  0  0  0
 53 52  1  0  0  0  0
 53 51  1  0  0  0  0
M  END
>  <MODEL>
2

>  <REMARK>
 VINA RESULT:      -7.6      2.628      8.194
  Name = 
  20 active torsions:
  status: ('A' for Active; 'I' for Inactive)
    1  A    between atoms: C_1  and  C_48
    2  A    between atoms: C_8  and  C_18
    3  A    between atoms: C_8  and  C_32
    4  A    between atoms: N_10  and  C_42
    5  A    between atoms: N_10  and  O_52
    6  A    between atoms: C_11  and  C_35
    7  A    between atoms: C_11  and  C_40
    8  A    between atoms: C_11  and  N_43
    9  A    between atoms: C_12  and  O_52
   10  A    between atoms: O_13  and  C_19
   11  A    between atoms: O_13  and  O_27
   12  A    between atoms: N_15  and  C_42
   13  A    between atoms: C_16  and  C_30
   14  A    between atoms: C_16  and  C_33
   15  A    between atoms: C_18  and  C_42
   16  A    between atoms: C_20  and  C_48
   17  A    between atoms: C_21  and  O_27
   18  A    between atoms: C_26  and  C_34
   19  A    between atoms: C_35  and  C_51
   20  A    between atoms: C_40  and  C_53
                            x       y       z     vdW  Elec       q    Type
                         _______ _______ _______ _____ _____    ______ ____

>  <TORSDO>
F 20

$$$$
=
 OpenBabel11062414053D

 53 60  0  0  1  0  0  0  0  0999 V2000
  188.3420  178.2410  135.7750 N   0  0  0  0  0  2  0  0  0  0  0  0
  187.1320  178.3810  134.9730 C   0  0  0  0  0  2  0  0  0  0  0  0
  187.8780  177.9190  137.1170 C   0  0  1  0  0  3  0  0  0  0  0  0
  186.0770  177.4770  135.5890 C   0  0  0  0  0  2  0  0  0  0  0  0
  186.5520  177.2010  136.9930 C   0  0  2  0  0  3  0  0  0  0  0  0
  189.5830  177.5740  139.0340 C   0  0  2  0  0  3  0  0  0  0  0  0
  188.8870  177.0330  137.8360 C   0  0  2  0  0  0  0  0  0  0  0  0
  190.2030  177.5290  137.7610 O   0  0  0  0  0  0  0  0  0  0  0  0
  188.8370  175.6460  137.6520 O   0  0  0  0  0  1  0  0  0  0  0  0
  190.1770  176.4900  139.9170 C   0  0  0  0  0  2  0  0  0  0  0  0
  190.2960  176.9980  141.3430 C   0  0  1  0  0  3  0  0  0  0  0  0
  189.0830  177.8350  141.7080 C   0  0  0  0  0  2  0  0  0  0  0  0
  189.6250  176.2350  143.3520 C   0  0  1  0  0  3  0  0  0  0  0  0
  188.4780  177.0960  142.8590 C   0  0  1  0  0  3  0  0  0  0  0  0
  190.3990  175.9050  142.2270 O   0  0  0  0  0  0  0  0  0  0  0  0
  187.9150  178.0570  143.9040 C   0  0  0  0  0  2  0  0  0  0  0  0
  184.2640  179.1550  144.8500 C   0  0  0  0  0  2  0  0  0  0  0  0
  183.5720  178.6340  143.5940 C   0  0  0  0  0  2  0  0  0  0  0  0
  185.7070  178.6560  145.0590 C   0  0  1  0  0  3  0  0  0  0  0  0
  185.8010  177.2710  144.8040 O   0  0  0  0  0  0  0  0  0  0  0  0
  186.3940  178.1210  143.8470 C   0  0  2  0  0  0  0  0  0  0  0  0
  184.4580  178.8790  142.3930 C   0  0  0  0  0  2  0  0  0  0  0  0
  185.6910  177.9960  142.4900 C   0  0  0  0  0  2  0  0  0  0  0  0
  190.4280  176.9260  144.2730 O   0  0  0  0  0  0  0  0  0  0  0  0
  191.0400  175.9880  144.9650 O   0  0  0  0  0  0  0  0  0  0  0  0
  191.7510  176.6780  145.9510 C   0  0  0  0  0  3  0  0  0  0  0  0
  191.0070  176.5720  147.2670 C   0  0  0  0  0  2  0  0  0  0  0  0
  192.2140  175.6990  147.0110 C   0  0  0  0  0  2  0  0  0  0  0  0
  185.5680  177.7590  138.0140 C   0  0  0  0  0  2  0  0  0  0  0  0
  184.1040  177.4910  137.6510 C   0  0  2  0  0  3  0  0  0  0  0  0
  181.2030  180.9190  138.9690 O   0  0  0  0  0  1  0  0  0  0  0  0
  182.4930  180.5370  138.6270 C   0  0  0  0  0  3  0  0  0  0  0  0
  183.1490  178.0080  138.6870 C   0  0  0  0  0  0  0  0  0  0  0  0
  182.8240  179.2750  138.6570 C   0  0  0  0  0  0  0  0  0  0  0  0
  181.2600  177.0710  139.9810 C   0  0  0  0  0  2  0  0  0  0  0  0
  182.5530  177.0860  139.6780 C   0  0  0  0  0  3  0  0  0  0  0  0
  182.9840  174.2010  136.0320 N   0  0  0  0  0  2  0  0  0  0  0  0
  183.0470  176.3820  135.2300 O   0  0  0  0  0  0  0  0  0  0  0  0
  183.2950  175.5890  136.1780 C   0  0  0  0  0  0  0  0  0  0  0  0
  183.8800  176.0750  137.3910 N   0  0  0  0  0  2  0  0  0  0  0  0
  183.1560  173.2090  137.0920 C   0  0  2  0  0  3  0  0  0  0  0  0
  184.4890  172.4810  136.9520 C   0  0  0  0  0  2  0  0  0  0  0  0
  184.6470  171.9400  135.5430 C   0  0  0  0  0  2  0  0  0  0  0  0
  186.7880  170.3830  134.9030 N   0  0  0  0  0  0  0  0  0  0  0  0
  187.3440  171.4050  135.6000 O   0  0  0  0  0  0  0  0  0  0  0  0
  186.0030  171.3470  135.3860 C   0  0  0  0  0  0  0  0  0  0  0  0
  182.0600  172.2500  137.0600 N   0  0  0  0  0  2  0  0  0  0  0  0
  181.0980  172.7720  136.2650 O   0  0  0  0  0  0  0  0  0  0  0  0
  179.7020  175.0830  136.9600 C   0  0  0  0  0  1  0  0  0  0  0  0
  179.2080  171.2090  136.8210 C   0  0  0  0  0  1  0  0  0  0  0  0
  179.9340  173.0550  138.3680 C   0  0  0  0  0  2  0  0  0  0  0  0
  179.8890  172.5570  136.9490 C   0  0  1  0  0  0  0  0  0  0  0  0
  179.0520  173.7600  137.3500 C   0  0  2  0  0  3  0  0  0  0  0  0
  2  4  1  0  0  0  0
  2  1  1  0  0  0  0
  3  1  1  6  0  0  0
  3  7  1  0  0  0  0
  4  5  1  0  0  0  0
  5  3  1  0  0  0  0
  5 29  1  1  0  0  0
  6 10  1  1  0  0  0
  7  9  1  6  0  0  0
  7  6  1  0  0  0  0
  8  7  1  0  0  0  0
  8  6  1  0  0  0  0
 11 10  1  6  0  0  0
 11 12  1  0  0  0  0
 11 15  1  0  0  0  0
 12 14  1  0  0  0  0
 13 24  1  1  0  0  0
 14 13  1  0  0  0  0
 14 16  1  1  0  0  0
 15 13  1  0  0  0  0
 18 17  1  0  0  0  0
 19 17  1  6  0  0  0
 20 19  1  0  0  0  0
 21 16  1  6  0  0  0
 21 20  1  0  0  0  0
 21 19  1  0  0  0  0
 22 23  1  0  0  0  0
 22 18  1  0  0  0  0
 23 21  1  0  0  0  0
 24 25  1  0  0  0  0
 25 26  1  0  0  0  0
 26 28  1  0  0  0  0
 26 27  1  0  0  0  0
 28 27  1  0  0  0  0
 30 29  1  1  0  0  0
 30 33  1  0  0  0  0
 32 34  2  0  0  0  0
 32 31  1  0  0  0  0
 33 36  1  0  0  0  0
 34 33  2  0  0  0  0
 36 35  2  0  0  0  0
 37 39  1  0  0  0  0
 37 41  1  0  0  0  0
 38 39  2  0  0  0  0
 39 40  1  0  0  0  0
 40 30  1  0  0  0  0
 41 42  1  6  0  0  0
 43 42  1  0  0  0  0
 44 46  2  0  0  0  0
 44 45  1  0  0  0  0
 46 43  1  0  0  0  0
 46 45  1  0  0  0  0
 47 41  1  0  0  0  0
 48 52  1  0  0  0  0
 48 47  1  0  0  0  0
 52 50  1  6  0  0  0
 52 53  1  0  0  0  0
 52 51  1  0  0  0  0
 53 49  1  6  0  0  0
 53 51  1  0  0  0  0
M  END
>  <MODEL>
3

>  <REMARK>
 VINA RESULT:      -7.3      3.185     10.041
  Name = 
  20 active torsions:
  status: ('A' for Active; 'I' for Inactive)
    1  A    between atoms: C_1  and  C_48
    2  A    between atoms: C_8  and  C_18
    3  A    between atoms: C_8  and  C_32
    4  A    between atoms: N_10  and  C_42
    5  A    between atoms: N_10  and  O_52
    6  A    between atoms: C_11  and  C_35
    7  A    between atoms: C_11  and  C_40
    8  A    between atoms: C_11  and  N_43
    9  A    between atoms: C_12  and  O_52
   10  A    between atoms: O_13  and  C_19
   11  A    between atoms: O_13  and  O_27
   12  A    between atoms: N_15  and  C_42
   13  A    between atoms: C_16  and  C_30
   14  A    between atoms: C_16  and  C_33
   15  A    between atoms: C_18  and  C_42
   16  A    between atoms: C_20  and  C_48
   17  A    between atoms: C_21  and  O_27
   18  A    between atoms: C_26  and  C_34
   19  A    between atoms: C_35  and  C_51
   20  A    between atoms: C_40  and  C_53
                            x       y       z     vdW  Elec       q    Type
                         _______ _______ _______ _____ _____    ______ ____

>  <TORSDO>
F 20

$$$$
=
 OpenBabel11062414053D

 53 60  0  0  1  0  0  0  0  0999 V2000
  182.8000  178.6450  144.1710 N   0  0  0  0  0  2  0  0  0  0  0  0
  181.3630  178.6540  143.9200 C   0  0  0  0  0  2  0  0  0  0  0  0
  183.4090  178.2780  142.9010 C   0  0  1  0  0  3  0  0  0  0  0  0
  181.1640  179.0110  142.4560 C   0  0  0  0  0  2  0  0  0  0  0  0
  182.4890  178.7390  141.7920 C   0  0  2  0  0  3  0  0  0  0  0  0
  185.8480  178.1880  142.0390 C   0  0  2  0  0  3  0  0  0  0  0  0
  184.7760  178.9320  142.7530 C   0  0  2  0  0  0  0  0  0  0  0  0
  185.7890  178.2500  143.4530 O   0  0  0  0  0  0  0  0  0  0  0  0
  184.8910  180.3210  142.8840 O   0  0  0  0  0  1  0  0  0  0  0  0
  186.9700  179.0850  141.5460 C   0  0  0  0  0  2  0  0  0  0  0  0
  188.3120  178.4630  141.8850 C   0  0  1  0  0  3  0  0  0  0  0  0
  188.5560  178.5180  143.3830 C   0  0  0  0  0  2  0  0  0  0  0  0
  188.9950  176.3950  142.4580 C   0  0  1  0  0  3  0  0  0  0  0  0
  188.6800  177.0810  143.7740 C   0  0  1  0  0  3  0  0  0  0  0  0
  188.3340  177.1210  141.4530 O   0  0  0  0  0  0  0  0  0  0  0  0
  189.7400  176.8870  144.8560 C   0  0  0  0  0  2  0  0  0  0  0  0
  189.4680  178.2550  148.5280 C   0  0  0  0  0  2  0  0  0  0  0  0
  188.0020  177.9040  148.7600 C   0  0  0  0  0  2  0  0  0  0  0  0
  190.1110  177.6050  147.2890 C   0  0  1  0  0  3  0  0  0  0  0  0
  189.7580  176.2410  147.1980 O   0  0  0  0  0  0  0  0  0  0  0  0
  189.1640  177.1020  146.2510 C   0  0  2  0  0  0  0  0  0  0  0  0
  187.2180  178.1550  147.4910 C   0  0  0  0  0  2  0  0  0  0  0  0
  187.6430  177.1530  146.4310 C   0  0  0  0  0  2  0  0  0  0  0  0
  190.3730  176.3980  142.1930 O   0  0  0  0  0  0  0  0  0  0  0  0
  190.4770  176.1120  140.9120 O   0  0  0  0  0  0  0  0  0  0  0  0
  191.0130  177.2650  140.3310 C   0  0  0  0  0  3  0  0  0  0  0  0
  192.5060  177.3030  140.5900 C   0  0  0  0  0  2  0  0  0  0  0  0
  191.9870  176.8670  139.2400 C   0  0  0  0  0  2  0  0  0  0  0  0
  182.3520  177.6370  140.7480 C   0  0  0  0  0  2  0  0  0  0  0  0
  182.4690  178.1510  139.3090 C   0  0  2  0  0  3  0  0  0  0  0  0
  179.9060  174.3760  138.2670 O   0  0  0  0  0  1  0  0  0  0  0  0
  181.1670  174.9270  138.4500 C   0  0  0  0  0  3  0  0  0  0  0  0
  181.4620  177.5230  138.3890 C   0  0  0  0  0  0  0  0  0  0  0  0
  181.3180  176.2230  138.4190 C   0  0  0  0  0  0  0  0  0  0  0  0
  181.0690  179.4490  136.8860 C   0  0  0  0  0  2  0  0  0  0  0  0
  180.6200  178.3690  137.5170 C   0  0  0  0  0  3  0  0  0  0  0  0
  186.0250  178.8560  138.0620 N   0  0  0  0  0  2  0  0  0  0  0  0
  184.4600  180.2030  139.1290 O   0  0  0  0  0  0  0  0  0  0  0  0
  184.7540  179.0600  138.6850 C   0  0  0  0  0  0  0  0  0  0  0  0
  183.8240  177.9790  138.8010 N   0  0  0  0  0  2  0  0  0  0  0  0
  186.4390  177.5980  137.4430 C   0  0  2  0  0  3  0  0  0  0  0  0
  187.9590  177.4800  137.4020 C   0  0  0  0  0  2  0  0  0  0  0  0
  188.4020  176.1670  138.0200 C   0  0  0  0  0  2  0  0  0  0  0  0
  190.2920  175.2200  136.3020 N   0  0  0  0  0  0  0  0  0  0  0  0
  189.2950  174.3050  136.2030 O   0  0  0  0  0  0  0  0  0  0  0  0
  189.1810  175.3840  137.0220 C   0  0  0  0  0  0  0  0  0  0  0  0
  185.8960  177.5020  136.0950 N   0  0  0  0  0  2  0  0  0  0  0  0
  185.9600  176.2000  135.7320 O   0  0  0  0  0  0  0  0  0  0  0  0
  185.5340  173.9370  137.3040 C   0  0  0  0  0  1  0  0  0  0  0  0
  183.5170  176.6950  135.4060 C   0  0  0  0  0  1  0  0  0  0  0  0
  184.4810  174.3910  135.1060 C   0  0  0  0  0  2  0  0  0  0  0  0
  184.6350  175.7360  135.7630 C   0  0  1  0  0  0  0  0  0  0  0  0
  184.3060  174.5170  136.6110 C   0  0  2  0  0  3  0  0  0  0  0  0
  2  1  1  0  0  0  0
  3  1  1  1  0  0  0
  4  2  1  0  0  0  0
  5 29  1  6  0  0  0
  5  4  1  0  0  0  0
  5  3  1  0  0  0  0
  6 10  1  6  0  0  0
  6  7  1  0  0  0  0
  6  8  1  0  0  0  0
  7  9  1  6  0  0  0
  7  3  1  0  0  0  0
  7  8  1  0  0  0  0
 11 10  1  1  0  0  0
 11 12  1  0  0  0  0
 12 14  1  0  0  0  0
 13 24  1  6  0  0  0
 13 14  1  0  0  0  0
 14 16  1  1  0  0  0
 15 11  1  0  0  0  0
 15 13  1  0  0  0  0
 17 18  1  0  0  0  0
 19 17  1  1  0  0  0
 20 19  1  0  0  0  0
 21 16  1  6  0  0  0
 21 23  1  0  0  0  0
 21 20  1  0  0  0  0
 21 19  1  0  0  0  0
 22 18  1  0  0  0  0
 23 22  1  0  0  0  0
 25 24  1  0  0  0  0
 26 27  1  0  0  0  0
 26 25  1  0  0  0  0
 28 26  1  0  0  0  0
 28 27  1  0  0  0  0
 30 29  1  1  0  0  0
 31 32  1  0  0  0  0
 33 34  2  0  0  0  0
 33 30  1  0  0  0  0
 34 32  2  0  0  0  0
 35 36  2  0  0  0  0
 36 33  1  0  0  0  0
 37 39  1  0  0  0  0
 39 40  1  0  0  0  0
 39 38  2  0  0  0  0
 40 30  1  0  0  0  0
 41 42  1  6  0  0  0
 41 37  1  0  0  0  0
 42 43  1  0  0  0  0
 44 46  2  0  0  0  0
 45 44  1  0  0  0  0
 45 46  1  0  0  0  0
 46 43  1  0  0  0  0
 47 41  1  0  0  0  0
 48 52  1  0  0  0  0
 48 47  1  0  0  0  0
 51 52  1  0  0  0  0
 51 53  1  0  0  0  0
 52 50  1  6  0  0  0
 52 53  1  0  0  0  0
 53 49  1  1  0  0  0
M  END
>  <MODEL>
4

>  <REMARK>
 VINA RESULT:      -7.2      2.363      8.650
  Name = 
  20 active torsions:
  status: ('A' for Active; 'I' for Inactive)
    1  A    between atoms: C_1  and  C_48
    2  A    between atoms: C_8  and  C_18
    3  A    between atoms: C_8  and  C_32
    4  A    between atoms: N_10  and  C_42
    5  A    between atoms: N_10  and  O_52
    6  A    between atoms: C_11  and  C_35
    7  A    between atoms: C_11  and  C_40
    8  A    between atoms: C_11  and  N_43
    9  A    between atoms: C_12  and  O_52
   10  A    between atoms: O_13  and  C_19
   11  A    between atoms: O_13  and  O_27
   12  A    between atoms: N_15  and  C_42
   13  A    between atoms: C_16  and  C_30
   14  A    between atoms: C_16  and  C_33
   15  A    between atoms: C_18  and  C_42
   16  A    between atoms: C_20  and  C_48
   17  A    between atoms: C_21  and  O_27
   18  A    between atoms: C_26  and  C_34
   19  A    between atoms: C_35  and  C_51
   20  A    between atoms: C_40  and  C_53
                            x       y       z     vdW  Elec       q    Type
                         _______ _______ _______ _____ _____    ______ ____

>  <TORSDO>
F 20

$$$$
=
 OpenBabel11062414053D

 53 60  0  0  1  0  0  0  0  0999 V2000
  189.8430  175.4440  137.9400 N   0  0  0  0  0  2  0  0  0  0  0  0
  191.0580  176.0120  138.5120 C   0  0  0  0  0  2  0  0  0  0  0  0
  188.8160  176.4570  138.1380 C   0  0  1  0  0  3  0  0  0  0  0  0
  190.9570  177.5220  138.3770 C   0  0  0  0  0  2  0  0  0  0  0  0
  189.4930  177.8100  138.1600 C   0  0  2  0  0  3  0  0  0  0  0  0
  186.5850  175.5480  137.1900 C   0  0  2  0  0  3  0  0  0  0  0  0
  187.7880  176.4060  137.0150 C   0  0  2  0  0  0  0  0  0  0  0  0
  187.6970  175.1360  136.4140 O   0  0  0  0  0  0  0  0  0  0  0  0
  187.7500  177.4380  136.0700 O   0  0  0  0  0  1  0  0  0  0  0  0
  185.4430  175.9290  136.2640 C   0  0  0  0  0  2  0  0  0  0  0  0
  184.1390  175.3620  136.7970 C   0  0  1  0  0  3  0  0  0  0  0  0
  183.7370  176.0760  138.0750 C   0  0  0  0  0  2  0  0  0  0  0  0
  181.9650  175.8840  136.5320 C   0  0  1  0  0  3  0  0  0  0  0  0
  182.4170  176.6890  137.7370 C   0  0  1  0  0  3  0  0  0  0  0  0
  183.1260  175.5190  135.8300 O   0  0  0  0  0  0  0  0  0  0  0  0
  181.4590  176.6390  138.9240 C   0  0  0  0  0  2  0  0  0  0  0  0
  180.3600  179.7280  141.0890 C   0  0  0  0  0  2  0  0  0  0  0  0
  180.2110  180.7260  139.9450 C   0  0  0  0  0  2  0  0  0  0  0  0
  180.4840  178.2530  140.6620 C   0  0  1  0  0  3  0  0  0  0  0  0
  179.5420  177.9400  139.6580 O   0  0  0  0  0  0  0  0  0  0  0  0
  180.8890  178.0160  139.2450 C   0  0  2  0  0  0  0  0  0  0  0  0
  181.3120  180.4980  138.9320 C   0  0  0  0  0  2  0  0  0  0  0  0
  181.0940  179.1600  138.2450 C   0  0  0  0  0  2  0  0  0  0  0  0
  181.2790  174.7230  136.9180 O   0  0  0  0  0  0  0  0  0  0  0  0
  181.0920  174.0480  135.8030 O   0  0  0  0  0  0  0  0  0  0  0  0
  180.8850  172.7290  136.2140 C   0  0  0  0  0  3  0  0  0  0  0  0
  179.4020  172.5020  136.4290 C   0  0  0  0  0  2  0  0  0  0  0  0
  180.0650  172.0030  135.1660 C   0  0  0  0  0  2  0  0  0  0  0  0
  188.9340  178.6460  139.3050 C   0  0  0  0  0  2  0  0  0  0  0  0
  188.1510  177.8180  140.3300 C   0  0  2  0  0  3  0  0  0  0  0  0
  184.8680  179.6410  143.1240 O   0  0  0  0  0  1  0  0  0  0  0  0
  185.7640  178.6090  142.8810 C   0  0  0  0  0  3  0  0  0  0  0  0
  186.7290  178.2780  140.4750 C   0  0  0  0  0  0  0  0  0  0  0  0
  186.2470  178.4400  141.6800 C   0  0  0  0  0  0  0  0  0  0  0  0
  184.7670  179.2460  139.3200 C   0  0  0  0  0  2  0  0  0  0  0  0
  185.9210  178.5910  139.2760 C   0  0  0  0  0  3  0  0  0  0  0  0
  190.2120  176.7020  143.3630 N   0  0  0  0  0  2  0  0  0  0  0  0
  189.9450  175.7820  141.2460 O   0  0  0  0  0  0  0  0  0  0  0  0
  189.6730  176.7230  142.0390 C   0  0  0  0  0  0  0  0  0  0  0  0
  188.8310  177.8010  141.6180 N   0  0  0  0  0  2  0  0  0  0  0  0
  189.9000  177.6970  144.3880 C   0  0  2  0  0  3  0  0  0  0  0  0
  191.0550  177.8510  145.3730 C   0  0  0  0  0  2  0  0  0  0  0  0
  191.8930  176.5860  145.4020 C   0  0  0  0  0  2  0  0  0  0  0  0
  191.5280  175.4490  147.8510 N   0  0  0  0  0  0  0  0  0  0  0  0
  192.7590  176.0090  147.9480 O   0  0  0  0  0  0  0  0  0  0  0  0
  192.0290  176.1110  146.8070 C   0  0  0  0  0  0  0  0  0  0  0  0
  188.6880  177.3180  145.0990 N   0  0  0  0  0  2  0  0  0  0  0  0
  188.2830  178.4020  145.8020 O   0  0  0  0  0  0  0  0  0  0  0  0
  189.2740  178.4250  148.4080 C   0  0  0  0  0  1  0  0  0  0  0  0
  185.9180  177.8830  146.4800 C   0  0  0  0  0  1  0  0  0  0  0  0
  187.8940  176.6280  147.4010 C   0  0  0  0  0  2  0  0  0  0  0  0
  187.4030  177.9080  146.7800 C   0  0  1  0  0  0  0  0  0  0  0  0
  187.8530  177.9010  148.2320 C   0  0  2  0  0  3  0  0  0  0  0  0
  1  2  1  0  0  0  0
  3  1  1  6  0  0  0
  3  5  1  0  0  0  0
  4  2  1  0  0  0  0
  5  4  1  0  0  0  0
  5 29  1  1  0  0  0
  6 10  1  6  0  0  0
  7  9  1  6  0  0  0
  7  6  1  0  0  0  0
  7  3  1  0  0  0  0
  8  7  1  0  0  0  0
  8  6  1  0  0  0  0
 11 10  1  6  0  0  0
 11 12  1  0  0  0  0
 13 24  1  1  0  0  0
 13 14  1  0  0  0  0
 14 12  1  0  0  0  0
 14 16  1  1  0  0  0
 15 13  1  0  0  0  0
 15 11  1  0  0  0  0
 18 17  1  0  0  0  0
 19 17  1  6  0  0  0
 20 19  1  0  0  0  0
 21 16  1  6  0  0  0
 21 20  1  0  0  0  0
 21 19  1  0  0  0  0
 22 18  1  0  0  0  0
 23 22  1  0  0  0  0
 23 21  1  0  0  0  0
 25 26  1  0  0  0  0
 25 24  1  0  0  0  0
 26 27  1  0  0  0  0
 28 26  1  0  0  0  0
 28 27  1  0  0  0  0
 30 29  1  6  0  0  0
 30 33  1  0  0  0  0
 30 40  1  0  0  0  0
 32 31  1  0  0  0  0
 33 34  2  0  0  0  0
 34 32  2  0  0  0  0
 36 35  2  0  0  0  0
 36 33  1  0  0  0  0
 37 41  1  0  0  0  0
 38 39  2  0  0  0  0
 39 37  1  0  0  0  0
 40 39  1  0  0  0  0
 41 47  1  0  0  0  0
 41 42  1  1  0  0  0
 42 43  1  0  0  0  0
 43 46  1  0  0  0  0
 44 45  1  0  0  0  0
 46 44  2  0  0  0  0
 46 45  1  0  0  0  0
 47 48  1  0  0  0  0
 48 52  1  0  0  0  0
 51 53  1  0  0  0  0
 52 50  1  6  0  0  0
 52 51  1  0  0  0  0
 52 53  1  0  0  0  0
 53 49  1  6  0  0  0
M  END
>  <MODEL>
5

>  <REMARK>
 VINA RESULT:      -7.1      2.310      7.896
  Name = 
  20 active torsions:
  status: ('A' for Active; 'I' for Inactive)
    1  A    between atoms: C_1  and  C_48
    2  A    between atoms: C_8  and  C_18
    3  A    between atoms: C_8  and  C_32
    4  A    between atoms: N_10  and  C_42
    5  A    between atoms: N_10  and  O_52
    6  A    between atoms: C_11  and  C_35
    7  A    between atoms: C_11  and  C_40
    8  A    between atoms: C_11  and  N_43
    9  A    between atoms: C_12  and  O_52
   10  A    between atoms: O_13  and  C_19
   11  A    between atoms: O_13  and  O_27
   12  A    between atoms: N_15  and  C_42
   13  A    between atoms: C_16  and  C_30
   14  A    between atoms: C_16  and  C_33
   15  A    between atoms: C_18  and  C_42
   16  A    between atoms: C_20  and  C_48
   17  A    between atoms: C_21  and  O_27
   18  A    between atoms: C_26  and  C_34
   19  A    between atoms: C_35  and  C_51
   20  A    between atoms: C_40  and  C_53
                            x       y       z     vdW  Elec       q    Type
                         _______ _______ _______ _____ _____    ______ ____

>  <TORSDO>
F 20

$$$$
=
 OpenBabel11062414053D

 53 60  0  0  1  0  0  0  0  0999 V2000
  189.0100  179.1030  137.5230 N   0  0  0  0  0  2  0  0  0  0  0  0
  187.9250  179.4690  136.6210 C   0  0  0  0  0  2  0  0  0  0  0  0
  188.3600  178.5450  138.7000 C   0  0  1  0  0  3  0  0  0  0  0  0
  186.7690  178.5220  136.8990 C   0  0  0  0  0  2  0  0  0  0  0  0
  187.0420  177.9430  138.2640 C   0  0  2  0  0  3  0  0  0  0  0  0
  190.3660  177.9090  140.2070 C   0  0  2  0  0  3  0  0  0  0  0  0
  189.2360  177.4770  139.3420 C   0  0  2  0  0  0  0  0  0  0  0  0
  190.5600  177.4970  138.8660 O   0  0  0  0  0  0  0  0  0  0  0  0
  188.7430  176.1740  139.4740 O   0  0  0  0  0  1  0  0  0  0  0  0
  190.8520  176.8150  141.1420 C   0  0  0  0  0  2  0  0  0  0  0  0
  191.1450  177.4020  142.5110 C   0  0  1  0  0  3  0  0  0  0  0  0
  189.8870  178.0110  143.1030 C   0  0  0  0  0  2  0  0  0  0  0  0
  191.0360  176.6200  144.6200 C   0  0  1  0  0  3  0  0  0  0  0  0
  189.6700  177.2270  144.3570 C   0  0  1  0  0  3  0  0  0  0  0  0
  191.6260  176.3900  143.3660 O   0  0  0  0  0  0  0  0  0  0  0  0
  189.1460  178.1120  145.4850 C   0  0  0  0  0  2  0  0  0  0  0  0
  185.5410  178.8500  146.8600 C   0  0  0  0  0  2  0  0  0  0  0  0
  184.7600  178.2230  145.7100 C   0  0  0  0  0  2  0  0  0  0  0  0
  187.0430  178.5110  146.8960 C   0  0  1  0  0  3  0  0  0  0  0  0
  187.2530  177.1370  146.6550 O   0  0  0  0  0  0  0  0  0  0  0  0
  187.6300  178.0150  145.6170 C   0  0  2  0  0  0  0  0  0  0  0  0
  185.4620  178.5230  144.4030 C   0  0  0  0  0  2  0  0  0  0  0  0
  186.7850  177.7780  144.3610 C   0  0  0  0  0  2  0  0  0  0  0  0
  191.8530  177.4920  145.3560 O   0  0  0  0  0  0  0  0  0  0  0  0
  191.6750  177.1480  146.6140 O   0  0  0  0  0  0  0  0  0  0  0  0
  192.1830  175.8480  146.7040 C   0  0  0  0  0  3  0  0  0  0  0  0
  192.7440  175.6290  148.0940 C   0  0  0  0  0  2  0  0  0  0  0  0
  191.3870  175.0720  147.7340 C   0  0  0  0  0  2  0  0  0  0  0  0
  185.9460  178.3400  139.2450 C   0  0  0  0  0  2  0  0  0  0  0  0
  184.5550  178.3950  138.6060 C   0  0  2  0  0  3  0  0  0  0  0  0
  180.8090  181.1950  138.8080 O   0  0  0  0  0  1  0  0  0  0  0  0
  182.1300  181.0250  138.4160 C   0  0  0  0  0  3  0  0  0  0  0  0
  183.5520  179.1020  139.4710 C   0  0  0  0  0  0  0  0  0  0  0  0
  182.8430  180.0670  138.9420 C   0  0  0  0  0  0  0  0  0  0  0  0
  182.1600  178.7200  141.4810 C   0  0  0  0  0  2  0  0  0  0  0  0
  183.3390  178.6720  140.8700 C   0  0  0  0  0  3  0  0  0  0  0  0
  183.1350  175.4200  136.6490 N   0  0  0  0  0  2  0  0  0  0  0  0
  183.8530  177.5230  135.9690 O   0  0  0  0  0  0  0  0  0  0  0  0
  183.7020  176.7060  136.9170 C   0  0  0  0  0  0  0  0  0  0  0  0
  184.0900  177.0620  138.2470 N   0  0  0  0  0  2  0  0  0  0  0  0
  182.8420  174.4260  137.6800 C   0  0  2  0  0  3  0  0  0  0  0  0
  183.3290  173.0420  137.2630 C   0  0  0  0  0  2  0  0  0  0  0  0
  184.4580  173.1640  136.2570 C   0  0  0  0  0  2  0  0  0  0  0  0
  186.7930  174.0470  137.3480 N   0  0  0  0  0  0  0  0  0  0  0  0
  186.7260  172.7570  137.7590 O   0  0  0  0  0  0  0  0  0  0  0  0
  185.7550  173.2970  136.9780 C   0  0  0  0  0  0  0  0  0  0  0  0
  181.4110  174.3900  137.9470 N   0  0  0  0  0  2  0  0  0  0  0  0
  181.1650  175.2940  138.9230 O   0  0  0  0  0  0  0  0  0  0  0  0
  179.5970  177.4810  139.6520 C   0  0  0  0  0  1  0  0  0  0  0  0
  179.2850  173.6300  139.0670 C   0  0  0  0  0  1  0  0  0  0  0  0
  179.7290  175.3260  140.8710 C   0  0  0  0  0  2  0  0  0  0  0  0
  179.8880  174.9760  139.4160 C   0  0  1  0  0  0  0  0  0  0  0  0
  178.9570  176.1080  139.8200 C   0  0  2  0  0  3  0  0  0  0  0  0
  2  4  1  0  0  0  0
  2  1  1  0  0  0  0
  3  1  1  6  0  0  0
  3  7  1  0  0  0  0
  4  5  1  0  0  0  0
  5  3  1  0  0  0  0
  5 29  1  1  0  0  0
  6 10  1  1  0  0  0
  7  9  1  1  0  0  0
  7  6  1  0  0  0  0
  8  7  1  0  0  0  0
  8  6  1  0  0  0  0
 11 10  1  6  0  0  0
 11 12  1  0  0  0  0
 11 15  1  0  0  0  0
 12 14  1  0  0  0  0
 13 24  1  1  0  0  0
 14 13  1  0  0  0  0
 14 16  1  1  0  0  0
 15 13  1  0  0  0  0
 18 17  1  0  0  0  0
 19 17  1  6  0  0  0
 20 19  1  0  0  0  0
 21 16  1  6  0  0  0
 21 20  1  0  0  0  0
 21 19  1  0  0  0  0
 22 18  1  0  0  0  0
 23 22  1  0  0  0  0
 23 21  1  0  0  0  0
 24 25  1  0  0  0  0
 25 26  1  0  0  0  0
 26 28  1  0  0  0  0
 26 27  1  0  0  0  0
 28 27  1  0  0  0  0
 30 29  1  1  0  0  0
 30 33  1  0  0  0  0
 32 31  1  0  0  0  0
 32 34  2  0  0  0  0
 33 36  1  0  0  0  0
 34 33  2  0  0  0  0
 36 35  2  0  0  0  0
 37 39  1  0  0  0  0
 37 41  1  0  0  0  0
 38 39  2  0  0  0  0
 39 40  1  0  0  0  0
 40 30  1  0  0  0  0
 41 42  1  6  0  0  0
 41 47  1  0  0  0  0
 43 46  1  0  0  0  0
 43 42  1  0  0  0  0
 44 45  1  0  0  0  0
 46 44  2  0  0  0  0
 46 45  1  0  0  0  0
 47 48  1  0  0  0  0
 48 52  1  0  0  0  0
 52 50  1  6  0  0  0
 52 53  1  0  0  0  0
 52 51  1  0  0  0  0
 53 49  1  6  0  0  0
 53 51  1  0  0  0  0
M  END
>  <MODEL>
6

>  <REMARK>
 VINA RESULT:      -7.0      2.741     10.117
  Name = 
  20 active torsions:
  status: ('A' for Active; 'I' for Inactive)
    1  A    between atoms: C_1  and  C_48
    2  A    between atoms: C_8  and  C_18
    3  A    between atoms: C_8  and  C_32
    4  A    between atoms: N_10  and  C_42
    5  A    between atoms: N_10  and  O_52
    6  A    between atoms: C_11  and  C_35
    7  A    between atoms: C_11  and  C_40
    8  A    between atoms: C_11  and  N_43
    9  A    between atoms: C_12  and  O_52
   10  A    between atoms: O_13  and  C_19
   11  A    between atoms: O_13  and  O_27
   12  A    between atoms: N_15  and  C_42
   13  A    between atoms: C_16  and  C_30
   14  A    between atoms: C_16  and  C_33
   15  A    between atoms: C_18  and  C_42
   16  A    between atoms: C_20  and  C_48
   17  A    between atoms: C_21  and  O_27
   18  A    between atoms: C_26  and  C_34
   19  A    between atoms: C_35  and  C_51
   20  A    between atoms: C_40  and  C_53
                            x       y       z     vdW  Elec       q    Type
                         _______ _______ _______ _____ _____    ______ ____

>  <TORSDO>
F 20

$$$$
=
 OpenBabel11062414053D

 53 60  0  0  1  0  0  0  0  0999 V2000
  188.9990  176.1150  138.2880 N   0  0  0  0  0  2  0  0  0  0  0  0
  190.2360  176.3400  139.0260 C   0  0  0  0  0  2  0  0  0  0  0  0
  188.1410  177.2420  138.6240 C   0  0  1  0  0  3  0  0  0  0  0  0
  190.4000  177.8420  139.1840 C   0  0  0  0  0  2  0  0  0  0  0  0
  189.0290  178.4240  138.9490 C   0  0  2  0  0  3  0  0  0  0  0  0
  186.0530  176.7030  137.1920 C   0  0  2  0  0  3  0  0  0  0  0  0
  187.2220  177.5840  137.4590 C   0  0  2  0  0  0  0  0  0  0  0  0
  187.2500  176.6150  136.4380 O   0  0  0  0  0  0  0  0  0  0  0  0
  187.2160  178.8870  136.9470 O   0  0  0  0  0  1  0  0  0  0  0  0
  184.9810  177.3740  136.3520 C   0  0  0  0  0  2  0  0  0  0  0  0
  183.7090  176.5460  136.3850 C   0  0  1  0  0  3  0  0  0  0  0  0
  184.0180  175.0910  136.0790 C   0  0  0  0  0  2  0  0  0  0  0  0
  182.6380  175.3600  137.9710 C   0  0  1  0  0  3  0  0  0  0  0  0
  183.5820  174.3700  137.3140 C   0  0  1  0  0  3  0  0  0  0  0  0
  183.1150  176.6440  137.6600 O   0  0  0  0  0  0  0  0  0  0  0  0
  182.9490  173.0220  136.9770 C   0  0  0  0  0  2  0  0  0  0  0  0
  184.6870  170.4280  134.5940 C   0  0  0  0  0  2  0  0  0  0  0  0
  186.0520  170.4200  135.2750 C   0  0  0  0  0  2  0  0  0  0  0  0
  183.5560  171.0960  135.3980 C   0  0  1  0  0  3  0  0  0  0  0  0
  183.5940  170.6910  136.7500 O   0  0  0  0  0  0  0  0  0  0  0  0
  183.9870  172.0200  136.4870 C   0  0  2  0  0  0  0  0  0  0  0  0
  186.3980  171.8240  135.7220 C   0  0  0  0  0  2  0  0  0  0  0  0
  185.4620  172.2380  136.8450 C   0  0  0  0  0  2  0  0  0  0  0  0
  181.3300  175.2260  137.4820 O   0  0  0  0  0  0  0  0  0  0  0  0
  180.7120  176.3280  137.8510 O   0  0  0  0  0  0  0  0  0  0  0  0
  179.8970  175.9400  138.9180 C   0  0  0  0  0  3  0  0  0  0  0  0
  180.5650  176.3320  140.2210 C   0  0  0  0  0  2  0  0  0  0  0  0
  179.4390  177.1740  139.6700 C   0  0  0  0  0  2  0  0  0  0  0  0
  188.5180  179.1220  140.2030 C   0  0  0  0  0  2  0  0  0  0  0  0
  187.8670  178.1630  141.2050 C   0  0  2  0  0  3  0  0  0  0  0  0
  183.3790  178.8220  140.0520 O   0  0  0  0  0  1  0  0  0  0  0  0
  184.7120  179.1220  139.8070 C   0  0  0  0  0  3  0  0  0  0  0  0
  186.5060  178.6220  141.6410 C   0  0  0  0  0  0  0  0  0  0  0  0
  185.6100  178.8750  140.7210 C   0  0  0  0  0  0  0  0  0  0  0  0
  185.0630  178.2450  143.6160 C   0  0  0  0  0  2  0  0  0  0  0  0
  186.1790  178.7270  143.0790 C   0  0  0  0  0  3  0  0  0  0  0  0
  189.5020  176.6050  144.3030 N   0  0  0  0  0  2  0  0  0  0  0  0
  188.0080  175.7490  142.7420 O   0  0  0  0  0  0  0  0  0  0  0  0
  188.7180  176.7230  143.1130 C   0  0  0  0  0  0  0  0  0  0  0  0
  188.7360  177.9350  142.3520 N   0  0  0  0  0  2  0  0  0  0  0  0
  190.2990  177.6940  144.8670 C   0  0  2  0  0  3  0  0  0  0  0  0
  191.7120  177.2260  145.1980 C   0  0  0  0  0  2  0  0  0  0  0  0
  191.6690  175.8850  145.9080 C   0  0  0  0  0  2  0  0  0  0  0  0
  193.2200  175.6360  148.1330 N   0  0  0  0  0  0  0  0  0  0  0  0
  192.3480  176.6180  148.4700 O   0  0  0  0  0  0  0  0  0  0  0  0
  192.2910  176.0140  147.2550 C   0  0  0  0  0  0  0  0  0  0  0  0
  189.6540  178.2150  146.0650 N   0  0  0  0  0  2  0  0  0  0  0  0
  188.3520  177.8490  146.0070 O   0  0  0  0  0  0  0  0  0  0  0  0
  185.9360  178.9150  146.9020 C   0  0  0  0  0  1  0  0  0  0  0  0
  188.6200  176.2730  147.9480 C   0  0  0  0  0  1  0  0  0  0  0  0
  188.0070  178.6940  148.2480 C   0  0  0  0  0  2  0  0  0  0  0  0
  188.0000  177.5070  147.3240 C   0  0  1  0  0  0  0  0  0  0  0  0
  186.6880  178.0280  147.8890 C   0  0  2  0  0  3  0  0  0  0  0  0
  1  2  1  0  0  0  0
  2  4  1  0  0  0  0
  3  1  1  6  0  0  0
  3  5  1  0  0  0  0
  5  4  1  0  0  0  0
  5 29  1  1  0  0  0
  6 10  1  6  0  0  0
  6  7  1  0  0  0  0
  7  9  1  6  0  0  0
  7  3  1  0  0  0  0
  8  6  1  0  0  0  0
  8  7  1  0  0  0  0
 11 10  1  1  0  0  0
 11 15  1  0  0  0  0
 12 11  1  0  0  0  0
 12 14  1  0  0  0  0
 13 24  1  6  0  0  0
 14 16  1  6  0  0  0
 14 13  1  0  0  0  0
 15 13  1  0  0  0  0
 17 18  1  0  0  0  0
 18 22  1  0  0  0  0
 19 17  1  6  0  0  0
 19 21  1  0  0  0  0
 19 20  1  0  0  0  0
 21 20  1  0  0  0  0
 21 23  1  0  0  0  0
 21 16  1  1  0  0  0
 22 23  1  0  0  0  0
 24 25  1  0  0  0  0
 25 26  1  0  0  0  0
 26 28  1  0  0  0  0
 26 27  1  0  0  0  0
 28 27  1  0  0  0  0
 30 29  1  6  0  0  0
 30 33  1  0  0  0  0
 30 40  1  0  0  0  0
 32 31  1  0  0  0  0
 32 34  2  0  0  0  0
 33 36  1  0  0  0  0
 34 33  2  0  0  0  0
 36 35  2  0  0  0  0
 37 41  1  0  0  0  0
 38 39  2  0  0  0  0
 39 37  1  0  0  0  0
 40 39  1  0  0  0  0
 41 42  1  1  0  0  0
 41 47  1  0  0  0  0
 42 43  1  0  0  0  0
 43 46  1  0  0  0  0
 44 45  1  0  0  0  0
 46 44  2  0  0  0  0
 46 45  1  0  0  0  0
 48 47  1  0  0  0  0
 48 52  1  0  0  0  0
 52 53  1  0  0  0  0
 52 50  1  1  0  0  0
 52 51  1  0  0  0  0
 53 49  1  6  0  0  0
 53 51  1  0  0  0  0
M  END
>  <MODEL>
7

>  <REMARK>
 VINA RESULT:      -6.8      2.497      7.557
  Name = 
  20 active torsions:
  status: ('A' for Active; 'I' for Inactive)
    1  A    between atoms: C_1  and  C_48
    2  A    between atoms: C_8  and  C_18
    3  A    between atoms: C_8  and  C_32
    4  A    between atoms: N_10  and  C_42
    5  A    between atoms: N_10  and  O_52
    6  A    between atoms: C_11  and  C_35
    7  A    between atoms: C_11  and  C_40
    8  A    between atoms: C_11  and  N_43
    9  A    between atoms: C_12  and  O_52
   10  A    between atoms: O_13  and  C_19
   11  A    between atoms: O_13  and  O_27
   12  A    between atoms: N_15  and  C_42
   13  A    between atoms: C_16  and  C_30
   14  A    between atoms: C_16  and  C_33
   15  A    between atoms: C_18  and  C_42
   16  A    between atoms: C_20  and  C_48
   17  A    between atoms: C_21  and  O_27
   18  A    between atoms: C_26  and  C_34
   19  A    between atoms: C_35  and  C_51
   20  A    between atoms: C_40  and  C_53
                            x       y       z     vdW  Elec       q    Type
                         _______ _______ _______ _____ _____    ______ ____

>  <TORSDO>
F 20

$$$$
=
 OpenBabel11062414053D

 53 60  0  0  1  0  0  0  0  0999 V2000
  184.8600  179.0500  146.2430 N   0  0  0  0  0  2  0  0  0  0  0  0
  186.0350  178.5060  146.9130 C   0  0  0  0  0  2  0  0  0  0  0  0
  185.1860  179.0350  144.8240 C   0  0  1  0  0  3  0  0  0  0  0  0
  186.7010  177.5430  145.9440 C   0  0  0  0  0  2  0  0  0  0  0  0
  186.1670  177.9080  144.5820 C   0  0  2  0  0  3  0  0  0  0  0  0
  184.0830  178.4120  142.5660 C   0  0  2  0  0  3  0  0  0  0  0  0
  183.9310  178.8230  143.9870 C   0  0  2  0  0  0  0  0  0  0  0  0
  183.8100  179.7520  142.9370 O   0  0  0  0  0  0  0  0  0  0  0  0
  182.7080  178.5940  144.6290 O   0  0  0  0  0  1  0  0  0  0  0  0
  182.8260  177.7870  141.9890 C   0  0  0  0  0  2  0  0  0  0  0  0
  182.7260  178.1070  140.5080 C   0  0  1  0  0  3  0  0  0  0  0  0
  183.9070  177.5150  139.7590 C   0  0  0  0  0  2  0  0  0  0  0  0
  181.8390  177.0620  138.7220 C   0  0  1  0  0  3  0  0  0  0  0  0
  183.2730  176.5690  138.7910 C   0  0  1  0  0  3  0  0  0  0  0  0
  181.5260  177.5800  139.9900 O   0  0  0  0  0  0  0  0  0  0  0  0
  184.0050  176.5680  137.4520 C   0  0  0  0  0  2  0  0  0  0  0  0
  186.6650  173.7710  136.7210 C   0  0  0  0  0  2  0  0  0  0  0  0
  185.7350  172.5720  136.8730 C   0  0  0  0  0  2  0  0  0  0  0  0
  185.9620  175.1380  136.6170 C   0  0  1  0  0  3  0  0  0  0  0  0
  184.8580  175.0700  135.7400 O   0  0  0  0  0  0  0  0  0  0  0  0
  184.5560  175.1880  137.1130 C   0  0  2  0  0  0  0  0  0  0  0  0
  184.7700  172.8250  138.0110 C   0  0  0  0  0  2  0  0  0  0  0  0
  183.8190  173.9440  137.6240 C   0  0  0  0  0  2  0  0  0  0  0  0
  181.6910  178.0770  137.7640 O   0  0  0  0  0  0  0  0  0  0  0  0
  180.7780  177.6280  136.9280 O   0  0  0  0  0  0  0  0  0  0  0  0
  181.1720  178.1090  135.6760 C   0  0  0  0  0  3  0  0  0  0  0  0
  181.2200  176.9560  134.6940 C   0  0  0  0  0  2  0  0  0  0  0  0
  180.0440  177.9050  134.6850 C   0  0  0  0  0  2  0  0  0  0  0  0
  187.2910  178.3920  143.6750 C   0  0  0  0  0  2  0  0  0  0  0  0
  188.5170  177.4720  143.6900 C   0  0  2  0  0  3  0  0  0  0  0  0
  191.1840  176.5970  147.4350 O   0  0  0  0  0  1  0  0  0  0  0  0
  189.9080  176.7500  146.9100 C   0  0  0  0  0  3  0  0  0  0  0  0
  189.5920  177.9610  144.6160 C   0  0  0  0  0  0  0  0  0  0  0  0
  189.7460  177.3550  145.7660 C   0  0  0  0  0  0  0  0  0  0  0  0
  191.7270  178.8810  143.7680 C   0  0  0  0  0  2  0  0  0  0  0  0
  190.4860  179.0650  144.2040 C   0  0  0  0  0  3  0  0  0  0  0  0
  190.5260  176.1510  140.7040 N   0  0  0  0  0  2  0  0  0  0  0  0
  190.2650  175.3550  142.8720 O   0  0  0  0  0  0  0  0  0  0  0  0
  189.9530  176.2230  142.0120 C   0  0  0  0  0  0  0  0  0  0  0  0
  189.0360  177.2700  142.3430 N   0  0  0  0  0  2  0  0  0  0  0  0
  190.2960  177.1440  139.6560 C   0  0  2  0  0  3  0  0  0  0  0  0
  188.8730  177.6900  139.7190 C   0  0  0  0  0  2  0  0  0  0  0  0
  188.0780  177.2280  138.5120 C   0  0  0  0  0  2  0  0  0  0  0  0
  187.5250  178.8080  136.3630 N   0  0  0  0  0  0  0  0  0  0  0  0
  188.2910  179.6060  137.1470 O   0  0  0  0  0  0  0  0  0  0  0  0
  187.9890  178.3360  137.5210 C   0  0  0  0  0  0  0  0  0  0  0  0
  190.5440  176.5550  138.3470 N   0  0  0  0  0  2  0  0  0  0  0  0
  190.9330  175.2760  138.5540 O   0  0  0  0  0  0  0  0  0  0  0  0
  193.6620  175.5470  138.0540 C   0  0  0  0  0  1  0  0  0  0  0  0
  190.5000  173.7950  136.5690 C   0  0  0  0  0  1  0  0  0  0  0  0
  191.8460  175.9140  136.4060 C   0  0  0  0  0  2  0  0  0  0  0  0
  191.3600  174.8060  137.3000 C   0  0  1  0  0  0  0  0  0  0  0  0
  192.8360  174.8960  136.9490 C   0  0  2  0  0  3  0  0  0  0  0  0
  1  2  1  0  0  0  0
  3  1  1  1  0  0  0
  4  2  1  0  0  0  0
  5 29  1  6  0  0  0
  5  3  1  0  0  0  0
  5  4  1  0  0  0  0
  6 10  1  6  0  0  0
  6  8  1  0  0  0  0
  6  7  1  0  0  0  0
  7  9  1  1  0  0  0
  7  3  1  0  0  0  0
  8  7  1  0  0  0  0
 11 10  1  1  0  0  0
 12 11  1  0  0  0  0
 13 24  1  6  0  0  0
 13 14  1  0  0  0  0
 13 15  1  0  0  0  0
 14 16  1  6  0  0  0
 14 12  1  0  0  0  0
 15 11  1  0  0  0  0
 17 18  1  0  0  0  0
 18 22  1  0  0  0  0
 19 17  1  1  0  0  0
 19 21  1  0  0  0  0
 20 19  1  0  0  0  0
 20 21  1  0  0  0  0
 21 16  1  1  0  0  0
 21 23  1  0  0  0  0
 23 22  1  0  0  0  0
 25 24  1  0  0  0  0
 26 25  1  0  0  0  0
 27 26  1  0  0  0  0
 28 27  1  0  0  0  0
 28 26  1  0  0  0  0
 30 29  1  6  0  0  0
 30 33  1  0  0  0  0
 32 31  1  0  0  0  0
 33 34  2  0  0  0  0
 34 32  2  0  0  0  0
 35 36  2  0  0  0  0
 36 33  1  0  0  0  0
 37 39  1  0  0  0  0
 39 40  1  0  0  0  0
 39 38  2  0  0  0  0
 40 30  1  0  0  0  0
 41 42  1  6  0  0  0
 41 37  1  0  0  0  0
 43 42  1  0  0  0  0
 44 45  1  0  0  0  0
 44 46  2  0  0  0  0
 45 46  1  0  0  0  0
 46 43  1  0  0  0  0
 47 48  1  0  0  0  0
 47 41  1  0  0  0  0
 51 53  1  0  0  0  0
 51 52  1  0  0  0  0
 52 50  1  6  0  0  0
 52 48  1  0  0  0  0
 53 52  1  0  0  0  0
 53 49  1  1  0  0  0
M  END
>  <MODEL>
8

>  <REMARK>
 VINA RESULT:      -6.7      1.550      1.834
  Name = 
  20 active torsions:
  status: ('A' for Active; 'I' for Inactive)
    1  A    between atoms: C_1  and  C_48
    2  A    between atoms: C_8  and  C_18
    3  A    between atoms: C_8  and  C_32
    4  A    between atoms: N_10  and  C_42
    5  A    between atoms: N_10  and  O_52
    6  A    between atoms: C_11  and  C_35
    7  A    between atoms: C_11  and  C_40
    8  A    between atoms: C_11  and  N_43
    9  A    between atoms: C_12  and  O_52
   10  A    between atoms: O_13  and  C_19
   11  A    between atoms: O_13  and  O_27
   12  A    between atoms: N_15  and  C_42
   13  A    between atoms: C_16  and  C_30
   14  A    between atoms: C_16  and  C_33
   15  A    between atoms: C_18  and  C_42
   16  A    between atoms: C_20  and  C_48
   17  A    between atoms: C_21  and  O_27
   18  A    between atoms: C_26  and  C_34
   19  A    between atoms: C_35  and  C_51
   20  A    between atoms: C_40  and  C_53
                            x       y       z     vdW  Elec       q    Type
                         _______ _______ _______ _____ _____    ______ ____

>  <TORSDO>
F 20

$$$$
=
 OpenBabel11062414053D

 53 60  0  0  1  0  0  0  0  0999 V2000
  186.9260  178.4660  136.1050 N   0  0  0  0  0  2  0  0  0  0  0  0
  187.9840  179.3770  136.5230 C   0  0  0  0  0  2  0  0  0  0  0  0
  187.5750  177.1730  135.9400 C   0  0  1  0  0  3  0  0  0  0  0  0
  189.0150  178.5550  137.2800 C   0  0  0  0  0  2  0  0  0  0  0  0
  188.7630  177.1250  136.8770 C   0  0  2  0  0  3  0  0  0  0  0  0
  185.5350  176.2850  137.2620 C   0  0  2  0  0  3  0  0  0  0  0  0
  186.6090  176.0410  136.2620 C   0  0  2  0  0  0  0  0  0  0  0  0
  186.7230  175.5840  137.5880 O   0  0  0  0  0  0  0  0  0  0  0  0
  186.4590  174.9870  135.3530 O   0  0  0  0  0  1  0  0  0  0  0  0
  184.3860  175.2980  137.1560 C   0  0  0  0  0  2  0  0  0  0  0  0
  183.0640  176.0370  137.2480 C   0  0  1  0  0  3  0  0  0  0  0  0
  182.3740  175.7220  138.5630 C   0  0  0  0  0  2  0  0  0  0  0  0
  182.4230  178.0290  138.0810 C   0  0  1  0  0  3  0  0  0  0  0  0
  182.2630  177.0540  139.2330 C   0  0  1  0  0  3  0  0  0  0  0  0
  183.2910  177.4260  137.1550 O   0  0  0  0  0  0  0  0  0  0  0  0
  180.9460  177.1880  139.9940 C   0  0  0  0  0  2  0  0  0  0  0  0
  180.3410  178.4310  143.6710 C   0  0  0  0  0  2  0  0  0  0  0  0
  181.5860  179.3060  143.7890 C   0  0  0  0  0  2  0  0  0  0  0  0
  179.9950  177.9720  142.2420 C   0  0  1  0  0  3  0  0  0  0  0  0
  180.1160  179.0400  141.3280 O   0  0  0  0  0  0  0  0  0  0  0  0
  181.1060  178.0390  141.2480 C   0  0  2  0  0  0  0  0  0  0  0  0
  182.7450  178.6260  143.0930 C   0  0  0  0  0  2  0  0  0  0  0  0
  182.4890  178.6030  141.5960 C   0  0  0  0  0  2  0  0  0  0  0  0
  181.1950  178.2890  137.4530 O   0  0  0  0  0  0  0  0  0  0  0  0
  180.7230  179.3610  138.0540 O   0  0  0  0  0  0  0  0  0  0  0  0
  181.5460  180.4040  137.6210 C   0  0  0  0  0  3  0  0  0  0  0  0
  180.6940  181.6260  137.3390 C   0  0  0  0  0  2  0  0  0  0  0  0
  181.4840  181.5390  138.6240 C   0  0  0  0  0  2  0  0  0  0  0  0
  189.9710  176.5510  136.1460 C   0  0  0  0  0  2  0  0  0  0  0  0
  190.9940  175.9050  137.0850 C   0  0  2  0  0  3  0  0  0  0  0  0
  188.6630  171.9870  136.0260 O   0  0  0  0  0  1  0  0  0  0  0  0
  188.7650  173.1120  136.8310 C   0  0  0  0  0  3  0  0  0  0  0  0
  191.0300  174.4090  136.9560 C   0  0  0  0  0  0  0  0  0  0  0  0
  189.8950  173.7620  136.8970 C   0  0  0  0  0  0  0  0  0  0  0  0
  193.4970  174.2730  137.0930 C   0  0  0  0  0  2  0  0  0  0  0  0
  192.3240  173.7030  136.8400 C   0  0  0  0  0  3  0  0  0  0  0  0
  191.5350  177.1350  140.6750 N   0  0  0  0  0  2  0  0  0  0  0  0
  192.9130  177.1570  138.8040 O   0  0  0  0  0  0  0  0  0  0  0  0
  191.7840  176.8780  139.2910 C   0  0  0  0  0  0  0  0  0  0  0  0
  190.7640  176.3070  138.4660 N   0  0  0  0  0  2  0  0  0  0  0  0
  190.2930  176.7810  141.3610 C   0  0  2  0  0  3  0  0  0  0  0  0
  189.0770  177.2870  140.5920 C   0  0  0  0  0  2  0  0  0  0  0  0
  188.6290  178.6290  141.1400 C   0  0  0  0  0  2  0  0  0  0  0  0
  185.9780  178.9700  140.6170 N   0  0  0  0  0  0  0  0  0  0  0  0
  185.9820  178.4170  141.8550 O   0  0  0  0  0  0  0  0  0  0  0  0
  187.1420  178.6730  141.1960 C   0  0  0  0  0  0  0  0  0  0  0  0
  190.2930  177.3310  142.7090 N   0  0  0  0  0  2  0  0  0  0  0  0
  190.2000  176.2880  143.5660 O   0  0  0  0  0  0  0  0  0  0  0  0
  187.8390  177.0900  144.8140 C   0  0  0  0  0  1  0  0  0  0  0  0
  191.6190  176.5180  145.6290 C   0  0  0  0  0  1  0  0  0  0  0  0
  190.0020  178.3000  144.8950 C   0  0  0  0  0  2  0  0  0  0  0  0
  190.3600  176.8390  144.8480 C   0  0  1  0  0  0  0  0  0  0  0  0
  189.1240  177.2870  145.6120 C   0  0  2  0  0  3  0  0  0  0  0  0
  1  2  1  0  0  0  0
  2  4  1  0  0  0  0
  3  1  1  1  0  0  0
  3  7  1  0  0  0  0
  3  5  1  0  0  0  0
  5 29  1  6  0  0  0
  5  4  1  0  0  0  0
  6 10  1  6  0  0  0
  6  8  1  0  0  0  0
  7  9  1  6  0  0  0
  7  6  1  0  0  0  0
  7  8  1  0  0  0  0
 11 10  1  1  0  0  0
 11 12  1  0  0  0  0
 12 14  1  0  0  0  0
 13 24  1  6  0  0  0
 13 14  1  0  0  0  0
 14 16  1  6  0  0  0
 15 11  1  0  0  0  0
 15 13  1  0  0  0  0
 17 18  1  0  0  0  0
 19 17  1  1  0  0  0
 20 19  1  0  0  0  0
 21 16  1  6  0  0  0
 21 20  1  0  0  0  0
 21 23  1  0  0  0  0
 21 19  1  0  0  0  0
 22 18  1  0  0  0  0
 23 22  1  0  0  0  0
 24 25  1  0  0  0  0
 26 25  1  0  0  0  0
 26 28  1  0  0  0  0
 27 26  1  0  0  0  0
 27 28  1  0  0  0  0
 30 29  1  6  0  0  0
 30 40  1  0  0  0  0
 31 32  1  0  0  0  0
 32 34  2  0  0  0  0
 33 30  1  0  0  0  0
 34 33  2  0  0  0  0
 36 33  1  0  0  0  0
 36 35  2  0  0  0  0
 37 41  1  0  0  0  0
 38 39  2  0  0  0  0
 39 37  1  0  0  0  0
 40 39  1  0  0  0  0
 41 42  1  6  0  0  0
 41 47  1  0  0  0  0
 42 43  1  0  0  0  0
 43 46  1  0  0  0  0
 44 46  2  0  0  0  0
 44 45  1  0  0  0  0
 46 45  1  0  0  0  0
 47 48  1  0  0  0  0
 48 52  1  0  0  0  0
 51 53  1  0  0  0  0
 52 51  1  0  0  0  0
 52 53  1  0  0  0  0
 52 50  1  1  0  0  0
 53 49  1  6  0  0  0
M  END
>  <MODEL>
9

>  <REMARK>
 VINA RESULT:      -6.6      2.103      7.230
  Name = 
  20 active torsions:
  status: ('A' for Active; 'I' for Inactive)
    1  A    between atoms: C_1  and  C_48
    2  A    between atoms: C_8  and  C_18
    3  A    between atoms: C_8  and  C_32
    4  A    between atoms: N_10  and  C_42
    5  A    between atoms: N_10  and  O_52
    6  A    between atoms: C_11  and  C_35
    7  A    between atoms: C_11  and  C_40
    8  A    between atoms: C_11  and  N_43
    9  A    between atoms: C_12  and  O_52
   10  A    between atoms: O_13  and  C_19
   11  A    between atoms: O_13  and  O_27
   12  A    between atoms: N_15  and  C_42
   13  A    between atoms: C_16  and  C_30
   14  A    between atoms: C_16  and  C_33
   15  A    between atoms: C_18  and  C_42
   16  A    between atoms: C_20  and  C_48
   17  A    between atoms: C_21  and  O_27
   18  A    between atoms: C_26  and  C_34
   19  A    between atoms: C_35  and  C_51
   20  A    between atoms: C_40  and  C_53
                            x       y       z     vdW  Elec       q    Type
                         _______ _______ _______ _____ _____    ______ ____

>  <TORSDO>
F 20

$$$$
