=
 OpenBabel11062416453D

 28 32  0  0  1  0  0  0  0  0999 V2000
  189.7460  177.9890  137.8330 C   0  0  0  0  0  2  0  0  0  0  0  0
  188.8020  178.4310  140.0210 N   0  0  0  0  0  0  0  0  0  0  0  0
  189.6250  177.2160  140.0920 C   0  0  1  0  0  3  0  0  0  0  0  0
  190.4480  177.1010  138.8230 C   0  0  1  0  0  3  0  0  0  0  0  0
  189.0570  179.0170  138.7010 C   0  0  0  0  0  2  0  0  0  0  0  0
  190.5840  175.6500  138.3590 C   0  0  0  0  0  3  0  0  0  0  0  0
  189.4800  175.2260  137.3830 C   0  0  0  0  0  2  0  0  0  0  0  0
  191.0310  173.6860  136.2810 N   0  0  0  0  0  2  0  0  0  0  0  0
  189.7230  173.7900  136.9270 C   0  0  0  0  0  2  0  0  0  0  0  0
  191.9660  175.4050  137.7540 C   0  0  0  0  0  2  0  0  0  0  0  0
  192.0660  173.9580  137.2780 C   0  0  0  0  0  2  0  0  0  0  0  0
  187.3830  178.0460  140.1070 C   0  0  2  0  0  3  0  0  0  0  0  0
  186.6540  178.2880  138.7860 C   0  0  0  0  0  1  0  0  0  0  0  0
  186.6480  178.7880  141.2310 C   0  0  0  0  0  2  0  0  0  0  0  0
  185.1740  178.9970  140.9170 C   0  0  0  0  0  1  0  0  0  0  0  0
  190.5080  177.2160  141.3420 C   0  0  0  0  0  2  0  0  0  0  0  0
  188.0850  177.2830  145.0890 C   0  0  0  0  0  0  0  0  0  0  0  0
  189.2520  176.4080  143.2050 C   0  0  0  0  0  0  0  0  0  0  0  0
  190.6230  176.3570  143.5640 C   0  0  0  0  0  0  0  0  0  0  0  0
  189.1380  178.5930  146.8440 F   0  0  0  0  0  0  0  0  0  0  0  0
  190.2170  176.0400  142.2660 C   0  0  2  0  0  3  0  0  0  0  0  0
  188.0130  176.6890  143.8770 C   0  0  0  0  0  3  0  0  0  0  0  0
  190.7320  177.2120  145.7520 C   0  0  0  0  0  3  0  0  0  0  0  0
  191.3780  176.5660  144.7660 C   0  0  0  0  0  3  0  0  0  0  0  0
  189.3790  177.9400  145.6480 C   0  0  1  0  0  3  0  0  0  0  0  0
  186.3400  178.8430  145.7820 N   0  0  0  0  0  2  0  0  0  0  0  0
  186.8010  177.4440  145.8630 C   0  0  1  0  0  3  0  0  0  0  0  0
  185.6710  177.8000  144.9970 C   0  0  0  0  0  2  0  0  0  0  0  0
  1  5  1  0  0  0  0
  1  4  1  0  0  0  0
  2  3  1  0  0  0  0
  2 12  1  0  0  0  0
  3 16  1  1  0  0  0
  4  6  1  6  0  0  0
  4  3  1  0  0  0  0
  5  2  1  0  0  0  0
  7  6  1  0  0  0  0
  8  9  1  0  0  0  0
  8 11  1  0  0  0  0
  9  7  1  0  0  0  0
 10  6  1  0  0  0  0
 11 10  1  0  0  0  0
 12 13  1  6  0  0  0
 12 14  1  0  0  0  0
 15 14  1  0  0  0  0
 17 25  1  0  0  0  0
 18 19  2  0  0  0  0
 18 22  1  0  0  0  0
 19 24  1  0  0  0  0
 21 16  1  6  0  0  0
 21 18  1  0  0  0  0
 21 19  1  0  0  0  0
 22 17  2  0  0  0  0
 24 23  2  0  0  0  0
 25 23  1  0  0  0  0
 25 20  1  1  0  0  0
 26 27  1  0  0  0  0
 27 17  1  6  0  0  0
 28 26  1  0  0  0  0
 28 27  1  0  0  0  0
M  END
>  <MODEL>
1

>  <REMARK>
 VINA RESULT:      -7.7      0.000      0.000
  Name = 
  6 active torsions:
  status: ('A' for Active; 'I' for Inactive)
    1  A    between atoms: C_1  and  C_5
    2  A    between atoms: C_1  and  N_7
    3  A    between atoms: C_3  and  C_13
    4  A    between atoms: C_8  and  C_18
    5  A    between atoms: C_9  and  C_15
    6  A    between atoms: C_18  and  C_20
                            x       y       z     vdW  Elec       q    Type
                         _______ _______ _______ _____ _____    ______ ____

>  <TORSDO>
F 6

$$$$
=
 OpenBabel11062416453D

 28 32  0  0  1  0  0  0  0  0999 V2000
  182.6780  179.5520  138.5640 C   0  0  0  0  0  2  0  0  0  0  0  0
  181.5810  178.6170  140.5120 N   0  0  0  0  0  0  0  0  0  0  0  0
  182.8700  177.9400  140.3190 C   0  0  1  0  0  3  0  0  0  0  0  0
  183.6860  178.7100  139.2970 C   0  0  1  0  0  3  0  0  0  0  0  0
  181.5700  179.7450  139.5740 C   0  0  0  0  0  2  0  0  0  0  0  0
  184.4900  177.7810  138.3870 C   0  0  0  0  0  3  0  0  0  0  0  0
  183.8060  177.5240  137.0390 C   0  0  0  0  0  2  0  0  0  0  0  0
  185.9920  177.2840  135.9650 N   0  0  0  0  0  2  0  0  0  0  0  0
  184.6980  176.6380  136.1740 C   0  0  0  0  0  2  0  0  0  0  0  0
  185.9060  178.3170  138.1840 C   0  0  0  0  0  2  0  0  0  0  0  0
  186.6760  177.3840  137.2530 C   0  0  0  0  0  2  0  0  0  0  0  0
  180.4990  177.6860  140.1520 C   0  0  2  0  0  3  0  0  0  0  0  0
  179.5580  177.4340  141.3280 C   0  0  0  0  0  1  0  0  0  0  0  0
  181.0360  176.3440  139.6390 C   0  0  0  0  0  2  0  0  0  0  0  0
  180.4850  175.9890  138.2650 C   0  0  0  0  0  1  0  0  0  0  0  0
  183.6220  177.7860  141.6430 C   0  0  0  0  0  2  0  0  0  0  0  0
  187.5370  177.6060  143.7780 C   0  0  0  0  0  0  0  0  0  0  0  0
  185.7800  178.4570  142.4120 C   0  0  0  0  0  0  0  0  0  0  0  0
  184.8220  179.0260  143.2900 C   0  0  0  0  0  0  0  0  0  0  0  0
  187.2780  177.0650  146.1320 F   0  0  0  0  0  0  0  0  0  0  0  0
  184.5700  178.9460  141.9180 C   0  0  2  0  0  3  0  0  0  0  0  0
  187.1030  177.9090  142.5340 C   0  0  0  0  0  3  0  0  0  0  0  0
  185.6660  178.6720  145.4560 C   0  0  0  0  0  3  0  0  0  0  0  0
  184.7550  179.3040  144.6960 C   0  0  0  0  0  3  0  0  0  0  0  0
  186.6020  177.5300  145.0180 C   0  0  1  0  0  3  0  0  0  0  0  0
  189.2040  175.9310  143.1660 N   0  0  0  0  0  2  0  0  0  0  0  0
  188.9740  177.1720  143.9280 C   0  0  1  0  0  3  0  0  0  0  0  0
  189.7020  177.2120  142.6550 C   0  0  0  0  0  2  0  0  0  0  0  0
  1  4  1  0  0  0  0
  1  5  1  0  0  0  0
  3  2  1  0  0  0  0
  3 16  1  1  0  0  0
  4  6  1  6  0  0  0
  4  3  1  0  0  0  0
  5  2  1  0  0  0  0
  7  6  1  0  0  0  0
  8  9  1  0  0  0  0
  8 11  1  0  0  0  0
  9  7  1  0  0  0  0
 10  6  1  0  0  0  0
 11 10  1  0  0  0  0
 12  2  1  0  0  0  0
 12 13  1  1  0  0  0
 14 12  1  0  0  0  0
 15 14  1  0  0  0  0
 17 25  1  0  0  0  0
 18 22  1  0  0  0  0
 18 19  2  0  0  0  0
 19 24  1  0  0  0  0
 21 16  1  1  0  0  0
 21 18  1  0  0  0  0
 21 19  1  0  0  0  0
 22 17  2  0  0  0  0
 24 23  2  0  0  0  0
 25 23  1  0  0  0  0
 25 20  1  1  0  0  0
 26 27  1  0  0  0  0
 27 17  1  6  0  0  0
 28 26  1  0  0  0  0
 28 27  1  0  0  0  0
M  END
>  <MODEL>
2

>  <REMARK>
 VINA RESULT:      -7.4      3.373      5.912
  Name = 
  6 active torsions:
  status: ('A' for Active; 'I' for Inactive)
    1  A    between atoms: C_1  and  C_5
    2  A    between atoms: C_1  and  N_7
    3  A    between atoms: C_3  and  C_13
    4  A    between atoms: C_8  and  C_18
    5  A    between atoms: C_9  and  C_15
    6  A    between atoms: C_18  and  C_20
                            x       y       z     vdW  Elec       q    Type
                         _______ _______ _______ _____ _____    ______ ____

>  <TORSDO>
F 6

$$$$
=
 OpenBabel11062416453D

 28 32  0  0  1  0  0  0  0  0999 V2000
  180.7280  176.6420  139.2800 C   0  0  0  0  0  2  0  0  0  0  0  0
  183.1120  177.0720  139.2260 N   0  0  0  0  0  0  0  0  0  0  0  0
  182.5290  177.7610  140.3850 C   0  0  1  0  0  3  0  0  0  0  0  0
  181.1120  177.2610  140.5950 C   0  0  1  0  0  3  0  0  0  0  0  0
  182.0510  176.2160  138.6850 C   0  0  0  0  0  2  0  0  0  0  0  0
  180.1720  178.3800  141.0460 C   0  0  0  0  0  3  0  0  0  0  0  0
  180.0220  178.4580  142.5700 C   0  0  0  0  0  2  0  0  0  0  0  0
  179.6830  180.8780  142.4220 N   0  0  0  0  0  2  0  0  0  0  0  0
  179.1160  179.6320  142.9350 C   0  0  0  0  0  2  0  0  0  0  0  0
  180.6200  179.7240  140.4750 C   0  0  0  0  0  2  0  0  0  0  0  0
  179.6790  180.8240  140.9610 C   0  0  0  0  0  2  0  0  0  0  0  0
  183.4770  178.0770  138.2120 C   0  0  2  0  0  3  0  0  0  0  0  0
  183.3630  177.5150  136.7970 C   0  0  0  0  0  1  0  0  0  0  0  0
  184.8940  178.6260  138.4250 C   0  0  0  0  0  2  0  0  0  0  0  0
  185.9310  177.8830  137.5950 C   0  0  0  0  0  1  0  0  0  0  0  0
  183.3890  177.5690  141.6360 C   0  0  0  0  0  2  0  0  0  0  0  0
  187.0860  177.7860  144.1270 C   0  0  0  0  0  0  0  0  0  0  0  0
  185.3780  178.4620  142.6090 C   0  0  0  0  0  0  0  0  0  0  0  0
  184.2850  178.9040  143.3970 C   0  0  0  0  0  0  0  0  0  0  0  0
  186.6740  177.1760  146.4420 F   0  0  0  0  0  0  0  0  0  0  0  0
  184.1710  178.8220  142.0080 C   0  0  2  0  0  3  0  0  0  0  0  0
  186.7380  178.0620  142.8490 C   0  0  0  0  0  3  0  0  0  0  0  0
  184.9600  178.6060  145.6300 C   0  0  0  0  0  3  0  0  0  0  0  0
  184.0580  179.1460  144.7930 C   0  0  0  0  0  3  0  0  0  0  0  0
  186.0550  177.5830  145.2730 C   0  0  1  0  0  3  0  0  0  0  0  0
  189.0000  176.3650  143.6000 N   0  0  0  0  0  2  0  0  0  0  0  0
  188.5420  177.5120  144.4070 C   0  0  1  0  0  3  0  0  0  0  0  0
  189.3870  177.7300  143.2270 C   0  0  0  0  0  2  0  0  0  0  0  0
  1  4  1  0  0  0  0
  2  3  1  0  0  0  0
  3  4  1  0  0  0  0
  3 16  1  1  0  0  0
  4  6  1  6  0  0  0
  5  2  1  0  0  0  0
  5  1  1  0  0  0  0
  6  7  1  0  0  0  0
  7  9  1  0  0  0  0
  8  9  1  0  0  0  0
 10 11  1  0  0  0  0
 10  6  1  0  0  0  0
 11  8  1  0  0  0  0
 12 13  1  6  0  0  0
 12 14  1  0  0  0  0
 12  2  1  0  0  0  0
 15 14  1  0  0  0  0
 17 25  1  0  0  0  0
 18 22  1  0  0  0  0
 18 19  2  0  0  0  0
 19 24  1  0  0  0  0
 21 16  1  1  0  0  0
 21 18  1  0  0  0  0
 21 19  1  0  0  0  0
 22 17  2  0  0  0  0
 24 23  2  0  0  0  0
 25 23  1  0  0  0  0
 25 20  1  1  0  0  0
 26 27  1  0  0  0  0
 27 17  1  6  0  0  0
 28 26  1  0  0  0  0
 28 27  1  0  0  0  0
M  END
>  <MODEL>
3

>  <REMARK>
 VINA RESULT:      -7.4      3.837      7.836
  Name = 
  6 active torsions:
  status: ('A' for Active; 'I' for Inactive)
    1  A    between atoms: C_1  and  C_5
    2  A    between atoms: C_1  and  N_7
    3  A    between atoms: C_3  and  C_13
    4  A    between atoms: C_8  and  C_18
    5  A    between atoms: C_9  and  C_15
    6  A    between atoms: C_18  and  C_20
                            x       y       z     vdW  Elec       q    Type
                         _______ _______ _______ _____ _____    ______ ____

>  <TORSDO>
F 6

$$$$
=
 OpenBabel11062416453D

 28 32  0  0  1  0  0  0  0  0999 V2000
  190.1300  178.8480  144.4290 C   0  0  0  0  0  2  0  0  0  0  0  0
  191.6240  177.0780  143.7160 N   0  0  0  0  0  0  0  0  0  0  0  0
  190.2560  176.7450  143.2990 C   0  0  1  0  0  3  0  0  0  0  0  0
  189.3740  177.9670  143.4730 C   0  0  1  0  0  3  0  0  0  0  0  0
  191.5740  178.4590  144.2070 C   0  0  0  0  0  2  0  0  0  0  0  0
  187.9710  177.5970  143.9570 C   0  0  0  0  0  3  0  0  0  0  0  0
  187.7350  177.9420  145.4320 C   0  0  0  0  0  2  0  0  0  0  0  0
  185.3640  178.3370  144.9710 N   0  0  0  0  0  2  0  0  0  0  0  0
  186.2990  177.5950  145.8150 C   0  0  0  0  0  2  0  0  0  0  0  0
  186.9080  178.2450  143.0710 C   0  0  0  0  0  2  0  0  0  0  0  0
  185.5190  177.8800  143.5910 C   0  0  0  0  0  2  0  0  0  0  0  0
  192.0100  176.1900  144.8260 C   0  0  2  0  0  3  0  0  0  0  0  0
  191.9470  174.7200  144.4180 C   0  0  0  0  0  1  0  0  0  0  0  0
  191.1390  176.4060  146.0700 C   0  0  0  0  0  2  0  0  0  0  0  0
  191.8770  176.0660  147.3570 C   0  0  0  0  0  1  0  0  0  0  0  0
  190.2240  176.2250  141.8600 C   0  0  0  0  0  2  0  0  0  0  0  0
  188.0830  177.3040  138.0950 C   0  0  0  0  0  0  0  0  0  0  0  0
  189.6030  177.4750  139.9230 C   0  0  0  0  0  0  0  0  0  0  0  0
  190.7400  176.6990  139.5800 C   0  0  0  0  0  0  0  0  0  0  0  0
  188.1290  175.5060  136.4620 F   0  0  0  0  0  0  0  0  0  0  0  0
  190.6330  177.2830  140.8440 C   0  0  2  0  0  3  0  0  0  0  0  0
  188.4070  177.9150  139.2570 C   0  0  0  0  0  3  0  0  0  0  0  0
  190.2630  175.7850  137.4660 C   0  0  0  0  0  3  0  0  0  0  0  0
  191.1960  176.0070  138.4080 C   0  0  0  0  0  3  0  0  0  0  0  0
  188.7420  175.9820  137.6070 C   0  0  1  0  0  3  0  0  0  0  0  0
  185.7330  177.0010  137.5100 N   0  0  0  0  0  2  0  0  0  0  0  0
  186.9160  177.8600  137.3180 C   0  0  1  0  0  3  0  0  0  0  0  0
  185.8230  178.2960  138.1930 C   0  0  0  0  0  2  0  0  0  0  0  0
  2  5  1  0  0  0  0
  2 12  1  0  0  0  0
  3 16  1  6  0  0  0
  3  4  1  0  0  0  0
  3  2  1  0  0  0  0
  4  6  1  1  0  0  0
  4  1  1  0  0  0  0
  5  1  1  0  0  0  0
  6  7  1  0  0  0  0
  7  9  1  0  0  0  0
  8  9  1  0  0  0  0
 10 11  1  0  0  0  0
 10  6  1  0  0  0  0
 11  8  1  0  0  0  0
 12 13  1  6  0  0  0
 12 14  1  0  0  0  0
 14 15  1  0  0  0  0
 17 22  2  0  0  0  0
 18 21  1  0  0  0  0
 19 18  2  0  0  0  0
 19 21  1  0  0  0  0
 21 16  1  1  0  0  0
 22 18  1  0  0  0  0
 23 25  1  0  0  0  0
 23 24  2  0  0  0  0
 24 19  1  0  0  0  0
 25 20  1  6  0  0  0
 25 17  1  0  0  0  0
 26 28  1  0  0  0  0
 27 26  1  0  0  0  0
 27 17  1  1  0  0  0
 27 28  1  0  0  0  0
M  END
>  <MODEL>
4

>  <REMARK>
 VINA RESULT:      -7.4      2.817      7.345
  Name = 
  6 active torsions:
  status: ('A' for Active; 'I' for Inactive)
    1  A    between atoms: C_1  and  C_5
    2  A    between atoms: C_1  and  N_7
    3  A    between atoms: C_3  and  C_13
    4  A    between atoms: C_8  and  C_18
    5  A    between atoms: C_9  and  C_15
    6  A    between atoms: C_18  and  C_20
                            x       y       z     vdW  Elec       q    Type
                         _______ _______ _______ _____ _____    ______ ____

>  <TORSDO>
F 6

$$$$
=
 OpenBabel11062416453D

 28 32  0  0  1  0  0  0  0  0999 V2000
  191.6690  178.7230  143.7770 C   0  0  0  0  0  2  0  0  0  0  0  0
  189.3760  178.2510  143.1510 N   0  0  0  0  0  0  0  0  0  0  0  0
  189.6160  177.7400  144.5070 C   0  0  1  0  0  3  0  0  0  0  0  0
  190.9370  178.2870  145.0160 C   0  0  1  0  0  3  0  0  0  0  0  0
  190.5610  179.0420  142.7990 C   0  0  0  0  0  2  0  0  0  0  0  0
  191.7000  177.2570  145.8510 C   0  0  0  0  0  3  0  0  0  0  0  0
  191.1850  177.1550  147.2920 C   0  0  0  0  0  2  0  0  0  0  0  0
  191.8000  174.7870  147.3540 N   0  0  0  0  0  2  0  0  0  0  0  0
  191.9590  176.0700  148.0350 C   0  0  0  0  0  2  0  0  0  0  0  0
  191.6810  175.8900  145.1700 C   0  0  0  0  0  2  0  0  0  0  0  0
  192.4270  174.8780  146.0360 C   0  0  0  0  0  2  0  0  0  0  0  0
  189.2730  177.1100  142.2270 C   0  0  2  0  0  3  0  0  0  0  0  0
  189.6740  175.8000  142.9020 C   0  0  0  0  0  1  0  0  0  0  0  0
  190.1220  177.3070  140.9650 C   0  0  0  0  0  2  0  0  0  0  0  0
  189.3050  177.1560  139.6890 C   0  0  0  0  0  1  0  0  0  0  0  0
  188.4600  178.0900  145.4460 C   0  0  0  0  0  2  0  0  0  0  0  0
  184.6570  178.5310  143.1500 C   0  0  0  0  0  0  0  0  0  0  0  0
  186.4080  177.4870  144.3830 C   0  0  0  0  0  0  0  0  0  0  0  0
  186.1260  177.7070  145.7560 C   0  0  0  0  0  0  0  0  0  0  0  0
  183.2450  180.2970  144.0380 F   0  0  0  0  0  0  0  0  0  0  0  0
  187.3160  177.0880  145.3660 C   0  0  2  0  0  3  0  0  0  0  0  0
  185.7310  177.7090  143.1350 C   0  0  0  0  0  3  0  0  0  0  0  0
  184.1470  178.9780  145.7940 C   0  0  0  0  0  3  0  0  0  0  0  0
  185.0300  178.2530  146.5040 C   0  0  0  0  0  3  0  0  0  0  0  0
  184.3080  179.4660  144.3430 C   0  0  1  0  0  3  0  0  0  0  0  0
  184.6350  179.3780  140.8600 N   0  0  0  0  0  2  0  0  0  0  0  0
  183.8540  178.6520  141.8790 C   0  0  1  0  0  3  0  0  0  0  0  0
  184.4690  177.9240  140.7620 C   0  0  0  0  0  2  0  0  0  0  0  0
  1  4  1  0  0  0  0
  2  3  1  0  0  0  0
  3  4  1  0  0  0  0
  3 16  1  1  0  0  0
  4  6  1  6  0  0  0
  5  2  1  0  0  0  0
  5  1  1  0  0  0  0
  6  7  1  0  0  0  0
  7  9  1  0  0  0  0
  8  9  1  0  0  0  0
 10  6  1  0  0  0  0
 10 11  1  0  0  0  0
 11  8  1  0  0  0  0
 12 13  1  1  0  0  0
 12  2  1  0  0  0  0
 14 12  1  0  0  0  0
 15 14  1  0  0  0  0
 17 25  1  0  0  0  0
 18 21  1  0  0  0  0
 18 19  2  0  0  0  0
 19 24  1  0  0  0  0
 21 16  1  6  0  0  0
 21 19  1  0  0  0  0
 22 17  2  0  0  0  0
 22 18  1  0  0  0  0
 23 24  2  0  0  0  0
 25 20  1  6  0  0  0
 25 23  1  0  0  0  0
 26 27  1  0  0  0  0
 27 17  1  1  0  0  0
 28 26  1  0  0  0  0
 28 27  1  0  0  0  0
M  END
>  <MODEL>
5

>  <REMARK>
 VINA RESULT:      -7.2      3.030      6.281
  Name = 
  6 active torsions:
  status: ('A' for Active; 'I' for Inactive)
    1  A    between atoms: C_1  and  C_5
    2  A    between atoms: C_1  and  N_7
    3  A    between atoms: C_3  and  C_13
    4  A    between atoms: C_8  and  C_18
    5  A    between atoms: C_9  and  C_15
    6  A    between atoms: C_18  and  C_20
                            x       y       z     vdW  Elec       q    Type
                         _______ _______ _______ _____ _____    ______ ____

>  <TORSDO>
F 6

$$$$
=
 OpenBabel11062416453D

 28 32  0  0  1  0  0  0  0  0999 V2000
  189.4740  178.2120  136.6220 C   0  0  0  0  0  2  0  0  0  0  0  0
  187.6560  178.4350  138.2080 N   0  0  0  0  0  0  0  0  0  0  0  0
  188.4300  177.2310  138.5360 C   0  0  1  0  0  3  0  0  0  0  0  0
  189.7260  177.2460  137.7470 C   0  0  1  0  0  3  0  0  0  0  0  0
  188.4250  179.1460  137.1800 C   0  0  0  0  0  2  0  0  0  0  0  0
  190.1260  175.8460  137.2770 C   0  0  0  0  0  3  0  0  0  0  0  0
  189.9400  175.6440  135.7690 C   0  0  0  0  0  2  0  0  0  0  0  0
  191.8230  174.0800  135.7360 N   0  0  0  0  0  2  0  0  0  0  0  0
  190.4150  174.2470  135.3780 C   0  0  0  0  0  2  0  0  0  0  0  0
  191.5610  175.5280  137.6950 C   0  0  0  0  0  2  0  0  0  0  0  0
  191.9420  174.1370  137.1930 C   0  0  0  0  0  2  0  0  0  0  0  0
  186.3620  178.0250  137.6370 C   0  0  2  0  0  3  0  0  0  0  0  0
  185.2130  178.2690  138.6140 C   0  0  0  0  0  1  0  0  0  0  0  0
  186.3580  176.5510  137.2130 C   0  0  0  0  0  2  0  0  0  0  0  0
  186.2040  176.3850  135.7070 C   0  0  0  0  0  1  0  0  0  0  0  0
  188.6860  177.1270  140.0410 C   0  0  0  0  0  2  0  0  0  0  0  0
  188.7140  177.8620  144.4440 C   0  0  0  0  0  0  0  0  0  0  0  0
  188.8540  178.3110  142.1080 C   0  0  0  0  0  0  0  0  0  0  0  0
  187.5220  178.4590  141.6420 C   0  0  0  0  0  0  0  0  0  0  0  0
  186.7280  176.9870  145.5360 F   0  0  0  0  0  0  0  0  0  0  0  0
  188.5940  178.4740  140.7460 C   0  0  2  0  0  3  0  0  0  0  0  0
  189.4970  178.1710  143.3850 C   0  0  0  0  0  3  0  0  0  0  0  0
  186.1560  178.1120  143.5250 C   0  0  0  0  0  3  0  0  0  0  0  0
  186.2240  178.5320  142.2490 C   0  0  0  0  0  3  0  0  0  0  0  0
  187.2480  177.3610  144.3100 C   0  0  1  0  0  3  0  0  0  0  0  0
  189.8130  176.4980  146.1440 N   0  0  0  0  0  2  0  0  0  0  0  0
  189.3560  177.8590  145.8080 C   0  0  1  0  0  3  0  0  0  0  0  0
  190.7840  177.5240  145.7500 C   0  0  0  0  0  2  0  0  0  0  0  0
  1  5  1  0  0  0  0
  1  4  1  0  0  0  0
  2  3  1  0  0  0  0
  3 16  1  1  0  0  0
  4  6  1  6  0  0  0
  4  3  1  0  0  0  0
  5  2  1  0  0  0  0
  6 10  1  0  0  0  0
  7  6  1  0  0  0  0
  8 11  1  0  0  0  0
  9  8  1  0  0  0  0
  9  7  1  0  0  0  0
 11 10  1  0  0  0  0
 12  2  1  0  0  0  0
 12 13  1  1  0  0  0
 14 12  1  0  0  0  0
 15 14  1  0  0  0  0
 18 22  1  0  0  0  0
 19 18  2  0  0  0  0
 19 24  1  0  0  0  0
 21 16  1  6  0  0  0
 21 19  1  0  0  0  0
 21 18  1  0  0  0  0
 22 17  2  0  0  0  0
 23 25  1  0  0  0  0
 24 23  2  0  0  0  0
 25 17  1  0  0  0  0
 25 20  1  1  0  0  0
 27 17  1  6  0  0  0
 27 26  1  0  0  0  0
 28 27  1  0  0  0  0
 28 26  1  0  0  0  0
M  END
>  <MODEL>
6

>  <REMARK>
 VINA RESULT:      -7.1      1.780      3.074
  Name = 
  6 active torsions:
  status: ('A' for Active; 'I' for Inactive)
    1  A    between atoms: C_1  and  C_5
    2  A    between atoms: C_1  and  N_7
    3  A    between atoms: C_3  and  C_13
    4  A    between atoms: C_8  and  C_18
    5  A    between atoms: C_9  and  C_15
    6  A    between atoms: C_18  and  C_20
                            x       y       z     vdW  Elec       q    Type
                         _______ _______ _______ _____ _____    ______ ____

>  <TORSDO>
F 6

$$$$
=
 OpenBabel11062416453D

 28 32  0  0  1  0  0  0  0  0999 V2000
  187.7480  176.9550  145.1980 C   0  0  0  0  0  2  0  0  0  0  0  0
  185.6850  178.0240  144.5090 N   0  0  0  0  0  0  0  0  0  0  0  0
  186.6630  178.1260  143.4180 C   0  0  1  0  0  3  0  0  0  0  0  0
  187.8370  177.2140  143.7190 C   0  0  1  0  0  3  0  0  0  0  0  0
  186.2760  177.1200  145.5020 C   0  0  0  0  0  2  0  0  0  0  0  0
  189.1670  177.8280  143.2810 C   0  0  0  0  0  3  0  0  0  0  0  0
  190.0460  178.2580  144.4620 C   0  0  0  0  0  2  0  0  0  0  0  0
  192.0570  177.7830  143.1500 N   0  0  0  0  0  2  0  0  0  0  0  0
  191.3720  178.8040  143.9400 C   0  0  0  0  0  2  0  0  0  0  0  0
  189.9240  176.8740  142.3600 C   0  0  0  0  0  2  0  0  0  0  0  0
  191.2580  177.5010  141.9590 C   0  0  0  0  0  2  0  0  0  0  0  0
  185.5140  179.3550  145.1180 C   0  0  2  0  0  3  0  0  0  0  0  0
  185.6060  179.2930  146.6410 C   0  0  0  0  0  1  0  0  0  0  0  0
  184.1840  180.0070  144.7190 C   0  0  0  0  0  2  0  0  0  0  0  0
  183.0380  179.0060  144.6820 C   0  0  0  0  0  1  0  0  0  0  0  0
  186.0240  177.8000  142.0670 C   0  0  0  0  0  2  0  0  0  0  0  0
  182.0580  177.9600  140.0260 C   0  0  0  0  0  0  0  0  0  0  0  0
  184.0540  178.7210  141.0810 C   0  0  0  0  0  0  0  0  0  0  0  0
  185.0650  178.7200  140.0860 C   0  0  0  0  0  0  0  0  0  0  0  0
  182.0240  176.6570  137.9760 F   0  0  0  0  0  0  0  0  0  0  0  0
  185.3770  179.0150  141.4150 C   0  0  2  0  0  3  0  0  0  0  0  0
  182.6320  178.5180  141.1150 C   0  0  0  0  0  3  0  0  0  0  0  0
  184.0240  177.9290  138.1320 C   0  0  0  0  0  3  0  0  0  0  0  0
  185.1090  178.5140  138.6670 C   0  0  0  0  0  3  0  0  0  0  0  0
  182.8640  177.2610  138.8940 C   0  0  1  0  0  3  0  0  0  0  0  0
  180.1040  176.6140  140.6030 N   0  0  0  0  0  2  0  0  0  0  0  0
  180.5520  177.8810  139.9950 C   0  0  1  0  0  3  0  0  0  0  0  0
  179.9680  177.8750  141.3410 C   0  0  0  0  0  2  0  0  0  0  0  0
  1  5  1  0  0  0  0
  2 12  1  0  0  0  0
  2  5  1  0  0  0  0
  3 16  1  6  0  0  0
  3  4  1  0  0  0  0
  3  2  1  0  0  0  0
  4  6  1  1  0  0  0
  4  1  1  0  0  0  0
  6  7  1  0  0  0  0
  8  9  1  0  0  0  0
  9  7  1  0  0  0  0
 10  6  1  0  0  0  0
 11 10  1  0  0  0  0
 11  8  1  0  0  0  0
 12 13  1  1  0  0  0
 14 12  1  0  0  0  0
 15 14  1  0  0  0  0
 17 22  2  0  0  0  0
 18 22  1  0  0  0  0
 18 21  1  0  0  0  0
 19 18  2  0  0  0  0
 19 21  1  0  0  0  0
 21 16  1  1  0  0  0
 23 24  2  0  0  0  0
 23 25  1  0  0  0  0
 24 19  1  0  0  0  0
 25 20  1  6  0  0  0
 25 17  1  0  0  0  0
 26 28  1  0  0  0  0
 27 17  1  1  0  0  0
 27 26  1  0  0  0  0
 27 28  1  0  0  0  0
M  END
>  <MODEL>
7

>  <REMARK>
 VINA RESULT:      -7.0      3.972      7.230
  Name = 
  6 active torsions:
  status: ('A' for Active; 'I' for Inactive)
    1  A    between atoms: C_1  and  C_5
    2  A    between atoms: C_1  and  N_7
    3  A    between atoms: C_3  and  C_13
    4  A    between atoms: C_8  and  C_18
    5  A    between atoms: C_9  and  C_15
    6  A    between atoms: C_18  and  C_20
                            x       y       z     vdW  Elec       q    Type
                         _______ _______ _______ _____ _____    ______ ____

>  <TORSDO>
F 6

$$$$
=
 OpenBabel11062416453D

 28 32  0  0  1  0  0  0  0  0999 V2000
  188.7960  178.4730  136.2500 C   0  0  0  0  0  2  0  0  0  0  0  0
  187.5650  178.6480  138.3300 N   0  0  0  0  0  0  0  0  0  0  0  0
  188.6990  177.7340  138.5210 C   0  0  1  0  0  3  0  0  0  0  0  0
  189.6330  177.8490  137.3320 C   0  0  1  0  0  3  0  0  0  0  0  0
  187.7580  179.2640  137.0120 C   0  0  0  0  0  2  0  0  0  0  0  0
  190.2340  176.4970  136.9430 C   0  0  0  0  0  3  0  0  0  0  0  0
  191.5290  176.1770  137.6990 C   0  0  0  0  0  2  0  0  0  0  0  0
  191.0100  173.7870  137.5960 N   0  0  0  0  0  2  0  0  0  0  0  0
  192.0280  174.7920  137.2950 C   0  0  0  0  0  2  0  0  0  0  0  0
  189.2090  175.3790  137.1250 C   0  0  0  0  0  2  0  0  0  0  0  0
  189.8420  174.0400  136.7530 C   0  0  0  0  0  2  0  0  0  0  0  0
  186.3210  177.8610  138.3110 C   0  0  2  0  0  3  0  0  0  0  0  0
  185.9490  177.4280  136.8940 C   0  0  0  0  0  1  0  0  0  0  0  0
  185.1430  178.6250  138.9300 C   0  0  0  0  0  2  0  0  0  0  0  0
  185.3080  178.8240  140.4300 C   0  0  0  0  0  1  0  0  0  0  0  0
  189.4230  178.0160  139.8390 C   0  0  0  0  0  2  0  0  0  0  0  0
  188.7570  177.3190  144.1980 C   0  0  0  0  0  0  0  0  0  0  0  0
  189.1850  176.8390  141.9030 C   0  0  0  0  0  0  0  0  0  0  0  0
  190.5710  177.0530  141.6950 C   0  0  0  0  0  0  0  0  0  0  0  0
  190.1980  178.7000  145.5820 F   0  0  0  0  0  0  0  0  0  0  0  0
  189.7310  176.7460  140.6220 C   0  0  2  0  0  3  0  0  0  0  0  0
  188.2970  176.8060  143.0330 C   0  0  0  0  0  3  0  0  0  0  0  0
  191.4160  177.7620  143.7720 C   0  0  0  0  0  3  0  0  0  0  0  0
  191.7040  177.3340  142.5300 C   0  0  0  0  0  3  0  0  0  0  0  0
  190.0370  178.1950  144.3040 C   0  0  1  0  0  3  0  0  0  0  0  0
  187.0590  178.3570  145.6120 N   0  0  0  0  0  2  0  0  0  0  0  0
  187.8900  177.1540  145.4210 C   0  0  1  0  0  3  0  0  0  0  0  0
  186.4610  177.1240  145.0900 C   0  0  0  0  0  2  0  0  0  0  0  0
  1  5  1  0  0  0  0
  1  4  1  0  0  0  0
  2  3  1  0  0  0  0
  3 16  1  1  0  0  0
  4  6  1  6  0  0  0
  4  3  1  0  0  0  0
  5  2  1  0  0  0  0
  6 10  1  0  0  0  0
  6  7  1  0  0  0  0
  9  8  1  0  0  0  0
  9  7  1  0  0  0  0
 11 10  1  0  0  0  0
 11  8  1  0  0  0  0
 12 13  1  6  0  0  0
 12  2  1  0  0  0  0
 12 14  1  0  0  0  0
 14 15  1  0  0  0  0
 17 25  1  0  0  0  0
 18 22  1  0  0  0  0
 19 18  2  0  0  0  0
 19 24  1  0  0  0  0
 21 16  1  6  0  0  0
 21 19  1  0  0  0  0
 21 18  1  0  0  0  0
 22 17  2  0  0  0  0
 23 25  1  0  0  0  0
 24 23  2  0  0  0  0
 25 20  1  1  0  0  0
 27 17  1  6  0  0  0
 27 26  1  0  0  0  0
 28 27  1  0  0  0  0
 28 26  1  0  0  0  0
M  END
>  <MODEL>
8

>  <REMARK>
 VINA RESULT:      -7.0      1.276      1.894
  Name = 
  6 active torsions:
  status: ('A' for Active; 'I' for Inactive)
    1  A    between atoms: C_1  and  C_5
    2  A    between atoms: C_1  and  N_7
    3  A    between atoms: C_3  and  C_13
    4  A    between atoms: C_8  and  C_18
    5  A    between atoms: C_9  and  C_15
    6  A    between atoms: C_18  and  C_20
                            x       y       z     vdW  Elec       q    Type
                         _______ _______ _______ _____ _____    ______ ____

>  <TORSDO>
F 6

$$$$
=
 OpenBabel11062416453D

 28 32  0  0  1  0  0  0  0  0999 V2000
  190.1990  175.8460  142.5550 C   0  0  0  0  0  2  0  0  0  0  0  0
  189.5780  177.2600  144.4230 N   0  0  0  0  0  0  0  0  0  0  0  0
  189.1460  177.9010  143.1740 C   0  0  1  0  0  3  0  0  0  0  0  0
  189.2600  176.9020  142.0390 C   0  0  1  0  0  3  0  0  0  0  0  0
  190.0190  175.9100  144.0550 C   0  0  0  0  0  2  0  0  0  0  0  0
  189.7290  177.5600  140.7400 C   0  0  0  0  0  3  0  0  0  0  0  0
  190.6170  176.6440  139.8910 C   0  0  0  0  0  2  0  0  0  0  0  0
  189.7830  177.7100  137.8510 N   0  0  0  0  0  2  0  0  0  0  0  0
  190.9910  177.3540  138.5930 C   0  0  0  0  0  2  0  0  0  0  0  0
  188.5360  178.0640  139.9300 C   0  0  0  0  0  2  0  0  0  0  0  0
  189.0310  178.6930  138.6300 C   0  0  0  0  0  2  0  0  0  0  0  0
  190.7260  178.0060  144.9660 C   0  0  2  0  0  3  0  0  0  0  0  0
  191.4300  178.8210  143.8840 C   0  0  0  0  0  1  0  0  0  0  0  0
  191.7460  177.0840  145.6470 C   0  0  0  0  0  2  0  0  0  0  0  0
  191.3590  176.7560  147.0820 C   0  0  0  0  0  1  0  0  0  0  0  0
  187.7270  178.4590  143.2970 C   0  0  0  0  0  2  0  0  0  0  0  0
  183.3540  178.6010  142.4150 C   0  0  0  0  0  0  0  0  0  0  0  0
  185.4860  177.6990  142.9780 C   0  0  0  0  0  0  0  0  0  0  0  0
  185.6650  177.9170  144.3680 C   0  0  0  0  0  0  0  0  0  0  0  0
  182.2000  180.2760  143.7440 F   0  0  0  0  0  0  0  0  0  0  0  0
  186.6960  177.3780  143.5950 C   0  0  2  0  0  3  0  0  0  0  0  0
  184.4150  177.8560  142.0320 C   0  0  0  0  0  3  0  0  0  0  0  0
  183.7300  179.0480  145.0820 C   0  0  0  0  0  3  0  0  0  0  0  0
  184.8480  178.3960  145.4460 C   0  0  0  0  0  3  0  0  0  0  0  0
  183.3600  179.5260  143.6650 C   0  0  1  0  0  3  0  0  0  0  0  0
  182.5490  179.2770  140.2110 N   0  0  0  0  0  2  0  0  0  0  0  0
  182.1650  178.6480  141.4880 C   0  0  1  0  0  3  0  0  0  0  0  0
  182.3620  177.8240  140.2900 C   0  0  0  0  0  2  0  0  0  0  0  0
  1  5  1  0  0  0  0
  2 12  1  0  0  0  0
  3 16  1  1  0  0  0
  3  2  1  0  0  0  0
  4  6  1  6  0  0  0
  4  1  1  0  0  0  0
  4  3  1  0  0  0  0
  5  2  1  0  0  0  0
  7  6  1  0  0  0  0
  8  9  1  0  0  0  0
  8 11  1  0  0  0  0
  9  7  1  0  0  0  0
 10  6  1  0  0  0  0
 11 10  1  0  0  0  0
 12 13  1  6  0  0  0
 12 14  1  0  0  0  0
 14 15  1  0  0  0  0
 17 25  1  0  0  0  0
 18 21  1  0  0  0  0
 18 19  2  0  0  0  0
 19 24  1  0  0  0  0
 21 16  1  6  0  0  0
 21 19  1  0  0  0  0
 22 17  2  0  0  0  0
 22 18  1  0  0  0  0
 23 24  2  0  0  0  0
 25 20  1  1  0  0  0
 25 23  1  0  0  0  0
 26 28  1  0  0  0  0
 26 27  1  0  0  0  0
 27 17  1  1  0  0  0
 28 27  1  0  0  0  0
M  END
>  <MODEL>
9

>  <REMARK>
 VINA RESULT:      -7.0      2.643      5.613
  Name = 
  6 active torsions:
  status: ('A' for Active; 'I' for Inactive)
    1  A    between atoms: C_1  and  C_5
    2  A    between atoms: C_1  and  N_7
    3  A    between atoms: C_3  and  C_13
    4  A    between atoms: C_8  and  C_18
    5  A    between atoms: C_9  and  C_15
    6  A    between atoms: C_18  and  C_20
                            x       y       z     vdW  Elec       q    Type
                         _______ _______ _______ _____ _____    ______ ____

>  <TORSDO>
F 6

$$$$
