=
 OpenBabel11062412483D

 54 58  0  0  1  0  0  0  0  0999 V2000
  192.3060  175.6910  137.9070 C   0  0  2  0  0  0  0  0  0  0  0  0
  186.7300  176.6510  137.5850 C   0  0  1  0  0  3  0  0  0  0  0  0
  182.3220  175.8050  137.1400 C   0  0  0  0  0  0  0  0  0  0  0  0
  190.5780  175.8990  139.7610 O   0  0  0  0  0  0  0  0  0  0  0  0
  192.1810  174.1790  137.9890 C   0  0  0  0  0  1  0  0  0  0  0  0
  183.2480  175.8920  138.3250 C   0  0  0  0  0  2  0  0  0  0  0  0
  185.3680  176.2200  137.0410 C   0  0  0  0  0  2  0  0  0  0  0  0
  182.4850  174.8880  136.2310 N   0  0  0  0  0  0  0  0  0  0  0  0
  191.0840  176.5160  137.4810 C   0  0  1  0  0  0  0  0  0  0  0  0
  187.6360  176.8450  136.3710 C   0  0  0  0  0  2  0  0  0  0  0  0
  189.6550  176.9160  140.1460 C   0  0  1  0  0  3  0  0  0  0  0  0
  188.0900  175.5550  135.8540 N   0  0  0  0  0  2  0  0  0  0  0  0
  181.7400  180.9870  137.3450 C   0  0  0  0  0  3  0  0  0  0  0  0
  190.8470  178.0150  137.2270 C   0  0  0  0  0  2  0  0  0  0  0  0
  181.2770  176.7650  136.9660 N   0  0  0  0  0  2  0  0  0  0  0  0
  186.6870  177.9930  138.3890 C   0  0  2  0  0  3  0  0  0  0  0  0
  183.1250  182.1270  138.8570 O   0  0  0  0  0  1  0  0  0  0  0  0
  190.1940  176.3470  134.8850 C   0  0  0  0  0  1  0  0  0  0  0  0
  193.5110  176.1950  137.4170 O   0  0  0  0  0  1  0  0  0  0  0  0
  187.7130  178.1950  139.3590 O   0  0  0  0  0  0  0  0  0  0  0  0
  189.9270  175.7120  137.3080 O   0  0  0  0  0  0  0  0  0  0  0  0
  181.0120  177.4750  139.1800 O   0  0  0  0  0  0  0  0  0  0  0  0
  189.8620  178.6530  138.2390 C   0  0  2  0  0  3  0  0  0  0  0  0
  180.8570  177.7140  137.9550 C   0  0  0  0  0  0  0  0  0  0  0  0
  182.6930  180.9410  138.2730 C   0  0  0  0  0  0  0  0  0  0  0  0
  185.3160  178.2700  139.0210 C   0  0  2  0  0  3  0  0  0  0  0  0
  188.9330  177.6240  138.9520 C   0  0  1  0  0  3  0  0  0  0  0  0
  178.9320  178.7390  136.7970 C   0  0  0  0  0  1  0  0  0  0  0  0
  188.6580  176.3050  141.1150 C   0  0  0  0  0  1  0  0  0  0  0  0
  189.1100  179.7760  137.5460 C   0  0  0  0  0  1  0  0  0  0  0  0
  181.1800  179.7870  136.6410 C   0  0  0  0  0  2  0  0  0  0  0  0
  183.2780  179.6450  138.7270 C   0  0  0  0  0  2  0  0  0  0  0  0
  184.7960  179.6570  138.6630 C   0  0  0  0  0  2  0  0  0  0  0  0
  183.5890  173.9240  136.1830 C   0  0  0  0  0  2  0  0  0  0  0  0
  184.4440  173.9160  137.4560 C   0  0  0  0  0  2  0  0  0  0  0  0
  191.5780  176.4930  138.9660 C   0  0  2  0  0  0  0  0  0  0  0  0
  184.6230  175.3190  138.0180 C   0  0  2  0  0  3  0  0  0  0  0  0
  189.5510  175.4480  135.9570 C   0  0  1  0  0  0  0  0  0  0  0  0
  180.2290  179.0040  137.5370 C   0  0  2  0  0  3  0  0  0  0  0  0
  185.9130  178.8880  141.2820 O   0  0  0  0  0  1  0  0  0  0  0  0
  185.2380  177.9330  140.5170 C   0  0  1  0  0  3  0  0  0  0  0  0
  183.8820  177.8460  140.9360 O   0  0  0  0  0  0  0  0  0  0  0  0
  183.4180  178.4500  142.1080 C   0  0  0  0  0  0  0  0  0  0  0  0
  182.3110  179.0500  142.0950 O   0  0  0  0  0  0  0  0  0  0  0  0
  184.1790  178.3550  143.3900 C   0  0  0  0  0  2  0  0  0  0  0  0
  183.7170  179.4410  144.3390 C   0  0  0  0  0  1  0  0  0  0  0  0
  192.4350  177.5880  139.6710 C   0  0  2  0  0  3  0  0  0  0  0  0
  193.6150  177.9020  138.9920 O   0  0  0  0  0  1  0  0  0  0  0  0
  192.7440  177.1780  141.1000 C   0  0  0  0  0  2  0  0  0  0  0  0
  191.9080  177.9880  142.0720 C   0  0  0  0  0  1  0  0  0  0  0  0
  189.9350  174.0030  135.6490 C   0  0  0  0  0  2  0  0  0  0  0  0
  188.8750  173.3170  135.0450 O   0  0  0  0  0  0  0  0  0  0  0  0
  188.2670  171.0820  134.8760 N   0  0  0  0  0  1  0  0  0  0  0  0
  188.7850  172.1160  135.7510 C   0  0  0  0  0  2  0  0  0  0  0  0
  1  5  1  1  0  0  0
  1 36  1  0  0  0  0
  2 10  1  6  0  0  0
  2 16  1  0  0  0  0
  3  6  1  0  0  0  0
  4 11  1  0  0  0  0
  7  2  1  0  0  0  0
  8  3  2  0  0  0  0
  9 14  1  6  0  0  0
  9  1  1  0  0  0  0
  9 36  1  0  0  0  0
 11 29  1  1  0  0  0
 12 38  1  0  0  0  0
 12 10  1  0  0  0  0
 13 25  2  0  0  0  0
 14 23  1  0  0  0  0
 15  3  1  0  0  0  0
 15 24  1  0  0  0  0
 16 26  1  0  0  0  0
 16 20  1  1  0  0  0
 19  1  1  0  0  0  0
 21  9  1  0  0  0  0
 23 30  1  6  0  0  0
 23 27  1  0  0  0  0
 24 22  2  0  0  0  0
 25 32  1  0  0  0  0
 25 17  1  0  0  0  0
 26 41  1  1  0  0  0
 27 20  1  1  0  0  0
 27 11  1  0  0  0  0
 31 13  1  0  0  0  0
 31 39  1  0  0  0  0
 33 32  1  0  0  0  0
 33 26  1  0  0  0  0
 34  8  1  0  0  0  0
 34 35  1  0  0  0  0
 35 37  1  0  0  0  0
 36 47  1  1  0  0  0
 36  4  1  0  0  0  0
 37  7  1  6  0  0  0
 37  6  1  0  0  0  0
 38 18  1  6  0  0  0
 38 21  1  0  0  0  0
 39 28  1  6  0  0  0
 39 24  1  0  0  0  0
 41 42  1  0  0  0  0
 41 40  1  1  0  0  0
 42 43  1  0  0  0  0
 43 45  1  0  0  0  0
 44 43  2  0  0  0  0
 45 46  1  0  0  0  0
 47 48  1  6  0  0  0
 47 49  1  0  0  0  0
 49 50  1  0  0  0  0
 51 38  1  0  0  0  0
 52 51  1  0  0  0  0
 52 54  1  0  0  0  0
 53 54  1  0  0  0  0
M  END
>  <MODEL>
1

>  <REMARK>
 VINA RESULT:      -1.5      0.000      0.000
  Name = 
  9 active torsions:
  status: ('A' for Active; 'I' for Inactive)
    1  A    between atoms: C_3  and  O_29
    2  A    between atoms: C_3  and  C_51
    3  A    between atoms: O_6  and  C_15
    4  A    between atoms: O_6  and  C_54
    5  A    between atoms: C_8  and  C_23
    6  A    between atoms: C_15  and  C_17
    7  A    between atoms: C_23  and  C_49
    8  A    between atoms: O_29  and  C_45
    9  A    between atoms: C_37  and  C_54
                            x       y       z     vdW  Elec       q    Type
                         _______ _______ _______ _____ _____    ______ ____

>  <TORSDO>
F 9

$$$$
