=
 OpenBabel11062412013D

 48 51  0  0  1  0  0  0  0  0999 V2000
  187.0940  177.2530  137.4280 C   0  0  2  0  0  3  0  0  0  0  0  0
  188.1720  177.0270  135.0870 C   0  0  1  0  0  3  0  0  0  0  0  0
  187.4290  177.9150  136.0900 C   0  0  2  0  0  3  0  0  0  0  0  0
  188.9340  178.0170  135.9430 C   0  0  0  0  0  2  0  0  0  0  0  0
  190.5700  175.5120  134.7900 O   0  0  0  0  0  0  0  0  0  0  0  0
  189.6100  174.9700  135.3990 C   0  0  0  0  0  0  0  0  0  0  0  0
  188.3800  175.6740  135.5870 N   0  0  0  0  0  2  0  0  0  0  0  0
  191.2460  173.2670  136.1080 C   0  0  0  0  0  1  0  0  0  0  0  0
  189.7720  173.5910  135.9420 C   0  0  1  0  0  3  0  0  0  0  0  0
  189.0940  173.4770  137.2220 N   0  0  0  0  0  2  0  0  0  0  0  0
  188.0280  172.5030  137.0560 C   0  0  0  0  0  1  0  0  0  0  0  0
  184.9610  176.2080  137.5040 O   0  0  0  0  0  0  0  0  0  0  0  0
  185.6200  177.2690  137.6720 C   0  0  0  0  0  0  0  0  0  0  0  0
  184.9990  178.4510  138.1010 O   0  0  0  0  0  0  0  0  0  0  0  0
  184.0250  178.5400  139.1470 C   0  0  1  0  0  3  0  0  0  0  0  0
  184.6290  178.4770  140.5540 C   0  0  1  0  0  3  0  0  0  0  0  0
  185.5100  179.5440  140.7460 O   0  0  0  0  0  1  0  0  0  0  0  0
  184.1320  178.4890  142.9910 C   0  0  0  0  0  1  0  0  0  0  0  0
  183.5310  178.5340  141.6020 C   0  0  0  0  0  2  0  0  0  0  0  0
  183.0540  179.7060  138.9400 C   0  0  0  0  0  2  0  0  0  0  0  0
  181.6440  179.2570  138.5810 C   0  0  1  0  0  3  0  0  0  0  0  0
  181.3680  179.4840  137.1000 C   0  0  0  0  0  2  0  0  0  0  0  0
  179.3800  179.8150  136.1970 C   0  0  0  0  0  1  0  0  0  0  0  0
  180.3820  180.4570  136.9240 O   0  0  0  0  0  0  0  0  0  0  0  0
  181.4790  177.9070  138.8960 O   0  0  0  0  0  0  0  0  0  0  0  0
  180.1680  177.8050  139.3700 C   0  0  0  0  0  2  0  0  0  0  0  0
  179.1350  177.0560  141.3500 O   0  0  0  0  0  0  0  0  0  0  0  0
  180.1640  177.1260  140.6980 C   0  0  0  0  0  3  0  0  0  0  0  0
  187.7840  177.9800  138.5300 C   0  0  0  0  0  3  0  0  0  0  0  0
  188.7190  177.4000  139.2110 N   0  0  0  0  0  0  0  0  0  0  0  0
  189.3110  176.8400  144.2820 C   0  0  2  0  0  3  0  0  0  0  0  0
  189.5350  178.3330  144.0080 C   0  0  0  0  0  2  0  0  0  0  0  0
  189.0640  177.8730  141.6170 C   0  0  0  0  0  0  0  0  0  0  0  0
  189.8660  178.5180  142.6030 N   0  0  0  0  0  2  0  0  0  0  0  0
  188.2680  176.2120  143.3250 C   0  0  0  0  0  2  0  0  0  0  0  0
  189.4090  177.9880  140.3270 C   0  0  0  0  0  3  0  0  0  0  0  0
  187.8990  177.0560  142.0950 C   0  0  0  0  0  2  0  0  0  0  0  0
  187.3640  177.6690  147.3210 C   0  0  1  0  0  3  0  0  0  0  0  0
  189.7680  177.4670  146.6940 C   0  0  1  0  0  3  0  0  0  0  0  0
  189.0730  178.7320  148.5880 O   0  0  0  0  0  0  0  0  0  0  0  0
  187.4680  176.9170  146.0030 C   0  0  0  0  0  2  0  0  0  0  0  0
  188.9450  176.5950  145.7500 C   0  0  1  0  0  3  0  0  0  0  0  0
  188.7680  178.0280  147.6370 C   0  0  0  0  0  0  0  0  0  0  0  0
  185.0770  178.5160  146.8770 C   0  0  0  0  0  2  0  0  0  0  0  0
  186.5180  178.9180  147.1230 C   0  0  0  0  0  3  0  0  0  0  0  0
  185.9540  178.9300  145.7150 C   0  0  0  0  0  2  0  0  0  0  0  0
  191.8910  176.2250  146.8120 C   0  0  0  0  0  2  0  0  0  0  0  0
  190.7660  176.6090  147.4090 C   0  0  0  0  0  3  0  0  0  0  0  0
  1 13  1  0  0  0  0
  1 29  1  1  0  0  0
  2  7  1  1  0  0  0
  2  4  1  0  0  0  0
  2  3  1  0  0  0  0
  3  1  1  1  0  0  0
  4  3  1  0  0  0  0
  5  6  2  0  0  0  0
  6  7  1  0  0  0  0
  6  9  1  0  0  0  0
  9  8  1  1  0  0  0
  9 10  1  0  0  0  0
 11 10  1  0  0  0  0
 12 13  2  0  0  0  0
 13 14  1  0  0  0  0
 14 15  1  0  0  0  0
 15 20  1  1  0  0  0
 15 16  1  0  0  0  0
 16 17  1  1  0  0  0
 16 19  1  0  0  0  0
 19 18  1  0  0  0  0
 21 22  1  6  0  0  0
 21 25  1  0  0  0  0
 21 20  1  0  0  0  0
 23 24  1  0  0  0  0
 24 22  1  0  0  0  0
 25 26  1  0  0  0  0
 26 28  1  0  0  0  0
 28 27  2  0  0  0  0
 29 30  2  0  0  0  0
 30 36  1  0  0  0  0
 31 35  1  6  0  0  0
 31 42  1  0  0  0  0
 32 31  1  0  0  0  0
 33 37  1  0  0  0  0
 33 34  1  0  0  0  0
 34 32  1  0  0  0  0
 36 33  2  0  0  0  0
 37 35  1  0  0  0  0
 38 45  1  6  0  0  0
 38 43  1  0  0  0  0
 39 48  1  1  0  0  0
 39 43  1  0  0  0  0
 41 38  1  0  0  0  0
 42 41  1  6  0  0  0
 42 39  1  0  0  0  0
 43 40  2  0  0  0  0
 44 45  1  0  0  0  0
 46 44  1  0  0  0  0
 46 45  1  0  0  0  0
 47 48  2  0  0  0  0
M  END
>  <MODEL>
1

>  <REMARK>
 VINA RESULT:      -6.8      0.000      0.000
  Name = 
  21 active torsions:
  status: ('A' for Active; 'I' for Inactive)
    1  A    between atoms: C_1  and  C_22
    2  A    between atoms: C_3  and  N_32
    3  A    between atoms: C_4  and  N_11
    4  A    between atoms: C_4  and  C_24
    5  A    between atoms: C_5  and  C_17
    6  A    between atoms: C_6  and  C_31
    7  A    between atoms: C_8  and  C_27
    8  A    between atoms: O_10  and  C_16
    9  A    between atoms: O_10  and  C_35
   10  A    between atoms: C_13  and  C_30
   11  A    between atoms: C_13  and  C_35
   12  A    between atoms: C_16  and  C_46
   13  A    between atoms: C_17  and  C_40
   14  A    between atoms: C_17  and  C_48
   15  A    between atoms: C_19  and  C_35
   16  A    between atoms: C_19  and  O_45
   17  A    between atoms: C_20  and  C_30
   18  A    between atoms: C_20  and  C_41
   19  A    between atoms: N_29  and  C_39
   20  A    between atoms: C_30  and  O_36
   21  A    between atoms: O_36  and  C_48
                            x       y       z     vdW  Elec       q    Type
                         _______ _______ _______ _____ _____    ______ ____

>  <TORSDO>
F 21

$$$$
=
 OpenBabel11062412013D

 48 51  0  0  1  0  0  0  0  0999 V2000
  186.6700  177.3670  137.4870 C   0  0  2  0  0  3  0  0  0  0  0  0
  187.4900  177.2450  135.0360 C   0  0  1  0  0  3  0  0  0  0  0  0
  186.8930  178.0970  136.1610 C   0  0  2  0  0  3  0  0  0  0  0  0
  188.3780  178.1520  135.8620 C   0  0  0  0  0  2  0  0  0  0  0  0
  189.8660  175.7320  134.5940 O   0  0  0  0  0  0  0  0  0  0  0  0
  188.9090  175.1570  135.1760 C   0  0  0  0  0  0  0  0  0  0  0  0
  187.6890  175.8570  135.4330 N   0  0  0  0  0  2  0  0  0  0  0  0
  189.9970  173.6640  136.8090 C   0  0  0  0  0  1  0  0  0  0  0  0
  189.0640  173.7400  135.6140 C   0  0  1  0  0  3  0  0  0  0  0  0
  187.7670  173.1830  135.9640 N   0  0  0  0  0  2  0  0  0  0  0  0
  188.0040  172.1120  136.9150 C   0  0  0  0  0  1  0  0  0  0  0  0
  184.6760  176.1890  138.0200 O   0  0  0  0  0  0  0  0  0  0  0  0
  185.2160  177.3100  137.8230 C   0  0  0  0  0  0  0  0  0  0  0  0
  184.4810  178.5000  137.9320 O   0  0  0  0  0  0  0  0  0  0  0  0
  183.7150  178.8960  139.0760 C   0  0  1  0  0  3  0  0  0  0  0  0
  184.4030  178.5880  140.4100 C   0  0  1  0  0  3  0  0  0  0  0  0
  185.2870  179.6170  140.7420 O   0  0  0  0  0  1  0  0  0  0  0  0
  184.0530  178.3410  142.8600 C   0  0  0  0  0  1  0  0  0  0  0  0
  183.3690  178.4360  141.5130 C   0  0  0  0  0  2  0  0  0  0  0  0
  183.1980  180.3330  138.9600 C   0  0  0  0  0  2  0  0  0  0  0  0
  181.8030  180.4220  138.3550 C   0  0  1  0  0  3  0  0  0  0  0  0
  180.9270  179.2790  138.8540 C   0  0  0  0  0  2  0  0  0  0  0  0
  180.2480  178.4930  136.9060 C   0  0  0  0  0  1  0  0  0  0  0  0
  179.7910  179.1400  138.0530 O   0  0  0  0  0  0  0  0  0  0  0  0
  181.2190  181.6480  138.6800 O   0  0  0  0  0  0  0  0  0  0  0  0
  180.9210  182.2430  137.4510 C   0  0  0  0  0  2  0  0  0  0  0  0
  182.2510  184.1860  137.4880 O   0  0  0  0  0  0  0  0  0  0  0  0
  181.1260  183.7170  137.5420 C   0  0  0  0  0  3  0  0  0  0  0  0
  187.4000  178.0760  138.5750 C   0  0  0  0  0  3  0  0  0  0  0  0
  188.3860  177.5010  139.1840 N   0  0  0  0  0  0  0  0  0  0  0  0
  189.1110  176.9140  144.2340 C   0  0  2  0  0  3  0  0  0  0  0  0
  189.3590  178.4020  143.9580 C   0  0  0  0  0  2  0  0  0  0  0  0
  188.8100  177.9600  141.5800 C   0  0  0  0  0  0  0  0  0  0  0  0
  189.6530  178.5840  142.5450 N   0  0  0  0  0  2  0  0  0  0  0  0
  188.0290  176.3110  143.3070 C   0  0  0  0  0  2  0  0  0  0  0  0
  189.1200  178.0710  140.2810 C   0  0  0  0  0  3  0  0  0  0  0  0
  187.6430  177.1660  142.0900 C   0  0  0  0  0  2  0  0  0  0  0  0
  187.1880  177.7000  147.2990 C   0  0  1  0  0  3  0  0  0  0  0  0
  189.5860  177.5900  146.6300 C   0  0  1  0  0  3  0  0  0  0  0  0
  188.8740  178.8480  148.5220 O   0  0  0  0  0  0  0  0  0  0  0  0
  187.2980  176.9360  145.9890 C   0  0  0  0  0  2  0  0  0  0  0  0
  188.7830  176.6730  145.7120 C   0  0  1  0  0  3  0  0  0  0  0  0
  188.5810  178.1210  147.5850 C   0  0  0  0  0  0  0  0  0  0  0  0
  184.9100  178.4480  146.6670 C   0  0  0  0  0  2  0  0  0  0  0  0
  186.2870  178.9110  147.1020 C   0  0  0  0  0  3  0  0  0  0  0  0
  185.8770  179.0060  145.6460 C   0  0  0  0  0  2  0  0  0  0  0  0
  191.7170  176.3560  146.6950 C   0  0  0  0  0  2  0  0  0  0  0  0
  190.6310  176.7830  147.3370 C   0  0  0  0  0  3  0  0  0  0  0  0
  1 13  1  0  0  0  0
  1 29  1  1  0  0  0
  2  7  1  1  0  0  0
  2  4  1  0  0  0  0
  2  3  1  0  0  0  0
  3  1  1  1  0  0  0
  4  3  1  0  0  0  0
  5  6  2  0  0  0  0
  6  7  1  0  0  0  0
  6  9  1  0  0  0  0
  9 10  1  0  0  0  0
  9  8  1  1  0  0  0
 10 11  1  0  0  0  0
 13 14  1  0  0  0  0
 13 12  2  0  0  0  0
 14 15  1  0  0  0  0
 15 20  1  6  0  0  0
 15 16  1  0  0  0  0
 16 17  1  1  0  0  0
 16 19  1  0  0  0  0
 19 18  1  0  0  0  0
 21 25  1  0  0  0  0
 21 22  1  1  0  0  0
 21 20  1  0  0  0  0
 23 24  1  0  0  0  0
 24 22  1  0  0  0  0
 26 28  1  0  0  0  0
 26 25  1  0  0  0  0
 27 28  2  0  0  0  0
 29 30  2  0  0  0  0
 30 36  1  0  0  0  0
 31 35  1  6  0  0  0
 31 42  1  0  0  0  0
 32 31  1  0  0  0  0
 33 37  1  0  0  0  0
 33 34  1  0  0  0  0
 34 32  1  0  0  0  0
 36 33  2  0  0  0  0
 37 35  1  0  0  0  0
 38 45  1  6  0  0  0
 38 43  1  0  0  0  0
 39 48  1  1  0  0  0
 39 43  1  0  0  0  0
 41 38  1  0  0  0  0
 42 41  1  6  0  0  0
 42 39  1  0  0  0  0
 43 40  2  0  0  0  0
 44 45  1  0  0  0  0
 46 44  1  0  0  0  0
 46 45  1  0  0  0  0
 47 48  2  0  0  0  0
M  END
>  <MODEL>
2

>  <REMARK>
 VINA RESULT:      -6.6      1.188      1.997
  Name = 
  21 active torsions:
  status: ('A' for Active; 'I' for Inactive)
    1  A    between atoms: C_1  and  C_22
    2  A    between atoms: C_3  and  N_32
    3  A    between atoms: C_4  and  N_11
    4  A    between atoms: C_4  and  C_24
    5  A    between atoms: C_5  and  C_17
    6  A    between atoms: C_6  and  C_31
    7  A    between atoms: C_8  and  C_27
    8  A    between atoms: O_10  and  C_16
    9  A    between atoms: O_10  and  C_35
   10  A    between atoms: C_13  and  C_30
   11  A    between atoms: C_13  and  C_35
   12  A    between atoms: C_16  and  C_46
   13  A    between atoms: C_17  and  C_40
   14  A    between atoms: C_17  and  C_48
   15  A    between atoms: C_19  and  C_35
   16  A    between atoms: C_19  and  O_45
   17  A    between atoms: C_20  and  C_30
   18  A    between atoms: C_20  and  C_41
   19  A    between atoms: N_29  and  C_39
   20  A    between atoms: C_30  and  O_36
   21  A    between atoms: O_36  and  C_48
                            x       y       z     vdW  Elec       q    Type
                         _______ _______ _______ _____ _____    ______ ____

>  <TORSDO>
F 21

$$$$
=
 OpenBabel11062412013D

 48 51  0  0  1  0  0  0  0  0999 V2000
  189.5820  177.4270  142.1790 C   0  0  2  0  0  3  0  0  0  0  0  0
  191.0640  176.6750  144.1610 C   0  0  1  0  0  3  0  0  0  0  0  0
  190.7540  176.5720  142.6640 C   0  0  2  0  0  3  0  0  0  0  0  0
  191.8650  177.4770  143.1570 C   0  0  0  0  0  2  0  0  0  0  0  0
  190.2960  176.3980  146.8930 O   0  0  0  0  0  0  0  0  0  0  0  0
  189.7890  177.3470  146.2390 C   0  0  0  0  0  0  0  0  0  0  0  0
  190.1330  177.5460  144.8650 N   0  0  0  0  0  2  0  0  0  0  0  0
  187.4120  177.8000  146.7080 C   0  0  0  0  0  1  0  0  0  0  0  0
  188.8380  178.2760  146.9130 C   0  0  1  0  0  3  0  0  0  0  0  0
  189.1360  178.3480  148.3340 N   0  0  0  0  0  2  0  0  0  0  0  0
  187.9340  177.9450  149.0430 C   0  0  0  0  0  1  0  0  0  0  0  0
  188.1050  175.7370  142.9610 O   0  0  0  0  0  0  0  0  0  0  0  0
  188.3010  176.9710  142.7990 C   0  0  0  0  0  0  0  0  0  0  0  0
  187.3500  177.9180  143.2070 O   0  0  0  0  0  0  0  0  0  0  0  0
  186.0520  178.0880  142.6280 C   0  0  1  0  0  3  0  0  0  0  0  0
  184.9400  178.2840  143.6640 C   0  0  1  0  0  3  0  0  0  0  0  0
  185.3280  179.2370  144.6090 O   0  0  0  0  0  1  0  0  0  0  0  0
  182.5380  178.8370  143.9970 C   0  0  0  0  0  1  0  0  0  0  0  0
  183.6600  178.7400  142.9850 C   0  0  0  0  0  2  0  0  0  0  0  0
  186.0460  179.1310  141.5060 C   0  0  0  0  0  2  0  0  0  0  0  0
  185.8210  178.5270  140.1260 C   0  0  1  0  0  3  0  0  0  0  0  0
  184.6330  179.1870  139.4380 C   0  0  0  0  0  2  0  0  0  0  0  0
  182.9850  178.2150  138.3360 C   0  0  0  0  0  1  0  0  0  0  0  0
  183.4720  178.4320  139.6240 O   0  0  0  0  0  0  0  0  0  0  0  0
  186.9690  178.6780  139.3460 O   0  0  0  0  0  0  0  0  0  0  0  0
  186.7240  177.9280  138.1930 C   0  0  0  0  0  2  0  0  0  0  0  0
  187.8790  177.8520  136.1430 O   0  0  0  0  0  0  0  0  0  0  0  0
  187.4170  178.5510  137.0290 C   0  0  0  0  0  3  0  0  0  0  0  0
  189.4730  177.3290  140.6970 C   0  0  0  0  0  3  0  0  0  0  0  0
  190.2260  176.5070  140.0390 N   0  0  0  0  0  0  0  0  0  0  0  0
  193.2990  175.0100  136.2060 C   0  0  2  0  0  3  0  0  0  0  0  0
  192.3580  176.0530  135.5890 C   0  0  0  0  0  2  0  0  0  0  0  0
  191.3350  176.3240  137.8330 C   0  0  0  0  0  0  0  0  0  0  0  0
  191.1730  176.1810  136.4230 N   0  0  0  0  0  0  0  0  0  0  0  0
  193.6300  175.3120  137.6880 C   0  0  0  0  0  2  0  0  0  0  0  0
  190.2420  176.3730  138.6070 C   0  0  0  0  0  2  0  0  0  0  0  0
  192.7360  176.3600  138.3690 C   0  0  0  0  0  2  0  0  0  0  0  0
  196.7040  173.6430  135.7100 C   0  0  1  0  0  3  0  0  0  0  0  0
  195.6280  175.8900  135.7300 C   0  0  1  0  0  3  0  0  0  0  0  0
  197.9670  175.6220  136.0830 O   0  0  0  0  0  0  0  0  0  0  0  0
  195.1990  173.4680  135.5900 C   0  0  0  0  0  2  0  0  0  0  0  0
  194.5720  174.8490  135.3670 C   0  0  1  0  0  3  0  0  0  0  0  0
  196.8820  175.1070  135.8620 C   0  0  0  0  0  0  0  0  0  0  0  0
  198.5420  172.2670  136.6470 C   0  0  0  0  0  2  0  0  0  0  0  0
  197.2000  172.9060  136.9460 C   0  0  0  0  0  3  0  0  0  0  0  0
  197.2870  171.4220  136.6510 C   0  0  0  0  0  2  0  0  0  0  0  0
  195.8950  178.1880  134.8840 C   0  0  0  0  0  2  0  0  0  0  0  0
  195.7290  176.8930  134.6220 C   0  0  0  0  0  3  0  0  0  0  0  0
  1 29  1  6  0  0  0
  1 13  1  0  0  0  0
  2  7  1  1  0  0  0
  3  1  1  1  0  0  0
  3  4  1  0  0  0  0
  3  2  1  0  0  0  0
  4  2  1  0  0  0  0
  6  5  2  0  0  0  0
  6  9  1  0  0  0  0
  7  6  1  0  0  0  0
  9  8  1  1  0  0  0
  9 10  1  0  0  0  0
 10 11  1  0  0  0  0
 13 12  2  0  0  0  0
 13 14  1  0  0  0  0
 15 20  1  6  0  0  0
 15 14  1  0  0  0  0
 15 16  1  0  0  0  0
 16 17  1  1  0  0  0
 19 16  1  0  0  0  0
 19 18  1  0  0  0  0
 21 22  1  6  0  0  0
 21 20  1  0  0  0  0
 22 24  1  0  0  0  0
 23 24  1  0  0  0  0
 25 21  1  0  0  0  0
 26 25  1  0  0  0  0
 27 28  2  0  0  0  0
 28 26  1  0  0  0  0
 30 29  2  0  0  0  0
 31 32  1  6  0  0  0
 31 35  1  0  0  0  0
 32 34  1  0  0  0  0
 33 37  1  0  0  0  0
 33 36  1  0  0  0  0
 34 33  2  0  0  0  0
 35 37  1  0  0  0  0
 36 30  1  0  0  0  0
 38 43  1  0  0  0  0
 38 45  1  1  0  0  0
 39 48  1  6  0  0  0
 39 43  1  0  0  0  0
 41 38  1  0  0  0  0
 42 41  1  1  0  0  0
 42 39  1  0  0  0  0
 42 31  1  0  0  0  0
 43 40  2  0  0  0  0
 44 46  1  0  0  0  0
 44 45  1  0  0  0  0
 46 45  1  0  0  0  0
 48 47  2  0  0  0  0
M  END
>  <MODEL>
3

>  <REMARK>
 VINA RESULT:      -6.5      3.626      9.606
  Name = 
  21 active torsions:
  status: ('A' for Active; 'I' for Inactive)
    1  A    between atoms: C_1  and  C_22
    2  A    between atoms: C_3  and  N_32
    3  A    between atoms: C_4  and  N_11
    4  A    between atoms: C_4  and  C_24
    5  A    between atoms: C_5  and  C_17
    6  A    between atoms: C_6  and  C_31
    7  A    between atoms: C_8  and  C_27
    8  A    between atoms: O_10  and  C_16
    9  A    between atoms: O_10  and  C_35
   10  A    between atoms: C_13  and  C_30
   11  A    between atoms: C_13  and  C_35
   12  A    between atoms: C_16  and  C_46
   13  A    between atoms: C_17  and  C_40
   14  A    between atoms: C_17  and  C_48
   15  A    between atoms: C_19  and  C_35
   16  A    between atoms: C_19  and  O_45
   17  A    between atoms: C_20  and  C_30
   18  A    between atoms: C_20  and  C_41
   19  A    between atoms: N_29  and  C_39
   20  A    between atoms: C_30  and  O_36
   21  A    between atoms: O_36  and  C_48
                            x       y       z     vdW  Elec       q    Type
                         _______ _______ _______ _____ _____    ______ ____

>  <TORSDO>
F 21

$$$$
=
 OpenBabel11062412013D

 48 51  0  0  1  0  0  0  0  0999 V2000
  184.8450  178.4030  142.3630 C   0  0  2  0  0  3  0  0  0  0  0  0
  184.4950  179.6640  144.5950 C   0  0  1  0  0  3  0  0  0  0  0  0
  184.1320  179.5300  143.1120 C   0  0  2  0  0  3  0  0  0  0  0  0
  183.2340  178.9350  144.1790 C   0  0  0  0  0  2  0  0  0  0  0  0
  185.6560  179.5170  147.1950 O   0  0  0  0  0  0  0  0  0  0  0  0
  186.0530  178.6890  146.3320 C   0  0  0  0  0  0  0  0  0  0  0  0
  185.5100  178.7040  145.0090 N   0  0  0  0  0  2  0  0  0  0  0  0
  187.7350  177.1140  145.4570 C   0  0  0  0  0  1  0  0  0  0  0  0
  187.0820  177.6770  146.7060 C   0  0  1  0  0  3  0  0  0  0  0  0
  188.0900  178.2850  147.5580 N   0  0  0  0  0  2  0  0  0  0  0  0
  188.0550  177.5830  148.8290 C   0  0  0  0  0  1  0  0  0  0  0  0
  185.5880  179.1690  140.2400 O   0  0  0  0  0  0  0  0  0  0  0  0
  185.8870  178.9530  141.4450 C   0  0  0  0  0  0  0  0  0  0  0  0
  187.1690  179.2370  141.9380 O   0  0  0  0  0  0  0  0  0  0  0  0
  188.3830  178.6280  141.4850 C   0  0  1  0  0  3  0  0  0  0  0  0
  189.0650  177.7570  142.5470 C   0  0  1  0  0  3  0  0  0  0  0  0
  188.9740  176.4090  142.1920 O   0  0  0  0  0  1  0  0  0  0  0  0
  190.7590  178.8450  144.0070 C   0  0  0  0  0  1  0  0  0  0  0  0
  190.5270  178.1440  142.6850 C   0  0  0  0  0  2  0  0  0  0  0  0
  188.2160  177.9360  140.1290 C   0  0  0  0  0  2  0  0  0  0  0  0
  189.3650  178.2130  139.1680 C   0  0  1  0  0  3  0  0  0  0  0  0
  189.6960  176.9690  138.3530 C   0  0  0  0  0  2  0  0  0  0  0  0
  191.6530  175.9500  138.2740 C   0  0  0  0  0  1  0  0  0  0  0  0
  190.5250  176.1100  139.0780 O   0  0  0  0  0  0  0  0  0  0  0  0
  189.0310  179.2670  138.3160 O   0  0  0  0  0  0  0  0  0  0  0  0
  188.9410  178.6890  137.0460 C   0  0  0  0  0  2  0  0  0  0  0  0
  186.6210  178.5970  137.4390 O   0  0  0  0  0  0  0  0  0  0  0  0
  187.5150  178.6480  136.6110 C   0  0  0  0  0  3  0  0  0  0  0  0
  183.8520  177.6250  141.5720 C   0  0  0  0  0  3  0  0  0  0  0  0
  182.8800  178.2280  140.9670 N   0  0  0  0  0  0  0  0  0  0  0  0
  182.1770  174.4310  137.5810 C   0  0  2  0  0  3  0  0  0  0  0  0
  181.0380  175.4250  137.3210 C   0  0  0  0  0  2  0  0  0  0  0  0
  181.9990  176.8560  139.1040 C   0  0  0  0  0  0  0  0  0  0  0  0
  180.8550  176.2620  138.4960 N   0  0  0  0  0  0  0  0  0  0  0  0
  183.4810  175.1300  138.0380 C   0  0  0  0  0  2  0  0  0  0  0  0
  181.8380  177.5710  140.2250 C   0  0  0  0  0  2  0  0  0  0  0  0
  183.3340  176.5970  138.4680 C   0  0  0  0  0  2  0  0  0  0  0  0
  181.3070  171.5030  135.4890 C   0  0  1  0  0  3  0  0  0  0  0  0
  183.3160  172.3460  136.7000 C   0  0  1  0  0  3  0  0  0  0  0  0
  183.0850  170.0500  136.1080 O   0  0  0  0  0  0  0  0  0  0  0  0
  181.0940  172.9680  135.8340 C   0  0  0  0  0  2  0  0  0  0  0  0
  182.4180  173.5330  136.3630 C   0  0  1  0  0  3  0  0  0  0  0  0
  182.6210  171.1800  136.0980 C   0  0  0  0  0  0  0  0  0  0  0  0
  178.9310  170.8190  135.3020 C   0  0  0  0  0  2  0  0  0  0  0  0
  180.2000  170.6700  136.1190 C   0  0  0  0  0  3  0  0  0  0  0  0
  179.0890  171.5840  136.5980 C   0  0  0  0  0  2  0  0  0  0  0  0
  185.7580  172.6380  136.8240 C   0  0  0  0  0  2  0  0  0  0  0  0
  184.6610  172.5560  136.0750 C   0  0  0  0  0  3  0  0  0  0  0  0
  1 29  1  6  0  0  0
  2  7  1  6  0  0  0
  3  1  1  6  0  0  0
  3  4  1  0  0  0  0
  3  2  1  0  0  0  0
  4  2  1  0  0  0  0
  6  9  1  0  0  0  0
  6  5  2  0  0  0  0
  7  6  1  0  0  0  0
  9  8  1  6  0  0  0
  9 10  1  0  0  0  0
 10 11  1  0  0  0  0
 12 13  2  0  0  0  0
 13 14  1  0  0  0  0
 13  1  1  0  0  0  0
 15 20  1  6  0  0  0
 15 14  1  0  0  0  0
 15 16  1  0  0  0  0
 16 17  1  6  0  0  0
 16 19  1  0  0  0  0
 19 18  1  0  0  0  0
 21 22  1  6  0  0  0
 21 20  1  0  0  0  0
 22 24  1  0  0  0  0
 23 24  1  0  0  0  0
 25 21  1  0  0  0  0
 26 25  1  0  0  0  0
 28 26  1  0  0  0  0
 28 27  2  0  0  0  0
 30 29  2  0  0  0  0
 31 32  1  6  0  0  0
 31 35  1  0  0  0  0
 32 34  1  0  0  0  0
 33 36  1  0  0  0  0
 34 33  2  0  0  0  0
 35 37  1  0  0  0  0
 36 30  1  0  0  0  0
 37 33  1  0  0  0  0
 38 41  1  0  0  0  0
 38 43  1  0  0  0  0
 38 45  1  1  0  0  0
 39 48  1  6  0  0  0
 42 41  1  1  0  0  0
 42 39  1  0  0  0  0
 42 31  1  0  0  0  0
 43 40  2  0  0  0  0
 43 39  1  0  0  0  0
 44 45  1  0  0  0  0
 44 46  1  0  0  0  0
 45 46  1  0  0  0  0
 48 47  2  0  0  0  0
M  END
>  <MODEL>
4

>  <REMARK>
 VINA RESULT:      -6.1      3.907     10.222
  Name = 
  21 active torsions:
  status: ('A' for Active; 'I' for Inactive)
    1  A    between atoms: C_1  and  C_22
    2  A    between atoms: C_3  and  N_32
    3  A    between atoms: C_4  and  N_11
    4  A    between atoms: C_4  and  C_24
    5  A    between atoms: C_5  and  C_17
    6  A    between atoms: C_6  and  C_31
    7  A    between atoms: C_8  and  C_27
    8  A    between atoms: O_10  and  C_16
    9  A    between atoms: O_10  and  C_35
   10  A    between atoms: C_13  and  C_30
   11  A    between atoms: C_13  and  C_35
   12  A    between atoms: C_16  and  C_46
   13  A    between atoms: C_17  and  C_40
   14  A    between atoms: C_17  and  C_48
   15  A    between atoms: C_19  and  C_35
   16  A    between atoms: C_19  and  O_45
   17  A    between atoms: C_20  and  C_30
   18  A    between atoms: C_20  and  C_41
   19  A    between atoms: N_29  and  C_39
   20  A    between atoms: C_30  and  O_36
   21  A    between atoms: O_36  and  C_48
                            x       y       z     vdW  Elec       q    Type
                         _______ _______ _______ _____ _____    ______ ____

>  <TORSDO>
F 21

$$$$
=
 OpenBabel11062412013D

 48 51  0  0  1  0  0  0  0  0999 V2000
  185.5650  177.9380  138.3540 C   0  0  2  0  0  3  0  0  0  0  0  0
  185.9460  177.3730  135.8590 C   0  0  1  0  0  3  0  0  0  0  0  0
  186.2360  178.3150  137.0320 C   0  0  2  0  0  3  0  0  0  0  0  0
  187.2310  177.2370  136.6480 C   0  0  0  0  0  2  0  0  0  0  0  0
  183.3100  177.0490  134.8190 O   0  0  0  0  0  0  0  0  0  0  0  0
  183.7130  176.2010  135.6590 C   0  0  0  0  0  0  0  0  0  0  0  0
  185.0260  176.3020  136.2180 N   0  0  0  0  0  2  0  0  0  0  0  0
  181.4180  175.6000  136.3280 C   0  0  0  0  0  1  0  0  0  0  0  0
  182.8170  175.0780  136.0540 C   0  0  1  0  0  3  0  0  0  0  0  0
  182.7740  174.0800  134.9980 N   0  0  0  0  0  2  0  0  0  0  0  0
  181.7150  173.1450  135.3360 C   0  0  0  0  0  1  0  0  0  0  0  0
  184.7500  179.8170  139.5590 O   0  0  0  0  0  0  0  0  0  0  0  0
  184.4990  178.9230  138.7070 C   0  0  0  0  0  0  0  0  0  0  0  0
  183.2490  178.8510  138.0750 O   0  0  0  0  0  0  0  0  0  0  0  0
  181.9820  178.9600  138.7340 C   0  0  1  0  0  3  0  0  0  0  0  0
  180.7990  179.0900  137.7680 C   0  0  1  0  0  3  0  0  0  0  0  0
  179.9900  180.1650  138.1440 O   0  0  0  0  0  1  0  0  0  0  0  0
  180.3780  180.2540  135.6120 C   0  0  0  0  0  1  0  0  0  0  0  0
  181.2980  179.3060  136.3500 C   0  0  0  0  0  2  0  0  0  0  0  0
  181.7910  177.8870  139.8100 C   0  0  0  0  0  2  0  0  0  0  0  0
  180.5800  178.1370  140.6980 C   0  0  1  0  0  3  0  0  0  0  0  0
  179.5380  177.0420  140.5060 C   0  0  0  0  0  2  0  0  0  0  0  0
  179.4900  174.8350  140.5660 C   0  0  0  0  0  1  0  0  0  0  0  0
  180.1140  175.9070  139.9300 O   0  0  0  0  0  0  0  0  0  0  0  0
  180.9730  178.1920  142.0370 O   0  0  0  0  0  0  0  0  0  0  0  0
  182.0790  179.0460  142.0530 C   0  0  0  0  0  2  0  0  0  0  0  0
  183.9040  178.3550  143.3700 O   0  0  0  0  0  0  0  0  0  0  0  0
  182.8120  178.8970  143.3430 C   0  0  0  0  0  3  0  0  0  0  0  0
  186.5860  177.9070  139.4390 C   0  0  0  0  0  3  0  0  0  0  0  0
  187.6750  178.5980  139.3320 N   0  0  0  0  0  0  0  0  0  0  0  0
  188.7870  176.9690  144.0740 C   0  0  2  0  0  3  0  0  0  0  0  0
  189.6650  178.2080  143.8530 C   0  0  0  0  0  2  0  0  0  0  0  0
  188.6210  178.4370  141.6150 C   0  0  0  0  0  0  0  0  0  0  0  0
  189.7930  178.4550  142.4250 N   0  0  0  0  0  2  0  0  0  0  0  0
  187.4220  177.0720  143.3510 C   0  0  0  0  0  2  0  0  0  0  0  0
  188.7470  178.5970  140.2910 C   0  0  0  0  0  3  0  0  0  0  0  0
  187.3090  178.1880  142.3000 C   0  0  0  0  0  2  0  0  0  0  0  0
  187.2070  177.6610  147.3510 C   0  0  1  0  0  3  0  0  0  0  0  0
  189.5210  177.5460  146.4300 C   0  0  1  0  0  3  0  0  0  0  0  0
  189.0300  178.7400  148.4310 O   0  0  0  0  0  0  0  0  0  0  0  0
  187.1680  176.9470  146.0090 C   0  0  0  0  0  2  0  0  0  0  0  0
  188.6110  176.6750  145.5680 C   0  0  1  0  0  3  0  0  0  0  0  0
  188.6290  178.0530  147.5040 C   0  0  0  0  0  0  0  0  0  0  0  0
  184.8960  178.4660  146.9520 C   0  0  0  0  0  2  0  0  0  0  0  0
  186.3110  178.8900  147.2940 C   0  0  0  0  0  3  0  0  0  0  0  0
  185.7830  179.0670  145.8840 C   0  0  0  0  0  2  0  0  0  0  0  0
  191.7440  176.4940  146.3100 C   0  0  0  0  0  2  0  0  0  0  0  0
  190.6200  176.6990  146.9930 C   0  0  0  0  0  3  0  0  0  0  0  0
  1 13  1  0  0  0  0
  1 29  1  1  0  0  0
  2  7  1  1  0  0  0
  2  4  1  0  0  0  0
  2  3  1  0  0  0  0
  3  1  1  1  0  0  0
  4  3  1  0  0  0  0
  5  6  2  0  0  0  0
  6  9  1  0  0  0  0
  6  7  1  0  0  0  0
  9  8  1  6  0  0  0
 10 11  1  0  0  0  0
 10  9  1  0  0  0  0
 13 12  2  0  0  0  0
 14 13  1  0  0  0  0
 14 15  1  0  0  0  0
 15 20  1  6  0  0  0
 16 17  1  1  0  0  0
 16 15  1  0  0  0  0
 18 19  1  0  0  0  0
 19 16  1  0  0  0  0
 21 20  1  6  0  0  0
 21 25  1  0  0  0  0
 22 21  1  0  0  0  0
 24 22  1  0  0  0  0
 24 23  1  0  0  0  0
 25 26  1  0  0  0  0
 26 28  1  0  0  0  0
 28 27  2  0  0  0  0
 30 29  2  0  0  0  0
 30 36  1  0  0  0  0
 31 35  1  1  0  0  0
 31 42  1  0  0  0  0
 32 31  1  0  0  0  0
 33 37  1  0  0  0  0
 33 34  1  0  0  0  0
 34 32  1  0  0  0  0
 36 33  2  0  0  0  0
 37 35  1  0  0  0  0
 38 45  1  6  0  0  0
 38 43  1  0  0  0  0
 39 48  1  1  0  0  0
 39 43  1  0  0  0  0
 41 38  1  0  0  0  0
 42 41  1  1  0  0  0
 42 39  1  0  0  0  0
 43 40  2  0  0  0  0
 44 45  1  0  0  0  0
 46 44  1  0  0  0  0
 46 45  1  0  0  0  0
 47 48  2  0  0  0  0
M  END
>  <MODEL>
5

>  <REMARK>
 VINA RESULT:      -6.0      2.249      3.932
  Name = 
  21 active torsions:
  status: ('A' for Active; 'I' for Inactive)
    1  A    between atoms: C_1  and  C_22
    2  A    between atoms: C_3  and  N_32
    3  A    between atoms: C_4  and  N_11
    4  A    between atoms: C_4  and  C_24
    5  A    between atoms: C_5  and  C_17
    6  A    between atoms: C_6  and  C_31
    7  A    between atoms: C_8  and  C_27
    8  A    between atoms: O_10  and  C_16
    9  A    between atoms: O_10  and  C_35
   10  A    between atoms: C_13  and  C_30
   11  A    between atoms: C_13  and  C_35
   12  A    between atoms: C_16  and  C_46
   13  A    between atoms: C_17  and  C_40
   14  A    between atoms: C_17  and  C_48
   15  A    between atoms: C_19  and  C_35
   16  A    between atoms: C_19  and  O_45
   17  A    between atoms: C_20  and  C_30
   18  A    between atoms: C_20  and  C_41
   19  A    between atoms: N_29  and  C_39
   20  A    between atoms: C_30  and  O_36
   21  A    between atoms: O_36  and  C_48
                            x       y       z     vdW  Elec       q    Type
                         _______ _______ _______ _____ _____    ______ ____

>  <TORSDO>
F 21

$$$$
=
 OpenBabel11062412013D

 48 51  0  0  1  0  0  0  0  0999 V2000
  188.9360  176.8560  137.7410 C   0  0  2  0  0  3  0  0  0  0  0  0
  190.0130  174.5560  137.2510 C   0  0  1  0  0  3  0  0  0  0  0  0
  188.7620  175.3380  137.6660 C   0  0  2  0  0  3  0  0  0  0  0  0
  188.9420  174.8820  136.2320 C   0  0  0  0  0  2  0  0  0  0  0  0
  192.7350  173.7240  137.4200 O   0  0  0  0  0  0  0  0  0  0  0  0
  192.5110  174.9350  137.1540 C   0  0  0  0  0  0  0  0  0  0  0  0
  191.1700  175.4190  137.0500 N   0  0  0  0  0  2  0  0  0  0  0  0
  193.7550  176.2190  135.4570 C   0  0  0  0  0  1  0  0  0  0  0  0
  193.6580  175.8600  136.9280 C   0  0  1  0  0  3  0  0  0  0  0  0
  193.4890  177.0660  137.7210 N   0  0  0  0  0  2  0  0  0  0  0  0
  193.5870  176.6770  139.1170 C   0  0  0  0  0  1  0  0  0  0  0  0
  190.3070  177.6690  139.5030 O   0  0  0  0  0  0  0  0  0  0  0  0
  189.1560  177.2950  139.1520 C   0  0  0  0  0  0  0  0  0  0  0  0
  188.0820  177.3040  140.0540 O   0  0  0  0  0  0  0  0  0  0  0  0
  188.0900  177.9260  141.3430 C   0  0  1  0  0  3  0  0  0  0  0  0
  186.8150  178.7200  141.6480 C   0  0  1  0  0  3  0  0  0  0  0  0
  186.1050  178.9580  140.4680 O   0  0  0  0  0  1  0  0  0  0  0  0
  185.2160  178.9100  143.5430 C   0  0  0  0  0  1  0  0  0  0  0  0
  185.9350  177.9510  142.6180 C   0  0  0  0  0  2  0  0  0  0  0  0
  188.4990  176.9560  142.4550 C   0  0  0  0  0  2  0  0  0  0  0  0
  189.5430  177.5330  143.4010 C   0  0  1  0  0  3  0  0  0  0  0  0
  188.8830  178.0780  144.6620 C   0  0  0  0  0  2  0  0  0  0  0  0
  187.7690  177.6120  146.5100 C   0  0  0  0  0  1  0  0  0  0  0  0
  188.0430  177.1210  145.2340 O   0  0  0  0  0  0  0  0  0  0  0  0
  190.4770  176.5510  143.7380 O   0  0  0  0  0  0  0  0  0  0  0  0
  191.4050  177.2000  144.5560 C   0  0  0  0  0  2  0  0  0  0  0  0
  191.9010  176.8750  146.8350 O   0  0  0  0  0  0  0  0  0  0  0  0
  191.7030  176.3570  145.7490 C   0  0  0  0  0  3  0  0  0  0  0  0
  187.7180  177.5230  137.2020 C   0  0  0  0  0  3  0  0  0  0  0  0
  186.5990  176.8780  137.1230 N   0  0  0  0  0  0  0  0  0  0  0  0
  181.7680  178.0070  138.4540 C   0  0  2  0  0  3  0  0  0  0  0  0
  181.7130  177.6840  136.9540 C   0  0  0  0  0  2  0  0  0  0  0  0
  184.1480  177.2210  137.0560 C   0  0  0  0  0  0  0  0  0  0  0  0
  183.0450  177.8250  136.3850 N   0  0  0  0  0  0  0  0  0  0  0  0
  182.8380  177.1730  139.2000 C   0  0  0  0  0  2  0  0  0  0  0  0
  185.3820  177.4070  136.5690 C   0  0  0  0  0  2  0  0  0  0  0  0
  183.8570  176.4460  138.3090 C   0  0  0  0  0  2  0  0  0  0  0  0
  179.5180  178.2640  141.3820 C   0  0  1  0  0  3  0  0  0  0  0  0
  180.2150  176.4970  139.7690 C   0  0  1  0  0  3  0  0  0  0  0  0
  179.3000  175.9540  141.8990 O   0  0  0  0  0  0  0  0  0  0  0  0
  180.1790  178.9260  140.1840 C   0  0  0  0  0  2  0  0  0  0  0  0
  180.3880  177.8590  139.1020 C   0  0  1  0  0  3  0  0  0  0  0  0
  179.6390  176.8130  141.1000 C   0  0  0  0  0  0  0  0  0  0  0  0
  179.2950  178.9400  143.7580 C   0  0  0  0  0  2  0  0  0  0  0  0
  180.2800  178.6350  142.6470 C   0  0  0  0  0  3  0  0  0  0  0  0
  179.9740  180.0730  143.0190 C   0  0  0  0  0  2  0  0  0  0  0  0
  179.6370  174.4780  138.4840 C   0  0  0  0  0  2  0  0  0  0  0  0
  179.2710  175.6690  138.9530 C   0  0  0  0  0  3  0  0  0  0  0  0
  1 29  1  1  0  0  0
  1 13  1  0  0  0  0
  2  7  1  6  0  0  0
  2  3  1  0  0  0  0
  3  1  1  6  0  0  0
  4  2  1  0  0  0  0
  4  3  1  0  0  0  0
  6  5  2  0  0  0  0
  7  6  1  0  0  0  0
  9  8  1  6  0  0  0
  9  6  1  0  0  0  0
  9 10  1  0  0  0  0
 10 11  1  0  0  0  0
 13 12  2  0  0  0  0
 13 14  1  0  0  0  0
 14 15  1  0  0  0  0
 15 16  1  0  0  0  0
 15 20  1  1  0  0  0
 16 17  1  6  0  0  0
 16 19  1  0  0  0  0
 19 18  1  0  0  0  0
 21 20  1  6  0  0  0
 21 25  1  0  0  0  0
 21 22  1  0  0  0  0
 22 24  1  0  0  0  0
 24 23  1  0  0  0  0
 25 26  1  0  0  0  0
 26 28  1  0  0  0  0
 28 27  2  0  0  0  0
 30 29  2  0  0  0  0
 31 32  1  6  0  0  0
 31 42  1  0  0  0  0
 31 35  1  0  0  0  0
 33 37  1  0  0  0  0
 34 32  1  0  0  0  0
 34 33  2  0  0  0  0
 36 33  1  0  0  0  0
 36 30  1  0  0  0  0
 37 35  1  0  0  0  0
 38 45  1  1  0  0  0
 39 48  1  6  0  0  0
 39 43  1  0  0  0  0
 41 38  1  0  0  0  0
 42 39  1  0  0  0  0
 42 41  1  1  0  0  0
 43 38  1  0  0  0  0
 43 40  2  0  0  0  0
 45 46  1  0  0  0  0
 45 44  1  0  0  0  0
 46 44  1  0  0  0  0
 47 48  2  0  0  0  0
M  END
>  <MODEL>
6

>  <REMARK>
 VINA RESULT:      -5.9      2.712      8.211
  Name = 
  21 active torsions:
  status: ('A' for Active; 'I' for Inactive)
    1  A    between atoms: C_1  and  C_22
    2  A    between atoms: C_3  and  N_32
    3  A    between atoms: C_4  and  N_11
    4  A    between atoms: C_4  and  C_24
    5  A    between atoms: C_5  and  C_17
    6  A    between atoms: C_6  and  C_31
    7  A    between atoms: C_8  and  C_27
    8  A    between atoms: O_10  and  C_16
    9  A    between atoms: O_10  and  C_35
   10  A    between atoms: C_13  and  C_30
   11  A    between atoms: C_13  and  C_35
   12  A    between atoms: C_16  and  C_46
   13  A    between atoms: C_17  and  C_40
   14  A    between atoms: C_17  and  C_48
   15  A    between atoms: C_19  and  C_35
   16  A    between atoms: C_19  and  O_45
   17  A    between atoms: C_20  and  C_30
   18  A    between atoms: C_20  and  C_41
   19  A    between atoms: N_29  and  C_39
   20  A    between atoms: C_30  and  O_36
   21  A    between atoms: O_36  and  C_48
                            x       y       z     vdW  Elec       q    Type
                         _______ _______ _______ _____ _____    ______ ____

>  <TORSDO>
F 21

$$$$
=
 OpenBabel11062412013D

 48 51  0  0  1  0  0  0  0  0999 V2000
  187.3150  176.6490  136.9460 C   0  0  2  0  0  3  0  0  0  0  0  0
  188.3640  176.1450  134.6360 C   0  0  1  0  0  3  0  0  0  0  0  0
  188.0580  177.1830  135.7200 C   0  0  2  0  0  3  0  0  0  0  0  0
  189.4260  176.5370  135.6410 C   0  0  0  0  0  2  0  0  0  0  0  0
  189.8620  173.7190  134.6130 O   0  0  0  0  0  0  0  0  0  0  0  0
  188.6440  173.6480  134.9250 C   0  0  0  0  0  0  0  0  0  0  0  0
  187.8340  174.8270  134.9600 N   0  0  0  0  0  2  0  0  0  0  0  0
  187.8490  172.2290  136.7770 C   0  0  0  0  0  1  0  0  0  0  0  0
  188.0520  172.3260  135.2770 C   0  0  1  0  0  3  0  0  0  0  0  0
  186.7810  172.1510  134.5940 N   0  0  0  0  0  2  0  0  0  0  0  0
  185.7350  172.3340  135.5840 C   0  0  0  0  0  1  0  0  0  0  0  0
  186.7100  178.8690  137.5410 O   0  0  0  0  0  0  0  0  0  0  0  0
  186.3490  177.6640  137.4650 C   0  0  0  0  0  0  0  0  0  0  0  0
  185.0570  177.2670  137.8380 O   0  0  0  0  0  0  0  0  0  0  0  0
  183.8570  177.5700  137.1170 C   0  0  1  0  0  3  0  0  0  0  0  0
  183.2670  176.3650  136.3770 C   0  0  1  0  0  3  0  0  0  0  0  0
  184.2870  175.6280  135.7700 O   0  0  0  0  0  1  0  0  0  0  0  0
  182.5880  174.0290  136.8940 C   0  0  0  0  0  1  0  0  0  0  0  0
  182.5080  175.4720  137.3440 C   0  0  0  0  0  2  0  0  0  0  0  0
  182.8420  178.3330  137.9720 C   0  0  0  0  0  2  0  0  0  0  0  0
  182.7610  177.8240  139.4050 C   0  0  1  0  0  3  0  0  0  0  0  0
  183.1780  178.9130  140.3860 C   0  0  0  0  0  2  0  0  0  0  0  0
  185.3300  178.9980  140.8700 C   0  0  0  0  0  1  0  0  0  0  0  0
  184.1280  178.4280  141.2870 O   0  0  0  0  0  0  0  0  0  0  0  0
  181.4610  177.4000  139.6880 O   0  0  0  0  0  0  0  0  0  0  0  0
  181.1680  177.9450  140.9400 C   0  0  0  0  0  2  0  0  0  0  0  0
  179.3720  177.8450  142.4600 O   0  0  0  0  0  0  0  0  0  0  0  0
  179.7910  177.5490  141.3540 C   0  0  0  0  0  3  0  0  0  0  0  0
  188.2960  176.3120  138.0150 C   0  0  0  0  0  3  0  0  0  0  0  0
  188.9870  177.2440  138.5870 N   0  0  0  0  0  0  0  0  0  0  0  0
  189.6570  177.3600  143.6770 C   0  0  2  0  0  3  0  0  0  0  0  0
  191.0370  177.6650  143.0780 C   0  0  0  0  0  2  0  0  0  0  0  0
  189.9940  177.5160  140.8320 C   0  0  0  0  0  0  0  0  0  0  0  0
  191.0760  177.1930  141.7020 N   0  0  0  0  0  2  0  0  0  0  0  0
  188.4990  177.9140  142.8120 C   0  0  0  0  0  2  0  0  0  0  0  0
  189.9980  177.0240  139.5860 C   0  0  0  0  0  3  0  0  0  0  0  0
  188.8820  178.3550  141.3910 C   0  0  0  0  0  2  0  0  0  0  0  0
  190.4360  177.0060  147.2800 C   0  0  1  0  0  3  0  0  0  0  0  0
  188.3920  177.2130  145.8680 C   0  0  1  0  0  3  0  0  0  0  0  0
  188.3080  176.2860  148.0600 O   0  0  0  0  0  0  0  0  0  0  0  0
  190.8390  177.5060  145.9020 C   0  0  0  0  0  2  0  0  0  0  0  0
  189.5620  177.8520  145.1260 C   0  0  1  0  0  3  0  0  0  0  0  0
  188.9740  176.7850  147.1650 C   0  0  0  0  0  0  0  0  0  0  0  0
  192.5750  175.9990  148.0250 C   0  0  0  0  0  2  0  0  0  0  0  0
  191.1590  175.7000  147.5730 C   0  0  0  0  0  3  0  0  0  0  0  0
  192.3160  175.5340  146.6080 C   0  0  0  0  0  2  0  0  0  0  0  0
  186.0340  177.8940  146.0670 C   0  0  0  0  0  2  0  0  0  0  0  0
  187.3200  178.2390  146.0680 C   0  0  0  0  0  3  0  0  0  0  0  0
  1 13  1  0  0  0  0
  1 29  1  1  0  0  0
  2  7  1  1  0  0  0
  2  4  1  0  0  0  0
  2  3  1  0  0  0  0
  3  1  1  1  0  0  0
  4  3  1  0  0  0  0
  5  6  2  0  0  0  0
  6  7  1  0  0  0  0
  6  9  1  0  0  0  0
  9  8  1  1  0  0  0
 10  9  1  0  0  0  0
 10 11  1  0  0  0  0
 13 12  2  0  0  0  0
 13 14  1  0  0  0  0
 15 14  1  0  0  0  0
 15 20  1  1  0  0  0
 16 17  1  1  0  0  0
 16 15  1  0  0  0  0
 16 19  1  0  0  0  0
 18 19  1  0  0  0  0
 21 20  1  6  0  0  0
 21 25  1  0  0  0  0
 21 22  1  0  0  0  0
 22 24  1  0  0  0  0
 23 24  1  0  0  0  0
 25 26  1  0  0  0  0
 26 28  1  0  0  0  0
 28 27  2  0  0  0  0
 29 30  2  0  0  0  0
 30 36  1  0  0  0  0
 31 35  1  6  0  0  0
 31 42  1  0  0  0  0
 32 31  1  0  0  0  0
 33 37  1  0  0  0  0
 33 34  1  0  0  0  0
 34 32  1  0  0  0  0
 36 33  2  0  0  0  0
 37 35  1  0  0  0  0
 38 45  1  6  0  0  0
 39 48  1  1  0  0  0
 39 43  1  0  0  0  0
 41 38  1  0  0  0  0
 42 39  1  0  0  0  0
 42 41  1  1  0  0  0
 43 38  1  0  0  0  0
 43 40  2  0  0  0  0
 45 44  1  0  0  0  0
 46 45  1  0  0  0  0
 46 44  1  0  0  0  0
 47 48  2  0  0  0  0
M  END
>  <MODEL>
7

>  <REMARK>
 VINA RESULT:      -5.6      1.720      3.556
  Name = 
  21 active torsions:
  status: ('A' for Active; 'I' for Inactive)
    1  A    between atoms: C_1  and  C_22
    2  A    between atoms: C_3  and  N_32
    3  A    between atoms: C_4  and  N_11
    4  A    between atoms: C_4  and  C_24
    5  A    between atoms: C_5  and  C_17
    6  A    between atoms: C_6  and  C_31
    7  A    between atoms: C_8  and  C_27
    8  A    between atoms: O_10  and  C_16
    9  A    between atoms: O_10  and  C_35
   10  A    between atoms: C_13  and  C_30
   11  A    between atoms: C_13  and  C_35
   12  A    between atoms: C_16  and  C_46
   13  A    between atoms: C_17  and  C_40
   14  A    between atoms: C_17  and  C_48
   15  A    between atoms: C_19  and  C_35
   16  A    between atoms: C_19  and  O_45
   17  A    between atoms: C_20  and  C_30
   18  A    between atoms: C_20  and  C_41
   19  A    between atoms: N_29  and  C_39
   20  A    between atoms: C_30  and  O_36
   21  A    between atoms: O_36  and  C_48
                            x       y       z     vdW  Elec       q    Type
                         _______ _______ _______ _____ _____    ______ ____

>  <TORSDO>
F 21

$$$$
=
 OpenBabel11062412013D

 48 51  0  0  1  0  0  0  0  0999 V2000
  189.3880  177.3740  138.4500 C   0  0  2  0  0  3  0  0  0  0  0  0
  189.5450  175.3360  136.8650 C   0  0  1  0  0  3  0  0  0  0  0  0
  188.7030  176.1390  137.8620 C   0  0  2  0  0  3  0  0  0  0  0  0
  188.5170  176.3310  136.3690 C   0  0  0  0  0  2  0  0  0  0  0  0
  191.4900  174.3870  135.0090 O   0  0  0  0  0  0  0  0  0  0  0  0
  191.8140  175.3530  135.7490 C   0  0  0  0  0  0  0  0  0  0  0  0
  190.8850  175.8810  136.7000 N   0  0  0  0  0  2  0  0  0  0  0  0
  193.6130  176.5430  136.9430 C   0  0  0  0  0  1  0  0  0  0  0  0
  193.1700  175.9570  135.6150 C   0  0  1  0  0  3  0  0  0  0  0  0
  194.1230  174.9500  135.1770 N   0  0  0  0  0  2  0  0  0  0  0  0
  195.3700  175.2100  135.8740 C   0  0  0  0  0  1  0  0  0  0  0  0
  190.5540  176.0110  140.0090 O   0  0  0  0  0  0  0  0  0  0  0  0
  189.9220  177.0840  139.8140 C   0  0  0  0  0  0  0  0  0  0  0  0
  189.7310  178.0130  140.8480 O   0  0  0  0  0  0  0  0  0  0  0  0
  189.7590  177.7090  142.2470 C   0  0  1  0  0  3  0  0  0  0  0  0
  191.1460  177.8680  142.8800 C   0  0  1  0  0  3  0  0  0  0  0  0
  191.1600  178.9740  143.7330 O   0  0  0  0  0  1  0  0  0  0  0  0
  190.6690  175.4500  143.2100 C   0  0  0  0  0  1  0  0  0  0  0  0
  191.5120  176.6210  143.6670 C   0  0  0  0  0  2  0  0  0  0  0  0
  188.6400  178.4150  143.0180 C   0  0  0  0  0  2  0  0  0  0  0  0
  187.8650  177.4820  143.9400 C   0  0  1  0  0  3  0  0  0  0  0  0
  188.0970  177.8540  145.3990 C   0  0  0  0  0  2  0  0  0  0  0  0
  188.9660  177.3200  147.3570 C   0  0  0  0  0  1  0  0  0  0  0  0
  188.9270  176.9200  146.0220 O   0  0  0  0  0  0  0  0  0  0  0  0
  186.5020  177.5410  143.6430 O   0  0  0  0  0  0  0  0  0  0  0  0
  186.4270  178.2410  142.4350 C   0  0  0  0  0  2  0  0  0  0  0  0
  184.5340  179.2270  143.4290 O   0  0  0  0  0  0  0  0  0  0  0  0
  185.3280  179.2460  142.5040 C   0  0  0  0  0  3  0  0  0  0  0  0
  188.4100  178.4940  138.5320 C   0  0  0  0  0  3  0  0  0  0  0  0
  187.1450  178.2510  138.6600 N   0  0  0  0  0  0  0  0  0  0  0  0
  182.2270  178.8730  140.0010 C   0  0  2  0  0  3  0  0  0  0  0  0
  182.4750  179.8910  138.8810 C   0  0  0  0  0  2  0  0  0  0  0  0
  184.7940  179.0240  138.7300 C   0  0  0  0  0  0  0  0  0  0  0  0
  183.9040  180.1370  138.7650 N   0  0  0  0  0  2  0  0  0  0  0  0
  183.0530  177.5760  139.8190 C   0  0  0  0  0  2  0  0  0  0  0  0
  186.1140  179.2530  138.6920 C   0  0  0  0  0  3  0  0  0  0  0  0
  184.1900  177.6510  138.7870 C   0  0  0  0  0  2  0  0  0  0  0  0
  179.2810  178.0440  142.0860 C   0  0  1  0  0  3  0  0  0  0  0  0
  180.4490  177.0710  140.1110 C   0  0  1  0  0  3  0  0  0  0  0  0
  179.0330  175.7530  141.5000 O   0  0  0  0  0  0  0  0  0  0  0  0
  180.2030  179.0970  141.4920 C   0  0  0  0  0  2  0  0  0  0  0  0
  180.7320  178.5690  140.1530 C   0  0  1  0  0  3  0  0  0  0  0  0
  179.5320  176.8410  141.2560 C   0  0  0  0  0  0  0  0  0  0  0  0
  179.3070  179.0040  144.3720 C   0  0  0  0  0  2  0  0  0  0  0  0
  179.6700  177.7920  143.5360 C   0  0  0  0  0  3  0  0  0  0  0  0
  180.7430  178.7800  143.9500 C   0  0  0  0  0  2  0  0  0  0  0  0
  179.4410  177.6890  137.9500 C   0  0  0  0  0  2  0  0  0  0  0  0
  179.7860  176.7330  138.8110 C   0  0  0  0  0  3  0  0  0  0  0  0
  1 29  1  1  0  0  0
  1 13  1  0  0  0  0
  2  7  1  1  0  0  0
  2  3  1  0  0  0  0
  3  1  1  1  0  0  0
  4  2  1  0  0  0  0
  4  3  1  0  0  0  0
  5  6  2  0  0  0  0
  6  7  1  0  0  0  0
  9  6  1  0  0  0  0
  9  8  1  1  0  0  0
 10  9  1  0  0  0  0
 10 11  1  0  0  0  0
 13 12  2  0  0  0  0
 13 14  1  0  0  0  0
 14 15  1  0  0  0  0
 15 16  1  0  0  0  0
 15 20  1  1  0  0  0
 16 19  1  0  0  0  0
 16 17  1  1  0  0  0
 18 19  1  0  0  0  0
 21 20  1  6  0  0  0
 21 22  1  0  0  0  0
 22 24  1  0  0  0  0
 24 23  1  0  0  0  0
 25 21  1  0  0  0  0
 26 28  1  0  0  0  0
 26 25  1  0  0  0  0
 28 27  2  0  0  0  0
 29 30  2  0  0  0  0
 30 36  1  0  0  0  0
 31 32  1  6  0  0  0
 31 42  1  0  0  0  0
 33 34  1  0  0  0  0
 33 37  1  0  0  0  0
 34 32  1  0  0  0  0
 35 31  1  0  0  0  0
 36 33  2  0  0  0  0
 37 35  1  0  0  0  0
 38 45  1  1  0  0  0
 39 48  1  6  0  0  0
 39 42  1  0  0  0  0
 39 43  1  0  0  0  0
 41 38  1  0  0  0  0
 42 41  1  1  0  0  0
 43 40  2  0  0  0  0
 43 38  1  0  0  0  0
 45 46  1  0  0  0  0
 45 44  1  0  0  0  0
 46 44  1  0  0  0  0
 47 48  2  0  0  0  0
M  END
>  <MODEL>
8

>  <REMARK>
 VINA RESULT:      -5.5      2.680      7.750
  Name = 
  21 active torsions:
  status: ('A' for Active; 'I' for Inactive)
    1  A    between atoms: C_1  and  C_22
    2  A    between atoms: C_3  and  N_32
    3  A    between atoms: C_4  and  N_11
    4  A    between atoms: C_4  and  C_24
    5  A    between atoms: C_5  and  C_17
    6  A    between atoms: C_6  and  C_31
    7  A    between atoms: C_8  and  C_27
    8  A    between atoms: O_10  and  C_16
    9  A    between atoms: O_10  and  C_35
   10  A    between atoms: C_13  and  C_30
   11  A    between atoms: C_13  and  C_35
   12  A    between atoms: C_16  and  C_46
   13  A    between atoms: C_17  and  C_40
   14  A    between atoms: C_17  and  C_48
   15  A    between atoms: C_19  and  C_35
   16  A    between atoms: C_19  and  O_45
   17  A    between atoms: C_20  and  C_30
   18  A    between atoms: C_20  and  C_41
   19  A    between atoms: N_29  and  C_39
   20  A    between atoms: C_30  and  O_36
   21  A    between atoms: O_36  and  C_48
                            x       y       z     vdW  Elec       q    Type
                         _______ _______ _______ _____ _____    ______ ____

>  <TORSDO>
F 21

$$$$
=
 OpenBabel11062412013D

 48 51  0  0  1  0  0  0  0  0999 V2000
  182.4280  179.6010  139.4740 C   0  0  2  0  0  3  0  0  0  0  0  0
  181.2210  178.2910  141.3500 C   0  0  1  0  0  3  0  0  0  0  0  0
  181.2540  178.7070  139.8760 C   0  0  2  0  0  3  0  0  0  0  0  0
  181.7790  177.3500  140.3030 C   0  0  0  0  0  2  0  0  0  0  0  0
  181.2880  178.5260  144.1910 O   0  0  0  0  0  0  0  0  0  0  0  0
  182.2750  178.9690  143.5470 C   0  0  0  0  0  0  0  0  0  0  0  0
  182.3090  178.8800  142.1200 N   0  0  0  0  0  2  0  0  0  0  0  0
  183.6370  178.8420  145.5970 C   0  0  0  0  0  1  0  0  0  0  0  0
  183.4220  179.5720  144.2850 C   0  0  1  0  0  3  0  0  0  0  0  0
  184.6270  179.5020  143.4760 N   0  0  0  0  0  2  0  0  0  0  0  0
  185.3980  178.3680  143.9550 C   0  0  0  0  0  1  0  0  0  0  0  0
  181.9020  181.6850  138.4590 O   0  0  0  0  0  0  0  0  0  0  0  0
  182.0710  180.4470  138.2950 C   0  0  0  0  0  0  0  0  0  0  0  0
  181.9480  179.8570  137.0280 O   0  0  0  0  0  0  0  0  0  0  0  0
  180.8750  179.0030  136.6150 C   0  0  1  0  0  3  0  0  0  0  0  0
  179.6680  179.7640  136.0560 C   0  0  1  0  0  3  0  0  0  0  0  0
  179.3750  180.8620  136.8700 O   0  0  0  0  0  1  0  0  0  0  0  0
  180.4680  181.6700  134.6730 C   0  0  0  0  0  1  0  0  0  0  0  0
  179.9550  180.2460  134.6450 C   0  0  0  0  0  2  0  0  0  0  0  0
  181.3560  177.8570  135.7200 C   0  0  0  0  0  2  0  0  0  0  0  0
  181.0160  176.4800  136.2740 C   0  0  1  0  0  3  0  0  0  0  0  0
  179.6420  176.0310  135.7920 C   0  0  0  0  0  2  0  0  0  0  0  0
  178.9540  175.8680  137.8840 C   0  0  0  0  0  1  0  0  0  0  0  0
  179.0670  175.1390  136.7000 O   0  0  0  0  0  0  0  0  0  0  0  0
  181.9860  175.5550  135.8800 O   0  0  0  0  0  0  0  0  0  0  0  0
  183.1870  176.0530  136.3910 C   0  0  0  0  0  2  0  0  0  0  0  0
  183.6660  175.1730  138.5220 O   0  0  0  0  0  0  0  0  0  0  0  0
  183.7950  175.0520  137.3160 C   0  0  0  0  0  3  0  0  0  0  0  0
  183.6050  178.7550  139.1350 C   0  0  0  0  0  3  0  0  0  0  0  0
  184.8010  179.2470  139.1850 N   0  0  0  0  0  0  0  0  0  0  0  0
  188.8110  176.8480  141.3170 C   0  0  2  0  0  3  0  0  0  0  0  0
  189.3170  177.3630  139.9630 C   0  0  0  0  0  2  0  0  0  0  0  0
  187.0740  178.3590  139.6050 C   0  0  0  0  0  0  0  0  0  0  0  0
  188.1800  177.6200  139.0930 N   0  0  0  0  0  2  0  0  0  0  0  0
  187.7600  177.7890  141.9540 C   0  0  0  0  0  2  0  0  0  0  0  0
  185.9990  178.5370  138.8250 C   0  0  0  0  0  3  0  0  0  0  0  0
  187.1670  178.8540  141.0190 C   0  0  0  0  0  2  0  0  0  0  0  0
  190.4100  177.1430  144.6440 C   0  0  1  0  0  3  0  0  0  0  0  0
  190.9820  177.7220  142.2880 C   0  0  1  0  0  3  0  0  0  0  0  0
  192.0540  178.7830  144.1320 O   0  0  0  0  0  0  0  0  0  0  0  0
  189.4670  176.3990  143.7110 C   0  0  0  0  0  2  0  0  0  0  0  0
  189.9750  176.5750  142.2750 C   0  0  1  0  0  3  0  0  0  0  0  0
  191.2370  177.9670  143.7300 C   0  0  0  0  0  0  0  0  0  0  0  0
  189.7440  177.5190  147.0030 C   0  0  0  0  0  2  0  0  0  0  0  0
  189.5970  178.0260  145.5810 C   0  0  0  0  0  3  0  0  0  0  0  0
  188.4900  177.2060  146.2150 C   0  0  0  0  0  2  0  0  0  0  0  0
  192.5340  177.7570  140.3760 C   0  0  0  0  0  2  0  0  0  0  0  0
  192.2300  177.2870  141.5840 C   0  0  0  0  0  3  0  0  0  0  0  0
  1 29  1  6  0  0  0
  2  7  1  1  0  0  0
  3  1  1  1  0  0  0
  3  4  1  0  0  0  0
  3  2  1  0  0  0  0
  4  2  1  0  0  0  0
  6  5  2  0  0  0  0
  6  9  1  0  0  0  0
  7  6  1  0  0  0  0
  9  8  1  1  0  0  0
 10 11  1  0  0  0  0
 10  9  1  0  0  0  0
 13 12  2  0  0  0  0
 13  1  1  0  0  0  0
 14 13  1  0  0  0  0
 15 20  1  6  0  0  0
 15 14  1  0  0  0  0
 16 15  1  0  0  0  0
 16 17  1  1  0  0  0
 19 18  1  0  0  0  0
 19 16  1  0  0  0  0
 21 20  1  6  0  0  0
 22 21  1  0  0  0  0
 22 24  1  0  0  0  0
 24 23  1  0  0  0  0
 25 21  1  0  0  0  0
 25 26  1  0  0  0  0
 26 28  1  0  0  0  0
 28 27  2  0  0  0  0
 29 30  2  0  0  0  0
 31 32  1  6  0  0  0
 31 35  1  0  0  0  0
 31 42  1  0  0  0  0
 33 37  1  0  0  0  0
 34 33  1  0  0  0  0
 34 32  1  0  0  0  0
 36 30  1  0  0  0  0
 36 33  2  0  0  0  0
 37 35  1  0  0  0  0
 38 45  1  1  0  0  0
 39 48  1  6  0  0  0
 39 43  1  0  0  0  0
 41 38  1  0  0  0  0
 42 39  1  0  0  0  0
 42 41  1  1  0  0  0
 43 40  2  0  0  0  0
 43 38  1  0  0  0  0
 45 46  1  0  0  0  0
 45 44  1  0  0  0  0
 46 44  1  0  0  0  0
 47 48  2  0  0  0  0
M  END
>  <MODEL>
9

>  <REMARK>
 VINA RESULT:      -5.4      3.020      6.540
  Name = 
  21 active torsions:
  status: ('A' for Active; 'I' for Inactive)
    1  A    between atoms: C_1  and  C_22
    2  A    between atoms: C_3  and  N_32
    3  A    between atoms: C_4  and  N_11
    4  A    between atoms: C_4  and  C_24
    5  A    between atoms: C_5  and  C_17
    6  A    between atoms: C_6  and  C_31
    7  A    between atoms: C_8  and  C_27
    8  A    between atoms: O_10  and  C_16
    9  A    between atoms: O_10  and  C_35
   10  A    between atoms: C_13  and  C_30
   11  A    between atoms: C_13  and  C_35
   12  A    between atoms: C_16  and  C_46
   13  A    between atoms: C_17  and  C_40
   14  A    between atoms: C_17  and  C_48
   15  A    between atoms: C_19  and  C_35
   16  A    between atoms: C_19  and  O_45
   17  A    between atoms: C_20  and  C_30
   18  A    between atoms: C_20  and  C_41
   19  A    between atoms: N_29  and  C_39
   20  A    between atoms: C_30  and  O_36
   21  A    between atoms: O_36  and  C_48
                            x       y       z     vdW  Elec       q    Type
                         _______ _______ _______ _____ _____    ______ ____

>  <TORSDO>
F 21

$$$$
