=
 OpenBabel11062412583D

 38 43  0  0  1  0  0  0  0  0999 V2000
  191.6470  177.2690  140.7910 C   0  0  0  0  0  2  0  0  0  0  0  0
  190.5350  176.7310  139.8480 C   0  0  0  0  0  2  0  0  0  0  0  0
  189.1820  177.3400  140.1630 C   0  0  0  0  0  0  0  0  0  0  0  0
  191.2760  177.4150  142.2200 N   0  0  0  0  0  2  0  0  0  0  0  0
  189.8520  177.1820  142.4500 C   0  0  2  0  0  3  0  0  0  0  0  0
  189.0280  177.9910  141.5010 C   0  0  2  0  0  3  0  0  0  0  0  0
  189.3550  177.6490  143.7820 C   0  0  0  0  0  2  0  0  0  0  0  0
  187.8780  177.9370  143.5000 C   0  0  1  0  0  3  0  0  0  0  0  0
  188.2130  177.3530  139.3110 N   0  0  0  0  0  0  0  0  0  0  0  0
  187.6790  177.9620  142.0450 N   0  0  0  0  0  0  0  0  0  0  0  0
  184.7810  172.2210  137.2960 O   0  0  0  0  0  0  0  0  0  0  0  0
  185.8780  174.3060  137.3620 C   0  0  0  0  0  3  0  0  0  0  0  0
  188.9130  175.3970  135.2010 C   0  0  1  0  0  3  0  0  0  0  0  0
  188.2980  176.7560  138.0000 C   0  0  1  0  0  3  0  0  0  0  0  0
  186.9110  172.2500  136.2230 C   0  0  0  0  0  2  0  0  0  0  0  0
  190.0600  177.7520  134.5940 O   0  0  0  0  0  0  0  0  0  0  0  0
  188.9670  172.6970  134.7460 C   0  0  0  0  0  2  0  0  0  0  0  0
  190.3170  173.2590  135.2130 C   0  0  0  0  0  2  0  0  0  0  0  0
  190.3110  174.7930  135.3750 C   0  0  0  0  0  2  0  0  0  0  0  0
  187.8640  173.2420  135.6110 C   0  0  0  0  0  0  0  0  0  0  0  0
  187.8430  174.5650  135.9010 C   0  0  0  0  0  0  0  0  0  0  0  0
  186.8500  175.0920  136.8970 C   0  0  0  0  0  0  0  0  0  0  0  0
  187.6250  177.7170  134.7810 O   0  0  0  0  0  0  0  0  0  0  0  0
  186.9020  176.4710  137.4650 C   0  0  0  0  0  2  0  0  0  0  0  0
  185.7840  172.9020  136.9610 C   0  0  0  0  0  0  0  0  0  0  0  0
  189.0350  177.7000  137.0660 C   0  0  0  0  0  2  0  0  0  0  0  0
  188.9030  177.1800  135.3630 S   0  0  0  0  0  0  0  0  0  0  0  0
  187.0560  179.2370  141.7250 C   0  0  0  0  0  2  0  0  0  0  0  0
  184.6230  178.7740  142.0720 C   0  0  0  0  0  3  0  0  0  0  0  0
  182.3100  178.3040  142.3910 F   0  0  0  0  0  0  0  0  0  0  0  0
  184.2420  178.7340  139.3250 C   0  0  0  0  0  3  0  0  0  0  0  0
  185.4740  178.9740  139.8480 N   0  0  0  0  0  0  0  0  0  0  0  0
  183.1540  178.5050  140.1720 C   0  0  0  0  0  3  0  0  0  0  0  0
  183.3510  178.5270  141.5530 C   0  0  0  0  0  0  0  0  0  0  0  0
  185.6840  179.0070  141.1920 C   0  0  0  0  0  0  0  0  0  0  0  0
  187.0520  176.8910  144.0820 N   0  0  0  0  0  2  0  0  0  0  0  0
  186.8590  177.2260  145.4280 N   0  0  0  0  0  2  0  0  0  0  0  0
  186.0700  178.4440  145.4450 C   0  0  0  0  0  1  0  0  0  0  0  0
  1  4  1  0  0  0  0
  2  3  1  0  0  0  0
  2  1  1  0  0  0  0
  4  5  1  0  0  0  0
  5  7  1  1  0  0  0
  6  3  1  6  0  0  0
  6 10  1  0  0  0  0
  6  5  1  0  0  0  0
  8  7  1  0  0  0  0
  8 36  1  1  0  0  0
  9  3  2  0  0  0  0
 10  8  1  0  0  0  0
 13 27  1  0  0  0  0
 13 19  1  1  0  0  0
 13 21  1  0  0  0  0
 14  9  1  1  0  0  0
 15 25  1  0  0  0  0
 16 27  2  0  0  0  0
 17 18  1  0  0  0  0
 17 20  1  0  0  0  0
 18 19  1  0  0  0  0
 20 21  2  0  0  0  0
 20 15  1  0  0  0  0
 21 22  1  0  0  0  0
 22 12  2  0  0  0  0
 22 24  1  0  0  0  0
 23 27  2  0  0  0  0
 24 14  1  0  0  0  0
 25 11  2  0  0  0  0
 25 12  1  0  0  0  0
 26 14  1  0  0  0  0
 27 26  1  0  0  0  0
 28 10  1  0  0  0  0
 31 32  2  0  0  0  0
 31 33  1  0  0  0  0
 32 35  1  0  0  0  0
 33 34  2  0  0  0  0
 34 29  1  0  0  0  0
 34 30  1  0  0  0  0
 35 28  1  0  0  0  0
 35 29  2  0  0  0  0
 36 37  1  0  0  0  0
 37 38  1  0  0  0  0
M  END
>  <MODEL>
1

>  <REMARK>
 VINA RESULT:      -7.7      0.000      0.000
  Name = 
  5 active torsions:
  status: ('A' for Active; 'I' for Inactive)
    1  A    between atoms: C_6  and  N_34
    2  A    between atoms: C_11  and  N_35
    3  A    between atoms: C_11  and  C_37
    4  A    between atoms: N_16  and  N_25
    5  A    between atoms: N_16  and  C_33
                            x       y       z     vdW  Elec       q    Type
                         _______ _______ _______ _____ _____    ______ ____

>  <TORSDO>
F 5

$$$$
=
 OpenBabel11062412583D

 38 43  0  0  1  0  0  0  0  0999 V2000
  184.0480  179.5510  144.6770 C   0  0  0  0  0  2  0  0  0  0  0  0
  185.1740  178.6440  144.1090 C   0  0  0  0  0  2  0  0  0  0  0  0
  185.1640  178.6090  142.5930 C   0  0  0  0  0  0  0  0  0  0  0  0
  182.7300  179.4540  144.0010 N   0  0  0  0  0  2  0  0  0  0  0  0
  182.7850  178.6320  142.7940 C   0  0  2  0  0  3  0  0  0  0  0  0
  183.9110  179.0660  141.9150 C   0  0  2  0  0  3  0  0  0  0  0  0
  181.6010  178.7780  141.8910 C   0  0  0  0  0  2  0  0  0  0  0  0
  182.1870  178.4320  140.5200 C   0  0  1  0  0  3  0  0  0  0  0  0
  186.1950  178.2570  141.9010 N   0  0  0  0  0  0  0  0  0  0  0  0
  183.6520  178.4450  140.6250 N   0  0  0  0  0  0  0  0  0  0  0  0
  187.2860  177.5450  148.2640 O   0  0  0  0  0  0  0  0  0  0  0  0
  187.2710  177.1960  145.9330 C   0  0  0  0  0  3  0  0  0  0  0  0
  190.3520  177.1890  143.5710 C   0  0  1  0  0  3  0  0  0  0  0  0
  187.4370  177.8180  142.4910 C   0  0  1  0  0  3  0  0  0  0  0  0
  189.3010  178.1830  147.1580 C   0  0  0  0  0  2  0  0  0  0  0  0
  190.8200  176.3260  141.0680 O   0  0  0  0  0  0  0  0  0  0  0  0
  191.4770  178.3180  145.7970 C   0  0  0  0  0  2  0  0  0  0  0  0
  191.7030  179.1420  144.5210 C   0  0  0  0  0  2  0  0  0  0  0  0
  191.1530  178.4560  143.2540 C   0  0  0  0  0  2  0  0  0  0  0  0
  190.0380  177.8910  145.8780 C   0  0  0  0  0  0  0  0  0  0  0  0
  189.4370  177.3810  144.7770 C   0  0  0  0  0  0  0  0  0  0  0  0
  187.9590  177.1100  144.7950 C   0  0  0  0  0  0  0  0  0  0  0  0
  189.3360  174.9670  142.4530 O   0  0  0  0  0  0  0  0  0  0  0  0
  187.1650  176.7850  143.5740 C   0  0  0  0  0  2  0  0  0  0  0  0
  187.9180  177.6100  147.1790 C   0  0  0  0  0  0  0  0  0  0  0  0
  188.3220  177.2230  141.4090 C   0  0  0  0  0  2  0  0  0  0  0  0
  189.7310  176.3740  142.1020 S   0  0  0  0  0  0  0  0  0  0  0  0
  184.1420  179.3530  139.6000 C   0  0  0  0  0  2  0  0  0  0  0  0
  184.2810  177.7850  137.6570 C   0  0  0  0  0  3  0  0  0  0  0  0
  184.4260  176.2700  135.8250 F   0  0  0  0  0  0  0  0  0  0  0  0
  187.0480  177.9460  137.7290 C   0  0  0  0  0  3  0  0  0  0  0  0
  186.2930  178.6510  138.6120 N   0  0  0  0  0  0  0  0  0  0  0  0
  186.4330  177.1330  136.7740 C   0  0  0  0  0  3  0  0  0  0  0  0
  185.0400  177.0550  136.7420 C   0  0  0  0  0  0  0  0  0  0  0  0
  184.9330  178.5940  138.5920 C   0  0  0  0  0  0  0  0  0  0  0  0
  181.7440  177.1080  140.1150 N   0  0  0  0  0  2  0  0  0  0  0  0
  180.3850  177.0140  140.4430 N   0  0  0  0  0  2  0  0  0  0  0  0
  179.9970  175.6340  140.2150 C   0  0  0  0  0  1  0  0  0  0  0  0
  2  1  1  0  0  0  0
  3  2  1  0  0  0  0
  4  1  1  0  0  0  0
  5  7  1  6  0  0  0
  5  4  1  0  0  0  0
  6  3  1  1  0  0  0
  6  5  1  0  0  0  0
  8 36  1  1  0  0  0
  8 10  1  0  0  0  0
  8  7  1  0  0  0  0
  9  3  2  0  0  0  0
 10  6  1  0  0  0  0
 12 25  1  0  0  0  0
 13 19  1  6  0  0  0
 13 21  1  0  0  0  0
 14  9  1  6  0  0  0
 14 24  1  0  0  0  0
 15 25  1  0  0  0  0
 16 27  2  0  0  0  0
 17 20  1  0  0  0  0
 18 17  1  0  0  0  0
 19 18  1  0  0  0  0
 20 15  1  0  0  0  0
 21 22  1  0  0  0  0
 21 20  2  0  0  0  0
 22 12  2  0  0  0  0
 24 22  1  0  0  0  0
 25 11  2  0  0  0  0
 26 27  1  0  0  0  0
 26 14  1  0  0  0  0
 27 23  2  0  0  0  0
 27 13  1  0  0  0  0
 28 10  1  0  0  0  0
 29 35  1  0  0  0  0
 30 34  1  0  0  0  0
 31 32  1  0  0  0  0
 33 31  2  0  0  0  0
 34 33  1  0  0  0  0
 34 29  2  0  0  0  0
 35 32  2  0  0  0  0
 35 28  1  0  0  0  0
 36 37  1  0  0  0  0
 38 37  1  0  0  0  0
M  END
>  <MODEL>
2

>  <REMARK>
 VINA RESULT:      -7.3      3.760      7.752
  Name = 
  5 active torsions:
  status: ('A' for Active; 'I' for Inactive)
    1  A    between atoms: C_6  and  N_34
    2  A    between atoms: C_11  and  N_35
    3  A    between atoms: C_11  and  C_37
    4  A    between atoms: N_16  and  N_25
    5  A    between atoms: N_16  and  C_33
                            x       y       z     vdW  Elec       q    Type
                         _______ _______ _______ _____ _____    ______ ____

>  <TORSDO>
F 5

$$$$
=
 OpenBabel11062412583D

 38 43  0  0  1  0  0  0  0  0999 V2000
  187.4470  178.4190  137.6190 C   0  0  0  0  0  2  0  0  0  0  0  0
  186.0100  177.9830  138.0190 C   0  0  0  0  0  2  0  0  0  0  0  0
  185.6920  178.3330  139.4600 C   0  0  0  0  0  0  0  0  0  0  0  0
  188.5050  178.1860  138.6320 N   0  0  0  0  0  2  0  0  0  0  0  0
  187.9600  177.7350  139.9110 C   0  0  2  0  0  3  0  0  0  0  0  0
  186.8530  178.6340  140.3550 C   0  0  2  0  0  3  0  0  0  0  0  0
  188.9170  177.8190  141.0570 C   0  0  0  0  0  2  0  0  0  0  0  0
  187.9820  177.9830  142.2580 C   0  0  1  0  0  3  0  0  0  0  0  0
  184.4820  178.4250  139.9000 N   0  0  0  0  0  0  0  0  0  0  0  0
  186.6410  178.3180  141.7590 N   0  0  0  0  0  0  0  0  0  0  0  0
  183.3770  172.9450  136.5950 O   0  0  0  0  0  0  0  0  0  0  0  0
  183.0770  174.8660  137.9270 C   0  0  0  0  0  3  0  0  0  0  0  0
  180.8670  177.9460  137.0890 C   0  0  1  0  0  3  0  0  0  0  0  0
  183.3190  178.1610  139.0890 C   0  0  1  0  0  3  0  0  0  0  0  0
  182.4040  174.7980  135.4500 C   0  0  0  0  0  2  0  0  0  0  0  0
  179.8560  179.9970  138.5040 O   0  0  0  0  0  0  0  0  0  0  0  0
  180.9520  176.7520  134.6250 C   0  0  0  0  0  2  0  0  0  0  0  0
  181.3530  178.2340  134.5940 C   0  0  0  0  0  2  0  0  0  0  0  0
  181.2110  178.9280  135.9640 C   0  0  0  0  0  2  0  0  0  0  0  0
  181.6490  176.0620  135.7650 C   0  0  0  0  0  0  0  0  0  0  0  0
  181.6720  176.6540  136.9830 C   0  0  0  0  0  0  0  0  0  0  0  0
  182.5060  176.0610  138.0820 C   0  0  0  0  0  0  0  0  0  0  0  0
  179.9490  177.8210  139.6100 O   0  0  0  0  0  0  0  0  0  0  0  0
  182.7940  176.7600  139.3690 C   0  0  0  0  0  2  0  0  0  0  0  0
  182.9550  174.1270  136.6690 C   0  0  0  0  0  0  0  0  0  0  0  0
  182.2470  179.1930  139.3980 C   0  0  0  0  0  2  0  0  0  0  0  0
  180.6760  178.7490  138.6770 S   0  0  0  0  0  0  0  0  0  0  0  0
  186.2380  179.5480  142.4250 C   0  0  0  0  0  2  0  0  0  0  0  0
  185.3520  178.9370  144.6810 C   0  0  0  0  0  3  0  0  0  0  0  0
  184.4980  178.3270  146.8200 F   0  0  0  0  0  0  0  0  0  0  0  0
  182.7660  179.0130  143.6830 C   0  0  0  0  0  3  0  0  0  0  0  0
  183.8250  179.2940  142.8790 N   0  0  0  0  0  0  0  0  0  0  0  0
  182.9730  178.6840  145.0250 C   0  0  0  0  0  3  0  0  0  0  0  0
  184.2760  178.6470  145.5230 C   0  0  0  0  0  0  0  0  0  0  0  0
  185.1020  179.2700  143.3470 C   0  0  0  0  0  0  0  0  0  0  0  0
  187.9200  176.7390  143.0080 N   0  0  0  0  0  2  0  0  0  0  0  0
  189.0450  176.7090  143.8410 N   0  0  0  0  0  2  0  0  0  0  0  0
  188.8820  177.7870  144.7990 C   0  0  0  0  0  1  0  0  0  0  0  0
  1  2  1  0  0  0  0
  1  4  1  0  0  0  0
  2  3  1  0  0  0  0
  3  9  2  0  0  0  0
  4  5  1  0  0  0  0
  5  6  1  0  0  0  0
  5  7  1  1  0  0  0
  6  3  1  6  0  0  0
  6 10  1  0  0  0  0
  7  8  1  0  0  0  0
  8 36  1  6  0  0  0
 10  8  1  0  0  0  0
 10 28  1  0  0  0  0
 11 25  2  0  0  0  0
 12 22  2  0  0  0  0
 13 19  1  6  0  0  0
 13 27  1  0  0  0  0
 14 24  1  0  0  0  0
 14 26  1  0  0  0  0
 14  9  1  1  0  0  0
 15 20  1  0  0  0  0
 15 25  1  0  0  0  0
 16 27  2  0  0  0  0
 17 20  1  0  0  0  0
 18 17  1  0  0  0  0
 18 19  1  0  0  0  0
 20 21  2  0  0  0  0
 21 13  1  0  0  0  0
 21 22  1  0  0  0  0
 22 24  1  0  0  0  0
 25 12  1  0  0  0  0
 27 26  1  0  0  0  0
 27 23  2  0  0  0  0
 28 35  1  0  0  0  0
 29 34  1  0  0  0  0
 31 33  1  0  0  0  0
 32 35  1  0  0  0  0
 32 31  2  0  0  0  0
 33 34  2  0  0  0  0
 34 30  1  0  0  0  0
 35 29  2  0  0  0  0
 36 37  1  0  0  0  0
 37 38  1  0  0  0  0
M  END
>  <MODEL>
3

>  <REMARK>
 VINA RESULT:      -7.0      3.658      5.556
  Name = 
  5 active torsions:
  status: ('A' for Active; 'I' for Inactive)
    1  A    between atoms: C_6  and  N_34
    2  A    between atoms: C_11  and  N_35
    3  A    between atoms: C_11  and  C_37
    4  A    between atoms: N_16  and  N_25
    5  A    between atoms: N_16  and  C_33
                            x       y       z     vdW  Elec       q    Type
                         _______ _______ _______ _____ _____    ______ ____

>  <TORSDO>
F 5

$$$$
=
 OpenBabel11062412583D

 38 43  0  0  1  0  0  0  0  0999 V2000
  187.7520  178.5320  136.0200 C   0  0  0  0  0  2  0  0  0  0  0  0
  186.4900  178.0750  136.8020 C   0  0  0  0  0  2  0  0  0  0  0  0
  186.6650  178.2280  138.3010 C   0  0  0  0  0  0  0  0  0  0  0  0
  189.0580  178.1370  136.6020 N   0  0  0  0  0  2  0  0  0  0  0  0
  188.9150  177.5240  137.9210 C   0  0  2  0  0  3  0  0  0  0  0  0
  188.0650  178.3760  138.8060 C   0  0  2  0  0  3  0  0  0  0  0  0
  190.1890  177.4260  138.7000 C   0  0  0  0  0  2  0  0  0  0  0  0
  189.6920  177.4410  140.1480 C   0  0  1  0  0  3  0  0  0  0  0  0
  185.6640  178.2830  139.1130 N   0  0  0  0  0  0  0  0  0  0  0  0
  188.2870  177.8720  140.1520 N   0  0  0  0  0  0  0  0  0  0  0  0
  182.9060  172.8570  136.8490 O   0  0  0  0  0  0  0  0  0  0  0  0
  183.2720  174.8810  138.0000 C   0  0  0  0  0  3  0  0  0  0  0  0
  181.3550  178.2180  137.4910 C   0  0  1  0  0  3  0  0  0  0  0  0
  184.2900  178.1600  138.6920 C   0  0  1  0  0  3  0  0  0  0  0  0
  181.9030  174.7680  135.8310 C   0  0  0  0  0  2  0  0  0  0  0  0
  181.0920  180.4890  138.9060 O   0  0  0  0  0  0  0  0  0  0  0  0
  180.5540  176.8750  135.2430 C   0  0  0  0  0  2  0  0  0  0  0  0
  181.1260  178.2680  134.9440 C   0  0  0  0  0  2  0  0  0  0  0  0
  181.4860  179.0600  136.2170 C   0  0  0  0  0  2  0  0  0  0  0  0
  181.4520  176.1540  136.2090 C   0  0  0  0  0  0  0  0  0  0  0  0
  181.9110  176.8100  137.3020 C   0  0  0  0  0  0  0  0  0  0  0  0
  182.9400  176.1590  138.1810 C   0  0  0  0  0  0  0  0  0  0  0  0
  181.2060  178.4000  140.1670 O   0  0  0  0  0  0  0  0  0  0  0  0
  183.6840  176.8820  139.2550 C   0  0  0  0  0  2  0  0  0  0  0  0
  182.6890  174.0950  136.9130 C   0  0  0  0  0  0  0  0  0  0  0  0
  183.5060  179.3680  139.1770 C   0  0  0  0  0  2  0  0  0  0  0  0
  181.7480  179.1390  138.9750 S   0  0  0  0  0  0  0  0  0  0  0  0
  188.1950  179.0040  141.0610 C   0  0  0  0  0  2  0  0  0  0  0  0
  187.3460  177.8610  143.1160 C   0  0  0  0  0  3  0  0  0  0  0  0
  186.5170  176.7550  145.0560 F   0  0  0  0  0  0  0  0  0  0  0  0
  184.9030  179.1370  142.8120 C   0  0  0  0  0  3  0  0  0  0  0  0
  185.9140  179.3650  141.9340 N   0  0  0  0  0  0  0  0  0  0  0  0
  185.0880  178.2560  143.8800 C   0  0  0  0  0  3  0  0  0  0  0  0
  186.3190  177.6160  144.0290 C   0  0  0  0  0  0  0  0  0  0  0  0
  187.1240  178.7560  142.0650 C   0  0  0  0  0  0  0  0  0  0  0  0
  189.7890  176.1070  140.7160 N   0  0  0  0  0  2  0  0  0  0  0  0
  190.1530  176.2600  142.0590 N   0  0  0  0  0  2  0  0  0  0  0  0
  191.3220  177.1210  142.0780 C   0  0  0  0  0  1  0  0  0  0  0  0
  1  4  1  0  0  0  0
  1  2  1  0  0  0  0
  2  3  1  0  0  0  0
  3  9  2  0  0  0  0
  4  5  1  0  0  0  0
  5  7  1  1  0  0  0
  5  6  1  0  0  0  0
  6  3  1  6  0  0  0
  6 10  1  0  0  0  0
  7  8  1  0  0  0  0
  8 10  1  0  0  0  0
  8 36  1  6  0  0  0
 10 28  1  0  0  0  0
 11 25  2  0  0  0  0
 12 22  2  0  0  0  0
 13 19  1  6  0  0  0
 13 27  1  0  0  0  0
 14  9  1  1  0  0  0
 14 26  1  0  0  0  0
 14 24  1  0  0  0  0
 15 20  1  0  0  0  0
 15 25  1  0  0  0  0
 16 27  2  0  0  0  0
 17 20  1  0  0  0  0
 18 17  1  0  0  0  0
 18 19  1  0  0  0  0
 20 21  2  0  0  0  0
 21 13  1  0  0  0  0
 21 22  1  0  0  0  0
 22 24  1  0  0  0  0
 25 12  1  0  0  0  0
 27 26  1  0  0  0  0
 27 23  2  0  0  0  0
 28 35  1  0  0  0  0
 29 34  1  0  0  0  0
 31 33  1  0  0  0  0
 32 35  1  0  0  0  0
 32 31  2  0  0  0  0
 33 34  2  0  0  0  0
 34 30  1  0  0  0  0
 35 29  2  0  0  0  0
 36 37  1  0  0  0  0
 37 38  1  0  0  0  0
M  END
>  <MODEL>
4

>  <REMARK>
 VINA RESULT:      -6.8      3.539      5.660
  Name = 
  5 active torsions:
  status: ('A' for Active; 'I' for Inactive)
    1  A    between atoms: C_6  and  N_34
    2  A    between atoms: C_11  and  N_35
    3  A    between atoms: C_11  and  C_37
    4  A    between atoms: N_16  and  N_25
    5  A    between atoms: N_16  and  C_33
                            x       y       z     vdW  Elec       q    Type
                         _______ _______ _______ _____ _____    ______ ____

>  <TORSDO>
F 5

$$$$
=
 OpenBabel11062412583D

 38 43  0  0  1  0  0  0  0  0999 V2000
  187.1810  178.2390  134.6600 C   0  0  0  0  0  2  0  0  0  0  0  0
  186.1180  177.8240  135.7130 C   0  0  0  0  0  2  0  0  0  0  0  0
  186.6580  177.9070  137.1280 C   0  0  0  0  0  0  0  0  0  0  0  0
  188.5610  177.7480  134.8970 N   0  0  0  0  0  2  0  0  0  0  0  0
  188.7000  177.0920  136.1960 C   0  0  2  0  0  3  0  0  0  0  0  0
  188.1450  177.9560  137.2810 C   0  0  2  0  0  3  0  0  0  0  0  0
  190.1150  176.8920  136.6400 C   0  0  0  0  0  2  0  0  0  0  0  0
  189.9840  176.8780  138.1650 C   0  0  1  0  0  3  0  0  0  0  0  0
  185.8880  177.9880  138.1600 N   0  0  0  0  0  0  0  0  0  0  0  0
  188.6520  177.3870  138.5210 N   0  0  0  0  0  0  0  0  0  0  0  0
  182.3180  172.8060  136.5550 O   0  0  0  0  0  0  0  0  0  0  0  0
  183.0820  174.7690  137.6110 C   0  0  0  0  0  3  0  0  0  0  0  0
  181.3200  178.2290  137.6280 C   0  0  1  0  0  3  0  0  0  0  0  0
  184.4480  177.9590  138.0830 C   0  0  1  0  0  3  0  0  0  0  0  0
  181.2260  174.8020  135.8370 C   0  0  0  0  0  2  0  0  0  0  0  0
  181.5540  180.4690  139.0970 O   0  0  0  0  0  0  0  0  0  0  0  0
  179.9160  177.0030  135.6220 C   0  0  0  0  0  2  0  0  0  0  0  0
  180.4890  178.3670  135.2130 C   0  0  0  0  0  2  0  0  0  0  0  0
  181.1960  179.0980  136.3720 C   0  0  0  0  0  2  0  0  0  0  0  0
  180.9710  176.2010  136.3320 C   0  0  0  0  0  0  0  0  0  0  0  0
  181.7210  176.7960  137.2900 C   0  0  0  0  0  0  0  0  0  0  0  0
  182.8870  176.0590  137.8850 C   0  0  0  0  0  0  0  0  0  0  0  0
  181.8320  178.3400  140.2630 O   0  0  0  0  0  0  0  0  0  0  0  0
  183.9130  176.7040  138.7570 C   0  0  0  0  0  2  0  0  0  0  0  0
  182.2040  174.0520  136.6860 C   0  0  0  0  0  0  0  0  0  0  0  0
  183.8840  179.1980  138.7600 C   0  0  0  0  0  2  0  0  0  0  0  0
  182.1180  179.0800  138.9860 S   0  0  0  0  0  0  0  0  0  0  0  0
  188.8540  178.4870  139.4520 C   0  0  0  0  0  2  0  0  0  0  0  0
  188.9920  177.2240  141.6050 C   0  0  0  0  0  3  0  0  0  0  0  0
  189.1000  176.0030  143.6480 F   0  0  0  0  0  0  0  0  0  0  0  0
  186.5550  178.2930  142.3850 C   0  0  0  0  0  3  0  0  0  0  0  0
  187.1050  178.6280  141.1880 N   0  0  0  0  0  0  0  0  0  0  0  0
  187.2170  177.4040  143.2360 C   0  0  0  0  0  3  0  0  0  0  0  0
  188.4440  176.8690  142.8390 C   0  0  0  0  0  0  0  0  0  0  0  0
  188.3030  178.1230  140.7870 C   0  0  0  0  0  0  0  0  0  0  0  0
  190.1280  175.5190  138.6600 N   0  0  0  0  0  2  0  0  0  0  0  0
  191.0550  174.8780  137.8280 N   0  0  0  0  0  2  0  0  0  0  0  0
  190.3630  173.7580  137.2190 C   0  0  0  0  0  1  0  0  0  0  0  0
  1  4  1  0  0  0  0
  1  2  1  0  0  0  0
  2  3  1  0  0  0  0
  3  9  2  0  0  0  0
  4  5  1  0  0  0  0
  5  7  1  1  0  0  0
  5  6  1  0  0  0  0
  6  3  1  1  0  0  0
  6 10  1  0  0  0  0
  7  8  1  0  0  0  0
  8 10  1  0  0  0  0
  8 36  1  6  0  0  0
 10 28  1  0  0  0  0
 11 25  2  0  0  0  0
 12 22  2  0  0  0  0
 13 19  1  6  0  0  0
 13 27  1  0  0  0  0
 14  9  1  1  0  0  0
 14 24  1  0  0  0  0
 14 26  1  0  0  0  0
 15 20  1  0  0  0  0
 15 25  1  0  0  0  0
 17 20  1  0  0  0  0
 18 17  1  0  0  0  0
 18 19  1  0  0  0  0
 20 21  2  0  0  0  0
 21 13  1  0  0  0  0
 21 22  1  0  0  0  0
 22 24  1  0  0  0  0
 25 12  1  0  0  0  0
 26 27  1  0  0  0  0
 27 16  2  0  0  0  0
 27 23  2  0  0  0  0
 28 35  1  0  0  0  0
 29 34  1  0  0  0  0
 31 33  1  0  0  0  0
 32 31  2  0  0  0  0
 34 33  2  0  0  0  0
 34 30  1  0  0  0  0
 35 32  1  0  0  0  0
 35 29  2  0  0  0  0
 37 36  1  0  0  0  0
 38 37  1  0  0  0  0
M  END
>  <MODEL>
5

>  <REMARK>
 VINA RESULT:      -6.7      3.708      6.505
  Name = 
  5 active torsions:
  status: ('A' for Active; 'I' for Inactive)
    1  A    between atoms: C_6  and  N_34
    2  A    between atoms: C_11  and  N_35
    3  A    between atoms: C_11  and  C_37
    4  A    between atoms: N_16  and  N_25
    5  A    between atoms: N_16  and  C_33
                            x       y       z     vdW  Elec       q    Type
                         _______ _______ _______ _____ _____    ______ ____

>  <TORSDO>
F 5

$$$$
=
 OpenBabel11062412583D

 38 43  0  0  1  0  0  0  0  0999 V2000
  184.3130  179.8590  144.1850 C   0  0  0  0  0  2  0  0  0  0  0  0
  185.4460  178.9270  143.6750 C   0  0  0  0  0  2  0  0  0  0  0  0
  185.3740  178.7130  142.1760 C   0  0  0  0  0  0  0  0  0  0  0  0
  182.9720  179.6430  143.5860 N   0  0  0  0  0  2  0  0  0  0  0  0
  183.0060  178.6860  142.4820 C   0  0  2  0  0  3  0  0  0  0  0  0
  184.0790  179.0480  141.5070 C   0  0  2  0  0  3  0  0  0  0  0  0
  181.7810  178.6890  141.6230 C   0  0  0  0  0  2  0  0  0  0  0  0
  182.3210  178.2020  140.2760 C   0  0  1  0  0  3  0  0  0  0  0  0
  186.3870  178.3140  141.4830 N   0  0  0  0  0  0  0  0  0  0  0  0
  183.7880  178.2720  140.3110 N   0  0  0  0  0  0  0  0  0  0  0  0
  187.4320  176.9210  147.7400 O   0  0  0  0  0  0  0  0  0  0  0  0
  187.5210  176.8900  145.3850 C   0  0  0  0  0  3  0  0  0  0  0  0
  190.6190  177.6500  143.1720 C   0  0  1  0  0  3  0  0  0  0  0  0
  187.6670  177.9860  142.0620 C   0  0  1  0  0  3  0  0  0  0  0  0
  189.3520  177.9890  146.8110 C   0  0  0  0  0  2  0  0  0  0  0  0
  191.2670  177.2090  140.6000 O   0  0  0  0  0  0  0  0  0  0  0  0
  191.5130  178.6220  145.5710 C   0  0  0  0  0  2  0  0  0  0  0  0
  191.6410  179.6340  144.4230 C   0  0  0  0  0  2  0  0  0  0  0  0
  191.2280  179.0520  143.0560 C   0  0  0  0  0  2  0  0  0  0  0  0
  190.1530  177.9830  145.5360 C   0  0  0  0  0  0  0  0  0  0  0  0
  189.6590  177.5420  144.3530 C   0  0  0  0  0  0  0  0  0  0  0  0
  188.2390  177.0590  144.2750 C   0  0  0  0  0  0  0  0  0  0  0  0
  189.9740  175.4740  141.7350 O   0  0  0  0  0  0  0  0  0  0  0  0
  187.5300  176.7880  142.9900 C   0  0  0  0  0  2  0  0  0  0  0  0
  188.0710  177.2220  146.7000 C   0  0  0  0  0  0  0  0  0  0  0  0
  188.6560  177.6770  140.9500 C   0  0  0  0  0  2  0  0  0  0  0  0
  190.1610  176.9580  141.5860 S   0  0  0  0  0  0  0  0  0  0  0  0
  184.2020  179.0680  139.1660 C   0  0  0  0  0  2  0  0  0  0  0  0
  186.3170  178.2710  138.0990 C   0  0  0  0  0  3  0  0  0  0  0  0
  188.3250  177.5250  137.0560 F   0  0  0  0  0  0  0  0  0  0  0  0
  184.8470  176.6170  136.4270 C   0  0  0  0  0  3  0  0  0  0  0  0
  184.2240  177.3930  137.3530 N   0  0  0  0  0  0  0  0  0  0  0  0
  186.2390  176.6470  136.3110 C   0  0  0  0  0  3  0  0  0  0  0  0
  186.9750  177.4800  137.1550 C   0  0  0  0  0  0  0  0  0  0  0  0
  184.9240  178.2070  138.1890 C   0  0  0  0  0  0  0  0  0  0  0  0
  181.9100  176.8260  140.0480 N   0  0  0  0  0  2  0  0  0  0  0  0
  181.4050  176.7610  138.7430 N   0  0  0  0  0  2  0  0  0  0  0  0
  180.5420  177.9160  138.5730 C   0  0  0  0  0  1  0  0  0  0  0  0
  2  1  1  0  0  0  0
  3  2  1  0  0  0  0
  4  1  1  0  0  0  0
  5  7  1  6  0  0  0
  5  4  1  0  0  0  0
  6  3  1  1  0  0  0
  6  5  1  0  0  0  0
  8 36  1  1  0  0  0
  8 10  1  0  0  0  0
  8  7  1  0  0  0  0
  9  3  2  0  0  0  0
 10  6  1  0  0  0  0
 12 25  1  0  0  0  0
 13 19  1  6  0  0  0
 13 21  1  0  0  0  0
 14  9  1  6  0  0  0
 14 24  1  0  0  0  0
 16 27  2  0  0  0  0
 18 17  1  0  0  0  0
 19 18  1  0  0  0  0
 20 17  1  0  0  0  0
 20 15  1  0  0  0  0
 21 20  2  0  0  0  0
 22 21  1  0  0  0  0
 22 12  2  0  0  0  0
 24 22  1  0  0  0  0
 25 15  1  0  0  0  0
 25 11  2  0  0  0  0
 26 27  1  0  0  0  0
 26 14  1  0  0  0  0
 27 23  2  0  0  0  0
 27 13  1  0  0  0  0
 28 10  1  0  0  0  0
 29 35  1  0  0  0  0
 30 34  1  0  0  0  0
 31 32  1  0  0  0  0
 32 35  2  0  0  0  0
 33 31  2  0  0  0  0
 33 34  1  0  0  0  0
 34 29  2  0  0  0  0
 35 28  1  0  0  0  0
 37 36  1  0  0  0  0
 38 37  1  0  0  0  0
M  END
>  <MODEL>
6

>  <REMARK>
 VINA RESULT:      -6.7      3.662      7.606
  Name = 
  5 active torsions:
  status: ('A' for Active; 'I' for Inactive)
    1  A    between atoms: C_6  and  N_34
    2  A    between atoms: C_11  and  N_35
    3  A    between atoms: C_11  and  C_37
    4  A    between atoms: N_16  and  N_25
    5  A    between atoms: N_16  and  C_33
                            x       y       z     vdW  Elec       q    Type
                         _______ _______ _______ _____ _____    ______ ____

>  <TORSDO>
F 5

$$$$
=
 OpenBabel11062412583D

 38 43  0  0  1  0  0  0  0  0999 V2000
  187.0130  178.3950  137.2870 C   0  0  0  0  0  2  0  0  0  0  0  0
  185.6060  177.9050  137.7280 C   0  0  0  0  0  2  0  0  0  0  0  0
  185.3060  178.2660  139.1700 C   0  0  0  0  0  0  0  0  0  0  0  0
  188.1040  178.2210  138.2780 N   0  0  0  0  0  2  0  0  0  0  0  0
  187.6070  177.7690  139.5760 C   0  0  2  0  0  3  0  0  0  0  0  0
  186.4740  178.6290  140.0320 C   0  0  2  0  0  3  0  0  0  0  0  0
  188.5860  177.9100  140.6980 C   0  0  0  0  0  2  0  0  0  0  0  0
  187.6730  178.0550  141.9180 C   0  0  1  0  0  3  0  0  0  0  0  0
  184.1040  178.3150  139.6360 N   0  0  0  0  0  0  0  0  0  0  0  0
  186.3080  178.3270  141.4460 N   0  0  0  0  0  0  0  0  0  0  0  0
  179.6960  173.8050  141.1870 O   0  0  0  0  0  0  0  0  0  0  0  0
  180.7030  175.7970  140.4330 C   0  0  0  0  0  3  0  0  0  0  0  0
  180.6420  177.1990  136.8130 C   0  0  1  0  0  3  0  0  0  0  0  0
  182.9340  177.9890  138.8570 C   0  0  1  0  0  3  0  0  0  0  0  0
  179.8850  173.9780  138.8160 C   0  0  0  0  0  2  0  0  0  0  0  0
  181.1610  179.5890  135.6960 O   0  0  0  0  0  0  0  0  0  0  0  0
  179.7780  174.6450  136.3350 C   0  0  0  0  0  2  0  0  0  0  0  0
  180.9640  175.0580  135.4520 C   0  0  0  0  0  2  0  0  0  0  0  0
  181.3850  176.5270  135.6540 C   0  0  0  0  0  2  0  0  0  0  0  0
  180.0450  175.0410  137.7610 C   0  0  0  0  0  0  0  0  0  0  0  0
  180.5260  176.2790  138.0250 C   0  0  0  0  0  0  0  0  0  0  0  0
  180.9560  176.6280  139.4210 C   0  0  0  0  0  0  0  0  0  0  0  0
  180.0700  179.5970  137.8820 O   0  0  0  0  0  0  0  0  0  0  0  0
  181.7200  177.8630  139.7650 C   0  0  0  0  0  2  0  0  0  0  0  0
  180.0540  174.5050  140.2060 C   0  0  0  0  0  0  0  0  0  0  0  0
  182.7030  179.0770  137.8220 C   0  0  0  0  0  2  0  0  0  0  0  0
  181.1090  178.9130  137.0370 S   0  0  0  0  0  0  0  0  0  0  0  0
  185.8690  179.5490  142.1020 C   0  0  0  0  0  2  0  0  0  0  0  0
  183.5540  179.0000  142.8720 C   0  0  0  0  0  3  0  0  0  0  0  0
  181.3470  178.5060  143.6200 F   0  0  0  0  0  0  0  0  0  0  0  0
  184.4520  178.9080  145.4940 C   0  0  0  0  0  3  0  0  0  0  0  0
  185.3140  179.1740  144.4780 N   0  0  0  0  0  0  0  0  0  0  0  0
  183.1010  178.6770  145.2240 C   0  0  0  0  0  3  0  0  0  0  0  0
  182.6540  178.7240  143.9020 C   0  0  0  0  0  0  0  0  0  0  0  0
  184.8990  179.2180  143.1830 C   0  0  0  0  0  0  0  0  0  0  0  0
  187.6800  176.8220  142.6880 N   0  0  0  0  0  2  0  0  0  0  0  0
  188.8120  176.8620  143.5120 N   0  0  0  0  0  2  0  0  0  0  0  0
  188.3670  177.3490  144.8050 C   0  0  0  0  0  1  0  0  0  0  0  0
  1  2  1  0  0  0  0
  1  4  1  0  0  0  0
  2  3  1  0  0  0  0
  3  9  2  0  0  0  0
  4  5  1  0  0  0  0
  5  6  1  0  0  0  0
  5  7  1  1  0  0  0
  6  3  1  6  0  0  0
  6 10  1  0  0  0  0
  7  8  1  0  0  0  0
  8 36  1  6  0  0  0
 10  8  1  0  0  0  0
 10 28  1  0  0  0  0
 13 19  1  6  0  0  0
 13 27  1  0  0  0  0
 13 21  1  0  0  0  0
 14  9  1  1  0  0  0
 14 24  1  0  0  0  0
 15 25  1  0  0  0  0
 16 27  2  0  0  0  0
 17 20  1  0  0  0  0
 18 19  1  0  0  0  0
 18 17  1  0  0  0  0
 20 21  2  0  0  0  0
 20 15  1  0  0  0  0
 21 22  1  0  0  0  0
 22 24  1  0  0  0  0
 22 12  2  0  0  0  0
 25 12  1  0  0  0  0
 25 11  2  0  0  0  0
 26 14  1  0  0  0  0
 27 26  1  0  0  0  0
 27 23  2  0  0  0  0
 28 35  1  0  0  0  0
 29 35  2  0  0  0  0
 29 34  1  0  0  0  0
 30 34  1  0  0  0  0
 32 31  2  0  0  0  0
 33 31  1  0  0  0  0
 34 33  2  0  0  0  0
 35 32  1  0  0  0  0
 36 37  1  0  0  0  0
 37 38  1  0  0  0  0
M  END
>  <MODEL>
7

>  <REMARK>
 VINA RESULT:      -6.3      3.903      5.871
  Name = 
  5 active torsions:
  status: ('A' for Active; 'I' for Inactive)
    1  A    between atoms: C_6  and  N_34
    2  A    between atoms: C_11  and  N_35
    3  A    between atoms: C_11  and  C_37
    4  A    between atoms: N_16  and  N_25
    5  A    between atoms: N_16  and  C_33
                            x       y       z     vdW  Elec       q    Type
                         _______ _______ _______ _____ _____    ______ ____

>  <TORSDO>
F 5

$$$$
=
 OpenBabel11062412583D

 38 43  0  0  1  0  0  0  0  0999 V2000
  192.0800  177.1930  139.7050 C   0  0  0  0  0  2  0  0  0  0  0  0
  190.7890  176.5730  139.1010 C   0  0  0  0  0  2  0  0  0  0  0  0
  189.5360  177.1470  139.7330 C   0  0  0  0  0  0  0  0  0  0  0  0
  192.0820  177.3920  141.1750 N   0  0  0  0  0  2  0  0  0  0  0  0
  190.7760  177.1200  141.7730 C   0  0  2  0  0  3  0  0  0  0  0  0
  189.7010  177.8540  141.0410 C   0  0  2  0  0  3  0  0  0  0  0  0
  190.6160  177.6300  143.1700 C   0  0  0  0  0  2  0  0  0  0  0  0
  189.1050  177.8530  143.2700 C   0  0  1  0  0  3  0  0  0  0  0  0
  188.3810  177.0870  139.1590 N   0  0  0  0  0  0  0  0  0  0  0  0
  188.5390  177.8030  141.9150 N   0  0  0  0  0  0  0  0  0  0  0  0
  182.5570  175.7560  136.6130 O   0  0  0  0  0  0  0  0  0  0  0  0
  184.8100  176.4030  136.8530 C   0  0  0  0  0  3  0  0  0  0  0  0
  187.9020  174.6670  135.2720 C   0  0  1  0  0  3  0  0  0  0  0  0
  188.1540  176.4330  137.8940 C   0  0  1  0  0  3  0  0  0  0  0  0
  184.1370  174.0970  135.9470 C   0  0  0  0  0  2  0  0  0  0  0  0
  190.4650  175.3670  134.8560 O   0  0  0  0  0  0  0  0  0  0  0  0
  186.0200  172.7200  134.8670 C   0  0  0  0  0  2  0  0  0  0  0  0
  187.2850  172.2020  135.5660 C   0  0  0  0  0  2  0  0  0  0  0  0
  188.3810  173.2770  135.7050 C   0  0  0  0  0  2  0  0  0  0  0  0
  185.5740  174.0040  135.5080 C   0  0  0  0  0  0  0  0  0  0  0  0
  186.4920  174.9650  135.7730 C   0  0  0  0  0  0  0  0  0  0  0  0
  186.0920  176.1770  136.5650 C   0  0  0  0  0  0  0  0  0  0  0  0
  188.7780  177.1150  134.5940 O   0  0  0  0  0  0  0  0  0  0  0  0
  187.0690  177.1620  137.1150 C   0  0  0  0  0  2  0  0  0  0  0  0
  183.7680  175.4540  136.4590 C   0  0  0  0  0  0  0  0  0  0  0  0
  189.4490  176.4170  137.0990 C   0  0  0  0  0  2  0  0  0  0  0  0
  189.1780  175.9150  135.4070 S   0  0  0  0  0  0  0  0  0  0  0  0
  187.7960  179.0390  141.7210 C   0  0  0  0  0  2  0  0  0  0  0  0
  185.7130  178.8270  140.3550 C   0  0  0  0  0  3  0  0  0  0  0  0
  183.7170  178.6490  139.0670 F   0  0  0  0  0  0  0  0  0  0  0  0
  184.2840  178.1750  142.6410 C   0  0  0  0  0  3  0  0  0  0  0  0
  185.6180  178.4240  142.7080 N   0  0  0  0  0  0  0  0  0  0  0  0
  183.6200  178.2450  141.4130 C   0  0  0  0  0  3  0  0  0  0  0  0
  184.3430  178.5730  140.2660 C   0  0  0  0  0  0  0  0  0  0  0  0
  186.3430  178.7380  141.6000 C   0  0  0  0  0  0  0  0  0  0  0  0
  188.5050  176.8070  144.0820 N   0  0  0  0  0  2  0  0  0  0  0  0
  188.9400  177.0120  145.3980 N   0  0  0  0  0  2  0  0  0  0  0  0
  187.8910  177.7570  146.0700 C   0  0  0  0  0  1  0  0  0  0  0  0
  1  4  1  0  0  0  0
  2  1  1  0  0  0  0
  2  3  1  0  0  0  0
  4  5  1  0  0  0  0
  5  7  1  1  0  0  0
  6  3  1  6  0  0  0
  6  5  1  0  0  0  0
  6 10  1  0  0  0  0
  7  8  1  0  0  0  0
  8 36  1  1  0  0  0
  9  3  2  0  0  0  0
 10  8  1  0  0  0  0
 13 27  1  0  0  0  0
 13 19  1  1  0  0  0
 13 21  1  0  0  0  0
 14  9  1  1  0  0  0
 15 25  1  0  0  0  0
 16 27  2  0  0  0  0
 17 20  1  0  0  0  0
 17 18  1  0  0  0  0
 18 19  1  0  0  0  0
 20 21  2  0  0  0  0
 20 15  1  0  0  0  0
 21 22  1  0  0  0  0
 22 12  2  0  0  0  0
 22 24  1  0  0  0  0
 23 27  2  0  0  0  0
 24 14  1  0  0  0  0
 25 11  2  0  0  0  0
 25 12  1  0  0  0  0
 26 14  1  0  0  0  0
 27 26  1  0  0  0  0
 28 10  1  0  0  0  0
 29 35  1  0  0  0  0
 30 34  1  0  0  0  0
 31 32  1  0  0  0  0
 33 31  2  0  0  0  0
 34 29  2  0  0  0  0
 34 33  1  0  0  0  0
 35 28  1  0  0  0  0
 35 32  2  0  0  0  0
 36 37  1  0  0  0  0
 37 38  1  0  0  0  0
M  END
>  <MODEL>
8

>  <REMARK>
 VINA RESULT:      -6.3      1.606      2.040
  Name = 
  5 active torsions:
  status: ('A' for Active; 'I' for Inactive)
    1  A    between atoms: C_6  and  N_34
    2  A    between atoms: C_11  and  N_35
    3  A    between atoms: C_11  and  C_37
    4  A    between atoms: N_16  and  N_25
    5  A    between atoms: N_16  and  C_33
                            x       y       z     vdW  Elec       q    Type
                         _______ _______ _______ _____ _____    ______ ____

>  <TORSDO>
F 5

$$$$
=
 OpenBabel11062412583D

 38 43  0  0  1  0  0  0  0  0999 V2000
  187.4610  178.1340  135.9740 C   0  0  0  0  0  2  0  0  0  0  0  0
  186.2690  177.6160  136.8250 C   0  0  0  0  0  2  0  0  0  0  0  0
  186.4540  177.9110  138.3010 C   0  0  0  0  0  0  0  0  0  0  0  0
  188.8130  177.9270  136.5520 N   0  0  0  0  0  2  0  0  0  0  0  0
  188.7590  177.4150  137.9200 C   0  0  2  0  0  3  0  0  0  0  0  0
  187.8400  178.2460  138.7540 C   0  0  2  0  0  3  0  0  0  0  0  0
  190.0490  177.5160  138.6700 C   0  0  0  0  0  2  0  0  0  0  0  0
  189.5800  177.6010  140.1240 C   0  0  1  0  0  3  0  0  0  0  0  0
  185.4670  177.9310  139.1330 N   0  0  0  0  0  0  0  0  0  0  0  0
  188.1380  177.8820  140.1310 N   0  0  0  0  0  0  0  0  0  0  0  0
  180.1690  180.3030  142.0430 O   0  0  0  0  0  0  0  0  0  0  0  0
  181.6910  179.5610  140.4040 C   0  0  0  0  0  3  0  0  0  0  0  0
  181.2240  176.5480  138.0010 C   0  0  1  0  0  3  0  0  0  0  0  0
  184.1070  177.6300  138.7600 C   0  0  1  0  0  3  0  0  0  0  0  0
  179.7270  178.1130  141.2060 C   0  0  0  0  0  2  0  0  0  0  0  0
  182.4030  175.7360  135.7250 O   0  0  0  0  0  0  0  0  0  0  0  0
  179.2220  176.0250  139.7950 C   0  0  0  0  0  2  0  0  0  0  0  0
  180.1600  174.8300  139.5690 C   0  0  0  0  0  2  0  0  0  0  0  0
  181.2260  175.0950  138.4870 C   0  0  0  0  0  2  0  0  0  0  0  0
  180.0320  177.2760  139.9920 C   0  0  0  0  0  0  0  0  0  0  0  0
  181.0650  177.5340  139.1540 C   0  0  0  0  0  0  0  0  0  0  0  0
  181.9840  178.6870  139.4420 C   0  0  0  0  0  0  0  0  0  0  0  0
  182.1050  178.1420  136.0270 O   0  0  0  0  0  0  0  0  0  0  0  0
  183.2790  178.9060  138.7310 C   0  0  0  0  0  2  0  0  0  0  0  0
  180.5020  179.3930  141.2410 C   0  0  0  0  0  0  0  0  0  0  0  0
  184.0960  176.9670  137.3930 C   0  0  0  0  0  2  0  0  0  0  0  0
  182.4430  176.8560  136.7270 S   0  0  0  0  0  0  0  0  0  0  0  0
  187.9430  179.0710  140.9460 C   0  0  0  0  0  2  0  0  0  0  0  0
  187.2380  177.8930  143.0370 C   0  0  0  0  0  3  0  0  0  0  0  0
  186.5470  176.7550  145.0110 F   0  0  0  0  0  0  0  0  0  0  0  0
  184.7550  179.1190  142.8870 C   0  0  0  0  0  3  0  0  0  0  0  0
  185.7090  179.3750  141.9530 N   0  0  0  0  0  0  0  0  0  0  0  0
  185.0210  178.2340  143.9340 C   0  0  0  0  0  3  0  0  0  0  0  0
  186.2720  177.6190  144.0050 C   0  0  0  0  0  0  0  0  0  0  0  0
  186.9370  178.7920  142.0090 C   0  0  0  0  0  0  0  0  0  0  0  0
  189.8280  176.3350  140.7960 N   0  0  0  0  0  2  0  0  0  0  0  0
  190.5360  176.6280  141.9690 N   0  0  0  0  0  2  0  0  0  0  0  0
  190.1790  175.6060  142.9360 C   0  0  0  0  0  1  0  0  0  0  0  0
  1  4  1  0  0  0  0
  1  2  1  0  0  0  0
  2  3  1  0  0  0  0
  3  9  2  0  0  0  0
  4  5  1  0  0  0  0
  5  7  1  1  0  0  0
  5  6  1  0  0  0  0
  6  3  1  6  0  0  0
  6 10  1  0  0  0  0
  7  8  1  0  0  0  0
  8 10  1  0  0  0  0
  8 36  1  6  0  0  0
 10 28  1  0  0  0  0
 12 25  1  0  0  0  0
 13 19  1  1  0  0  0
 13 21  1  0  0  0  0
 14  9  1  6  0  0  0
 15 25  1  0  0  0  0
 16 27  2  0  0  0  0
 17 20  1  0  0  0  0
 18 17  1  0  0  0  0
 19 18  1  0  0  0  0
 20 15  1  0  0  0  0
 21 22  1  0  0  0  0
 21 20  2  0  0  0  0
 22 12  2  0  0  0  0
 23 27  2  0  0  0  0
 24 14  1  0  0  0  0
 24 22  1  0  0  0  0
 25 11  2  0  0  0  0
 26 14  1  0  0  0  0
 27 26  1  0  0  0  0
 27 13  1  0  0  0  0
 28 35  1  0  0  0  0
 29 34  1  0  0  0  0
 31 33  1  0  0  0  0
 32 35  1  0  0  0  0
 32 31  2  0  0  0  0
 33 34  2  0  0  0  0
 34 30  1  0  0  0  0
 35 29  2  0  0  0  0
 36 37  1  0  0  0  0
 37 38  1  0  0  0  0
M  END
>  <MODEL>
9

>  <REMARK>
 VINA RESULT:      -6.2      3.433      6.404
  Name = 
  5 active torsions:
  status: ('A' for Active; 'I' for Inactive)
    1  A    between atoms: C_6  and  N_34
    2  A    between atoms: C_11  and  N_35
    3  A    between atoms: C_11  and  C_37
    4  A    between atoms: N_16  and  N_25
    5  A    between atoms: N_16  and  C_33
                            x       y       z     vdW  Elec       q    Type
                         _______ _______ _______ _____ _____    ______ ____

>  <TORSDO>
F 5

$$$$
