=
 OpenBabel11062415003D

 31 35  0  0  1  0  0  0  0  0999 V2000
  188.5950  176.1680  143.2830 C   0  0  0  0  0  2  0  0  0  0  0  0
  186.7800  178.2910  142.1270 C   0  0  0  0  0  0  0  0  0  0  0  0
  187.9630  178.0060  139.9980 C   0  0  0  0  0  3  0  0  0  0  0  0
  185.7640  179.0190  141.6330 C   0  0  0  0  0  3  0  0  0  0  0  0
  185.9400  178.4070  145.8160 N   0  0  0  0  0  2  0  0  0  0  0  0
  186.8630  177.4670  146.3770 C   0  0  0  0  0  3  0  0  0  0  0  0
  187.6270  176.9730  144.1050 C   0  0  1  0  0  3  0  0  0  0  0  0
  184.5300  179.3220  142.4330 C   0  0  0  0  0  2  0  0  0  0  0  0
  184.9000  179.5470  143.8940 C   0  0  0  0  0  2  0  0  0  0  0  0
  189.7470  176.9800  142.6770 C   0  0  1  0  0  3  0  0  0  0  0  0
  189.3290  178.3040  142.0380 C   0  0  0  0  0  2  0  0  0  0  0  0
  186.7370  177.8400  143.5580 C   0  0  2  0  0  3  0  0  0  0  0  0
  188.0180  178.1880  141.3240 C   0  0  0  0  0  0  0  0  0  0  0  0
  185.5590  178.2760  144.4140 C   0  0  1  0  0  3  0  0  0  0  0  0
  187.6450  176.7520  145.5690 C   0  0  0  0  0  3  0  0  0  0  0  0
  189.2440  176.0630  137.5520 C   0  0  1  0  0  3  0  0  0  0  0  0
  187.7240  177.9110  137.1140 N   0  0  0  0  0  0  0  0  0  0  0  0
  187.3640  178.8140  136.0360 C   0  0  0  0  0  1  0  0  0  0  0  0
  190.2240  175.2760  136.9410 O   0  0  0  0  0  1  0  0  0  0  0  0
  189.6010  176.4490  138.9870 C   0  0  2  0  0  3  0  0  0  0  0  0
  189.1800  177.8940  139.1260 C   0  0  1  0  0  3  0  0  0  0  0  0
  188.9510  178.4560  137.7200 C   0  0  1  0  0  3  0  0  0  0  0  0
  189.0360  177.3470  136.7680 C   0  0  1  0  0  3  0  0  0  0  0  0
  191.5810  177.5870  139.6930 O   0  0  0  0  0  1  0  0  0  0  0  0
  191.0890  176.3410  139.3030 C   0  0  0  0  0  2  0  0  0  0  0  0
  192.0070  177.7470  142.9370 O   0  0  0  0  0  1  0  0  0  0  0  0
  190.9580  177.1150  143.6070 C   0  0  1  0  0  3  0  0  0  0  0  0
  191.0890  177.3690  146.0730 C   0  0  0  0  0  3  0  0  0  0  0  0
  190.0160  179.0300  144.8660 F   0  0  0  0  0  0  0  0  0  0  0  0
  191.8520  176.0900  146.2130 C   0  0  0  0  0  1  0  0  0  0  0  0
  190.6650  177.8360  144.8940 C   0  0  0  0  0  0  0  0  0  0  0  0
  3 13  2  0  0  0  0
  4  2  2  0  0  0  0
  4  8  1  0  0  0  0
  5  6  1  0  0  0  0
  7  1  1  6  0  0  0
  7 15  1  0  0  0  0
  8  9  1  0  0  0  0
 10  1  1  0  0  0  0
 10 27  1  1  0  0  0
 11 10  1  0  0  0  0
 12  2  1  6  0  0  0
 12  7  1  0  0  0  0
 12 14  1  0  0  0  0
 13 11  1  0  0  0  0
 13  2  1  0  0  0  0
 14  9  1  6  0  0  0
 14  5  1  0  0  0  0
 15  6  2  0  0  0  0
 16 19  1  6  0  0  0
 16 20  1  0  0  0  0
 18 17  1  0  0  0  0
 20 21  1  0  0  0  0
 20 25  1  6  0  0  0
 21  3  1  1  0  0  0
 22 17  1  1  0  0  0
 22 21  1  0  0  0  0
 23 17  1  1  0  0  0
 23 16  1  0  0  0  0
 23 22  1  0  0  0  0
 25 24  1  0  0  0  0
 27 26  1  6  0  0  0
 27 31  1  0  0  0  0
 28 30  1  0  0  0  0
 29 31  1  0  0  0  0
 31 28  2  0  0  0  0
M  END
>  <MODEL>
1

>  <REMARK>
 VINA RESULT:      -9.2      0.000      0.000
  Name = 
  4 active torsions:
  status: ('A' for Active; 'I' for Inactive)
    1  A    between atoms: C_6  and  C_19
    2  A    between atoms: C_15  and  C_30
    3  A    between atoms: C_20  and  C_28
    4  A    between atoms: C_25  and  C_28
                            x       y       z     vdW  Elec       q    Type
                         _______ _______ _______ _____ _____    ______ ____

>  <TORSDO>
F 4

$$$$
=
 OpenBabel11062415003D

 31 35  0  0  1  0  0  0  0  0999 V2000
  187.2940  176.9040  142.6580 C   0  0  0  0  0  2  0  0  0  0  0  0
  185.4550  178.2800  144.6240 C   0  0  0  0  0  0  0  0  0  0  0  0
  183.8600  178.5650  142.7840 C   0  0  0  0  0  3  0  0  0  0  0  0
  184.6040  178.6140  145.6090 C   0  0  0  0  0  3  0  0  0  0  0  0
  188.6460  177.8770  146.6210 N   0  0  0  0  0  2  0  0  0  0  0  0
  189.5450  177.3090  145.6630 C   0  0  0  0  0  3  0  0  0  0  0  0
  187.6920  177.2540  144.0650 C   0  0  1  0  0  3  0  0  0  0  0  0
  184.9310  178.4020  147.0590 C   0  0  0  0  0  2  0  0  0  0  0  0
  186.4120  178.6650  147.3020 C   0  0  0  0  0  2  0  0  0  0  0  0
  187.0420  178.1120  141.7470 C   0  0  1  0  0  3  0  0  0  0  0  0
  186.2080  179.2270  142.3780 C   0  0  0  0  0  2  0  0  0  0  0  0
  186.8210  177.7660  144.9730 C   0  0  2  0  0  3  0  0  0  0  0  0
  185.1130  178.6800  143.2420 C   0  0  0  0  0  0  0  0  0  0  0  0
  187.2100  177.6950  146.4410 C   0  0  1  0  0  3  0  0  0  0  0  0
  189.0920  176.9740  144.4550 C   0  0  0  0  0  3  0  0  0  0  0  0
  182.3520  177.2640  140.0580 C   0  0  1  0  0  3  0  0  0  0  0  0
  181.1180  178.2530  141.9060 N   0  0  0  0  0  0  0  0  0  0  0  0
  179.8290  178.8640  142.1720 C   0  0  0  0  0  1  0  0  0  0  0  0
  182.2380  176.9520  138.7010 O   0  0  0  0  0  1  0  0  0  0  0  0
  183.7250  177.8270  140.4240 C   0  0  2  0  0  3  0  0  0  0  0  0
  183.4450  178.9520  141.3940 C   0  0  1  0  0  3  0  0  0  0  0  0
  181.9580  179.3000  141.2980 C   0  0  1  0  0  3  0  0  0  0  0  0
  181.3100  178.2960  140.4500 C   0  0  1  0  0  3  0  0  0  0  0  0
  184.7160  179.7530  139.4140 O   0  0  0  0  0  1  0  0  0  0  0  0
  184.5000  178.3860  139.2370 C   0  0  0  0  0  2  0  0  0  0  0  0
  189.0830  179.3620  141.9460 O   0  0  0  0  0  1  0  0  0  0  0  0
  188.3060  178.6280  141.0480 C   0  0  1  0  0  3  0  0  0  0  0  0
  189.0040  177.2220  139.1240 C   0  0  0  0  0  3  0  0  0  0  0  0
  190.1060  176.9280  141.1410 F   0  0  0  0  0  0  0  0  0  0  0  0
  188.0040  177.8730  138.2230 C   0  0  0  0  0  1  0  0  0  0  0  0
  189.1390  177.5470  140.4150 C   0  0  0  0  0  0  0  0  0  0  0  0
  2  4  2  0  0  0  0
  3 13  2  0  0  0  0
  4  8  1  0  0  0  0
  6  5  1  0  0  0  0
  7  1  1  1  0  0  0
  7 15  1  0  0  0  0
  7 12  1  0  0  0  0
  8  9  1  0  0  0  0
 10 27  1  1  0  0  0
 10 11  1  0  0  0  0
 10  1  1  0  0  0  0
 11 13  1  0  0  0  0
 12  2  1  1  0  0  0
 12 14  1  0  0  0  0
 13  2  1  0  0  0  0
 14  5  1  0  0  0  0
 14  9  1  1  0  0  0
 15  6  2  0  0  0  0
 16 19  1  6  0  0  0
 16 20  1  0  0  0  0
 16 23  1  0  0  0  0
 17 18  1  0  0  0  0
 20 25  1  6  0  0  0
 20 21  1  0  0  0  0
 21  3  1  1  0  0  0
 22 21  1  0  0  0  0
 22 17  1  1  0  0  0
 23 22  1  0  0  0  0
 23 17  1  1  0  0  0
 25 24  1  0  0  0  0
 27 26  1  1  0  0  0
 28 31  2  0  0  0  0
 30 28  1  0  0  0  0
 31 27  1  0  0  0  0
 31 29  1  0  0  0  0
M  END
>  <MODEL>
2

>  <REMARK>
 VINA RESULT:      -8.9      3.123      5.548
  Name = 
  4 active torsions:
  status: ('A' for Active; 'I' for Inactive)
    1  A    between atoms: C_6  and  C_19
    2  A    between atoms: C_15  and  C_30
    3  A    between atoms: C_20  and  C_28
    4  A    between atoms: C_25  and  C_28
                            x       y       z     vdW  Elec       q    Type
                         _______ _______ _______ _____ _____    ______ ____

>  <TORSDO>
F 4

$$$$
=
 OpenBabel11062415003D

 31 35  0  0  1  0  0  0  0  0999 V2000
  187.6300  176.7400  142.5290 C   0  0  0  0  0  2  0  0  0  0  0  0
  185.3200  178.4030  143.5520 C   0  0  0  0  0  0  0  0  0  0  0  0
  184.5610  178.6010  141.2280 C   0  0  0  0  0  3  0  0  0  0  0  0
  184.1960  178.8790  144.1140 C   0  0  0  0  0  3  0  0  0  0  0  0
  187.4820  178.0100  146.6340 N   0  0  0  0  0  2  0  0  0  0  0  0
  188.6190  177.3020  146.1300 C   0  0  0  0  0  3  0  0  0  0  0  0
  187.5020  177.2000  143.9550 C   0  0  1  0  0  3  0  0  0  0  0  0
  183.9360  178.7880  145.5890 C   0  0  0  0  0  2  0  0  0  0  0  0
  185.2360  178.9870  146.3590 C   0  0  0  0  0  2  0  0  0  0  0  0
  187.8460  177.8680  141.5120 C   0  0  1  0  0  3  0  0  0  0  0  0
  186.9400  179.0840  141.7020 C   0  0  0  0  0  2  0  0  0  0  0  0
  186.4050  177.8470  144.4270 C   0  0  2  0  0  3  0  0  0  0  0  0
  185.5580  178.6870  142.1200 C   0  0  0  0  0  0  0  0  0  0  0  0
  186.2080  177.8940  145.9340 C   0  0  1  0  0  3  0  0  0  0  0  0
  188.6230  176.8790  144.8660 C   0  0  0  0  0  3  0  0  0  0  0  0
  183.4790  177.4990  138.2270 C   0  0  1  0  0  3  0  0  0  0  0  0
  182.2760  179.1560  139.5380 N   0  0  0  0  0  0  0  0  0  0  0  0
  181.3130  180.2260  139.3520 C   0  0  0  0  0  1  0  0  0  0  0  0
  183.6310  177.0300  136.9190 O   0  0  0  0  0  1  0  0  0  0  0  0
  184.8030  177.5820  138.9840 C   0  0  2  0  0  3  0  0  0  0  0  0
  184.7330  178.8770  139.7620 C   0  0  1  0  0  3  0  0  0  0  0  0
  183.5920  179.7160  139.1820 C   0  0  1  0  0  3  0  0  0  0  0  0
  182.8630  178.8870  138.2190 C   0  0  1  0  0  3  0  0  0  0  0  0
  186.7170  178.8210  138.2670 O   0  0  0  0  0  1  0  0  0  0  0  0
  186.0310  177.6210  138.0810 C   0  0  0  0  0  2  0  0  0  0  0  0
  189.8000  178.9120  142.4390 O   0  0  0  0  0  1  0  0  0  0  0  0
  189.3200  178.2400  141.3140 C   0  0  1  0  0  3  0  0  0  0  0  0
  190.5140  176.7360  139.7400 C   0  0  0  0  0  3  0  0  0  0  0  0
  190.7850  176.3670  142.0110 F   0  0  0  0  0  0  0  0  0  0  0  0
  189.9760  177.4700  138.5540 C   0  0  0  0  0  1  0  0  0  0  0  0
  190.2100  177.0690  140.9990 C   0  0  0  0  0  0  0  0  0  0  0  0
  2  4  2  0  0  0  0
  3 13  2  0  0  0  0
  4  8  1  0  0  0  0
  6  5  1  0  0  0  0
  7  1  1  1  0  0  0
  7 12  1  0  0  0  0
  7 15  1  0  0  0  0
  8  9  1  0  0  0  0
 10 27  1  1  0  0  0
 10 11  1  0  0  0  0
 10  1  1  0  0  0  0
 11 13  1  0  0  0  0
 12  2  1  6  0  0  0
 12 14  1  0  0  0  0
 13  2  1  0  0  0  0
 14  9  1  6  0  0  0
 14  5  1  0  0  0  0
 15  6  2  0  0  0  0
 16 19  1  6  0  0  0
 16 20  1  0  0  0  0
 18 17  1  0  0  0  0
 20 25  1  6  0  0  0
 20 21  1  0  0  0  0
 21  3  1  1  0  0  0
 22 17  1  1  0  0  0
 22 21  1  0  0  0  0
 23 16  1  0  0  0  0
 23 22  1  0  0  0  0
 23 17  1  1  0  0  0
 25 24  1  0  0  0  0
 27 26  1  1  0  0  0
 28 31  2  0  0  0  0
 30 28  1  0  0  0  0
 31 27  1  0  0  0  0
 31 29  1  0  0  0  0
M  END
>  <MODEL>
3

>  <REMARK>
 VINA RESULT:      -8.7      2.865      4.302
  Name = 
  4 active torsions:
  status: ('A' for Active; 'I' for Inactive)
    1  A    between atoms: C_6  and  C_19
    2  A    between atoms: C_15  and  C_30
    3  A    between atoms: C_20  and  C_28
    4  A    between atoms: C_25  and  C_28
                            x       y       z     vdW  Elec       q    Type
                         _______ _______ _______ _____ _____    ______ ____

>  <TORSDO>
F 4

$$$$
=
 OpenBabel11062415003D

 31 35  0  0  1  0  0  0  0  0999 V2000
  188.4040  176.7940  143.0430 C   0  0  0  0  0  2  0  0  0  0  0  0
  185.7870  178.2800  142.7480 C   0  0  0  0  0  0  0  0  0  0  0  0
  186.1360  178.2160  140.3220 C   0  0  0  0  0  3  0  0  0  0  0  0
  184.5050  178.6770  142.7010 C   0  0  0  0  0  3  0  0  0  0  0  0
  186.3640  178.3580  146.4890 N   0  0  0  0  0  2  0  0  0  0  0  0
  187.6460  177.7360  146.6210 C   0  0  0  0  0  3  0  0  0  0  0  0
  187.6260  177.3480  144.2050 C   0  0  1  0  0  3  0  0  0  0  0  0
  183.6190  178.6750  143.9130 C   0  0  0  0  0  2  0  0  0  0  0  0
  184.4230  179.0690  145.1460 C   0  0  0  0  0  2  0  0  0  0  0  0
  188.9850  177.8560  142.1000 C   0  0  1  0  0  3  0  0  0  0  0  0
  188.0190  178.9810  141.7300 C   0  0  0  0  0  2  0  0  0  0  0  0
  186.3970  177.9110  144.0690 C   0  0  2  0  0  3  0  0  0  0  0  0
  186.6220  178.4750  141.5430 C   0  0  0  0  0  0  0  0  0  0  0  0
  185.5460  178.0550  145.3200 C   0  0  1  0  0  3  0  0  0  0  0  0
  188.2390  177.2180  145.5450 C   0  0  0  0  0  3  0  0  0  0  0  0
  187.4630  176.3990  137.8040 C   0  0  1  0  0  3  0  0  0  0  0  0
  185.1620  177.1870  137.7960 N   0  0  0  0  0  0  0  0  0  0  0  0
  184.0990  177.4850  136.8530 C   0  0  0  0  0  1  0  0  0  0  0  0
  188.4840  175.9750  136.9490 O   0  0  0  0  0  1  0  0  0  0  0  0
  187.9680  177.3030  138.9290 C   0  0  2  0  0  3  0  0  0  0  0  0
  186.9280  178.3920  139.0590 C   0  0  1  0  0  3  0  0  0  0  0  0
  186.0520  178.3610  137.8040 C   0  0  1  0  0  3  0  0  0  0  0  0
  186.4130  177.1730  137.0260 C   0  0  1  0  0  3  0  0  0  0  0  0
  189.1450  179.3020  138.3520 O   0  0  0  0  0  1  0  0  0  0  0  0
  189.3190  177.9490  138.6420 C   0  0  0  0  0  2  0  0  0  0  0  0
  190.2540  179.1610  143.6660 O   0  0  0  0  0  1  0  0  0  0  0  0
  190.3670  178.3640  142.5260 C   0  0  1  0  0  3  0  0  0  0  0  0
  192.2450  176.9020  141.8170 C   0  0  0  0  0  3  0  0  0  0  0  0
  191.4620  176.6880  143.9870 F   0  0  0  0  0  0  0  0  0  0  0  0
  192.2680  177.5110  140.4520 C   0  0  0  0  0  1  0  0  0  0  0  0
  191.3750  177.2710  142.7630 C   0  0  0  0  0  0  0  0  0  0  0  0
  3 13  2  0  0  0  0
  4  2  2  0  0  0  0
  4  8  1  0  0  0  0
  5  6  1  0  0  0  0
  7  1  1  1  0  0  0
  7 15  1  0  0  0  0
  8  9  1  0  0  0  0
 10 27  1  1  0  0  0
 10  1  1  0  0  0  0
 11 10  1  0  0  0  0
 12  2  1  6  0  0  0
 12  7  1  0  0  0  0
 12 14  1  0  0  0  0
 13 11  1  0  0  0  0
 13  2  1  0  0  0  0
 14  9  1  6  0  0  0
 14  5  1  0  0  0  0
 15  6  2  0  0  0  0
 16 19  1  6  0  0  0
 16 20  1  0  0  0  0
 18 17  1  0  0  0  0
 20 25  1  6  0  0  0
 20 21  1  0  0  0  0
 21  3  1  1  0  0  0
 22 17  1  1  0  0  0
 22 21  1  0  0  0  0
 23 17  1  1  0  0  0
 23 16  1  0  0  0  0
 23 22  1  0  0  0  0
 24 25  1  0  0  0  0
 27 31  1  0  0  0  0
 27 26  1  1  0  0  0
 28 31  2  0  0  0  0
 30 28  1  0  0  0  0
 31 29  1  0  0  0  0
M  END
>  <MODEL>
4

>  <REMARK>
 VINA RESULT:      -8.2      1.760      2.334
  Name = 
  4 active torsions:
  status: ('A' for Active; 'I' for Inactive)
    1  A    between atoms: C_6  and  C_19
    2  A    between atoms: C_15  and  C_30
    3  A    between atoms: C_20  and  C_28
    4  A    between atoms: C_25  and  C_28
                            x       y       z     vdW  Elec       q    Type
                         _______ _______ _______ _____ _____    ______ ____

>  <TORSDO>
F 4

$$$$
=
 OpenBabel11062415003D

 31 35  0  0  1  0  0  0  0  0999 V2000
  190.3190  178.2810  143.2670 C   0  0  0  0  0  2  0  0  0  0  0  0
  188.1360  177.8080  141.2290 C   0  0  0  0  0  0  0  0  0  0  0  0
  186.5210  177.9610  143.0680 C   0  0  0  0  0  3  0  0  0  0  0  0
  187.2330  177.8770  140.2360 C   0  0  0  0  0  3  0  0  0  0  0  0
  191.2860  177.2110  139.2170 N   0  0  0  0  0  2  0  0  0  0  0  0
  192.3170  177.3450  140.2010 C   0  0  0  0  0  3  0  0  0  0  0  0
  190.5850  177.9260  141.8300 C   0  0  1  0  0  3  0  0  0  0  0  0
  187.6320  178.0750  138.8020 C   0  0  0  0  0  2  0  0  0  0  0  0
  188.9270  177.3240  138.5140 C   0  0  0  0  0  2  0  0  0  0  0  0
  189.6430  177.1710  144.0830 C   0  0  1  0  0  3  0  0  0  0  0  0
  188.4760  176.4800  143.3800 C   0  0  0  0  0  2  0  0  0  0  0  0
  189.6000  177.8300  140.8990 C   0  0  2  0  0  3  0  0  0  0  0  0
  187.6570  177.4460  142.5810 C   0  0  0  0  0  0  0  0  0  0  0  0
  190.0060  177.8760  139.4350 C   0  0  1  0  0  3  0  0  0  0  0  0
  191.9970  177.7210  141.4400 C   0  0  0  0  0  3  0  0  0  0  0  0
  185.6630  179.4780  145.9590 C   0  0  1  0  0  3  0  0  0  0  0  0
  184.1410  179.2680  144.0740 N   0  0  0  0  0  0  0  0  0  0  0  0
  182.7150  179.2630  143.8010 C   0  0  0  0  0  1  0  0  0  0  0  0
  185.6800  179.6690  147.3440 O   0  0  0  0  0  1  0  0  0  0  0  0
  186.6890  178.4470  145.4900 C   0  0  2  0  0  3  0  0  0  0  0  0
  185.9780  177.6360  144.4300 C   0  0  1  0  0  3  0  0  0  0  0  0
  184.4780  177.9140  144.5490 C   0  0  1  0  0  3  0  0  0  0  0  0
  184.2920  179.0030  145.5120 C   0  0  1  0  0  3  0  0  0  0  0  0
  188.4090  177.9170  147.0630 O   0  0  0  0  0  1  0  0  0  0  0  0
  187.1640  177.5030  146.5890 C   0  0  0  0  0  2  0  0  0  0  0  0
  191.2460  175.4190  143.7260 O   0  0  0  0  0  1  0  0  0  0  0  0
  190.6330  176.1870  144.7180 C   0  0  1  0  0  3  0  0  0  0  0  0
  191.9880  176.3690  146.7910 C   0  0  0  0  0  3  0  0  0  0  0  0
  192.3900  177.8940  145.0940 F   0  0  0  0  0  0  0  0  0  0  0  0
  191.3030  175.1880  147.4000 C   0  0  0  0  0  1  0  0  0  0  0  0
  191.6810  176.8410  145.5780 C   0  0  0  0  0  0  0  0  0  0  0  0
  1 10  1  0  0  0  0
  2 13  1  0  0  0  0
  4  2  2  0  0  0  0
  5 14  1  0  0  0  0
  5  6  1  0  0  0  0
  6 15  2  0  0  0  0
  7 15  1  6  0  0  0
  7  1  1  0  0  0  0
  8  4  1  0  0  0  0
  9  8  1  0  0  0  0
 10 27  1  6  0  0  0
 11 10  1  0  0  0  0
 12  2  1  1  0  0  0
 12  7  1  0  0  0  0
 13  3  2  0  0  0  0
 13 11  1  0  0  0  0
 14  9  1  6  0  0  0
 14 12  1  0  0  0  0
 16 19  1  1  0  0  0
 18 17  1  0  0  0  0
 20 16  1  0  0  0  0
 20 25  1  1  0  0  0
 21  3  1  6  0  0  0
 21 22  1  0  0  0  0
 21 20  1  0  0  0  0
 22 17  1  6  0  0  0
 22 23  1  0  0  0  0
 23 17  1  6  0  0  0
 23 16  1  0  0  0  0
 25 24  1  0  0  0  0
 27 26  1  6  0  0  0
 27 31  1  0  0  0  0
 28 30  1  0  0  0  0
 29 31  1  0  0  0  0
 31 28  2  0  0  0  0
M  END
>  <MODEL>
5

>  <REMARK>
 VINA RESULT:      -7.8      2.382      6.151
  Name = 
  4 active torsions:
  status: ('A' for Active; 'I' for Inactive)
    1  A    between atoms: C_6  and  C_19
    2  A    between atoms: C_15  and  C_30
    3  A    between atoms: C_20  and  C_28
    4  A    between atoms: C_25  and  C_28
                            x       y       z     vdW  Elec       q    Type
                         _______ _______ _______ _____ _____    ______ ____

>  <TORSDO>
F 4

$$$$
=
 OpenBabel11062415003D

 31 35  0  0  1  0  0  0  0  0999 V2000
  188.0060  176.3200  137.9680 C   0  0  0  0  0  2  0  0  0  0  0  0
  190.8870  176.6940  138.8070 C   0  0  0  0  0  0  0  0  0  0  0  0
  190.0600  177.2710  141.0420 C   0  0  0  0  0  3  0  0  0  0  0  0
  192.1770  176.5610  139.1590 C   0  0  0  0  0  3  0  0  0  0  0  0
  191.1730  176.2200  135.0620 N   0  0  0  0  0  2  0  0  0  0  0  0
  189.8040  176.1340  134.6520 C   0  0  0  0  0  3  0  0  0  0  0  0
  189.1640  176.2750  137.0100 C   0  0  1  0  0  3  0  0  0  0  0  0
  193.2020  175.9640  138.2380 C   0  0  0  0  0  2  0  0  0  0  0  0
  192.9130  176.3780  136.8000 C   0  0  0  0  0  2  0  0  0  0  0  0
  187.7590  177.6930  138.6060 C   0  0  1  0  0  3  0  0  0  0  0  0
  189.0170  178.4030  139.1060 C   0  0  0  0  0  2  0  0  0  0  0  0
  190.4600  176.3290  137.4150 C   0  0  2  0  0  3  0  0  0  0  0  0
  189.9910  177.4430  139.7150 C   0  0  0  0  0  0  0  0  0  0  0  0
  191.5260  175.8690  136.4330 C   0  0  1  0  0  3  0  0  0  0  0  0
  188.8410  176.1210  135.5740 C   0  0  0  0  0  3  0  0  0  0  0  0
  188.3160  176.7290  143.8810 C   0  0  1  0  0  3  0  0  0  0  0  0
  190.6810  177.2970  143.8700 N   0  0  0  0  0  0  0  0  0  0  0  0
  191.6810  177.8820  144.7450 C   0  0  0  0  0  1  0  0  0  0  0  0
  187.1820  176.7570  144.6970 O   0  0  0  0  0  1  0  0  0  0  0  0
  188.0190  177.1280  142.4360 C   0  0  2  0  0  3  0  0  0  0  0  0
  189.1820  177.9990  142.0190 C   0  0  1  0  0  3  0  0  0  0  0  0
  189.9320  178.4230  143.2840 C   0  0  1  0  0  3  0  0  0  0  0  0
  189.3710  177.6810  144.4160 C   0  0  1  0  0  3  0  0  0  0  0  0
  186.9960  179.1280  141.6190 O   0  0  0  0  0  1  0  0  0  0  0  0
  186.7280  177.9220  142.2680 C   0  0  0  0  0  2  0  0  0  0  0  0
  187.5970  179.2850  136.8150 O   0  0  0  0  0  1  0  0  0  0  0  0
  186.8460  178.6010  137.7730 C   0  0  1  0  0  3  0  0  0  0  0  0
  184.5190  177.7390  137.7070 C   0  0  0  0  0  3  0  0  0  0  0  0
  185.8500  177.4140  135.8380 F   0  0  0  0  0  0  0  0  0  0  0  0
  184.2370  178.2530  139.0820 C   0  0  0  0  0  1  0  0  0  0  0  0
  185.7060  177.8780  137.1070 C   0  0  0  0  0  0  0  0  0  0  0  0
  1 10  1  0  0  0  0
  2  4  2  0  0  0  0
  2 13  1  0  0  0  0
  5 14  1  0  0  0  0
  6  5  1  0  0  0  0
  6 15  2  0  0  0  0
  7 15  1  1  0  0  0
  7 12  1  0  0  0  0
  7  1  1  0  0  0  0
  8  4  1  0  0  0  0
  9  8  1  0  0  0  0
 10 27  1  6  0  0  0
 10 11  1  0  0  0  0
 11 13  1  0  0  0  0
 12  2  1  1  0  0  0
 13  3  2  0  0  0  0
 14  9  1  1  0  0  0
 14 12  1  0  0  0  0
 16 23  1  0  0  0  0
 16 19  1  1  0  0  0
 17 18  1  0  0  0  0
 20 25  1  1  0  0  0
 20 16  1  0  0  0  0
 21  3  1  6  0  0  0
 21 20  1  0  0  0  0
 21 22  1  0  0  0  0
 22 17  1  6  0  0  0
 22 23  1  0  0  0  0
 23 17  1  6  0  0  0
 24 25  1  0  0  0  0
 27 26  1  6  0  0  0
 28 30  1  0  0  0  0
 29 31  1  0  0  0  0
 31 28  2  0  0  0  0
 31 27  1  0  0  0  0
M  END
>  <MODEL>
6

>  <REMARK>
 VINA RESULT:      -7.5      3.140      7.939
  Name = 
  4 active torsions:
  status: ('A' for Active; 'I' for Inactive)
    1  A    between atoms: C_6  and  C_19
    2  A    between atoms: C_15  and  C_30
    3  A    between atoms: C_20  and  C_28
    4  A    between atoms: C_25  and  C_28
                            x       y       z     vdW  Elec       q    Type
                         _______ _______ _______ _____ _____    ______ ____

>  <TORSDO>
F 4

$$$$
=
 OpenBabel11062415003D

 31 35  0  0  1  0  0  0  0  0999 V2000
  188.1770  178.6510  144.5590 C   0  0  0  0  0  2  0  0  0  0  0  0
  190.3650  176.6070  144.1380 C   0  0  0  0  0  0  0  0  0  0  0  0
  189.9380  176.7890  141.7300 C   0  0  0  0  0  3  0  0  0  0  0  0
  191.5180  175.9250  144.0310 C   0  0  0  0  0  3  0  0  0  0  0  0
  189.9450  176.6040  147.9010 N   0  0  0  0  0  2  0  0  0  0  0  0
  188.8480  177.5030  148.0940 C   0  0  0  0  0  3  0  0  0  0  0  0
  188.8540  177.9140  145.6810 C   0  0  1  0  0  3  0  0  0  0  0  0
  192.4310  175.7030  145.2020 C   0  0  0  0  0  2  0  0  0  0  0  0
  191.6100  175.4860  146.4680 C   0  0  0  0  0  2  0  0  0  0  0  0
  187.3280  177.7670  143.6370 C   0  0  1  0  0  3  0  0  0  0  0  0
  187.9910  176.4560  143.2180 C   0  0  0  0  0  2  0  0  0  0  0  0
  189.9130  177.0850  145.4870 C   0  0  2  0  0  3  0  0  0  0  0  0
  189.4570  176.6290  142.9700 C   0  0  0  0  0  0  0  0  0  0  0  0
  190.7610  176.7290  146.6980 C   0  0  1  0  0  3  0  0  0  0  0  0
  188.3450  178.1610  147.0490 C   0  0  0  0  0  3  0  0  0  0  0  0
  189.4310  178.6330  138.9480 C   0  0  1  0  0  3  0  0  0  0  0  0
  191.1110  176.8790  139.0840 N   0  0  0  0  0  0  0  0  0  0  0  0
  191.8570  175.9940  138.2090 C   0  0  0  0  0  1  0  0  0  0  0  0
  188.6650  179.3530  138.0280 O   0  0  0  0  0  1  0  0  0  0  0  0
  188.6410  178.2350  140.1950 C   0  0  2  0  0  3  0  0  0  0  0  0
  189.0740  176.8200  140.5030 C   0  0  1  0  0  3  0  0  0  0  0  0
  189.7850  176.2630  139.2670 C   0  0  1  0  0  3  0  0  0  0  0  0
  189.9580  177.3590  138.3100 C   0  0  1  0  0  3  0  0  0  0  0  0
  186.5720  179.3100  140.7190 O   0  0  0  0  0  1  0  0  0  0  0  0
  187.1290  178.2530  140.0000 C   0  0  0  0  0  2  0  0  0  0  0  0
  185.8730  176.9480  145.3630 O   0  0  0  0  0  1  0  0  0  0  0  0
  185.8840  177.5850  144.1210 C   0  0  1  0  0  3  0  0  0  0  0  0
  184.1370  179.1520  143.3090 C   0  0  0  0  0  3  0  0  0  0  0  0
  185.3060  179.7270  145.2260 F   0  0  0  0  0  0  0  0  0  0  0  0
  183.7930  178.2530  142.1650 C   0  0  0  0  0  1  0  0  0  0  0  0
  185.0970  178.8660  144.1960 C   0  0  0  0  0  0  0  0  0  0  0  0
  3 13  2  0  0  0  0
  4  2  2  0  0  0  0
  4  8  1  0  0  0  0
  5  6  1  0  0  0  0
  7  1  1  1  0  0  0
  7 15  1  0  0  0  0
  8  9  1  0  0  0  0
 10 27  1  1  0  0  0
 10  1  1  0  0  0  0
 11 10  1  0  0  0  0
 12  2  1  6  0  0  0
 12  7  1  0  0  0  0
 12 14  1  0  0  0  0
 13 11  1  0  0  0  0
 13  2  1  0  0  0  0
 14  9  1  6  0  0  0
 14  5  1  0  0  0  0
 15  6  2  0  0  0  0
 16 19  1  6  0  0  0
 16 20  1  0  0  0  0
 18 17  1  0  0  0  0
 20 25  1  6  0  0  0
 20 21  1  0  0  0  0
 21  3  1  1  0  0  0
 22 17  1  1  0  0  0
 22 21  1  0  0  0  0
 23 16  1  0  0  0  0
 23 17  1  1  0  0  0
 23 22  1  0  0  0  0
 25 24  1  0  0  0  0
 27 31  1  0  0  0  0
 27 26  1  1  0  0  0
 28 31  2  0  0  0  0
 30 28  1  0  0  0  0
 31 29  1  0  0  0  0
M  END
>  <MODEL>
7

>  <REMARK>
 VINA RESULT:      -7.3      2.463      4.964
  Name = 
  4 active torsions:
  status: ('A' for Active; 'I' for Inactive)
    1  A    between atoms: C_6  and  C_19
    2  A    between atoms: C_15  and  C_30
    3  A    between atoms: C_20  and  C_28
    4  A    between atoms: C_25  and  C_28
                            x       y       z     vdW  Elec       q    Type
                         _______ _______ _______ _____ _____    ______ ____

>  <TORSDO>
F 4

$$$$
=
 OpenBabel11062415003D

 31 35  0  0  1  0  0  0  0  0999 V2000
  184.2570  177.8780  143.0850 C   0  0  0  0  0  2  0  0  0  0  0  0
  184.3300  178.7870  140.2020 C   0  0  0  0  0  0  0  0  0  0  0  0
  186.7520  178.4070  140.2440 C   0  0  0  0  0  3  0  0  0  0  0  0
  184.2270  178.9270  138.8690 C   0  0  0  0  0  3  0  0  0  0  0  0
  180.7670  179.5590  141.2210 N   0  0  0  0  0  2  0  0  0  0  0  0
  180.7570  179.2140  142.6100 C   0  0  0  0  0  3  0  0  0  0  0  0
  183.0700  178.4540  142.3640 C   0  0  1  0  0  3  0  0  0  0  0  0
  182.9020  178.9520  138.1650 C   0  0  0  0  0  2  0  0  0  0  0  0
  181.8710  179.6770  139.0210 C   0  0  0  0  0  2  0  0  0  0  0  0
  185.4090  178.8670  143.3090 C   0  0  1  0  0  3  0  0  0  0  0  0
  185.7650  179.7200  142.0930 C   0  0  0  0  0  2  0  0  0  0  0  0
  183.0840  178.7500  141.0380 C   0  0  2  0  0  3  0  0  0  0  0  0
  185.6660  178.9410  140.8180 C   0  0  0  0  0  0  0  0  0  0  0  0
  181.7450  178.9290  140.3410 C   0  0  1  0  0  3  0  0  0  0  0  0
  181.8360  178.6530  143.1560 C   0  0  0  0  0  3  0  0  0  0  0  0
  189.4500  176.5050  140.9520 C   0  0  1  0  0  3  0  0  0  0  0  0
  189.0610  177.4840  138.7600 N   0  0  0  0  0  0  0  0  0  0  0  0
  189.8060  177.8790  137.5780 C   0  0  0  0  0  1  0  0  0  0  0  0
  190.4680  176.0030  141.7680 O   0  0  0  0  0  1  0  0  0  0  0  0
  188.4380  177.3530  141.7210 C   0  0  2  0  0  3  0  0  0  0  0  0
  188.1350  178.5260  140.8160 C   0  0  1  0  0  3  0  0  0  0  0  0
  189.2170  178.5790  139.7340 C   0  0  1  0  0  3  0  0  0  0  0  0
  190.0380  177.3710  139.8520 C   0  0  1  0  0  3  0  0  0  0  0  0
  188.5490  177.0490  144.0890 O   0  0  0  0  0  1  0  0  0  0  0  0
  188.9610  177.8850  143.0510 C   0  0  0  0  0  2  0  0  0  0  0  0
  184.5900  180.8730  144.3440 O   0  0  0  0  0  1  0  0  0  0  0  0
  185.2730  179.6830  144.6000 C   0  0  1  0  0  3  0  0  0  0  0  0
  185.3130  178.3070  146.6660 C   0  0  0  0  0  3  0  0  0  0  0  0
  183.2510  178.9710  145.8430 F   0  0  0  0  0  0  0  0  0  0  0  0
  186.8070  178.2520  146.6590 C   0  0  0  0  0  1  0  0  0  0  0  0
  184.6050  178.9420  145.7260 C   0  0  0  0  0  0  0  0  0  0  0  0
  1 10  1  0  0  0  0
  2 13  1  0  0  0  0
  3 13  2  0  0  0  0
  4  2  2  0  0  0  0
  5  6  1  0  0  0  0
  6 15  2  0  0  0  0
  7  1  1  6  0  0  0
  7 15  1  0  0  0  0
  8  4  1  0  0  0  0
  8  9  1  0  0  0  0
 10 27  1  1  0  0  0
 11 10  1  0  0  0  0
 12  2  1  6  0  0  0
 12  7  1  0  0  0  0
 13 11  1  0  0  0  0
 14  9  1  6  0  0  0
 14 12  1  0  0  0  0
 14  5  1  0  0  0  0
 16 20  1  0  0  0  0
 16 19  1  1  0  0  0
 18 17  1  0  0  0  0
 20 25  1  1  0  0  0
 21  3  1  6  0  0  0
 21 20  1  0  0  0  0
 22 17  1  6  0  0  0
 22 23  1  0  0  0  0
 22 21  1  0  0  0  0
 23 17  1  6  0  0  0
 23 16  1  0  0  0  0
 25 24  1  0  0  0  0
 27 26  1  6  0  0  0
 27 31  1  0  0  0  0
 30 28  1  0  0  0  0
 31 29  1  0  0  0  0
 31 28  2  0  0  0  0
M  END
>  <MODEL>
8

>  <REMARK>
 VINA RESULT:      -7.1      3.147      4.922
  Name = 
  4 active torsions:
  status: ('A' for Active; 'I' for Inactive)
    1  A    between atoms: C_6  and  C_19
    2  A    between atoms: C_15  and  C_30
    3  A    between atoms: C_20  and  C_28
    4  A    between atoms: C_25  and  C_28
                            x       y       z     vdW  Elec       q    Type
                         _______ _______ _______ _____ _____    ______ ____

>  <TORSDO>
F 4

$$$$
=
 OpenBabel11062415003D

 31 35  0  0  1  0  0  0  0  0999 V2000
  184.9140  177.5920  142.8960 C   0  0  0  0  0  2  0  0  0  0  0  0
  186.2370  178.2520  140.2580 C   0  0  0  0  0  0  0  0  0  0  0  0
  188.3960  177.8580  141.3530 C   0  0  0  0  0  3  0  0  0  0  0  0
  186.7140  178.2790  139.0020 C   0  0  0  0  0  3  0  0  0  0  0  0
  182.6140  179.1360  139.6080 N   0  0  0  0  0  2  0  0  0  0  0  0
  182.0040  178.9100  140.8830 C   0  0  0  0  0  3  0  0  0  0  0  0
  184.1690  178.1140  141.6980 C   0  0  1  0  0  3  0  0  0  0  0  0
  185.8130  178.2540  137.8010 C   0  0  0  0  0  2  0  0  0  0  0  0
  184.5490  179.0580  138.0830 C   0  0  0  0  0  2  0  0  0  0  0  0
  185.9050  178.5870  143.5140 C   0  0  1  0  0  3  0  0  0  0  0  0
  186.7780  179.3310  142.5050 C   0  0  0  0  0  2  0  0  0  0  0  0
  184.7550  178.2960  140.4860 C   0  0  2  0  0  3  0  0  0  0  0  0
  187.1930  178.4470  141.3700 C   0  0  0  0  0  0  0  0  0  0  0  0
  183.8440  178.4250  139.2760 C   0  0  1  0  0  3  0  0  0  0  0  0
  182.7260  178.3890  141.8750 C   0  0  0  0  0  3  0  0  0  0  0  0
  190.6370  176.0400  143.1050 C   0  0  1  0  0  3  0  0  0  0  0  0
  191.1490  177.0550  140.9550 N   0  0  0  0  0  0  0  0  0  0  0  0
  192.2990  177.5030  140.1900 C   0  0  0  0  0  1  0  0  0  0  0  0
  191.2460  175.5570  144.2670 O   0  0  0  0  0  1  0  0  0  0  0  0
  189.3620  176.8330  143.3900 C   0  0  2  0  0  3  0  0  0  0  0  0
  189.4120  178.0140  142.4470 C   0  0  1  0  0  3  0  0  0  0  0  0
  190.8410  178.1320  141.9120 C   0  0  1  0  0  3  0  0  0  0  0  0
  191.5900  176.9520  142.3530 C   0  0  1  0  0  3  0  0  0  0  0  0
  189.8520  178.6160  144.9050 O   0  0  0  0  0  1  0  0  0  0  0  0
  189.2640  177.3530  144.8190 C   0  0  0  0  0  2  0  0  0  0  0  0
  184.5360  180.5160  143.9300 O   0  0  0  0  0  1  0  0  0  0  0  0
  185.2720  179.5110  144.5610 C   0  0  1  0  0  3  0  0  0  0  0  0
  184.9210  178.2630  146.6790 C   0  0  0  0  0  3  0  0  0  0  0  0
  183.0620  178.7510  145.3850 F   0  0  0  0  0  0  0  0  0  0  0  0
  186.3800  178.3000  146.9990 C   0  0  0  0  0  1  0  0  0  0  0  0
  184.4070  178.7970  145.5650 C   0  0  0  0  0  0  0  0  0  0  0  0
  1 10  1  0  0  0  0
  2 13  1  0  0  0  0
  3 13  2  0  0  0  0
  4  2  2  0  0  0  0
  5  6  1  0  0  0  0
  6 15  2  0  0  0  0
  7 15  1  6  0  0  0
  7  1  1  0  0  0  0
  8  9  1  0  0  0  0
  8  4  1  0  0  0  0
 10 27  1  6  0  0  0
 11 10  1  0  0  0  0
 12  2  1  6  0  0  0
 12  7  1  0  0  0  0
 13 11  1  0  0  0  0
 14  9  1  6  0  0  0
 14  5  1  0  0  0  0
 14 12  1  0  0  0  0
 16 20  1  0  0  0  0
 16 19  1  1  0  0  0
 18 17  1  0  0  0  0
 20 25  1  1  0  0  0
 21  3  1  6  0  0  0
 21 20  1  0  0  0  0
 22 17  1  6  0  0  0
 22 23  1  0  0  0  0
 22 21  1  0  0  0  0
 23 17  1  6  0  0  0
 23 16  1  0  0  0  0
 25 24  1  0  0  0  0
 27 26  1  6  0  0  0
 27 31  1  0  0  0  0
 28 30  1  0  0  0  0
 29 31  1  0  0  0  0
 31 28  2  0  0  0  0
M  END
>  <MODEL>
9

>  <REMARK>
 VINA RESULT:      -6.6      3.150      5.402
  Name = 
  4 active torsions:
  status: ('A' for Active; 'I' for Inactive)
    1  A    between atoms: C_6  and  C_19
    2  A    between atoms: C_15  and  C_30
    3  A    between atoms: C_20  and  C_28
    4  A    between atoms: C_25  and  C_28
                            x       y       z     vdW  Elec       q    Type
                         _______ _______ _______ _____ _____    ______ ____

>  <TORSDO>
F 4

$$$$
