=
 OpenBabel11062413483D

 52 56  0  0  1  0  0  0  0  0999 V2000
  186.8910  178.2270  141.7010 C   0  0  2  0  0  3  0  0  0  0  0  0
  185.6460  179.4780  140.7810 O   0  0  0  0  0  0  0  0  0  0  0  0
  185.7980  180.1120  143.0990 C   0  0  0  0  0  1  0  0  0  0  0  0
  186.7370  178.7870  140.4300 O   0  0  0  0  0  0  0  0  0  0  0  0
  185.6620  178.9800  142.0830 C   0  0  2  0  0  0  0  0  0  0  0  0
  184.4420  178.0860  142.3100 C   0  0  0  0  0  2  0  0  0  0  0  0
  183.7380  178.3960  144.5530 O   0  0  0  0  0  0  0  0  0  0  0  0
  183.4880  178.6090  143.3350 C   0  0  0  0  0  0  0  0  0  0  0  0
  182.3710  179.3600  142.9440 O   0  0  0  0  0  0  0  0  0  0  0  0
  180.3980  178.4580  143.6790 O   0  0  0  0  0  0  0  0  0  0  0  0
  181.0920  178.8390  142.7010 C   0  0  0  0  0  0  0  0  0  0  0  0
  180.5640  178.6580  141.3030 C   0  0  2  0  0  3  0  0  0  0  0  0
  180.8230  180.0510  139.1070 C   0  0  2  0  0  0  0  0  0  0  0  0
  179.7720  180.4810  138.2740 O   0  0  0  0  0  0  0  0  0  0  0  0
  179.4020  179.7180  139.3970 C   0  0  2  0  0  3  0  0  0  0  0  0
  180.3410  179.9810  140.5570 C   0  0  1  0  0  3  0  0  0  0  0  0
  180.5540  177.0210  137.0910 C   0  0  0  0  0  3  0  0  0  0  0  0
  181.1160  178.4160  137.1490 C   0  0  0  0  0  2  0  0  0  0  0  0
  183.0650  179.0730  138.6060 C   0  0  0  0  0  2  0  0  0  0  0  0
  183.3380  174.4050  137.4050 C   0  0  0  0  0  1  0  0  0  0  0  0
  182.6990  175.7450  137.4770 C   0  0  0  0  0  0  0  0  0  0  0  0
  181.5490  178.8030  138.5710 C   0  0  1  0  0  3  0  0  0  0  0  0
  181.2520  175.8770  137.2100 C   0  0  0  0  0  3  0  0  0  0  0  0
  183.9220  177.8630  138.3500 C   0  0  0  0  0  3  0  0  0  0  0  0
  183.3850  176.7600  137.9130 C   0  0  0  0  0  0  0  0  0  0  0  0
  179.3070  177.7880  141.2910 C   0  0  0  0  0  2  0  0  0  0  0  0
  179.5860  176.3730  140.8140 C   0  0  0  0  0  1  0  0  0  0  0  0
  188.1900  178.7520  142.3210 C   0  0  0  0  0  2  0  0  0  0  0  0
  188.0610  176.7360  143.7170 C   0  0  0  0  0  1  0  0  0  0  0  0
  189.0340  177.6690  143.0050 C   0  0  1  0  0  0  0  0  0  0  0  0
  192.6310  177.4390  139.7750 O   0  0  0  0  0  0  0  0  0  0  0  0
  189.8060  176.9090  141.9510 C   0  0  0  0  0  0  0  0  0  0  0  0
  191.4660  177.0320  140.0210 C   0  0  0  0  0  0  0  0  0  0  0  0
  189.7270  175.6520  141.8960 O   0  0  0  0  0  0  0  0  0  0  0  0
  190.7500  177.6020  141.1230 N   0  0  0  0  0  2  0  0  0  0  0  0
  190.9030  176.0540  139.1950 O   0  0  0  0  0  0  0  0  0  0  0  0
  190.0450  176.5450  135.7050 C   0  0  0  0  0  2  0  0  0  0  0  0
  190.9100  176.2900  136.9360 C   0  0  0  0  0  2  0  0  0  0  0  0
  188.1960  179.2640  137.1670 O   0  0  0  0  0  0  0  0  0  0  0  0
  190.0780  176.3690  138.1350 N   0  0  0  0  0  0  0  0  0  0  0  0
  189.3370  177.7750  135.8360 O   0  0  0  0  0  0  0  0  0  0  0  0
  189.6520  177.7600  138.3230 C   0  0  0  0  0  2  0  0  0  0  0  0
  188.9940  178.2940  137.0860 C   0  0  0  0  0  0  0  0  0  0  0  0
  189.9620  178.3010  144.0600 C   0  0  0  0  0  2  0  0  0  0  0  0
  191.6720  177.1480  146.0360 O   0  0  0  0  0  0  0  0  0  0  0  0
  189.5700  177.9640  145.4220 N   0  0  0  0  0  2  0  0  0  0  0  0
  190.4900  177.4260  146.3760 C   0  0  0  0  0  0  0  0  0  0  0  0
  190.0930  177.2020  147.6920 O   0  0  0  0  0  0  0  0  0  0  0  0
  189.2630  178.1210  148.3900 C   0  0  0  0  0  2  0  0  0  0  0  0
  187.8610  177.5550  148.4930 C   0  0  0  0  0  2  0  0  0  0  0  0
  186.9320  178.3050  147.5590 C   0  0  0  0  0  2  0  0  0  0  0  0
  186.4880  177.4520  146.5650 F   0  0  0  0  0  0  0  0  0  0  0  0
  1  5  1  0  0  0  0
  1 28  1  1  0  0  0
  2  5  1  0  0  0  0
  4  2  1  0  0  0  0
  4  1  1  0  0  0  0
  5  6  1  0  0  0  0
  5  3  1  1  0  0  0
  6  8  1  0  0  0  0
  8  7  2  0  0  0  0
  9  8  1  0  0  0  0
 11  9  1  0  0  0  0
 11 10  2  0  0  0  0
 12 26  1  1  0  0  0
 12 11  1  0  0  0  0
 13 14  1  6  0  0  0
 13 15  1  0  0  0  0
 13 16  1  0  0  0  0
 15 14  1  6  0  0  0
 15 16  1  0  0  0  0
 16 12  1  1  0  0  0
 17 18  1  0  0  0  0
 17 23  2  0  0  0  0
 20 21  1  0  0  0  0
 21 25  2  0  0  0  0
 22 18  1  6  0  0  0
 22 19  1  0  0  0  0
 22 13  1  0  0  0  0
 23 21  1  0  0  0  0
 24 19  1  0  0  0  0
 25 24  2  0  0  0  0
 27 26  1  0  0  0  0
 28 30  1  0  0  0  0
 30 29  1  1  0  0  0
 30 44  1  0  0  0  0
 31 33  2  0  0  0  0
 32 30  1  0  0  0  0
 33 35  1  0  0  0  0
 34 32  2  0  0  0  0
 35 32  1  0  0  0  0
 36 33  1  0  0  0  0
 37 41  1  0  0  0  0
 37 38  1  0  0  0  0
 38 40  1  0  0  0  0
 40 42  1  0  0  0  0
 40 36  1  0  0  0  0
 41 43  1  0  0  0  0
 43 39  2  0  0  0  0
 43 42  1  0  0  0  0
 44 46  1  0  0  0  0
 45 47  2  0  0  0  0
 46 47  1  0  0  0  0
 47 48  1  0  0  0  0
 48 49  1  0  0  0  0
 49 50  1  0  0  0  0
 51 50  1  0  0  0  0
 52 51  1  0  0  0  0
M  END
>  <MODEL>
1

>  <REMARK>
 VINA RESULT:      -7.2      0.000      0.000
  Name = 
  19 active torsions:
  status: ('A' for Active; 'I' for Inactive)
    1  A    between atoms: C_1  and  C_41
    2  A    between atoms: C_2  and  C_30
    3  A    between atoms: C_7  and  C_36
    4  A    between atoms: C_16  and  C_40
    5  A    between atoms: C_16  and  O_47
    6  A    between atoms: C_18  and  N_34
    7  A    between atoms: C_18  and  C_36
    8  A    between atoms: C_19  and  O_33
    9  A    between atoms: N_23  and  O_33
   10  A    between atoms: C_26  and  C_37
   11  A    between atoms: C_28  and  C_35
   12  A    between atoms: C_28  and  C_39
   13  A    between atoms: C_29  and  C_40
   14  A    between atoms: O_32  and  C_38
   15  A    between atoms: O_32  and  C_39
   16  A    between atoms: C_36  and  C_41
   17  A    between atoms: C_37  and  C_38
   18  A    between atoms: C_37  and  C_43
   19  A    between atoms: C_44  and  O_47
                            x       y       z     vdW  Elec       q    Type
                         _______ _______ _______ _____ _____    ______ ____

>  <TORSDO>
F 19

$$$$
=
 OpenBabel11062413483D

 52 56  0  0  1  0  0  0  0  0999 V2000
  190.4800  176.6400  139.6560 C   0  0  2  0  0  3  0  0  0  0  0  0
  190.7780  176.8230  137.6960 O   0  0  0  0  0  0  0  0  0  0  0  0
  189.3890  178.6460  138.4360 C   0  0  0  0  0  1  0  0  0  0  0  0
  191.4840  176.3460  138.7290 O   0  0  0  0  0  0  0  0  0  0  0  0
  189.6860  177.1490  138.5010 C   0  0  2  0  0  0  0  0  0  0  0  0
  188.4940  176.2630  138.1390 C   0  0  0  0  0  2  0  0  0  0  0  0
  187.8530  177.2290  136.0700 O   0  0  0  0  0  0  0  0  0  0  0  0
  187.4970  176.9220  137.2410 C   0  0  0  0  0  0  0  0  0  0  0  0
  186.1860  177.1440  137.6820 O   0  0  0  0  0  0  0  0  0  0  0  0
  185.2630  175.2670  136.7480 O   0  0  0  0  0  0  0  0  0  0  0  0
  185.0730  176.3650  137.3330 C   0  0  0  0  0  0  0  0  0  0  0  0
  183.6660  176.8420  137.5750 C   0  0  2  0  0  3  0  0  0  0  0  0
  181.4770  177.0110  136.1580 C   0  0  2  0  0  0  0  0  0  0  0  0
  180.7480  178.1890  135.9040 O   0  0  0  0  0  0  0  0  0  0  0  0
  181.8880  178.3280  136.7160 C   0  0  2  0  0  3  0  0  0  0  0  0
  182.9630  177.3420  136.3050 C   0  0  1  0  0  3  0  0  0  0  0  0
  179.5000  176.9790  139.2260 C   0  0  0  0  0  3  0  0  0  0  0  0
  179.4960  176.6640  137.7540 C   0  0  0  0  0  2  0  0  0  0  0  0
  180.7210  174.7050  136.7450 C   0  0  0  0  0  2  0  0  0  0  0  0
  179.4900  173.7670  141.3180 C   0  0  0  0  0  1  0  0  0  0  0  0
  179.6360  174.6160  140.1070 C   0  0  0  0  0  0  0  0  0  0  0  0
  180.8590  176.1460  137.2720 C   0  0  1  0  0  3  0  0  0  0  0  0
  179.5370  176.0840  140.2300 C   0  0  0  0  0  3  0  0  0  0  0  0
  180.3670  173.6870  137.7950 C   0  0  0  0  0  3  0  0  0  0  0  0
  179.9930  174.0710  138.9810 C   0  0  0  0  0  0  0  0  0  0  0  0
  183.6160  177.8850  138.6920 C   0  0  0  0  0  2  0  0  0  0  0  0
  183.1470  177.2970  140.0130 C   0  0  0  0  0  1  0  0  0  0  0  0
  190.9920  177.7200  140.6160 C   0  0  0  0  0  2  0  0  0  0  0  0
  190.8410  178.8570  142.7870 C   0  0  0  0  0  1  0  0  0  0  0  0
  190.4620  177.5780  142.0480 C   0  0  1  0  0  0  0  0  0  0  0  0
  186.1210  179.1490  140.5950 O   0  0  0  0  0  0  0  0  0  0  0  0
  188.9590  177.4280  142.0040 C   0  0  0  0  0  0  0  0  0  0  0  0
  186.7190  178.5450  141.5230 C   0  0  0  0  0  0  0  0  0  0  0  0
  188.4290  176.3120  142.2540 O   0  0  0  0  0  0  0  0  0  0  0  0
  188.1510  178.5100  141.5190 N   0  0  0  0  0  2  0  0  0  0  0  0
  185.9640  177.9500  142.5390 O   0  0  0  0  0  0  0  0  0  0  0  0
  185.2320  179.0070  145.9300 C   0  0  0  0  0  2  0  0  0  0  0  0
  185.8260  178.1800  144.7940 C   0  0  0  0  0  2  0  0  0  0  0  0
  181.9200  179.1460  144.5290 O   0  0  0  0  0  0  0  0  0  0  0  0
  185.3300  178.6870  143.5170 N   0  0  0  0  0  0  0  0  0  0  0  0
  183.8100  179.0390  145.8360 O   0  0  0  0  0  0  0  0  0  0  0  0
  183.8970  178.3900  143.4160 C   0  0  0  0  0  2  0  0  0  0  0  0
  183.1530  178.9080  144.6110 C   0  0  0  0  0  0  0  0  0  0  0  0
  191.1430  176.3890  142.7540 C   0  0  0  0  0  2  0  0  0  0  0  0
  189.6870  176.4950  145.2100 O   0  0  0  0  0  0  0  0  0  0  0  0
  191.6990  176.7540  144.0500 N   0  0  0  0  0  2  0  0  0  0  0  0
  190.9220  176.7460  145.2510 C   0  0  0  0  0  0  0  0  0  0  0  0
  191.5180  177.0150  146.4800 O   0  0  0  0  0  0  0  0  0  0  0  0
  190.8050  176.8850  147.7030 C   0  0  0  0  0  2  0  0  0  0  0  0
  189.8990  178.0840  147.8880 C   0  0  0  0  0  2  0  0  0  0  0  0
  188.5300  177.6310  148.3530 C   0  0  0  0  0  2  0  0  0  0  0  0
  187.6860  178.7230  148.4400 F   0  0  0  0  0  0  0  0  0  0  0  0
  1 28  1  1  0  0  0
  2  5  1  0  0  0  0
  2  4  1  0  0  0  0
  4  1  1  0  0  0  0
  5  3  1  1  0  0  0
  5  1  1  0  0  0  0
  6  5  1  0  0  0  0
  7  8  2  0  0  0  0
  8  9  1  0  0  0  0
  8  6  1  0  0  0  0
 10 11  2  0  0  0  0
 11 12  1  0  0  0  0
 11  9  1  0  0  0  0
 12 26  1  1  0  0  0
 13 14  1  6  0  0  0
 13 16  1  0  0  0  0
 13 15  1  0  0  0  0
 13 22  1  0  0  0  0
 15 14  1  6  0  0  0
 16 15  1  0  0  0  0
 16 12  1  1  0  0  0
 17 23  2  0  0  0  0
 18 17  1  0  0  0  0
 19 24  1  0  0  0  0
 21 23  1  0  0  0  0
 21 20  1  0  0  0  0
 22 19  1  6  0  0  0
 22 18  1  0  0  0  0
 24 25  2  0  0  0  0
 25 21  2  0  0  0  0
 26 27  1  0  0  0  0
 28 30  1  0  0  0  0
 30 44  1  0  0  0  0
 30 29  1  1  0  0  0
 31 33  2  0  0  0  0
 32 30  1  0  0  0  0
 32 34  2  0  0  0  0
 33 36  1  0  0  0  0
 35 33  1  0  0  0  0
 35 32  1  0  0  0  0
 36 40  1  0  0  0  0
 38 37  1  0  0  0  0
 39 43  2  0  0  0  0
 40 38  1  0  0  0  0
 41 37  1  0  0  0  0
 42 40  1  0  0  0  0
 42 43  1  0  0  0  0
 43 41  1  0  0  0  0
 44 46  1  0  0  0  0
 45 47  2  0  0  0  0
 46 47  1  0  0  0  0
 47 48  1  0  0  0  0
 48 49  1  0  0  0  0
 49 50  1  0  0  0  0
 50 51  1  0  0  0  0
 51 52  1  0  0  0  0
M  END
>  <MODEL>
2

>  <REMARK>
 VINA RESULT:      -6.8      1.943      5.690
  Name = 
  19 active torsions:
  status: ('A' for Active; 'I' for Inactive)
    1  A    between atoms: C_1  and  C_41
    2  A    between atoms: C_2  and  C_30
    3  A    between atoms: C_7  and  C_36
    4  A    between atoms: C_16  and  C_40
    5  A    between atoms: C_16  and  O_47
    6  A    between atoms: C_18  and  N_34
    7  A    between atoms: C_18  and  C_36
    8  A    between atoms: C_19  and  O_33
    9  A    between atoms: N_23  and  O_33
   10  A    between atoms: C_26  and  C_37
   11  A    between atoms: C_28  and  C_35
   12  A    between atoms: C_28  and  C_39
   13  A    between atoms: C_29  and  C_40
   14  A    between atoms: O_32  and  C_38
   15  A    between atoms: O_32  and  C_39
   16  A    between atoms: C_36  and  C_41
   17  A    between atoms: C_37  and  C_38
   18  A    between atoms: C_37  and  C_43
   19  A    between atoms: C_44  and  O_47
                            x       y       z     vdW  Elec       q    Type
                         _______ _______ _______ _____ _____    ______ ____

>  <TORSDO>
F 19

$$$$
=
 OpenBabel11062413483D

 52 56  0  0  1  0  0  0  0  0999 V2000
  191.1590  176.7750  140.0060 C   0  0  2  0  0  3  0  0  0  0  0  0
  191.6130  177.0810  138.0930 O   0  0  0  0  0  0  0  0  0  0  0  0
  189.6960  178.4270  138.6530 C   0  0  0  0  0  1  0  0  0  0  0  0
  192.3040  176.7950  139.2040 O   0  0  0  0  0  0  0  0  0  0  0  0
  190.3910  177.0710  138.7640 C   0  0  2  0  0  0  0  0  0  0  0  0
  189.5420  175.8970  138.2740 C   0  0  0  0  0  2  0  0  0  0  0  0
  188.7820  176.3990  136.0850 O   0  0  0  0  0  0  0  0  0  0  0  0
  188.4740  176.2830  137.3020 C   0  0  0  0  0  0  0  0  0  0  0  0
  187.1530  176.4610  137.7370 O   0  0  0  0  0  0  0  0  0  0  0  0
  186.4470  178.6020  137.3290 O   0  0  0  0  0  0  0  0  0  0  0  0
  186.2370  177.3690  137.1870 C   0  0  0  0  0  0  0  0  0  0  0  0
  184.9810  176.9070  136.4990 C   0  0  2  0  0  3  0  0  0  0  0  0
  183.1420  175.7500  137.9530 C   0  0  2  0  0  0  0  0  0  0  0  0
  182.1420  174.8810  137.4780 O   0  0  0  0  0  0  0  0  0  0  0  0
  183.0140  175.4100  136.5100 C   0  0  2  0  0  3  0  0  0  0  0  0
  184.3990  175.6150  137.0910 C   0  0  1  0  0  3  0  0  0  0  0  0
  180.9540  178.4270  136.7830 C   0  0  0  0  0  3  0  0  0  0  0  0
  181.1520  177.3680  137.8350 C   0  0  0  0  0  2  0  0  0  0  0  0
  182.8670  177.5360  139.6760 C   0  0  0  0  0  2  0  0  0  0  0  0
  181.4680  181.9310  138.2490 C   0  0  0  0  0  1  0  0  0  0  0  0
  181.5300  180.4480  138.1840 C   0  0  0  0  0  0  0  0  0  0  0  0
  182.6340  177.1840  138.1940 C   0  0  1  0  0  3  0  0  0  0  0  0
  181.0980  179.7540  136.9540 C   0  0  0  0  0  3  0  0  0  0  0  0
  182.6540  178.9870  140.0140 C   0  0  0  0  0  3  0  0  0  0  0  0
  182.0990  179.7870  139.1500 C   0  0  0  0  0  0  0  0  0  0  0  0
  185.1840  176.7900  134.9880 C   0  0  0  0  0  2  0  0  0  0  0  0
  185.8780  175.4970  134.5950 C   0  0  0  0  0  1  0  0  0  0  0  0
  191.2370  177.9310  141.0100 C   0  0  0  0  0  2  0  0  0  0  0  0
  190.8170  178.8370  143.2540 C   0  0  0  0  0  1  0  0  0  0  0  0
  190.5660  177.6300  142.3560 C   0  0  1  0  0  0  0  0  0  0  0  0
  186.2020  179.4750  141.3680 O   0  0  0  0  0  0  0  0  0  0  0  0
  189.0820  177.4470  142.1350 C   0  0  0  0  0  0  0  0  0  0  0  0
  186.7940  178.5590  141.9970 C   0  0  0  0  0  0  0  0  0  0  0  0
  188.6240  176.3070  141.8480 O   0  0  0  0  0  0  0  0  0  0  0  0
  188.2230  178.5940  142.0910 N   0  0  0  0  0  2  0  0  0  0  0  0
  186.0330  177.5550  142.6040 O   0  0  0  0  0  0  0  0  0  0  0  0
  183.2180  178.9870  144.3880 C   0  0  0  0  0  2  0  0  0  0  0  0
  184.2020  178.7340  143.2500 C   0  0  0  0  0  2  0  0  0  0  0  0
  185.7390  179.2330  146.9440 O   0  0  0  0  0  0  0  0  0  0  0  0
  185.2290  177.7960  143.6980 N   0  0  0  0  0  0  0  0  0  0  0  0
  183.9080  179.4060  145.5630 O   0  0  0  0  0  0  0  0  0  0  0  0
  186.0650  178.4580  144.7050 C   0  0  0  0  0  2  0  0  0  0  0  0
  185.2280  179.0250  145.8130 C   0  0  0  0  0  0  0  0  0  0  0  0
  191.2120  176.3940  143.0110 C   0  0  0  0  0  2  0  0  0  0  0  0
  192.4050  174.4800  144.7640 O   0  0  0  0  0  0  0  0  0  0  0  0
  191.2460  176.4860  144.4640 N   0  0  0  0  0  2  0  0  0  0  0  0
  191.8990  175.5110  145.2820 C   0  0  0  0  0  0  0  0  0  0  0  0
  191.9830  175.6870  146.6610 O   0  0  0  0  0  0  0  0  0  0  0  0
  191.3500  176.7770  147.3170 C   0  0  0  0  0  2  0  0  0  0  0  0
  189.8670  176.4950  147.4460 C   0  0  0  0  0  2  0  0  0  0  0  0
  189.0810  177.7820  147.2950 C   0  0  0  0  0  2  0  0  0  0  0  0
  189.0430  178.1470  145.9610 F   0  0  0  0  0  0  0  0  0  0  0  0
  1 28  1  1  0  0  0
  2  5  1  0  0  0  0
  2  4  1  0  0  0  0
  4  1  1  0  0  0  0
  5  3  1  1  0  0  0
  5  1  1  0  0  0  0
  6  5  1  0  0  0  0
  7  8  2  0  0  0  0
  8  9  1  0  0  0  0
  8  6  1  0  0  0  0
 11 10  2  0  0  0  0
 11  9  1  0  0  0  0
 12 26  1  6  0  0  0
 12 11  1  0  0  0  0
 13 14  1  1  0  0  0
 13 22  1  0  0  0  0
 15 16  1  0  0  0  0
 15 14  1  1  0  0  0
 15 13  1  0  0  0  0
 16 12  1  6  0  0  0
 16 13  1  0  0  0  0
 17 23  2  0  0  0  0
 17 18  1  0  0  0  0
 19 24  1  0  0  0  0
 21 20  1  0  0  0  0
 21 25  2  0  0  0  0
 22 18  1  1  0  0  0
 22 19  1  0  0  0  0
 23 21  1  0  0  0  0
 25 24  2  0  0  0  0
 27 26  1  0  0  0  0
 28 30  1  0  0  0  0
 30 44  1  0  0  0  0
 30 29  1  1  0  0  0
 31 33  2  0  0  0  0
 32 30  1  0  0  0  0
 33 35  1  0  0  0  0
 33 36  1  0  0  0  0
 34 32  2  0  0  0  0
 35 32  1  0  0  0  0
 36 40  1  0  0  0  0
 37 41  1  0  0  0  0
 38 40  1  0  0  0  0
 38 37  1  0  0  0  0
 40 42  1  0  0  0  0
 41 43  1  0  0  0  0
 42 43  1  0  0  0  0
 43 39  2  0  0  0  0
 44 46  1  0  0  0  0
 45 47  2  0  0  0  0
 46 47  1  0  0  0  0
 47 48  1  0  0  0  0
 48 49  1  0  0  0  0
 49 50  1  0  0  0  0
 51 50  1  0  0  0  0
 52 51  1  0  0  0  0
M  END
>  <MODEL>
3

>  <REMARK>
 VINA RESULT:      -6.7      2.153      6.097
  Name = 
  19 active torsions:
  status: ('A' for Active; 'I' for Inactive)
    1  A    between atoms: C_1  and  C_41
    2  A    between atoms: C_2  and  C_30
    3  A    between atoms: C_7  and  C_36
    4  A    between atoms: C_16  and  C_40
    5  A    between atoms: C_16  and  O_47
    6  A    between atoms: C_18  and  N_34
    7  A    between atoms: C_18  and  C_36
    8  A    between atoms: C_19  and  O_33
    9  A    between atoms: N_23  and  O_33
   10  A    between atoms: C_26  and  C_37
   11  A    between atoms: C_28  and  C_35
   12  A    between atoms: C_28  and  C_39
   13  A    between atoms: C_29  and  C_40
   14  A    between atoms: O_32  and  C_38
   15  A    between atoms: O_32  and  C_39
   16  A    between atoms: C_36  and  C_41
   17  A    between atoms: C_37  and  C_38
   18  A    between atoms: C_37  and  C_43
   19  A    between atoms: C_44  and  O_47
                            x       y       z     vdW  Elec       q    Type
                         _______ _______ _______ _____ _____    ______ ____

>  <TORSDO>
F 19

$$$$
=
 OpenBabel11062413483D

 52 56  0  0  1  0  0  0  0  0999 V2000
  186.4110  178.3230  142.2440 C   0  0  2  0  0  3  0  0  0  0  0  0
  185.2920  179.6460  141.2650 O   0  0  0  0  0  0  0  0  0  0  0  0
  185.1860  180.1420  143.6190 C   0  0  0  0  0  1  0  0  0  0  0  0
  186.4100  178.9580  140.9990 O   0  0  0  0  0  0  0  0  0  0  0  0
  185.1550  179.0730  142.5290 C   0  0  2  0  0  0  0  0  0  0  0  0
  183.9080  178.1890  142.5630 C   0  0  0  0  0  2  0  0  0  0  0  0
  183.0220  178.5990  144.7240 O   0  0  0  0  0  0  0  0  0  0  0  0
  182.8360  178.6850  143.4790 C   0  0  0  0  0  0  0  0  0  0  0  0
  181.6770  179.2760  142.9580 O   0  0  0  0  0  0  0  0  0  0  0  0
  179.7580  178.0620  143.2610 O   0  0  0  0  0  0  0  0  0  0  0  0
  180.5720  178.5770  142.4510 C   0  0  0  0  0  0  0  0  0  0  0  0
  180.3780  178.3680  140.9730 C   0  0  2  0  0  3  0  0  0  0  0  0
  180.8930  179.7720  138.8300 C   0  0  2  0  0  0  0  0  0  0  0  0
  179.9600  180.1370  137.8400 O   0  0  0  0  0  0  0  0  0  0  0  0
  179.4660  179.3540  138.8990 C   0  0  2  0  0  3  0  0  0  0  0  0
  180.1960  179.6740  140.1890 C   0  0  1  0  0  3  0  0  0  0  0  0
  181.0570  176.6340  136.9720 C   0  0  0  0  0  3  0  0  0  0  0  0
  181.4900  178.0760  136.9970 C   0  0  0  0  0  2  0  0  0  0  0  0
  183.2450  178.9760  138.5680 C   0  0  0  0  0  2  0  0  0  0  0  0
  184.0170  174.2990  137.6580 C   0  0  0  0  0  1  0  0  0  0  0  0
  183.2630  175.5780  137.6020 C   0  0  0  0  0  0  0  0  0  0  0  0
  181.7660  178.5700  138.4260 C   0  0  1  0  0  3  0  0  0  0  0  0
  181.8380  175.5660  137.2120 C   0  0  0  0  0  3  0  0  0  0  0  0
  184.2200  177.8370  138.4510 C   0  0  0  0  0  3  0  0  0  0  0  0
  183.8190  176.6700  138.0350 C   0  0  0  0  0  0  0  0  0  0  0  0
  179.2430  177.3830  140.6950 C   0  0  0  0  0  2  0  0  0  0  0  0
  179.7500  175.9770  140.4150 C   0  0  0  0  0  1  0  0  0  0  0  0
  187.6380  178.7890  143.0370 C   0  0  0  0  0  2  0  0  0  0  0  0
  187.4090  176.6850  144.2820 C   0  0  0  0  0  1  0  0  0  0  0  0
  188.4300  177.6460  143.6830 C   0  0  1  0  0  0  0  0  0  0  0  0
  192.1970  177.5530  140.6450 O   0  0  0  0  0  0  0  0  0  0  0  0
  189.2400  176.9450  142.6160 C   0  0  0  0  0  0  0  0  0  0  0  0
  191.0100  177.1640  140.7950 C   0  0  0  0  0  0  0  0  0  0  0  0
  189.1310  175.6990  142.4590 O   0  0  0  0  0  0  0  0  0  0  0  0
  190.2480  177.6700  141.8980 N   0  0  0  0  0  2  0  0  0  0  0  0
  190.4680  176.2710  139.8650 O   0  0  0  0  0  0  0  0  0  0  0  0
  188.0140  177.6710  137.5920 C   0  0  0  0  0  2  0  0  0  0  0  0
  188.6020  177.1190  138.8860 C   0  0  0  0  0  2  0  0  0  0  0  0
  189.3750  175.0870  135.4900 O   0  0  0  0  0  0  0  0  0  0  0  0
  189.9760  176.6830  138.6450 N   0  0  0  0  0  0  0  0  0  0  0  0
  188.1390  176.7200  136.5380 O   0  0  0  0  0  0  0  0  0  0  0  0
  189.9500  175.5030  137.7740 C   0  0  0  0  0  2  0  0  0  0  0  0
  189.1650  175.7720  136.5250 C   0  0  0  0  0  0  0  0  0  0  0  0
  189.3160  178.1870  144.8210 C   0  0  0  0  0  2  0  0  0  0  0  0
  189.2030  177.5590  147.6060 O   0  0  0  0  0  0  0  0  0  0  0  0
  190.0790  177.1360  145.4810 N   0  0  0  0  0  2  0  0  0  0  0  0
  189.9440  176.8470  146.8760 C   0  0  0  0  0  0  0  0  0  0  0  0
  190.6270  175.7750  147.4450 O   0  0  0  0  0  0  0  0  0  0  0  0
  192.0450  175.7500  147.5270 C   0  0  0  0  0  2  0  0  0  0  0  0
  192.5120  176.7960  148.5180 C   0  0  0  0  0  2  0  0  0  0  0  0
  193.5170  176.1890  149.4760 C   0  0  0  0  0  2  0  0  0  0  0  0
  193.9800  177.1640  150.3400 F   0  0  0  0  0  0  0  0  0  0  0  0
  1  5  1  0  0  0  0
  1 28  1  1  0  0  0
  2  5  1  0  0  0  0
  4  2  1  0  0  0  0
  4  1  1  0  0  0  0
  5  6  1  0  0  0  0
  5  3  1  1  0  0  0
  6  8  1  0  0  0  0
  8  7  2  0  0  0  0
  9  8  1  0  0  0  0
 11  9  1  0  0  0  0
 11 10  2  0  0  0  0
 12 26  1  1  0  0  0
 12 11  1  0  0  0  0
 13 14  1  6  0  0  0
 13 15  1  0  0  0  0
 13 16  1  0  0  0  0
 15 14  1  6  0  0  0
 15 16  1  0  0  0  0
 16 12  1  1  0  0  0
 17 18  1  0  0  0  0
 17 23  2  0  0  0  0
 21 20  1  0  0  0  0
 21 25  2  0  0  0  0
 22 18  1  6  0  0  0
 22 19  1  0  0  0  0
 22 13  1  0  0  0  0
 23 21  1  0  0  0  0
 24 19  1  0  0  0  0
 25 24  2  0  0  0  0
 27 26  1  0  0  0  0
 28 30  1  0  0  0  0
 30 29  1  1  0  0  0
 30 44  1  0  0  0  0
 31 33  2  0  0  0  0
 32 30  1  0  0  0  0
 33 35  1  0  0  0  0
 34 32  2  0  0  0  0
 35 32  1  0  0  0  0
 36 33  1  0  0  0  0
 37 38  1  0  0  0  0
 39 43  2  0  0  0  0
 40 38  1  0  0  0  0
 40 36  1  0  0  0  0
 41 37  1  0  0  0  0
 42 40  1  0  0  0  0
 43 41  1  0  0  0  0
 43 42  1  0  0  0  0
 44 46  1  0  0  0  0
 46 47  1  0  0  0  0
 47 48  1  0  0  0  0
 47 45  2  0  0  0  0
 48 49  1  0  0  0  0
 49 50  1  0  0  0  0
 50 51  1  0  0  0  0
 51 52  1  0  0  0  0
M  END
>  <MODEL>
4

>  <REMARK>
 VINA RESULT:      -6.5      1.689      2.174
  Name = 
  19 active torsions:
  status: ('A' for Active; 'I' for Inactive)
    1  A    between atoms: C_1  and  C_41
    2  A    between atoms: C_2  and  C_30
    3  A    between atoms: C_7  and  C_36
    4  A    between atoms: C_16  and  C_40
    5  A    between atoms: C_16  and  O_47
    6  A    between atoms: C_18  and  N_34
    7  A    between atoms: C_18  and  C_36
    8  A    between atoms: C_19  and  O_33
    9  A    between atoms: N_23  and  O_33
   10  A    between atoms: C_26  and  C_37
   11  A    between atoms: C_28  and  C_35
   12  A    between atoms: C_28  and  C_39
   13  A    between atoms: C_29  and  C_40
   14  A    between atoms: O_32  and  C_38
   15  A    between atoms: O_32  and  C_39
   16  A    between atoms: C_36  and  C_41
   17  A    between atoms: C_37  and  C_38
   18  A    between atoms: C_37  and  C_43
   19  A    between atoms: C_44  and  O_47
                            x       y       z     vdW  Elec       q    Type
                         _______ _______ _______ _____ _____    ______ ____

>  <TORSDO>
F 19

$$$$
=
 OpenBabel11062413483D

 52 56  0  0  1  0  0  0  0  0999 V2000
  186.4190  178.2970  141.4310 C   0  0  2  0  0  3  0  0  0  0  0  0
  185.0740  179.6300  140.8170 O   0  0  0  0  0  0  0  0  0  0  0  0
  185.5410  180.0250  143.1460 C   0  0  0  0  0  1  0  0  0  0  0  0
  186.1030  178.9820  140.2540 O   0  0  0  0  0  0  0  0  0  0  0  0
  185.2590  179.0020  142.0490 C   0  0  2  0  0  0  0  0  0  0  0  0
  184.0720  178.0850  142.3450 C   0  0  0  0  0  2  0  0  0  0  0  0
  183.1890  179.5700  143.9680 O   0  0  0  0  0  0  0  0  0  0  0  0
  182.9320  178.7680  143.0290 C   0  0  0  0  0  0  0  0  0  0  0  0
  181.6170  178.5550  142.5960 O   0  0  0  0  0  0  0  0  0  0  0  0
  180.3020  180.4140  142.3470 O   0  0  0  0  0  0  0  0  0  0  0  0
  180.8760  179.4380  141.7980 C   0  0  0  0  0  0  0  0  0  0  0  0
  180.6920  179.2060  140.3220 C   0  0  2  0  0  3  0  0  0  0  0  0
  181.7340  180.1010  138.0980 C   0  0  2  0  0  0  0  0  0  0  0  0
  181.0430  180.7940  137.0850 O   0  0  0  0  0  0  0  0  0  0  0  0
  180.2750  180.3820  138.1890 C   0  0  2  0  0  3  0  0  0  0  0  0
  181.1030  180.4070  139.4580 C   0  0  1  0  0  3  0  0  0  0  0  0
  180.5710  177.2110  136.1940 C   0  0  0  0  0  3  0  0  0  0  0  0
  181.6430  178.2630  136.3080 C   0  0  0  0  0  2  0  0  0  0  0  0
  183.4170  178.2570  138.1000 C   0  0  0  0  0  2  0  0  0  0  0  0
  181.9250  173.7610  137.1700 C   0  0  0  0  0  1  0  0  0  0  0  0
  181.8970  175.2420  137.0560 C   0  0  0  0  0  0  0  0  0  0  0  0
  181.9550  178.6120  137.7710 C   0  0  1  0  0  3  0  0  0  0  0  0
  180.7020  175.9080  136.4990 C   0  0  0  0  0  3  0  0  0  0  0  0
  183.7240  176.7840  138.0710 C   0  0  0  0  0  3  0  0  0  0  0  0
  182.8590  175.9430  137.5800 C   0  0  0  0  0  0  0  0  0  0  0  0
  179.2690  178.7470  140.0040 C   0  0  0  0  0  2  0  0  0  0  0  0
  179.1660  177.2370  139.8620 C   0  0  0  0  0  1  0  0  0  0  0  0
  187.7950  178.7610  141.9210 C   0  0  0  0  0  2  0  0  0  0  0  0
  187.8610  176.5020  142.8820 C   0  0  0  0  0  1  0  0  0  0  0  0
  188.7350  177.6130  142.3110 C   0  0  1  0  0  0  0  0  0  0  0  0
  189.8190  178.0810  137.6170 O   0  0  0  0  0  0  0  0  0  0  0  0
  189.4540  177.1250  141.0740 C   0  0  0  0  0  0  0  0  0  0  0  0
  189.6450  177.2380  138.5360 C   0  0  0  0  0  0  0  0  0  0  0  0
  190.4360  176.3420  141.1840 O   0  0  0  0  0  0  0  0  0  0  0  0
  189.1230  177.6810  139.7940 N   0  0  0  0  0  2  0  0  0  0  0  0
  189.9450  175.8950  138.2860 O   0  0  0  0  0  0  0  0  0  0  0  0
  191.8490  173.5880  136.2360 C   0  0  0  0  0  2  0  0  0  0  0  0
  190.7980  174.0750  137.2280 C   0  0  0  0  0  2  0  0  0  0  0  0
  194.5480  175.4930  137.6630 O   0  0  0  0  0  0  0  0  0  0  0  0
  190.9680  175.5100  137.4460 N   0  0  0  0  0  0  0  0  0  0  0  0
  193.1560  173.9530  136.6710 O   0  0  0  0  0  0  0  0  0  0  0  0
  192.2230  175.7310  138.1720 C   0  0  0  0  0  2  0  0  0  0  0  0
  193.3760  175.0780  137.4690 C   0  0  0  0  0  0  0  0  0  0  0  0
  189.7140  178.0740  143.4070 C   0  0  0  0  0  2  0  0  0  0  0  0
  191.2330  176.7920  145.4590 O   0  0  0  0  0  0  0  0  0  0  0  0
  189.2330  177.7700  144.7480 N   0  0  0  0  0  2  0  0  0  0  0  0
  190.0620  177.1630  145.7440 C   0  0  0  0  0  0  0  0  0  0  0  0
  189.5880  176.9730  147.0390 O   0  0  0  0  0  0  0  0  0  0  0  0
  189.3730  178.0630  147.9250 C   0  0  0  0  0  2  0  0  0  0  0  0
  187.9650  177.9930  148.4790 C   0  0  0  0  0  2  0  0  0  0  0  0
  186.9610  178.2120  147.3650 C   0  0  0  0  0  2  0  0  0  0  0  0
  186.1810  179.3170  147.6550 F   0  0  0  0  0  0  0  0  0  0  0  0
  1 28  1  1  0  0  0
  1  5  1  0  0  0  0
  2  5  1  0  0  0  0
  4  2  1  0  0  0  0
  4  1  1  0  0  0  0
  5  6  1  0  0  0  0
  5  3  1  1  0  0  0
  6  8  1  0  0  0  0
  8  7  2  0  0  0  0
  9  8  1  0  0  0  0
 11 10  2  0  0  0  0
 11  9  1  0  0  0  0
 12 26  1  1  0  0  0
 12 11  1  0  0  0  0
 13 14  1  6  0  0  0
 13 15  1  0  0  0  0
 13 16  1  0  0  0  0
 15 14  1  6  0  0  0
 15 16  1  0  0  0  0
 16 12  1  1  0  0  0
 17 18  1  0  0  0  0
 17 23  2  0  0  0  0
 21 20  1  0  0  0  0
 21 25  2  0  0  0  0
 22 18  1  6  0  0  0
 22 13  1  0  0  0  0
 22 19  1  0  0  0  0
 23 21  1  0  0  0  0
 24 19  1  0  0  0  0
 25 24  2  0  0  0  0
 27 26  1  0  0  0  0
 28 30  1  0  0  0  0
 30 29  1  1  0  0  0
 30 44  1  0  0  0  0
 31 33  2  0  0  0  0
 32 34  2  0  0  0  0
 32 30  1  0  0  0  0
 33 35  1  0  0  0  0
 35 32  1  0  0  0  0
 36 33  1  0  0  0  0
 37 41  1  0  0  0  0
 37 38  1  0  0  0  0
 38 40  1  0  0  0  0
 40 42  1  0  0  0  0
 40 36  1  0  0  0  0
 41 43  1  0  0  0  0
 43 39  2  0  0  0  0
 43 42  1  0  0  0  0
 44 46  1  0  0  0  0
 45 47  2  0  0  0  0
 46 47  1  0  0  0  0
 47 48  1  0  0  0  0
 48 49  1  0  0  0  0
 49 50  1  0  0  0  0
 51 52  1  0  0  0  0
 51 50  1  0  0  0  0
M  END
>  <MODEL>
5

>  <REMARK>
 VINA RESULT:      -6.4      1.434      2.055
  Name = 
  19 active torsions:
  status: ('A' for Active; 'I' for Inactive)
    1  A    between atoms: C_1  and  C_41
    2  A    between atoms: C_2  and  C_30
    3  A    between atoms: C_7  and  C_36
    4  A    between atoms: C_16  and  C_40
    5  A    between atoms: C_16  and  O_47
    6  A    between atoms: C_18  and  N_34
    7  A    between atoms: C_18  and  C_36
    8  A    between atoms: C_19  and  O_33
    9  A    between atoms: N_23  and  O_33
   10  A    between atoms: C_26  and  C_37
   11  A    between atoms: C_28  and  C_35
   12  A    between atoms: C_28  and  C_39
   13  A    between atoms: C_29  and  C_40
   14  A    between atoms: O_32  and  C_38
   15  A    between atoms: O_32  and  C_39
   16  A    between atoms: C_36  and  C_41
   17  A    between atoms: C_37  and  C_38
   18  A    between atoms: C_37  and  C_43
   19  A    between atoms: C_44  and  O_47
                            x       y       z     vdW  Elec       q    Type
                         _______ _______ _______ _____ _____    ______ ____

>  <TORSDO>
F 19

$$$$
=
 OpenBabel11062413483D

 52 56  0  0  1  0  0  0  0  0999 V2000
  187.2150  177.7170  138.8340 C   0  0  2  0  0  3  0  0  0  0  0  0
  187.2710  179.0970  140.2680 O   0  0  0  0  0  0  0  0  0  0  0  0
  189.4290  179.0070  139.2020 C   0  0  0  0  0  1  0  0  0  0  0  0
  186.3360  178.6240  139.4340 O   0  0  0  0  0  0  0  0  0  0  0  0
  188.2480  178.2300  139.7790 C   0  0  2  0  0  0  0  0  0  0  0  0
  188.6370  177.2250  140.8650 C   0  0  0  0  0  2  0  0  0  0  0  0
  190.6820  176.1490  140.3300 O   0  0  0  0  0  0  0  0  0  0  0  0
  190.1130  177.0390  141.0190 C   0  0  0  0  0  0  0  0  0  0  0  0
  190.8450  177.8730  141.8750 O   0  0  0  0  0  0  0  0  0  0  0  0
  190.6040  179.3850  143.5790 O   0  0  0  0  0  0  0  0  0  0  0  0
  190.4880  178.1930  143.1920 C   0  0  0  0  0  0  0  0  0  0  0  0
  190.0430  177.1380  144.1700 C   0  0  2  0  0  3  0  0  0  0  0  0
  189.3590  177.8750  146.5810 C   0  0  2  0  0  0  0  0  0  0  0  0
  189.3680  177.0570  147.7280 O   0  0  0  0  0  0  0  0  0  0  0  0
  189.7530  176.4420  146.5230 C   0  0  2  0  0  3  0  0  0  0  0  0
  190.4600  177.4300  145.6170 C   0  0  1  0  0  3  0  0  0  0  0  0
  187.0660  176.9010  143.9130 C   0  0  0  0  0  3  0  0  0  0  0  0
  187.3870  176.7550  145.3770 C   0  0  0  0  0  2  0  0  0  0  0  0
  187.0150  178.5820  147.0740 C   0  0  0  0  0  2  0  0  0  0  0  0
  183.9080  179.0130  143.4050 C   0  0  0  0  0  1  0  0  0  0  0  0
  185.0710  178.4350  144.1270 C   0  0  0  0  0  0  0  0  0  0  0  0
  187.9540  178.0520  145.9740 C   0  0  1  0  0  3  0  0  0  0  0  0
  186.0500  177.6100  143.3900 C   0  0  0  0  0  3  0  0  0  0  0  0
  185.6710  179.0430  146.5790 C   0  0  0  0  0  3  0  0  0  0  0  0
  185.2960  178.7800  145.3610 C   0  0  0  0  0  0  0  0  0  0  0  0
  190.4910  175.7450  143.7270 C   0  0  0  0  0  2  0  0  0  0  0  0
  191.9720  175.5070  143.9730 C   0  0  0  0  0  1  0  0  0  0  0  0
  187.4200  178.1200  137.3700 C   0  0  0  0  0  2  0  0  0  0  0  0
  186.5320  177.8480  135.0960 C   0  0  0  0  0  1  0  0  0  0  0  0
  186.9040  177.0840  136.3630 C   0  0  1  0  0  0  0  0  0  0  0  0
  189.0730  172.8370  137.1870 O   0  0  0  0  0  0  0  0  0  0  0  0
  188.0070  176.0940  136.0680 C   0  0  0  0  0  0  0  0  0  0  0  0
  189.2830  174.0300  136.8460 C   0  0  0  0  0  0  0  0  0  0  0  0
  188.6450  176.1660  134.9830 O   0  0  0  0  0  0  0  0  0  0  0  0
  188.2140  174.9780  136.9450 N   0  0  0  0  0  2  0  0  0  0  0  0
  190.5600  174.3920  136.4060 O   0  0  0  0  0  0  0  0  0  0  0  0
  193.0880  176.4830  137.9540 C   0  0  0  0  0  2  0  0  0  0  0  0
  192.0060  176.0510  136.9690 C   0  0  0  0  0  2  0  0  0  0  0  0
  194.8610  173.3520  137.8750 O   0  0  0  0  0  0  0  0  0  0  0  0
  191.5860  174.6860  137.2790 N   0  0  0  0  0  0  0  0  0  0  0  0
  194.1570  175.5400  137.9680 O   0  0  0  0  0  0  0  0  0  0  0  0
  192.6890  173.7710  136.9670 C   0  0  0  0  0  2  0  0  0  0  0  0
  193.9530  174.1940  137.6550 C   0  0  0  0  0  0  0  0  0  0  0  0
  185.6370  176.3970  136.9060 C   0  0  0  0  0  2  0  0  0  0  0  0
  183.5290  176.9920  138.7400 O   0  0  0  0  0  0  0  0  0  0  0  0
  184.4210  177.1330  136.5850 N   0  0  0  0  0  2  0  0  0  0  0  0
  183.4230  177.4330  137.5640 C   0  0  0  0  0  0  0  0  0  0  0  0
  182.3200  178.2170  137.2320 O   0  0  0  0  0  0  0  0  0  0  0  0
  181.5100  178.8300  138.2260 C   0  0  0  0  0  2  0  0  0  0  0  0
  182.0690  180.1980  138.5580 C   0  0  0  0  0  2  0  0  0  0  0  0
  181.0640  181.2700  138.1880 C   0  0  0  0  0  2  0  0  0  0  0  0
  181.7120  182.4850  138.0560 F   0  0  0  0  0  0  0  0  0  0  0  0
  1 28  1  6  0  0  0
  1  4  1  0  0  0  0
  1  5  1  0  0  0  0
  4  2  1  0  0  0  0
  5  3  1  6  0  0  0
  5  2  1  0  0  0  0
  5  6  1  0  0  0  0
  6  8  1  0  0  0  0
  7  8  2  0  0  0  0
  8  9  1  0  0  0  0
  9 11  1  0  0  0  0
 11 10  2  0  0  0  0
 11 12  1  0  0  0  0
 12 26  1  6  0  0  0
 13 14  1  1  0  0  0
 15 13  1  0  0  0  0
 15 14  1  1  0  0  0
 16 12  1  6  0  0  0
 16 15  1  0  0  0  0
 16 13  1  0  0  0  0
 17 18  1  0  0  0  0
 20 21  1  0  0  0  0
 21 25  2  0  0  0  0
 22 18  1  1  0  0  0
 22 13  1  0  0  0  0
 22 19  1  0  0  0  0
 23 17  2  0  0  0  0
 23 21  1  0  0  0  0
 24 19  1  0  0  0  0
 25 24  2  0  0  0  0
 26 27  1  0  0  0  0
 30 29  1  6  0  0  0
 30 44  1  0  0  0  0
 30 28  1  0  0  0  0
 32 30  1  0  0  0  0
 32 35  1  0  0  0  0
 33 35  1  0  0  0  0
 33 31  2  0  0  0  0
 34 32  2  0  0  0  0
 36 33  1  0  0  0  0
 36 40  1  0  0  0  0
 37 41  1  0  0  0  0
 38 40  1  0  0  0  0
 38 37  1  0  0  0  0
 42 40  1  0  0  0  0
 42 43  1  0  0  0  0
 43 39  2  0  0  0  0
 43 41  1  0  0  0  0
 46 44  1  0  0  0  0
 46 47  1  0  0  0  0
 47 45  2  0  0  0  0
 48 47  1  0  0  0  0
 48 49  1  0  0  0  0
 49 50  1  0  0  0  0
 51 50  1  0  0  0  0
 52 51  1  0  0  0  0
M  END
>  <MODEL>
6

>  <REMARK>
 VINA RESULT:      -6.2      3.149      8.654
  Name = 
  19 active torsions:
  status: ('A' for Active; 'I' for Inactive)
    1  A    between atoms: C_1  and  C_41
    2  A    between atoms: C_2  and  C_30
    3  A    between atoms: C_7  and  C_36
    4  A    between atoms: C_16  and  C_40
    5  A    between atoms: C_16  and  O_47
    6  A    between atoms: C_18  and  N_34
    7  A    between atoms: C_18  and  C_36
    8  A    between atoms: C_19  and  O_33
    9  A    between atoms: N_23  and  O_33
   10  A    between atoms: C_26  and  C_37
   11  A    between atoms: C_28  and  C_35
   12  A    between atoms: C_28  and  C_39
   13  A    between atoms: C_29  and  C_40
   14  A    between atoms: O_32  and  C_38
   15  A    between atoms: O_32  and  C_39
   16  A    between atoms: C_36  and  C_41
   17  A    between atoms: C_37  and  C_38
   18  A    between atoms: C_37  and  C_43
   19  A    between atoms: C_44  and  O_47
                            x       y       z     vdW  Elec       q    Type
                         _______ _______ _______ _____ _____    ______ ____

>  <TORSDO>
F 19

$$$$
=
 OpenBabel11062413483D

 52 56  0  0  1  0  0  0  0  0999 V2000
  187.2070  177.6340  138.8270 C   0  0  2  0  0  3  0  0  0  0  0  0
  187.2770  179.1380  140.1290 O   0  0  0  0  0  0  0  0  0  0  0  0
  189.4350  178.9270  139.0810 C   0  0  0  0  0  1  0  0  0  0  0  0
  186.3380  178.6020  139.3390 O   0  0  0  0  0  0  0  0  0  0  0  0
  188.2450  178.2190  139.7240 C   0  0  2  0  0  0  0  0  0  0  0  0
  188.6200  177.3140  140.8970 C   0  0  0  0  0  2  0  0  0  0  0  0
  190.6310  176.1780  140.3570 O   0  0  0  0  0  0  0  0  0  0  0  0
  190.0910  177.0880  141.0440 C   0  0  0  0  0  0  0  0  0  0  0  0
  190.8520  177.9070  141.8890 O   0  0  0  0  0  0  0  0  0  0  0  0
  190.7210  179.3910  143.6290 O   0  0  0  0  0  0  0  0  0  0  0  0
  190.5290  178.2170  143.2180 C   0  0  0  0  0  0  0  0  0  0  0  0
  190.0310  177.1690  144.1770 C   0  0  2  0  0  3  0  0  0  0  0  0
  189.3530  177.8530  146.6060 C   0  0  2  0  0  0  0  0  0  0  0  0
  189.3550  177.0060  147.7320 O   0  0  0  0  0  0  0  0  0  0  0  0
  189.7350  176.4170  146.5120 C   0  0  2  0  0  3  0  0  0  0  0  0
  190.4510  177.4220  145.6310 C   0  0  1  0  0  3  0  0  0  0  0  0
  187.0300  176.9160  143.9510 C   0  0  0  0  0  3  0  0  0  0  0  0
  187.3540  176.7690  145.4140 C   0  0  0  0  0  2  0  0  0  0  0  0
  187.0270  178.6090  147.1060 C   0  0  0  0  0  2  0  0  0  0  0  0
  183.9140  179.0910  143.4470 C   0  0  0  0  0  1  0  0  0  0  0  0
  185.0680  178.4920  144.1670 C   0  0  0  0  0  0  0  0  0  0  0  0
  187.9500  178.0560  146.0040 C   0  0  1  0  0  3  0  0  0  0  0  0
  186.0270  177.6440  143.4290 C   0  0  0  0  0  3  0  0  0  0  0  0
  185.6900  179.0950  146.6150 C   0  0  0  0  0  3  0  0  0  0  0  0
  185.3040  178.8370  145.3980 C   0  0  0  0  0  0  0  0  0  0  0  0
  190.4200  175.7640  143.7170 C   0  0  0  0  0  2  0  0  0  0  0  0
  191.8850  175.4540  143.9770 C   0  0  0  0  0  1  0  0  0  0  0  0
  187.4190  177.9000  137.3320 C   0  0  0  0  0  2  0  0  0  0  0  0
  186.2600  177.4670  135.2110 C   0  0  0  0  0  1  0  0  0  0  0  0
  186.8880  176.7850  136.4220 C   0  0  1  0  0  0  0  0  0  0  0  0
  190.0680  173.2540  137.3380 O   0  0  0  0  0  0  0  0  0  0  0  0
  188.0430  175.9130  135.9870 C   0  0  0  0  0  0  0  0  0  0  0  0
  189.9060  174.3290  136.7040 C   0  0  0  0  0  0  0  0  0  0  0  0
  188.3050  175.7790  134.7610 O   0  0  0  0  0  0  0  0  0  0  0  0
  188.7340  175.1130  136.9560 N   0  0  0  0  0  2  0  0  0  0  0  0
  190.8880  174.7320  135.7940 O   0  0  0  0  0  0  0  0  0  0  0  0
  193.9680  176.6100  135.4170 C   0  0  0  0  0  2  0  0  0  0  0  0
  192.9500  175.4920  135.2180 C   0  0  0  0  0  2  0  0  0  0  0  0
  193.6320  176.7200  138.9980 O   0  0  0  0  0  0  0  0  0  0  0  0
  191.7950  175.7310  136.0810 N   0  0  0  0  0  0  0  0  0  0  0  0
  194.2980  176.7480  136.7960 O   0  0  0  0  0  0  0  0  0  0  0  0
  192.2040  175.5490  137.4780 C   0  0  0  0  0  2  0  0  0  0  0  0
  193.3980  176.3960  137.8050 C   0  0  0  0  0  0  0  0  0  0  0  0
  185.7940  175.9790  137.1480 C   0  0  0  0  0  2  0  0  0  0  0  0
  183.3720  174.6780  137.9240 O   0  0  0  0  0  0  0  0  0  0  0  0
  184.7850  175.4600  136.2350 N   0  0  0  0  0  2  0  0  0  0  0  0
  183.5720  174.8550  136.6920 C   0  0  0  0  0  0  0  0  0  0  0  0
  182.5960  174.4540  135.7820 O   0  0  0  0  0  0  0  0  0  0  0  0
  181.8490  173.2590  135.9640 C   0  0  0  0  0  2  0  0  0  0  0  0
  182.5600  172.1110  135.2780 C   0  0  0  0  0  2  0  0  0  0  0  0
  183.0740  171.1290  136.3120 C   0  0  0  0  0  2  0  0  0  0  0  0
  182.6600  171.5240  137.5710 F   0  0  0  0  0  0  0  0  0  0  0  0
  1 28  1  6  0  0  0
  1  4  1  0  0  0  0
  1  5  1  0  0  0  0
  4  2  1  0  0  0  0
  5  3  1  6  0  0  0
  5  2  1  0  0  0  0
  5  6  1  0  0  0  0
  6  8  1  0  0  0  0
  7  8  2  0  0  0  0
  8  9  1  0  0  0  0
  9 11  1  0  0  0  0
 11 10  2  0  0  0  0
 11 12  1  0  0  0  0
 12 26  1  6  0  0  0
 13 14  1  1  0  0  0
 15 13  1  0  0  0  0
 15 14  1  1  0  0  0
 16 12  1  6  0  0  0
 16 15  1  0  0  0  0
 16 13  1  0  0  0  0
 17 18  1  0  0  0  0
 20 21  1  0  0  0  0
 21 25  2  0  0  0  0
 22 18  1  1  0  0  0
 22 13  1  0  0  0  0
 22 19  1  0  0  0  0
 23 17  2  0  0  0  0
 23 21  1  0  0  0  0
 24 19  1  0  0  0  0
 25 24  2  0  0  0  0
 26 27  1  0  0  0  0
 30 29  1  6  0  0  0
 30 44  1  0  0  0  0
 30 28  1  0  0  0  0
 32 30  1  0  0  0  0
 32 35  1  0  0  0  0
 33 35  1  0  0  0  0
 33 31  2  0  0  0  0
 34 32  2  0  0  0  0
 36 40  1  0  0  0  0
 36 33  1  0  0  0  0
 37 41  1  0  0  0  0
 38 37  1  0  0  0  0
 38 40  1  0  0  0  0
 40 42  1  0  0  0  0
 41 43  1  0  0  0  0
 42 43  1  0  0  0  0
 43 39  2  0  0  0  0
 46 47  1  0  0  0  0
 46 44  1  0  0  0  0
 47 45  2  0  0  0  0
 48 49  1  0  0  0  0
 48 47  1  0  0  0  0
 50 49  1  0  0  0  0
 50 51  1  0  0  0  0
 51 52  1  0  0  0  0
M  END
>  <MODEL>
7

>  <REMARK>
 VINA RESULT:      -6.0      3.824      8.916
  Name = 
  19 active torsions:
  status: ('A' for Active; 'I' for Inactive)
    1  A    between atoms: C_1  and  C_41
    2  A    between atoms: C_2  and  C_30
    3  A    between atoms: C_7  and  C_36
    4  A    between atoms: C_16  and  C_40
    5  A    between atoms: C_16  and  O_47
    6  A    between atoms: C_18  and  N_34
    7  A    between atoms: C_18  and  C_36
    8  A    between atoms: C_19  and  O_33
    9  A    between atoms: N_23  and  O_33
   10  A    between atoms: C_26  and  C_37
   11  A    between atoms: C_28  and  C_35
   12  A    between atoms: C_28  and  C_39
   13  A    between atoms: C_29  and  C_40
   14  A    between atoms: O_32  and  C_38
   15  A    between atoms: O_32  and  C_39
   16  A    between atoms: C_36  and  C_41
   17  A    between atoms: C_37  and  C_38
   18  A    between atoms: C_37  and  C_43
   19  A    between atoms: C_44  and  O_47
                            x       y       z     vdW  Elec       q    Type
                         _______ _______ _______ _____ _____    ______ ____

>  <TORSDO>
F 19

$$$$
=
 OpenBabel11062413483D

 52 56  0  0  1  0  0  0  0  0999 V2000
  190.0300  176.7080  139.4900 C   0  0  2  0  0  3  0  0  0  0  0  0
  190.6360  176.7590  137.5950 O   0  0  0  0  0  0  0  0  0  0  0  0
  189.4840  178.8150  138.0890 C   0  0  0  0  0  1  0  0  0  0  0  0
  191.0940  176.2140  138.7290 O   0  0  0  0  0  0  0  0  0  0  0  0
  189.5110  177.2940  138.2210 C   0  0  2  0  0  0  0  0  0  0  0  0
  188.2510  176.6030  137.6980 C   0  0  0  0  0  2  0  0  0  0  0  0
  187.2610  178.7560  137.6090 O   0  0  0  0  0  0  0  0  0  0  0  0
  187.1790  177.5480  137.2590 C   0  0  0  0  0  0  0  0  0  0  0  0
  186.1370  177.1010  136.4350 O   0  0  0  0  0  0  0  0  0  0  0  0
  185.8540  174.8380  136.6480 O   0  0  0  0  0  0  0  0  0  0  0  0
  185.3310  175.9820  136.6870 C   0  0  0  0  0  0  0  0  0  0  0  0
  183.8510  176.1110  136.9280 C   0  0  2  0  0  3  0  0  0  0  0  0
  182.2150  175.6420  138.9110 C   0  0  2  0  0  0  0  0  0  0  0  0
  181.1160  174.7620  138.8830 O   0  0  0  0  0  0  0  0  0  0  0  0
  181.8480  174.8790  137.6880 C   0  0  2  0  0  3  0  0  0  0  0  0
  183.3140  175.1290  137.9790 C   0  0  1  0  0  3  0  0  0  0  0  0
  180.0420  178.0110  137.1820 C   0  0  0  0  0  3  0  0  0  0  0  0
  180.3100  177.3100  138.4880 C   0  0  0  0  0  2  0  0  0  0  0  0
  182.2370  177.8850  140.0080 C   0  0  0  0  0  2  0  0  0  0  0  0
  180.9050  181.7380  137.4240 C   0  0  0  0  0  1  0  0  0  0  0  0
  180.8830  180.3060  137.8200 C   0  0  0  0  0  0  0  0  0  0  0  0
  181.8130  177.1190  138.7410 C   0  0  1  0  0  3  0  0  0  0  0  0
  180.2730  179.3100  136.9160 C   0  0  0  0  0  3  0  0  0  0  0  0
  182.1400  179.3820  139.8960 C   0  0  0  0  0  3  0  0  0  0  0  0
  181.5280  179.9250  138.8830 C   0  0  0  0  0  0  0  0  0  0  0  0
  183.0640  176.0190  135.6200 C   0  0  0  0  0  2  0  0  0  0  0  0
  183.0680  177.3290  134.8480 C   0  0  0  0  0  1  0  0  0  0  0  0
  190.5720  177.7260  140.4990 C   0  0  0  0  0  2  0  0  0  0  0  0
  190.3990  178.8140  142.6950 C   0  0  0  0  0  1  0  0  0  0  0  0
  189.9920  177.5710  141.9110 C   0  0  1  0  0  0  0  0  0  0  0  0
  185.7650  179.3900  140.4130 O   0  0  0  0  0  0  0  0  0  0  0  0
  188.4860  177.4870  141.8160 C   0  0  0  0  0  0  0  0  0  0  0  0
  186.3090  178.7180  141.3270 C   0  0  0  0  0  0  0  0  0  0  0  0
  187.9040  176.3830  141.9960 O   0  0  0  0  0  0  0  0  0  0  0  0
  187.7370  178.6230  141.3620 N   0  0  0  0  0  2  0  0  0  0  0  0
  185.4990  178.1070  142.2900 O   0  0  0  0  0  0  0  0  0  0  0  0
  185.2190  178.9240  145.8120 C   0  0  0  0  0  2  0  0  0  0  0  0
  185.6400  178.1680  144.5560 C   0  0  0  0  0  2  0  0  0  0  0  0
  181.7720  179.2760  144.8370 O   0  0  0  0  0  0  0  0  0  0  0  0
  185.0170  178.7870  143.3880 N   0  0  0  0  0  0  0  0  0  0  0  0
  183.7980  179.0080  145.8940 O   0  0  0  0  0  0  0  0  0  0  0  0
  183.5710  178.5440  143.4410 C   0  0  0  0  0  2  0  0  0  0  0  0
  182.9950  178.9930  144.7510 C   0  0  0  0  0  0  0  0  0  0  0  0
  190.5990  176.3370  142.6050 C   0  0  0  0  0  2  0  0  0  0  0  0
  192.3680  174.8940  144.3220 O   0  0  0  0  0  0  0  0  0  0  0  0
  190.6910  176.4990  144.0500 N   0  0  0  0  0  2  0  0  0  0  0  0
  191.6310  175.7720  144.8470 C   0  0  0  0  0  0  0  0  0  0  0  0
  191.7450  176.0250  146.2120 O   0  0  0  0  0  0  0  0  0  0  0  0
  191.1070  177.1380  146.8230 C   0  0  0  0  0  2  0  0  0  0  0  0
  189.7270  176.7290  147.2970 C   0  0  0  0  0  2  0  0  0  0  0  0
  189.0960  177.8590  148.0860 C   0  0  0  0  0  2  0  0  0  0  0  0
  187.7500  177.9410  147.7810 F   0  0  0  0  0  0  0  0  0  0  0  0
  1 28  1  1  0  0  0
  2  5  1  0  0  0  0
  2  4  1  0  0  0  0
  4  1  1  0  0  0  0
  5  3  1  6  0  0  0
  5  1  1  0  0  0  0
  6  5  1  0  0  0  0
  8  7  2  0  0  0  0
  8  6  1  0  0  0  0
  9 11  1  0  0  0  0
  9  8  1  0  0  0  0
 10 11  2  0  0  0  0
 11 12  1  0  0  0  0
 12 26  1  6  0  0  0
 13 14  1  1  0  0  0
 15 16  1  0  0  0  0
 15 14  1  1  0  0  0
 15 13  1  0  0  0  0
 16 12  1  6  0  0  0
 16 13  1  0  0  0  0
 17 18  1  0  0  0  0
 20 21  1  0  0  0  0
 21 25  2  0  0  0  0
 22 18  1  1  0  0  0
 22 13  1  0  0  0  0
 22 19  1  0  0  0  0
 23 17  2  0  0  0  0
 23 21  1  0  0  0  0
 24 19  1  0  0  0  0
 25 24  2  0  0  0  0
 27 26  1  0  0  0  0
 28 30  1  0  0  0  0
 30 44  1  0  0  0  0
 30 29  1  1  0  0  0
 31 33  2  0  0  0  0
 32 30  1  0  0  0  0
 32 34  2  0  0  0  0
 33 35  1  0  0  0  0
 33 36  1  0  0  0  0
 35 32  1  0  0  0  0
 36 40  1  0  0  0  0
 37 41  1  0  0  0  0
 38 37  1  0  0  0  0
 40 42  1  0  0  0  0
 40 38  1  0  0  0  0
 42 43  1  0  0  0  0
 43 39  2  0  0  0  0
 43 41  1  0  0  0  0
 44 46  1  0  0  0  0
 45 47  2  0  0  0  0
 46 47  1  0  0  0  0
 47 48  1  0  0  0  0
 48 49  1  0  0  0  0
 49 50  1  0  0  0  0
 50 51  1  0  0  0  0
 52 51  1  0  0  0  0
M  END
>  <MODEL>
8

>  <REMARK>
 VINA RESULT:      -5.9      2.100      5.901
  Name = 
  19 active torsions:
  status: ('A' for Active; 'I' for Inactive)
    1  A    between atoms: C_1  and  C_41
    2  A    between atoms: C_2  and  C_30
    3  A    between atoms: C_7  and  C_36
    4  A    between atoms: C_16  and  C_40
    5  A    between atoms: C_16  and  O_47
    6  A    between atoms: C_18  and  N_34
    7  A    between atoms: C_18  and  C_36
    8  A    between atoms: C_19  and  O_33
    9  A    between atoms: N_23  and  O_33
   10  A    between atoms: C_26  and  C_37
   11  A    between atoms: C_28  and  C_35
   12  A    between atoms: C_28  and  C_39
   13  A    between atoms: C_29  and  C_40
   14  A    between atoms: O_32  and  C_38
   15  A    between atoms: O_32  and  C_39
   16  A    between atoms: C_36  and  C_41
   17  A    between atoms: C_37  and  C_38
   18  A    between atoms: C_37  and  C_43
   19  A    between atoms: C_44  and  O_47
                            x       y       z     vdW  Elec       q    Type
                         _______ _______ _______ _____ _____    ______ ____

>  <TORSDO>
F 19

$$$$
=
 OpenBabel11062413483D

 52 56  0  0  1  0  0  0  0  0999 V2000
  183.6060  177.1360  138.4140 C   0  0  2  0  0  3  0  0  0  0  0  0
  182.3660  178.5340  139.1000 O   0  0  0  0  0  0  0  0  0  0  0  0
  184.6260  179.3400  139.3120 C   0  0  0  0  0  1  0  0  0  0  0  0
  182.3110  177.5910  138.1510 O   0  0  0  0  0  0  0  0  0  0  0  0
  183.6570  178.1720  139.4850 C   0  0  2  0  0  0  0  0  0  0  0  0
  183.6310  177.5920  140.9000 C   0  0  0  0  0  2  0  0  0  0  0  0
  182.4840  178.9170  142.4980 O   0  0  0  0  0  0  0  0  0  0  0  0
  183.5960  178.6260  141.9790 C   0  0  0  0  0  0  0  0  0  0  0  0
  184.7840  179.2150  142.4330 O   0  0  0  0  0  0  0  0  0  0  0  0
  185.1350  178.5440  144.5940 O   0  0  0  0  0  0  0  0  0  0  0  0
  185.6110  178.6950  143.4390 C   0  0  0  0  0  0  0  0  0  0  0  0
  187.0630  178.3870  143.1900 C   0  0  2  0  0  3  0  0  0  0  0  0
  189.0170  178.5590  141.4640 C   0  0  2  0  0  0  0  0  0  0  0  0
  189.1660  177.7710  140.3060 O   0  0  0  0  0  0  0  0  0  0  0  0
  188.0470  177.4890  141.1090 C   0  0  2  0  0  3  0  0  0  0  0  0
  187.5310  178.7490  141.7740 C   0  0  1  0  0  3  0  0  0  0  0  0
  190.9360  175.8050  142.8970 C   0  0  0  0  0  3  0  0  0  0  0  0
  191.0240  177.1360  142.1980 C   0  0  0  0  0  2  0  0  0  0  0  0
  190.5010  179.3340  143.3160 C   0  0  0  0  0  2  0  0  0  0  0  0
  192.0360  176.1020  146.5570 C   0  0  0  0  0  1  0  0  0  0  0  0
  191.6010  176.5630  145.2130 C   0  0  0  0  0  0  0  0  0  0  0  0
  189.9010  178.0900  142.6340 C   0  0  1  0  0  3  0  0  0  0  0  0
  191.2110  175.5690  144.1930 C   0  0  0  0  0  3  0  0  0  0  0  0
  191.1860  179.0590  144.6270 C   0  0  0  0  0  3  0  0  0  0  0  0
  191.4290  177.8340  144.9960 C   0  0  0  0  0  0  0  0  0  0  0  0
  187.3900  176.9340  143.5340 C   0  0  0  0  0  2  0  0  0  0  0  0
  187.7690  176.7560  144.9960 C   0  0  0  0  0  1  0  0  0  0  0  0
  184.4900  177.4220  137.1950 C   0  0  0  0  0  2  0  0  0  0  0  0
  184.8540  176.1650  135.1170 C   0  0  0  0  0  1  0  0  0  0  0  0
  185.1630  176.1740  136.6100 C   0  0  1  0  0  0  0  0  0  0  0  0
  189.6060  177.1400  134.9490 O   0  0  0  0  0  0  0  0  0  0  0  0
  186.6550  176.2720  136.8310 C   0  0  0  0  0  0  0  0  0  0  0  0
  188.9640  176.4240  135.7610 C   0  0  0  0  0  0  0  0  0  0  0  0
  187.1140  176.3630  138.0020 O   0  0  0  0  0  0  0  0  0  0  0  0
  187.5320  176.4270  135.7060 N   0  0  0  0  0  2  0  0  0  0  0  0
  189.6710  175.6320  136.6710 O   0  0  0  0  0  0  0  0  0  0  0  0
  192.9400  174.0870  136.9540 C   0  0  0  0  0  2  0  0  0  0  0  0
  191.4200  174.2170  136.9800 C   0  0  0  0  0  2  0  0  0  0  0  0
  193.5540  177.1300  138.7740 O   0  0  0  0  0  0  0  0  0  0  0  0
  191.0490  175.6040  136.7100 N   0  0  0  0  0  0  0  0  0  0  0  0
  193.5380  175.0260  137.8440 O   0  0  0  0  0  0  0  0  0  0  0  0
  191.4620  176.4320  137.8480 C   0  0  0  0  0  2  0  0  0  0  0  0
  192.9170  176.2370  138.1580 C   0  0  0  0  0  0  0  0  0  0  0  0
  184.5670  174.9010  137.2380 C   0  0  0  0  0  2  0  0  0  0  0  0
  183.8540  172.1350  137.2050 O   0  0  0  0  0  0  0  0  0  0  0  0
  183.5230  174.3080  136.4130 N   0  0  0  0  0  2  0  0  0  0  0  0
  183.1880  172.9190  136.4770 C   0  0  0  0  0  0  0  0  0  0  0  0
  182.1230  172.4140  135.7350 O   0  0  0  0  0  0  0  0  0  0  0  0
  180.7730  172.6090  136.1340 C   0  0  0  0  0  2  0  0  0  0  0  0
  180.6510  172.3860  137.6280 C   0  0  0  0  0  2  0  0  0  0  0  0
  180.0160  173.5970  138.2810 C   0  0  0  0  0  2  0  0  0  0  0  0
  180.9350  174.6280  138.3370 F   0  0  0  0  0  0  0  0  0  0  0  0
  1 28  1  6  0  0  0
  1  5  1  0  0  0  0
  2  5  1  0  0  0  0
  4  1  1  0  0  0  0
  4  2  1  0  0  0  0
  5  3  1  6  0  0  0
  5  6  1  0  0  0  0
  6  8  1  0  0  0  0
  8  9  1  0  0  0  0
  8  7  2  0  0  0  0
  9 11  1  0  0  0  0
 11 10  2  0  0  0  0
 12 11  1  0  0  0  0
 12 26  1  6  0  0  0
 13 14  1  6  0  0  0
 13 16  1  0  0  0  0
 13 22  1  0  0  0  0
 15 14  1  6  0  0  0
 15 13  1  0  0  0  0
 15 16  1  0  0  0  0
 16 12  1  1  0  0  0
 17 23  2  0  0  0  0
 18 17  1  0  0  0  0
 19 24  1  0  0  0  0
 21 20  1  0  0  0  0
 22 18  1  6  0  0  0
 22 19  1  0  0  0  0
 23 21  1  0  0  0  0
 24 25  2  0  0  0  0
 25 21  2  0  0  0  0
 26 27  1  0  0  0  0
 30 29  1  6  0  0  0
 30 32  1  0  0  0  0
 30 28  1  0  0  0  0
 30 44  1  0  0  0  0
 31 33  2  0  0  0  0
 32 34  2  0  0  0  0
 33 36  1  0  0  0  0
 35 33  1  0  0  0  0
 35 32  1  0  0  0  0
 36 40  1  0  0  0  0
 37 38  1  0  0  0  0
 37 41  1  0  0  0  0
 40 38  1  0  0  0  0
 40 42  1  0  0  0  0
 41 43  1  0  0  0  0
 42 43  1  0  0  0  0
 43 39  2  0  0  0  0
 46 47  1  0  0  0  0
 46 44  1  0  0  0  0
 47 45  2  0  0  0  0
 48 49  1  0  0  0  0
 48 47  1  0  0  0  0
 49 50  1  0  0  0  0
 50 51  1  0  0  0  0
 51 52  1  0  0  0  0
M  END
>  <MODEL>
9

>  <REMARK>
 VINA RESULT:      -5.8      3.287      8.457
  Name = 
  19 active torsions:
  status: ('A' for Active; 'I' for Inactive)
    1  A    between atoms: C_1  and  C_41
    2  A    between atoms: C_2  and  C_30
    3  A    between atoms: C_7  and  C_36
    4  A    between atoms: C_16  and  C_40
    5  A    between atoms: C_16  and  O_47
    6  A    between atoms: C_18  and  N_34
    7  A    between atoms: C_18  and  C_36
    8  A    between atoms: C_19  and  O_33
    9  A    between atoms: N_23  and  O_33
   10  A    between atoms: C_26  and  C_37
   11  A    between atoms: C_28  and  C_35
   12  A    between atoms: C_28  and  C_39
   13  A    between atoms: C_29  and  C_40
   14  A    between atoms: O_32  and  C_38
   15  A    between atoms: O_32  and  C_39
   16  A    between atoms: C_36  and  C_41
   17  A    between atoms: C_37  and  C_38
   18  A    between atoms: C_37  and  C_43
   19  A    between atoms: C_44  and  O_47
                            x       y       z     vdW  Elec       q    Type
                         _______ _______ _______ _____ _____    ______ ____

>  <TORSDO>
F 19

$$$$
