=
 OpenBabel11062413433D

 35 38  0  0  1  0  0  0  0  0999 V2000
  191.9370  178.2270  144.4070 N   0  0  0  0  0  2  0  0  0  0  0  0
  189.9490  177.3350  143.3310 C   0  0  0  0  0  0  0  0  0  0  0  0
  191.5610  177.4300  145.5190 N   0  0  0  0  0  2  0  0  0  0  0  0
  187.7070  176.9720  142.9940 C   0  0  1  0  0  3  0  0  0  0  0  0
  185.7720  178.4250  143.5490 C   0  0  0  0  0  3  0  0  0  0  0  0
  189.0490  177.2360  142.3550 C   0  0  2  0  0  3  0  0  0  0  0  0
  185.8960  178.0510  144.9870 C   0  0  0  0  0  0  0  0  0  0  0  0
  187.0120  177.4650  145.4380 C   0  0  0  0  0  3  0  0  0  0  0  0
  188.0370  177.0940  144.4570 C   0  0  2  0  0  3  0  0  0  0  0  0
  190.1310  177.6360  145.8140 C   0  0  0  0  0  2  0  0  0  0  0  0
  189.3410  177.2300  144.6160 C   0  0  0  0  0  0  0  0  0  0  0  0
  186.6390  177.9730  142.6290 C   0  0  0  0  0  3  0  0  0  0  0  0
  191.3190  177.7130  143.2440 N   0  0  0  0  0  2  0  0  0  0  0  0
  188.4310  178.0330  140.0760 C   0  0  0  0  0  3  0  0  0  0  0  0
  189.3060  177.3240  140.8990 C   0  0  0  0  0  0  0  0  0  0  0  0
  190.0020  177.5680  136.9190 O   0  0  0  0  0  0  0  0  0  0  0  0
  189.7920  177.4880  138.1610 C   0  0  0  0  0  0  0  0  0  0  0  0
  187.8080  178.8060  137.9150 F   0  0  0  0  0  0  0  0  0  0  0  0
  190.6520  176.7910  138.9690 N   0  0  0  0  0  0  0  0  0  0  0  0
  188.6680  178.1170  138.7060 C   0  0  0  0  0  0  0  0  0  0  0  0
  190.4180  176.7060  140.3140 C   0  0  0  0  0  3  0  0  0  0  0  0
  191.8030  176.1500  138.3930 C   0  0  0  0  0  3  0  0  0  0  0  0
  193.0460  176.5860  138.5860 C   0  0  0  0  0  2  0  0  0  0  0  0
  184.8420  178.4560  145.9670 C   0  0  1  0  0  3  0  0  0  0  0  0
  185.4390  179.0110  147.0990 O   0  0  0  0  0  1  0  0  0  0  0  0
  183.9340  179.4250  145.3700 N   0  0  0  0  0  2  0  0  0  0  0  0
  182.8470  178.6880  144.7400 C   0  0  0  0  0  2  0  0  0  0  0  0
  182.4270  179.3690  143.4470 C   0  0  0  0  0  2  0  0  0  0  0  0
  181.4700  178.5940  142.7900 O   0  0  0  0  0  0  0  0  0  0  0  0
  181.7580  178.7560  141.4340 C   0  0  0  0  0  2  0  0  0  0  0  0
  183.1660  178.2650  141.1430 C   0  0  0  0  0  2  0  0  0  0  0  0
  183.6610  178.8020  139.8080 C   0  0  2  0  0  3  0  0  0  0  0  0
  184.7450  179.6560  140.0190 O   0  0  0  0  0  1  0  0  0  0  0  0
  182.5510  179.5700  139.1150 C   0  0  0  0  0  2  0  0  0  0  0  0
  182.3920  179.1030  137.8080 O   0  0  0  0  0  1  0  0  0  0  0  0
  1  3  1  0  0  0  0
  2 11  2  0  0  0  0
  3 10  1  0  0  0  0
  4 12  1  6  0  0  0
  4  9  1  0  0  0  0
  5  7  1  0  0  0  0
  6 15  1  6  0  0  0
  6  4  1  0  0  0  0
  6  2  1  0  0  0  0
  7  8  2  0  0  0  0
  7 24  1  0  0  0  0
  9 11  1  0  0  0  0
  9  8  1  6  0  0  0
 11 10  1  0  0  0  0
 12  5  2  0  0  0  0
 13  2  1  0  0  0  0
 13  1  1  0  0  0  0
 14 15  1  0  0  0  0
 16 17  2  0  0  0  0
 17 20  1  0  0  0  0
 17 19  1  0  0  0  0
 18 20  1  0  0  0  0
 19 21  1  0  0  0  0
 20 14  2  0  0  0  0
 21 15  2  0  0  0  0
 22 23  2  0  0  0  0
 22 19  1  0  0  0  0
 24 25  1  1  0  0  0
 26 24  1  0  0  0  0
 27 26  1  0  0  0  0
 28 27  1  0  0  0  0
 29 28  1  0  0  0  0
 30 29  1  0  0  0  0
 31 30  1  0  0  0  0
 32 33  1  1  0  0  0
 32 31  1  0  0  0  0
 34 32  1  0  0  0  0
 35 34  1  0  0  0  0
M  END
>  <MODEL>
1

>  <REMARK>
 VINA RESULT:      -8.6      0.000      0.000
  Name = 
  11 active torsions:
  status: ('A' for Active; 'I' for Inactive)
    1  A    between atoms: N_2  and  C_16
    2  A    between atoms: N_2  and  C_21
    3  A    between atoms: C_4  and  N_27
    4  A    between atoms: C_6  and  C_8
    5  A    between atoms: C_6  and  O_18
    6  A    between atoms: C_7  and  C_14
    7  A    between atoms: C_8  and  C_17
    8  A    between atoms: C_11  and  C_17
    9  A    between atoms: C_16  and  C_19
   10  A    between atoms: O_18  and  C_19
   11  A    between atoms: C_20  and  C_21
                            x       y       z     vdW  Elec       q    Type
                         _______ _______ _______ _____ _____    ______ ____

>  <TORSDO>
F 11

$$$$
=
 OpenBabel11062413433D

 35 38  0  0  1  0  0  0  0  0999 V2000
  191.9050  178.2870  144.4510 N   0  0  0  0  0  2  0  0  0  0  0  0
  189.9550  177.3420  143.3510 C   0  0  0  0  0  0  0  0  0  0  0  0
  191.4950  177.5360  145.5830 N   0  0  0  0  0  2  0  0  0  0  0  0
  187.7260  176.9550  142.9580 C   0  0  1  0  0  3  0  0  0  0  0  0
  185.7700  178.4220  143.3880 C   0  0  0  0  0  3  0  0  0  0  0  0
  189.0870  177.1980  142.3520 C   0  0  2  0  0  3  0  0  0  0  0  0
  185.8480  178.1090  144.8440 C   0  0  0  0  0  0  0  0  0  0  0  0
  186.9510  177.5480  145.3550 C   0  0  0  0  0  3  0  0  0  0  0  0
  188.0080  177.1400  144.4240 C   0  0  2  0  0  3  0  0  0  0  0  0
  190.0560  177.7490  145.8230 C   0  0  0  0  0  2  0  0  0  0  0  0
  189.3060  177.2890  144.6190 C   0  0  0  0  0  0  0  0  0  0  0  0
  186.6670  177.9350  142.5160 C   0  0  0  0  0  3  0  0  0  0  0  0
  191.3260  177.7220  143.2920 N   0  0  0  0  0  2  0  0  0  0  0  0
  190.5870  176.6860  140.4290 C   0  0  0  0  0  3  0  0  0  0  0  0
  189.3910  177.2250  140.9030 C   0  0  0  0  0  0  0  0  0  0  0  0
  190.2310  177.2960  136.9430 O   0  0  0  0  0  0  0  0  0  0  0  0
  189.9630  177.2780  138.1760 C   0  0  0  0  0  0  0  0  0  0  0  0
  192.0470  176.1850  138.6190 F   0  0  0  0  0  0  0  0  0  0  0  0
  188.7880  177.8090  138.6410 N   0  0  0  0  0  0  0  0  0  0  0  0
  190.8790  176.7100  139.0670 C   0  0  0  0  0  0  0  0  0  0  0  0
  188.5020  177.7870  139.9780 C   0  0  0  0  0  3  0  0  0  0  0  0
  187.8560  178.3890  137.7110 C   0  0  0  0  0  3  0  0  0  0  0  0
  186.6990  177.8140  137.3930 C   0  0  0  0  0  2  0  0  0  0  0  0
  184.7620  178.5510  145.7710 C   0  0  1  0  0  3  0  0  0  0  0  0
  185.3180  179.1940  146.8780 O   0  0  0  0  0  1  0  0  0  0  0  0
  183.8460  179.4560  145.0920 N   0  0  0  0  0  2  0  0  0  0  0  0
  182.7450  178.6610  144.5650 C   0  0  0  0  0  2  0  0  0  0  0  0
  182.1230  179.3530  143.3620 C   0  0  0  0  0  2  0  0  0  0  0  0
  180.9620  178.6820  142.9750 O   0  0  0  0  0  0  0  0  0  0  0  0
  180.8940  178.8660  141.5930 C   0  0  0  0  0  2  0  0  0  0  0  0
  182.1010  178.2280  140.9270 C   0  0  0  0  0  2  0  0  0  0  0  0
  182.4740  178.9750  139.6550 C   0  0  2  0  0  3  0  0  0  0  0  0
  181.9630  178.2990  138.5470 O   0  0  0  0  0  1  0  0  0  0  0  0
  183.9840  179.0630  139.5310 C   0  0  0  0  0  2  0  0  0  0  0  0
  184.3560  180.3520  139.1430 O   0  0  0  0  0  1  0  0  0  0  0  0
  1  3  1  0  0  0  0
  2 11  2  0  0  0  0
  3 10  1  0  0  0  0
  4 12  1  6  0  0  0
  4  9  1  0  0  0  0
  5  7  1  0  0  0  0
  6 15  1  6  0  0  0
  6  4  1  0  0  0  0
  6  2  1  0  0  0  0
  7  8  2  0  0  0  0
  7 24  1  0  0  0  0
  9 11  1  0  0  0  0
  9  8  1  6  0  0  0
 11 10  1  0  0  0  0
 12  5  2  0  0  0  0
 13  2  1  0  0  0  0
 13  1  1  0  0  0  0
 14 15  1  0  0  0  0
 16 17  2  0  0  0  0
 17 19  1  0  0  0  0
 17 20  1  0  0  0  0
 18 20  1  0  0  0  0
 19 21  1  0  0  0  0
 20 14  2  0  0  0  0
 21 15  2  0  0  0  0
 22 19  1  0  0  0  0
 23 22  2  0  0  0  0
 24 25  1  1  0  0  0
 26 24  1  0  0  0  0
 27 26  1  0  0  0  0
 28 27  1  0  0  0  0
 29 28  1  0  0  0  0
 30 29  1  0  0  0  0
 31 30  1  0  0  0  0
 32 33  1  6  0  0  0
 32 31  1  0  0  0  0
 34 32  1  0  0  0  0
 35 34  1  0  0  0  0
M  END
>  <MODEL>
2

>  <REMARK>
 VINA RESULT:      -8.4      1.137      1.990
  Name = 
  11 active torsions:
  status: ('A' for Active; 'I' for Inactive)
    1  A    between atoms: N_2  and  C_16
    2  A    between atoms: N_2  and  C_21
    3  A    between atoms: C_4  and  N_27
    4  A    between atoms: C_6  and  C_8
    5  A    between atoms: C_6  and  O_18
    6  A    between atoms: C_7  and  C_14
    7  A    between atoms: C_8  and  C_17
    8  A    between atoms: C_11  and  C_17
    9  A    between atoms: C_16  and  C_19
   10  A    between atoms: O_18  and  C_19
   11  A    between atoms: C_20  and  C_21
                            x       y       z     vdW  Elec       q    Type
                         _______ _______ _______ _____ _____    ______ ____

>  <TORSDO>
F 11

$$$$
=
 OpenBabel11062413433D

 35 38  0  0  1  0  0  0  0  0999 V2000
  184.7770  179.5240  146.2900 N   0  0  0  0  0  2  0  0  0  0  0  0
  185.9930  178.1370  144.7070 C   0  0  0  0  0  0  0  0  0  0  0  0
  183.6070  178.9520  145.7260 N   0  0  0  0  0  2  0  0  0  0  0  0
  186.6990  177.3890  142.6540 C   0  0  1  0  0  3  0  0  0  0  0  0
  186.9550  178.6370  140.5240 C   0  0  0  0  0  3  0  0  0  0  0  0
  187.0810  177.6930  144.0830 C   0  0  0  0  0  0  0  0  0  0  0  0
  185.4780  178.6180  140.3270 C   0  0  0  0  0  0  0  0  0  0  0  0
  184.6660  178.3150  141.3470 C   0  0  0  0  0  3  0  0  0  0  0  0
  185.2780  177.8840  142.6080 C   0  0  2  0  0  3  0  0  0  0  0  0
  183.6870  179.0120  144.2550 C   0  0  0  0  0  2  0  0  0  0  0  0
  184.8840  178.2370  143.8170 C   0  0  0  0  0  0  0  0  0  0  0  0
  187.5250  178.1190  141.6230 C   0  0  0  0  0  3  0  0  0  0  0  0
  185.8760  178.6780  146.0190 N   0  0  0  0  0  2  0  0  0  0  0  0
  189.5190  177.2310  143.8540 C   0  0  0  0  0  3  0  0  0  0  0  0
  188.4220  177.4870  144.6770 C   0  0  0  0  0  0  0  0  0  0  0  0
  192.0900  176.9210  146.2930 O   0  0  0  0  0  0  0  0  0  0  0  0
  190.9440  177.0980  145.7960 C   0  0  0  0  0  0  0  0  0  0  0  0
  191.8410  176.7830  143.5990 F   0  0  0  0  0  0  0  0  0  0  0  0
  189.8660  177.3490  146.6050 N   0  0  0  0  0  0  0  0  0  0  0  0
  190.7820  177.0350  144.4080 C   0  0  0  0  0  0  0  0  0  0  0  0
  188.6250  177.5390  146.0610 C   0  0  0  0  0  2  0  0  0  0  0  0
  190.0490  177.4110  148.0300 C   0  0  0  0  0  3  0  0  0  0  0  0
  189.4460  178.3160  148.7980 C   0  0  0  0  0  2  0  0  0  0  0  0
  184.8810  179.0780  139.0360 C   0  0  1  0  0  3  0  0  0  0  0  0
  184.4690  180.4060  139.1530 O   0  0  0  0  0  1  0  0  0  0  0  0
  185.8490  178.9620  137.9550 N   0  0  0  0  0  2  0  0  0  0  0  0
  185.7990  177.5940  137.4570 C   0  0  0  0  0  2  0  0  0  0  0  0
  187.1530  177.1840  136.9010 C   0  0  0  0  0  2  0  0  0  0  0  0
  188.0440  178.2550  136.9780 O   0  0  0  0  0  0  0  0  0  0  0  0
  189.2930  177.6610  137.1590 C   0  0  0  0  0  2  0  0  0  0  0  0
  189.7790  177.8990  138.5780 C   0  0  0  0  0  2  0  0  0  0  0  0
  190.1530  176.5860  139.2500 C   0  0  2  0  0  3  0  0  0  0  0  0
  190.7630  176.8440  140.4780 O   0  0  0  0  0  1  0  0  0  0  0  0
  191.1160  175.8110  138.3700 C   0  0  0  0  0  2  0  0  0  0  0  0
  190.5160  174.6280  137.9320 O   0  0  0  0  0  1  0  0  0  0  0  0
  2 13  1  0  0  0  0
  3  1  1  0  0  0  0
  4 12  1  6  0  0  0
  4  6  1  0  0  0  0
  5 12  2  0  0  0  0
  6 15  2  0  0  0  0
  6  2  1  0  0  0  0
  7  5  1  0  0  0  0
  7  8  2  0  0  0  0
  9  8  1  6  0  0  0
  9  4  1  0  0  0  0
  9 11  1  0  0  0  0
 10  3  1  0  0  0  0
 11 10  1  0  0  0  0
 11  2  2  0  0  0  0
 13  1  1  0  0  0  0
 14 20  2  0  0  0  0
 14 15  1  0  0  0  0
 15 21  1  0  0  0  0
 17 16  2  0  0  0  0
 17 19  1  0  0  0  0
 18 20  1  0  0  0  0
 19 22  1  0  0  0  0
 20 17  1  0  0  0  0
 21 19  1  0  0  0  0
 22 23  2  0  0  0  0
 24 25  1  1  0  0  0
 24  7  1  0  0  0  0
 26 24  1  0  0  0  0
 27 26  1  0  0  0  0
 28 29  1  0  0  0  0
 28 27  1  0  0  0  0
 29 30  1  0  0  0  0
 30 31  1  0  0  0  0
 31 32  1  0  0  0  0
 32 33  1  1  0  0  0
 34 32  1  0  0  0  0
 35 34  1  0  0  0  0
M  END
>  <MODEL>
3

>  <REMARK>
 VINA RESULT:      -8.3      2.656      6.944
  Name = 
  11 active torsions:
  status: ('A' for Active; 'I' for Inactive)
    1  A    between atoms: N_2  and  C_16
    2  A    between atoms: N_2  and  C_21
    3  A    between atoms: C_4  and  N_27
    4  A    between atoms: C_6  and  C_8
    5  A    between atoms: C_6  and  O_18
    6  A    between atoms: C_7  and  C_14
    7  A    between atoms: C_8  and  C_17
    8  A    between atoms: C_11  and  C_17
    9  A    between atoms: C_16  and  C_19
   10  A    between atoms: O_18  and  C_19
   11  A    between atoms: C_20  and  C_21
                            x       y       z     vdW  Elec       q    Type
                         _______ _______ _______ _____ _____    ______ ____

>  <TORSDO>
F 11

$$$$
=
 OpenBabel11062413433D

 35 38  0  0  1  0  0  0  0  0999 V2000
  186.0200  179.4340  141.1600 N   0  0  0  0  0  2  0  0  0  0  0  0
  187.6090  177.8590  142.1100 C   0  0  0  0  0  0  0  0  0  0  0  0
  186.0940  178.6360  139.9890 N   0  0  0  0  0  2  0  0  0  0  0  0
  189.6030  176.7470  142.3450 C   0  0  1  0  0  3  0  0  0  0  0  0
  191.9060  177.5070  141.8120 C   0  0  0  0  0  3  0  0  0  0  0  0
  188.4360  177.3990  143.0450 C   0  0  2  0  0  3  0  0  0  0  0  0
  191.6460  177.2960  140.3600 C   0  0  0  0  0  0  0  0  0  0  0  0
  190.3930  177.1480  139.9130 C   0  0  0  0  0  3  0  0  0  0  0  0
  189.3150  177.0730  140.9050 C   0  0  2  0  0  3  0  0  0  0  0  0
  187.5060  178.3750  139.6580 C   0  0  0  0  0  2  0  0  0  0  0  0
  188.1300  177.6460  140.8000 C   0  0  0  0  0  0  0  0  0  0  0  0
  190.9500  177.3080  142.7330 C   0  0  0  0  0  3  0  0  0  0  0  0
  186.4450  178.6650  142.2670 N   0  0  0  0  0  2  0  0  0  0  0  0
  186.9800  177.7530  145.0370 C   0  0  0  0  0  3  0  0  0  0  0  0
  188.2410  177.4660  144.5120 C   0  0  0  0  0  0  0  0  0  0  0  0
  187.6980  177.6540  148.5190 O   0  0  0  0  0  0  0  0  0  0  0  0
  187.8750  177.5950  147.2710 C   0  0  0  0  0  0  0  0  0  0  0  0
  185.5620  178.1010  146.9140 F   0  0  0  0  0  0  0  0  0  0  0  0
  189.1130  177.3130  146.7560 N   0  0  0  0  0  0  0  0  0  0  0  0
  186.7910  177.8190  146.4150 C   0  0  0  0  0  0  0  0  0  0  0  0
  189.2990  177.2510  145.4020 C   0  0  0  0  0  3  0  0  0  0  0  0
  190.2170  177.0850  147.6490 C   0  0  0  0  0  3  0  0  0  0  0  0
  191.3840  176.5890  147.2440 C   0  0  0  0  0  2  0  0  0  0  0  0
  192.7620  177.3940  139.3700 C   0  0  1  0  0  3  0  0  0  0  0  0
  193.9230  176.8410  139.9100 O   0  0  0  0  0  1  0  0  0  0  0  0
  192.4170  176.6980  138.1390 N   0  0  0  0  0  2  0  0  0  0  0  0
  193.4890  175.7570  137.8440 C   0  0  0  0  0  2  0  0  0  0  0  0
  194.0340  175.9990  136.4450 C   0  0  0  0  0  2  0  0  0  0  0  0
  195.4130  175.7860  136.4270 O   0  0  0  0  0  0  0  0  0  0  0  0
  195.5620  174.4230  136.6850 C   0  0  0  0  0  2  0  0  0  0  0  0
  196.9420  174.1530  137.2590 C   0  0  0  0  0  2  0  0  0  0  0  0
  196.8470  173.7260  138.7160 C   0  0  2  0  0  3  0  0  0  0  0  0
  195.5580  173.2690  138.9890 O   0  0  0  0  0  1  0  0  0  0  0  0
  197.1600  174.9020  139.6220 C   0  0  0  0  0  2  0  0  0  0  0  0
  198.1460  175.7020  139.0420 O   0  0  0  0  0  1  0  0  0  0  0  0
  1 13  1  0  0  0  0
  2 13  1  0  0  0  0
  2  6  1  0  0  0  0
  3  1  1  0  0  0  0
  4 12  1  1  0  0  0
  4  6  1  0  0  0  0
  5 12  2  0  0  0  0
  6 15  1  1  0  0  0
  7  5  1  0  0  0  0
  8  7  2  0  0  0  0
  9  8  1  1  0  0  0
  9  4  1  0  0  0  0
 10  3  1  0  0  0  0
 10 11  1  0  0  0  0
 11  9  1  0  0  0  0
 11  2  2  0  0  0  0
 14 20  2  0  0  0  0
 15 14  1  0  0  0  0
 15 21  2  0  0  0  0
 17 16  2  0  0  0  0
 19 17  1  0  0  0  0
 19 22  1  0  0  0  0
 20 18  1  0  0  0  0
 20 17  1  0  0  0  0
 21 19  1  0  0  0  0
 23 22  2  0  0  0  0
 24 25  1  1  0  0  0
 24  7  1  0  0  0  0
 26 24  1  0  0  0  0
 27 26  1  0  0  0  0
 28 27  1  0  0  0  0
 29 28  1  0  0  0  0
 29 30  1  0  0  0  0
 30 31  1  0  0  0  0
 31 32  1  0  0  0  0
 32 33  1  1  0  0  0
 32 34  1  0  0  0  0
 35 34  1  0  0  0  0
M  END
>  <MODEL>
4

>  <REMARK>
 VINA RESULT:      -8.3      4.305      9.768
  Name = 
  11 active torsions:
  status: ('A' for Active; 'I' for Inactive)
    1  A    between atoms: N_2  and  C_16
    2  A    between atoms: N_2  and  C_21
    3  A    between atoms: C_4  and  N_27
    4  A    between atoms: C_6  and  C_8
    5  A    between atoms: C_6  and  O_18
    6  A    between atoms: C_7  and  C_14
    7  A    between atoms: C_8  and  C_17
    8  A    between atoms: C_11  and  C_17
    9  A    between atoms: C_16  and  C_19
   10  A    between atoms: O_18  and  C_19
   11  A    between atoms: C_20  and  C_21
                            x       y       z     vdW  Elec       q    Type
                         _______ _______ _______ _____ _____    ______ ____

>  <TORSDO>
F 11

$$$$
=
 OpenBabel11062413433D

 35 38  0  0  1  0  0  0  0  0999 V2000
  186.1740  179.3860  141.0670 N   0  0  0  0  0  2  0  0  0  0  0  0
  187.7600  177.8160  142.0310 C   0  0  0  0  0  0  0  0  0  0  0  0
  186.2730  178.5970  139.8920 N   0  0  0  0  0  2  0  0  0  0  0  0
  189.7590  176.7170  142.2900 C   0  0  1  0  0  3  0  0  0  0  0  0
  192.0630  177.4990  141.8000 C   0  0  0  0  0  3  0  0  0  0  0  0
  188.5750  177.3550  142.9760 C   0  0  2  0  0  3  0  0  0  0  0  0
  191.8290  177.2970  140.3420 C   0  0  0  0  0  0  0  0  0  0  0  0
  190.5840  177.1430  139.8740 C   0  0  0  0  0  3  0  0  0  0  0  0
  189.4910  177.0520  140.8480 C   0  0  2  0  0  3  0  0  0  0  0  0
  187.6920  178.3490  139.5810 C   0  0  0  0  0  2  0  0  0  0  0  0
  188.3040  177.6170  140.7280 C   0  0  0  0  0  0  0  0  0  0  0  0
  191.0940  177.2850  142.7040 C   0  0  0  0  0  3  0  0  0  0  0  0
  186.5870  178.6110  142.1750 N   0  0  0  0  0  2  0  0  0  0  0  0
  187.0780  177.6470  144.9470 C   0  0  0  0  0  3  0  0  0  0  0  0
  188.3560  177.4100  144.4400 C   0  0  0  0  0  0  0  0  0  0  0  0
  187.7480  177.5630  148.4390 O   0  0  0  0  0  0  0  0  0  0  0  0
  187.9450  177.5150  147.1940 C   0  0  0  0  0  0  0  0  0  0  0  0
  185.6200  177.9350  146.8030 F   0  0  0  0  0  0  0  0  0  0  0  0
  189.2010  177.2820  146.6960 N   0  0  0  0  0  0  0  0  0  0  0  0
  186.8670  177.7010  146.3220 C   0  0  0  0  0  0  0  0  0  0  0  0
  189.4090  177.2310  145.3450 C   0  0  0  0  0  3  0  0  0  0  0  0
  190.2990  177.0920  147.6050 C   0  0  0  0  0  3  0  0  0  0  0  0
  191.3770  176.3740  147.2970 C   0  0  0  0  0  2  0  0  0  0  0  0
  192.9600  177.4110  139.3710 C   0  0  1  0  0  3  0  0  0  0  0  0
  194.0970  176.7950  139.8950 O   0  0  0  0  0  1  0  0  0  0  0  0
  192.6090  176.7900  138.1020 N   0  0  0  0  0  2  0  0  0  0  0  0
  193.3100  175.5160  138.0210 C   0  0  0  0  0  2  0  0  0  0  0  0
  192.4840  174.5070  137.2410 C   0  0  0  0  0  2  0  0  0  0  0  0
  191.2810  174.2610  137.9040 O   0  0  0  0  0  0  0  0  0  0  0  0
  190.3140  174.2780  136.8970 C   0  0  0  0  0  2  0  0  0  0  0  0
  189.2000  175.2420  137.2660 C   0  0  0  0  0  2  0  0  0  0  0  0
  188.9560  176.2420  136.1460 C   0  0  2  0  0  3  0  0  0  0  0  0
  189.6380  177.4280  136.4180 O   0  0  0  0  0  1  0  0  0  0  0  0
  187.4730  176.5360  136.0280 C   0  0  0  0  0  2  0  0  0  0  0  0
  187.2580  177.9150  136.0310 O   0  0  0  0  0  1  0  0  0  0  0  0
  1 13  1  0  0  0  0
  2 13  1  0  0  0  0
  2  6  1  0  0  0  0
  3  1  1  0  0  0  0
  4 12  1  1  0  0  0
  4  6  1  0  0  0  0
  5 12  2  0  0  0  0
  6 15  1  6  0  0  0
  7  5  1  0  0  0  0
  8  7  2  0  0  0  0
  9  8  1  1  0  0  0
  9  4  1  0  0  0  0
 10  3  1  0  0  0  0
 10 11  1  0  0  0  0
 11  9  1  0  0  0  0
 11  2  2  0  0  0  0
 14 20  2  0  0  0  0
 15 14  1  0  0  0  0
 15 21  2  0  0  0  0
 17 16  2  0  0  0  0
 19 17  1  0  0  0  0
 19 22  1  0  0  0  0
 20 18  1  0  0  0  0
 20 17  1  0  0  0  0
 21 19  1  0  0  0  0
 23 22  2  0  0  0  0
 24 25  1  1  0  0  0
 24  7  1  0  0  0  0
 26 24  1  0  0  0  0
 27 26  1  0  0  0  0
 28 29  1  0  0  0  0
 28 27  1  0  0  0  0
 30 31  1  0  0  0  0
 30 29  1  0  0  0  0
 32 33  1  1  0  0  0
 32 31  1  0  0  0  0
 34 35  1  0  0  0  0
 34 32  1  0  0  0  0
M  END
>  <MODEL>
5

>  <REMARK>
 VINA RESULT:      -8.2      3.616      7.978
  Name = 
  11 active torsions:
  status: ('A' for Active; 'I' for Inactive)
    1  A    between atoms: N_2  and  C_16
    2  A    between atoms: N_2  and  C_21
    3  A    between atoms: C_4  and  N_27
    4  A    between atoms: C_6  and  C_8
    5  A    between atoms: C_6  and  O_18
    6  A    between atoms: C_7  and  C_14
    7  A    between atoms: C_8  and  C_17
    8  A    between atoms: C_11  and  C_17
    9  A    between atoms: C_16  and  C_19
   10  A    between atoms: O_18  and  C_19
   11  A    between atoms: C_20  and  C_21
                            x       y       z     vdW  Elec       q    Type
                         _______ _______ _______ _____ _____    ______ ____

>  <TORSDO>
F 11

$$$$
=
 OpenBabel11062413433D

 35 38  0  0  1  0  0  0  0  0999 V2000
  184.6970  179.6100  146.4110 N   0  0  0  0  0  2  0  0  0  0  0  0
  185.8600  178.2060  144.8030 C   0  0  0  0  0  0  0  0  0  0  0  0
  183.5090  179.0360  145.8880 N   0  0  0  0  0  2  0  0  0  0  0  0
  186.5000  177.4380  142.7360 C   0  0  1  0  0  3  0  0  0  0  0  0
  186.6940  178.6660  140.5880 C   0  0  0  0  0  3  0  0  0  0  0  0
  186.9270  177.7530  144.1490 C   0  0  2  0  0  3  0  0  0  0  0  0
  185.2110  178.6500  140.4370 C   0  0  0  0  0  0  0  0  0  0  0  0
  184.4300  178.3580  141.4850 C   0  0  0  0  0  3  0  0  0  0  0  0
  185.0800  177.9360  142.7290 C   0  0  2  0  0  3  0  0  0  0  0  0
  183.5430  179.0830  144.4150 C   0  0  0  0  0  2  0  0  0  0  0  0
  184.7240  178.3020  143.9470 C   0  0  0  0  0  0  0  0  0  0  0  0
  187.2960  178.1560  141.6740 C   0  0  0  0  0  3  0  0  0  0  0  0
  185.7860  178.7590  146.1140 N   0  0  0  0  0  2  0  0  0  0  0  0
  188.4790  177.5150  146.0850 C   0  0  0  0  0  3  0  0  0  0  0  0
  188.2860  177.5490  144.7040 C   0  0  0  0  0  0  0  0  0  0  0  0
  191.9940  176.9910  146.2280 O   0  0  0  0  0  0  0  0  0  0  0  0
  190.8410  177.1650  145.7450 C   0  0  0  0  0  0  0  0  0  0  0  0
  189.9300  177.2970  147.9560 F   0  0  0  0  0  0  0  0  0  0  0  0
  190.6520  177.1980  144.3880 N   0  0  0  0  0  0  0  0  0  0  0  0
  189.7540  177.3240  146.6110 C   0  0  0  0  0  0  0  0  0  0  0  0
  189.4000  177.3880  143.8710 C   0  0  0  0  0  3  0  0  0  0  0  0
  191.7790  177.0320  143.5110 C   0  0  0  0  0  3  0  0  0  0  0  0
  191.7400  177.3380  142.2160 C   0  0  0  0  0  2  0  0  0  0  0  0
  184.5760  179.1000  139.1610 C   0  0  1  0  0  3  0  0  0  0  0  0
  184.5020  180.4930  139.1360 O   0  0  0  0  0  1  0  0  0  0  0  0
  185.3420  178.6320  138.0150 N   0  0  0  0  0  2  0  0  0  0  0  0
  184.5740  177.5780  137.3670 C   0  0  0  0  0  2  0  0  0  0  0  0
  185.5060  176.5730  136.7100 C   0  0  0  0  0  2  0  0  0  0  0  0
  186.8120  176.7670  137.1630 O   0  0  0  0  0  0  0  0  0  0  0  0
  187.5540  177.0050  136.0060 C   0  0  0  0  0  2  0  0  0  0  0  0
  188.9410  177.5010  136.3750 C   0  0  0  0  0  2  0  0  0  0  0  0
  188.9230  178.2030  137.7250 C   0  0  2  0  0  3  0  0  0  0  0  0
  189.0540  179.5800  137.5400 O   0  0  0  0  0  1  0  0  0  0  0  0
  190.0710  177.7050  138.5830 C   0  0  0  0  0  2  0  0  0  0  0  0
  189.5930  176.8280  139.5580 O   0  0  0  0  0  1  0  0  0  0  0  0
  2 13  1  0  0  0  0
  3  1  1  0  0  0  0
  4 12  1  6  0  0  0
  4  6  1  0  0  0  0
  5 12  2  0  0  0  0
  6 15  1  1  0  0  0
  6  2  1  0  0  0  0
  7  5  1  0  0  0  0
  7  8  2  0  0  0  0
  9  8  1  6  0  0  0
  9  4  1  0  0  0  0
  9 11  1  0  0  0  0
 10  3  1  0  0  0  0
 11 10  1  0  0  0  0
 11  2  2  0  0  0  0
 13  1  1  0  0  0  0
 14 20  2  0  0  0  0
 15 14  1  0  0  0  0
 17 16  2  0  0  0  0
 17 20  1  0  0  0  0
 19 17  1  0  0  0  0
 20 18  1  0  0  0  0
 21 19  1  0  0  0  0
 21 15  2  0  0  0  0
 22 19  1  0  0  0  0
 23 22  2  0  0  0  0
 24 25  1  1  0  0  0
 24  7  1  0  0  0  0
 26 24  1  0  0  0  0
 27 26  1  0  0  0  0
 28 29  1  0  0  0  0
 28 27  1  0  0  0  0
 30 31  1  0  0  0  0
 30 29  1  0  0  0  0
 31 32  1  0  0  0  0
 32 33  1  6  0  0  0
 32 34  1  0  0  0  0
 34 35  1  0  0  0  0
M  END
>  <MODEL>
6

>  <REMARK>
 VINA RESULT:      -8.2      2.896      6.433
  Name = 
  11 active torsions:
  status: ('A' for Active; 'I' for Inactive)
    1  A    between atoms: N_2  and  C_16
    2  A    between atoms: N_2  and  C_21
    3  A    between atoms: C_4  and  N_27
    4  A    between atoms: C_6  and  C_8
    5  A    between atoms: C_6  and  O_18
    6  A    between atoms: C_7  and  C_14
    7  A    between atoms: C_8  and  C_17
    8  A    between atoms: C_11  and  C_17
    9  A    between atoms: C_16  and  C_19
   10  A    between atoms: O_18  and  C_19
   11  A    between atoms: C_20  and  C_21
                            x       y       z     vdW  Elec       q    Type
                         _______ _______ _______ _____ _____    ______ ____

>  <TORSDO>
F 11

$$$$
=
 OpenBabel11062413433D

 35 38  0  0  1  0  0  0  0  0999 V2000
  186.1690  179.3780  141.1050 N   0  0  0  0  0  2  0  0  0  0  0  0
  187.7580  177.8290  142.0970 C   0  0  0  0  0  0  0  0  0  0  0  0
  186.2720  178.5700  139.9440 N   0  0  0  0  0  2  0  0  0  0  0  0
  189.7610  176.7410  142.3770 C   0  0  1  0  0  3  0  0  0  0  0  0
  192.0630  177.5220  141.8760 C   0  0  0  0  0  3  0  0  0  0  0  0
  188.5740  177.3870  143.0510 C   0  0  0  0  0  0  0  0  0  0  0  0
  191.8310  177.2940  140.4210 C   0  0  0  0  0  0  0  0  0  0  0  0
  190.5870  177.1280  139.9550 C   0  0  0  0  0  3  0  0  0  0  0  0
  189.4940  177.0510  140.9290 C   0  0  2  0  0  3  0  0  0  0  0  0
  187.6920  178.3200  139.6390 C   0  0  0  0  0  2  0  0  0  0  0  0
  188.3050  177.6100  140.7990 C   0  0  0  0  0  0  0  0  0  0  0  0
  191.0940  177.3210  142.7830 C   0  0  0  0  0  3  0  0  0  0  0  0
  186.5840  178.6240  142.2260 N   0  0  0  0  0  2  0  0  0  0  0  0
  189.3690  177.0960  145.3950 C   0  0  0  0  0  3  0  0  0  0  0  0
  188.3540  177.4660  144.5130 C   0  0  0  0  0  0  0  0  0  0  0  0
  187.7580  177.6800  148.5120 O   0  0  0  0  0  0  0  0  0  0  0  0
  187.9360  177.6150  147.2640 C   0  0  0  0  0  0  0  0  0  0  0  0
  190.1610  176.8030  147.6180 F   0  0  0  0  0  0  0  0  0  0  0  0
  186.9380  177.9780  146.3980 N   0  0  0  0  0  0  0  0  0  0  0  0
  189.1670  177.1680  146.7710 C   0  0  0  0  0  0  0  0  0  0  0  0
  187.1360  177.9060  145.0470 C   0  0  0  0  0  2  0  0  0  0  0  0
  185.6780  178.4360  146.9210 C   0  0  0  0  0  3  0  0  0  0  0  0
  184.6040  178.6240  146.1590 C   0  0  0  0  0  2  0  0  0  0  0  0
  192.9630  177.3950  139.4500 C   0  0  1  0  0  3  0  0  0  0  0  0
  194.0880  176.7530  139.9670 O   0  0  0  0  0  1  0  0  0  0  0  0
  192.5990  176.7910  138.1760 N   0  0  0  0  0  2  0  0  0  0  0  0
  193.3480  175.5480  138.0430 C   0  0  0  0  0  2  0  0  0  0  0  0
  192.5190  174.5090  137.3060 C   0  0  0  0  0  2  0  0  0  0  0  0
  191.3070  174.3080  137.9690 O   0  0  0  0  0  0  0  0  0  0  0  0
  190.3530  174.2670  136.9520 C   0  0  0  0  0  2  0  0  0  0  0  0
  189.3140  175.3540  137.1730 C   0  0  0  0  0  2  0  0  0  0  0  0
  188.7640  175.8550  135.8460 C   0  0  2  0  0  3  0  0  0  0  0  0
  189.2460  177.1400  135.5940 O   0  0  0  0  0  1  0  0  0  0  0  0
  187.2480  175.8930  135.8950 C   0  0  0  0  0  2  0  0  0  0  0  0
  186.8130  175.8750  137.2210 O   0  0  0  0  0  1  0  0  0  0  0  0
  1 13  1  0  0  0  0
  2 13  1  0  0  0  0
  2  6  1  0  0  0  0
  3  1  1  0  0  0  0
  4 12  1  1  0  0  0
  4  6  1  0  0  0  0
  5 12  2  0  0  0  0
  6 15  2  0  0  0  0
  7  5  1  0  0  0  0
  8  7  2  0  0  0  0
  9  8  1  1  0  0  0
  9  4  1  0  0  0  0
 10  3  1  0  0  0  0
 10 11  1  0  0  0  0
 11  9  1  0  0  0  0
 11  2  2  0  0  0  0
 14 20  2  0  0  0  0
 15 21  1  0  0  0  0
 15 14  1  0  0  0  0
 17 16  2  0  0  0  0
 19 22  1  0  0  0  0
 19 17  1  0  0  0  0
 20 17  1  0  0  0  0
 20 18  1  0  0  0  0
 21 19  1  0  0  0  0
 23 22  2  0  0  0  0
 24 25  1  1  0  0  0
 24  7  1  0  0  0  0
 26 24  1  0  0  0  0
 27 26  1  0  0  0  0
 28 29  1  0  0  0  0
 28 27  1  0  0  0  0
 30 31  1  0  0  0  0
 30 29  1  0  0  0  0
 32 33  1  1  0  0  0
 32 34  1  0  0  0  0
 32 31  1  0  0  0  0
 34 35  1  0  0  0  0
M  END
>  <MODEL>
7

>  <REMARK>
 VINA RESULT:      -8.2      3.667      8.216
  Name = 
  11 active torsions:
  status: ('A' for Active; 'I' for Inactive)
    1  A    between atoms: N_2  and  C_16
    2  A    between atoms: N_2  and  C_21
    3  A    between atoms: C_4  and  N_27
    4  A    between atoms: C_6  and  C_8
    5  A    between atoms: C_6  and  O_18
    6  A    between atoms: C_7  and  C_14
    7  A    between atoms: C_8  and  C_17
    8  A    between atoms: C_11  and  C_17
    9  A    between atoms: C_16  and  C_19
   10  A    between atoms: O_18  and  C_19
   11  A    between atoms: C_20  and  C_21
                            x       y       z     vdW  Elec       q    Type
                         _______ _______ _______ _____ _____    ______ ____

>  <TORSDO>
F 11

$$$$
=
 OpenBabel11062413433D

 35 38  0  0  1  0  0  0  0  0999 V2000
  179.7380  177.6490  142.2480 N   0  0  0  0  0  2  0  0  0  0  0  0
  181.9850  178.4630  141.8040 C   0  0  0  0  0  0  0  0  0  0  0  0
  179.6340  178.7450  143.1430 N   0  0  0  0  0  2  0  0  0  0  0  0
  184.1720  178.9930  142.2570 C   0  0  1  0  0  3  0  0  0  0  0  0
  185.7350  177.9750  143.8960 C   0  0  0  0  0  3  0  0  0  0  0  0
  183.1980  178.4130  141.2600 C   0  0  2  0  0  3  0  0  0  0  0  0
  185.0460  178.6910  145.0080 C   0  0  0  0  0  0  0  0  0  0  0  0
  183.8380  179.2350  144.8130 C   0  0  0  0  0  3  0  0  0  0  0  0
  183.2870  179.2140  143.4540 C   0  0  2  0  0  3  0  0  0  0  0  0
  180.8290  178.7940  144.0050 C   0  0  0  0  0  2  0  0  0  0  0  0
  182.0290  178.9690  143.1360 C   0  0  0  0  0  0  0  0  0  0  0  0
  185.3040  178.0660  142.6280 C   0  0  0  0  0  3  0  0  0  0  0  0
  180.7650  177.9150  141.3140 N   0  0  0  0  0  2  0  0  0  0  0  0
  182.6930  177.0340  139.2470 C   0  0  0  0  0  3  0  0  0  0  0  0
  183.5430  177.9220  139.9070 C   0  0  0  0  0  0  0  0  0  0  0  0
  184.4790  176.5730  136.2060 O   0  0  0  0  0  0  0  0  0  0  0  0
  184.1940  176.9980  137.3600 C   0  0  0  0  0  0  0  0  0  0  0  0
  182.1800  175.7030  137.3450 F   0  0  0  0  0  0  0  0  0  0  0  0
  185.0300  177.8690  138.0070 N   0  0  0  0  0  0  0  0  0  0  0  0
  183.0130  176.5680  137.9740 C   0  0  0  0  0  0  0  0  0  0  0  0
  184.7170  178.3260  139.2580 C   0  0  0  0  0  3  0  0  0  0  0  0
  186.2410  178.3020  137.3620 C   0  0  0  0  0  3  0  0  0  0  0  0
  187.4510  178.0810  137.8710 C   0  0  0  0  0  2  0  0  0  0  0  0
  185.6230  178.6810  146.3860 C   0  0  1  0  0  3  0  0  0  0  0  0
  184.6230  178.3990  147.3160 O   0  0  0  0  0  1  0  0  0  0  0  0
  186.6810  177.6860  146.4910 N   0  0  0  0  0  2  0  0  0  0  0  0
  187.5090  178.0350  147.6370 C   0  0  0  0  0  2  0  0  0  0  0  0
  188.9200  177.5010  147.4510 C   0  0  0  0  0  2  0  0  0  0  0  0
  189.0260  176.8500  146.2210 O   0  0  0  0  0  0  0  0  0  0  0  0
  190.2670  177.2420  145.7210 C   0  0  0  0  0  2  0  0  0  0  0  0
  190.0810  178.2960  144.6420 C   0  0  0  0  0  2  0  0  0  0  0  0
  190.3180  177.7030  143.2610 C   0  0  2  0  0  3  0  0  0  0  0  0
  189.0930  177.4610  142.6370 O   0  0  0  0  0  1  0  0  0  0  0  0
  191.0820  176.3980  143.3810 C   0  0  0  0  0  2  0  0  0  0  0  0
  190.3460  175.3600  142.8090 O   0  0  0  0  0  1  0  0  0  0  0  0
  1  3  1  0  0  0  0
  2 11  2  0  0  0  0
  3 10  1  0  0  0  0
  4 12  1  1  0  0  0
  4  9  1  0  0  0  0
  5  7  1  0  0  0  0
  6 15  1  6  0  0  0
  6  2  1  0  0  0  0
  6  4  1  0  0  0  0
  7 24  1  0  0  0  0
  8  7  2  0  0  0  0
  9  8  1  1  0  0  0
 11  9  1  0  0  0  0
 11 10  1  0  0  0  0
 12  5  2  0  0  0  0
 13  2  1  0  0  0  0
 13  1  1  0  0  0  0
 14 15  1  0  0  0  0
 16 17  2  0  0  0  0
 17 20  1  0  0  0  0
 17 19  1  0  0  0  0
 18 20  1  0  0  0  0
 19 21  1  0  0  0  0
 20 14  2  0  0  0  0
 21 15  2  0  0  0  0
 22 23  2  0  0  0  0
 22 19  1  0  0  0  0
 24 26  1  0  0  0  0
 24 25  1  1  0  0  0
 26 27  1  0  0  0  0
 28 27  1  0  0  0  0
 29 28  1  0  0  0  0
 30 29  1  0  0  0  0
 31 30  1  0  0  0  0
 32 33  1  1  0  0  0
 32 34  1  0  0  0  0
 32 31  1  0  0  0  0
 35 34  1  0  0  0  0
M  END
>  <MODEL>
8

>  <REMARK>
 VINA RESULT:      -8.1      3.334      6.984
  Name = 
  11 active torsions:
  status: ('A' for Active; 'I' for Inactive)
    1  A    between atoms: N_2  and  C_16
    2  A    between atoms: N_2  and  C_21
    3  A    between atoms: C_4  and  N_27
    4  A    between atoms: C_6  and  C_8
    5  A    between atoms: C_6  and  O_18
    6  A    between atoms: C_7  and  C_14
    7  A    between atoms: C_8  and  C_17
    8  A    between atoms: C_11  and  C_17
    9  A    between atoms: C_16  and  C_19
   10  A    between atoms: O_18  and  C_19
   11  A    between atoms: C_20  and  C_21
                            x       y       z     vdW  Elec       q    Type
                         _______ _______ _______ _____ _____    ______ ____

>  <TORSDO>
F 11

$$$$
=
 OpenBabel11062413433D

 35 38  0  0  1  0  0  0  0  0999 V2000
  179.9910  177.8610  142.0550 N   0  0  0  0  0  2  0  0  0  0  0  0
  182.2880  178.5900  141.7330 C   0  0  0  0  0  0  0  0  0  0  0  0
  179.8910  178.9400  142.9700 N   0  0  0  0  0  2  0  0  0  0  0  0
  184.4710  179.0170  142.2980 C   0  0  1  0  0  3  0  0  0  0  0  0
  185.9130  177.8980  143.9820 C   0  0  0  0  0  3  0  0  0  0  0  0
  183.5220  178.5010  141.2440 C   0  0  2  0  0  3  0  0  0  0  0  0
  185.2030  178.6170  145.0770 C   0  0  0  0  0  0  0  0  0  0  0  0
  184.0290  179.2160  144.8410 C   0  0  0  0  0  3  0  0  0  0  0  0
  183.5410  179.2490  143.4580 C   0  0  2  0  0  3  0  0  0  0  0  0
  181.0450  178.9210  143.8860 C   0  0  0  0  0  2  0  0  0  0  0  0
  182.2910  179.0640  143.0780 C   0  0  0  0  0  0  0  0  0  0  0  0
  185.5460  178.0350  142.6980 C   0  0  0  0  0  3  0  0  0  0  0  0
  181.0710  178.1040  141.1750 N   0  0  0  0  0  2  0  0  0  0  0  0
  185.0010  178.5960  139.2400 C   0  0  0  0  0  3  0  0  0  0  0  0
  183.9090  178.0260  139.8960 C   0  0  0  0  0  0  0  0  0  0  0  0
  184.9740  176.7330  136.2100 O   0  0  0  0  0  0  0  0  0  0  0  0
  184.6360  177.1310  137.3590 C   0  0  0  0  0  0  0  0  0  0  0  0
  186.4290  178.7180  137.3430 F   0  0  0  0  0  0  0  0  0  0  0  0
  183.5640  176.5710  138.0030 N   0  0  0  0  0  0  0  0  0  0  0  0
  185.3680  178.1530  137.9720 C   0  0  0  0  0  0  0  0  0  0  0  0
  183.2010  177.0060  139.2480 C   0  0  0  0  0  3  0  0  0  0  0  0
  182.8210  175.5200  137.3600 C   0  0  0  0  0  3  0  0  0  0  0  0
  181.8440  174.8500  137.9650 C   0  0  0  0  0  2  0  0  0  0  0  0
  185.7150  178.5530  146.4800 C   0  0  1  0  0  3  0  0  0  0  0  0
  184.6670  178.2600  147.3530 O   0  0  0  0  0  1  0  0  0  0  0  0
  186.7500  177.5360  146.6010 N   0  0  0  0  0  2  0  0  0  0  0  0
  187.6020  177.8980  147.7250 C   0  0  0  0  0  2  0  0  0  0  0  0
  189.0650  177.6930  147.3670 C   0  0  0  0  0  2  0  0  0  0  0  0
  189.1780  176.7520  146.3430 O   0  0  0  0  0  0  0  0  0  0  0  0
  190.1710  177.2610  145.5050 C   0  0  0  0  0  2  0  0  0  0  0  0
  189.5500  178.1760  144.4640 C   0  0  0  0  0  2  0  0  0  0  0  0
  190.0540  177.8300  143.0710 C   0  0  2  0  0  3  0  0  0  0  0  0
  189.1980  178.3760  142.1130 O   0  0  0  0  0  1  0  0  0  0  0  0
  190.1000  176.3240  142.8950 C   0  0  0  0  0  2  0  0  0  0  0  0
  190.4020  176.0070  141.5700 O   0  0  0  0  0  1  0  0  0  0  0  0
  1  3  1  0  0  0  0
  2 11  2  0  0  0  0
  3 10  1  0  0  0  0
  4 12  1  1  0  0  0
  4  9  1  0  0  0  0
  5  7  1  0  0  0  0
  6 15  1  6  0  0  0
  6  2  1  0  0  0  0
  6  4  1  0  0  0  0
  7 24  1  0  0  0  0
  8  7  2  0  0  0  0
  9  8  1  1  0  0  0
 11  9  1  0  0  0  0
 11 10  1  0  0  0  0
 12  5  2  0  0  0  0
 13  2  1  0  0  0  0
 13  1  1  0  0  0  0
 14 15  1  0  0  0  0
 16 17  2  0  0  0  0
 17 20  1  0  0  0  0
 17 19  1  0  0  0  0
 18 20  1  0  0  0  0
 19 21  1  0  0  0  0
 20 14  2  0  0  0  0
 21 15  2  0  0  0  0
 22 23  2  0  0  0  0
 22 19  1  0  0  0  0
 24 26  1  0  0  0  0
 24 25  1  1  0  0  0
 26 27  1  0  0  0  0
 28 27  1  0  0  0  0
 29 28  1  0  0  0  0
 30 29  1  0  0  0  0
 31 30  1  0  0  0  0
 32 33  1  6  0  0  0
 32 31  1  0  0  0  0
 34 32  1  0  0  0  0
 35 34  1  0  0  0  0
M  END
>  <MODEL>
9

>  <REMARK>
 VINA RESULT:      -8.1      3.307      6.967
  Name = 
  11 active torsions:
  status: ('A' for Active; 'I' for Inactive)
    1  A    between atoms: N_2  and  C_16
    2  A    between atoms: N_2  and  C_21
    3  A    between atoms: C_4  and  N_27
    4  A    between atoms: C_6  and  C_8
    5  A    between atoms: C_6  and  O_18
    6  A    between atoms: C_7  and  C_14
    7  A    between atoms: C_8  and  C_17
    8  A    between atoms: C_11  and  C_17
    9  A    between atoms: C_16  and  C_19
   10  A    between atoms: O_18  and  C_19
   11  A    between atoms: C_20  and  C_21
                            x       y       z     vdW  Elec       q    Type
                         _______ _______ _______ _____ _____    ______ ____

>  <TORSDO>
F 11

$$$$
