=
 OpenBabel11062415423D

 34 38  0  0  1  0  0  0  0  0999 V2000
  188.7570  177.1980  147.9130 N   0  0  0  0  0  2  0  0  0  0  0  0
  190.6860  176.6360  146.7540 O   0  0  0  0  0  0  0  0  0  0  0  0
  187.6220  177.6690  142.9410 C   0  0  0  0  0  3  0  0  0  0  0  0
  189.6020  177.2830  144.2450 C   0  0  0  0  0  3  0  0  0  0  0  0
  186.8520  177.7840  144.1060 C   0  0  0  0  0  0  0  0  0  0  0  0
  189.5020  177.0660  146.7100 C   0  0  0  0  0  0  0  0  0  0  0  0
  189.0010  177.4530  142.9960 C   0  0  0  0  0  0  0  0  0  0  0  0
  188.8580  177.3820  145.4250 C   0  0  0  0  0  0  0  0  0  0  0  0
  187.4760  177.6980  145.3810 C   0  0  0  0  0  0  0  0  0  0  0  0
  187.5530  178.0110  147.9280 C   0  0  0  0  0  2  0  0  0  0  0  0
  186.6780  177.7660  146.6920 C   0  0  1  0  0  3  0  0  0  0  0  0
  185.6370  178.8390  146.6950 C   0  0  0  0  0  0  0  0  0  0  0  0
  184.2910  178.5160  146.5550 O   0  0  0  0  0  0  0  0  0  0  0  0
  185.9810  180.0450  146.7980 O   0  0  0  0  0  1  0  0  0  0  0  0
  189.7780  177.3540  141.7850 N   0  0  0  0  0  0  0  0  0  0  0  0
  191.2300  177.4390  141.8220 C   0  0  0  0  0  1  0  0  0  0  0  0
  189.1560  177.0840  140.4920 C   0  0  0  0  0  2  0  0  0  0  0  0
  189.2430  178.3030  139.5800 C   0  0  0  0  0  2  0  0  0  0  0  0
  189.3240  178.6870  137.2400 O   0  0  0  0  0  0  0  0  0  0  0  0
  189.6020  177.9030  138.1870 C   0  0  0  0  0  0  0  0  0  0  0  0
  190.2990  176.6220  137.9340 C   0  0  1  0  0  3  0  0  0  0  0  0
  191.7670  176.4280  138.1740 C   0  0  1  0  0  3  0  0  0  0  0  0
  190.7080  174.4800  137.3270 N   0  0  0  0  0  0  0  0  0  0  0  0
  189.7460  175.5020  137.4880 C   0  0  0  0  0  0  0  0  0  0  0  0
  188.3150  175.3100  137.1180 C   0  0  0  0  0  1  0  0  0  0  0  0
  192.0070  174.9700  137.7760 C   0  0  1  0  0  3  0  0  0  0  0  0
  192.5000  176.0970  136.8830 C   0  0  0  0  0  2  0  0  0  0  0  0
  185.3610  177.8720  143.9470 C   0  0  0  0  0  2  0  0  0  0  0  0
  184.2570  179.1400  140.0230 C   0  0  0  0  0  3  0  0  0  0  0  0
  183.4210  178.2560  140.7090 C   0  0  0  0  0  3  0  0  0  0  0  0
  183.7780  177.8380  141.9920 C   0  0  0  0  0  3  0  0  0  0  0  0
  185.4030  179.5850  140.6040 N   0  0  0  0  0  0  0  0  0  0  0  0
  185.7680  179.1890  141.8540 C   0  0  0  0  0  3  0  0  0  0  0  0
  184.9610  178.3020  142.5710 C   0  0  0  0  0  0  0  0  0  0  0  0
  1 10  1  0  0  0  0
  3  7  2  0  0  0  0
  3  5  1  0  0  0  0
  4  8  2  0  0  0  0
  5  9  2  0  0  0  0
  6  2  2  0  0  0  0
  6  1  1  0  0  0  0
  7  4  1  0  0  0  0
  8  6  1  0  0  0  0
  9  8  1  0  0  0  0
  9 11  1  0  0  0  0
 11 12  1  6  0  0  0
 11 10  1  0  0  0  0
 12 14  1  0  0  0  0
 13 12  2  0  0  0  0
 15 16  1  0  0  0  0
 15  7  1  0  0  0  0
 17 15  1  0  0  0  0
 18 17  1  0  0  0  0
 19 20  2  0  0  0  0
 20 18  1  0  0  0  0
 21 22  1  0  0  0  0
 21 20  1  1  0  0  0
 22 27  1  6  0  0  0
 23 24  2  0  0  0  0
 23 26  1  0  0  0  0
 24 21  1  0  0  0  0
 25 24  1  0  0  0  0
 26 27  1  6  0  0  0
 26 22  1  0  0  0  0
 28  5  1  0  0  0  0
 29 32  2  0  0  0  0
 29 30  1  0  0  0  0
 30 31  2  0  0  0  0
 31 34  1  0  0  0  0
 32 33  1  0  0  0  0
 33 34  2  0  0  0  0
 34 28  1  0  0  0  0
M  END
>  <MODEL>
1

>  <REMARK>
 VINA RESULT:      -9.7      0.000      0.000
  Name = 
  8 active torsions:
  status: ('A' for Active; 'I' for Inactive)
    1  A    between atoms: C_3  and  C_10
    2  A    between atoms: C_3  and  C_32
    3  A    between atoms: C_5  and  N_25
    4  A    between atoms: C_5  and  C_34
    5  A    between atoms: C_8  and  C_14
    6  A    between atoms: C_14  and  C_34
    7  A    between atoms: C_15  and  C_30
    8  A    between atoms: C_22  and  N_25
                            x       y       z     vdW  Elec       q    Type
                         _______ _______ _______ _____ _____    ______ ____

>  <TORSDO>
F 8

$$$$
=
 OpenBabel11062415423D

 34 38  0  0  1  0  0  0  0  0999 V2000
  190.9950  177.4750  139.8380 N   0  0  0  0  0  2  0  0  0  0  0  0
  189.1720  178.2990  138.6620 O   0  0  0  0  0  0  0  0  0  0  0  0
  187.1480  177.7900  143.2040 C   0  0  0  0  0  3  0  0  0  0  0  0
  187.5380  178.4860  140.9380 C   0  0  0  0  0  3  0  0  0  0  0  0
  188.4520  177.2890  143.2980 C   0  0  0  0  0  0  0  0  0  0  0  0
  189.6570  177.9540  139.7720 C   0  0  0  0  0  0  0  0  0  0  0  0
  186.6880  178.4210  142.0450 C   0  0  0  0  0  0  0  0  0  0  0  0
  188.8430  177.9840  140.9970 C   0  0  0  0  0  0  0  0  0  0  0  0
  189.3480  177.4320  142.2020 C   0  0  0  0  0  0  0  0  0  0  0  0
  191.6760  177.4170  141.1190 C   0  0  0  0  0  2  0  0  0  0  0  0
  190.7730  176.8580  142.2260 C   0  0  1  0  0  3  0  0  0  0  0  0
  191.4870  177.1050  143.5160 C   0  0  0  0  0  0  0  0  0  0  0  0
  191.8820  176.0400  144.3190 O   0  0  0  0  0  1  0  0  0  0  0  0
  191.7100  178.2850  143.8930 O   0  0  0  0  0  0  0  0  0  0  0  0
  185.3470  178.9450  141.9750 N   0  0  0  0  0  0  0  0  0  0  0  0
  184.6780  179.4420  143.1690 C   0  0  0  0  0  1  0  0  0  0  0  0
  184.6380  179.0770  140.7070 C   0  0  0  0  0  2  0  0  0  0  0  0
  183.4580  178.1130  140.6390 C   0  0  0  0  0  2  0  0  0  0  0  0
  182.0310  179.6390  139.5130 O   0  0  0  0  0  0  0  0  0  0  0  0
  182.1700  178.8540  140.4890 C   0  0  0  0  0  0  0  0  0  0  0  0
  181.0710  178.6430  141.4570 C   0  0  0  0  0  0  0  0  0  0  0  0
  180.9170  179.4520  142.7110 C   0  0  1  0  0  3  0  0  0  0  0  0
  179.2330  177.7960  142.4720 N   0  0  0  0  0  2  0  0  0  0  0  0
  180.0940  177.7520  141.3530 C   0  0  0  0  0  0  0  0  0  0  0  0
  179.9200  176.7560  140.2570 C   0  0  0  0  0  1  0  0  0  0  0  0
  179.6590  178.8710  143.3620 C   0  0  1  0  0  3  0  0  0  0  0  0
  181.0300  178.5770  143.9510 C   0  0  0  0  0  2  0  0  0  0  0  0
  188.8080  176.5040  144.5280 C   0  0  0  0  0  2  0  0  0  0  0  0
  187.7700  178.5250  148.1420 C   0  0  0  0  0  3  0  0  0  0  0  0
  186.7700  178.2630  147.2010 C   0  0  0  0  0  3  0  0  0  0  0  0
  187.1050  177.6040  146.0180 C   0  0  0  0  0  3  0  0  0  0  0  0
  189.0510  178.1370  147.9010 N   0  0  0  0  0  0  0  0  0  0  0  0
  189.3970  177.4930  146.7540 C   0  0  0  0  0  3  0  0  0  0  0  0
  188.4280  177.2170  145.7860 C   0  0  0  0  0  0  0  0  0  0  0  0
  1 10  1  0  0  0  0
  2  6  2  0  0  0  0
  3  5  1  0  0  0  0
  4  8  2  0  0  0  0
  4  7  1  0  0  0  0
  5 28  1  0  0  0  0
  6  1  1  0  0  0  0
  6  8  1  0  0  0  0
  7  3  2  0  0  0  0
  8  9  1  0  0  0  0
  9 11  1  0  0  0  0
  9  5  2  0  0  0  0
 10 11  1  0  0  0  0
 11 12  1  1  0  0  0
 12 14  2  0  0  0  0
 12 13  1  0  0  0  0
 15  7  1  0  0  0  0
 15 16  1  0  0  0  0
 17 15  1  0  0  0  0
 18 17  1  0  0  0  0
 19 20  2  0  0  0  0
 20 18  1  0  0  0  0
 20 21  1  0  0  0  0
 21 22  1  0  0  0  0
 22 26  1  0  0  0  0
 22 27  1  1  0  0  0
 23 26  1  0  0  0  0
 24 21  2  0  0  0  0
 24 23  1  0  0  0  0
 25 24  1  0  0  0  0
 26 27  1  1  0  0  0
 28 34  1  0  0  0  0
 30 29  2  0  0  0  0
 31 30  1  0  0  0  0
 32 29  1  0  0  0  0
 33 32  2  0  0  0  0
 34 31  2  0  0  0  0
 34 33  1  0  0  0  0
M  END
>  <MODEL>
2

>  <REMARK>
 VINA RESULT:      -9.5      2.624      7.802
  Name = 
  8 active torsions:
  status: ('A' for Active; 'I' for Inactive)
    1  A    between atoms: C_3  and  C_10
    2  A    between atoms: C_3  and  C_32
    3  A    between atoms: C_5  and  N_25
    4  A    between atoms: C_5  and  C_34
    5  A    between atoms: C_8  and  C_14
    6  A    between atoms: C_14  and  C_34
    7  A    between atoms: C_15  and  C_30
    8  A    between atoms: C_22  and  N_25
                            x       y       z     vdW  Elec       q    Type
                         _______ _______ _______ _____ _____    ______ ____

>  <TORSDO>
F 8

$$$$
=
 OpenBabel11062415423D

 34 38  0  0  1  0  0  0  0  0999 V2000
  189.8930  177.8370  139.4720 N   0  0  0  0  0  2  0  0  0  0  0  0
  187.8280  178.5900  138.7300 O   0  0  0  0  0  0  0  0  0  0  0  0
  186.8040  177.7910  143.5570 C   0  0  0  0  0  3  0  0  0  0  0  0
  186.6860  178.5920  141.2960 C   0  0  0  0  0  3  0  0  0  0  0  0
  188.1240  177.3670  143.3610 C   0  0  0  0  0  0  0  0  0  0  0  0
  188.5470  178.2340  139.7010 C   0  0  0  0  0  0  0  0  0  0  0  0
  186.0850  178.4340  142.5470 C   0  0  0  0  0  0  0  0  0  0  0  0
  188.0000  178.1700  141.0660 C   0  0  0  0  0  0  0  0  0  0  0  0
  188.7690  177.6050  142.1150 C   0  0  0  0  0  0  0  0  0  0  0  0
  190.8240  177.7730  140.5850 C   0  0  0  0  0  2  0  0  0  0  0  0
  190.1960  177.1190  141.8230 C   0  0  1  0  0  3  0  0  0  0  0  0
  191.1450  177.3610  142.9530 C   0  0  0  0  0  0  0  0  0  0  0  0
  191.3320  178.6450  143.4530 O   0  0  0  0  0  1  0  0  0  0  0  0
  191.8010  176.4020  143.4370 O   0  0  0  0  0  0  0  0  0  0  0  0
  184.7320  178.8780  142.7750 N   0  0  0  0  0  0  0  0  0  0  0  0
  184.4000  179.6890  143.9370 C   0  0  0  0  0  1  0  0  0  0  0  0
  183.6630  178.6080  141.8190 C   0  0  0  0  0  2  0  0  0  0  0  0
  182.2950  178.8340  142.4540 C   0  0  0  0  0  2  0  0  0  0  0  0
  180.3260  179.8730  141.6310 O   0  0  0  0  0  0  0  0  0  0  0  0
  181.2490  179.0430  141.4090 C   0  0  0  0  0  0  0  0  0  0  0  0
  181.3180  178.3090  140.1260 C   0  0  1  0  0  3  0  0  0  0  0  0
  180.9460  176.8610  139.9900 C   0  0  1  0  0  3  0  0  0  0  0  0
  181.6760  177.8190  137.9450 N   0  0  0  0  0  0  0  0  0  0  0  0
  181.6920  178.8060  138.9550 C   0  0  0  0  0  0  0  0  0  0  0  0
  182.1520  180.2010  138.6950 C   0  0  0  0  0  1  0  0  0  0  0  0
  181.1780  176.5680  138.5060 C   0  0  1  0  0  3  0  0  0  0  0  0
  182.1370  176.0230  139.5520 C   0  0  0  0  0  2  0  0  0  0  0  0
  188.7650  176.5600  144.4540 C   0  0  0  0  0  2  0  0  0  0  0  0
  188.2790  178.3140  148.3150 C   0  0  0  0  0  3  0  0  0  0  0  0
  187.1540  178.1370  147.5050 C   0  0  0  0  0  3  0  0  0  0  0  0
  187.3080  177.5650  146.2420 C   0  0  0  0  0  3  0  0  0  0  0  0
  189.5060  177.9290  147.8720 N   0  0  0  0  0  0  0  0  0  0  0  0
  189.6760  177.3700  146.6430 C   0  0  0  0  0  3  0  0  0  0  0  0
  188.5770  177.1800  145.8010 C   0  0  0  0  0  0  0  0  0  0  0  0
  1  6  1  0  0  0  0
  1 10  1  0  0  0  0
  2  6  2  0  0  0  0
  4  7  1  0  0  0  0
  5  3  1  0  0  0  0
  5 28  1  0  0  0  0
  6  8  1  0  0  0  0
  7 15  1  0  0  0  0
  7  3  2  0  0  0  0
  8  4  2  0  0  0  0
  8  9  1  0  0  0  0
  9  5  2  0  0  0  0
 10 11  1  0  0  0  0
 11  9  1  0  0  0  0
 11 12  1  1  0  0  0
 12 14  2  0  0  0  0
 12 13  1  0  0  0  0
 15 16  1  0  0  0  0
 17 18  1  0  0  0  0
 17 15  1  0  0  0  0
 20 19  2  0  0  0  0
 20 18  1  0  0  0  0
 21 20  1  6  0  0  0
 22 27  1  1  0  0  0
 22 21  1  0  0  0  0
 23 26  1  0  0  0  0
 23 24  2  0  0  0  0
 24 21  1  0  0  0  0
 25 24  1  0  0  0  0
 26 27  1  1  0  0  0
 26 22  1  0  0  0  0
 28 34  1  0  0  0  0
 30 29  2  0  0  0  0
 31 30  1  0  0  0  0
 32 29  1  0  0  0  0
 33 32  2  0  0  0  0
 34 31  2  0  0  0  0
 34 33  1  0  0  0  0
M  END
>  <MODEL>
3

>  <REMARK>
 VINA RESULT:      -9.2      2.649      7.471
  Name = 
  8 active torsions:
  status: ('A' for Active; 'I' for Inactive)
    1  A    between atoms: C_3  and  C_10
    2  A    between atoms: C_3  and  C_32
    3  A    between atoms: C_5  and  N_25
    4  A    between atoms: C_5  and  C_34
    5  A    between atoms: C_8  and  C_14
    6  A    between atoms: C_14  and  C_34
    7  A    between atoms: C_15  and  C_30
    8  A    between atoms: C_22  and  N_25
                            x       y       z     vdW  Elec       q    Type
                         _______ _______ _______ _____ _____    ______ ____

>  <TORSDO>
F 8

$$$$
=
 OpenBabel11062415423D

 34 38  0  0  1  0  0  0  0  0999 V2000
  187.3210  178.3470  138.9690 N   0  0  0  0  0  2  0  0  0  0  0  0
  187.7190  178.9680  141.1690 O   0  0  0  0  0  0  0  0  0  0  0  0
  182.7300  178.6520  141.2190 C   0  0  0  0  0  3  0  0  0  0  0  0
  185.0230  178.7440  141.9260 C   0  0  0  0  0  3  0  0  0  0  0  0
  183.1250  178.4120  139.8970 C   0  0  0  0  0  0  0  0  0  0  0  0
  186.8830  178.6110  140.2960 C   0  0  0  0  0  0  0  0  0  0  0  0
  183.6650  178.7860  142.2480 C   0  0  0  0  0  0  0  0  0  0  0  0
  185.4490  178.5160  140.6130 C   0  0  0  0  0  0  0  0  0  0  0  0
  184.5060  178.2810  139.5810 C   0  0  0  0  0  0  0  0  0  0  0  0
  186.4620  177.6050  138.0620 C   0  0  0  0  0  2  0  0  0  0  0  0
  185.0020  178.0690  138.1430 C   0  0  1  0  0  3  0  0  0  0  0  0
  184.1990  177.0620  137.3830 C   0  0  0  0  0  0  0  0  0  0  0  0
  184.0210  175.7780  137.8870 O   0  0  0  0  0  1  0  0  0  0  0  0
  183.7030  177.3690  136.2680 O   0  0  0  0  0  0  0  0  0  0  0  0
  183.2360  179.0160  143.6050 N   0  0  0  0  0  0  0  0  0  0  0  0
  181.8810  178.6890  144.0250 C   0  0  0  0  0  1  0  0  0  0  0  0
  184.1540  179.5040  144.6290 C   0  0  0  0  0  2  0  0  0  0  0  0
  184.5730  178.3780  145.5680 C   0  0  0  0  0  2  0  0  0  0  0  0
  185.8060  179.5140  147.2470 O   0  0  0  0  0  0  0  0  0  0  0  0
  185.8450  178.7150  146.2730 C   0  0  0  0  0  0  0  0  0  0  0  0
  187.1200  178.0940  145.8500 C   0  0  0  0  0  0  0  0  0  0  0  0
  187.5570  178.0170  144.4160 C   0  0  1  0  0  3  0  0  0  0  0  0
  189.1110  177.0180  145.9060 N   0  0  0  0  0  2  0  0  0  0  0  0
  188.0310  177.5500  146.6450 C   0  0  0  0  0  0  0  0  0  0  0  0
  187.9440  177.4210  148.1280 C   0  0  0  0  0  1  0  0  0  0  0  0
  188.9100  177.3060  144.4900 C   0  0  1  0  0  3  0  0  0  0  0  0
  187.6900  176.5730  143.9560 C   0  0  0  0  0  2  0  0  0  0  0  0
  182.0580  178.4250  138.8390 C   0  0  0  0  0  2  0  0  0  0  0  0
  179.9360  182.1260  138.6830 C   0  0  0  0  0  3  0  0  0  0  0  0
  181.2920  182.1080  138.3460 C   0  0  0  0  0  3  0  0  0  0  0  0
  181.9900  180.9010  138.3970 C   0  0  0  0  0  3  0  0  0  0  0  0
  179.3090  180.9760  139.0530 N   0  0  0  0  0  0  0  0  0  0  0  0
  179.9730  179.7900  139.1080 C   0  0  0  0  0  3  0  0  0  0  0  0
  181.3310  179.7310  138.7840 C   0  0  0  0  0  0  0  0  0  0  0  0
  1  6  1  0  0  0  0
  3  7  1  0  0  0  0
  4  7  2  0  0  0  0
  5  3  2  0  0  0  0
  6  8  1  0  0  0  0
  6  2  2  0  0  0  0
  7 15  1  0  0  0  0
  8  4  1  0  0  0  0
  9  5  1  0  0  0  0
  9  8  2  0  0  0  0
 10 11  1  0  0  0  0
 10  1  1  0  0  0  0
 11 12  1  1  0  0  0
 11  9  1  0  0  0  0
 12 13  1  0  0  0  0
 14 12  2  0  0  0  0
 15 16  1  0  0  0  0
 15 17  1  0  0  0  0
 17 18  1  0  0  0  0
 18 20  1  0  0  0  0
 20 19  2  0  0  0  0
 21 20  1  0  0  0  0
 21 24  2  0  0  0  0
 22 27  1  6  0  0  0
 22 26  1  0  0  0  0
 22 21  1  0  0  0  0
 23 24  1  0  0  0  0
 24 25  1  0  0  0  0
 26 27  1  6  0  0  0
 26 23  1  0  0  0  0
 28  5  1  0  0  0  0
 29 32  1  0  0  0  0
 30 31  1  0  0  0  0
 30 29  2  0  0  0  0
 31 34  2  0  0  0  0
 32 33  2  0  0  0  0
 34 28  1  0  0  0  0
 34 33  1  0  0  0  0
M  END
>  <MODEL>
4

>  <REMARK>
 VINA RESULT:      -9.0      3.040      7.837
  Name = 
  8 active torsions:
  status: ('A' for Active; 'I' for Inactive)
    1  A    between atoms: C_3  and  C_10
    2  A    between atoms: C_3  and  C_32
    3  A    between atoms: C_5  and  N_25
    4  A    between atoms: C_5  and  C_34
    5  A    between atoms: C_8  and  C_14
    6  A    between atoms: C_14  and  C_34
    7  A    between atoms: C_15  and  C_30
    8  A    between atoms: C_22  and  N_25
                            x       y       z     vdW  Elec       q    Type
                         _______ _______ _______ _____ _____    ______ ____

>  <TORSDO>
F 8

$$$$
=
 OpenBabel11062415423D

 34 38  0  0  1  0  0  0  0  0999 V2000
  190.3960  177.7090  139.3800 N   0  0  0  0  0  2  0  0  0  0  0  0
  188.4680  178.5590  138.4100 O   0  0  0  0  0  0  0  0  0  0  0  0
  186.8460  177.7680  143.0720 C   0  0  0  0  0  3  0  0  0  0  0  0
  187.0310  178.5920  140.8230 C   0  0  0  0  0  3  0  0  0  0  0  0
  188.1610  177.2880  143.0270 C   0  0  0  0  0  0  0  0  0  0  0  0
  189.0510  178.1640  139.4550 C   0  0  0  0  0  0  0  0  0  0  0  0
  186.2800  178.4510  141.9920 C   0  0  0  0  0  0  0  0  0  0  0  0
  188.3440  178.1130  140.7440 C   0  0  0  0  0  0  0  0  0  0  0  0
  188.9580  177.5070  141.8690 C   0  0  0  0  0  0  0  0  0  0  0  0
  191.1850  177.5950  140.5950 C   0  0  0  0  0  2  0  0  0  0  0  0
  190.3880  176.9600  141.7420 C   0  0  1  0  0  3  0  0  0  0  0  0
  191.2060  177.1510  142.9790 C   0  0  0  0  0  0  0  0  0  0  0  0
  191.7330  176.0540  143.6520 O   0  0  0  0  0  1  0  0  0  0  0  0
  191.3980  178.3110  143.4290 O   0  0  0  0  0  0  0  0  0  0  0  0
  184.9310  178.9520  142.0650 N   0  0  0  0  0  0  0  0  0  0  0  0
  184.3360  179.3080  143.3450 C   0  0  0  0  0  1  0  0  0  0  0  0
  184.1360  179.2000  140.8660 C   0  0  0  0  0  2  0  0  0  0  0  0
  183.4130  177.9350  140.4190 C   0  0  0  0  0  2  0  0  0  0  0  0
  182.4470  178.7310  138.4030 O   0  0  0  0  0  0  0  0  0  0  0  0
  183.2430  177.9120  138.9360 C   0  0  0  0  0  0  0  0  0  0  0  0
  184.0220  176.9620  138.1110 C   0  0  1  0  0  3  0  0  0  0  0  0
  185.3830  177.2790  137.5640 C   0  0  1  0  0  3  0  0  0  0  0  0
  184.6200  175.1200  136.9390 N   0  0  0  0  0  0  0  0  0  0  0  0
  183.6510  175.7390  137.7600 C   0  0  0  0  0  0  0  0  0  0  0  0
  182.3570  175.0780  138.0960 C   0  0  0  0  0  1  0  0  0  0  0  0
  185.7670  176.0110  136.7980 C   0  0  1  0  0  3  0  0  0  0  0  0
  185.3830  177.2730  136.0430 C   0  0  0  0  0  2  0  0  0  0  0  0
  188.6320  176.4440  144.1780 C   0  0  0  0  0  2  0  0  0  0  0  0
  188.0380  178.3250  147.9640 C   0  0  0  0  0  3  0  0  0  0  0  0
  186.9390  178.1310  147.1240 C   0  0  0  0  0  3  0  0  0  0  0  0
  187.1280  177.5180  145.8850 C   0  0  0  0  0  3  0  0  0  0  0  0
  189.2760  177.9170  147.5720 N   0  0  0  0  0  0  0  0  0  0  0  0
  189.4800  177.3180  146.3680 C   0  0  0  0  0  3  0  0  0  0  0  0
  188.4070  177.1090  145.4980 C   0  0  0  0  0  0  0  0  0  0  0  0
  1  6  1  0  0  0  0
  1 10  1  0  0  0  0
  2  6  2  0  0  0  0
  4  7  1  0  0  0  0
  5  3  1  0  0  0  0
  5 28  1  0  0  0  0
  6  8  1  0  0  0  0
  7 15  1  0  0  0  0
  7  3  2  0  0  0  0
  8  4  2  0  0  0  0
  8  9  1  0  0  0  0
  9  5  2  0  0  0  0
 10 11  1  0  0  0  0
 11  9  1  0  0  0  0
 11 12  1  1  0  0  0
 12 14  2  0  0  0  0
 12 13  1  0  0  0  0
 15 16  1  0  0  0  0
 17 15  1  0  0  0  0
 18 17  1  0  0  0  0
 19 20  2  0  0  0  0
 20 18  1  0  0  0  0
 21 20  1  1  0  0  0
 22 27  1  6  0  0  0
 22 21  1  0  0  0  0
 23 24  2  0  0  0  0
 24 25  1  0  0  0  0
 24 21  1  0  0  0  0
 26 27  1  6  0  0  0
 26 23  1  0  0  0  0
 26 22  1  0  0  0  0
 28 34  1  0  0  0  0
 30 29  2  0  0  0  0
 31 30  1  0  0  0  0
 32 29  1  0  0  0  0
 33 32  2  0  0  0  0
 34 31  2  0  0  0  0
 34 33  1  0  0  0  0
M  END
>  <MODEL>
5

>  <REMARK>
 VINA RESULT:      -8.9      2.598      6.331
  Name = 
  8 active torsions:
  status: ('A' for Active; 'I' for Inactive)
    1  A    between atoms: C_3  and  C_10
    2  A    between atoms: C_3  and  C_32
    3  A    between atoms: C_5  and  N_25
    4  A    between atoms: C_5  and  C_34
    5  A    between atoms: C_8  and  C_14
    6  A    between atoms: C_14  and  C_34
    7  A    between atoms: C_15  and  C_30
    8  A    between atoms: C_22  and  N_25
                            x       y       z     vdW  Elec       q    Type
                         _______ _______ _______ _____ _____    ______ ____

>  <TORSDO>
F 8

$$$$
=
 OpenBabel11062415423D

 34 38  0  0  1  0  0  0  0  0999 V2000
  188.3160  178.2190  148.8470 N   0  0  0  0  0  2  0  0  0  0  0  0
  190.5200  177.6820  148.3640 O   0  0  0  0  0  0  0  0  0  0  0  0
  188.4350  177.0240  143.8680 C   0  0  0  0  0  3  0  0  0  0  0  0
  190.0490  177.3770  145.6120 C   0  0  0  0  0  3  0  0  0  0  0  0
  187.3880  177.3390  144.7440 C   0  0  0  0  0  0  0  0  0  0  0  0
  189.3500  177.8720  147.9360 C   0  0  0  0  0  0  0  0  0  0  0  0
  189.7700  177.0720  144.2780 C   0  0  0  0  0  0  0  0  0  0  0  0
  189.0240  177.6860  146.5130 C   0  0  0  0  0  0  0  0  0  0  0  0
  187.6750  177.7360  146.0800 C   0  0  0  0  0  0  0  0  0  0  0  0
  187.0740  178.7830  148.3450 C   0  0  0  0  0  2  0  0  0  0  0  0
  186.5690  178.0440  147.0990 C   0  0  1  0  0  3  0  0  0  0  0  0
  185.4620  178.8780  146.5370 C   0  0  0  0  0  0  0  0  0  0  0  0
  184.1460  178.4300  146.5880 O   0  0  0  0  0  1  0  0  0  0  0  0
  185.7250  179.9800  145.9890 O   0  0  0  0  0  0  0  0  0  0  0  0
  190.8330  176.7590  143.3560 N   0  0  0  0  0  0  0  0  0  0  0  0
  191.7180  175.6280  143.5940 C   0  0  0  0  0  1  0  0  0  0  0  0
  191.0170  177.5030  142.1130 C   0  0  0  0  0  2  0  0  0  0  0  0
  190.3750  176.7710  140.9400 C   0  0  0  0  0  2  0  0  0  0  0  0
  192.3410  177.1710  139.6720 O   0  0  0  0  0  0  0  0  0  0  0  0
  191.0840  177.0830  139.6630 C   0  0  0  0  0  0  0  0  0  0  0  0
  190.3190  177.2520  138.4070 C   0  0  1  0  0  3  0  0  0  0  0  0
  189.4340  178.4340  138.1410 C   0  0  1  0  0  3  0  0  0  0  0  0
  189.4470  176.8740  136.3530 N   0  0  0  0  0  0  0  0  0  0  0  0
  190.3160  176.4240  137.3720 C   0  0  0  0  0  0  0  0  0  0  0  0
  191.0560  175.1340  137.2710 C   0  0  0  0  0  1  0  0  0  0  0  0
  188.8780  178.1600  136.7420 C   0  0  1  0  0  3  0  0  0  0  0  0
  187.9840  178.0100  137.9630 C   0  0  0  0  0  2  0  0  0  0  0  0
  185.9850  177.1220  144.2550 C   0  0  0  0  0  2  0  0  0  0  0  0
  185.1980  179.3470  140.6980 C   0  0  0  0  0  3  0  0  0  0  0  0
  184.1280  178.9830  141.5200 C   0  0  0  0  0  3  0  0  0  0  0  0
  184.3800  178.2550  142.6820 C   0  0  0  0  0  3  0  0  0  0  0  0
  186.4680  178.9940  141.0350 N   0  0  0  0  0  0  0  0  0  0  0  0
  186.7340  178.2840  142.1640 C   0  0  0  0  0  3  0  0  0  0  0  0
  185.6910  177.8970  143.0100 C   0  0  0  0  0  0  0  0  0  0  0  0
  3  7  2  0  0  0  0
  3  5  1  0  0  0  0
  4  8  2  0  0  0  0
  5  9  2  0  0  0  0
  6  2  2  0  0  0  0
  6  1  1  0  0  0  0
  7  4  1  0  0  0  0
  8  6  1  0  0  0  0
  9  8  1  0  0  0  0
  9 11  1  0  0  0  0
 10  1  1  0  0  0  0
 11 12  1  6  0  0  0
 11 10  1  0  0  0  0
 12 13  1  0  0  0  0
 14 12  2  0  0  0  0
 15 16  1  0  0  0  0
 15  7  1  0  0  0  0
 17 15  1  0  0  0  0
 18 17  1  0  0  0  0
 20 19  2  0  0  0  0
 20 18  1  0  0  0  0
 21 20  1  6  0  0  0
 22 27  1  1  0  0  0
 22 21  1  0  0  0  0
 23 26  1  0  0  0  0
 23 24  2  0  0  0  0
 24 21  1  0  0  0  0
 25 24  1  0  0  0  0
 26 27  1  1  0  0  0
 26 22  1  0  0  0  0
 28  5  1  0  0  0  0
 29 32  2  0  0  0  0
 29 30  1  0  0  0  0
 30 31  2  0  0  0  0
 31 34  1  0  0  0  0
 32 33  1  0  0  0  0
 33 34  2  0  0  0  0
 34 28  1  0  0  0  0
M  END
>  <MODEL>
6

>  <REMARK>
 VINA RESULT:      -8.9      1.459      2.078
  Name = 
  8 active torsions:
  status: ('A' for Active; 'I' for Inactive)
    1  A    between atoms: C_3  and  C_10
    2  A    between atoms: C_3  and  C_32
    3  A    between atoms: C_5  and  N_25
    4  A    between atoms: C_5  and  C_34
    5  A    between atoms: C_8  and  C_14
    6  A    between atoms: C_14  and  C_34
    7  A    between atoms: C_15  and  C_30
    8  A    between atoms: C_22  and  N_25
                            x       y       z     vdW  Elec       q    Type
                         _______ _______ _______ _____ _____    ______ ____

>  <TORSDO>
F 8

$$$$
=
 OpenBabel11062415423D

 34 38  0  0  1  0  0  0  0  0999 V2000
  191.6930  176.0500  146.1700 N   0  0  0  0  0  2  0  0  0  0  0  0
  192.2730  175.9980  143.9240 O   0  0  0  0  0  0  0  0  0  0  0  0
  187.5880  177.7090  143.5960 C   0  0  0  0  0  3  0  0  0  0  0  0
  189.8720  177.1800  143.0730 C   0  0  0  0  0  3  0  0  0  0  0  0
  187.8130  177.4400  144.9520 C   0  0  0  0  0  0  0  0  0  0  0  0
  191.4220  176.3110  144.7990 C   0  0  0  0  0  0  0  0  0  0  0  0
  188.6140  177.6170  142.6520 C   0  0  0  0  0  0  0  0  0  0  0  0
  190.1250  176.8930  144.4200 C   0  0  0  0  0  0  0  0  0  0  0  0
  189.1150  177.0790  145.3980 C   0  0  0  0  0  0  0  0  0  0  0  0
  190.9090  176.7130  147.1970 C   0  0  0  0  0  2  0  0  0  0  0  0
  189.4110  176.7220  146.8620 C   0  0  1  0  0  3  0  0  0  0  0  0
  188.7680  177.6540  147.8390 C   0  0  0  0  0  0  0  0  0  0  0  0
  189.0980  179.0050  147.8460 O   0  0  0  0  0  0  0  0  0  0  0  0
  187.9420  177.2090  148.6780 O   0  0  0  0  0  1  0  0  0  0  0  0
  188.3650  177.9150  141.2640 N   0  0  0  0  0  0  0  0  0  0  0  0
  187.1360  178.5780  140.8520 C   0  0  0  0  0  1  0  0  0  0  0  0
  189.3580  177.6440  140.2290 C   0  0  0  0  0  2  0  0  0  0  0  0
  189.2140  178.6210  139.0660 C   0  0  0  0  0  2  0  0  0  0  0  0
  189.0960  178.5060  136.6990 O   0  0  0  0  0  0  0  0  0  0  0  0
  189.4670  177.9400  137.7620 C   0  0  0  0  0  0  0  0  0  0  0  0
  190.1700  176.6380  137.7240 C   0  0  1  0  0  3  0  0  0  0  0  0
  191.6380  176.4920  137.9980 C   0  0  1  0  0  3  0  0  0  0  0  0
  190.5900  174.4270  137.4750 N   0  0  0  0  0  0  0  0  0  0  0  0
  189.6240  175.4580  137.4640 C   0  0  0  0  0  0  0  0  0  0  0  0
  188.1950  175.2020  137.1240 C   0  0  0  0  0  1  0  0  0  0  0  0
  191.8850  174.9900  137.8430 C   0  0  1  0  0  3  0  0  0  0  0  0
  192.3780  175.9590  136.7810 C   0  0  0  0  0  2  0  0  0  0  0  0
  186.6200  177.4260  145.8650 C   0  0  0  0  0  2  0  0  0  0  0  0
  183.1680  179.2370  144.1240 C   0  0  0  0  0  3  0  0  0  0  0  0
  184.0990  178.6120  143.2900 C   0  0  0  0  0  3  0  0  0  0  0  0
  185.2290  178.0200  143.8540 C   0  0  0  0  0  3  0  0  0  0  0  0
  183.3670  179.2620  145.4690 N   0  0  0  0  0  0  0  0  0  0  0  0
  184.4630  178.6910  146.0380 C   0  0  0  0  0  3  0  0  0  0  0  0
  185.4190  178.0600  145.2380 C   0  0  0  0  0  0  0  0  0  0  0  0
  1 10  1  0  0  0  0
  2  6  2  0  0  0  0
  3  5  1  0  0  0  0
  4  8  2  0  0  0  0
  5  9  2  0  0  0  0
  5 28  1  0  0  0  0
  6  1  1  0  0  0  0
  7  4  1  0  0  0  0
  7  3  2  0  0  0  0
  8  6  1  0  0  0  0
  8  9  1  0  0  0  0
  9 11  1  0  0  0  0
 11 10  1  0  0  0  0
 11 12  1  1  0  0  0
 12 13  2  0  0  0  0
 12 14  1  0  0  0  0
 15  7  1  0  0  0  0
 16 15  1  0  0  0  0
 17 15  1  0  0  0  0
 18 17  1  0  0  0  0
 19 20  2  0  0  0  0
 20 18  1  0  0  0  0
 21 20  1  1  0  0  0
 21 22  1  0  0  0  0
 22 27  1  6  0  0  0
 23 26  1  0  0  0  0
 24 23  2  0  0  0  0
 24 21  1  0  0  0  0
 25 24  1  0  0  0  0
 26 27  1  6  0  0  0
 26 22  1  0  0  0  0
 29 32  1  0  0  0  0
 30 31  1  0  0  0  0
 30 29  2  0  0  0  0
 31 34  2  0  0  0  0
 32 33  2  0  0  0  0
 34 28  1  0  0  0  0
 34 33  1  0  0  0  0
M  END
>  <MODEL>
7

>  <REMARK>
 VINA RESULT:      -8.9      1.748      2.607
  Name = 
  8 active torsions:
  status: ('A' for Active; 'I' for Inactive)
    1  A    between atoms: C_3  and  C_10
    2  A    between atoms: C_3  and  C_32
    3  A    between atoms: C_5  and  N_25
    4  A    between atoms: C_5  and  C_34
    5  A    between atoms: C_8  and  C_14
    6  A    between atoms: C_14  and  C_34
    7  A    between atoms: C_15  and  C_30
    8  A    between atoms: C_22  and  N_25
                            x       y       z     vdW  Elec       q    Type
                         _______ _______ _______ _____ _____    ______ ____

>  <TORSDO>
F 8

$$$$
=
 OpenBabel11062415423D

 34 38  0  0  1  0  0  0  0  0999 V2000
  189.3200  177.3740  146.3650 N   0  0  0  0  0  2  0  0  0  0  0  0
  187.1020  177.6130  147.0060 O   0  0  0  0  0  0  0  0  0  0  0  0
  186.6860  178.3080  142.0730 C   0  0  0  0  0  3  0  0  0  0  0  0
  186.1600  177.8420  144.3700 C   0  0  0  0  0  3  0  0  0  0  0  0
  188.0550  178.1660  142.3350 C   0  0  0  0  0  0  0  0  0  0  0  0
  187.9400  177.5480  146.0670 C   0  0  0  0  0  0  0  0  0  0  0  0
  185.7270  178.1160  143.0710 C   0  0  0  0  0  0  0  0  0  0  0  0
  187.5210  177.7040  144.6650 C   0  0  0  0  0  0  0  0  0  0  0  0
  188.4940  177.8010  143.6380 C   0  0  0  0  0  0  0  0  0  0  0  0
  190.2330  176.9440  145.3210 C   0  0  0  0  0  2  0  0  0  0  0  0
  189.9820  177.6800  143.9980 C   0  0  1  0  0  3  0  0  0  0  0  0
  190.7850  176.9630  142.9600 C   0  0  0  0  0  0  0  0  0  0  0  0
  190.4630  175.6600  142.5960 O   0  0  0  0  0  1  0  0  0  0  0  0
  191.7750  177.5320  142.4310 O   0  0  0  0  0  0  0  0  0  0  0  0
  184.3220  178.2510  142.7760 N   0  0  0  0  0  0  0  0  0  0  0  0
  183.4120  178.8510  143.7400 C   0  0  0  0  0  1  0  0  0  0  0  0
  183.7690  177.8730  141.4790 C   0  0  0  0  0  2  0  0  0  0  0  0
  183.1340  179.0750  140.7870 C   0  0  0  0  0  2  0  0  0  0  0  0
  184.5520  180.0410  139.1480 O   0  0  0  0  0  0  0  0  0  0  0  0
  183.6350  179.2100  139.3860 C   0  0  0  0  0  0  0  0  0  0  0  0
  183.0800  178.3600  138.3100 C   0  0  1  0  0  3  0  0  0  0  0  0
  183.6830  177.0440  137.9130 C   0  0  1  0  0  3  0  0  0  0  0  0
  181.7780  177.6120  136.6150 N   0  0  0  0  0  0  0  0  0  0  0  0
  182.0050  178.6200  137.5780 C   0  0  0  0  0  0  0  0  0  0  0  0
  181.1520  179.8400  137.6660 C   0  0  0  0  0  1  0  0  0  0  0  0
  182.7720  176.5570  136.7840 C   0  0  1  0  0  3  0  0  0  0  0  0
  184.1680  177.0710  136.4710 C   0  0  0  0  0  2  0  0  0  0  0  0
  189.0130  178.5310  141.2380 C   0  0  0  0  0  2  0  0  0  0  0  0
  188.0980  176.5960  137.5440 C   0  0  0  0  0  3  0  0  0  0  0  0
  187.3470  177.7100  137.9300 C   0  0  0  0  0  3  0  0  0  0  0  0
  187.6420  178.3450  139.1370 C   0  0  0  0  0  3  0  0  0  0  0  0
  189.1040  176.1430  138.3400 N   0  0  0  0  0  0  0  0  0  0  0  0
  189.4060  176.7490  139.5200 C   0  0  0  0  0  3  0  0  0  0  0  0
  188.6760  177.8630  139.9430 C   0  0  0  0  0  0  0  0  0  0  0  0
  3  5  2  0  0  0  0
  3  7  1  0  0  0  0
  4  8  1  0  0  0  0
  5  9  1  0  0  0  0
  6  1  1  0  0  0  0
  6  2  2  0  0  0  0
  7  4  2  0  0  0  0
  8  6  1  0  0  0  0
  9 11  1  0  0  0  0
  9  8  2  0  0  0  0
 10  1  1  0  0  0  0
 11 12  1  6  0  0  0
 11 10  1  0  0  0  0
 13 12  1  0  0  0  0
 14 12  2  0  0  0  0
 15  7  1  0  0  0  0
 15 16  1  0  0  0  0
 17 15  1  0  0  0  0
 18 17  1  0  0  0  0
 19 20  2  0  0  0  0
 20 18  1  0  0  0  0
 21 20  1  1  0  0  0
 22 27  1  6  0  0  0
 22 21  1  0  0  0  0
 23 26  1  0  0  0  0
 23 24  2  0  0  0  0
 24 25  1  0  0  0  0
 24 21  1  0  0  0  0
 26 27  1  6  0  0  0
 26 22  1  0  0  0  0
 28  5  1  0  0  0  0
 29 30  2  0  0  0  0
 29 32  1  0  0  0  0
 30 31  1  0  0  0  0
 31 34  2  0  0  0  0
 32 33  2  0  0  0  0
 33 34  1  0  0  0  0
 34 28  1  0  0  0  0
M  END
>  <MODEL>
8

>  <REMARK>
 VINA RESULT:      -8.9      2.605      5.875
  Name = 
  8 active torsions:
  status: ('A' for Active; 'I' for Inactive)
    1  A    between atoms: C_3  and  C_10
    2  A    between atoms: C_3  and  C_32
    3  A    between atoms: C_5  and  N_25
    4  A    between atoms: C_5  and  C_34
    5  A    between atoms: C_8  and  C_14
    6  A    between atoms: C_14  and  C_34
    7  A    between atoms: C_15  and  C_30
    8  A    between atoms: C_22  and  N_25
                            x       y       z     vdW  Elec       q    Type
                         _______ _______ _______ _____ _____    ______ ____

>  <TORSDO>
F 8

$$$$
=
 OpenBabel11062415423D

 34 38  0  0  1  0  0  0  0  0999 V2000
  185.6990  178.5100  138.3610 N   0  0  0  0  0  2  0  0  0  0  0  0
  185.9330  179.1710  140.5730 O   0  0  0  0  0  0  0  0  0  0  0  0
  190.2140  176.6710  139.9300 C   0  0  0  0  0  3  0  0  0  0  0  0
  188.5420  178.1560  140.8050 C   0  0  0  0  0  3  0  0  0  0  0  0
  189.4930  176.5260  138.7380 C   0  0  0  0  0  0  0  0  0  0  0  0
  186.4480  178.6150  139.5650 C   0  0  0  0  0  0  0  0  0  0  0  0
  189.7690  177.5070  140.9570 C   0  0  0  0  0  0  0  0  0  0  0  0
  187.7930  178.0230  139.6310 C   0  0  0  0  0  0  0  0  0  0  0  0
  188.2860  177.2540  138.5460 C   0  0  0  0  0  0  0  0  0  0  0  0
  186.3810  178.2090  137.1140 C   0  0  0  0  0  2  0  0  0  0  0  0
  187.4260  177.0980  137.2830 C   0  0  1  0  0  3  0  0  0  0  0  0
  188.2280  177.0800  136.0210 C   0  0  0  0  0  0  0  0  0  0  0  0
  188.1050  176.0250  135.1230 O   0  0  0  0  0  0  0  0  0  0  0  0
  189.0380  178.0130  135.7800 O   0  0  0  0  0  1  0  0  0  0  0  0
  190.5360  177.6540  142.1690 N   0  0  0  0  0  0  0  0  0  0  0  0
  191.9050  177.1670  142.2490 C   0  0  0  0  0  1  0  0  0  0  0  0
  190.0090  178.3650  143.3300 C   0  0  0  0  0  2  0  0  0  0  0  0
  189.7210  177.4000  144.4750 C   0  0  0  0  0  2  0  0  0  0  0  0
  187.9050  176.1460  143.6020 O   0  0  0  0  0  0  0  0  0  0  0  0
  188.2890  176.9760  144.4700 C   0  0  0  0  0  0  0  0  0  0  0  0
  187.3510  177.5030  145.4860 C   0  0  0  0  0  0  0  0  0  0  0  0
  185.9170  177.8270  145.1860 C   0  0  1  0  0  3  0  0  0  0  0  0
  186.5100  178.2750  147.4410 N   0  0  0  0  0  2  0  0  0  0  0  0
  187.6270  177.7420  146.7600 C   0  0  0  0  0  0  0  0  0  0  0  0
  188.9500  177.5630  147.4260 C   0  0  0  0  0  1  0  0  0  0  0  0
  185.3730  178.3240  146.5270 C   0  0  1  0  0  3  0  0  0  0  0  0
  185.6290  179.3060  145.3950 C   0  0  0  0  0  2  0  0  0  0  0  0
  189.9750  175.4990  137.7540 C   0  0  0  0  0  2  0  0  0  0  0  0
  194.2360  175.4230  137.4910 C   0  0  0  0  0  3  0  0  0  0  0  0
  193.5370  174.2130  137.5230 C   0  0  0  0  0  3  0  0  0  0  0  0
  192.1450  174.2330  137.6100 C   0  0  0  0  0  3  0  0  0  0  0  0
  193.5600  176.6020  137.5430 N   0  0  0  0  0  0  0  0  0  0  0  0
  192.2020  176.6420  137.6280 C   0  0  0  0  0  3  0  0  0  0  0  0
  191.4680  175.4540  137.6670 C   0  0  0  0  0  0  0  0  0  0  0  0
  1  6  1  0  0  0  0
  3  7  1  0  0  0  0
  4  7  2  0  0  0  0
  5  3  2  0  0  0  0
  6  8  1  0  0  0  0
  6  2  2  0  0  0  0
  7 15  1  0  0  0  0
  8  4  1  0  0  0  0
  9  5  1  0  0  0  0
  9  8  2  0  0  0  0
 10 11  1  0  0  0  0
 10  1  1  0  0  0  0
 11 12  1  6  0  0  0
 11  9  1  0  0  0  0
 13 12  2  0  0  0  0
 14 12  1  0  0  0  0
 15 16  1  0  0  0  0
 15 17  1  0  0  0  0
 17 18  1  0  0  0  0
 19 20  2  0  0  0  0
 20 18  1  0  0  0  0
 20 21  1  0  0  0  0
 21 24  2  0  0  0  0
 22 27  1  6  0  0  0
 22 21  1  0  0  0  0
 22 26  1  0  0  0  0
 24 25  1  0  0  0  0
 24 23  1  0  0  0  0
 26 27  1  6  0  0  0
 26 23  1  0  0  0  0
 28  5  1  0  0  0  0
 29 30  2  0  0  0  0
 29 32  1  0  0  0  0
 30 31  1  0  0  0  0
 31 34  2  0  0  0  0
 32 33  2  0  0  0  0
 33 34  1  0  0  0  0
 34 28  1  0  0  0  0
M  END
>  <MODEL>
9

>  <REMARK>
 VINA RESULT:      -8.8      2.259      8.626
  Name = 
  8 active torsions:
  status: ('A' for Active; 'I' for Inactive)
    1  A    between atoms: C_3  and  C_10
    2  A    between atoms: C_3  and  C_32
    3  A    between atoms: C_5  and  N_25
    4  A    between atoms: C_5  and  C_34
    5  A    between atoms: C_8  and  C_14
    6  A    between atoms: C_14  and  C_34
    7  A    between atoms: C_15  and  C_30
    8  A    between atoms: C_22  and  N_25
                            x       y       z     vdW  Elec       q    Type
                         _______ _______ _______ _____ _____    ______ ____

>  <TORSDO>
F 8

$$$$
