=
 OpenBabel11062412403D

 32 35  0  0  1  0  0  0  0  0999 V2000
  189.7460  178.3460  144.9950 O   0  0  0  0  0  0  0  0  0  0  0  0
  188.8460  178.0560  142.5500 C   0  0  2  0  0  3  0  0  0  0  0  0
  187.6800  175.9510  143.3440 C   0  0  0  0  0  1  0  0  0  0  0  0
  190.3000  177.6200  142.7190 C   0  0  0  0  0  2  0  0  0  0  0  0
  188.5660  177.5560  145.0110 C   0  0  2  0  0  3  0  0  0  0  0  0
  190.7510  177.7480  144.1820 C   0  0  2  0  0  0  0  0  0  0  0  0
  191.1520  176.3660  144.7020 C   0  0  0  0  0  1  0  0  0  0  0  0
  187.9360  177.4260  143.6110 C   0  0  1  0  0  3  0  0  0  0  0  0
  191.9850  178.6470  144.1880 C   0  0  0  0  0  2  0  0  0  0  0  0
  191.6310  180.1210  144.3310 C   0  0  0  0  0  1  0  0  0  0  0  0
  187.9280  177.5630  147.4190 C   0  0  0  0  0  1  0  0  0  0  0  0
  187.5830  178.1250  146.0470 C   0  0  2  0  0  3  0  0  0  0  0  0
  185.4080  179.0410  145.2460 C   0  0  1  0  0  3  0  0  0  0  0  0
  184.6250  179.0040  146.4680 N   0  0  0  0  0  2  0  0  0  0  0  0
  186.1190  177.8050  145.7100 C   0  0  2  0  0  3  0  0  0  0  0  0
  185.2940  177.8450  146.9110 N   0  0  0  0  0  2  0  0  0  0  0  0
  184.5160  178.7210  144.0580 C   0  0  0  0  0  2  0  0  0  0  0  0
  185.0150  179.4500  142.8200 C   0  0  0  0  0  2  0  0  0  0  0  0
  183.2470  178.5000  141.5930 C   0  0  0  0  0  2  0  0  0  0  0  0
  184.6980  178.6760  141.6290 N   0  0  0  0  0  0  0  0  0  0  0  0
  181.7730  178.6610  139.7370 O   0  0  0  0  0  0  0  0  0  0  0  0
  185.0800  179.4540  140.5080 N   0  0  0  0  0  2  0  0  0  0  0  0
  182.8840  178.8150  140.2160 C   0  0  0  0  0  0  0  0  0  0  0  0
  184.0380  179.3340  139.4920 C   0  0  0  0  0  2  0  0  0  0  0  0
  188.3200  178.0070  141.1120 C   0  0  0  0  0  2  0  0  0  0  0  0
  189.5130  177.3170  139.9180 S   0  0  0  0  0  0  0  0  0  0  0  0
  189.2230  178.6600  138.7290 C   0  0  0  0  0  2  0  0  0  0  0  0
  187.0920  178.6560  137.6330 O   0  0  0  0  0  0  0  0  0  0  0  0
  186.3000  177.6990  136.9830 C   0  0  0  0  0  2  0  0  0  0  0  0
  186.9260  176.3400  137.1880 C   0  0  0  0  0  2  0  0  0  0  0  0
  188.3330  176.6480  137.6030 C   0  0  0  0  0  2  0  0  0  0  0  0
  188.4020  178.1550  137.5600 C   0  0  2  0  0  3  0  0  0  0  0  0
  1  5  1  0  0  0  0
  2 25  1  6  0  0  0
  2  4  1  0  0  0  0
  2  8  1  0  0  0  0
  4  6  1  0  0  0  0
  5 12  1  1  0  0  0
  6  9  1  0  0  0  0
  6  7  1  1  0  0  0
  6  1  1  0  0  0  0
  8  3  1  6  0  0  0
  8  5  1  0  0  0  0
  9 10  1  0  0  0  0
 12 11  1  1  0  0  0
 13 17  1  6  0  0  0
 13 15  1  0  0  0  0
 13 14  1  0  0  0  0
 14 16  1  0  0  0  0
 15 12  1  1  0  0  0
 15 16  1  0  0  0  0
 18 17  1  0  0  0  0
 19 20  1  0  0  0  0
 20 18  1  0  0  0  0
 21 23  2  0  0  0  0
 22 20  1  0  0  0  0
 23 19  1  0  0  0  0
 24 23  1  0  0  0  0
 24 22  1  0  0  0  0
 26 25  1  0  0  0  0
 27 26  1  0  0  0  0
 29 30  1  0  0  0  0
 29 28  1  0  0  0  0
 30 31  1  0  0  0  0
 32 31  1  0  0  0  0
 32 28  1  0  0  0  0
 32 27  1  1  0  0  0
M  END
>  <MODEL>
1

>  <REMARK>
 VINA RESULT:      -7.5      0.000      0.000
  Name = 
  10 active torsions:
  status: ('A' for Active; 'I' for Inactive)
    1  A    between atoms: C_1  and  C_24
    2  A    between atoms: S_2  and  C_7
    3  A    between atoms: S_2  and  C_11
    4  A    between atoms: C_3  and  C_12
    5  A    between atoms: C_7  and  C_14
    6  A    between atoms: C_10  and  C_12
    7  A    between atoms: C_10  and  N_27
    8  A    between atoms: C_11  and  C_22
    9  A    between atoms: C_18  and  C_19
   10  A    between atoms: C_19  and  C_20
                            x       y       z     vdW  Elec       q    Type
                         _______ _______ _______ _____ _____    ______ ____

>  <TORSDO>
F 10

$$$$
=
 OpenBabel11062412403D

 32 35  0  0  1  0  0  0  0  0999 V2000
  189.5520  177.7570  147.1910 O   0  0  0  0  0  0  0  0  0  0  0  0
  190.4780  178.0850  144.7610 C   0  0  2  0  0  3  0  0  0  0  0  0
  188.5600  176.6400  143.9510 C   0  0  0  0  0  1  0  0  0  0  0  0
  191.2530  177.0490  145.5720 C   0  0  0  0  0  2  0  0  0  0  0  0
  188.5060  177.5600  146.2520 C   0  0  2  0  0  3  0  0  0  0  0  0
  190.6250  176.8490  146.9600 C   0  0  2  0  0  0  0  0  0  0  0  0
  190.1750  175.3940  147.0980 C   0  0  0  0  0  1  0  0  0  0  0  0
  188.9670  177.8310  144.8060 C   0  0  1  0  0  3  0  0  0  0  0  0
  191.7240  177.1190  147.9850 C   0  0  0  0  0  2  0  0  0  0  0  0
  192.6600  175.9310  148.1630 C   0  0  0  0  0  1  0  0  0  0  0  0
  187.1310  178.3710  148.1640 C   0  0  0  0  0  1  0  0  0  0  0  0
  187.2920  178.4140  146.6500 C   0  0  2  0  0  3  0  0  0  0  0  0
  185.5150  178.9720  144.9960 C   0  0  1  0  0  3  0  0  0  0  0  0
  184.3900  179.2360  145.8750 N   0  0  0  0  0  2  0  0  0  0  0  0
  185.9930  177.9460  145.9780 C   0  0  2  0  0  3  0  0  0  0  0  0
  184.8390  178.2760  146.8040 N   0  0  0  0  0  2  0  0  0  0  0  0
  185.0240  178.2970  143.7250 C   0  0  0  0  0  2  0  0  0  0  0  0
  185.4310  179.1130  142.5090 C   0  0  0  0  0  2  0  0  0  0  0  0
  183.4530  178.3190  141.5150 C   0  0  0  0  0  2  0  0  0  0  0  0
  184.8860  178.5080  141.3030 N   0  0  0  0  0  0  0  0  0  0  0  0
  181.6580  178.7170  140.0090 O   0  0  0  0  0  0  0  0  0  0  0  0
  185.0610  179.4410  140.2500 N   0  0  0  0  0  2  0  0  0  0  0  0
  182.8410  178.8180  140.2880 C   0  0  0  0  0  0  0  0  0  0  0  0
  183.8460  179.4480  139.4410 C   0  0  0  0  0  2  0  0  0  0  0  0
  191.0580  178.3870  143.3760 C   0  0  0  0  0  2  0  0  0  0  0  0
  191.7600  176.9250  142.5400 S   0  0  0  0  0  0  0  0  0  0  0  0
  191.3940  177.5930  140.8900 C   0  0  0  0  0  2  0  0  0  0  0  0
  190.2540  176.6730  138.9940 O   0  0  0  0  0  0  0  0  0  0  0  0
  188.9580  176.7580  138.4630 C   0  0  0  0  0  2  0  0  0  0  0  0
  188.1940  177.8110  139.2320 C   0  0  0  0  0  2  0  0  0  0  0  0
  188.9870  177.9860  140.4930 C   0  0  0  0  0  2  0  0  0  0  0  0
  190.1110  176.9890  140.3540 C   0  0  2  0  0  3  0  0  0  0  0  0
  2 25  1  6  0  0  0
  2  8  1  0  0  0  0
  2  4  1  0  0  0  0
  4  6  1  0  0  0  0
  5 12  1  1  0  0  0
  5  1  1  0  0  0  0
  6  7  1  1  0  0  0
  6  1  1  0  0  0  0
  6  9  1  0  0  0  0
  8  3  1  6  0  0  0
  8  5  1  0  0  0  0
  9 10  1  0  0  0  0
 12 11  1  1  0  0  0
 13 17  1  6  0  0  0
 13 14  1  0  0  0  0
 13 15  1  0  0  0  0
 14 16  1  0  0  0  0
 15 12  1  1  0  0  0
 15 16  1  0  0  0  0
 18 17  1  0  0  0  0
 20 19  1  0  0  0  0
 20 18  1  0  0  0  0
 21 23  2  0  0  0  0
 22 20  1  0  0  0  0
 23 19  1  0  0  0  0
 24 22  1  0  0  0  0
 24 23  1  0  0  0  0
 26 25  1  0  0  0  0
 27 26  1  0  0  0  0
 28 32  1  0  0  0  0
 29 28  1  0  0  0  0
 29 30  1  0  0  0  0
 30 31  1  0  0  0  0
 32 31  1  0  0  0  0
 32 27  1  6  0  0  0
M  END
>  <MODEL>
2

>  <REMARK>
 VINA RESULT:      -7.4      1.733      2.443
  Name = 
  10 active torsions:
  status: ('A' for Active; 'I' for Inactive)
    1  A    between atoms: C_1  and  C_24
    2  A    between atoms: S_2  and  C_7
    3  A    between atoms: S_2  and  C_11
    4  A    between atoms: C_3  and  C_12
    5  A    between atoms: C_7  and  C_14
    6  A    between atoms: C_10  and  C_12
    7  A    between atoms: C_10  and  N_27
    8  A    between atoms: C_11  and  C_22
    9  A    between atoms: C_18  and  C_19
   10  A    between atoms: C_19  and  C_20
                            x       y       z     vdW  Elec       q    Type
                         _______ _______ _______ _____ _____    ______ ____

>  <TORSDO>
F 10

$$$$
=
 OpenBabel11062412403D

 32 35  0  0  1  0  0  0  0  0999 V2000
  188.2500  178.3230  146.9420 O   0  0  0  0  0  0  0  0  0  0  0  0
  189.5420  178.1990  144.6650 C   0  0  2  0  0  3  0  0  0  0  0  0
  187.7320  176.6240  143.8480 C   0  0  0  0  0  1  0  0  0  0  0  0
  190.1570  177.3330  145.7610 C   0  0  0  0  0  2  0  0  0  0  0  0
  187.3540  177.9530  145.9050 C   0  0  2  0  0  3  0  0  0  0  0  0
  189.3220  177.3910  147.0490 C   0  0  2  0  0  0  0  0  0  0  0  0
  188.8180  175.9850  147.3810 C   0  0  0  0  0  1  0  0  0  0  0  0
  188.0350  177.9530  144.5230 C   0  0  1  0  0  3  0  0  0  0  0  0
  190.2590  177.8490  148.1640 C   0  0  0  0  0  2  0  0  0  0  0  0
  191.6030  177.1350  148.1260 C   0  0  0  0  0  1  0  0  0  0  0  0
  185.6170  178.9540  147.3850 C   0  0  0  0  0  1  0  0  0  0  0  0
  186.1160  178.8640  145.9490 C   0  0  2  0  0  3  0  0  0  0  0  0
  184.8650  179.2400  143.8270 C   0  0  1  0  0  3  0  0  0  0  0  0
  183.5900  179.7110  144.3360 N   0  0  0  0  0  2  0  0  0  0  0  0
  184.9830  178.3650  145.0390 C   0  0  2  0  0  3  0  0  0  0  0  0
  183.6990  178.8950  145.4800 N   0  0  0  0  0  2  0  0  0  0  0  0
  184.6390  178.3930  142.5850 C   0  0  0  0  0  2  0  0  0  0  0  0
  185.3780  178.9950  141.4010 C   0  0  0  0  0  2  0  0  0  0  0  0
  183.3340  178.2240  140.5300 C   0  0  0  0  0  2  0  0  0  0  0  0
  184.6740  178.6800  140.1670 N   0  0  0  0  0  0  0  0  0  0  0  0
  181.2520  178.7550  139.5140 O   0  0  0  0  0  0  0  0  0  0  0  0
  184.5490  179.8880  139.4350 N   0  0  0  0  0  2  0  0  0  0  0  0
  182.4510  178.9510  139.6240 C   0  0  0  0  0  0  0  0  0  0  0  0
  183.2060  179.9400  138.8650 C   0  0  0  0  0  2  0  0  0  0  0  0
  190.3330  178.2400  143.3540 C   0  0  0  0  0  2  0  0  0  0  0  0
  191.4190  176.7960  143.1060 S   0  0  0  0  0  0  0  0  0  0  0  0
  190.4670  176.2250  141.6680 C   0  0  0  0  0  2  0  0  0  0  0  0
  188.6710  177.4270  140.6320 O   0  0  0  0  0  0  0  0  0  0  0  0
  188.4690  178.0630  139.3980 C   0  0  0  0  0  2  0  0  0  0  0  0
  189.6430  177.7520  138.5010 C   0  0  0  0  0  2  0  0  0  0  0  0
  190.7080  177.2830  139.4470 C   0  0  0  0  0  2  0  0  0  0  0  0
  190.0640  177.4060  140.8060 C   0  0  2  0  0  3  0  0  0  0  0  0
  1  6  1  0  0  0  0
  2 25  1  6  0  0  0
  2  4  1  0  0  0  0
  4  6  1  0  0  0  0
  5 12  1  6  0  0  0
  5  1  1  0  0  0  0
  6  7  1  1  0  0  0
  6  9  1  0  0  0  0
  8  3  1  1  0  0  0
  8  2  1  0  0  0  0
  8  5  1  0  0  0  0
 10  9  1  0  0  0  0
 12 11  1  1  0  0  0
 13 17  1  6  0  0  0
 13 14  1  0  0  0  0
 13 15  1  0  0  0  0
 14 16  1  0  0  0  0
 15 16  1  0  0  0  0
 15 12  1  1  0  0  0
 18 17  1  0  0  0  0
 20 19  1  0  0  0  0
 20 18  1  0  0  0  0
 21 23  2  0  0  0  0
 22 20  1  0  0  0  0
 23 19  1  0  0  0  0
 24 22  1  0  0  0  0
 24 23  1  0  0  0  0
 26 25  1  0  0  0  0
 27 26  1  0  0  0  0
 28 32  1  0  0  0  0
 29 28  1  0  0  0  0
 30 29  1  0  0  0  0
 30 31  1  0  0  0  0
 31 32  1  0  0  0  0
 32 27  1  1  0  0  0
M  END
>  <MODEL>
3

>  <REMARK>
 VINA RESULT:      -7.2      1.801      2.658
  Name = 
  10 active torsions:
  status: ('A' for Active; 'I' for Inactive)
    1  A    between atoms: C_1  and  C_24
    2  A    between atoms: S_2  and  C_7
    3  A    between atoms: S_2  and  C_11
    4  A    between atoms: C_3  and  C_12
    5  A    between atoms: C_7  and  C_14
    6  A    between atoms: C_10  and  C_12
    7  A    between atoms: C_10  and  N_27
    8  A    between atoms: C_11  and  C_22
    9  A    between atoms: C_18  and  C_19
   10  A    between atoms: C_19  and  C_20
                            x       y       z     vdW  Elec       q    Type
                         _______ _______ _______ _____ _____    ______ ____

>  <TORSDO>
F 10

$$$$
=
 OpenBabel11062412403D

 32 35  0  0  1  0  0  0  0  0999 V2000
  190.5680  176.9260  142.6220 O   0  0  0  0  0  0  0  0  0  0  0  0
  188.1510  177.0930  143.6220 C   0  0  2  0  0  3  0  0  0  0  0  0
  187.7640  179.0620  142.0750 C   0  0  0  0  0  1  0  0  0  0  0  0
  189.2260  177.6880  144.5280 C   0  0  0  0  0  2  0  0  0  0  0  0
  189.7140  177.5810  141.6970 C   0  0  2  0  0  3  0  0  0  0  0  0
  190.6090  177.6250  143.8630 C   0  0  2  0  0  0  0  0  0  0  0  0
  191.1460  179.0470  143.6940 C   0  0  0  0  0  1  0  0  0  0  0  0
  188.2540  177.6270  142.1880 C   0  0  1  0  0  3  0  0  0  0  0  0
  191.5260  176.8680  144.8210 C   0  0  0  0  0  2  0  0  0  0  0  0
  191.0140  176.8870  146.2550 C   0  0  0  0  0  1  0  0  0  0  0  0
  191.3200  176.8610  139.9340 C   0  0  0  0  0  1  0  0  0  0  0  0
  189.8470  176.9150  140.3180 C   0  0  2  0  0  3  0  0  0  0  0  0
  188.5060  176.6720  138.2320 C   0  0  1  0  0  3  0  0  0  0  0  0
  189.4240  177.2150  137.2470 N   0  0  0  0  0  2  0  0  0  0  0  0
  189.0550  177.6510  139.2270 C   0  0  2  0  0  3  0  0  0  0  0  0
  189.9470  178.1320  138.1800 N   0  0  0  0  0  2  0  0  0  0  0  0
  187.0790  177.0440  137.8610 C   0  0  0  0  0  2  0  0  0  0  0  0
  186.5550  178.1130  138.8060 C   0  0  0  0  0  2  0  0  0  0  0  0
  184.4270  177.8020  137.8520 C   0  0  0  0  0  2  0  0  0  0  0  0
  185.4320  178.8070  138.1920 N   0  0  0  0  0  0  0  0  0  0  0  0
  182.0680  177.9030  138.1200 O   0  0  0  0  0  0  0  0  0  0  0  0
  184.8840  179.6690  139.1750 N   0  0  0  0  0  2  0  0  0  0  0  0
  183.1740  178.3740  138.3310 C   0  0  0  0  0  0  0  0  0  0  0  0
  183.4290  179.5930  139.0890 C   0  0  0  0  0  2  0  0  0  0  0  0
  186.7410  177.0700  144.2210 C   0  0  0  0  0  2  0  0  0  0  0  0
  186.5990  177.9740  145.7980 S   0  0  0  0  0  0  0  0  0  0  0  0
  185.4440  179.1860  145.0920 C   0  0  0  0  0  2  0  0  0  0  0  0
  184.3970  178.9260  142.9520 O   0  0  0  0  0  0  0  0  0  0  0  0
  183.0830  178.7610  142.4910 C   0  0  0  0  0  2  0  0  0  0  0  0
  182.1400  178.9490  143.6560 C   0  0  0  0  0  2  0  0  0  0  0  0
  183.0160  178.7860  144.8620 C   0  0  0  0  0  2  0  0  0  0  0  0
  184.3750  178.4790  144.2830 C   0  0  2  0  0  3  0  0  0  0  0  0
  1  6  1  0  0  0  0
  2 25  1  1  0  0  0
  2  4  1  0  0  0  0
  5 12  1  6  0  0  0
  5  8  1  0  0  0  0
  5  1  1  0  0  0  0
  6  7  1  6  0  0  0
  6  4  1  0  0  0  0
  6  9  1  0  0  0  0
  8  3  1  1  0  0  0
  8  2  1  0  0  0  0
  9 10  1  0  0  0  0
 12 11  1  6  0  0  0
 13 17  1  6  0  0  0
 13 15  1  0  0  0  0
 14 16  1  0  0  0  0
 14 13  1  0  0  0  0
 15 12  1  1  0  0  0
 16 15  1  0  0  0  0
 17 18  1  0  0  0  0
 19 20  1  0  0  0  0
 19 23  1  0  0  0  0
 20 18  1  0  0  0  0
 20 22  1  0  0  0  0
 21 23  2  0  0  0  0
 23 24  1  0  0  0  0
 24 22  1  0  0  0  0
 25 26  1  0  0  0  0
 27 26  1  0  0  0  0
 28 32  1  0  0  0  0
 29 28  1  0  0  0  0
 29 30  1  0  0  0  0
 30 31  1  0  0  0  0
 32 31  1  0  0  0  0
 32 27  1  1  0  0  0
M  END
>  <MODEL>
4

>  <REMARK>
 VINA RESULT:      -7.0      2.788      5.626
  Name = 
  10 active torsions:
  status: ('A' for Active; 'I' for Inactive)
    1  A    between atoms: C_1  and  C_24
    2  A    between atoms: S_2  and  C_7
    3  A    between atoms: S_2  and  C_11
    4  A    between atoms: C_3  and  C_12
    5  A    between atoms: C_7  and  C_14
    6  A    between atoms: C_10  and  C_12
    7  A    between atoms: C_10  and  N_27
    8  A    between atoms: C_11  and  C_22
    9  A    between atoms: C_18  and  C_19
   10  A    between atoms: C_19  and  C_20
                            x       y       z     vdW  Elec       q    Type
                         _______ _______ _______ _____ _____    ______ ____

>  <TORSDO>
F 10

$$$$
=
 OpenBabel11062412403D

 32 35  0  0  1  0  0  0  0  0999 V2000
  190.6830  177.5900  144.0280 O   0  0  0  0  0  0  0  0  0  0  0  0
  188.7610  178.0750  142.3130 C   0  0  2  0  0  3  0  0  0  0  0  0
  187.3840  176.3270  143.5260 C   0  0  0  0  0  1  0  0  0  0  0  0
  189.8660  177.1850  141.7510 C   0  0  0  0  0  2  0  0  0  0  0  0
  189.4350  177.2190  144.5930 C   0  0  2  0  0  3  0  0  0  0  0  0
  190.9280  176.8780  142.8180 C   0  0  2  0  0  0  0  0  0  0  0  0
  190.9790  175.3670  143.0510 C   0  0  0  0  0  1  0  0  0  0  0  0
  188.2530  177.5680  143.6680 C   0  0  1  0  0  3  0  0  0  0  0  0
  192.2700  177.3290  142.2470 C   0  0  0  0  0  2  0  0  0  0  0  0
  192.2150  177.5670  140.7450 C   0  0  0  0  0  1  0  0  0  0  0  0
  190.4540  177.3920  146.8600 C   0  0  0  0  0  1  0  0  0  0  0  0
  189.2960  177.8540  145.9860 C   0  0  2  0  0  3  0  0  0  0  0  0
  187.4330  178.6880  147.4160 C   0  0  1  0  0  3  0  0  0  0  0  0
  187.6920  177.9740  148.6530 N   0  0  0  0  0  2  0  0  0  0  0  0
  187.9640  177.5030  146.6660 C   0  0  2  0  0  3  0  0  0  0  0  0
  188.1970  176.8600  147.9530 N   0  0  0  0  0  2  0  0  0  0  0  0
  185.9330  178.8170  147.2040 C   0  0  0  0  0  2  0  0  0  0  0  0
  185.5390  178.1980  145.8720 C   0  0  0  0  0  2  0  0  0  0  0  0
  184.8700  178.7740  143.6920 C   0  0  0  0  0  2  0  0  0  0  0  0
  184.7530  179.1480  145.1000 N   0  0  0  0  0  0  0  0  0  0  0  0
  183.1810  178.7060  142.0220 O   0  0  0  0  0  0  0  0  0  0  0  0
  183.3990  178.9890  145.4910 N   0  0  0  0  0  2  0  0  0  0  0  0
  183.5000  178.8250  143.1930 C   0  0  0  0  0  0  0  0  0  0  0  0
  182.5680  179.0450  144.2920 C   0  0  0  0  0  2  0  0  0  0  0  0
  187.6770  178.4740  141.3070 C   0  0  0  0  0  2  0  0  0  0  0  0
  188.1230  178.1280  139.5730 S   0  0  0  0  0  0  0  0  0  0  0  0
  186.4120  178.3520  139.0030 C   0  0  0  0  0  2  0  0  0  0  0  0
  186.5200  176.5870  137.3850 O   0  0  0  0  0  0  0  0  0  0  0  0
  187.0240  176.4480  136.0840 C   0  0  0  0  0  2  0  0  0  0  0  0
  187.8010  177.6960  135.7350 C   0  0  0  0  0  2  0  0  0  0  0  0
  187.3290  178.7080  136.7350 C   0  0  0  0  0  2  0  0  0  0  0  0
  186.2930  177.9640  137.5420 C   0  0  2  0  0  3  0  0  0  0  0  0
  1  5  1  0  0  0  0
  2 25  1  6  0  0  0
  2  8  1  0  0  0  0
  4  2  1  0  0  0  0
  4  6  1  0  0  0  0
  5 12  1  1  0  0  0
  6  7  1  1  0  0  0
  6  1  1  0  0  0  0
  8  3  1  6  0  0  0
  8  5  1  0  0  0  0
  9  6  1  0  0  0  0
 10  9  1  0  0  0  0
 12 11  1  1  0  0  0
 13 17  1  6  0  0  0
 13 14  1  0  0  0  0
 15 12  1  1  0  0  0
 15 13  1  0  0  0  0
 15 16  1  0  0  0  0
 16 14  1  0  0  0  0
 18 17  1  0  0  0  0
 19 20  1  0  0  0  0
 20 22  1  0  0  0  0
 20 18  1  0  0  0  0
 21 23  2  0  0  0  0
 23 19  1  0  0  0  0
 23 24  1  0  0  0  0
 24 22  1  0  0  0  0
 26 25  1  0  0  0  0
 27 26  1  0  0  0  0
 28 32  1  0  0  0  0
 29 28  1  0  0  0  0
 30 29  1  0  0  0  0
 30 31  1  0  0  0  0
 31 32  1  0  0  0  0
 32 27  1  1  0  0  0
M  END
>  <MODEL>
5

>  <REMARK>
 VINA RESULT:      -6.8      1.966      2.692
  Name = 
  10 active torsions:
  status: ('A' for Active; 'I' for Inactive)
    1  A    between atoms: C_1  and  C_24
    2  A    between atoms: S_2  and  C_7
    3  A    between atoms: S_2  and  C_11
    4  A    between atoms: C_3  and  C_12
    5  A    between atoms: C_7  and  C_14
    6  A    between atoms: C_10  and  C_12
    7  A    between atoms: C_10  and  N_27
    8  A    between atoms: C_11  and  C_22
    9  A    between atoms: C_18  and  C_19
   10  A    between atoms: C_19  and  C_20
                            x       y       z     vdW  Elec       q    Type
                         _______ _______ _______ _____ _____    ______ ____

>  <TORSDO>
F 10

$$$$
=
 OpenBabel11062412403D

 32 35  0  0  1  0  0  0  0  0999 V2000
  189.3880  175.3540  137.5380 O   0  0  0  0  0  0  0  0  0  0  0  0
  189.8990  176.7610  139.6890 C   0  0  2  0  0  3  0  0  0  0  0  0
  189.0610  178.7930  138.4280 C   0  0  0  0  0  1  0  0  0  0  0  0
  191.1420  176.4430  138.8620 C   0  0  0  0  0  2  0  0  0  0  0  0
  188.5900  176.5280  137.5400 C   0  0  2  0  0  3  0  0  0  0  0  0
  190.7740  175.6780  137.5810 C   0  0  2  0  0  0  0  0  0  0  0  0
  191.2010  176.5050  136.3670 C   0  0  0  0  0  1  0  0  0  0  0  0
  188.7770  177.3530  138.8290 C   0  0  1  0  0  3  0  0  0  0  0  0
  191.5800  174.3810  137.5940 C   0  0  0  0  0  2  0  0  0  0  0  0
  192.7260  174.3960  136.5930 C   0  0  0  0  0  1  0  0  0  0  0  0
  187.0480  175.1790  136.1230 C   0  0  0  0  0  1  0  0  0  0  0  0
  187.1200  176.1490  137.2960 C   0  0  2  0  0  3  0  0  0  0  0  0
  184.9520  177.2750  137.7840 C   0  0  1  0  0  3  0  0  0  0  0  0
  184.2520  177.0860  136.5260 N   0  0  0  0  0  2  0  0  0  0  0  0
  186.2340  177.3700  137.0120 C   0  0  2  0  0  3  0  0  0  0  0  0
  185.4550  177.1690  135.7970 N   0  0  0  0  0  2  0  0  0  0  0  0
  184.5900  178.6280  138.3730 C   0  0  0  0  0  2  0  0  0  0  0  0
  183.9160  178.4470  139.7230 C   0  0  0  0  0  2  0  0  0  0  0  0
  184.3660  178.5360  142.0300 C   0  0  0  0  0  2  0  0  0  0  0  0
  184.6560  179.1700  140.7460 N   0  0  0  0  0  0  0  0  0  0  0  0
  185.8550  178.0260  143.8110 O   0  0  0  0  0  0  0  0  0  0  0  0
  186.0360  178.9980  140.4670 N   0  0  0  0  0  2  0  0  0  0  0  0
  185.6730  178.3940  142.6630 C   0  0  0  0  0  0  0  0  0  0  0  0
  186.7310  178.7610  141.7290 C   0  0  0  0  0  2  0  0  0  0  0  0
  190.1720  177.4840  141.0120 C   0  0  0  0  0  2  0  0  0  0  0  0
  190.1780  176.3820  142.4640 S   0  0  0  0  0  0  0  0  0  0  0  0
  191.4300  177.3820  143.3200 C   0  0  0  0  0  2  0  0  0  0  0  0
  191.4210  177.0550  145.6930 O   0  0  0  0  0  0  0  0  0  0  0  0
  190.4540  177.0970  146.7090 C   0  0  0  0  0  2  0  0  0  0  0  0
  189.0940  177.2410  146.0680 C   0  0  0  0  0  2  0  0  0  0  0  0
  189.3950  177.7210  144.6810 C   0  0  0  0  0  2  0  0  0  0  0  0
  190.8990  177.8490  144.6610 C   0  0  2  0  0  3  0  0  0  0  0  0
  1  5  1  0  0  0  0
  1  6  1  0  0  0  0
  2 25  1  1  0  0  0
  4  2  1  0  0  0  0
  5 12  1  1  0  0  0
  5  8  1  0  0  0  0
  6  7  1  6  0  0  0
  6  9  1  0  0  0  0
  6  4  1  0  0  0  0
  8  3  1  6  0  0  0
  8  2  1  0  0  0  0
 10  9  1  0  0  0  0
 12 11  1  6  0  0  0
 13 17  1  6  0  0  0
 14 13  1  0  0  0  0
 15 12  1  1  0  0  0
 15 13  1  0  0  0  0
 16 14  1  0  0  0  0
 16 15  1  0  0  0  0
 17 18  1  0  0  0  0
 18 20  1  0  0  0  0
 19 23  1  0  0  0  0
 20 19  1  0  0  0  0
 22 20  1  0  0  0  0
 22 24  1  0  0  0  0
 23 21  2  0  0  0  0
 24 23  1  0  0  0  0
 25 26  1  0  0  0  0
 26 27  1  0  0  0  0
 28 29  1  0  0  0  0
 30 29  1  0  0  0  0
 31 30  1  0  0  0  0
 32 27  1  6  0  0  0
 32 31  1  0  0  0  0
 32 28  1  0  0  0  0
M  END
>  <MODEL>
6

>  <REMARK>
 VINA RESULT:      -6.5      2.515      7.061
  Name = 
  10 active torsions:
  status: ('A' for Active; 'I' for Inactive)
    1  A    between atoms: C_1  and  C_24
    2  A    between atoms: S_2  and  C_7
    3  A    between atoms: S_2  and  C_11
    4  A    between atoms: C_3  and  C_12
    5  A    between atoms: C_7  and  C_14
    6  A    between atoms: C_10  and  C_12
    7  A    between atoms: C_10  and  N_27
    8  A    between atoms: C_11  and  C_22
    9  A    between atoms: C_18  and  C_19
   10  A    between atoms: C_19  and  C_20
                            x       y       z     vdW  Elec       q    Type
                         _______ _______ _______ _____ _____    ______ ____

>  <TORSDO>
F 10

$$$$
=
 OpenBabel11062412403D

 32 35  0  0  1  0  0  0  0  0999 V2000
  182.7760  176.8490  140.0500 O   0  0  0  0  0  0  0  0  0  0  0  0
  184.6660  177.8190  138.5140 C   0  0  2  0  0  3  0  0  0  0  0  0
  183.8020  180.1300  139.0940 C   0  0  0  0  0  1  0  0  0  0  0  0
  183.4650  177.2860  137.7370 C   0  0  0  0  0  2  0  0  0  0  0  0
  183.0710  178.1820  140.4400 C   0  0  2  0  0  3  0  0  0  0  0  0
  182.3630  176.7940  138.6880 C   0  0  2  0  0  0  0  0  0  0  0  0
  181.0950  177.6160  138.4480 C   0  0  0  0  0  1  0  0  0  0  0  0
  184.2410  178.7760  139.6340 C   0  0  1  0  0  3  0  0  0  0  0  0
  182.0780  175.3400  138.3200 C   0  0  0  0  0  2  0  0  0  0  0  0
  180.6980  174.8840  138.7720 C   0  0  0  0  0  1  0  0  0  0  0  0
  182.1900  179.0020  142.6210 C   0  0  0  0  0  1  0  0  0  0  0  0
  183.3210  178.2280  141.9570 C   0  0  2  0  0  3  0  0  0  0  0  0
  185.5120  177.9120  143.1000 C   0  0  1  0  0  3  0  0  0  0  0  0
  185.3480  178.7730  144.2570 N   0  0  0  0  0  2  0  0  0  0  0  0
  184.6680  178.8710  142.3140 C   0  0  2  0  0  3  0  0  0  0  0  0
  184.5500  179.6740  143.5240 N   0  0  0  0  0  2  0  0  0  0  0  0
  186.9540  177.9660  142.6220 C   0  0  0  0  0  2  0  0  0  0  0  0
  187.8070  176.9980  143.4260 C   0  0  0  0  0  2  0  0  0  0  0  0
  188.4350  177.4940  145.6380 C   0  0  0  0  0  2  0  0  0  0  0  0
  188.7640  177.7380  144.2350 N   0  0  0  0  0  0  0  0  0  0  0  0
  189.9000  177.0610  147.4590 O   0  0  0  0  0  0  0  0  0  0  0  0
  190.0450  177.1880  143.9770 N   0  0  0  0  0  2  0  0  0  0  0  0
  189.7200  177.1940  146.2600 C   0  0  0  0  0  0  0  0  0  0  0  0
  190.7610  177.0840  145.2450 C   0  0  0  0  0  2  0  0  0  0  0  0
  185.8380  178.2900  137.6480 C   0  0  0  0  0  2  0  0  0  0  0  0
  187.1540  177.0430  137.4520 S   0  0  0  0  0  0  0  0  0  0  0  0
  188.4160  178.3090  137.1260 C   0  0  0  0  0  2  0  0  0  0  0  0
  190.1710  176.8910  137.9340 O   0  0  0  0  0  0  0  0  0  0  0  0
  190.7200  176.5890  139.1890 C   0  0  0  0  0  2  0  0  0  0  0  0
  189.8590  177.2270  140.2540 C   0  0  0  0  0  2  0  0  0  0  0  0
  189.0680  178.2600  139.5100 C   0  0  0  0  0  2  0  0  0  0  0  0
  189.5740  178.1520  138.0920 C   0  0  2  0  0  3  0  0  0  0  0  0
  1  5  1  0  0  0  0
  2 25  1  6  0  0  0
  2  8  1  0  0  0  0
  4  2  1  0  0  0  0
  4  6  1  0  0  0  0
  5 12  1  1  0  0  0
  6  7  1  6  0  0  0
  6  1  1  0  0  0  0
  8  3  1  6  0  0  0
  8  5  1  0  0  0  0
  9  6  1  0  0  0  0
  9 10  1  0  0  0  0
 12 11  1  1  0  0  0
 13 17  1  6  0  0  0
 13 14  1  0  0  0  0
 15 12  1  1  0  0  0
 15 13  1  0  0  0  0
 15 16  1  0  0  0  0
 16 14  1  0  0  0  0
 17 18  1  0  0  0  0
 18 20  1  0  0  0  0
 19 23  1  0  0  0  0
 20 19  1  0  0  0  0
 22 20  1  0  0  0  0
 22 24  1  0  0  0  0
 23 21  2  0  0  0  0
 24 23  1  0  0  0  0
 26 25  1  0  0  0  0
 27 26  1  0  0  0  0
 28 32  1  0  0  0  0
 28 29  1  0  0  0  0
 29 30  1  0  0  0  0
 31 30  1  0  0  0  0
 32 27  1  6  0  0  0
 32 31  1  0  0  0  0
M  END
>  <MODEL>
7

>  <REMARK>
 VINA RESULT:      -6.3      2.434      6.943
  Name = 
  10 active torsions:
  status: ('A' for Active; 'I' for Inactive)
    1  A    between atoms: C_1  and  C_24
    2  A    between atoms: S_2  and  C_7
    3  A    between atoms: S_2  and  C_11
    4  A    between atoms: C_3  and  C_12
    5  A    between atoms: C_7  and  C_14
    6  A    between atoms: C_10  and  C_12
    7  A    between atoms: C_10  and  N_27
    8  A    between atoms: C_11  and  C_22
    9  A    between atoms: C_18  and  C_19
   10  A    between atoms: C_19  and  C_20
                            x       y       z     vdW  Elec       q    Type
                         _______ _______ _______ _____ _____    ______ ____

>  <TORSDO>
F 10

$$$$
=
 OpenBabel11062412403D

 32 35  0  0  1  0  0  0  0  0999 V2000
  183.0100  176.7330  140.0440 O   0  0  0  0  0  0  0  0  0  0  0  0
  185.0180  177.9740  138.9050 C   0  0  2  0  0  3  0  0  0  0  0  0
  183.6700  180.1110  139.1060 C   0  0  0  0  0  1  0  0  0  0  0  0
  184.1380  177.2090  137.9190 C   0  0  0  0  0  2  0  0  0  0  0  0
  182.9790  178.1090  140.3920 C   0  0  2  0  0  3  0  0  0  0  0  0
  182.9420  176.5600  138.6320 C   0  0  2  0  0  0  0  0  0  0  0  0
  181.6460  177.1330  138.0540 C   0  0  0  0  0  1  0  0  0  0  0  0
  184.1900  178.8770  139.8270 C   0  0  1  0  0  3  0  0  0  0  0  0
  182.9970  175.0670  138.3180 C   0  0  0  0  0  2  0  0  0  0  0  0
  183.8950  174.7540  137.1290 C   0  0  0  0  0  1  0  0  0  0  0  0
  181.5400  178.9410  142.2470 C   0  0  0  0  0  1  0  0  0  0  0  0
  182.8560  178.2490  141.9180 C   0  0  2  0  0  3  0  0  0  0  0  0
  184.7790  178.1720  143.5000 C   0  0  1  0  0  3  0  0  0  0  0  0
  184.2850  179.0080  144.5790 N   0  0  0  0  0  2  0  0  0  0  0  0
  184.0220  179.0350  142.5350 C   0  0  2  0  0  3  0  0  0  0  0  0
  183.5670  179.8180  143.6770 N   0  0  0  0  0  2  0  0  0  0  0  0
  186.2750  178.3830  143.3330 C   0  0  0  0  0  2  0  0  0  0  0  0
  187.0420  177.3210  144.1040 C   0  0  0  0  0  2  0  0  0  0  0  0
  187.1580  177.9600  146.3640 C   0  0  0  0  0  2  0  0  0  0  0  0
  187.8930  177.9520  145.1010 N   0  0  0  0  0  0  0  0  0  0  0  0
  187.9500  177.4800  148.5530 O   0  0  0  0  0  0  0  0  0  0  0  0
  189.0370  177.1290  145.2580 N   0  0  0  0  0  2  0  0  0  0  0  0
  188.1300  177.4920  147.3470 C   0  0  0  0  0  0  0  0  0  0  0  0
  189.3480  177.0470  146.6820 C   0  0  0  0  0  2  0  0  0  0  0  0
  186.2650  178.6190  138.2920 C   0  0  0  0  0  2  0  0  0  0  0  0
  187.7540  177.5710  138.3850 S   0  0  0  0  0  0  0  0  0  0  0  0
  188.2050  178.2180  140.0230 C   0  0  0  0  0  2  0  0  0  0  0  0
  189.6680  177.8800  141.8910 O   0  0  0  0  0  0  0  0  0  0  0  0
  191.0130  177.5200  142.0600 C   0  0  0  0  0  2  0  0  0  0  0  0
  191.6780  177.5010  140.7030 C   0  0  0  0  0  2  0  0  0  0  0  0
  190.5320  177.4330  139.7390 C   0  0  0  0  0  2  0  0  0  0  0  0
  189.3140  177.3790  140.6280 C   0  0  2  0  0  3  0  0  0  0  0  0
  1  5  1  0  0  0  0
  2 25  1  6  0  0  0
  2  8  1  0  0  0  0
  4  6  1  0  0  0  0
  4  2  1  0  0  0  0
  5 12  1  1  0  0  0
  6  7  1  6  0  0  0
  6  1  1  0  0  0  0
  8  3  1  6  0  0  0
  8  5  1  0  0  0  0
  9  6  1  0  0  0  0
 10  9  1  0  0  0  0
 12 11  1  6  0  0  0
 13 17  1  6  0  0  0
 13 14  1  0  0  0  0
 15 12  1  1  0  0  0
 15 13  1  0  0  0  0
 15 16  1  0  0  0  0
 16 14  1  0  0  0  0
 17 18  1  0  0  0  0
 18 20  1  0  0  0  0
 19 23  1  0  0  0  0
 20 22  1  0  0  0  0
 20 19  1  0  0  0  0
 22 24  1  0  0  0  0
 23 21  2  0  0  0  0
 24 23  1  0  0  0  0
 25 26  1  0  0  0  0
 26 27  1  0  0  0  0
 28 29  1  0  0  0  0
 30 29  1  0  0  0  0
 31 32  1  0  0  0  0
 31 30  1  0  0  0  0
 32 27  1  6  0  0  0
 32 28  1  0  0  0  0
M  END
>  <MODEL>
8

>  <REMARK>
 VINA RESULT:      -6.2      2.246      6.838
  Name = 
  10 active torsions:
  status: ('A' for Active; 'I' for Inactive)
    1  A    between atoms: C_1  and  C_24
    2  A    between atoms: S_2  and  C_7
    3  A    between atoms: S_2  and  C_11
    4  A    between atoms: C_3  and  C_12
    5  A    between atoms: C_7  and  C_14
    6  A    between atoms: C_10  and  C_12
    7  A    between atoms: C_10  and  N_27
    8  A    between atoms: C_11  and  C_22
    9  A    between atoms: C_18  and  C_19
   10  A    between atoms: C_19  and  C_20
                            x       y       z     vdW  Elec       q    Type
                         _______ _______ _______ _____ _____    ______ ____

>  <TORSDO>
F 10

$$$$
=
 OpenBabel11062412403D

 32 35  0  0  1  0  0  0  0  0999 V2000
  185.8460  175.6710  137.4830 O   0  0  0  0  0  0  0  0  0  0  0  0
  188.2110  176.7680  137.7550 C   0  0  2  0  0  3  0  0  0  0  0  0
  187.3130  178.7630  136.4760 C   0  0  0  0  0  1  0  0  0  0  0  0
  188.1540  175.7120  136.6530 C   0  0  0  0  0  2  0  0  0  0  0  0
  185.7320  177.0820  137.3780 C   0  0  2  0  0  3  0  0  0  0  0  0
  186.7310  175.1540  136.4930 C   0  0  2  0  0  0  0  0  0  0  0  0
  186.2340  175.4540  135.0780 C   0  0  0  0  0  1  0  0  0  0  0  0
  187.0770  177.7920  137.6230 C   0  0  1  0  0  3  0  0  0  0  0  0
  186.8280  173.6400  136.6650 C   0  0  0  0  0  2  0  0  0  0  0  0
  185.4630  172.9770  136.7740 C   0  0  0  0  0  1  0  0  0  0  0  0
  183.4730  178.1260  137.4960 C   0  0  0  0  0  1  0  0  0  0  0  0
  184.6260  177.5770  138.3250 C   0  0  2  0  0  3  0  0  0  0  0  0
  184.4870  178.4760  140.6450 C   0  0  1  0  0  3  0  0  0  0  0  0
  183.7510  179.7080  140.4210 N   0  0  0  0  0  2  0  0  0  0  0  0
  185.1220  178.6570  139.2980 C   0  0  2  0  0  3  0  0  0  0  0  0
  184.3410  179.8790  139.1530 N   0  0  0  0  0  2  0  0  0  0  0  0
  185.5150  178.6870  141.7450 C   0  0  0  0  0  2  0  0  0  0  0  0
  184.8640  179.3510  142.9470 C   0  0  0  0  0  2  0  0  0  0  0  0
  186.0820  177.9030  144.3440 C   0  0  0  0  0  2  0  0  0  0  0  0
  184.7400  178.3920  144.0350 N   0  0  0  0  0  0  0  0  0  0  0  0
  187.0760  177.5200  146.4680 O   0  0  0  0  0  0  0  0  0  0  0  0
  184.2530  179.0980  145.1630 N   0  0  0  0  0  2  0  0  0  0  0  0
  186.1590  177.9670  145.7990 C   0  0  0  0  0  0  0  0  0  0  0  0
  184.9820  178.6350  146.3410 C   0  0  0  0  0  2  0  0  0  0  0  0
  189.6020  177.3500  138.0200 C   0  0  0  0  0  2  0  0  0  0  0  0
  190.5130  176.4990  139.3510 S   0  0  0  0  0  0  0  0  0  0  0  0
  189.5220  177.2960  140.6490 C   0  0  0  0  0  2  0  0  0  0  0  0
  189.1960  176.1250  142.7140 O   0  0  0  0  0  0  0  0  0  0  0  0
  189.4330  176.3960  144.0690 C   0  0  0  0  0  2  0  0  0  0  0  0
  189.8550  177.8400  144.2020 C   0  0  0  0  0  2  0  0  0  0  0  0
  190.2670  178.2270  142.8140 C   0  0  0  0  0  2  0  0  0  0  0  0
  190.0840  176.9590  142.0160 C   0  0  2  0  0  3  0  0  0  0  0  0
  2 25  1  6  0  0  0
  4  2  1  0  0  0  0
  5  1  1  0  0  0  0
  5  8  1  0  0  0  0
  5 12  1  1  0  0  0
  6  7  1  6  0  0  0
  6  4  1  0  0  0  0
  6  9  1  0  0  0  0
  6  1  1  0  0  0  0
  8  3  1  6  0  0  0
  8  2  1  0  0  0  0
  9 10  1  0  0  0  0
 12 11  1  6  0  0  0
 13 17  1  1  0  0  0
 14 13  1  0  0  0  0
 15 12  1  6  0  0  0
 15 13  1  0  0  0  0
 16 15  1  0  0  0  0
 16 14  1  0  0  0  0
 17 18  1  0  0  0  0
 18 20  1  0  0  0  0
 19 23  1  0  0  0  0
 20 19  1  0  0  0  0
 20 22  1  0  0  0  0
 22 24  1  0  0  0  0
 23 24  1  0  0  0  0
 23 21  2  0  0  0  0
 25 26  1  0  0  0  0
 26 27  1  0  0  0  0
 28 29  1  0  0  0  0
 29 30  1  0  0  0  0
 31 30  1  0  0  0  0
 32 27  1  6  0  0  0
 32 28  1  0  0  0  0
 32 31  1  0  0  0  0
M  END
>  <MODEL>
9

>  <REMARK>
 VINA RESULT:      -6.2      1.958      7.001
  Name = 
  10 active torsions:
  status: ('A' for Active; 'I' for Inactive)
    1  A    between atoms: C_1  and  C_24
    2  A    between atoms: S_2  and  C_7
    3  A    between atoms: S_2  and  C_11
    4  A    between atoms: C_3  and  C_12
    5  A    between atoms: C_7  and  C_14
    6  A    between atoms: C_10  and  C_12
    7  A    between atoms: C_10  and  N_27
    8  A    between atoms: C_11  and  C_22
    9  A    between atoms: C_18  and  C_19
   10  A    between atoms: C_19  and  C_20
                            x       y       z     vdW  Elec       q    Type
                         _______ _______ _______ _____ _____    ______ ____

>  <TORSDO>
F 10

$$$$
