=
 OpenBabel11062413293D

 30 33  0  0  1  0  0  0  0  0999 V2000
  185.6860  178.2530  143.5820 C   0  0  0  0  0  0  0  0  0  0  0  0
  187.7970  178.6330  139.3350 O   0  0  0  0  0  0  0  0  0  0  0  0
  183.5450  179.1840  144.2480 C   0  0  0  0  0  3  0  0  0  0  0  0
  186.5750  177.7870  142.4730 C   0  0  2  0  0  3  0  0  0  0  0  0
  188.0620  177.5700  142.7240 C   0  0  2  0  0  3  0  0  0  0  0  0
  186.4880  178.7620  141.3310 C   0  0  1  0  0  3  0  0  0  0  0  0
  184.9670  179.4230  139.6050 O   0  0  0  0  0  1  0  0  0  0  0  0
  185.1430  178.4870  145.9310 C   0  0  0  0  0  3  0  0  0  0  0  0
  183.9040  179.0360  145.5910 C   0  0  0  0  0  3  0  0  0  0  0  0
  184.4200  178.7790  143.2320 C   0  0  0  0  0  0  0  0  0  0  0  0
  184.0210  178.9900  141.7730 C   0  0  1  0  0  3  0  0  0  0  0  0
  186.0320  178.0900  144.9290 C   0  0  0  0  0  3  0  0  0  0  0  0
  187.6560  178.3540  140.5150 C   0  0  0  0  0  0  0  0  0  0  0  0
  185.0990  178.6050  140.7270 C   0  0  2  0  0  3  0  0  0  0  0  0
  188.6770  177.6190  141.3190 C   0  0  1  0  0  3  0  0  0  0  0  0
  181.8430  179.2550  140.9680 C   0  0  0  0  0  1  0  0  0  0  0  0
  182.7860  178.2790  141.4820 N   0  0  0  0  0  2  0  0  0  0  0  0
  188.2880  176.2060  143.3540 C   0  0  0  0  0  2  0  0  0  0  0  0
  189.7260  176.0760  143.8220 C   0  0  0  0  0  2  0  0  0  0  0  0
  191.1800  176.9730  147.0700 C   0  0  0  0  0  0  0  0  0  0  0  0
  188.9240  176.8170  146.0580 C   0  0  0  0  0  2  0  0  0  0  0  0
  189.9890  177.0100  144.9880 C   0  0  1  0  0  3  0  0  0  0  0  0
  192.0710  176.7310  147.8670 O   0  0  0  0  0  0  0  0  0  0  0  0
  191.3450  176.7250  145.6170 C   0  0  0  0  0  2  0  0  0  0  0  0
  189.5710  177.5150  147.6030 S   0  0  0  0  0  0  0  0  0  0  0  0
  189.9200  178.3740  141.3550 N   0  0  0  0  0  2  0  0  0  0  0  0
  190.9950  177.4560  141.0150 C   0  0  0  0  0  2  0  0  0  0  0  0
  191.0330  177.2430  139.5140 C   0  0  0  0  0  2  0  0  0  0  0  0
  189.9620  175.9450  138.0880 C   0  0  0  0  0  1  0  0  0  0  0  0
  190.7650  175.9050  139.2280 O   0  0  0  0  0  0  0  0  0  0  0  0
  1 12  1  0  0  0  0
  2 13  2  0  0  0  0
  3  9  2  0  0  0  0
  4  5  1  0  0  0  0
  4  1  1  1  0  0  0
  5 18  1  6  0  0  0
  6 13  1  6  0  0  0
  6  4  1  0  0  0  0
  9  8  1  0  0  0  0
 10  1  2  0  0  0  0
 10  3  1  0  0  0  0
 11 17  1  6  0  0  0
 11 10  1  0  0  0  0
 12  8  2  0  0  0  0
 13 15  1  0  0  0  0
 14  7  1  6  0  0  0
 14  6  1  0  0  0  0
 14 11  1  0  0  0  0
 15 26  1  1  0  0  0
 15  5  1  0  0  0  0
 16 17  1  0  0  0  0
 18 19  1  0  0  0  0
 20 25  1  0  0  0  0
 20 23  2  0  0  0  0
 21 25  1  0  0  0  0
 22 19  1  6  0  0  0
 22 24  1  0  0  0  0
 22 21  1  0  0  0  0
 24 20  1  0  0  0  0
 27 26  1  0  0  0  0
 28 27  1  0  0  0  0
 29 30  1  0  0  0  0
 30 28  1  0  0  0  0
M  END
>  <MODEL>
1

>  <REMARK>
 VINA RESULT:      -8.7      0.000      0.000
  Name = 
  8 active torsions:
  status: ('A' for Active; 'I' for Inactive)
    1  A    between atoms: C_5  and  C_9
    2  A    between atoms: C_5  and  C_16
    3  A    between atoms: C_10  and  N_17
    4  A    between atoms: C_10  and  C_25
    5  A    between atoms: C_12  and  C_16
    6  A    between atoms: N_17  and  C_26
    7  A    between atoms: C_20  and  N_28
    8  A    between atoms: C_25  and  O_27
                            x       y       z     vdW  Elec       q    Type
                         _______ _______ _______ _____ _____    ______ ____

>  <TORSDO>
F 8

$$$$
=
 OpenBabel11062413293D

 30 33  0  0  1  0  0  0  0  0999 V2000
  184.5050  178.4460  142.8230 C   0  0  0  0  0  0  0  0  0  0  0  0
  188.1140  178.6330  139.7280 O   0  0  0  0  0  0  0  0  0  0  0  0
  182.2190  179.1810  142.4630 C   0  0  0  0  0  3  0  0  0  0  0  0
  185.7930  177.9760  142.2270 C   0  0  2  0  0  3  0  0  0  0  0  0
  187.0650  177.9640  143.0660 C   0  0  2  0  0  3  0  0  0  0  0  0
  186.1080  178.8110  141.0160 C   0  0  1  0  0  3  0  0  0  0  0  0
  185.3670  179.1070  138.7590 O   0  0  0  0  0  1  0  0  0  0  0  0
  183.0490  178.8550  144.7160 C   0  0  0  0  0  3  0  0  0  0  0  0
  182.0170  179.2150  143.8450 C   0  0  0  0  0  3  0  0  0  0  0  0
  183.4540  178.7790  141.9360 C   0  0  0  0  0  0  0  0  0  0  0  0
  183.6610  178.7900  140.4240 C   0  0  1  0  0  3  0  0  0  0  0  0
  184.2900  178.4650  144.2070 C   0  0  0  0  0  3  0  0  0  0  0  0
  187.5300  178.4630  140.7870 C   0  0  0  0  0  0  0  0  0  0  0  0
  185.0930  178.4300  139.9480 C   0  0  2  0  0  3  0  0  0  0  0  0
  188.1880  177.9400  142.0210 C   0  0  1  0  0  3  0  0  0  0  0  0
  181.8600  178.7450  138.9360 C   0  0  0  0  0  1  0  0  0  0  0  0
  182.6990  177.9120  139.7780 N   0  0  0  0  0  2  0  0  0  0  0  0
  187.1100  176.7080  143.9210 C   0  0  0  0  0  2  0  0  0  0  0  0
  186.6580  177.0200  145.3360 C   0  0  0  0  0  2  0  0  0  0  0  0
  189.7390  177.2630  147.3150 C   0  0  0  0  0  0  0  0  0  0  0  0
  187.3600  177.9170  147.5480 C   0  0  0  0  0  2  0  0  0  0  0  0
  187.7440  177.7710  146.0830 C   0  0  1  0  0  3  0  0  0  0  0  0
  190.7830  176.7070  147.6100 O   0  0  0  0  0  0  0  0  0  0  0  0
  189.0670  177.0200  146.0150 C   0  0  0  0  0  2  0  0  0  0  0  0
  188.8750  178.3040  148.4720 S   0  0  0  0  0  0  0  0  0  0  0  0
  189.2580  178.8360  142.4320 N   0  0  0  0  0  2  0  0  0  0  0  0
  190.4080  178.0120  142.7680 C   0  0  0  0  0  2  0  0  0  0  0  0
  190.3380  176.6980  142.0150 C   0  0  0  0  0  2  0  0  0  0  0  0
  191.6200  176.1340  143.7170 C   0  0  0  0  0  1  0  0  0  0  0  0
  190.6090  175.6470  142.8890 O   0  0  0  0  0  0  0  0  0  0  0  0
  1 12  1  0  0  0  0
  2 13  2  0  0  0  0
  3  9  2  0  0  0  0
  4  1  1  1  0  0  0
  4  5  1  0  0  0  0
  5 18  1  1  0  0  0
  6 13  1  6  0  0  0
  6  4  1  0  0  0  0
  9  8  1  0  0  0  0
 10  3  1  0  0  0  0
 10  1  2  0  0  0  0
 11 17  1  6  0  0  0
 11 10  1  0  0  0  0
 12  8  2  0  0  0  0
 13 15  1  0  0  0  0
 14  7  1  6  0  0  0
 14 11  1  0  0  0  0
 14  6  1  0  0  0  0
 15 26  1  1  0  0  0
 15  5  1  0  0  0  0
 16 17  1  0  0  0  0
 18 19  1  0  0  0  0
 20 23  2  0  0  0  0
 20 25  1  0  0  0  0
 21 25  1  0  0  0  0
 22 19  1  6  0  0  0
 22 21  1  0  0  0  0
 24 22  1  0  0  0  0
 24 20  1  0  0  0  0
 26 27  1  0  0  0  0
 28 27  1  0  0  0  0
 28 30  1  0  0  0  0
 30 29  1  0  0  0  0
M  END
>  <MODEL>
2

>  <REMARK>
 VINA RESULT:      -8.3      1.609      2.155
  Name = 
  8 active torsions:
  status: ('A' for Active; 'I' for Inactive)
    1  A    between atoms: C_5  and  C_9
    2  A    between atoms: C_5  and  C_16
    3  A    between atoms: C_10  and  N_17
    4  A    between atoms: C_10  and  C_25
    5  A    between atoms: C_12  and  C_16
    6  A    between atoms: N_17  and  C_26
    7  A    between atoms: C_20  and  N_28
    8  A    between atoms: C_25  and  O_27
                            x       y       z     vdW  Elec       q    Type
                         _______ _______ _______ _____ _____    ______ ____

>  <TORSDO>
F 8

$$$$
=
 OpenBabel11062413293D

 30 33  0  0  1  0  0  0  0  0999 V2000
  185.8140  178.2880  143.9660 C   0  0  0  0  0  0  0  0  0  0  0  0
  186.4870  178.7200  139.2760 O   0  0  0  0  0  0  0  0  0  0  0  0
  183.9050  179.0570  145.2550 C   0  0  0  0  0  3  0  0  0  0  0  0
  186.3590  177.8660  142.6400 C   0  0  2  0  0  3  0  0  0  0  0  0
  187.8650  177.7810  142.4230 C   0  0  2  0  0  3  0  0  0  0  0  0
  185.8440  178.7970  141.5770 C   0  0  1  0  0  3  0  0  0  0  0  0
  183.8160  179.2800  140.3990 O   0  0  0  0  0  1  0  0  0  0  0  0
  185.9950  178.5440  146.3690 C   0  0  0  0  0  3  0  0  0  0  0  0
  184.6680  178.9780  146.4230 C   0  0  0  0  0  3  0  0  0  0  0  0
  184.4600  178.6970  144.0200 C   0  0  0  0  0  0  0  0  0  0  0  0
  183.6190  178.8320  142.7540 C   0  0  1  0  0  3  0  0  0  0  0  0
  186.5670  178.1940  145.1430 C   0  0  0  0  0  3  0  0  0  0  0  0
  186.7380  178.4650  140.4430 C   0  0  0  0  0  0  0  0  0  0  0  0
  184.3560  178.5070  141.4280 C   0  0  2  0  0  3  0  0  0  0  0  0
  188.0160  177.8400  140.8970 C   0  0  1  0  0  3  0  0  0  0  0  0
  181.2830  178.9050  142.7430 C   0  0  0  0  0  1  0  0  0  0  0  0
  182.4220  178.0120  142.8560 N   0  0  0  0  0  2  0  0  0  0  0  0
  188.3920  176.4590  142.9560 C   0  0  0  0  0  2  0  0  0  0  0  0
  189.8700  176.5750  143.2800 C   0  0  0  0  0  2  0  0  0  0  0  0
  190.0110  177.1320  146.9050 C   0  0  0  0  0  0  0  0  0  0  0  0
  191.5700  176.4740  145.0950 C   0  0  0  0  0  2  0  0  0  0  0  0
  190.1310  176.1590  144.7160 C   0  0  1  0  0  3  0  0  0  0  0  0
  189.5850  177.8040  147.8300 O   0  0  0  0  0  0  0  0  0  0  0  0
  189.2160  176.9110  145.6730 C   0  0  0  0  0  2  0  0  0  0  0  0
  191.6660  176.4800  146.9080 S   0  0  0  0  0  0  0  0  0  0  0  0
  189.1400  178.6960  140.5490 N   0  0  0  0  0  2  0  0  0  0  0  0
  189.8120  178.0890  139.4120 C   0  0  0  0  0  2  0  0  0  0  0  0
  190.7490  176.9970  139.8920 C   0  0  0  0  0  2  0  0  0  0  0  0
  190.7220  176.3470  137.7850 C   0  0  0  0  0  1  0  0  0  0  0  0
  190.5960  175.8680  139.0890 O   0  0  0  0  0  0  0  0  0  0  0  0
  1 10  2  0  0  0  0
  1 12  1  0  0  0  0
  2 13  2  0  0  0  0
  3  9  2  0  0  0  0
  4  1  1  1  0  0  0
  5  4  1  0  0  0  0
  5 18  1  6  0  0  0
  6 13  1  6  0  0  0
  6  4  1  0  0  0  0
  8  9  1  0  0  0  0
 10  3  1  0  0  0  0
 11 17  1  1  0  0  0
 11 10  1  0  0  0  0
 12  8  2  0  0  0  0
 13 15  1  0  0  0  0
 14  7  1  6  0  0  0
 14  6  1  0  0  0  0
 14 11  1  0  0  0  0
 15 26  1  1  0  0  0
 15  5  1  0  0  0  0
 16 17  1  0  0  0  0
 18 19  1  0  0  0  0
 20 25  1  0  0  0  0
 20 23  2  0  0  0  0
 21 25  1  0  0  0  0
 22 19  1  6  0  0  0
 22 21  1  0  0  0  0
 22 24  1  0  0  0  0
 24 20  1  0  0  0  0
 27 28  1  0  0  0  0
 27 26  1  0  0  0  0
 29 30  1  0  0  0  0
 30 28  1  0  0  0  0
M  END
>  <MODEL>
3

>  <REMARK>
 VINA RESULT:      -7.7      1.117      1.344
  Name = 
  8 active torsions:
  status: ('A' for Active; 'I' for Inactive)
    1  A    between atoms: C_5  and  C_9
    2  A    between atoms: C_5  and  C_16
    3  A    between atoms: C_10  and  N_17
    4  A    between atoms: C_10  and  C_25
    5  A    between atoms: C_12  and  C_16
    6  A    between atoms: N_17  and  C_26
    7  A    between atoms: C_20  and  N_28
    8  A    between atoms: C_25  and  O_27
                            x       y       z     vdW  Elec       q    Type
                         _______ _______ _______ _____ _____    ______ ____

>  <TORSDO>
F 8

$$$$
=
 OpenBabel11062413293D

 30 33  0  0  1  0  0  0  0  0999 V2000
  188.1760  177.6130  139.5530 C   0  0  0  0  0  0  0  0  0  0  0  0
  192.4780  177.2550  141.5520 O   0  0  0  0  0  0  0  0  0  0  0  0
  187.6610  177.7460  137.1840 C   0  0  0  0  0  3  0  0  0  0  0  0
  189.1340  177.1880  140.6190 C   0  0  2  0  0  3  0  0  0  0  0  0
  188.9810  177.7140  142.0410 C   0  0  2  0  0  3  0  0  0  0  0  0
  190.5310  177.5480  140.1960 C   0  0  1  0  0  3  0  0  0  0  0  0
  192.2100  176.8400  138.6430 O   0  0  0  0  0  1  0  0  0  0  0  0
  186.0180  178.4400  138.8240 C   0  0  0  0  0  3  0  0  0  0  0  0
  186.3990  178.2610  137.4920 C   0  0  0  0  0  3  0  0  0  0  0  0
  188.5540  177.3990  138.2060 C   0  0  0  0  0  0  0  0  0  0  0  0
  189.9420  176.8780  137.8430 C   0  0  1  0  0  3  0  0  0  0  0  0
  186.9030  178.1120  139.8550 C   0  0  0  0  0  3  0  0  0  0  0  0
  191.2680  177.3940  141.4730 C   0  0  0  0  0  0  0  0  0  0  0  0
  190.8910  176.6220  139.0430 C   0  0  2  0  0  3  0  0  0  0  0  0
  190.3670  177.4970  142.6600 C   0  0  1  0  0  3  0  0  0  0  0  0
  190.5130  175.9210  135.7890 C   0  0  0  0  0  1  0  0  0  0  0  0
  189.8310  175.6670  137.0440 N   0  0  0  0  0  2  0  0  0  0  0  0
  187.9350  176.9000  142.7850 C   0  0  0  0  0  2  0  0  0  0  0  0
  186.8260  177.8060  143.2890 C   0  0  0  0  0  2  0  0  0  0  0  0
  186.0760  178.8110  146.7380 C   0  0  0  0  0  0  0  0  0  0  0  0
  187.8630  177.5820  145.5400 C   0  0  0  0  0  2  0  0  0  0  0  0
  186.5580  177.5440  144.7590 C   0  0  1  0  0  3  0  0  0  0  0  0
  185.5920  179.6810  147.4420 O   0  0  0  0  0  0  0  0  0  0  0  0
  185.6320  178.6030  145.3390 C   0  0  0  0  0  2  0  0  0  0  0  0
  187.4440  177.8160  147.2910 S   0  0  0  0  0  0  0  0  0  0  0  0
  190.7320  178.6550  143.4620 N   0  0  0  0  0  2  0  0  0  0  0  0
  191.7260  178.2160  144.4290 C   0  0  0  0  0  2  0  0  0  0  0  0
  191.2600  176.9390  145.1010 C   0  0  0  0  0  2  0  0  0  0  0  0
  191.0710  176.6010  147.2720 C   0  0  0  0  0  1  0  0  0  0  0  0
  192.0150  176.7190  146.2520 O   0  0  0  0  0  0  0  0  0  0  0  0
  1 12  1  0  0  0  0
  3  9  2  0  0  0  0
  3 10  1  0  0  0  0
  4  1  1  6  0  0  0
  4  5  1  0  0  0  0
  5 15  1  0  0  0  0
  5 18  1  1  0  0  0
  6  4  1  0  0  0  0
  6 13  1  1  0  0  0
  8 12  2  0  0  0  0
  9  8  1  0  0  0  0
 10  1  2  0  0  0  0
 11 17  1  1  0  0  0
 11 10  1  0  0  0  0
 11 14  1  0  0  0  0
 13  2  2  0  0  0  0
 13 15  1  0  0  0  0
 14  7  1  6  0  0  0
 14  6  1  0  0  0  0
 15 26  1  1  0  0  0
 16 17  1  0  0  0  0
 18 19  1  0  0  0  0
 20 25  1  0  0  0  0
 20 23  2  0  0  0  0
 21 25  1  0  0  0  0
 22 19  1  6  0  0  0
 22 24  1  0  0  0  0
 22 21  1  0  0  0  0
 24 20  1  0  0  0  0
 26 27  1  0  0  0  0
 27 28  1  0  0  0  0
 28 30  1  0  0  0  0
 30 29  1  0  0  0  0
M  END
>  <MODEL>
4

>  <REMARK>
 VINA RESULT:      -7.7      2.822      5.901
  Name = 
  8 active torsions:
  status: ('A' for Active; 'I' for Inactive)
    1  A    between atoms: C_5  and  C_9
    2  A    between atoms: C_5  and  C_16
    3  A    between atoms: C_10  and  N_17
    4  A    between atoms: C_10  and  C_25
    5  A    between atoms: C_12  and  C_16
    6  A    between atoms: N_17  and  C_26
    7  A    between atoms: C_20  and  N_28
    8  A    between atoms: C_25  and  O_27
                            x       y       z     vdW  Elec       q    Type
                         _______ _______ _______ _____ _____    ______ ____

>  <TORSDO>
F 8

$$$$
=
 OpenBabel11062413293D

 30 33  0  0  1  0  0  0  0  0999 V2000
  188.5470  177.6400  143.8530 C   0  0  0  0  0  0  0  0  0  0  0  0
  190.7220  177.2780  139.6370 O   0  0  0  0  0  0  0  0  0  0  0  0
  189.4820  177.1420  146.0380 C   0  0  0  0  0  3  0  0  0  0  0  0
  188.7910  178.0180  142.4270 C   0  0  2  0  0  3  0  0  0  0  0  0
  187.6810  177.8680  141.3950 C   0  0  2  0  0  3  0  0  0  0  0  0
  189.9530  177.2220  141.9000 C   0  0  1  0  0  3  0  0  0  0  0  0
  192.3360  177.1140  142.1020 O   0  0  0  0  0  1  0  0  0  0  0  0
  187.0800  177.2710  145.7460 C   0  0  0  0  0  3  0  0  0  0  0  0
  188.1900  177.0550  146.5650 C   0  0  0  0  0  3  0  0  0  0  0  0
  189.6760  177.4530  144.6860 C   0  0  0  0  0  0  0  0  0  0  0  0
  191.0950  177.5020  144.1250 C   0  0  1  0  0  3  0  0  0  0  0  0
  187.2570  177.5700  144.3920 C   0  0  0  0  0  3  0  0  0  0  0  0
  189.8190  177.4470  140.4410 C   0  0  0  0  0  0  0  0  0  0  0  0
  191.1980  177.7520  142.5980 C   0  0  2  0  0  3  0  0  0  0  0  0
  188.4310  177.8410  140.0570 C   0  0  1  0  0  3  0  0  0  0  0  0
  191.5430  179.7910  144.2680 C   0  0  0  0  0  1  0  0  0  0  0  0
  191.8820  178.4980  144.8350 N   0  0  0  0  0  2  0  0  0  0  0  0
  186.7500  179.0680  141.4560 C   0  0  0  0  0  2  0  0  0  0  0  0
  185.3420  178.6610  141.0600 C   0  0  0  0  0  2  0  0  0  0  0  0
  183.6310  179.1980  144.2610 C   0  0  0  0  0  0  0  0  0  0  0  0
  183.0220  178.5400  141.9510 C   0  0  0  0  0  2  0  0  0  0  0  0
  184.3250  179.3250  141.9690 C   0  0  1  0  0  3  0  0  0  0  0  0
  183.7190  179.0870  145.4730 O   0  0  0  0  0  0  0  0  0  0  0  0
  184.8290  179.3690  143.4050 C   0  0  0  0  0  2  0  0  0  0  0  0
  182.0720  179.0280  143.4190 S   0  0  0  0  0  0  0  0  0  0  0  0
  187.8490  176.8290  139.1890 N   0  0  0  0  0  2  0  0  0  0  0  0
  188.0510  177.2650  137.8170 C   0  0  0  0  0  2  0  0  0  0  0  0
  186.9770  178.2640  137.4320 C   0  0  0  0  0  2  0  0  0  0  0  0
  188.9190  179.1000  136.8060 C   0  0  0  0  0  1  0  0  0  0  0  0
  187.5760  179.4370  136.9740 O   0  0  0  0  0  0  0  0  0  0  0  0
  1 12  2  0  0  0  0
  1 10  1  0  0  0  0
  2 13  2  0  0  0  0
  3  9  1  0  0  0  0
  4  1  1  1  0  0  0
  5 18  1  6  0  0  0
  5  4  1  0  0  0  0
  6 13  1  6  0  0  0
  6  4  1  0  0  0  0
  6 14  1  0  0  0  0
  8  9  2  0  0  0  0
 10  3  2  0  0  0  0
 11 10  1  0  0  0  0
 11 17  1  1  0  0  0
 12  8  1  0  0  0  0
 14  7  1  6  0  0  0
 14 11  1  0  0  0  0
 15 26  1  6  0  0  0
 15 13  1  0  0  0  0
 15  5  1  0  0  0  0
 16 17  1  0  0  0  0
 19 18  1  0  0  0  0
 20 23  2  0  0  0  0
 21 22  1  0  0  0  0
 21 25  1  0  0  0  0
 22 19  1  6  0  0  0
 22 24  1  0  0  0  0
 24 20  1  0  0  0  0
 25 20  1  0  0  0  0
 27 26  1  0  0  0  0
 28 27  1  0  0  0  0
 29 30  1  0  0  0  0
 30 28  1  0  0  0  0
M  END
>  <MODEL>
5

>  <REMARK>
 VINA RESULT:      -7.6      2.709      5.887
  Name = 
  8 active torsions:
  status: ('A' for Active; 'I' for Inactive)
    1  A    between atoms: C_5  and  C_9
    2  A    between atoms: C_5  and  C_16
    3  A    between atoms: C_10  and  N_17
    4  A    between atoms: C_10  and  C_25
    5  A    between atoms: C_12  and  C_16
    6  A    between atoms: N_17  and  C_26
    7  A    between atoms: C_20  and  N_28
    8  A    between atoms: C_25  and  O_27
                            x       y       z     vdW  Elec       q    Type
                         _______ _______ _______ _____ _____    ______ ____

>  <TORSDO>
F 8

$$$$
=
 OpenBabel11062413293D

 30 33  0  0  1  0  0  0  0  0999 V2000
  189.7290  177.6220  142.7020 C   0  0  0  0  0  0  0  0  0  0  0  0
  186.2390  178.6900  139.6500 O   0  0  0  0  0  0  0  0  0  0  0  0
  189.7030  177.8850  145.1150 C   0  0  0  0  0  3  0  0  0  0  0  0
  188.9480  177.4560  141.4380 C   0  0  2  0  0  3  0  0  0  0  0  0
  189.6230  177.6680  140.0880 C   0  0  2  0  0  3  0  0  0  0  0  0
  187.7710  178.3910  141.4600 C   0  0  1  0  0  3  0  0  0  0  0  0
  185.6480  178.6300  142.5400 O   0  0  0  0  0  1  0  0  0  0  0  0
  191.8090  177.6350  143.9430 C   0  0  0  0  0  3  0  0  0  0  0  0
  191.0990  177.8140  145.1330 C   0  0  0  0  0  3  0  0  0  0  0  0
  189.0030  177.7710  143.9070 C   0  0  0  0  0  0  0  0  0  0  0  0
  187.4810  177.8930  143.9100 C   0  0  1  0  0  3  0  0  0  0  0  0
  191.1260  177.5330  142.7280 C   0  0  0  0  0  3  0  0  0  0  0  0
  187.3460  178.3550  140.0410 C   0  0  0  0  0  0  0  0  0  0  0  0
  186.8090  177.8580  142.5130 C   0  0  2  0  0  3  0  0  0  0  0  0
  188.4500  177.9240  139.1320 C   0  0  1  0  0  3  0  0  0  0  0  0
  186.2210  177.5440  145.8470 C   0  0  0  0  0  1  0  0  0  0  0  0
  186.8960  176.8650  144.7570 N   0  0  0  0  0  2  0  0  0  0  0  0
  190.3730  176.4110  139.6800 C   0  0  0  0  0  2  0  0  0  0  0  0
  191.7310  176.7740  139.1070 C   0  0  0  0  0  2  0  0  0  0  0  0
  192.1840  174.2000  136.5300 C   0  0  0  0  0  0  0  0  0  0  0  0
  193.3080  176.2900  137.2430 C   0  0  0  0  0  2  0  0  0  0  0  0
  191.8490  176.2800  137.6770 C   0  0  1  0  0  3  0  0  0  0  0  0
  192.0820  173.0120  136.2760 O   0  0  0  0  0  0  0  0  0  0  0  0
  191.3300  174.8550  137.5510 C   0  0  0  0  0  2  0  0  0  0  0  0
  193.4510  175.2080  135.7920 S   0  0  0  0  0  0  0  0  0  0  0  0
  188.7910  179.0020  138.2170 N   0  0  0  0  0  2  0  0  0  0  0  0
  188.9470  178.4150  136.8960 C   0  0  0  0  0  2  0  0  0  0  0  0
  188.0740  177.1810  136.7740 C   0  0  0  0  0  2  0  0  0  0  0  0
  189.4250  177.1900  135.0320 C   0  0  0  0  0  1  0  0  0  0  0  0
  188.5610  176.3670  135.7540 O   0  0  0  0  0  0  0  0  0  0  0  0
  1 12  2  0  0  0  0
  1 10  1  0  0  0  0
  2 13  2  0  0  0  0
  3  9  1  0  0  0  0
  4  6  1  0  0  0  0
  4  1  1  1  0  0  0
  5 18  1  6  0  0  0
  5  4  1  0  0  0  0
  6 13  1  6  0  0  0
  6 14  1  0  0  0  0
  8  9  2  0  0  0  0
 10 11  1  0  0  0  0
 10  3  2  0  0  0  0
 11 17  1  1  0  0  0
 12  8  1  0  0  0  0
 14  7  1  1  0  0  0
 14 11  1  0  0  0  0
 15 26  1  6  0  0  0
 15 13  1  0  0  0  0
 15  5  1  0  0  0  0
 17 16  1  0  0  0  0
 19 18  1  0  0  0  0
 20 24  1  0  0  0  0
 21 22  1  0  0  0  0
 22 19  1  1  0  0  0
 23 20  2  0  0  0  0
 24 22  1  0  0  0  0
 25 20  1  0  0  0  0
 25 21  1  0  0  0  0
 27 26  1  0  0  0  0
 28 27  1  0  0  0  0
 29 30  1  0  0  0  0
 30 28  1  0  0  0  0
M  END
>  <MODEL>
6

>  <REMARK>
 VINA RESULT:      -7.4      3.651      6.119
  Name = 
  8 active torsions:
  status: ('A' for Active; 'I' for Inactive)
    1  A    between atoms: C_5  and  C_9
    2  A    between atoms: C_5  and  C_16
    3  A    between atoms: C_10  and  N_17
    4  A    between atoms: C_10  and  C_25
    5  A    between atoms: C_12  and  C_16
    6  A    between atoms: N_17  and  C_26
    7  A    between atoms: C_20  and  N_28
    8  A    between atoms: C_25  and  O_27
                            x       y       z     vdW  Elec       q    Type
                         _______ _______ _______ _____ _____    ______ ____

>  <TORSDO>
F 8

$$$$
=
 OpenBabel11062413293D

 30 33  0  0  1  0  0  0  0  0999 V2000
  187.0590  177.9550  144.2270 C   0  0  0  0  0  0  0  0  0  0  0  0
  191.4740  176.2180  143.8680 O   0  0  0  0  0  0  0  0  0  0  0  0
  185.6230  177.9280  146.1850 C   0  0  0  0  0  3  0  0  0  0  0  0
  188.4480  177.9100  143.6750 C   0  0  2  0  0  3  0  0  0  0  0  0
  188.6730  177.6420  142.1920 C   0  0  2  0  0  3  0  0  0  0  0  0
  189.2350  176.8580  144.4060 C   0  0  1  0  0  3  0  0  0  0  0  0
  190.2550  176.4950  146.5410 O   0  0  0  0  0  1  0  0  0  0  0  0
  184.6720  178.2900  143.9860 C   0  0  0  0  0  3  0  0  0  0  0  0
  184.5120  178.1520  145.3670 C   0  0  0  0  0  3  0  0  0  0  0  0
  186.9070  177.8450  145.6300 C   0  0  0  0  0  0  0  0  0  0  0  0
  188.0980  177.5580  146.5400 C   0  0  1  0  0  3  0  0  0  0  0  0
  185.9450  178.1980  143.4160 C   0  0  0  0  0  3  0  0  0  0  0  0
  190.4130  176.7090  143.5190 C   0  0  0  0  0  0  0  0  0  0  0  0
  189.4590  177.3840  145.8170 C   0  0  2  0  0  3  0  0  0  0  0  0
  190.1310  177.1670  142.1260 C   0  0  1  0  0  3  0  0  0  0  0  0
  188.1860  177.9310  148.8460 C   0  0  0  0  0  1  0  0  0  0  0  0
  188.2170  178.5940  147.5550 N   0  0  0  0  0  2  0  0  0  0  0  0
  188.4990  178.9280  141.4000 C   0  0  0  0  0  2  0  0  0  0  0  0
  188.5420  178.6370  139.9110 C   0  0  0  0  0  2  0  0  0  0  0  0
  185.9540  177.5910  137.5280 C   0  0  0  0  0  0  0  0  0  0  0  0
  186.0590  178.6880  139.7480 C   0  0  0  0  0  2  0  0  0  0  0  0
  187.3090  177.8600  139.4890 C   0  0  1  0  0  3  0  0  0  0  0  0
  185.6720  177.4740  136.3470 O   0  0  0  0  0  0  0  0  0  0  0  0
  187.3570  177.5310  138.0040 C   0  0  0  0  0  2  0  0  0  0  0  0
  184.7190  177.9770  138.7500 S   0  0  0  0  0  0  0  0  0  0  0  0
  190.2400  176.0490  141.2030 N   0  0  0  0  0  2  0  0  0  0  0  0
  190.9520  176.5250  140.0270 C   0  0  0  0  0  2  0  0  0  0  0  0
  192.0630  177.4690  140.4460 C   0  0  0  0  0  2  0  0  0  0  0  0
  192.8110  176.6560  138.5380 C   0  0  0  0  0  1  0  0  0  0  0  0
  193.2380  177.1270  139.7790 O   0  0  0  0  0  0  0  0  0  0  0  0
  1 10  1  0  0  0  0
  4  1  1  6  0  0  0
  4  6  1  0  0  0  0
  5 18  1  6  0  0  0
  5  4  1  0  0  0  0
  6 13  1  6  0  0  0
  6 14  1  0  0  0  0
  8  9  2  0  0  0  0
  9  3  1  0  0  0  0
 10  3  2  0  0  0  0
 10 11  1  0  0  0  0
 11 17  1  1  0  0  0
 12  8  1  0  0  0  0
 12  1  2  0  0  0  0
 13  2  2  0  0  0  0
 14 11  1  0  0  0  0
 14  7  1  1  0  0  0
 15 26  1  6  0  0  0
 15  5  1  0  0  0  0
 15 13  1  0  0  0  0
 17 16  1  0  0  0  0
 19 18  1  0  0  0  0
 20 24  1  0  0  0  0
 20 25  1  0  0  0  0
 22 21  1  0  0  0  0
 22 19  1  6  0  0  0
 23 20  2  0  0  0  0
 24 22  1  0  0  0  0
 25 21  1  0  0  0  0
 27 28  1  0  0  0  0
 27 26  1  0  0  0  0
 29 30  1  0  0  0  0
 30 28  1  0  0  0  0
M  END
>  <MODEL>
7

>  <REMARK>
 VINA RESULT:      -7.1      3.005      6.010
  Name = 
  8 active torsions:
  status: ('A' for Active; 'I' for Inactive)
    1  A    between atoms: C_5  and  C_9
    2  A    between atoms: C_5  and  C_16
    3  A    between atoms: C_10  and  N_17
    4  A    between atoms: C_10  and  C_25
    5  A    between atoms: C_12  and  C_16
    6  A    between atoms: N_17  and  C_26
    7  A    between atoms: C_20  and  N_28
    8  A    between atoms: C_25  and  O_27
                            x       y       z     vdW  Elec       q    Type
                         _______ _______ _______ _____ _____    ______ ____

>  <TORSDO>
F 8

$$$$
=
 OpenBabel11062413293D

 30 33  0  0  1  0  0  0  0  0999 V2000
  183.4220  178.6160  142.3430 C   0  0  0  0  0  0  0  0  0  0  0  0
  186.9270  178.3150  139.1400 O   0  0  0  0  0  0  0  0  0  0  0  0
  181.0690  179.0330  141.9130 C   0  0  0  0  0  3  0  0  0  0  0  0
  184.7350  178.1220  141.8270 C   0  0  2  0  0  3  0  0  0  0  0  0
  186.0210  178.4350  142.5820 C   0  0  2  0  0  3  0  0  0  0  0  0
  184.9420  178.6430  140.4310 C   0  0  1  0  0  3  0  0  0  0  0  0
  184.1270  178.2850  138.2090 O   0  0  0  0  0  1  0  0  0  0  0  0
  181.9760  179.3690  144.1350 C   0  0  0  0  0  3  0  0  0  0  0  0
  180.8950  179.4030  143.2500 C   0  0  0  0  0  3  0  0  0  0  0  0
  182.3240  178.6190  141.4500 C   0  0  0  0  0  0  0  0  0  0  0  0
  182.4960  178.2590  139.9760 C   0  0  1  0  0  3  0  0  0  0  0  0
  183.2370  178.9700  143.6850 C   0  0  0  0  0  3  0  0  0  0  0  0
  186.3860  178.3720  140.2320 C   0  0  0  0  0  0  0  0  0  0  0  0
  183.9450  177.9140  139.5410 C   0  0  2  0  0  3  0  0  0  0  0  0
  187.1180  178.2420  141.5280 C   0  0  1  0  0  3  0  0  0  0  0  0
  182.4280  175.9750  139.4860 C   0  0  0  0  0  1  0  0  0  0  0  0
  181.6080  177.1650  139.6180 N   0  0  0  0  0  2  0  0  0  0  0  0
  186.2040  177.4490  143.7240 C   0  0  0  0  0  2  0  0  0  0  0  0
  186.4220  178.1930  145.0300 C   0  0  0  0  0  2  0  0  0  0  0  0
  188.6430  177.7640  147.9200 C   0  0  0  0  0  0  0  0  0  0  0  0
  188.7680  177.4820  145.4610 C   0  0  0  0  0  2  0  0  0  0  0  0
  187.3280  177.3940  145.9480 C   0  0  1  0  0  3  0  0  0  0  0  0
  188.9520  178.2000  149.0160 O   0  0  0  0  0  0  0  0  0  0  0  0
  187.2770  177.9390  147.3680 C   0  0  0  0  0  2  0  0  0  0  0  0
  189.8400  177.0030  146.8450 S   0  0  0  0  0  0  0  0  0  0  0  0
  188.1060  179.3020  141.6490 N   0  0  0  0  0  2  0  0  0  0  0  0
  189.3700  178.6790  142.0090 C   0  0  0  0  0  2  0  0  0  0  0  0
  189.3040  177.1890  141.7330 C   0  0  0  0  0  2  0  0  0  0  0  0
  190.3710  175.6290  142.8700 C   0  0  0  0  0  1  0  0  0  0  0  0
  190.5670  176.6280  141.9160 O   0  0  0  0  0  0  0  0  0  0  0  0
  1 12  1  0  0  0  0
  2 13  2  0  0  0  0
  3  9  2  0  0  0  0
  4  1  1  1  0  0  0
  4  5  1  0  0  0  0
  5 18  1  1  0  0  0
  6 13  1  6  0  0  0
  6  4  1  0  0  0  0
  9  8  1  0  0  0  0
 10  3  1  0  0  0  0
 10  1  2  0  0  0  0
 11 17  1  1  0  0  0
 11 10  1  0  0  0  0
 12  8  2  0  0  0  0
 13 15  1  0  0  0  0
 14  7  1  6  0  0  0
 14 11  1  0  0  0  0
 14  6  1  0  0  0  0
 15 26  1  1  0  0  0
 15  5  1  0  0  0  0
 16 17  1  0  0  0  0
 18 19  1  0  0  0  0
 20 23  2  0  0  0  0
 21 22  1  0  0  0  0
 21 25  1  0  0  0  0
 22 19  1  6  0  0  0
 22 24  1  0  0  0  0
 24 20  1  0  0  0  0
 25 20  1  0  0  0  0
 26 27  1  0  0  0  0
 28 30  1  0  0  0  0
 28 27  1  0  0  0  0
 30 29  1  0  0  0  0
M  END
>  <MODEL>
8

>  <REMARK>
 VINA RESULT:      -7.1      1.875      2.817
  Name = 
  8 active torsions:
  status: ('A' for Active; 'I' for Inactive)
    1  A    between atoms: C_5  and  C_9
    2  A    between atoms: C_5  and  C_16
    3  A    between atoms: C_10  and  N_17
    4  A    between atoms: C_10  and  C_25
    5  A    between atoms: C_12  and  C_16
    6  A    between atoms: N_17  and  C_26
    7  A    between atoms: C_20  and  N_28
    8  A    between atoms: C_25  and  O_27
                            x       y       z     vdW  Elec       q    Type
                         _______ _______ _______ _____ _____    ______ ____

>  <TORSDO>
F 8

$$$$
=
 OpenBabel11062413293D

 30 33  0  0  1  0  0  0  0  0999 V2000
  189.1770  177.9990  143.7600 C   0  0  0  0  0  0  0  0  0  0  0  0
  184.4450  178.4050  143.4770 O   0  0  0  0  0  0  0  0  0  0  0  0
  190.5450  178.1070  145.7630 C   0  0  0  0  0  3  0  0  0  0  0  0
  187.8360  177.7310  143.1550 C   0  0  2  0  0  3  0  0  0  0  0  0
  187.5390  178.1730  141.7280 C   0  0  2  0  0  3  0  0  0  0  0  0
  186.7750  178.3650  144.0110 C   0  0  1  0  0  3  0  0  0  0  0  0
  185.6970  178.0400  146.1230 O   0  0  0  0  0  1  0  0  0  0  0  0
  191.5560  178.4220  143.5840 C   0  0  0  0  0  3  0  0  0  0  0  0
  191.6710  178.3610  144.9750 C   0  0  0  0  0  3  0  0  0  0  0  0
  189.2930  177.9050  145.1670 C   0  0  0  0  0  0  0  0  0  0  0  0
  188.0720  177.6700  146.0530 C   0  0  1  0  0  3  0  0  0  0  0  0
  190.3120  178.2360  142.9750 C   0  0  0  0  0  3  0  0  0  0  0  0
  185.6040  178.3140  143.1040 C   0  0  0  0  0  0  0  0  0  0  0  0
  186.7190  177.5610  145.3030 C   0  0  2  0  0  3  0  0  0  0  0  0
  186.0060  178.2050  141.6690 C   0  0  1  0  0  3  0  0  0  0  0  0
  188.2830  176.9250  148.2580 C   0  0  0  0  0  1  0  0  0  0  0  0
  188.2680  176.4860  146.8750 N   0  0  0  0  0  2  0  0  0  0  0  0
  188.0850  177.1510  140.7440 C   0  0  0  0  0  2  0  0  0  0  0  0
  189.0440  177.8170  139.7740 C   0  0  0  0  0  2  0  0  0  0  0  0
  192.3560  176.7390  138.6180 C   0  0  0  0  0  0  0  0  0  0  0  0
  190.0500  176.8400  137.7180 C   0  0  0  0  0  2  0  0  0  0  0  0
  190.0400  176.8050  139.2390 C   0  0  1  0  0  3  0  0  0  0  0  0
  193.5530  176.9670  138.6630 O   0  0  0  0  0  0  0  0  0  0  0  0
  191.4470  177.1200  139.7260 C   0  0  0  0  0  2  0  0  0  0  0  0
  191.5900  176.0540  137.1650 S   0  0  0  0  0  0  0  0  0  0  0  0
  185.5680  179.3850  140.9390 N   0  0  0  0  0  2  0  0  0  0  0  0
  184.4430  178.9880  140.1090 C   0  0  0  0  0  2  0  0  0  0  0  0
  184.9460  178.2780  138.8660 C   0  0  0  0  0  2  0  0  0  0  0  0
  186.4250  178.2270  137.2310 C   0  0  0  0  0  1  0  0  0  0  0  0
  186.0400  178.9690  138.3480 O   0  0  0  0  0  0  0  0  0  0  0  0
  1 10  1  0  0  0  0
  4  1  1  1  0  0  0
  4  6  1  0  0  0  0
  5 18  1  6  0  0  0
  5  4  1  0  0  0  0
  6 13  1  6  0  0  0
  6 14  1  0  0  0  0
  8  9  2  0  0  0  0
  9  3  1  0  0  0  0
 10  3  2  0  0  0  0
 10 11  1  0  0  0  0
 11 17  1  6  0  0  0
 12  8  1  0  0  0  0
 12  1  2  0  0  0  0
 13  2  2  0  0  0  0
 14 11  1  0  0  0  0
 14  7  1  1  0  0  0
 15 26  1  6  0  0  0
 15  5  1  0  0  0  0
 15 13  1  0  0  0  0
 17 16  1  0  0  0  0
 19 18  1  0  0  0  0
 20 23  2  0  0  0  0
 20 24  1  0  0  0  0
 21 22  1  0  0  0  0
 22 24  1  0  0  0  0
 22 19  1  1  0  0  0
 25 21  1  0  0  0  0
 25 20  1  0  0  0  0
 27 26  1  0  0  0  0
 28 27  1  0  0  0  0
 29 30  1  0  0  0  0
 30 28  1  0  0  0  0
M  END
>  <MODEL>
9

>  <REMARK>
 VINA RESULT:      -6.9      3.121      6.182
  Name = 
  8 active torsions:
  status: ('A' for Active; 'I' for Inactive)
    1  A    between atoms: C_5  and  C_9
    2  A    between atoms: C_5  and  C_16
    3  A    between atoms: C_10  and  N_17
    4  A    between atoms: C_10  and  C_25
    5  A    between atoms: C_12  and  C_16
    6  A    between atoms: N_17  and  C_26
    7  A    between atoms: C_20  and  N_28
    8  A    between atoms: C_25  and  O_27
                            x       y       z     vdW  Elec       q    Type
                         _______ _______ _______ _____ _____    ______ ____

>  <TORSDO>
F 8

$$$$
