=
 OpenBabel11062416443D

 28 29  0  0  0  0  0  0  0  0999 V2000
  186.4450  178.3170  142.5400 C   0  0  0  0  0  2  0  0  0  0  0  0
  185.7240  178.5540  144.8820 C   0  0  0  0  0  3  0  0  0  0  0  0
  184.7670  178.7580  145.8700 C   0  0  0  0  0  0  0  0  0  0  0  0
  183.4670  178.5270  141.8570 C   0  0  0  0  0  0  0  0  0  0  0  0
  183.0420  178.8380  144.2430 C   0  0  0  0  0  0  0  0  0  0  0  0
  181.2070  178.9240  142.6610 C   0  0  0  0  0  0  0  0  0  0  0  0
  181.6820  178.9930  143.9720 C   0  0  0  0  0  3  0  0  0  0  0  0
  182.0990  178.6850  141.6180 C   0  0  0  0  0  3  0  0  0  0  0  0
  183.9710  178.6140  143.1870 C   0  0  0  0  0  0  0  0  0  0  0  0
  185.3450  178.4850  143.5390 C   0  0  0  0  0  0  0  0  0  0  0  0
  185.1600  178.8270  147.2350 N   0  0  0  0  0  1  0  0  0  0  0  0
  184.3120  178.2340  140.6640 C   0  0  0  0  0  1  0  0  0  0  0  0
  183.4620  178.9000  145.5330 N   0  0  0  0  0  0  0  0  0  0  0  0
  179.7830  179.0880  142.3630 C   0  0  0  0  0  3  0  0  0  0  0  0
  178.9320  178.2470  142.7550 O   0  0  0  0  0  0  0  0  0  0  0  0
  187.3240  177.1340  142.9180 C   0  0  0  0  0  2  0  0  0  0  0  0
  188.7440  177.3810  142.5160 C   0  0  0  0  0  0  0  0  0  0  0  0
  189.6970  177.9160  143.4600 N   0  0  0  0  0  0  0  0  0  0  0  0
  189.1090  177.0770  141.3480 O   0  0  0  0  0  0  0  0  0  0  0  0
  191.8640  176.7750  143.2160 C   0  0  0  0  0  1  0  0  0  0  0  0
  191.1110  178.0910  143.1280 C   0  0  0  0  0  3  0  0  0  0  0  0
  191.7600  179.1390  144.0150 C   0  0  0  0  0  1  0  0  0  0  0  0
  189.3090  178.1910  144.8410 C   0  0  0  0  0  2  0  0  0  0  0  0
  189.3670  176.9280  145.6910 C   0  0  0  0  0  2  0  0  0  0  0  0
  190.2810  177.1110  146.8620 C   0  0  0  0  0  0  0  0  0  0  0  0
  189.7970  177.4760  147.9650 O   0  0  0  0  0  0  0  0  0  0  0  0
  191.6580  176.9080  146.7560 O   0  0  0  0  0  0  0  0  0  0  0  0
  192.2760  175.6800  147.1130 C   0  0  0  0  0  1  0  0  0  0  0  0
  1 16  1  0  0  0  0
  1 10  1  0  0  0  0
  2  3  1  0  0  0  0
  3 11  1  0  0  0  0
  4  9  1  0  0  0  0
  5 13  1  0  0  0  0
  6  7  2  0  0  0  0
  7  5  1  0  0  0  0
  8  4  2  0  0  0  0
  8  6  1  0  0  0  0
  9 10  1  0  0  0  0
  9  5  2  0  0  0  0
 10  2  2  0  0  0  0
 12  4  1  0  0  0  0
 13  3  2  0  0  0  0
 14  6  1  0  0  0  0
 14 15  2  0  0  0  0
 17 16  1  0  0  0  0
 17 18  1  0  0  0  0
 18 23  1  0  0  0  0
 19 17  2  0  0  0  0
 21 20  1  0  0  0  0
 21 18  1  0  0  0  0
 21 22  1  0  0  0  0
 23 24  1  0  0  0  0
 24 25  1  0  0  0  0
 25 26  2  0  0  0  0
 27 25  1  0  0  0  0
 27 28  1  0  0  0  0
M  END
>  <MODEL>
1

>  <REMARK>
 VINA RESULT:      -8.4      0.000      0.000
  Name = 
  9 active torsions:
  status: ('A' for Active; 'I' for Inactive)
    1  A    between atoms: C_1  and  C_15
    2  A    between atoms: C_1  and  O_19
    3  A    between atoms: C_5  and  C_14
    4  A    between atoms: C_6  and  C_14
    5  A    between atoms: C_6  and  C_16
    6  A    between atoms: C_9  and  C_12
    7  A    between atoms: C_15  and  C_27
    8  A    between atoms: N_20  and  C_22
    9  A    between atoms: N_20  and  C_27
                            x       y       z     vdW  Elec       q    Type
                         _______ _______ _______ _____ _____    ______ ____

>  <TORSDO>
F 9

$$$$
=
 OpenBabel11062416443D

 28 29  0  0  0  0  0  0  0  0999 V2000
  188.3890  177.1010  142.5030 C   0  0  0  0  0  2  0  0  0  0  0  0
  186.9620  177.7070  144.4150 C   0  0  0  0  0  3  0  0  0  0  0  0
  186.7090  177.8610  145.7740 C   0  0  0  0  0  0  0  0  0  0  0  0
  190.5780  176.6430  144.5950 C   0  0  0  0  0  0  0  0  0  0  0  0
  188.9240  177.1970  146.3050 C   0  0  0  0  0  0  0  0  0  0  0  0
  191.1670  176.5420  146.9510 C   0  0  0  0  0  0  0  0  0  0  0  0
  189.8760  176.9470  147.2940 C   0  0  0  0  0  3  0  0  0  0  0  0
  191.5090  176.4010  145.6090 C   0  0  0  0  0  3  0  0  0  0  0  0
  189.2500  177.0380  144.9280 C   0  0  0  0  0  0  0  0  0  0  0  0
  188.2220  177.2910  143.9770 C   0  0  0  0  0  0  0  0  0  0  0  0
  185.4240  178.2830  146.2140 N   0  0  0  0  0  1  0  0  0  0  0  0
  191.0780  176.4990  143.1970 C   0  0  0  0  0  1  0  0  0  0  0  0
  187.6820  177.5990  146.6800 N   0  0  0  0  0  0  0  0  0  0  0  0
  192.1740  176.2740  147.9800 C   0  0  0  0  0  3  0  0  0  0  0  0
  193.2490  175.6780  147.7030 O   0  0  0  0  0  0  0  0  0  0  0  0
  188.5820  178.4450  141.8170 C   0  0  0  0  0  2  0  0  0  0  0  0
  187.9100  178.4570  140.4800 C   0  0  0  0  0  0  0  0  0  0  0  0
  188.6650  178.2220  139.2710 N   0  0  0  0  0  0  0  0  0  0  0  0
  186.6640  178.6380  140.4250 O   0  0  0  0  0  0  0  0  0  0  0  0
  187.6070  176.7210  137.6330 C   0  0  0  0  0  1  0  0  0  0  0  0
  188.0290  178.1430  137.9560 C   0  0  0  0  0  3  0  0  0  0  0  0
  188.9380  178.6910  136.8690 C   0  0  0  0  0  1  0  0  0  0  0  0
  190.0950  177.9260  139.3270 C   0  0  0  0  0  2  0  0  0  0  0  0
  190.3420  176.4310  139.4790 C   0  0  0  0  0  2  0  0  0  0  0  0
  191.1690  175.9060  138.3490 C   0  0  0  0  0  0  0  0  0  0  0  0
  191.8160  176.7160  137.6360 O   0  0  0  0  0  0  0  0  0  0  0  0
  191.2240  174.5420  138.0510 O   0  0  0  0  0  0  0  0  0  0  0  0
  192.0410  174.0230  137.0110 C   0  0  0  0  0  1  0  0  0  0  0  0
  1 10  1  0  0  0  0
  2  3  1  0  0  0  0
  3 11  1  0  0  0  0
  3 13  2  0  0  0  0
  4  9  2  0  0  0  0
  4  8  1  0  0  0  0
  5 13  1  0  0  0  0
  5  7  2  0  0  0  0
  6  7  1  0  0  0  0
  6 14  1  0  0  0  0
  8  6  2  0  0  0  0
  9  5  1  0  0  0  0
 10  2  2  0  0  0  0
 10  9  1  0  0  0  0
 12  4  1  0  0  0  0
 15 14  2  0  0  0  0
 16  1  1  0  0  0  0
 17 16  1  0  0  0  0
 18 23  1  0  0  0  0
 18 17  1  0  0  0  0
 19 17  2  0  0  0  0
 20 21  1  0  0  0  0
 21 18  1  0  0  0  0
 22 21  1  0  0  0  0
 23 24  1  0  0  0  0
 25 24  1  0  0  0  0
 26 25  2  0  0  0  0
 27 25  1  0  0  0  0
 28 27  1  0  0  0  0
M  END
>  <MODEL>
2

>  <REMARK>
 VINA RESULT:      -8.1      3.608      7.576
  Name = 
  9 active torsions:
  status: ('A' for Active; 'I' for Inactive)
    1  A    between atoms: C_1  and  C_15
    2  A    between atoms: C_1  and  O_19
    3  A    between atoms: C_5  and  C_14
    4  A    between atoms: C_6  and  C_14
    5  A    between atoms: C_6  and  C_16
    6  A    between atoms: C_9  and  C_12
    7  A    between atoms: C_15  and  C_27
    8  A    between atoms: N_20  and  C_22
    9  A    between atoms: N_20  and  C_27
                            x       y       z     vdW  Elec       q    Type
                         _______ _______ _______ _____ _____    ______ ____

>  <TORSDO>
F 9

$$$$
=
 OpenBabel11062416443D

 28 29  0  0  0  0  0  0  0  0999 V2000
  185.2300  178.4700  143.8910 C   0  0  0  0  0  2  0  0  0  0  0  0
  186.9790  178.0230  142.2170 C   0  0  0  0  0  3  0  0  0  0  0  0
  188.2750  177.6960  141.8350 C   0  0  0  0  0  0  0  0  0  0  0  0
  187.3580  177.7140  145.9590 C   0  0  0  0  0  0  0  0  0  0  0  0
  188.9220  177.4340  144.1030 C   0  0  0  0  0  0  0  0  0  0  0  0
  189.6790  177.1300  146.3860 C   0  0  0  0  0  0  0  0  0  0  0  0
  189.9360  177.1360  145.0140 C   0  0  0  0  0  3  0  0  0  0  0  0
  188.3950  177.4110  146.8460 C   0  0  0  0  0  3  0  0  0  0  0  0
  187.6080  177.7440  144.5570 C   0  0  0  0  0  0  0  0  0  0  0  0
  186.6310  178.0570  143.5700 C   0  0  0  0  0  0  0  0  0  0  0  0
  188.6230  177.6640  140.4560 N   0  0  0  0  0  1  0  0  0  0  0  0
  186.0200  177.9550  146.5710 C   0  0  0  0  0  1  0  0  0  0  0  0
  189.2100  177.4180  142.7760 N   0  0  0  0  0  0  0  0  0  0  0  0
  190.7360  176.8210  147.3520 C   0  0  0  0  0  3  0  0  0  0  0  0
  191.9450  176.7720  147.0040 O   0  0  0  0  0  0  0  0  0  0  0  0
  184.4220  178.6310  142.6120 C   0  0  0  0  0  2  0  0  0  0  0  0
  182.9700  178.8120  142.9240 C   0  0  0  0  0  0  0  0  0  0  0  0
  181.9610  178.5520  141.9240 N   0  0  0  0  0  0  0  0  0  0  0  0
  182.6340  179.1590  144.0890 O   0  0  0  0  0  0  0  0  0  0  0  0
  179.7370  177.6450  141.3830 C   0  0  0  0  0  1  0  0  0  0  0  0
  180.5300  178.6370  142.2170 C   0  0  0  0  0  3  0  0  0  0  0  0
  180.0070  180.0480  142.0100 C   0  0  0  0  0  1  0  0  0  0  0  0
  182.3300  178.0670  140.5960 C   0  0  0  0  0  2  0  0  0  0  0  0
  182.4680  179.2170  139.6080 C   0  0  0  0  0  2  0  0  0  0  0  0
  183.8520  179.2760  139.0430 C   0  0  0  0  0  0  0  0  0  0  0  0
  184.5050  180.3470  139.1340 O   0  0  0  0  0  0  0  0  0  0  0  0
  184.4280  178.1800  138.3970 O   0  0  0  0  0  0  0  0  0  0  0  0
  185.8110  178.1250  138.0780 C   0  0  0  0  0  1  0  0  0  0  0  0
  2 10  1  0  0  0  0
  3  2  2  0  0  0  0
  3 13  1  0  0  0  0
  4 12  1  0  0  0  0
  4  8  2  0  0  0  0
  5  9  1  0  0  0  0
  5  7  1  0  0  0  0
  6  8  1  0  0  0  0
  6 14  1  0  0  0  0
  7  6  2  0  0  0  0
  9  4  1  0  0  0  0
 10  1  1  0  0  0  0
 10  9  2  0  0  0  0
 11  3  1  0  0  0  0
 13  5  2  0  0  0  0
 15 14  2  0  0  0  0
 16 17  1  0  0  0  0
 16  1  1  0  0  0  0
 17 19  2  0  0  0  0
 18 21  1  0  0  0  0
 18 17  1  0  0  0  0
 20 21  1  0  0  0  0
 22 21  1  0  0  0  0
 23 18  1  0  0  0  0
 24 23  1  0  0  0  0
 25 26  2  0  0  0  0
 25 24  1  0  0  0  0
 27 25  1  0  0  0  0
 28 27  1  0  0  0  0
M  END
>  <MODEL>
3

>  <REMARK>
 VINA RESULT:      -8.0      2.365      8.535
  Name = 
  9 active torsions:
  status: ('A' for Active; 'I' for Inactive)
    1  A    between atoms: C_1  and  C_15
    2  A    between atoms: C_1  and  O_19
    3  A    between atoms: C_5  and  C_14
    4  A    between atoms: C_6  and  C_14
    5  A    between atoms: C_6  and  C_16
    6  A    between atoms: C_9  and  C_12
    7  A    between atoms: C_15  and  C_27
    8  A    between atoms: N_20  and  C_22
    9  A    between atoms: N_20  and  C_27
                            x       y       z     vdW  Elec       q    Type
                         _______ _______ _______ _____ _____    ______ ____

>  <TORSDO>
F 9

$$$$
=
 OpenBabel11062416443D

 28 29  0  0  0  0  0  0  0  0999 V2000
  186.1900  178.5380  144.0760 C   0  0  0  0  0  2  0  0  0  0  0  0
  186.0060  178.6440  141.6230 C   0  0  0  0  0  3  0  0  0  0  0  0
  185.2860  178.6990  140.4350 C   0  0  0  0  0  0  0  0  0  0  0  0
  183.1370  178.7810  144.0710 C   0  0  0  0  0  0  0  0  0  0  0  0
  183.2370  178.7680  141.6300 C   0  0  0  0  0  0  0  0  0  0  0  0
  181.0930  178.8530  142.7570 C   0  0  0  0  0  0  0  0  0  0  0  0
  181.8440  178.8250  141.5810 C   0  0  0  0  0  3  0  0  0  0  0  0
  181.7430  178.8390  143.9890 C   0  0  0  0  0  3  0  0  0  0  0  0
  183.9180  178.7310  142.8800 C   0  0  0  0  0  0  0  0  0  0  0  0
  185.3400  178.6530  142.8510 C   0  0  0  0  0  0  0  0  0  0  0  0
  185.9710  178.6890  139.1880 N   0  0  0  0  0  1  0  0  0  0  0  0
  183.7160  178.8140  145.4450 C   0  0  0  0  0  1  0  0  0  0  0  0
  183.9320  178.7520  140.4640 N   0  0  0  0  0  0  0  0  0  0  0  0
  179.6300  178.9100  142.7190 C   0  0  0  0  0  3  0  0  0  0  0  0
  178.9330  178.4490  143.6620 O   0  0  0  0  0  0  0  0  0  0  0  0
  186.9820  177.2390  144.0460 C   0  0  0  0  0  2  0  0  0  0  0  0
  188.2660  177.3860  144.8000 C   0  0  0  0  0  0  0  0  0  0  0  0
  189.4920  177.7210  144.1130 N   0  0  0  0  0  0  0  0  0  0  0  0
  188.2570  177.2520  146.0540 O   0  0  0  0  0  0  0  0  0  0  0  0
  191.5920  179.0040  144.1260 C   0  0  0  0  0  1  0  0  0  0  0  0
  190.7480  177.9550  144.8270 C   0  0  0  0  0  3  0  0  0  0  0  0
  191.5320  176.6660  145.0000 C   0  0  0  0  0  1  0  0  0  0  0  0
  189.5010  177.9640  142.6730 C   0  0  0  0  0  2  0  0  0  0  0  0
  189.6470  176.6630  141.8960 C   0  0  0  0  0  2  0  0  0  0  0  0
  190.6730  176.7950  140.8160 C   0  0  0  0  0  0  0  0  0  0  0  0
  191.6580  177.5580  140.9970 O   0  0  0  0  0  0  0  0  0  0  0  0
  190.5560  176.1120  139.6040 O   0  0  0  0  0  0  0  0  0  0  0  0
  191.0400  176.6450  138.3790 C   0  0  0  0  0  1  0  0  0  0  0  0
  2 10  1  0  0  0  0
  3 13  1  0  0  0  0
  3  2  2  0  0  0  0
  4 12  1  0  0  0  0
  5  9  1  0  0  0  0
  6  8  1  0  0  0  0
  7  5  1  0  0  0  0
  7  6  2  0  0  0  0
  8  4  2  0  0  0  0
  9  4  1  0  0  0  0
 10  9  2  0  0  0  0
 10  1  1  0  0  0  0
 11  3  1  0  0  0  0
 13  5  2  0  0  0  0
 14  6  1  0  0  0  0
 14 15  2  0  0  0  0
 16  1  1  0  0  0  0
 16 17  1  0  0  0  0
 17 19  2  0  0  0  0
 18 17  1  0  0  0  0
 18 21  1  0  0  0  0
 20 21  1  0  0  0  0
 21 22  1  0  0  0  0
 23 18  1  0  0  0  0
 24 23  1  0  0  0  0
 25 26  2  0  0  0  0
 25 24  1  0  0  0  0
 27 25  1  0  0  0  0
 28 27  1  0  0  0  0
M  END
>  <MODEL>
4

>  <REMARK>
 VINA RESULT:      -8.0      2.120      4.094
  Name = 
  9 active torsions:
  status: ('A' for Active; 'I' for Inactive)
    1  A    between atoms: C_1  and  C_15
    2  A    between atoms: C_1  and  O_19
    3  A    between atoms: C_5  and  C_14
    4  A    between atoms: C_6  and  C_14
    5  A    between atoms: C_6  and  C_16
    6  A    between atoms: C_9  and  C_12
    7  A    between atoms: C_15  and  C_27
    8  A    between atoms: N_20  and  C_22
    9  A    between atoms: N_20  and  C_27
                            x       y       z     vdW  Elec       q    Type
                         _______ _______ _______ _____ _____    ______ ____

>  <TORSDO>
F 9

$$$$
=
 OpenBabel11062416443D

 28 29  0  0  0  0  0  0  0  0999 V2000
  186.6260  177.7750  142.5810 C   0  0  0  0  0  2  0  0  0  0  0  0
  185.7480  178.2000  144.8420 C   0  0  0  0  0  3  0  0  0  0  0  0
  185.8520  178.2230  146.2280 C   0  0  0  0  0  0  0  0  0  0  0  0
  189.2600  177.1080  143.9940 C   0  0  0  0  0  0  0  0  0  0  0  0
  188.1100  177.5010  146.1130 C   0  0  0  0  0  0  0  0  0  0  0  0
  190.4230  176.7780  146.1030 C   0  0  0  0  0  0  0  0  0  0  0  0
  189.2730  177.1530  146.8000 C   0  0  0  0  0  3  0  0  0  0  0  0
  190.4100  176.7650  144.7110 C   0  0  0  0  0  3  0  0  0  0  0  0
  188.0720  177.4740  144.6900 C   0  0  0  0  0  0  0  0  0  0  0  0
  186.8430  177.8230  144.0600 C   0  0  0  0  0  0  0  0  0  0  0  0
  184.7330  178.6070  147.0180 N   0  0  0  0  0  1  0  0  0  0  0  0
  189.3850  177.0970  142.5090 C   0  0  0  0  0  1  0  0  0  0  0  0
  187.0150  177.8710  146.8270 N   0  0  0  0  0  0  0  0  0  0  0  0
  191.6500  176.4070  146.8120 C   0  0  0  0  0  3  0  0  0  0  0  0
  192.0080  177.0100  147.8580 O   0  0  0  0  0  0  0  0  0  0  0  0
  185.9990  179.0740  142.0980 C   0  0  0  0  0  2  0  0  0  0  0  0
  185.2420  178.8540  140.8260 C   0  0  0  0  0  0  0  0  0  0  0  0
  183.8150  178.6360  140.8440 N   0  0  0  0  0  0  0  0  0  0  0  0
  185.8640  178.9020  139.7300 O   0  0  0  0  0  0  0  0  0  0  0  0
  183.4540  177.2770  138.8230 C   0  0  0  0  0  1  0  0  0  0  0  0
  183.0300  178.5020  139.6150 C   0  0  0  0  0  3  0  0  0  0  0  0
  183.1270  179.7530  138.7590 C   0  0  0  0  0  1  0  0  0  0  0  0
  183.0680  178.6650  142.0980 C   0  0  0  0  0  2  0  0  0  0  0  0
  181.5720  178.7980  141.8460 C   0  0  0  0  0  2  0  0  0  0  0  0
  180.8770  179.3840  143.0350 C   0  0  0  0  0  0  0  0  0  0  0  0
  180.9910  178.8150  144.1510 O   0  0  0  0  0  0  0  0  0  0  0  0
  180.0890  180.5310  142.9330 O   0  0  0  0  0  0  0  0  0  0  0  0
  179.3820  180.8660  141.7470 C   0  0  0  0  0  1  0  0  0  0  0  0
  1 10  1  0  0  0  0
  2  3  1  0  0  0  0
  3 13  2  0  0  0  0
  3 11  1  0  0  0  0
  4  9  2  0  0  0  0
  4  8  1  0  0  0  0
  5  7  2  0  0  0  0
  5 13  1  0  0  0  0
  6  7  1  0  0  0  0
  6 14  1  0  0  0  0
  8  6  2  0  0  0  0
  9  5  1  0  0  0  0
 10  9  1  0  0  0  0
 10  2  2  0  0  0  0
 12  4  1  0  0  0  0
 14 15  2  0  0  0  0
 16  1  1  0  0  0  0
 17 18  1  0  0  0  0
 17 16  1  0  0  0  0
 18 23  1  0  0  0  0
 19 17  2  0  0  0  0
 20 21  1  0  0  0  0
 21 18  1  0  0  0  0
 22 21  1  0  0  0  0
 24 23  1  0  0  0  0
 24 25  1  0  0  0  0
 25 26  2  0  0  0  0
 27 25  1  0  0  0  0
 28 27  1  0  0  0  0
M  END
>  <MODEL>
5

>  <REMARK>
 VINA RESULT:      -7.8      1.847      8.075
  Name = 
  9 active torsions:
  status: ('A' for Active; 'I' for Inactive)
    1  A    between atoms: C_1  and  C_15
    2  A    between atoms: C_1  and  O_19
    3  A    between atoms: C_5  and  C_14
    4  A    between atoms: C_6  and  C_14
    5  A    between atoms: C_6  and  C_16
    6  A    between atoms: C_9  and  C_12
    7  A    between atoms: C_15  and  C_27
    8  A    between atoms: N_20  and  C_22
    9  A    between atoms: N_20  and  C_27
                            x       y       z     vdW  Elec       q    Type
                         _______ _______ _______ _____ _____    ______ ____

>  <TORSDO>
F 9

$$$$
=
 OpenBabel11062416443D

 28 29  0  0  0  0  0  0  0  0999 V2000
  187.0950  178.2520  144.6190 C   0  0  0  0  0  2  0  0  0  0  0  0
  188.6930  177.6790  142.8350 C   0  0  0  0  0  3  0  0  0  0  0  0
  189.9230  177.2280  142.3710 C   0  0  0  0  0  0  0  0  0  0  0  0
  189.2350  177.1970  146.5390 C   0  0  0  0  0  0  0  0  0  0  0  0
  190.6570  176.8170  144.5900 C   0  0  0  0  0  0  0  0  0  0  0  0
  191.4970  176.3510  146.8150 C   0  0  0  0  0  0  0  0  0  0  0  0
  191.6800  176.3790  145.4320 C   0  0  0  0  0  3  0  0  0  0  0  0
  190.2780  176.7530  147.3560 C   0  0  0  0  0  3  0  0  0  0  0  0
  189.4120  177.2500  145.1260 C   0  0  0  0  0  0  0  0  0  0  0  0
  188.4230  177.7020  144.2060 C   0  0  0  0  0  0  0  0  0  0  0  0
  190.1910  177.2080  140.9740 N   0  0  0  0  0  1  0  0  0  0  0  0
  187.9660  177.5590  147.2330 C   0  0  0  0  0  1  0  0  0  0  0  0
  190.8710  176.8180  143.2490 N   0  0  0  0  0  0  0  0  0  0  0  0
  192.5630  175.8970  147.7100 C   0  0  0  0  0  3  0  0  0  0  0  0
  192.8330  176.5160  148.7740 O   0  0  0  0  0  0  0  0  0  0  0  0
  185.9870  177.6460  143.7710 C   0  0  0  0  0  2  0  0  0  0  0  0
  184.6940  178.3640  143.9990 C   0  0  0  0  0  0  0  0  0  0  0  0
  183.7630  178.5700  142.9140 N   0  0  0  0  0  0  0  0  0  0  0  0
  184.4090  178.7530  145.1630 O   0  0  0  0  0  0  0  0  0  0  0  0
  181.7590  178.6250  144.3420 C   0  0  0  0  0  1  0  0  0  0  0  0
  182.4540  179.1930  143.1170 C   0  0  0  0  0  3  0  0  0  0  0  0
  181.5760  179.0440  141.8870 C   0  0  0  0  0  1  0  0  0  0  0  0
  184.0410  178.0490  141.5790 C   0  0  0  0  0  2  0  0  0  0  0  0
  184.9280  179.0020  140.7890 C   0  0  0  0  0  2  0  0  0  0  0  0
  184.6610  178.8910  139.3210 C   0  0  0  0  0  0  0  0  0  0  0  0
  183.4810  178.7010  138.9260 O   0  0  0  0  0  0  0  0  0  0  0  0
  185.6900  178.9710  138.3800 O   0  0  0  0  0  0  0  0  0  0  0  0
  186.0400  177.8790  137.5400 C   0  0  0  0  0  1  0  0  0  0  0  0
  2 10  1  0  0  0  0
  3  2  2  0  0  0  0
  3 13  1  0  0  0  0
  4 12  1  0  0  0  0
  4  8  2  0  0  0  0
  5  9  1  0  0  0  0
  5  7  1  0  0  0  0
  6  8  1  0  0  0  0
  6 14  1  0  0  0  0
  7  6  2  0  0  0  0
  9  4  1  0  0  0  0
 10  1  1  0  0  0  0
 10  9  2  0  0  0  0
 11  3  1  0  0  0  0
 13  5  2  0  0  0  0
 14 15  2  0  0  0  0
 16 17  1  0  0  0  0
 16  1  1  0  0  0  0
 17 19  2  0  0  0  0
 18 21  1  0  0  0  0
 18 17  1  0  0  0  0
 21 20  1  0  0  0  0
 22 21  1  0  0  0  0
 23 18  1  0  0  0  0
 24 23  1  0  0  0  0
 25 24  1  0  0  0  0
 26 25  2  0  0  0  0
 27 25  1  0  0  0  0
 28 27  1  0  0  0  0
M  END
>  <MODEL>
6

>  <REMARK>
 VINA RESULT:      -7.4      2.378      8.713
  Name = 
  9 active torsions:
  status: ('A' for Active; 'I' for Inactive)
    1  A    between atoms: C_1  and  C_15
    2  A    between atoms: C_1  and  O_19
    3  A    between atoms: C_5  and  C_14
    4  A    between atoms: C_6  and  C_14
    5  A    between atoms: C_6  and  C_16
    6  A    between atoms: C_9  and  C_12
    7  A    between atoms: C_15  and  C_27
    8  A    between atoms: N_20  and  C_22
    9  A    between atoms: N_20  and  C_27
                            x       y       z     vdW  Elec       q    Type
                         _______ _______ _______ _____ _____    ______ ____

>  <TORSDO>
F 9

$$$$
=
 OpenBabel11062416443D

 28 29  0  0  0  0  0  0  0  0999 V2000
  186.4570  177.8720  142.4420 C   0  0  0  0  0  2  0  0  0  0  0  0
  185.6890  178.2410  144.7520 C   0  0  0  0  0  3  0  0  0  0  0  0
  185.8610  178.2330  146.1320 C   0  0  0  0  0  0  0  0  0  0  0  0
  189.1590  177.1830  143.7100 C   0  0  0  0  0  0  0  0  0  0  0  0
  188.1120  177.5230  145.8900 C   0  0  0  0  0  0  0  0  0  0  0  0
  190.4240  176.8090  145.7510 C   0  0  0  0  0  0  0  0  0  0  0  0
  189.3080  177.1630  146.5110 C   0  0  0  0  0  3  0  0  0  0  0  0
  190.3430  176.8280  144.3610 C   0  0  0  0  0  3  0  0  0  0  0  0
  188.0050  177.5280  144.4710 C   0  0  0  0  0  0  0  0  0  0  0  0
  186.7460  177.8870  143.9090 C   0  0  0  0  0  0  0  0  0  0  0  0
  184.7800  178.5950  146.9830 N   0  0  0  0  0  1  0  0  0  0  0  0
  189.2110  177.2060  142.2200 C   0  0  0  0  0  1  0  0  0  0  0  0
  187.0530  177.8720  146.6650 N   0  0  0  0  0  0  0  0  0  0  0  0
  191.6850  176.4260  146.3910 C   0  0  0  0  0  3  0  0  0  0  0  0
  191.9450  176.7640  147.5760 O   0  0  0  0  0  0  0  0  0  0  0  0
  185.6230  179.0840  142.0570 C   0  0  0  0  0  2  0  0  0  0  0  0
  184.3440  178.6600  141.4050 C   0  0  0  0  0  0  0  0  0  0  0  0
  184.2410  178.5740  139.9670 N   0  0  0  0  0  0  0  0  0  0  0  0
  183.3660  178.3390  142.1330 O   0  0  0  0  0  0  0  0  0  0  0  0
  181.8990  179.0860  139.4070 C   0  0  0  0  0  1  0  0  0  0  0  0
  183.0340  178.0830  139.2990 C   0  0  0  0  0  3  0  0  0  0  0  0
  182.6090  176.7330  139.8500 C   0  0  0  0  0  1  0  0  0  0  0  0
  185.3920  178.8590  139.1150 C   0  0  0  0  0  2  0  0  0  0  0  0
  185.4560  177.8970  137.9360 C   0  0  0  0  0  2  0  0  0  0  0  0
  186.6940  178.1220  137.1270 C   0  0  0  0  0  0  0  0  0  0  0  0
  186.8460  177.4870  136.0510 O   0  0  0  0  0  0  0  0  0  0  0  0
  187.6940  179.0030  137.5450 O   0  0  0  0  0  0  0  0  0  0  0  0
  189.0300  178.5810  137.7780 C   0  0  0  0  0  1  0  0  0  0  0  0
  1 10  1  0  0  0  0
  2  3  1  0  0  0  0
  3 13  2  0  0  0  0
  3 11  1  0  0  0  0
  4  8  2  0  0  0  0
  4  9  1  0  0  0  0
  5  7  1  0  0  0  0
  5 13  1  0  0  0  0
  6 14  1  0  0  0  0
  6  7  2  0  0  0  0
  8  6  1  0  0  0  0
  9  5  2  0  0  0  0
 10  9  1  0  0  0  0
 10  2  2  0  0  0  0
 12  4  1  0  0  0  0
 14 15  2  0  0  0  0
 16  1  1  0  0  0  0
 17 16  1  0  0  0  0
 17 19  2  0  0  0  0
 18 17  1  0  0  0  0
 21 20  1  0  0  0  0
 21 22  1  0  0  0  0
 21 18  1  0  0  0  0
 23 18  1  0  0  0  0
 24 23  1  0  0  0  0
 25 27  1  0  0  0  0
 25 24  1  0  0  0  0
 26 25  2  0  0  0  0
 27 28  1  0  0  0  0
M  END
>  <MODEL>
7

>  <REMARK>
 VINA RESULT:      -7.4      2.664      7.902
  Name = 
  9 active torsions:
  status: ('A' for Active; 'I' for Inactive)
    1  A    between atoms: C_1  and  C_15
    2  A    between atoms: C_1  and  O_19
    3  A    between atoms: C_5  and  C_14
    4  A    between atoms: C_6  and  C_14
    5  A    between atoms: C_6  and  C_16
    6  A    between atoms: C_9  and  C_12
    7  A    between atoms: C_15  and  C_27
    8  A    between atoms: N_20  and  C_22
    9  A    between atoms: N_20  and  C_27
                            x       y       z     vdW  Elec       q    Type
                         _______ _______ _______ _____ _____    ______ ____

>  <TORSDO>
F 9

$$$$
=
 OpenBabel11062416443D

 28 29  0  0  0  0  0  0  0  0999 V2000
  186.5870  177.7400  142.5250 C   0  0  0  0  0  2  0  0  0  0  0  0
  186.1710  178.1240  144.9210 C   0  0  0  0  0  3  0  0  0  0  0  0
  185.3760  178.5090  145.9960 C   0  0  0  0  0  0  0  0  0  0  0  0
  183.6420  178.4910  142.1430 C   0  0  0  0  0  0  0  0  0  0  0  0
  183.5340  178.8930  144.5500 C   0  0  0  0  0  0  0  0  0  0  0  0
  181.5900  179.3050  143.1610 C   0  0  0  0  0  0  0  0  0  0  0  0
  182.2050  179.2950  144.4150 C   0  0  0  0  0  3  0  0  0  0  0  0
  182.3090  178.8970  142.0400 C   0  0  0  0  0  3  0  0  0  0  0  0
  184.2900  178.4940  143.4120 C   0  0  0  0  0  0  0  0  0  0  0  0
  185.6470  178.1160  143.6250 C   0  0  0  0  0  0  0  0  0  0  0  0
  185.9160  178.5150  147.3110 N   0  0  0  0  0  1  0  0  0  0  0  0
  184.2900  178.0370  140.8790 C   0  0  0  0  0  1  0  0  0  0  0  0
  184.0920  178.8870  145.7890 N   0  0  0  0  0  0  0  0  0  0  0  0
  180.1970  179.7270  143.0050 C   0  0  0  0  0  3  0  0  0  0  0  0
  179.8820  180.6690  142.2310 O   0  0  0  0  0  0  0  0  0  0  0  0
  188.0270  177.9410  142.9710 C   0  0  0  0  0  2  0  0  0  0  0  0
  188.9620  177.8150  141.8100 C   0  0  0  0  0  0  0  0  0  0  0  0
  189.9960  176.8060  141.7990 N   0  0  0  0  0  0  0  0  0  0  0  0
  188.8110  178.5790  140.8180 O   0  0  0  0  0  0  0  0  0  0  0  0
  191.9520  177.6660  140.5770 C   0  0  0  0  0  1  0  0  0  0  0  0
  190.8740  176.5990  140.6460 C   0  0  0  0  0  3  0  0  0  0  0  0
  190.0820  176.5540  139.3510 C   0  0  0  0  0  1  0  0  0  0  0  0
  190.1280  175.8580  142.9030 C   0  0  0  0  0  2  0  0  0  0  0  0
  191.4680  176.0190  143.6080 C   0  0  0  0  0  2  0  0  0  0  0  0
  191.4270  177.1490  144.5880 C   0  0  0  0  0  0  0  0  0  0  0  0
  191.7790  178.2970  144.2120 O   0  0  0  0  0  0  0  0  0  0  0  0
  191.0290  176.9580  145.9130 O   0  0  0  0  0  0  0  0  0  0  0  0
  191.8090  176.2200  146.8430 C   0  0  0  0  0  1  0  0  0  0  0  0
  1 16  1  0  0  0  0
  1 10  1  0  0  0  0
  2  3  1  0  0  0  0
  3 11  1  0  0  0  0
  4  9  1  0  0  0  0
  5 13  1  0  0  0  0
  6  7  2  0  0  0  0
  7  5  1  0  0  0  0
  8  4  2  0  0  0  0
  8  6  1  0  0  0  0
  9 10  1  0  0  0  0
  9  5  2  0  0  0  0
 10  2  2  0  0  0  0
 12  4  1  0  0  0  0
 13  3  2  0  0  0  0
 14  6  1  0  0  0  0
 15 14  2  0  0  0  0
 17 16  1  0  0  0  0
 18 17  1  0  0  0  0
 18 23  1  0  0  0  0
 19 17  2  0  0  0  0
 20 21  1  0  0  0  0
 21 18  1  0  0  0  0
 22 21  1  0  0  0  0
 23 24  1  0  0  0  0
 24 25  1  0  0  0  0
 25 27  1  0  0  0  0
 26 25  2  0  0  0  0
 27 28  1  0  0  0  0
M  END
>  <MODEL>
8

>  <REMARK>
 VINA RESULT:      -7.4      1.533      2.027
  Name = 
  9 active torsions:
  status: ('A' for Active; 'I' for Inactive)
    1  A    between atoms: C_1  and  C_15
    2  A    between atoms: C_1  and  O_19
    3  A    between atoms: C_5  and  C_14
    4  A    between atoms: C_6  and  C_14
    5  A    between atoms: C_6  and  C_16
    6  A    between atoms: C_9  and  C_12
    7  A    between atoms: C_15  and  C_27
    8  A    between atoms: N_20  and  C_22
    9  A    between atoms: N_20  and  C_27
                            x       y       z     vdW  Elec       q    Type
                         _______ _______ _______ _____ _____    ______ ____

>  <TORSDO>
F 9

$$$$
=
 OpenBabel11062416443D

 28 29  0  0  0  0  0  0  0  0999 V2000
  187.9310  177.4110  141.8060 C   0  0  0  0  0  2  0  0  0  0  0  0
  185.7620  178.2380  142.6250 C   0  0  0  0  0  3  0  0  0  0  0  0
  184.8570  178.5590  143.6310 C   0  0  0  0  0  0  0  0  0  0  0  0
  188.7070  177.2400  144.7630 C   0  0  0  0  0  0  0  0  0  0  0  0
  186.4450  177.9880  145.3000 C   0  0  0  0  0  0  0  0  0  0  0  0
  187.9970  177.4410  147.0790 C   0  0  0  0  0  0  0  0  0  0  0  0
  186.7380  177.8730  146.6590 C   0  0  0  0  0  3  0  0  0  0  0  0
  188.9710  177.1360  146.1320 C   0  0  0  0  0  3  0  0  0  0  0  0
  187.4210  177.6600  144.3170 C   0  0  0  0  0  0  0  0  0  0  0  0
  187.0430  177.7830  142.9490 C   0  0  0  0  0  0  0  0  0  0  0  0
  183.5550  179.0210  143.2940 N   0  0  0  0  0  1  0  0  0  0  0  0
  189.8440  176.9260  143.8500 C   0  0  0  0  0  1  0  0  0  0  0  0
  185.2120  178.4220  144.9320 N   0  0  0  0  0  0  0  0  0  0  0  0
  188.3160  177.3130  148.5030 C   0  0  0  0  0  3  0  0  0  0  0  0
  188.5700  178.3240  149.2090 O   0  0  0  0  0  0  0  0  0  0  0  0
  188.2330  178.6340  140.9530 C   0  0  0  0  0  2  0  0  0  0  0  0
  187.6710  178.4710  139.5760 C   0  0  0  0  0  0  0  0  0  0  0  0
  188.5230  178.1050  138.4690 N   0  0  0  0  0  0  0  0  0  0  0  0
  186.4310  178.6190  139.4020 O   0  0  0  0  0  0  0  0  0  0  0  0
  187.2970  176.5080  137.0530 C   0  0  0  0  0  1  0  0  0  0  0  0
  187.9950  177.8540  137.1270 C   0  0  0  0  0  3  0  0  0  0  0  0
  189.0890  177.9480  136.0780 C   0  0  0  0  0  1  0  0  0  0  0  0
  189.9460  177.8460  138.6720 C   0  0  0  0  0  2  0  0  0  0  0  0
  190.1830  176.4170  139.1450 C   0  0  0  0  0  2  0  0  0  0  0  0
  191.2510  175.7540  138.3340 C   0  0  0  0  0  0  0  0  0  0  0  0
  191.0840  174.5650  137.9590 O   0  0  0  0  0  0  0  0  0  0  0  0
  192.4350  176.4130  138.0000 O   0  0  0  0  0  0  0  0  0  0  0  0
  193.5400  175.7420  137.4120 C   0  0  0  0  0  1  0  0  0  0  0  0
  1 10  1  0  0  0  0
  2 10  2  0  0  0  0
  2  3  1  0  0  0  0
  3 13  2  0  0  0  0
  4  8  1  0  0  0  0
  5  7  2  0  0  0  0
  6 14  1  0  0  0  0
  7  6  1  0  0  0  0
  8  6  2  0  0  0  0
  9  4  2  0  0  0  0
  9  5  1  0  0  0  0
 10  9  1  0  0  0  0
 11  3  1  0  0  0  0
 12  4  1  0  0  0  0
 13  5  1  0  0  0  0
 14 15  2  0  0  0  0
 16  1  1  0  0  0  0
 17 16  1  0  0  0  0
 18 23  1  0  0  0  0
 18 17  1  0  0  0  0
 19 17  2  0  0  0  0
 20 21  1  0  0  0  0
 21 18  1  0  0  0  0
 22 21  1  0  0  0  0
 23 24  1  0  0  0  0
 25 24  1  0  0  0  0
 26 25  2  0  0  0  0
 27 25  1  0  0  0  0
 28 27  1  0  0  0  0
M  END
>  <MODEL>
9

>  <REMARK>
 VINA RESULT:      -7.3      3.398      6.660
  Name = 
  9 active torsions:
  status: ('A' for Active; 'I' for Inactive)
    1  A    between atoms: C_1  and  C_15
    2  A    between atoms: C_1  and  O_19
    3  A    between atoms: C_5  and  C_14
    4  A    between atoms: C_6  and  C_14
    5  A    between atoms: C_6  and  C_16
    6  A    between atoms: C_9  and  C_12
    7  A    between atoms: C_15  and  C_27
    8  A    between atoms: N_20  and  C_22
    9  A    between atoms: N_20  and  C_27
                            x       y       z     vdW  Elec       q    Type
                         _______ _______ _______ _____ _____    ______ ____

>  <TORSDO>
F 9

$$$$
