=
 OpenBabel11062413203D

 30 34  0  0  1  0  0  0  0  0999 V2000
  188.9950  176.0440  143.2180 C   0  0  0  0  0  1  0  0  0  0  0  0
  185.3940  178.4850  141.1120 C   0  0  0  0  0  0  0  0  0  0  0  0
  189.7940  176.2310  140.9370 N   0  0  0  0  0  2  0  0  0  0  0  0
  189.4310  178.6280  137.9060 C   0  0  0  0  0  1  0  0  0  0  0  0
  189.8100  176.7960  139.6150 C   0  0  0  0  0  0  0  0  0  0  0  0
  186.8090  178.4030  139.1500 C   0  0  0  0  0  3  0  0  0  0  0  0
  184.9790  178.6610  145.3180 O   0  0  0  0  0  1  0  0  0  0  0  0
  189.0730  178.3090  142.1970 C   0  0  0  0  0  2  0  0  0  0  0  0
  187.9550  178.3690  139.9580 C   0  0  0  0  0  0  0  0  0  0  0  0
  189.7380  176.9230  142.2320 C   0  0  0  0  0  0  0  0  0  0  0  0
  185.5400  178.4720  139.7230 C   0  0  0  0  0  3  0  0  0  0  0  0
  186.3960  178.4980  143.3550 C   0  0  0  0  0  3  0  0  0  0  0  0
  187.8250  178.3730  141.3590 C   0  0  0  0  0  0  0  0  0  0  0  0
  182.7240  178.7530  143.4490 N   0  0  0  0  0  0  0  0  0  0  0  0
  184.1380  178.5540  141.7330 C   0  0  0  0  0  0  0  0  0  0  0  0
  189.3320  178.2000  139.3690 C   0  0  2  0  0  3  0  0  0  0  0  0
  185.1230  178.5960  143.9380 C   0  0  0  0  0  0  0  0  0  0  0  0
  186.5480  178.4460  141.9470 C   0  0  2  0  0  3  0  0  0  0  0  0
  190.1640  176.0680  138.6500 O   0  0  0  0  0  0  0  0  0  0  0  0
  182.0060  178.7560  142.3320 N   0  0  0  0  0  0  0  0  0  0  0  0
  191.1540  177.1040  142.7420 C   0  0  0  0  0  1  0  0  0  0  0  0
  184.0160  178.6280  143.0950 C   0  0  0  0  0  0  0  0  0  0  0  0
  182.8350  178.6260  141.2710 C   0  0  0  0  0  0  0  0  0  0  0  0
  181.4050  178.5200  137.2430 C   0  0  0  0  0  3  0  0  0  0  0  0
  182.3610  178.5670  139.8800 C   0  0  0  0  0  0  0  0  0  0  0  0
  181.7290  177.3240  137.8900 C   0  0  0  0  0  3  0  0  0  0  0  0
  182.4750  176.1360  139.8450 O   0  0  0  0  0  1  0  0  0  0  0  0
  181.5420  179.7360  137.9160 C   0  0  0  0  0  3  0  0  0  0  0  0
  182.0130  179.7590  139.2320 C   0  0  0  0  0  3  0  0  0  0  0  0
  182.1960  177.3410  139.2080 C   0  0  0  0  0  0  0  0  0  0  0  0
  2 15  2  0  0  0  0
  2 18  1  0  0  0  0
  3 10  1  0  0  0  0
  5  3  1  0  0  0  0
  6 11  2  0  0  0  0
  6  9  1  0  0  0  0
  8 10  1  0  0  0  0
  9 13  2  0  0  0  0
 10 21  1  0  0  0  0
 10  1  1  0  0  0  0
 11  2  1  0  0  0  0
 12 17  2  0  0  0  0
 13 18  1  0  0  0  0
 13  8  1  0  0  0  0
 15 22  1  0  0  0  0
 16  4  1  6  0  0  0
 16  5  1  0  0  0  0
 16  9  1  0  0  0  0
 17  7  1  0  0  0  0
 18 12  1  6  0  0  0
 19  5  2  0  0  0  0
 20 14  1  0  0  0  0
 22 14  2  0  0  0  0
 22 17  1  0  0  0  0
 23 15  1  0  0  0  0
 23 20  2  0  0  0  0
 24 26  2  0  0  0  0
 24 28  1  0  0  0  0
 25 23  1  0  0  0  0
 26 30  1  0  0  0  0
 28 29  2  0  0  0  0
 29 25  1  0  0  0  0
 30 27  1  0  0  0  0
 30 25  2  0  0  0  0
M  END
>  <MODEL>
1

>  <REMARK>
 VINA RESULT:      -8.6      0.000      0.000
  Name = 
  1 active torsions:
  status: ('A' for Active; 'I' for Inactive)
    1  A    between atoms: C_7  and  C_30
                            x       y       z     vdW  Elec       q    Type
                         _______ _______ _______ _____ _____    ______ ____

>  <TORSDO>
F 1

$$$$
=
 OpenBabel11062413203D

 30 34  0  0  1  0  0  0  0  0999 V2000
  188.9230  176.3790  143.3640 C   0  0  0  0  0  1  0  0  0  0  0  0
  185.3030  178.4640  140.9340 C   0  0  0  0  0  0  0  0  0  0  0  0
  189.7860  176.3800  141.0980 N   0  0  0  0  0  2  0  0  0  0  0  0
  189.4310  178.4620  137.8430 C   0  0  0  0  0  1  0  0  0  0  0  0
  189.8230  176.8170  139.7300 C   0  0  0  0  0  0  0  0  0  0  0  0
  186.7810  178.2530  139.0290 C   0  0  0  0  0  3  0  0  0  0  0  0
  184.7490  179.0230  145.0900 O   0  0  0  0  0  1  0  0  0  0  0  0
  188.9490  178.5380  142.1330 C   0  0  0  0  0  2  0  0  0  0  0  0
  187.9020  178.3410  139.8680 C   0  0  0  0  0  0  0  0  0  0  0  0
  189.6640  177.1890  142.3190 C   0  0  0  0  0  0  0  0  0  0  0  0
  185.4930  178.3250  139.5560 C   0  0  0  0  0  3  0  0  0  0  0  0
  186.2330  178.7300  143.1920 C   0  0  0  0  0  3  0  0  0  0  0  0
  187.7270  178.4720  141.2580 C   0  0  0  0  0  0  0  0  0  0  0  0
  182.5530  178.8470  143.1590 N   0  0  0  0  0  0  0  0  0  0  0  0
  184.0260  178.5420  141.5100 C   0  0  0  0  0  0  0  0  0  0  0  0
  189.3020  178.1710  139.3360 C   0  0  2  0  0  3  0  0  0  0  0  0
  184.9390  178.8320  143.7270 C   0  0  0  0  0  0  0  0  0  0  0  0
  186.4300  178.5500  141.8010 C   0  0  2  0  0  3  0  0  0  0  0  0
  190.2340  176.0150  138.8500 O   0  0  0  0  0  0  0  0  0  0  0  0
  181.8700  178.7160  142.0270 N   0  0  0  0  0  0  0  0  0  0  0  0
  191.0550  177.4740  142.8480 C   0  0  0  0  0  1  0  0  0  0  0  0
  183.8580  178.7410  142.8550 C   0  0  0  0  0  0  0  0  0  0  0  0
  182.7360  178.5180  141.0070 C   0  0  0  0  0  0  0  0  0  0  0  0
  181.5340  177.8360  136.9610 C   0  0  0  0  0  3  0  0  0  0  0  0
  182.3090  178.3090  139.6150 C   0  0  0  0  0  0  0  0  0  0  0  0
  181.8170  179.1380  137.3850 C   0  0  0  0  0  3  0  0  0  0  0  0
  182.5260  180.6770  139.0930 O   0  0  0  0  0  1  0  0  0  0  0  0
  181.6540  176.7700  137.8550 C   0  0  0  0  0  3  0  0  0  0  0  0
  182.0460  177.0050  139.1770 C   0  0  0  0  0  3  0  0  0  0  0  0
  182.2130  179.3780  138.7040 C   0  0  0  0  0  0  0  0  0  0  0  0
  2 15  2  0  0  0  0
  2 18  1  0  0  0  0
  3 10  1  0  0  0  0
  5  3  1  0  0  0  0
  6 11  2  0  0  0  0
  6  9  1  0  0  0  0
  8 10  1  0  0  0  0
  9 13  2  0  0  0  0
 10 21  1  0  0  0  0
 10  1  1  0  0  0  0
 11  2  1  0  0  0  0
 12 17  2  0  0  0  0
 13 18  1  0  0  0  0
 13  8  1  0  0  0  0
 15 22  1  0  0  0  0
 16  4  1  6  0  0  0
 16  5  1  0  0  0  0
 16  9  1  0  0  0  0
 17  7  1  0  0  0  0
 18 12  1  6  0  0  0
 19  5  2  0  0  0  0
 20 14  1  0  0  0  0
 22 14  2  0  0  0  0
 22 17  1  0  0  0  0
 23 15  1  0  0  0  0
 23 20  2  0  0  0  0
 24 26  2  0  0  0  0
 24 28  1  0  0  0  0
 25 23  1  0  0  0  0
 26 30  1  0  0  0  0
 28 29  2  0  0  0  0
 29 25  1  0  0  0  0
 30 27  1  0  0  0  0
 30 25  2  0  0  0  0
M  END
>  <MODEL>
2

>  <REMARK>
 VINA RESULT:      -8.1      0.918      1.265
  Name = 
  1 active torsions:
  status: ('A' for Active; 'I' for Inactive)
    1  A    between atoms: C_7  and  C_30
                            x       y       z     vdW  Elec       q    Type
                         _______ _______ _______ _____ _____    ______ ____

>  <TORSDO>
F 1

$$$$
=
 OpenBabel11062413203D

 30 34  0  0  1  0  0  0  0  0999 V2000
  187.0350  175.4670  136.0550 C   0  0  0  0  0  1  0  0  0  0  0  0
  189.2090  177.7000  139.7500 C   0  0  0  0  0  0  0  0  0  0  0  0
  185.1420  176.3900  137.2580 N   0  0  0  0  0  2  0  0  0  0  0  0
  184.3430  179.3980  139.5750 C   0  0  0  0  0  1  0  0  0  0  0  0
  184.5170  177.2770  138.2000 C   0  0  0  0  0  0  0  0  0  0  0  0
  186.9650  178.3920  140.3370 C   0  0  0  0  0  3  0  0  0  0  0  0
  192.0700  176.6820  136.8050 O   0  0  0  0  0  1  0  0  0  0  0  0
  187.0610  177.8980  136.5740 C   0  0  0  0  0  2  0  0  0  0  0  0
  186.5810  178.3490  138.9890 C   0  0  0  0  0  0  0  0  0  0  0  0
  186.1630  176.6930  136.2460 C   0  0  0  0  0  0  0  0  0  0  0  0
  188.2710  178.0810  140.7130 C   0  0  0  0  0  3  0  0  0  0  0  0
  189.7990  177.2970  137.3990 C   0  0  0  0  0  3  0  0  0  0  0  0
  187.5120  177.9590  138.0080 C   0  0  0  0  0  0  0  0  0  0  0  0
  192.6660  176.8630  139.6670 N   0  0  0  0  0  0  0  0  0  0  0  0
  190.5340  177.3790  140.0800 C   0  0  0  0  0  0  0  0  0  0  0  0
  185.1550  178.5880  138.5660 C   0  0  2  0  0  3  0  0  0  0  0  0
  191.1230  177.0100  137.7670 C   0  0  0  0  0  0  0  0  0  0  0  0
  188.8340  177.6470  138.3760 C   0  0  0  0  0  0  0  0  0  0  0  0
  183.4580  176.9050  138.7720 O   0  0  0  0  0  0  0  0  0  0  0  0
  192.5390  177.0340  140.9790 N   0  0  0  0  0  2  0  0  0  0  0  0
  185.4680  176.9810  134.9310 C   0  0  0  0  0  1  0  0  0  0  0  0
  191.4570  177.0670  139.1170 C   0  0  0  0  0  0  0  0  0  0  0  0
  191.2520  177.3380  141.2630 C   0  0  0  0  0  0  0  0  0  0  0  0
  189.8920  178.0490  145.2530 C   0  0  0  0  0  3  0  0  0  0  0  0
  190.7610  177.5660  142.6310 C   0  0  0  0  0  0  0  0  0  0  0  0
  189.6770  176.7990  144.6660 C   0  0  0  0  0  3  0  0  0  0  0  0
  189.9260  175.2860  142.8120 O   0  0  0  0  0  1  0  0  0  0  0  0
  190.5540  179.0510  144.5410 C   0  0  0  0  0  3  0  0  0  0  0  0
  190.9930  178.8080  143.2360 C   0  0  0  0  0  3  0  0  0  0  0  0
  190.1160  176.5500  143.3620 C   0  0  0  0  0  0  0  0  0  0  0  0
  1 10  1  0  0  0  0
  2 15  1  0  0  0  0
  2 11  2  0  0  0  0
  3  5  1  0  0  0  0
  5 16  1  0  0  0  0
  5 19  2  0  0  0  0
  6 11  1  0  0  0  0
  7 17  1  0  0  0  0
  8 13  1  0  0  0  0
  9  6  2  0  0  0  0
 10  8  1  0  0  0  0
 10  3  1  0  0  0  0
 12 17  2  0  0  0  0
 12 18  1  0  0  0  0
 13 18  2  0  0  0  0
 13  9  1  0  0  0  0
 14 20  1  0  0  0  0
 15 23  2  0  0  0  0
 16  9  1  0  0  0  0
 16  4  1  1  0  0  0
 17 22  1  0  0  0  0
 18  2  1  0  0  0  0
 20 23  1  0  0  0  0
 21 10  1  0  0  0  0
 22 14  2  0  0  0  0
 22 15  1  0  0  0  0
 23 25  1  0  0  0  0
 25 29  2  0  0  0  0
 25 30  1  0  0  0  0
 26 24  1  0  0  0  0
 27 30  1  0  0  0  0
 28 24  2  0  0  0  0
 29 28  1  0  0  0  0
 30 26  2  0  0  0  0
M  END
>  <MODEL>
3

>  <REMARK>
 VINA RESULT:      -8.0      2.985      7.791
  Name = 
  1 active torsions:
  status: ('A' for Active; 'I' for Inactive)
    1  A    between atoms: C_7  and  C_30
                            x       y       z     vdW  Elec       q    Type
                         _______ _______ _______ _____ _____    ______ ____

>  <TORSDO>
F 1

$$$$
=
 OpenBabel11062413203D

 30 34  0  0  1  0  0  0  0  0999 V2000
  182.3360  176.6120  138.5340 C   0  0  0  0  0  1  0  0  0  0  0  0
  184.9180  178.5220  142.1460 C   0  0  0  0  0  0  0  0  0  0  0  0
  180.6290  176.9940  140.2130 N   0  0  0  0  0  2  0  0  0  0  0  0
  179.9430  179.3980  143.1810 C   0  0  0  0  0  1  0  0  0  0  0  0
  180.1030  177.5960  141.4080 C   0  0  0  0  0  0  0  0  0  0  0  0
  182.7730  178.7250  143.2500 C   0  0  0  0  0  3  0  0  0  0  0  0
  187.2170  178.5000  138.5950 O   0  0  0  0  0  1  0  0  0  0  0  0
  182.1540  178.8920  139.5080 C   0  0  0  0  0  2  0  0  0  0  0  0
  182.1280  178.8460  142.0100 C   0  0  0  0  0  0  0  0  0  0  0  0
  181.3720  177.6280  139.1140 C   0  0  0  0  0  0  0  0  0  0  0  0
  184.1580  178.5760  143.3170 C   0  0  0  0  0  3  0  0  0  0  0  0
  185.0570  178.6220  139.6960 C   0  0  0  0  0  3  0  0  0  0  0  0
  182.8790  178.7860  140.8220 C   0  0  0  0  0  0  0  0  0  0  0  0
  188.3620  178.2940  141.2840 N   0  0  0  0  0  0  0  0  0  0  0  0
  186.3130  178.3740  142.1640 C   0  0  0  0  0  0  0  0  0  0  0  0
  180.6270  178.9140  141.9040 C   0  0  2  0  0  3  0  0  0  0  0  0
  186.4540  178.5000  139.7570 C   0  0  0  0  0  0  0  0  0  0  0  0
  184.2780  178.6390  140.8780 C   0  0  0  0  0  0  0  0  0  0  0  0
  179.2410  176.9630  142.0740 O   0  0  0  0  0  0  0  0  0  0  0  0
  188.4870  178.2190  142.6050 N   0  0  0  0  0  2  0  0  0  0  0  0
  180.3880  178.0130  138.0280 C   0  0  0  0  0  1  0  0  0  0  0  0
  187.0490  178.3850  141.0100 C   0  0  0  0  0  0  0  0  0  0  0  0
  187.2580  178.2540  143.1690 C   0  0  0  0  0  0  0  0  0  0  0  0
  186.5850  178.0760  147.3870 C   0  0  0  0  0  3  0  0  0  0  0  0
  187.0350  178.1650  144.6200 C   0  0  0  0  0  0  0  0  0  0  0  0
  187.6290  177.3360  146.8250 C   0  0  0  0  0  3  0  0  0  0  0  0
  188.9320  176.6690  144.9150 O   0  0  0  0  0  1  0  0  0  0  0  0
  185.7780  178.8730  146.5730 C   0  0  0  0  0  3  0  0  0  0  0  0
  186.0060  178.9220  145.1940 C   0  0  0  0  0  3  0  0  0  0  0  0
  187.8640  177.3840  145.4480 C   0  0  0  0  0  0  0  0  0  0  0  0
  1 10  1  0  0  0  0
  2 15  1  0  0  0  0
  2 11  2  0  0  0  0
  3  5  1  0  0  0  0
  5 16  1  0  0  0  0
  5 19  2  0  0  0  0
  6 11  1  0  0  0  0
  7 17  1  0  0  0  0
  8 13  1  0  0  0  0
  9  6  2  0  0  0  0
 10  8  1  0  0  0  0
 10  3  1  0  0  0  0
 12 17  2  0  0  0  0
 12 18  1  0  0  0  0
 13 18  2  0  0  0  0
 13  9  1  0  0  0  0
 14 20  1  0  0  0  0
 15 23  2  0  0  0  0
 16  9  1  0  0  0  0
 16  4  1  1  0  0  0
 17 22  1  0  0  0  0
 18  2  1  0  0  0  0
 20 23  1  0  0  0  0
 21 10  1  0  0  0  0
 22 14  2  0  0  0  0
 22 15  1  0  0  0  0
 23 25  1  0  0  0  0
 25 29  2  0  0  0  0
 25 30  1  0  0  0  0
 26 24  1  0  0  0  0
 27 30  1  0  0  0  0
 28 24  2  0  0  0  0
 29 28  1  0  0  0  0
 30 26  2  0  0  0  0
M  END
>  <MODEL>
4

>  <REMARK>
 VINA RESULT:      -7.9      2.388      7.650
  Name = 
  1 active torsions:
  status: ('A' for Active; 'I' for Inactive)
    1  A    between atoms: C_7  and  C_30
                            x       y       z     vdW  Elec       q    Type
                         _______ _______ _______ _____ _____    ______ ____

>  <TORSDO>
F 1

$$$$
=
 OpenBabel11062413203D

 30 34  0  0  1  0  0  0  0  0999 V2000
  187.5180  175.9150  136.7990 C   0  0  0  0  0  1  0  0  0  0  0  0
  188.2720  177.7980  141.1860 C   0  0  0  0  0  0  0  0  0  0  0  0
  185.3250  176.7960  137.3420 N   0  0  0  0  0  2  0  0  0  0  0  0
  183.7690  179.6390  139.4760 C   0  0  0  0  0  1  0  0  0  0  0  0
  184.4110  177.6260  138.0790 C   0  0  0  0  0  0  0  0  0  0  0  0
  185.9630  178.5060  141.0150 C   0  0  0  0  0  3  0  0  0  0  0  0
  191.9780  176.9290  139.3420 O   0  0  0  0  0  1  0  0  0  0  0  0
  187.3610  178.2980  137.4910 C   0  0  0  0  0  2  0  0  0  0  0  0
  186.0720  178.5760  139.6180 C   0  0  0  0  0  0  0  0  0  0  0  0
  186.6340  177.1470  136.7750 C   0  0  0  0  0  0  0  0  0  0  0  0
  187.0580  178.1300  141.7930 C   0  0  0  0  0  3  0  0  0  0  0  0
  189.6420  177.5600  139.1620 C   0  0  0  0  0  3  0  0  0  0  0  0
  187.2850  178.2370  138.9920 C   0  0  0  0  0  0  0  0  0  0  0  0
  191.5430  176.8740  142.2390 N   0  0  0  0  0  0  0  0  0  0  0  0
  189.4000  177.4160  141.9280 C   0  0  0  0  0  0  0  0  0  0  0  0
  184.8810  178.8870  138.7480 C   0  0  2  0  0  3  0  0  0  0  0  0
  190.7560  177.2090  139.9400 C   0  0  0  0  0  0  0  0  0  0  0  0
  188.3980  177.8600  139.7690 C   0  0  0  0  0  0  0  0  0  0  0  0
  183.2200  177.2400  138.2160 O   0  0  0  0  0  0  0  0  0  0  0  0
  190.9680  176.9480  143.4340 N   0  0  0  0  0  2  0  0  0  0  0  0
  186.4380  177.5530  135.3290 C   0  0  0  0  0  1  0  0  0  0  0  0
  190.6000  177.1530  141.3220 C   0  0  0  0  0  0  0  0  0  0  0  0
  189.6620  177.2650  143.2790 C   0  0  0  0  0  0  0  0  0  0  0  0
  186.8820  177.6840  146.5000 C   0  0  0  0  0  3  0  0  0  0  0  0
  188.7260  177.4010  144.4060 C   0  0  0  0  0  0  0  0  0  0  0  0
  188.2230  178.0180  146.7020 C   0  0  0  0  0  3  0  0  0  0  0  0
  190.4680  178.2620  145.8720 O   0  0  0  0  0  1  0  0  0  0  0  0
  186.4560  177.2260  145.2510 C   0  0  0  0  0  3  0  0  0  0  0  0
  187.3750  177.0910  144.2050 C   0  0  0  0  0  3  0  0  0  0  0  0
  189.1460  177.8880  145.6590 C   0  0  0  0  0  0  0  0  0  0  0  0
  2 11  2  0  0  0  0
  2 15  1  0  0  0  0
  3  5  1  0  0  0  0
  5 19  2  0  0  0  0
  5 16  1  0  0  0  0
  6 11  1  0  0  0  0
  7 17  1  0  0  0  0
  8 13  1  0  0  0  0
  9  6  2  0  0  0  0
 10  1  1  0  0  0  0
 10  3  1  0  0  0  0
 10  8  1  0  0  0  0
 12 18  1  0  0  0  0
 12 17  2  0  0  0  0
 13  9  1  0  0  0  0
 13 18  2  0  0  0  0
 14 20  1  0  0  0  0
 15 23  2  0  0  0  0
 16  4  1  1  0  0  0
 16  9  1  0  0  0  0
 17 22  1  0  0  0  0
 18  2  1  0  0  0  0
 21 10  1  0  0  0  0
 22 15  1  0  0  0  0
 22 14  2  0  0  0  0
 23 20  1  0  0  0  0
 23 25  1  0  0  0  0
 24 26  1  0  0  0  0
 25 30  1  0  0  0  0
 28 24  2  0  0  0  0
 29 25  2  0  0  0  0
 29 28  1  0  0  0  0
 30 27  1  0  0  0  0
 30 26  2  0  0  0  0
M  END
>  <MODEL>
5

>  <REMARK>
 VINA RESULT:      -7.8      2.633      7.065
  Name = 
  1 active torsions:
  status: ('A' for Active; 'I' for Inactive)
    1  A    between atoms: C_7  and  C_30
                            x       y       z     vdW  Elec       q    Type
                         _______ _______ _______ _____ _____    ______ ____

>  <TORSDO>
F 1

$$$$
=
 OpenBabel11062413203D

 30 34  0  0  1  0  0  0  0  0999 V2000
  187.2150  176.8960  144.3530 C   0  0  0  0  0  1  0  0  0  0  0  0
  187.9340  177.7880  139.6580 C   0  0  0  0  0  0  0  0  0  0  0  0
  189.5640  176.3500  144.1010 N   0  0  0  0  0  2  0  0  0  0  0  0
  192.5730  177.3680  141.8720 C   0  0  0  0  0  1  0  0  0  0  0  0
  190.8330  176.3820  143.4270 C   0  0  0  0  0  0  0  0  0  0  0  0
  190.2340  177.2100  140.1480 C   0  0  0  0  0  3  0  0  0  0  0  0
  184.2370  179.4400  140.8810 O   0  0  0  0  0  1  0  0  0  0  0  0
  188.7020  178.6060  143.3290 C   0  0  0  0  0  2  0  0  0  0  0  0
  190.0810  177.6570  141.4680 C   0  0  0  0  0  0  0  0  0  0  0  0
  188.6250  177.4540  144.3460 C   0  0  0  0  0  0  0  0  0  0  0  0
  189.1720  177.2860  139.2470 C   0  0  0  0  0  3  0  0  0  0  0  0
  186.5170  178.7870  141.3970 C   0  0  0  0  0  3  0  0  0  0  0  0
  188.8390  178.1580  141.8990 C   0  0  0  0  0  0  0  0  0  0  0  0
  184.7780  178.4780  138.1670 N   0  0  0  0  0  0  0  0  0  0  0  0
  186.8380  177.8840  138.7870 C   0  0  0  0  0  0  0  0  0  0  0  0
  191.1810  177.5010  142.4860 C   0  0  2  0  0  3  0  0  0  0  0  0
  185.4520  178.8920  140.4890 C   0  0  0  0  0  0  0  0  0  0  0  0
  187.7620  178.2420  140.9970 C   0  0  2  0  0  3  0  0  0  0  0  0
  191.6240  175.4140  143.5820 O   0  0  0  0  0  0  0  0  0  0  0  0
  185.3840  177.9560  137.1060 N   0  0  0  0  0  0  0  0  0  0  0  0
  188.9070  178.0300  145.7180 C   0  0  0  0  0  1  0  0  0  0  0  0
  185.6510  178.4360  139.1890 C   0  0  0  0  0  0  0  0  0  0  0  0
  186.6350  177.5740  137.4530 C   0  0  0  0  0  0  0  0  0  0  0  0
  189.3380  175.7680  134.6780 C   0  0  0  0  0  3  0  0  0  0  0  0
  187.5700  176.9320  136.5170 C   0  0  0  0  0  0  0  0  0  0  0  0
  188.5590  174.9560  135.5060 C   0  0  0  0  0  3  0  0  0  0  0  0
  186.8750  174.7030  137.2060 O   0  0  0  0  0  1  0  0  0  0  0  0
  189.2240  177.1580  134.7540 C   0  0  0  0  0  3  0  0  0  0  0  0
  188.3380  177.7370  135.6670 C   0  0  0  0  0  3  0  0  0  0  0  0
  187.6690  175.5310  136.4180 C   0  0  0  0  0  0  0  0  0  0  0  0
  2 18  1  0  0  0  0
  3 10  1  0  0  0  0
  5 19  2  0  0  0  0
  5  3  1  0  0  0  0
  6  9  1  0  0  0  0
  8 10  1  0  0  0  0
  9 13  2  0  0  0  0
  9 16  1  0  0  0  0
 10  1  1  0  0  0  0
 10 21  1  0  0  0  0
 11  2  1  0  0  0  0
 11  6  2  0  0  0  0
 13  8  1  0  0  0  0
 14 22  2  0  0  0  0
 15 22  1  0  0  0  0
 15  2  2  0  0  0  0
 16  4  1  6  0  0  0
 16  5  1  0  0  0  0
 17  7  1  0  0  0  0
 17 12  2  0  0  0  0
 18 12  1  6  0  0  0
 18 13  1  0  0  0  0
 20 23  2  0  0  0  0
 20 14  1  0  0  0  0
 22 17  1  0  0  0  0
 23 15  1  0  0  0  0
 24 28  2  0  0  0  0
 24 26  1  0  0  0  0
 25 23  1  0  0  0  0
 26 30  2  0  0  0  0
 28 29  1  0  0  0  0
 29 25  2  0  0  0  0
 30 25  1  0  0  0  0
 30 27  1  0  0  0  0
M  END
>  <MODEL>
6

>  <REMARK>
 VINA RESULT:      -7.6      2.941      4.903
  Name = 
  1 active torsions:
  status: ('A' for Active; 'I' for Inactive)
    1  A    between atoms: C_7  and  C_30
                            x       y       z     vdW  Elec       q    Type
                         _______ _______ _______ _____ _____    ______ ____

>  <TORSDO>
F 1

$$$$
=
 OpenBabel11062413203D

 30 34  0  0  1  0  0  0  0  0999 V2000
  187.3540  176.7530  144.9460 C   0  0  0  0  0  1  0  0  0  0  0  0
  187.5470  178.0470  140.2930 C   0  0  0  0  0  0  0  0  0  0  0  0
  189.6740  176.3000  144.4030 N   0  0  0  0  0  2  0  0  0  0  0  0
  192.4040  177.5870  141.9640 C   0  0  0  0  0  1  0  0  0  0  0  0
  190.8620  176.4250  143.6040 C   0  0  0  0  0  0  0  0  0  0  0  0
  189.8970  177.5000  140.4880 C   0  0  0  0  0  3  0  0  0  0  0  0
  183.9670  179.4800  142.0330 O   0  0  0  0  0  1  0  0  0  0  0  0
  188.6860  178.5840  143.9190 C   0  0  0  0  0  2  0  0  0  0  0  0
  189.8780  177.8330  141.8500 C   0  0  0  0  0  0  0  0  0  0  0  0
  188.7430  177.3510  144.8370 C   0  0  0  0  0  0  0  0  0  0  0  0
  188.7430  177.6170  139.7130 C   0  0  0  0  0  3  0  0  0  0  0  0
  186.3030  178.8560  142.2500 C   0  0  0  0  0  3  0  0  0  0  0  0
  188.6790  178.2590  142.4500 C   0  0  0  0  0  0  0  0  0  0  0  0
  184.2350  178.7600  139.2060 N   0  0  0  0  0  0  0  0  0  0  0  0
  186.3620  178.1800  139.5540 C   0  0  0  0  0  0  0  0  0  0  0  0
  191.0830  177.6280  142.7300 C   0  0  2  0  0  3  0  0  0  0  0  0
  185.1450  179.0030  141.4700 C   0  0  0  0  0  0  0  0  0  0  0  0
  187.5090  178.3840  141.6760 C   0  0  2  0  0  3  0  0  0  0  0  0
  191.6860  175.4720  143.5930 O   0  0  0  0  0  0  0  0  0  0  0  0
  184.7340  178.3450  138.0470 N   0  0  0  0  0  0  0  0  0  0  0  0
  189.1580  177.8220  146.2160 C   0  0  0  0  0  1  0  0  0  0  0  0
  185.2130  178.6610  140.1230 C   0  0  0  0  0  0  0  0  0  0  0  0
  186.0230  177.9740  138.2270 C   0  0  0  0  0  0  0  0  0  0  0  0
  188.4780  176.3450  135.1290 C   0  0  0  0  0  3  0  0  0  0  0  0
  186.8660  177.4390  137.1470 C   0  0  0  0  0  0  0  0  0  0  0  0
  188.6120  177.6920  135.4760 C   0  0  0  0  0  3  0  0  0  0  0  0
  187.9960  179.5730  136.8430 O   0  0  0  0  0  1  0  0  0  0  0  0
  187.5530  175.5400  135.7990 C   0  0  0  0  0  3  0  0  0  0  0  0
  186.7540  176.0850  136.8080 C   0  0  0  0  0  3  0  0  0  0  0  0
  187.8180  178.2400  136.4880 C   0  0  0  0  0  0  0  0  0  0  0  0
  2 18  1  0  0  0  0
  3 10  1  0  0  0  0
  5  3  1  0  0  0  0
  6  9  1  0  0  0  0
  8 10  1  0  0  0  0
  9 13  2  0  0  0  0
  9 16  1  0  0  0  0
 10  1  1  0  0  0  0
 10 21  1  0  0  0  0
 11  2  1  0  0  0  0
 11  6  2  0  0  0  0
 13  8  1  0  0  0  0
 14 22  2  0  0  0  0
 15 22  1  0  0  0  0
 15  2  2  0  0  0  0
 16  4  1  6  0  0  0
 16  5  1  0  0  0  0
 17  7  1  0  0  0  0
 17 12  2  0  0  0  0
 18 12  1  6  0  0  0
 18 13  1  0  0  0  0
 19  5  2  0  0  0  0
 20 23  2  0  0  0  0
 20 14  1  0  0  0  0
 22 17  1  0  0  0  0
 23 15  1  0  0  0  0
 24 26  2  0  0  0  0
 24 28  1  0  0  0  0
 25 23  1  0  0  0  0
 26 30  1  0  0  0  0
 28 29  2  0  0  0  0
 29 25  1  0  0  0  0
 30 27  1  0  0  0  0
 30 25  2  0  0  0  0
M  END
>  <MODEL>
7

>  <REMARK>
 VINA RESULT:      -7.3      2.719      4.508
  Name = 
  1 active torsions:
  status: ('A' for Active; 'I' for Inactive)
    1  A    between atoms: C_7  and  C_30
                            x       y       z     vdW  Elec       q    Type
                         _______ _______ _______ _____ _____    ______ ____

>  <TORSDO>
F 1

$$$$
=
 OpenBabel11062413203D

 30 34  0  0  1  0  0  0  0  0999 V2000
  185.9690  177.1520  143.3890 C   0  0  0  0  0  1  0  0  0  0  0  0
  189.4340  177.3490  140.0260 C   0  0  0  0  0  0  0  0  0  0  0  0
  187.9770  177.0020  144.7400 N   0  0  0  0  0  2  0  0  0  0  0  0
  191.6810  178.1520  144.5980 C   0  0  0  0  0  1  0  0  0  0  0  0
  189.3860  177.1470  144.9800 C   0  0  0  0  0  0  0  0  0  0  0  0
  190.9410  177.2860  141.9200 C   0  0  0  0  0  3  0  0  0  0  0  0
  185.7280  178.4920  138.3350 O   0  0  0  0  0  1  0  0  0  0  0  0
  187.7080  178.9020  143.0830 C   0  0  0  0  0  2  0  0  0  0  0  0
  189.9800  177.9160  142.7250 C   0  0  0  0  0  0  0  0  0  0  0  0
  187.0530  177.9440  144.0930 C   0  0  0  0  0  0  0  0  0  0  0  0
  190.6730  177.0150  140.5780 C   0  0  0  0  0  3  0  0  0  0  0  0
  187.2060  178.3570  140.2560 C   0  0  0  0  0  3  0  0  0  0  0  0
  188.7250  178.2510  142.1860 C   0  0  0  0  0  0  0  0  0  0  0  0
  187.8810  177.1970  136.8280 N   0  0  0  0  0  0  0  0  0  0  0  0
  189.1200  177.0970  138.6820 C   0  0  0  0  0  0  0  0  0  0  0  0
  190.2060  178.1350  144.1990 C   0  0  2  0  0  3  0  0  0  0  0  0
  186.9400  178.1130  138.9000 C   0  0  0  0  0  0  0  0  0  0  0  0
  188.4460  177.9850  140.8310 C   0  0  2  0  0  3  0  0  0  0  0  0
  189.9400  176.3780  145.8100 O   0  0  0  0  0  0  0  0  0  0  0  0
  189.0350  176.6200  136.5110 N   0  0  0  0  0  0  0  0  0  0  0  0
  186.3940  178.7860  145.1660 C   0  0  0  0  0  1  0  0  0  0  0  0
  187.9240  177.4870  138.1400 C   0  0  0  0  0  0  0  0  0  0  0  0
  189.8070  176.5340  137.6190 C   0  0  0  0  0  0  0  0  0  0  0  0
  193.7210  174.8150  137.5870 C   0  0  0  0  0  3  0  0  0  0  0  0
  191.1440  175.9210  137.6250 C   0  0  0  0  0  0  0  0  0  0  0  0
  192.6020  173.9780  137.5850 C   0  0  0  0  0  3  0  0  0  0  0  0
  190.2160  173.6720  137.5510 O   0  0  0  0  0  1  0  0  0  0  0  0
  193.5550  176.2020  137.5910 C   0  0  0  0  0  3  0  0  0  0  0  0
  192.2700  176.7530  137.6040 C   0  0  0  0  0  3  0  0  0  0  0  0
  191.3150  174.5240  137.5930 C   0  0  0  0  0  0  0  0  0  0  0  0
  1 10  1  0  0  0  0
  2 11  1  0  0  0  0
  2 18  1  0  0  0  0
  3  5  1  0  0  0  0
  5 19  2  0  0  0  0
  6  9  1  0  0  0  0
  7 17  1  0  0  0  0
  8 10  1  0  0  0  0
  9 16  1  0  0  0  0
 10  3  1  0  0  0  0
 10 21  1  0  0  0  0
 11  6  2  0  0  0  0
 13  9  2  0  0  0  0
 13  8  1  0  0  0  0
 14 22  2  0  0  0  0
 15  2  2  0  0  0  0
 16  4  1  6  0  0  0
 16  5  1  0  0  0  0
 17 12  2  0  0  0  0
 18 12  1  6  0  0  0
 18 13  1  0  0  0  0
 20 14  1  0  0  0  0
 20 23  2  0  0  0  0
 22 15  1  0  0  0  0
 22 17  1  0  0  0  0
 23 25  1  0  0  0  0
 23 15  1  0  0  0  0
 24 28  1  0  0  0  0
 26 24  2  0  0  0  0
 26 30  1  0  0  0  0
 27 30  1  0  0  0  0
 28 29  2  0  0  0  0
 29 25  1  0  0  0  0
 30 25  2  0  0  0  0
M  END
>  <MODEL>
8

>  <REMARK>
 VINA RESULT:      -7.2      3.540      7.160
  Name = 
  1 active torsions:
  status: ('A' for Active; 'I' for Inactive)
    1  A    between atoms: C_7  and  C_30
                            x       y       z     vdW  Elec       q    Type
                         _______ _______ _______ _____ _____    ______ ____

>  <TORSDO>
F 1

$$$$
=
 OpenBabel11062413203D

 30 34  0  0  1  0  0  0  0  0999 V2000
  184.0980  177.9460  145.9740 C   0  0  0  0  0  1  0  0  0  0  0  0
  182.4830  178.2580  141.4290 C   0  0  0  0  0  0  0  0  0  0  0  0
  186.1250  177.5560  144.7020 N   0  0  0  0  0  2  0  0  0  0  0  0
  187.6310  178.4990  141.2520 C   0  0  0  0  0  1  0  0  0  0  0  0
  186.9330  177.5960  143.5140 C   0  0  0  0  0  0  0  0  0  0  0  0
  184.8070  177.9310  140.8370 C   0  0  0  0  0  3  0  0  0  0  0  0
  179.5640  179.7640  144.0950 O   0  0  0  0  0  1  0  0  0  0  0  0
  184.7200  179.6150  144.2390 C   0  0  0  0  0  2  0  0  0  0  0  0
  185.2150  178.5370  142.0340 C   0  0  0  0  0  0  0  0  0  0  0  0
  185.2640  178.6060  145.2650 C   0  0  0  0  0  0  0  0  0  0  0  0
  183.4530  177.8030  140.5320 C   0  0  0  0  0  3  0  0  0  0  0  0
  181.8930  179.3650  143.5410 C   0  0  0  0  0  3  0  0  0  0  0  0
  184.2500  178.9930  142.9520 C   0  0  0  0  0  0  0  0  0  0  0  0
  178.9340  178.4940  141.5300 N   0  0  0  0  0  0  0  0  0  0  0  0
  181.1090  178.1510  141.1660 C   0  0  0  0  0  0  0  0  0  0  0  0
  186.6660  178.6040  142.4310 C   0  0  2  0  0  3  0  0  0  0  0  0
  180.5290  179.2650  143.2280 C   0  0  0  0  0  0  0  0  0  0  0  0
  182.8800  178.8710  142.6520 C   0  0  2  0  0  3  0  0  0  0  0  0
  187.8280  176.7230  143.3620 O   0  0  0  0  0  0  0  0  0  0  0  0
  179.0550  177.8840  140.3570 N   0  0  0  0  0  0  0  0  0  0  0  0
  186.0610  179.3810  146.2950 C   0  0  0  0  0  1  0  0  0  0  0  0
  180.1730  178.6570  142.0270 C   0  0  0  0  0  0  0  0  0  0  0  0
  180.3640  177.6510  140.1100 C   0  0  0  0  0  0  0  0  0  0  0  0
  181.7290  175.7120  136.5540 C   0  0  0  0  0  3  0  0  0  0  0  0
  180.8480  176.9640  138.9030 C   0  0  0  0  0  0  0  0  0  0  0  0
  181.4210  174.9450  137.6800 C   0  0  0  0  0  3  0  0  0  0  0  0
  180.6340  174.7760  139.9470 O   0  0  0  0  0  1  0  0  0  0  0  0
  181.5820  177.1000  136.5930 C   0  0  0  0  0  3  0  0  0  0  0  0
  181.1370  177.7230  137.7620 C   0  0  0  0  0  3  0  0  0  0  0  0
  180.9720  175.5630  138.8510 C   0  0  0  0  0  0  0  0  0  0  0  0
  2 18  1  0  0  0  0
  3 10  1  0  0  0  0
  5  3  1  0  0  0  0
  6  9  1  0  0  0  0
  8 10  1  0  0  0  0
  9 16  1  0  0  0  0
  9 13  2  0  0  0  0
 10  1  1  0  0  0  0
 10 21  1  0  0  0  0
 11  6  2  0  0  0  0
 11  2  1  0  0  0  0
 13  8  1  0  0  0  0
 14 22  2  0  0  0  0
 15  2  2  0  0  0  0
 15 22  1  0  0  0  0
 16  4  1  6  0  0  0
 16  5  1  0  0  0  0
 17 12  2  0  0  0  0
 17  7  1  0  0  0  0
 18 13  1  0  0  0  0
 18 12  1  6  0  0  0
 19  5  2  0  0  0  0
 20 14  1  0  0  0  0
 22 17  1  0  0  0  0
 23 20  2  0  0  0  0
 23 15  1  0  0  0  0
 24 28  2  0  0  0  0
 24 26  1  0  0  0  0
 25 23  1  0  0  0  0
 26 30  2  0  0  0  0
 28 29  1  0  0  0  0
 29 25  2  0  0  0  0
 30 25  1  0  0  0  0
 30 27  1  0  0  0  0
M  END
>  <MODEL>
9

>  <REMARK>
 VINA RESULT:      -7.1      2.580      4.074
  Name = 
  1 active torsions:
  status: ('A' for Active; 'I' for Inactive)
    1  A    between atoms: C_7  and  C_30
                            x       y       z     vdW  Elec       q    Type
                         _______ _______ _______ _____ _____    ______ ____

>  <TORSDO>
F 1

$$$$
