=
 OpenBabel11062414433D

 27 31  0  0  1  0  0  0  0  0999 V2000
  185.8350  178.1830  144.7730 C   0  0  0  0  0  3  0  0  0  0  0  0
  187.6670  178.5400  141.2080 C   0  0  0  0  0  3  0  0  0  0  0  0
  188.1480  177.6740  142.1150 C   0  0  0  0  0  0  0  0  0  0  0  0
  188.1580  178.0530  147.6780 C   0  0  0  0  0  3  0  0  0  0  0  0
  184.1830  179.1170  142.4740 O   0  0  0  0  0  1  0  0  0  0  0  0
  187.8450  177.0530  145.5590 C   0  0  0  0  0  0  0  0  0  0  0  0
  190.5950  177.4060  144.7190 C   0  0  2  0  0  3  0  0  0  0  0  0
  189.9720  178.1100  145.9390 C   0  0  0  0  0  2  0  0  0  0  0  0
  186.7070  177.6630  145.8440 C   0  0  0  0  0  0  0  0  0  0  0  0
  186.2310  178.9460  141.2840 C   0  0  0  0  0  3  0  0  0  0  0  0
  187.2770  177.0170  143.1190 C   0  0  0  0  0  0  0  0  0  0  0  0
  188.8800  177.2570  146.5860 C   0  0  1  0  0  3  0  0  0  0  0  0
  186.1340  177.9370  143.4930 C   0  0  0  0  0  0  0  0  0  0  0  0
  189.5300  177.5180  142.4360 N   0  0  0  0  0  0  0  0  0  0  0  0
  185.4980  178.6730  142.3810 C   0  0  1  0  0  3  0  0  0  0  0  0
  189.5900  176.7830  143.7110 C   0  0  2  0  0  3  0  0  0  0  0  0
  186.7090  178.2130  147.2180 C   0  0  0  0  0  3  0  0  0  0  0  0
  188.2020  176.7360  144.2090 N   0  0  0  0  0  0  0  0  0  0  0  0
  192.1800  176.4810  146.4100 O   0  0  0  0  0  1  0  0  0  0  0  0
  191.5980  176.3830  145.1530 C   0  0  0  0  0  0  0  0  0  0  0  0
  191.9190  175.4330  144.3920 O   0  0  0  0  0  0  0  0  0  0  0  0
  191.9690  177.6690  141.9670 C   0  0  0  0  0  1  0  0  0  0  0  0
  190.5600  177.5110  141.3930 C   0  0  1  0  0  3  0  0  0  0  0  0
  190.5830  176.3130  139.1600 C   0  0  0  0  0  0  0  0  0  0  0  0
  190.4520  176.2890  140.5850 N   0  0  0  0  0  2  0  0  0  0  0  0
  190.2650  175.1860  138.4150 O   0  0  0  0  0  0  0  0  0  0  0  0
  190.9430  177.3720  138.5710 O   0  0  0  0  0  1  0  0  0  0  0  0
  1  9  1  0  0  0  0
  2 10  2  0  0  0  0
  2  3  1  0  0  0  0
  3 14  1  0  0  0  0
  3 11  2  0  0  0  0
  6  9  2  0  0  0  0
  6 12  1  0  0  0  0
  7 20  1  1  0  0  0
  7  8  1  0  0  0  0
  9 17  1  0  0  0  0
 10 15  1  0  0  0  0
 11 13  1  0  0  0  0
 11 18  1  0  0  0  0
 12  8  1  6  0  0  0
 12  4  1  0  0  0  0
 13  1  2  0  0  0  0
 15  5  1  1  0  0  0
 15 13  1  0  0  0  0
 16 14  1  6  0  0  0
 16 18  1  0  0  0  0
 16  7  1  0  0  0  0
 17  4  2  0  0  0  0
 18  6  1  0  0  0  0
 20 19  1  0  0  0  0
 21 20  2  0  0  0  0
 23 22  1  1  0  0  0
 23 14  1  0  0  0  0
 24 25  1  0  0  0  0
 25 23  1  0  0  0  0
 26 24  2  0  0  0  0
 27 24  1  0  0  0  0
M  END
>  <MODEL>
1

>  <REMARK>
 VINA RESULT:     -10.0      0.000      0.000
  Name = 
  3 active torsions:
  status: ('A' for Active; 'I' for Inactive)
    1  A    between atoms: C_10  and  N_11
    2  A    between atoms: C_10  and  N_23
    3  A    between atoms: C_12  and  C_13
                            x       y       z     vdW  Elec       q    Type
                         _______ _______ _______ _____ _____    ______ ____

>  <TORSDO>
F 3

$$$$
=
 OpenBabel11062414433D

 27 31  0  0  1  0  0  0  0  0999 V2000
  187.4750  177.6130  146.4710 C   0  0  0  0  0  3  0  0  0  0  0  0
  185.0830  179.0970  143.5940 C   0  0  0  0  0  3  0  0  0  0  0  0
  186.0410  178.2130  143.2680 C   0  0  0  0  0  0  0  0  0  0  0  0
  191.0770  177.4840  145.5460 C   0  0  0  0  0  3  0  0  0  0  0  0
  184.7660  178.5490  147.2920 O   0  0  0  0  0  1  0  0  0  0  0  0
  188.9610  176.8750  144.6880 C   0  0  0  0  0  0  0  0  0  0  0  0
  189.4150  178.0430  142.0760 C   0  0  2  0  0  3  0  0  0  0  0  0
  190.2980  178.3210  143.3070 C   0  0  0  0  0  2  0  0  0  0  0  0
  188.7740  177.1210  145.9730 C   0  0  0  0  0  0  0  0  0  0  0  0
  184.5640  179.1180  144.9960 C   0  0  0  0  0  3  0  0  0  0  0  0
  186.5190  177.1800  144.2180 C   0  0  2  0  0  3  0  0  0  0  0  0
  190.3460  177.1180  144.2510 C   0  0  1  0  0  3  0  0  0  0  0  0
  186.4340  177.7030  145.6370 C   0  0  0  0  0  0  0  0  0  0  0  0
  186.9120  178.3380  142.1440 N   0  0  0  0  0  0  0  0  0  0  0  0
  185.2150  178.4660  145.9780 C   0  0  0  0  0  0  0  0  0  0  0  0
  188.0300  177.4040  142.3680 C   0  0  2  0  0  3  0  0  0  0  0  0
  190.0520  177.3740  146.6750 C   0  0  0  0  0  3  0  0  0  0  0  0
  187.8770  176.9250  143.7550 N   0  0  0  0  0  0  0  0  0  0  0  0
  190.6880  177.8490  139.9380 O   0  0  0  0  0  0  0  0  0  0  0  0
  190.1610  177.2300  141.0630 C   0  0  0  0  0  0  0  0  0  0  0  0
  190.3170  175.9910  141.2210 O   0  0  0  0  0  1  0  0  0  0  0  0
  187.2360  178.2160  139.6810 C   0  0  0  0  0  1  0  0  0  0  0  0
  186.4160  178.7860  140.8400 C   0  0  1  0  0  3  0  0  0  0  0  0
  184.1040  179.2520  139.9160 C   0  0  0  0  0  0  0  0  0  0  0  0
  184.9940  178.4500  140.6970 N   0  0  0  0  0  2  0  0  0  0  0  0
  182.7350  179.0310  139.9750 O   0  0  0  0  0  1  0  0  0  0  0  0
  184.5550  180.1950  139.2030 O   0  0  0  0  0  0  0  0  0  0  0  0
  2 10  1  0  0  0  0
  3  2  2  0  0  0  0
  4 17  2  0  0  0  0
  6  9  2  0  0  0  0
  7 20  1  6  0  0  0
  7 16  1  0  0  0  0
  7  8  1  0  0  0  0
  9  1  1  0  0  0  0
  9 17  1  0  0  0  0
 10 15  2  0  0  0  0
 11  3  1  6  0  0  0
 11 13  1  0  0  0  0
 12  8  1  6  0  0  0
 12  6  1  0  0  0  0
 12  4  1  0  0  0  0
 13 15  1  0  0  0  0
 13  1  2  0  0  0  0
 14  3  1  0  0  0  0
 15  5  1  0  0  0  0
 16 14  1  1  0  0  0
 16 18  1  0  0  0  0
 18 11  1  0  0  0  0
 18  6  1  0  0  0  0
 19 20  2  0  0  0  0
 20 21  1  0  0  0  0
 23 22  1  6  0  0  0
 23 14  1  0  0  0  0
 24 26  1  0  0  0  0
 24 25  1  0  0  0  0
 25 23  1  0  0  0  0
 27 24  2  0  0  0  0
M  END
>  <MODEL>
2

>  <REMARK>
 VINA RESULT:      -9.7      2.062      4.248
  Name = 
  3 active torsions:
  status: ('A' for Active; 'I' for Inactive)
    1  A    between atoms: C_10  and  N_11
    2  A    between atoms: C_10  and  N_23
    3  A    between atoms: C_12  and  C_13
                            x       y       z     vdW  Elec       q    Type
                         _______ _______ _______ _____ _____    ______ ____

>  <TORSDO>
F 3

$$$$
=
 OpenBabel11062414433D

 27 31  0  0  1  0  0  0  0  0999 V2000
  185.9430  178.4100  146.6210 C   0  0  0  0  0  3  0  0  0  0  0  0
  185.9840  178.6450  142.6040 C   0  0  0  0  0  3  0  0  0  0  0  0
  186.7900  177.7660  143.2230 C   0  0  0  0  0  0  0  0  0  0  0  0
  189.3190  178.1990  148.1740 C   0  0  0  0  0  3  0  0  0  0  0  0
  183.4690  179.3970  145.2830 O   0  0  0  0  0  1  0  0  0  0  0  0
  188.0480  177.1950  146.4520 C   0  0  0  0  0  0  0  0  0  0  0  0
  190.1350  177.4090  144.4560 C   0  0  2  0  0  3  0  0  0  0  0  0
  190.1550  178.1540  145.8040 C   0  0  0  0  0  2  0  0  0  0  0  0
  187.1830  177.8600  147.2000 C   0  0  0  0  0  0  0  0  0  0  0  0
  184.7530  179.1180  143.3050 C   0  0  0  0  0  3  0  0  0  0  0  0
  186.4400  177.1610  144.5310 C   0  0  2  0  0  3  0  0  0  0  0  0
  189.4420  177.3600  146.8980 C   0  0  1  0  0  3  0  0  0  0  0  0
  185.6240  178.1370  145.3510 C   0  0  0  0  0  0  0  0  0  0  0  0
  188.1610  177.5490  142.8930 N   0  0  0  0  0  0  0  0  0  0  0  0
  184.5830  178.8910  144.6220 C   0  0  0  0  0  0  0  0  0  0  0  0
  188.7620  176.8250  144.0270 C   0  0  2  0  0  3  0  0  0  0  0  0
  187.8250  178.4220  148.4100 C   0  0  0  0  0  3  0  0  0  0  0  0
  187.7460  176.8480  145.0970 N   0  0  0  0  0  0  0  0  0  0  0  0
  192.0590  176.2060  145.4950 O   0  0  0  0  0  1  0  0  0  0  0  0
  191.1880  176.3450  144.4230 C   0  0  0  0  0  0  0  0  0  0  0  0
  191.2900  175.5710  143.4350 O   0  0  0  0  0  0  0  0  0  0  0  0
  187.7400  178.3330  140.5690 C   0  0  0  0  0  1  0  0  0  0  0  0
  188.6090  177.4830  141.4990 C   0  0  1  0  0  3  0  0  0  0  0  0
  190.9430  177.1660  140.5660 C   0  0  0  0  0  0  0  0  0  0  0  0
  190.0220  177.8710  141.4030 N   0  0  0  0  0  2  0  0  0  0  0  0
  192.3040  177.4210  140.6610 O   0  0  0  0  0  1  0  0  0  0  0  0
  190.5270  176.2760  139.7690 O   0  0  0  0  0  0  0  0  0  0  0  0
  1  9  1  0  0  0  0
  2  3  2  0  0  0  0
  2 10  1  0  0  0  0
  4 17  2  0  0  0  0
  6 12  1  0  0  0  0
  6  9  2  0  0  0  0
  7 20  1  1  0  0  0
  7  8  1  0  0  0  0
  9 17  1  0  0  0  0
 10 15  2  0  0  0  0
 11  3  1  6  0  0  0
 11 18  1  0  0  0  0
 11 13  1  0  0  0  0
 12  8  1  6  0  0  0
 12  4  1  0  0  0  0
 13  1  2  0  0  0  0
 14  3  1  0  0  0  0
 15  5  1  0  0  0  0
 15 13  1  0  0  0  0
 16 14  1  6  0  0  0
 16  7  1  0  0  0  0
 16 18  1  0  0  0  0
 18  6  1  0  0  0  0
 20 19  1  0  0  0  0
 21 20  2  0  0  0  0
 23 22  1  6  0  0  0
 23 14  1  0  0  0  0
 24 26  1  0  0  0  0
 24 25  1  0  0  0  0
 25 23  1  0  0  0  0
 27 24  2  0  0  0  0
M  END
>  <MODEL>
3

>  <REMARK>
 VINA RESULT:      -9.6      1.223      1.931
  Name = 
  3 active torsions:
  status: ('A' for Active; 'I' for Inactive)
    1  A    between atoms: C_10  and  N_11
    2  A    between atoms: C_10  and  N_23
    3  A    between atoms: C_12  and  C_13
                            x       y       z     vdW  Elec       q    Type
                         _______ _______ _______ _____ _____    ______ ____

>  <TORSDO>
F 3

$$$$
=
 OpenBabel11062414433D

 27 31  0  0  1  0  0  0  0  0999 V2000
  185.3640  178.3130  142.8760 C   0  0  0  0  0  3  0  0  0  0  0  0
  189.2400  178.5410  141.8150 C   0  0  0  0  0  3  0  0  0  0  0  0
  188.8950  177.8570  142.9190 C   0  0  0  0  0  0  0  0  0  0  0  0
  184.7410  178.8340  146.5080 C   0  0  0  0  0  3  0  0  0  0  0  0
  185.9690  178.7430  139.9890 O   0  0  0  0  0  1  0  0  0  0  0  0
  186.1310  177.5760  145.0680 C   0  0  0  0  0  0  0  0  0  0  0  0
  188.5820  178.2290  146.4680 C   0  0  2  0  0  3  0  0  0  0  0  0
  187.2460  178.9630  146.6860 C   0  0  0  0  0  2  0  0  0  0  0  0
  185.1520  178.0420  144.3110 C   0  0  0  0  0  0  0  0  0  0  0  0
  188.2210  178.7410  140.7390 C   0  0  0  0  0  3  0  0  0  0  0  0
  187.5760  177.1940  143.0570 C   0  0  0  0  0  0  0  0  0  0  0  0
  186.0490  178.0370  146.4640 C   0  0  1  0  0  3  0  0  0  0  0  0
  186.5220  177.9740  142.3000 C   0  0  0  0  0  0  0  0  0  0  0  0
  189.5770  177.9380  144.1700 N   0  0  0  0  0  0  0  0  0  0  0  0
  186.9190  178.4860  140.9710 C   0  0  1  0  0  3  0  0  0  0  0  0
  188.6750  177.3620  145.1830 C   0  0  2  0  0  3  0  0  0  0  0  0
  184.1190  178.7320  145.1150 C   0  0  0  0  0  3  0  0  0  0  0  0
  187.3810  177.1690  144.5010 N   0  0  0  0  0  0  0  0  0  0  0  0
  189.1070  178.0400  148.9010 O   0  0  0  0  0  1  0  0  0  0  0  0
  188.9400  177.4140  147.6730 C   0  0  0  0  0  0  0  0  0  0  0  0
  189.0890  176.1670  147.5860 O   0  0  0  0  0  0  0  0  0  0  0  0
  191.5960  179.3910  144.1870 C   0  0  0  0  0  1  0  0  0  0  0  0
  191.0400  177.9660  144.2410 C   0  0  1  0  0  3  0  0  0  0  0  0
  191.9220  175.8970  145.4070 C   0  0  0  0  0  0  0  0  0  0  0  0
  191.5020  177.2640  145.4450 N   0  0  0  0  0  2  0  0  0  0  0  0
  192.1450  175.2050  146.5890 O   0  0  0  0  0  1  0  0  0  0  0  0
  192.0470  175.2990  144.2990 O   0  0  0  0  0  0  0  0  0  0  0  0
  1  9  1  0  0  0  0
  2  3  1  0  0  0  0
  3 11  2  0  0  0  0
  3 14  1  0  0  0  0
  6 12  1  0  0  0  0
  7  8  1  0  0  0  0
  7 20  1  1  0  0  0
  9  6  2  0  0  0  0
  9 17  1  0  0  0  0
 10 15  1  0  0  0  0
 10  2  2  0  0  0  0
 11 18  1  0  0  0  0
 12  4  1  6  0  0  0
 12  8  1  0  0  0  0
 13  1  2  0  0  0  0
 13 11  1  0  0  0  0
 14 23  1  0  0  0  0
 15  5  1  1  0  0  0
 15 13  1  0  0  0  0
 16 14  1  6  0  0  0
 16  7  1  0  0  0  0
 17  4  2  0  0  0  0
 18  6  1  0  0  0  0
 18 16  1  0  0  0  0
 20 19  1  0  0  0  0
 21 20  2  0  0  0  0
 23 22  1  1  0  0  0
 23 25  1  0  0  0  0
 24 25  1  0  0  0  0
 24 26  1  0  0  0  0
 27 24  2  0  0  0  0
M  END
>  <MODEL>
4

>  <REMARK>
 VINA RESULT:      -9.5      2.213      3.531
  Name = 
  3 active torsions:
  status: ('A' for Active; 'I' for Inactive)
    1  A    between atoms: C_10  and  N_11
    2  A    between atoms: C_10  and  N_23
    3  A    between atoms: C_12  and  C_13
                            x       y       z     vdW  Elec       q    Type
                         _______ _______ _______ _____ _____    ______ ____

>  <TORSDO>
F 3

$$$$
=
 OpenBabel11062414433D

 27 31  0  0  1  0  0  0  0  0999 V2000
  186.0740  178.1980  146.1860 C   0  0  0  0  0  3  0  0  0  0  0  0
  185.5060  179.2580  142.3460 C   0  0  0  0  0  3  0  0  0  0  0  0
  186.3900  178.2910  142.6410 C   0  0  0  0  0  0  0  0  0  0  0  0
  189.6440  177.7550  147.1370 C   0  0  0  0  0  3  0  0  0  0  0  0
  183.4310  179.3770  145.4690 O   0  0  0  0  0  1  0  0  0  0  0  0
  188.1200  177.0970  145.4550 C   0  0  0  0  0  0  0  0  0  0  0  0
  189.8810  177.7720  143.2570 C   0  0  2  0  0  3  0  0  0  0  0  0
  190.1110  178.2220  144.7120 C   0  0  0  0  0  2  0  0  0  0  0  0
  187.3840  177.5710  146.4460 C   0  0  0  0  0  0  0  0  0  0  0  0
  184.3980  179.5460  143.3070 C   0  0  0  0  0  3  0  0  0  0  0  0
  186.2390  177.4200  143.8320 C   0  0  2  0  0  3  0  0  0  0  0  0
  189.5660  177.2010  145.7120 C   0  0  1  0  0  3  0  0  0  0  0  0
  185.5640  178.1850  144.9500 C   0  0  0  0  0  0  0  0  0  0  0  0
  187.6940  178.1810  142.0710 N   0  0  0  0  0  0  0  0  0  0  0  0
  184.4290  179.0470  144.5580 C   0  0  0  0  0  0  0  0  0  0  0  0
  188.4550  177.2540  142.9270 C   0  0  2  0  0  3  0  0  0  0  0  0
  188.2050  177.8880  147.6360 C   0  0  0  0  0  3  0  0  0  0  0  0
  187.6140  177.0300  144.1180 N   0  0  0  0  0  0  0  0  0  0  0  0
  190.5860  175.4130  142.8440 O   0  0  0  0  0  1  0  0  0  0  0  0
  190.9100  176.7640  142.8460 C   0  0  0  0  0  0  0  0  0  0  0  0
  192.0640  177.1260  142.4990 O   0  0  0  0  0  0  0  0  0  0  0  0
  189.1190  177.6200  140.1100 C   0  0  0  0  0  1  0  0  0  0  0  0
  187.9250  178.4160  140.6430 C   0  0  1  0  0  3  0  0  0  0  0  0
  186.6200  178.3660  138.4720 C   0  0  0  0  0  0  0  0  0  0  0  0
  186.7080  178.1180  139.8790 N   0  0  0  0  0  2  0  0  0  0  0  0
  185.3950  178.2750  137.8250 O   0  0  0  0  0  1  0  0  0  0  0  0
  187.6470  178.7140  137.8210 O   0  0  0  0  0  0  0  0  0  0  0  0
  1  9  1  0  0  0  0
  2  3  2  0  0  0  0
  2 10  1  0  0  0  0
  4 17  2  0  0  0  0
  6 12  1  0  0  0  0
  6  9  2  0  0  0  0
  7 20  1  1  0  0  0
  7  8  1  0  0  0  0
  9 17  1  0  0  0  0
 10 15  2  0  0  0  0
 11  3  1  6  0  0  0
 11 18  1  0  0  0  0
 11 13  1  0  0  0  0
 12  8  1  6  0  0  0
 12  4  1  0  0  0  0
 13  1  2  0  0  0  0
 14  3  1  0  0  0  0
 15 13  1  0  0  0  0
 15  5  1  0  0  0  0
 16 14  1  6  0  0  0
 16  7  1  0  0  0  0
 16 18  1  0  0  0  0
 18  6  1  0  0  0  0
 19 20  1  0  0  0  0
 21 20  2  0  0  0  0
 23 22  1  6  0  0  0
 23 14  1  0  0  0  0
 24 25  1  0  0  0  0
 25 23  1  0  0  0  0
 26 24  1  0  0  0  0
 27 24  2  0  0  0  0
M  END
>  <MODEL>
5

>  <REMARK>
 VINA RESULT:      -9.4      1.997      2.666
  Name = 
  3 active torsions:
  status: ('A' for Active; 'I' for Inactive)
    1  A    between atoms: C_10  and  N_11
    2  A    between atoms: C_10  and  N_23
    3  A    between atoms: C_12  and  C_13
                            x       y       z     vdW  Elec       q    Type
                         _______ _______ _______ _____ _____    ______ ____

>  <TORSDO>
F 3

$$$$
=
 OpenBabel11062414433D

 27 31  0  0  1  0  0  0  0  0999 V2000
  189.3180  177.6770  146.1740 C   0  0  0  0  0  3  0  0  0  0  0  0
  185.4370  178.4970  145.4970 C   0  0  0  0  0  3  0  0  0  0  0  0
  186.1510  177.8540  144.5580 C   0  0  0  0  0  0  0  0  0  0  0  0
  191.5530  178.3710  143.2810 C   0  0  0  0  0  3  0  0  0  0  0  0
  187.5470  177.9740  148.5540 O   0  0  0  0  0  1  0  0  0  0  0  0
  189.5250  177.2650  143.7820 C   0  0  0  0  0  0  0  0  0  0  0  0
  188.0570  178.4480  141.5830 C   0  0  2  0  0  3  0  0  0  0  0  0
  189.4280  178.9520  142.0710 C   0  0  0  0  0  2  0  0  0  0  0  0
  190.1130  177.4900  144.9460 C   0  0  0  0  0  0  0  0  0  0  0  0
  185.8840  178.4280  146.9210 C   0  0  0  0  0  3  0  0  0  0  0  0
  187.3010  176.9820  144.9000 C   0  0  2  0  0  3  0  0  0  0  0  0
  190.2770  177.8150  142.6420 C   0  0  1  0  0  3  0  0  0  0  0  0
  187.9930  177.5030  146.1420 C   0  0  0  0  0  0  0  0  0  0  0  0
  186.1140  178.1530  143.1630 N   0  0  0  0  0  0  0  0  0  0  0  0
  187.1110  177.9680  147.2330 C   0  0  0  0  0  0  0  0  0  0  0  0
  187.2950  177.5110  142.5600 C   0  0  2  0  0  3  0  0  0  0  0  0
  191.4720  178.0500  144.7740 C   0  0  0  0  0  3  0  0  0  0  0  0
  188.1150  177.0400  143.6920 N   0  0  0  0  0  0  0  0  0  0  0  0
  187.4750  178.3360  139.1590 O   0  0  0  0  0  0  0  0  0  0  0  0
  188.1770  177.8090  140.2350 C   0  0  0  0  0  0  0  0  0  0  0  0
  188.9090  176.7990  140.0630 O   0  0  0  0  0  1  0  0  0  0  0  0
  183.7820  178.9770  143.4340 C   0  0  0  0  0  1  0  0  0  0  0  0
  184.8510  178.4440  142.4780 C   0  0  1  0  0  3  0  0  0  0  0  0
  184.3400  179.2960  140.1480 C   0  0  0  0  0  0  0  0  0  0  0  0
  185.0820  179.3770  141.3690 N   0  0  0  0  0  2  0  0  0  0  0  0
  184.7260  180.0500  139.0490 O   0  0  0  0  0  0  0  0  0  0  0  0
  183.3580  178.5040  140.0500 O   0  0  0  0  0  1  0  0  0  0  0  0
  2 10  1  0  0  0  0
  3  2  2  0  0  0  0
  4 17  2  0  0  0  0
  6  9  2  0  0  0  0
  7 20  1  6  0  0  0
  7  8  1  0  0  0  0
  7 16  1  0  0  0  0
  9  1  1  0  0  0  0
 10 15  2  0  0  0  0
 11  3  1  6  0  0  0
 11 13  1  0  0  0  0
 12  8  1  1  0  0  0
 12  4  1  0  0  0  0
 12  6  1  0  0  0  0
 13  1  2  0  0  0  0
 13 15  1  0  0  0  0
 14  3  1  0  0  0  0
 15  5  1  0  0  0  0
 16 14  1  1  0  0  0
 16 18  1  0  0  0  0
 17  9  1  0  0  0  0
 18  6  1  0  0  0  0
 18 11  1  0  0  0  0
 19 20  2  0  0  0  0
 21 20  1  0  0  0  0
 23 14  1  0  0  0  0
 23 22  1  1  0  0  0
 24 25  1  0  0  0  0
 25 23  1  0  0  0  0
 26 24  2  0  0  0  0
 27 24  1  0  0  0  0
M  END
>  <MODEL>
6

>  <REMARK>
 VINA RESULT:      -8.9      2.174      5.355
  Name = 
  3 active torsions:
  status: ('A' for Active; 'I' for Inactive)
    1  A    between atoms: C_10  and  N_11
    2  A    between atoms: C_10  and  N_23
    3  A    between atoms: C_12  and  C_13
                            x       y       z     vdW  Elec       q    Type
                         _______ _______ _______ _____ _____    ______ ____

>  <TORSDO>
F 3

$$$$
=
 OpenBabel11062414433D

 27 31  0  0  1  0  0  0  0  0999 V2000
  189.5560  177.0970  147.1770 C   0  0  0  0  0  3  0  0  0  0  0  0
  191.6590  175.8630  143.9750 C   0  0  0  0  0  3  0  0  0  0  0  0
  190.7880  176.8780  143.8440 C   0  0  0  0  0  0  0  0  0  0  0  0
  185.9540  177.7290  146.4880 C   0  0  0  0  0  3  0  0  0  0  0  0
  192.1800  175.7790  147.6890 O   0  0  0  0  0  1  0  0  0  0  0  0
  188.0870  178.2550  145.6160 C   0  0  0  0  0  0  0  0  0  0  0  0
  187.4060  177.5700  142.8860 C   0  0  2  0  0  3  0  0  0  0  0  0
  186.5490  177.1880  144.1070 C   0  0  0  0  0  2  0  0  0  0  0  0
  188.2980  177.7900  146.8360 C   0  0  0  0  0  0  0  0  0  0  0  0
  192.2280  175.5670  145.3250 C   0  0  0  0  0  3  0  0  0  0  0  0
  190.4620  177.7880  144.9680 C   0  0  2  0  0  3  0  0  0  0  0  0
  186.6670  178.2230  145.2260 C   0  0  1  0  0  3  0  0  0  0  0  0
  190.5470  177.0400  146.2810 C   0  0  0  0  0  0  0  0  0  0  0  0
  189.8640  177.0210  142.7660 N   0  0  0  0  0  0  0  0  0  0  0  0
  191.6910  176.1150  146.4320 C   0  0  0  0  0  0  0  0  0  0  0  0
  188.8620  178.0130  143.1940 C   0  0  2  0  0  3  0  0  0  0  0  0
  187.0300  177.5550  147.5600 C   0  0  0  0  0  3  0  0  0  0  0  0
  189.1210  178.2480  144.6270 N   0  0  0  0  0  0  0  0  0  0  0  0
  185.3270  178.7020  142.0950 O   0  0  0  0  0  1  0  0  0  0  0  0
  186.7120  178.6040  142.0540 C   0  0  0  0  0  0  0  0  0  0  0  0
  187.3690  179.3870  141.3200 O   0  0  0  0  0  0  0  0  0  0  0  0
  189.1690  177.1310  140.3790 C   0  0  0  0  0  1  0  0  0  0  0  0
  190.2570  176.7400  141.3820 C   0  0  1  0  0  3  0  0  0  0  0  0
  192.2640  177.1110  139.8820 C   0  0  0  0  0  0  0  0  0  0  0  0
  191.5260  177.4080  141.0710 N   0  0  0  0  0  2  0  0  0  0  0  0
  193.5540  177.5970  139.7240 O   0  0  0  0  0  1  0  0  0  0  0  0
  191.7620  176.3670  138.9900 O   0  0  0  0  0  0  0  0  0  0  0  0
  2 10  1  0  0  0  0
  3  2  2  0  0  0  0
  4 17  2  0  0  0  0
  6  9  2  0  0  0  0
  7 20  1  1  0  0  0
  7 16  1  0  0  0  0
  7  8  1  0  0  0  0
  9  1  1  0  0  0  0
  9 17  1  0  0  0  0
 10 15  2  0  0  0  0
 11  3  1  6  0  0  0
 11 13  1  0  0  0  0
 12  8  1  6  0  0  0
 12  6  1  0  0  0  0
 12  4  1  0  0  0  0
 13 15  1  0  0  0  0
 13  1  2  0  0  0  0
 14  3  1  0  0  0  0
 15  5  1  0  0  0  0
 16 14  1  1  0  0  0
 16 18  1  0  0  0  0
 18 11  1  0  0  0  0
 18  6  1  0  0  0  0
 20 19  1  0  0  0  0
 21 20  2  0  0  0  0
 23 22  1  6  0  0  0
 23 14  1  0  0  0  0
 24 25  1  0  0  0  0
 25 23  1  0  0  0  0
 26 24  1  0  0  0  0
 27 24  2  0  0  0  0
M  END
>  <MODEL>
7

>  <REMARK>
 VINA RESULT:      -8.2      1.446      4.634
  Name = 
  3 active torsions:
  status: ('A' for Active; 'I' for Inactive)
    1  A    between atoms: C_10  and  N_11
    2  A    between atoms: C_10  and  N_23
    3  A    between atoms: C_12  and  C_13
                            x       y       z     vdW  Elec       q    Type
                         _______ _______ _______ _____ _____    ______ ____

>  <TORSDO>
F 3

$$$$
=
 OpenBabel11062414433D

 27 31  0  0  1  0  0  0  0  0999 V2000
  183.2880  178.8070  144.9680 C   0  0  0  0  0  3  0  0  0  0  0  0
  187.1010  177.6190  144.4750 C   0  0  0  0  0  3  0  0  0  0  0  0
  186.5100  178.3600  143.5220 C   0  0  0  0  0  0  0  0  0  0  0  0
  181.1660  178.4320  141.9340 C   0  0  0  0  0  3  0  0  0  0  0  0
  184.8790  178.2610  147.4290 O   0  0  0  0  0  1  0  0  0  0  0  0
  183.2620  179.3100  142.5840 C   0  0  0  0  0  0  0  0  0  0  0  0
  184.7300  178.0520  140.4280 C   0  0  2  0  0  3  0  0  0  0  0  0
  183.2890  177.6760  140.8210 C   0  0  0  0  0  2  0  0  0  0  0  0
  182.5880  179.1110  143.7050 C   0  0  0  0  0  0  0  0  0  0  0  0
  186.5810  177.6900  145.8740 C   0  0  0  0  0  3  0  0  0  0  0  0
  185.4350  179.3330  143.8310 C   0  0  2  0  0  3  0  0  0  0  0  0
  182.5260  178.8740  141.3850 C   0  0  1  0  0  3  0  0  0  0  0  0
  184.6230  178.8480  145.0140 C   0  0  0  0  0  0  0  0  0  0  0  0
  186.5980  178.1010  142.1210 N   0  0  0  0  0  0  0  0  0  0  0  0
  185.3900  178.2620  146.1350 C   0  0  0  0  0  0  0  0  0  0  0  0
  185.5230  178.8770  141.4780 C   0  0  2  0  0  3  0  0  0  0  0  0
  181.1920  178.6970  143.4390 C   0  0  0  0  0  3  0  0  0  0  0  0
  184.6900  179.3940  142.5800 N   0  0  0  0  0  0  0  0  0  0  0  0
  184.5330  180.1100  139.0300 O   0  0  0  0  0  1  0  0  0  0  0  0
  184.7530  178.7410  139.0990 C   0  0  0  0  0  0  0  0  0  0  0  0
  184.9720  178.0930  138.0420 O   0  0  0  0  0  0  0  0  0  0  0  0
  188.0590  178.3520  140.1230 C   0  0  0  0  0  1  0  0  0  0  0  0
  187.8630  177.7050  141.4960 C   0  0  1  0  0  3  0  0  0  0  0  0
  190.1140  177.1390  142.5100 C   0  0  0  0  0  0  0  0  0  0  0  0
  188.9860  178.0110  142.3900 N   0  0  0  0  0  2  0  0  0  0  0  0
  191.0500  177.3470  143.5140 O   0  0  0  0  0  1  0  0  0  0  0  0
  190.2400  176.1490  141.7330 O   0  0  0  0  0  0  0  0  0  0  0  0
  1 13  2  0  0  0  0
  2 10  1  0  0  0  0
  3  2  2  0  0  0  0
  4 17  2  0  0  0  0
  6  9  2  0  0  0  0
  7 20  1  6  0  0  0
  7  8  1  0  0  0  0
  7 16  1  0  0  0  0
  9  1  1  0  0  0  0
 10 15  2  0  0  0  0
 11  3  1  6  0  0  0
 11 13  1  0  0  0  0
 12  8  1  1  0  0  0
 12  4  1  0  0  0  0
 12  6  1  0  0  0  0
 13 15  1  0  0  0  0
 14  3  1  0  0  0  0
 15  5  1  0  0  0  0
 16 14  1  1  0  0  0
 16 18  1  0  0  0  0
 17  9  1  0  0  0  0
 18  6  1  0  0  0  0
 18 11  1  0  0  0  0
 19 20  1  0  0  0  0
 21 20  2  0  0  0  0
 23 22  1  6  0  0  0
 23 14  1  0  0  0  0
 23 25  1  0  0  0  0
 24 26  1  0  0  0  0
 25 24  1  0  0  0  0
 27 24  2  0  0  0  0
M  END
>  <MODEL>
8

>  <REMARK>
 VINA RESULT:      -8.1      2.790      5.898
  Name = 
  3 active torsions:
  status: ('A' for Active; 'I' for Inactive)
    1  A    between atoms: C_10  and  N_11
    2  A    between atoms: C_10  and  N_23
    3  A    between atoms: C_12  and  C_13
                            x       y       z     vdW  Elec       q    Type
                         _______ _______ _______ _____ _____    ______ ____

>  <TORSDO>
F 3

$$$$
=
 OpenBabel11062414433D

 27 31  0  0  1  0  0  0  0  0999 V2000
  191.5080  177.1590  143.8160 C   0  0  0  0  0  3  0  0  0  0  0  0
  188.3440  177.4130  141.3430 C   0  0  0  0  0  3  0  0  0  0  0  0
  188.2960  178.0150  142.5420 C   0  0  0  0  0  0  0  0  0  0  0  0
  190.6230  176.4480  147.3610 C   0  0  0  0  0  3  0  0  0  0  0  0
  192.0330  176.8980  140.8930 O   0  0  0  0  0  1  0  0  0  0  0  0
  190.0240  177.9050  145.5980 C   0  0  0  0  0  0  0  0  0  0  0  0
  187.1730  177.4920  145.9040 C   0  0  2  0  0  3  0  0  0  0  0  0
  188.2460  176.6020  146.5590 C   0  0  0  0  0  2  0  0  0  0  0  0
  191.1720  177.3550  145.2400 C   0  0  0  0  0  0  0  0  0  0  0  0
  189.6760  177.1330  140.7250 C   0  0  0  0  0  3  0  0  0  0  0  0
  189.5140  178.5180  143.2230 C   0  0  0  0  0  0  0  0  0  0  0  0
  189.5150  177.3910  146.8810 C   0  0  1  0  0  3  0  0  0  0  0  0
  190.7010  177.6470  142.8690 C   0  0  0  0  0  0  0  0  0  0  0  0
  187.1780  177.9720  143.4290 N   0  0  0  0  0  0  0  0  0  0  0  0
  190.8040  177.2290  141.4550 C   0  0  1  0  0  3  0  0  0  0  0  0
  187.6660  178.4060  144.7490 C   0  0  2  0  0  3  0  0  0  0  0  0
  191.7430  176.5240  146.3230 C   0  0  0  0  0  3  0  0  0  0  0  0
  189.1350  178.4710  144.6300 N   0  0  0  0  0  0  0  0  0  0  0  0
  185.0650  178.2940  146.9730 O   0  0  0  0  0  0  0  0  0  0  0  0
  186.4530  178.3010  146.9380 C   0  0  0  0  0  0  0  0  0  0  0  0
  187.0920  178.9860  147.7790 O   0  0  0  0  0  1  0  0  0  0  0  0
  184.8250  178.4940  144.0430 C   0  0  0  0  0  1  0  0  0  0  0  0
  185.8060  178.1090  142.9340 C   0  0  1  0  0  3  0  0  0  0  0  0
  184.8240  178.9520  140.7560 C   0  0  0  0  0  0  0  0  0  0  0  0
  185.7610  179.0760  141.8300 N   0  0  0  0  0  2  0  0  0  0  0  0
  184.9490  179.7530  139.6290 O   0  0  0  0  0  0  0  0  0  0  0  0
  183.9070  178.0830  140.8080 O   0  0  0  0  0  1  0  0  0  0  0  0
  1  9  1  0  0  0  0
  2  3  1  0  0  0  0
  3 11  2  0  0  0  0
  3 14  1  0  0  0  0
  6 12  1  0  0  0  0
  7  8  1  0  0  0  0
  7 20  1  1  0  0  0
  9  6  2  0  0  0  0
  9 17  1  0  0  0  0
 10  2  2  0  0  0  0
 10 15  1  0  0  0  0
 11 18  1  0  0  0  0
 12  8  1  6  0  0  0
 12  4  1  0  0  0  0
 13 11  1  0  0  0  0
 13  1  2  0  0  0  0
 15  5  1  1  0  0  0
 15 13  1  0  0  0  0
 16 14  1  6  0  0  0
 16  7  1  0  0  0  0
 17  4  2  0  0  0  0
 18 16  1  0  0  0  0
 18  6  1  0  0  0  0
 20 19  2  0  0  0  0
 20 21  1  0  0  0  0
 23 14  1  0  0  0  0
 23 22  1  1  0  0  0
 24 27  1  0  0  0  0
 24 25  1  0  0  0  0
 25 23  1  0  0  0  0
 26 24  2  0  0  0  0
M  END
>  <MODEL>
9

>  <REMARK>
 VINA RESULT:      -7.9      2.148      5.009
  Name = 
  3 active torsions:
  status: ('A' for Active; 'I' for Inactive)
    1  A    between atoms: C_10  and  N_11
    2  A    between atoms: C_10  and  N_23
    3  A    between atoms: C_12  and  C_13
                            x       y       z     vdW  Elec       q    Type
                         _______ _______ _______ _____ _____    ______ ____

>  <TORSDO>
F 3

$$$$
