=
 OpenBabel11062417223D

 60 67  0  0  1  0  0  0  0  0999 V2000
  184.2910  179.0160  145.7870 N   0  0  0  0  0  0  0  0  0  0  0  0
  184.3310  179.4500  144.4880 C   0  0  0  0  0  0  0  0  0  0  0  0
  187.4740  177.6870  146.2170 N   0  0  0  0  0  0  0  0  0  0  0  0
  185.2670  178.3320  146.3120 C   0  0  0  0  0  3  0  0  0  0  0  0
  186.4350  178.0440  145.5110 C   0  0  0  0  0  0  0  0  0  0  0  0
  186.3180  177.9320  144.0250 C   0  0  0  0  0  2  0  0  0  0  0  0
  185.1700  178.8360  143.4100 C   0  0  1  0  0  3  0  0  0  0  0  0
  183.5440  180.4400  144.1370 O   0  0  0  0  0  0  0  0  0  0  0  0
  189.4970  176.6080  146.8140 O   0  0  0  0  0  0  0  0  0  0  0  0
  188.7420  177.1320  145.9400 C   0  0  0  0  0  0  0  0  0  0  0  0
  190.7470  177.7200  144.5440 C   0  0  0  0  0  2  0  0  0  0  0  0
  189.1360  175.9960  142.3430 C   0  0  0  0  0  2  0  0  0  0  0  0
  191.2360  177.5620  140.8800 C   0  0  0  0  0  2  0  0  0  0  0  0
  189.7780  177.5190  140.6230 N   0  0  0  0  0  0  0  0  0  0  0  0
  191.6070  177.2850  143.3450 C   0  0  0  0  0  2  0  0  0  0  0  0
  191.6030  178.2820  142.1840 C   0  0  0  0  0  2  0  0  0  0  0  0
  189.2310  177.3360  144.5380 C   0  0  1  0  0  3  0  0  0  0  0  0
  188.9190  176.0170  143.8390 C   0  0  0  0  0  2  0  0  0  0  0  0
  188.8810  177.3580  141.7720 C   0  0  0  0  0  2  0  0  0  0  0  0
  189.8140  176.9440  138.1900 C   0  0  0  0  0  0  0  0  0  0  0  0
  191.5520  175.3950  138.9210 O   0  0  0  0  0  0  0  0  0  0  0  0
  189.1450  177.4410  139.3600 C   0  0  0  0  0  0  0  0  0  0  0  0
  187.5300  178.4760  137.8100 C   0  0  0  0  0  3  0  0  0  0  0  0
  188.2560  178.0570  136.7420 N   0  0  0  0  0  0  0  0  0  0  0  0
  187.9220  178.1340  139.1090 C   0  0  0  0  0  0  0  0  0  0  0  0
  190.1000  176.5470  135.8600 C   0  0  0  0  0  2  0  0  0  0  0  0
  190.9830  175.6510  136.6260 N   0  0  0  0  0  0  0  0  0  0  0  0
  190.8550  175.9670  138.0080 C   0  0  0  0  0  0  0  0  0  0  0  0
  187.1100  178.4750  140.1570 F   0  0  0  0  0  0  0  0  0  0  0  0
  189.3780  177.2650  136.9550 C   0  0  0  0  0  0  0  0  0  0  0  0
  191.8940  174.7500  135.9090 C   0  0  0  0  0  2  0  0  0  0  0  0
  193.7930  176.0770  135.2070 C   0  0  0  0  0  3  0  0  0  0  0  0
  194.2490  174.3790  136.8810 C   0  0  0  0  0  3  0  0  0  0  0  0
  195.2260  176.4720  135.2730 C   0  0  0  0  0  2  0  0  0  0  0  0
  195.5200  174.4550  136.6720 N   0  0  0  0  0  0  0  0  0  0  0  0
  196.0900  175.2420  135.5630 C   0  0  0  0  0  2  0  0  0  0  0  0
  193.3230  175.1160  136.0200 C   0  0  0  0  0  0  0  0  0  0  0  0
  184.2740  178.1360  142.5680 O   0  0  0  0  0  0  0  0  0  0  0  0
  181.5730  178.5490  141.9990 C   0  0  0  0  0  1  0  0  0  0  0  0
  184.5960  179.3100  140.5870 O   0  0  0  0  0  0  0  0  0  0  0  0
  183.8670  178.5210  141.2880 C   0  0  0  0  0  0  0  0  0  0  0  0
  182.4800  178.3860  140.8920 N   0  0  0  0  0  0  0  0  0  0  0  0
  180.8270  177.3920  138.9810 C   0  0  2  0  0  3  0  0  0  0  0  0
  179.7900  178.2820  138.1430 C   0  0  0  0  0  2  0  0  0  0  0  0
  180.4080  179.3400  137.1230 C   0  0  2  0  0  0  0  0  0  0  0  0
  182.0050  179.6300  138.8800 N   0  0  0  0  0  2  0  0  0  0  0  0
  180.1510  178.8120  135.7260 C   0  0  0  0  0  2  0  0  0  0  0  0
  179.3910  179.8720  134.9280 C   0  0  0  0  0  2  0  0  0  0  0  0
  179.6080  181.1900  135.5920 C   0  0  1  0  0  3  0  0  0  0  0  0
  181.9060  178.3130  139.5840 C   0  0  1  0  0  3  0  0  0  0  0  0
  181.8590  179.4070  137.4400 C   0  0  0  0  0  2  0  0  0  0  0  0
  179.9100  180.8170  137.0350 C   0  0  2  0  0  3  0  0  0  0  0  0
  179.3540  182.1880  139.2110 C   0  0  0  0  0  2  0  0  0  0  0  0
  180.2660  181.9280  138.0460 C   0  0  2  0  0  3  0  0  0  0  0  0
  179.2970  182.9850  138.0450 O   0  0  0  0  0  0  0  0  0  0  0  0
  180.6970  175.2610  137.7310 O   0  0  0  0  0  1  0  0  0  0  0  0
  182.6870  175.8300  138.6820 O   0  0  0  0  0  1  0  0  0  0  0  0
  181.5130  176.3320  138.0750 C   0  0  0  0  0  3  0  0  0  0  0  0
  180.8590  183.2390  135.0150 O   0  0  0  0  0  1  0  0  0  0  0  0
  180.6730  181.8960  134.7300 C   0  0  0  0  0  2  0  0  0  0  0  0
  1  4  2  0  0  0  0
  2  1  1  0  0  0  0
  5  3  2  0  0  0  0
  5  4  1  0  0  0  0
  6  5  1  0  0  0  0
  7 38  1  6  0  0  0
  7  6  1  0  0  0  0
  7  2  1  0  0  0  0
  8  2  2  0  0  0  0
 10  3  1  0  0  0  0
 10  9  2  0  0  0  0
 12 18  1  0  0  0  0
 13 16  1  0  0  0  0
 14 13  1  0  0  0  0
 14 19  1  0  0  0  0
 15 11  1  0  0  0  0
 16 15  1  0  0  0  0
 17 11  1  0  0  0  0
 17 10  1  1  0  0  0
 18 17  1  0  0  0  0
 19 12  1  0  0  0  0
 20 22  1  0  0  0  0
 22 14  1  0  0  0  0
 23 25  1  0  0  0  0
 24 30  1  0  0  0  0
 24 23  2  0  0  0  0
 25 22  2  0  0  0  0
 25 29  1  0  0  0  0
 26 27  1  0  0  0  0
 26 30  1  0  0  0  0
 27 28  1  0  0  0  0
 28 20  1  0  0  0  0
 28 21  2  0  0  0  0
 30 20  2  0  0  0  0
 31 37  1  0  0  0  0
 31 27  1  0  0  0  0
 32 34  1  0  0  0  0
 32 37  2  0  0  0  0
 34 36  1  0  0  0  0
 35 33  2  0  0  0  0
 36 35  1  0  0  0  0
 37 33  1  0  0  0  0
 40 41  2  0  0  0  0
 41 38  1  0  0  0  0
 42 41  1  0  0  0  0
 42 39  1  0  0  0  0
 43 58  1  6  0  0  0
 43 50  1  0  0  0  0
 44 43  1  0  0  0  0
 45 47  1  6  0  0  0
 45 51  1  0  0  0  0
 45 44  1  0  0  0  0
 46 50  1  0  0  0  0
 48 49  1  0  0  0  0
 48 47  1  0  0  0  0
 49 60  1  6  0  0  0
 49 52  1  0  0  0  0
 50 42  1  1  0  0  0
 51 46  1  0  0  0  0
 52 45  1  0  0  0  0
 52 54  1  6  0  0  0
 54 53  1  1  0  0  0
 55 54  1  0  0  0  0
 55 53  1  0  0  0  0
 56 58  1  0  0  0  0
 58 57  1  0  0  0  0
 60 59  1  0  0  0  0
M  END
>  <MODEL>
1

>  <REMARK>
 VINA RESULT:      -9.4      0.000      0.000
  Name = 
  11 active torsions:
  status: ('A' for Active; 'I' for Inactive)
    1  A    between atoms: C_3  and  C_35
    2  A    between atoms: C_11  and  C_54
    3  A    between atoms: C_12  and  N_39
    4  A    between atoms: C_12  and  C_49
    5  A    between atoms: O_19  and  C_33
    6  A    between atoms: O_19  and  C_58
    7  A    between atoms: C_21  and  C_28
    8  A    between atoms: C_22  and  N_38
    9  A    between atoms: C_34  and  N_56
   10  A    between atoms: N_36  and  C_59
   11  A    between atoms: C_45  and  C_59
                            x       y       z     vdW  Elec       q    Type
                         _______ _______ _______ _____ _____    ______ ____

>  <TORSDO>
F 11

$$$$
=
 OpenBabel11062417223D

 60 67  0  0  1  0  0  0  0  0999 V2000
  184.4190  179.0100  145.8430 N   0  0  0  0  0  0  0  0  0  0  0  0
  184.4280  179.4480  144.5440 C   0  0  0  0  0  0  0  0  0  0  0  0
  187.6210  177.7090  146.2030 N   0  0  0  0  0  0  0  0  0  0  0  0
  185.4110  178.3330  146.3460 C   0  0  0  0  0  3  0  0  0  0  0  0
  186.5650  178.0590  145.5200 C   0  0  0  0  0  0  0  0  0  0  0  0
  186.4190  177.9500  144.0370 C   0  0  0  0  0  2  0  0  0  0  0  0
  185.2510  178.8460  143.4480 C   0  0  1  0  0  3  0  0  0  0  0  0
  183.6260  180.4320  144.2130 O   0  0  0  0  0  0  0  0  0  0  0  0
  189.6790  176.6740  146.7600 O   0  0  0  0  0  0  0  0  0  0  0  0
  188.8890  177.1660  145.8980 C   0  0  0  0  0  0  0  0  0  0  0  0
  190.8530  177.6950  144.4230 C   0  0  0  0  0  2  0  0  0  0  0  0
  189.1250  175.9840  142.3030 C   0  0  0  0  0  2  0  0  0  0  0  0
  191.2030  177.4880  140.7470 C   0  0  0  0  0  2  0  0  0  0  0  0
  189.7370  177.4750  140.5440 N   0  0  0  0  0  0  0  0  0  0  0  0
  191.6590  177.2280  143.1990 C   0  0  0  0  0  2  0  0  0  0  0  0
  191.6340  178.2130  142.0280 C   0  0  0  0  0  2  0  0  0  0  0  0
  189.3300  177.3450  144.4780 C   0  0  1  0  0  3  0  0  0  0  0  0
  188.9640  176.0260  143.8050 C   0  0  0  0  0  2  0  0  0  0  0  0
  188.8790  177.3450  141.7270 C   0  0  0  0  0  2  0  0  0  0  0  0
  189.6500  176.8200  138.1320 C   0  0  0  0  0  0  0  0  0  0  0  0
  191.3090  175.1850  138.8580 O   0  0  0  0  0  0  0  0  0  0  0  0
  189.0560  177.3980  139.3050 C   0  0  0  0  0  0  0  0  0  0  0  0
  187.4570  178.4850  137.7740 C   0  0  0  0  0  3  0  0  0  0  0  0
  188.1160  177.9860  136.6990 N   0  0  0  0  0  0  0  0  0  0  0  0
  187.8710  178.1610  139.0710 C   0  0  0  0  0  0  0  0  0  0  0  0
  189.8280  176.3300  135.8090 C   0  0  0  0  0  2  0  0  0  0  0  0
  190.6770  175.4030  136.5760 N   0  0  0  0  0  0  0  0  0  0  0  0
  190.6180  175.7710  137.9500 C   0  0  0  0  0  0  0  0  0  0  0  0
  187.1210  178.5880  140.1330 F   0  0  0  0  0  0  0  0  0  0  0  0
  189.1920  177.1280  136.9010 C   0  0  0  0  0  0  0  0  0  0  0  0
  191.5020  174.4210  135.8610 C   0  0  0  0  0  2  0  0  0  0  0  0
  193.3830  173.2760  136.8670 C   0  0  0  0  0  3  0  0  0  0  0  0
  193.7740  175.5810  136.2110 C   0  0  0  0  0  3  0  0  0  0  0  0
  194.7980  173.2060  137.3210 C   0  0  0  0  0  2  0  0  0  0  0  0
  194.8460  175.6450  136.9270 N   0  0  0  0  0  0  0  0  0  0  0  0
  195.2400  174.5710  137.8560 C   0  0  0  0  0  2  0  0  0  0  0  0
  192.9190  174.3940  136.2850 C   0  0  0  0  0  0  0  0  0  0  0  0
  184.3440  178.1400  142.6220 O   0  0  0  0  0  0  0  0  0  0  0  0
  181.6260  178.5880  142.1750 C   0  0  0  0  0  1  0  0  0  0  0  0
  184.5920  179.3240  140.6370 O   0  0  0  0  0  0  0  0  0  0  0  0
  183.8860  178.5380  141.3630 C   0  0  0  0  0  0  0  0  0  0  0  0
  182.4810  178.4230  141.0280 N   0  0  0  0  0  0  0  0  0  0  0  0
  181.9640  179.2640  138.4990 C   0  0  2  0  0  3  0  0  0  0  0  0
  182.1100  178.3360  137.2000 C   0  0  0  0  0  2  0  0  0  0  0  0
  181.0820  177.1270  137.0570 C   0  0  2  0  0  0  0  0  0  0  0  0
  181.4250  176.9680  139.4190 N   0  0  0  0  0  2  0  0  0  0  0  0
  180.1190  177.4910  135.9440 C   0  0  0  0  0  2  0  0  0  0  0  0
  180.1420  176.3850  134.8890 C   0  0  0  0  0  2  0  0  0  0  0  0
  180.6770  175.1490  135.5300 C   0  0  1  0  0  3  0  0  0  0  0  0
  181.8490  178.3650  139.7460 C   0  0  1  0  0  3  0  0  0  0  0  0
  180.4000  177.0180  138.3740 C   0  0  0  0  0  2  0  0  0  0  0  0
  181.5270  175.6800  136.6740 C   0  0  2  0  0  3  0  0  0  0  0  0
  183.7090  174.6560  137.7300 C   0  0  0  0  0  2  0  0  0  0  0  0
  182.2100  174.6860  137.6370 C   0  0  2  0  0  3  0  0  0  0  0  0
  183.0060  173.7210  136.9360 O   0  0  0  0  0  0  0  0  0  0  0  0
  180.5370  180.7900  137.1750 O   0  0  0  0  0  1  0  0  0  0  0  0
  180.7000  181.1470  139.4180 O   0  0  0  0  0  1  0  0  0  0  0  0
  180.6990  180.1630  138.4030 C   0  0  0  0  0  3  0  0  0  0  0  0
  179.6650  173.1870  136.6350 O   0  0  0  0  0  1  0  0  0  0  0  0
  179.4360  174.2830  135.8180 C   0  0  0  0  0  2  0  0  0  0  0  0
  1  4  2  0  0  0  0
  2  1  1  0  0  0  0
  5  3  2  0  0  0  0
  5  4  1  0  0  0  0
  6  5  1  0  0  0  0
  7 38  1  6  0  0  0
  7  6  1  0  0  0  0
  7  2  1  0  0  0  0
  8  2  2  0  0  0  0
 10  3  1  0  0  0  0
 10  9  2  0  0  0  0
 11 17  1  0  0  0  0
 12 18  1  0  0  0  0
 13 16  1  0  0  0  0
 14 13  1  0  0  0  0
 14 19  1  0  0  0  0
 15 11  1  0  0  0  0
 16 15  1  0  0  0  0
 17 10  1  1  0  0  0
 18 17  1  0  0  0  0
 19 12  1  0  0  0  0
 20 22  1  0  0  0  0
 22 14  1  0  0  0  0
 23 25  1  0  0  0  0
 24 30  1  0  0  0  0
 24 23  2  0  0  0  0
 25 22  2  0  0  0  0
 25 29  1  0  0  0  0
 26 27  1  0  0  0  0
 26 30  1  0  0  0  0
 27 28  1  0  0  0  0
 28 20  1  0  0  0  0
 28 21  2  0  0  0  0
 30 20  2  0  0  0  0
 31 37  1  0  0  0  0
 31 27  1  0  0  0  0
 32 34  1  0  0  0  0
 33 37  1  0  0  0  0
 33 35  2  0  0  0  0
 34 36  1  0  0  0  0
 35 36  1  0  0  0  0
 37 32  2  0  0  0  0
 40 41  2  0  0  0  0
 41 38  1  0  0  0  0
 42 41  1  0  0  0  0
 42 39  1  0  0  0  0
 43 58  1  6  0  0  0
 43 50  1  0  0  0  0
 44 43  1  0  0  0  0
 45 47  1  6  0  0  0
 45 44  1  0  0  0  0
 45 51  1  0  0  0  0
 46 50  1  0  0  0  0
 48 49  1  0  0  0  0
 48 47  1  0  0  0  0
 49 60  1  1  0  0  0
 49 52  1  0  0  0  0
 50 42  1  6  0  0  0
 51 46  1  0  0  0  0
 52 45  1  0  0  0  0
 52 54  1  1  0  0  0
 54 53  1  1  0  0  0
 55 54  1  0  0  0  0
 55 53  1  0  0  0  0
 56 58  1  0  0  0  0
 58 57  1  0  0  0  0
 60 59  1  0  0  0  0
M  END
>  <MODEL>
2

>  <REMARK>
 VINA RESULT:      -9.3      1.364      3.247
  Name = 
  11 active torsions:
  status: ('A' for Active; 'I' for Inactive)
    1  A    between atoms: C_3  and  C_35
    2  A    between atoms: C_11  and  C_54
    3  A    between atoms: C_12  and  N_39
    4  A    between atoms: C_12  and  C_49
    5  A    between atoms: O_19  and  C_33
    6  A    between atoms: O_19  and  C_58
    7  A    between atoms: C_21  and  C_28
    8  A    between atoms: C_22  and  N_38
    9  A    between atoms: C_34  and  N_56
   10  A    between atoms: N_36  and  C_59
   11  A    between atoms: C_45  and  C_59
                            x       y       z     vdW  Elec       q    Type
                         _______ _______ _______ _____ _____    ______ ____

>  <TORSDO>
F 11

$$$$
=
 OpenBabel11062417223D

 60 67  0  0  1  0  0  0  0  0999 V2000
  184.0210  179.0030  145.8370 N   0  0  0  0  0  0  0  0  0  0  0  0
  184.1930  179.3740  144.5290 C   0  0  0  0  0  0  0  0  0  0  0  0
  187.0990  177.5880  146.6120 N   0  0  0  0  0  0  0  0  0  0  0  0
  184.9180  178.3110  146.4780 C   0  0  0  0  0  3  0  0  0  0  0  0
  186.1420  177.9470  145.8000 C   0  0  0  0  0  0  0  0  0  0  0  0
  186.1550  177.7700  144.3160 C   0  0  0  0  0  2  0  0  0  0  0  0
  185.1010  178.6830  143.5600 C   0  0  1  0  0  3  0  0  0  0  0  0
  183.4790  180.3730  144.0660 O   0  0  0  0  0  0  0  0  0  0  0  0
  188.8910  176.2260  147.3520 O   0  0  0  0  0  0  0  0  0  0  0  0
  188.3650  176.9790  146.4760 C   0  0  0  0  0  0  0  0  0  0  0  0
  190.1700  178.5200  145.6510 C   0  0  0  0  0  2  0  0  0  0  0  0
  190.4910  176.1980  143.4340 C   0  0  0  0  0  2  0  0  0  0  0  0
  191.9170  178.6240  142.3920 C   0  0  0  0  0  2  0  0  0  0  0  0
  190.8610  177.8240  141.7290 N   0  0  0  0  0  0  0  0  0  0  0  0
  191.4890  178.5920  144.8630 C   0  0  0  0  0  2  0  0  0  0  0  0
  191.4040  179.4350  143.5880 C   0  0  0  0  0  2  0  0  0  0  0  0
  189.1460  177.4010  145.2690 C   0  0  1  0  0  3  0  0  0  0  0  0
  189.7840  176.1100  144.7680 C   0  0  0  0  0  2  0  0  0  0  0  0
  189.8210  177.2240  142.5700 C   0  0  0  0  0  2  0  0  0  0  0  0
  189.6160  177.3420  139.6150 C   0  0  0  0  0  0  0  0  0  0  0  0
  188.0260  178.9200  140.5810 O   0  0  0  0  0  0  0  0  0  0  0  0
  190.8340  177.4220  140.3720 C   0  0  0  0  0  0  0  0  0  0  0  0
  191.8230  175.9640  138.6470 C   0  0  0  0  0  3  0  0  0  0  0  0
  190.6220  175.8500  138.0250 N   0  0  0  0  0  0  0  0  0  0  0  0
  191.9620  176.7800  139.7750 C   0  0  0  0  0  0  0  0  0  0  0  0
  188.2490  176.7210  137.7670 C   0  0  0  0  0  2  0  0  0  0  0  0
  187.5830  177.7850  138.5390 N   0  0  0  0  0  0  0  0  0  0  0  0
  188.3810  178.0770  139.6810 C   0  0  0  0  0  0  0  0  0  0  0  0
  193.2070  176.9620  140.3120 F   0  0  0  0  0  0  0  0  0  0  0  0
  189.5380  176.5740  138.5080 C   0  0  0  0  0  0  0  0  0  0  0  0
  186.2470  178.2400  138.1360 C   0  0  0  0  0  2  0  0  0  0  0  0
  184.7510  176.7820  136.9130 C   0  0  0  0  0  3  0  0  0  0  0  0
  186.4440  177.9120  135.5900 C   0  0  0  0  0  3  0  0  0  0  0  0
  184.2400  176.1640  135.6590 C   0  0  0  0  0  2  0  0  0  0  0  0
  186.2580  177.1130  134.5940 N   0  0  0  0  0  0  0  0  0  0  0  0
  185.4010  175.9180  134.6920 C   0  0  0  0  0  2  0  0  0  0  0  0
  185.7660  177.6610  136.8630 C   0  0  0  0  0  0  0  0  0  0  0  0
  184.2580  177.9750  142.6710 O   0  0  0  0  0  0  0  0  0  0  0  0
  181.5680  178.4430  142.0940 C   0  0  0  0  0  1  0  0  0  0  0  0
  184.6110  179.1770  140.7120 O   0  0  0  0  0  0  0  0  0  0  0  0
  183.8660  178.3890  141.3950 C   0  0  0  0  0  0  0  0  0  0  0  0
  182.4780  178.2840  140.9890 N   0  0  0  0  0  0  0  0  0  0  0  0
  180.8110  177.3580  139.0570 C   0  0  2  0  0  3  0  0  0  0  0  0
  179.8040  178.2860  138.2240 C   0  0  0  0  0  2  0  0  0  0  0  0
  180.4560  179.3400  137.2210 C   0  0  2  0  0  0  0  0  0  0  0  0
  182.0500  179.5650  138.9910 N   0  0  0  0  0  2  0  0  0  0  0  0
  180.1940  178.8360  135.8150 C   0  0  0  0  0  2  0  0  0  0  0  0
  179.4680  179.9270  135.0270 C   0  0  0  0  0  2  0  0  0  0  0  0
  179.7160  181.2300  135.7090 C   0  0  1  0  0  3  0  0  0  0  0  0
  181.9110  178.2430  139.6770 C   0  0  1  0  0  3  0  0  0  0  0  0
  181.9060  179.3640  137.5470 C   0  0  0  0  0  2  0  0  0  0  0  0
  179.9980  180.8310  137.1490 C   0  0  2  0  0  3  0  0  0  0  0  0
  179.5580  182.0740  139.4260 C   0  0  0  0  0  2  0  0  0  0  0  0
  180.3770  181.9190  138.1760 C   0  0  2  0  0  3  0  0  0  0  0  0
  179.3530  182.9140  138.3070 O   0  0  0  0  0  0  0  0  0  0  0  0
  180.5750  175.5440  137.3920 O   0  0  0  0  0  1  0  0  0  0  0  0
  182.2800  175.4080  138.8940 O   0  0  0  0  0  1  0  0  0  0  0  0
  181.4740  176.2920  138.1410 C   0  0  0  0  0  3  0  0  0  0  0  0
  180.8540  183.2970  134.9840 O   0  0  0  0  0  1  0  0  0  0  0  0
  180.8040  181.9180  134.8620 C   0  0  0  0  0  2  0  0  0  0  0  0
  1  4  2  0  0  0  0
  2  1  1  0  0  0  0
  5  4  1  0  0  0  0
  5  3  2  0  0  0  0
  6  5  1  0  0  0  0
  7 38  1  6  0  0  0
  7  6  1  0  0  0  0
  7  2  1  0  0  0  0
  8  2  2  0  0  0  0
 10  3  1  0  0  0  0
 10  9  2  0  0  0  0
 12 18  1  0  0  0  0
 13 16  1  0  0  0  0
 14 13  1  0  0  0  0
 14 19  1  0  0  0  0
 15 11  1  0  0  0  0
 16 15  1  0  0  0  0
 17 11  1  0  0  0  0
 17 10  1  1  0  0  0
 18 17  1  0  0  0  0
 19 12  1  0  0  0  0
 20 28  1  0  0  0  0
 20 22  1  0  0  0  0
 22 14  1  0  0  0  0
 23 25  1  0  0  0  0
 24 30  1  0  0  0  0
 24 23  2  0  0  0  0
 25 29  1  0  0  0  0
 25 22  2  0  0  0  0
 26 30  1  0  0  0  0
 26 27  1  0  0  0  0
 27 28  1  0  0  0  0
 28 21  2  0  0  0  0
 30 20  2  0  0  0  0
 31 27  1  0  0  0  0
 33 37  1  0  0  0  0
 34 32  1  0  0  0  0
 35 36  1  0  0  0  0
 35 33  2  0  0  0  0
 36 34  1  0  0  0  0
 37 32  2  0  0  0  0
 37 31  1  0  0  0  0
 40 41  2  0  0  0  0
 41 38  1  0  0  0  0
 42 41  1  0  0  0  0
 42 39  1  0  0  0  0
 43 58  1  6  0  0  0
 43 50  1  0  0  0  0
 44 43  1  0  0  0  0
 45 47  1  6  0  0  0
 45 51  1  0  0  0  0
 45 44  1  0  0  0  0
 46 50  1  0  0  0  0
 48 49  1  0  0  0  0
 48 47  1  0  0  0  0
 49 60  1  6  0  0  0
 49 52  1  0  0  0  0
 50 42  1  1  0  0  0
 51 46  1  0  0  0  0
 52 45  1  0  0  0  0
 52 54  1  6  0  0  0
 54 55  1  0  0  0  0
 54 53  1  1  0  0  0
 55 53  1  0  0  0  0
 56 58  1  0  0  0  0
 58 57  1  0  0  0  0
 60 59  1  0  0  0  0
M  END
>  <MODEL>
3

>  <REMARK>
 VINA RESULT:      -9.1      1.949      3.664
  Name = 
  11 active torsions:
  status: ('A' for Active; 'I' for Inactive)
    1  A    between atoms: C_3  and  C_35
    2  A    between atoms: C_11  and  C_54
    3  A    between atoms: C_12  and  N_39
    4  A    between atoms: C_12  and  C_49
    5  A    between atoms: O_19  and  C_33
    6  A    between atoms: O_19  and  C_58
    7  A    between atoms: C_21  and  C_28
    8  A    between atoms: C_22  and  N_38
    9  A    between atoms: C_34  and  N_56
   10  A    between atoms: N_36  and  C_59
   11  A    between atoms: C_45  and  C_59
                            x       y       z     vdW  Elec       q    Type
                         _______ _______ _______ _____ _____    ______ ____

>  <TORSDO>
F 11

$$$$
=
 OpenBabel11062417223D

 60 67  0  0  1  0  0  0  0  0999 V2000
  190.0380  174.1730  137.2880 N   0  0  0  0  0  0  0  0  0  0  0  0
  190.9680  175.1790  137.3150 C   0  0  0  0  0  0  0  0  0  0  0  0
  187.3450  175.7010  135.7120 N   0  0  0  0  0  0  0  0  0  0  0  0
  188.8190  174.3760  136.8810 C   0  0  0  0  0  3  0  0  0  0  0  0
  188.4420  175.6930  136.4200 C   0  0  0  0  0  0  0  0  0  0  0  0
  189.1350  176.9040  136.9550 C   0  0  0  0  0  2  0  0  0  0  0  0
  190.6420  176.6390  137.3710 C   0  0  1  0  0  3  0  0  0  0  0  0
  192.2390  174.8520  137.3460 O   0  0  0  0  0  0  0  0  0  0  0  0
  186.8510  177.7390  134.6080 O   0  0  0  0  0  0  0  0  0  0  0  0
  186.4700  176.6920  135.2140 C   0  0  0  0  0  0  0  0  0  0  0  0
  184.3880  175.3780  134.7150 C   0  0  0  0  0  2  0  0  0  0  0  0
  183.7210  176.1630  137.7720 C   0  0  0  0  0  2  0  0  0  0  0  0
  181.1570  175.2480  136.5110 C   0  0  0  0  0  2  0  0  0  0  0  0
  181.4280  176.5190  137.2210 N   0  0  0  0  0  0  0  0  0  0  0  0
  183.2570  174.5410  135.3380 C   0  0  0  0  0  2  0  0  0  0  0  0
  181.8640  175.1470  135.1540 C   0  0  0  0  0  2  0  0  0  0  0  0
  185.0300  176.5090  135.5830 C   0  0  1  0  0  3  0  0  0  0  0  0
  185.0630  176.2100  137.0780 C   0  0  0  0  0  2  0  0  0  0  0  0
  182.7680  177.1030  137.1000 C   0  0  0  0  0  2  0  0  0  0  0  0
  180.2180  178.5450  138.0500 C   0  0  0  0  0  0  0  0  0  0  0  0
  180.3230  179.1650  135.6930 O   0  0  0  0  0  0  0  0  0  0  0  0
  180.5830  177.1600  138.1600 C   0  0  0  0  0  0  0  0  0  0  0  0
  179.8970  177.3220  140.5230 C   0  0  0  0  0  3  0  0  0  0  0  0
  179.6570  178.6500  140.3830 N   0  0  0  0  0  0  0  0  0  0  0  0
  180.3020  176.5570  139.4230 C   0  0  0  0  0  0  0  0  0  0  0  0
  179.3190  180.6160  138.8060 C   0  0  0  0  0  2  0  0  0  0  0  0
  179.4220  180.6280  137.3370 N   0  0  0  0  0  0  0  0  0  0  0  0
  180.0390  179.4150  136.9190 C   0  0  0  0  0  0  0  0  0  0  0  0
  180.4280  175.2020  139.5700 F   0  0  0  0  0  0  0  0  0  0  0  0
  179.7930  179.2350  139.1290 C   0  0  0  0  0  0  0  0  0  0  0  0
  179.0470  181.8410  136.5980 C   0  0  0  0  0  2  0  0  0  0  0  0
  181.1170  182.7490  137.4650 C   0  0  0  0  0  3  0  0  0  0  0  0
  179.7230  184.2950  136.2140 C   0  0  0  0  0  3  0  0  0  0  0  0
  182.1080  183.8450  137.6390 C   0  0  0  0  0  2  0  0  0  0  0  0
  180.3710  185.3130  136.6720 N   0  0  0  0  0  0  0  0  0  0  0  0
  181.3830  185.1900  137.7360 C   0  0  0  0  0  2  0  0  0  0  0  0
  180.0090  182.9560  136.7340 C   0  0  0  0  0  0  0  0  0  0  0  0
  190.9600  177.0600  138.6840 O   0  0  0  0  0  0  0  0  0  0  0  0
  191.7560  177.5060  141.3220 C   0  0  0  0  0  1  0  0  0  0  0  0
  189.2660  178.5570  139.2240 O   0  0  0  0  0  0  0  0  0  0  0  0
  190.0850  177.6460  139.6020 C   0  0  0  0  0  0  0  0  0  0  0  0
  190.3480  177.5510  141.0240 N   0  0  0  0  0  0  0  0  0  0  0  0
  188.0480  177.1070  142.3960 C   0  0  2  0  0  3  0  0  0  0  0  0
  187.9950  176.5370  143.8940 C   0  0  0  0  0  2  0  0  0  0  0  0
  188.5540  177.4850  145.0470 C   0  0  2  0  0  0  0  0  0  0  0  0
  190.1950  178.0100  143.3870 N   0  0  0  0  0  2  0  0  0  0  0  0
  187.3580  177.9760  145.8370 C   0  0  0  0  0  2  0  0  0  0  0  0
  187.5560  177.6150  147.3100 C   0  0  0  0  0  2  0  0  0  0  0  0
  189.0120  177.3820  147.5340 C   0  0  1  0  0  3  0  0  0  0  0  0
  189.4510  177.6860  142.1300 C   0  0  1  0  0  3  0  0  0  0  0  0
  189.2600  178.5940  144.3520 C   0  0  0  0  0  2  0  0  0  0  0  0
  189.5240  176.9780  146.1600 C   0  0  2  0  0  3  0  0  0  0  0  0
  191.6200  175.4060  146.4070 C   0  0  0  0  0  2  0  0  0  0  0  0
  191.0320  176.7150  145.9610 C   0  0  2  0  0  3  0  0  0  0  0  0
  191.7210  176.5660  147.2100 O   0  0  0  0  0  0  0  0  0  0  0  0
  185.7770  177.9900  142.8240 O   0  0  0  0  0  1  0  0  0  0  0  0
  186.7440  178.4400  140.8120 O   0  0  0  0  0  1  0  0  0  0  0  0
  186.9890  178.2250  142.1870 C   0  0  0  0  0  3  0  0  0  0  0  0
  190.4990  178.4810  149.1700 O   0  0  0  0  0  1  0  0  0  0  0  0
  189.5200  178.6710  148.2080 C   0  0  0  0  0  2  0  0  0  0  0  0
  1  2  1  0  0  0  0
  2  8  2  0  0  0  0
  2  7  1  0  0  0  0
  3  5  2  0  0  0  0
  4  1  2  0  0  0  0
  5  4  1  0  0  0  0
  5  6  1  0  0  0  0
  6  7  1  0  0  0  0
  7 38  1  1  0  0  0
  9 10  2  0  0  0  0
 10  3  1  0  0  0  0
 11 15  1  0  0  0  0
 11 17  1  0  0  0  0
 13 14  1  0  0  0  0
 14 22  1  0  0  0  0
 16 15  1  0  0  0  0
 16 13  1  0  0  0  0
 17 10  1  6  0  0  0
 17 18  1  0  0  0  0
 18 12  1  0  0  0  0
 19 14  1  0  0  0  0
 19 12  1  0  0  0  0
 20 22  2  0  0  0  0
 20 30  1  0  0  0  0
 21 28  2  0  0  0  0
 22 25  1  0  0  0  0
 24 23  1  0  0  0  0
 25 29  1  0  0  0  0
 25 23  2  0  0  0  0
 26 30  1  0  0  0  0
 27 26  1  0  0  0  0
 28 27  1  0  0  0  0
 28 20  1  0  0  0  0
 30 24  2  0  0  0  0
 31 37  1  0  0  0  0
 31 27  1  0  0  0  0
 32 34  1  0  0  0  0
 33 35  2  0  0  0  0
 33 37  1  0  0  0  0
 34 36  1  0  0  0  0
 35 36  1  0  0  0  0
 37 32  2  0  0  0  0
 38 41  1  0  0  0  0
 40 41  2  0  0  0  0
 41 42  1  0  0  0  0
 42 39  1  0  0  0  0
 43 58  1  1  0  0  0
 43 44  1  0  0  0  0
 45 44  1  6  0  0  0
 45 47  1  0  0  0  0
 45 52  1  0  0  0  0
 46 51  1  0  0  0  0
 47 48  1  0  0  0  0
 48 49  1  0  0  0  0
 49 60  1  6  0  0  0
 50 42  1  1  0  0  0
 50 43  1  0  0  0  0
 50 46  1  0  0  0  0
 51 45  1  0  0  0  0
 52 54  1  6  0  0  0
 52 49  1  0  0  0  0
 53 55  1  0  0  0  0
 54 53  1  6  0  0  0
 54 55  1  0  0  0  0
 57 58  1  0  0  0  0
 58 56  1  0  0  0  0
 60 59  1  0  0  0  0
M  END
>  <MODEL>
4

>  <REMARK>
 VINA RESULT:      -8.9      2.830     11.665
  Name = 
  11 active torsions:
  status: ('A' for Active; 'I' for Inactive)
    1  A    between atoms: C_3  and  C_35
    2  A    between atoms: C_11  and  C_54
    3  A    between atoms: C_12  and  N_39
    4  A    between atoms: C_12  and  C_49
    5  A    between atoms: O_19  and  C_33
    6  A    between atoms: O_19  and  C_58
    7  A    between atoms: C_21  and  C_28
    8  A    between atoms: C_22  and  N_38
    9  A    between atoms: C_34  and  N_56
   10  A    between atoms: N_36  and  C_59
   11  A    between atoms: C_45  and  C_59
                            x       y       z     vdW  Elec       q    Type
                         _______ _______ _______ _____ _____    ______ ____

>  <TORSDO>
F 11

$$$$
=
 OpenBabel11062417223D

 60 67  0  0  1  0  0  0  0  0999 V2000
  189.9610  176.3580  144.4690 N   0  0  0  0  0  0  0  0  0  0  0  0
  189.6250  176.2050  143.1500 C   0  0  0  0  0  0  0  0  0  0  0  0
  187.1560  177.9470  145.7660 N   0  0  0  0  0  0  0  0  0  0  0  0
  189.2150  177.0340  145.2950 C   0  0  0  0  0  3  0  0  0  0  0  0
  187.9840  177.6180  144.8120 C   0  0  0  0  0  0  0  0  0  0  0  0
  187.8530  178.0150  143.3770 C   0  0  0  0  0  2  0  0  0  0  0  0
  188.7160  177.1220  142.3920 C   0  0  1  0  0  3  0  0  0  0  0  0
  190.1700  175.2190  142.4780 O   0  0  0  0  0  0  0  0  0  0  0  0
  185.6150  179.3630  146.8780 O   0  0  0  0  0  0  0  0  0  0  0  0
  185.9630  178.6970  145.8560 C   0  0  0  0  0  0  0  0  0  0  0  0
  183.5550  178.8150  145.1490 C   0  0  0  0  0  2  0  0  0  0  0  0
  184.9110  179.4340  142.2880 C   0  0  0  0  0  2  0  0  0  0  0  0
  182.0480  178.6990  141.7730 C   0  0  0  0  0  2  0  0  0  0  0  0
  183.2680  178.1070  141.1790 N   0  0  0  0  0  0  0  0  0  0  0  0
  182.5820  179.4120  144.1170 C   0  0  0  0  0  2  0  0  0  0  0  0
  181.8700  178.3640  143.2590 C   0  0  0  0  0  2  0  0  0  0  0  0
  185.0260  178.5380  144.6980 C   0  0  1  0  0  3  0  0  0  0  0  0
  185.5570  179.5130  143.6520 C   0  0  0  0  0  2  0  0  0  0  0  0
  184.4720  178.0280  142.0130 C   0  0  0  0  0  2  0  0  0  0  0  0
  182.8990  176.5720  139.2400 C   0  0  0  0  0  0  0  0  0  0  0  0
  180.8890  176.0000  140.4990 O   0  0  0  0  0  0  0  0  0  0  0  0
  183.4630  177.7580  139.8210 C   0  0  0  0  0  0  0  0  0  0  0  0
  185.0110  177.7800  137.9010 C   0  0  0  0  0  3  0  0  0  0  0  0
  184.5000  176.6070  137.4500 N   0  0  0  0  0  0  0  0  0  0  0  0
  184.4760  178.3940  139.0390 C   0  0  0  0  0  0  0  0  0  0  0  0
  182.6270  174.8930  137.5740 C   0  0  0  0  0  2  0  0  0  0  0  0
  181.4690  174.8780  138.4840 N   0  0  0  0  0  0  0  0  0  0  0  0
  181.6980  175.8320  139.5170 C   0  0  0  0  0  0  0  0  0  0  0  0
  184.9370  179.6290  139.4040 F   0  0  0  0  0  0  0  0  0  0  0  0
  183.4220  176.0360  138.1170 C   0  0  0  0  0  0  0  0  0  0  0  0
  180.4170  173.8710  138.2980 C   0  0  0  0  0  2  0  0  0  0  0  0
  181.3260  171.8840  137.2560 C   0  0  0  0  0  3  0  0  0  0  0  0
  180.1520  173.4110  135.7780 C   0  0  0  0  0  3  0  0  0  0  0  0
  181.5530  170.9900  136.0880 C   0  0  0  0  0  2  0  0  0  0  0  0
  180.6590  172.8520  134.7310 N   0  0  0  0  0  0  0  0  0  0  0  0
  181.7150  171.8280  134.8170 C   0  0  0  0  0  2  0  0  0  0  0  0
  180.6060  173.0090  137.1110 C   0  0  0  0  0  0  0  0  0  0  0  0
  189.5480  177.8650  141.5210 O   0  0  0  0  0  0  0  0  0  0  0  0
  188.3370  178.1190  139.0200 C   0  0  0  0  0  1  0  0  0  0  0  0
  191.4570  177.4580  140.2580 O   0  0  0  0  0  0  0  0  0  0  0  0
  190.1830  177.3860  140.3710 C   0  0  0  0  0  0  0  0  0  0  0  0
  189.4270  177.1870  139.1510 N   0  0  0  0  0  0  0  0  0  0  0  0
  189.6220  176.6160  136.5040 C   0  0  2  0  0  3  0  0  0  0  0  0
  190.9600  176.0840  135.7990 C   0  0  0  0  0  2  0  0  0  0  0  0
  191.4530  174.6210  136.1980 C   0  0  2  0  0  0  0  0  0  0  0  0
  190.7240  175.3090  138.3700 N   0  0  0  0  0  2  0  0  0  0  0  0
  191.1900  173.7240  135.0040 C   0  0  0  0  0  2  0  0  0  0  0  0
  192.5010  173.0510  134.5940 C   0  0  0  0  0  2  0  0  0  0  0  0
  193.4280  173.0990  135.7620 C   0  0  1  0  0  3  0  0  0  0  0  0
  189.7180  176.3600  138.0200 C   0  0  1  0  0  3  0  0  0  0  0  0
  190.6420  174.2310  137.3820 C   0  0  0  0  0  2  0  0  0  0  0  0
  192.9380  174.3000  136.5570 C   0  0  2  0  0  3  0  0  0  0  0  0
  193.9120  176.0790  138.2330 C   0  0  0  0  0  2  0  0  0  0  0  0
  193.6120  174.6440  137.9020 C   0  0  2  0  0  3  0  0  0  0  0  0
  194.9110  175.2220  137.7180 O   0  0  0  0  0  0  0  0  0  0  0  0
  187.4960  176.7090  135.2430 O   0  0  0  0  0  1  0  0  0  0  0  0
  187.6520  175.2440  136.9790 O   0  0  0  0  0  1  0  0  0  0  0  0
  188.3690  175.8870  135.9440 C   0  0  0  0  0  3  0  0  0  0  0  0
  193.2200  170.6590  135.4510 O   0  0  0  0  0  1  0  0  0  0  0  0
  193.3690  171.6850  136.3710 C   0  0  0  0  0  2  0  0  0  0  0  0
  1  4  2  0  0  0  0
  2  1  1  0  0  0  0
  3 10  1  0  0  0  0
  5  4  1  0  0  0  0
  5  3  2  0  0  0  0
  6  5  1  0  0  0  0
  7 38  1  6  0  0  0
  7  2  1  0  0  0  0
  7  6  1  0  0  0  0
  8  2  2  0  0  0  0
 10  9  2  0  0  0  0
 12 18  1  0  0  0  0
 13 16  1  0  0  0  0
 14 13  1  0  0  0  0
 14 19  1  0  0  0  0
 15 11  1  0  0  0  0
 16 15  1  0  0  0  0
 17 11  1  0  0  0  0
 17 10  1  1  0  0  0
 18 17  1  0  0  0  0
 19 12  1  0  0  0  0
 20 28  1  0  0  0  0
 20 22  1  0  0  0  0
 22 14  1  0  0  0  0
 23 25  1  0  0  0  0
 24 23  2  0  0  0  0
 24 30  1  0  0  0  0
 25 29  1  0  0  0  0
 25 22  2  0  0  0  0
 26 30  1  0  0  0  0
 26 27  1  0  0  0  0
 27 28  1  0  0  0  0
 28 21  2  0  0  0  0
 30 20  2  0  0  0  0
 31 27  1  0  0  0  0
 33 37  1  0  0  0  0
 34 32  1  0  0  0  0
 35 36  1  0  0  0  0
 35 33  2  0  0  0  0
 36 34  1  0  0  0  0
 37 32  2  0  0  0  0
 37 31  1  0  0  0  0
 39 42  1  0  0  0  0
 40 41  2  0  0  0  0
 41 38  1  0  0  0  0
 42 41  1  0  0  0  0
 43 58  1  6  0  0  0
 43 50  1  0  0  0  0
 44 45  1  0  0  0  0
 44 43  1  0  0  0  0
 45 47  1  6  0  0  0
 45 52  1  0  0  0  0
 45 51  1  0  0  0  0
 48 47  1  0  0  0  0
 48 49  1  0  0  0  0
 49 60  1  1  0  0  0
 49 52  1  0  0  0  0
 50 46  1  0  0  0  0
 50 42  1  1  0  0  0
 51 46  1  0  0  0  0
 52 54  1  1  0  0  0
 54 53  1  6  0  0  0
 55 54  1  0  0  0  0
 55 53  1  0  0  0  0
 56 58  1  0  0  0  0
 58 57  1  0  0  0  0
 59 60  1  0  0  0  0
M  END
>  <MODEL>
5

>  <REMARK>
 VINA RESULT:      -8.8      3.310      9.789
  Name = 
  11 active torsions:
  status: ('A' for Active; 'I' for Inactive)
    1  A    between atoms: C_3  and  C_35
    2  A    between atoms: C_11  and  C_54
    3  A    between atoms: C_12  and  N_39
    4  A    between atoms: C_12  and  C_49
    5  A    between atoms: O_19  and  C_33
    6  A    between atoms: O_19  and  C_58
    7  A    between atoms: C_21  and  C_28
    8  A    between atoms: C_22  and  N_38
    9  A    between atoms: C_34  and  N_56
   10  A    between atoms: N_36  and  C_59
   11  A    between atoms: C_45  and  C_59
                            x       y       z     vdW  Elec       q    Type
                         _______ _______ _______ _____ _____    ______ ____

>  <TORSDO>
F 11

$$$$
=
 OpenBabel11062417223D

 60 67  0  0  1  0  0  0  0  0999 V2000
  190.1060  177.7450  137.4630 N   0  0  0  0  0  0  0  0  0  0  0  0
  189.0100  178.5680  137.4550 C   0  0  0  0  0  0  0  0  0  0  0  0
  188.7000  174.6400  136.7860 N   0  0  0  0  0  0  0  0  0  0  0  0
  189.9930  176.4520  137.3690 C   0  0  0  0  0  3  0  0  0  0  0  0
  188.6780  175.8690  137.2280 C   0  0  0  0  0  0  0  0  0  0  0  0
  187.4830  176.5630  137.7950 C   0  0  0  0  0  2  0  0  0  0  0  0
  187.6230  178.1420  137.8240 C   0  0  1  0  0  3  0  0  0  0  0  0
  189.1830  179.8340  137.1540 O   0  0  0  0  0  0  0  0  0  0  0  0
  188.0700  172.3680  136.5470 O   0  0  0  0  0  0  0  0  0  0  0  0
  187.7600  173.5930  136.6620 C   0  0  0  0  0  0  0  0  0  0  0  0
  185.8990  173.9760  135.0190 C   0  0  0  0  0  2  0  0  0  0  0  0
  184.1000  173.4260  137.6400 C   0  0  0  0  0  2  0  0  0  0  0  0
  182.3170  174.7040  135.5930 C   0  0  0  0  0  2  0  0  0  0  0  0
  182.5620  175.1300  136.9900 N   0  0  0  0  0  0  0  0  0  0  0  0
  184.4240  173.6700  134.7060 C   0  0  0  0  0  2  0  0  0  0  0  0
  183.5270  174.9100  134.6730 C   0  0  0  0  0  2  0  0  0  0  0  0
  186.3350  174.0340  136.5190 C   0  0  1  0  0  3  0  0  0  0  0  0
  185.5600  173.0930  137.4360 C   0  0  0  0  0  2  0  0  0  0  0  0
  183.8980  174.9080  137.5530 C   0  0  0  0  0  2  0  0  0  0  0  0
  181.5830  176.9150  138.4410 C   0  0  0  0  0  0  0  0  0  0  0  0
  182.6390  178.3720  136.7940 O   0  0  0  0  0  0  0  0  0  0  0  0
  181.5920  175.5770  137.9190 C   0  0  0  0  0  0  0  0  0  0  0  0
  180.1660  174.9790  139.8390 C   0  0  0  0  0  3  0  0  0  0  0  0
  180.2700  176.2380  140.3340 N   0  0  0  0  0  0  0  0  0  0  0  0
  180.7650  174.6470  138.6190 C   0  0  0  0  0  0  0  0  0  0  0  0
  180.9230  178.6590  139.9210 C   0  0  0  0  0  2  0  0  0  0  0  0
  181.5380  179.2400  138.7150 N   0  0  0  0  0  0  0  0  0  0  0  0
  181.9980  178.1760  137.8890 C   0  0  0  0  0  0  0  0  0  0  0  0
  180.5490  173.4030  138.0920 F   0  0  0  0  0  0  0  0  0  0  0  0
  180.9570  177.1990  139.6020 C   0  0  0  0  0  0  0  0  0  0  0  0
  181.7070  180.6960  138.6210 C   0  0  0  0  0  2  0  0  0  0  0  0
  180.8370  181.4060  136.4770 C   0  0  0  0  0  3  0  0  0  0  0  0
  179.5700  182.1180  138.4230 C   0  0  0  0  0  3  0  0  0  0  0  0
  179.8290  182.0890  135.6210 C   0  0  0  0  0  2  0  0  0  0  0  0
  178.9310  183.0030  137.7340 N   0  0  0  0  0  0  0  0  0  0  0  0
  179.2880  183.3270  136.3410 C   0  0  0  0  0  2  0  0  0  0  0  0
  180.6730  181.3760  137.8100 C   0  0  0  0  0  0  0  0  0  0  0  0
  187.3590  178.7220  139.0880 O   0  0  0  0  0  0  0  0  0  0  0  0
  185.3570  178.6280  141.0300 C   0  0  0  0  0  1  0  0  0  0  0  0
  188.3660  177.1130  140.4300 O   0  0  0  0  0  0  0  0  0  0  0  0
  187.6030  178.1390  140.3340 C   0  0  0  0  0  0  0  0  0  0  0  0
  186.7160  178.4030  141.4490 N   0  0  0  0  0  0  0  0  0  0  0  0
  186.0640  177.7890  144.0120 C   0  0  2  0  0  3  0  0  0  0  0  0
  186.9160  176.7980  144.9400 C   0  0  0  0  0  2  0  0  0  0  0  0
  188.3680  177.2900  145.3790 C   0  0  2  0  0  0  0  0  0  0  0  0
  188.4150  178.1320  143.1400 N   0  0  0  0  0  2  0  0  0  0  0  0
  188.2940  177.6320  146.8530 C   0  0  0  0  0  2  0  0  0  0  0  0
  189.3530  176.8210  147.6020 C   0  0  0  0  0  2  0  0  0  0  0  0
  190.3840  176.3890  146.6150 C   0  0  1  0  0  3  0  0  0  0  0  0
  186.9540  178.2820  142.8540 C   0  0  1  0  0  3  0  0  0  0  0  0
  188.6600  178.4830  144.5400 C   0  0  0  0  0  2  0  0  0  0  0  0
  189.6300  176.3750  145.2940 C   0  0  2  0  0  3  0  0  0  0  0  0
  191.7240  175.3570  144.0690 C   0  0  0  0  0  2  0  0  0  0  0  0
  190.3880  176.0380  143.9920 C   0  0  2  0  0  3  0  0  0  0  0  0
  191.6250  176.7560  143.8910 O   0  0  0  0  0  0  0  0  0  0  0  0
  184.8540  178.6900  145.9730 O   0  0  0  0  0  1  0  0  0  0  0  0
  184.7540  179.8570  144.0200 O   0  0  0  0  0  1  0  0  0  0  0  0
  185.5590  179.0170  144.8220 C   0  0  0  0  0  3  0  0  0  0  0  0
  192.0160  177.4460  148.1360 O   0  0  0  0  0  1  0  0  0  0  0  0
  191.5650  177.3550  146.8280 C   0  0  0  0  0  2  0  0  0  0  0  0
  2  1  1  0  0  0  0
  2  7  1  0  0  0  0
  3  5  2  0  0  0  0
  4  1  2  0  0  0  0
  5  4  1  0  0  0  0
  5  6  1  0  0  0  0
  6  7  1  0  0  0  0
  7 38  1  1  0  0  0
  8  2  2  0  0  0  0
  9 10  2  0  0  0  0
 10  3  1  0  0  0  0
 11 17  1  0  0  0  0
 13 14  1  0  0  0  0
 14 19  1  0  0  0  0
 14 22  1  0  0  0  0
 15 11  1  0  0  0  0
 16 15  1  0  0  0  0
 16 13  1  0  0  0  0
 17 10  1  6  0  0  0
 17 18  1  0  0  0  0
 18 12  1  0  0  0  0
 19 12  1  0  0  0  0
 20 30  1  0  0  0  0
 21 28  2  0  0  0  0
 22 20  2  0  0  0  0
 22 25  1  0  0  0  0
 23 24  1  0  0  0  0
 25 23  2  0  0  0  0
 27 26  1  0  0  0  0
 28 20  1  0  0  0  0
 28 27  1  0  0  0  0
 29 25  1  0  0  0  0
 30 26  1  0  0  0  0
 30 24  2  0  0  0  0
 31 27  1  0  0  0  0
 32 37  2  0  0  0  0
 34 36  1  0  0  0  0
 34 32  1  0  0  0  0
 35 33  2  0  0  0  0
 36 35  1  0  0  0  0
 37 33  1  0  0  0  0
 37 31  1  0  0  0  0
 38 41  1  0  0  0  0
 39 42  1  0  0  0  0
 41 40  2  0  0  0  0
 41 42  1  0  0  0  0
 43 58  1  1  0  0  0
 43 44  1  0  0  0  0
 44 45  1  0  0  0  0
 45 51  1  6  0  0  0
 45 47  1  0  0  0  0
 46 51  1  0  0  0  0
 47 48  1  0  0  0  0
 49 60  1  6  0  0  0
 49 48  1  0  0  0  0
 50 42  1  6  0  0  0
 50 46  1  0  0  0  0
 50 43  1  0  0  0  0
 52 54  1  6  0  0  0
 52 45  1  0  0  0  0
 52 49  1  0  0  0  0
 54 53  1  1  0  0  0
 55 54  1  0  0  0  0
 55 53  1  0  0  0  0
 57 58  1  0  0  0  0
 58 56  1  0  0  0  0
 60 59  1  0  0  0  0
M  END
>  <MODEL>
6

>  <REMARK>
 VINA RESULT:      -8.7      3.011     11.017
  Name = 
  11 active torsions:
  status: ('A' for Active; 'I' for Inactive)
    1  A    between atoms: C_3  and  C_35
    2  A    between atoms: C_11  and  C_54
    3  A    between atoms: C_12  and  N_39
    4  A    between atoms: C_12  and  C_49
    5  A    between atoms: O_19  and  C_33
    6  A    between atoms: O_19  and  C_58
    7  A    between atoms: C_21  and  C_28
    8  A    between atoms: C_22  and  N_38
    9  A    between atoms: C_34  and  N_56
   10  A    between atoms: N_36  and  C_59
   11  A    between atoms: C_45  and  C_59
                            x       y       z     vdW  Elec       q    Type
                         _______ _______ _______ _____ _____    ______ ____

>  <TORSDO>
F 11

$$$$
=
 OpenBabel11062417223D

 60 67  0  0  1  0  0  0  0  0999 V2000
  192.1630  174.9320  136.4500 N   0  0  0  0  0  0  0  0  0  0  0  0
  191.3970  173.7960  136.4460 C   0  0  0  0  0  0  0  0  0  0  0  0
  190.5420  176.9050  138.8070 N   0  0  0  0  0  0  0  0  0  0  0  0
  191.8170  175.9910  137.1240 C   0  0  0  0  0  3  0  0  0  0  0  0
  190.6040  175.9590  137.9100 C   0  0  0  0  0  0  0  0  0  0  0  0
  189.4700  175.0730  137.5070 C   0  0  0  0  0  2  0  0  0  0  0  0
  189.9330  173.7550  136.7550 C   0  0  1  0  0  3  0  0  0  0  0  0
  191.9630  172.6650  136.0980 O   0  0  0  0  0  0  0  0  0  0  0  0
  188.5820  178.1550  139.2690 O   0  0  0  0  0  0  0  0  0  0  0  0
  189.5440  177.4260  139.6600 C   0  0  0  0  0  0  0  0  0  0  0  0
  191.1650  176.5130  141.3500 C   0  0  0  0  0  2  0  0  0  0  0  0
  189.6340  178.6130  143.2600 C   0  0  0  0  0  2  0  0  0  0  0  0
  191.1390  176.7260  145.0420 C   0  0  0  0  0  2  0  0  0  0  0  0
  189.6980  177.0670  145.0760 N   0  0  0  0  0  0  0  0  0  0  0  0
  191.9120  176.8190  142.6580 C   0  0  0  0  0  2  0  0  0  0  0  0
  191.5380  175.8930  143.8180 C   0  0  0  0  0  2  0  0  0  0  0  0
  189.7730  177.1890  141.1220 C   0  0  1  0  0  3  0  0  0  0  0  0
  189.6370  178.5720  141.7500 C   0  0  0  0  0  2  0  0  0  0  0  0
  189.0290  177.3540  143.8030 C   0  0  0  0  0  2  0  0  0  0  0  0
  187.5920  177.8720  146.1580 C   0  0  0  0  0  0  0  0  0  0  0  0
  186.6390  177.2580  143.9980 O   0  0  0  0  0  0  0  0  0  0  0  0
  188.9180  177.3230  146.2290 C   0  0  0  0  0  0  0  0  0  0  0  0
  188.9210  178.0320  148.5910 C   0  0  0  0  0  3  0  0  0  0  0  0
  187.7060  178.6160  148.4380 N   0  0  0  0  0  0  0  0  0  0  0  0
  189.5120  177.3400  147.5280 C   0  0  0  0  0  0  0  0  0  0  0  0
  185.6130  178.8770  147.0190 C   0  0  0  0  0  2  0  0  0  0  0  0
  185.3350  178.2920  145.6960 N   0  0  0  0  0  0  0  0  0  0  0  0
  186.5520  177.7740  145.1690 C   0  0  0  0  0  0  0  0  0  0  0  0
  190.6840  176.6680  147.7450 F   0  0  0  0  0  0  0  0  0  0  0  0
  187.0450  178.4960  147.2210 C   0  0  0  0  0  0  0  0  0  0  0  0
  184.0010  178.4480  145.1040 C   0  0  0  0  0  2  0  0  0  0  0  0
  183.1040  178.3110  142.8600 C   0  0  0  0  0  3  0  0  0  0  0  0
  185.0510  179.7340  143.1360 C   0  0  0  0  0  3  0  0  0  0  0  0
  183.0820  178.6860  141.4200 C   0  0  0  0  0  2  0  0  0  0  0  0
  185.2640  179.7600  141.8630 N   0  0  0  0  0  0  0  0  0  0  0  0
  184.5120  178.9120  140.9210 C   0  0  0  0  0  2  0  0  0  0  0  0
  184.0110  178.8610  143.6830 C   0  0  0  0  0  0  0  0  0  0  0  0
  189.2780  173.5360  135.5200 O   0  0  0  0  0  0  0  0  0  0  0  0
  186.8760  174.7770  134.8290 C   0  0  0  0  0  1  0  0  0  0  0  0
  188.1910  171.6190  134.7830 O   0  0  0  0  0  0  0  0  0  0  0  0
  188.1200  172.7810  135.3180 C   0  0  0  0  0  0  0  0  0  0  0  0
  186.8210  173.4240  135.3190 N   0  0  0  0  0  0  0  0  0  0  0  0
  185.0660  171.5880  136.2770 C   0  0  2  0  0  3  0  0  0  0  0  0
  183.8190  171.9470  137.2180 C   0  0  0  0  0  2  0  0  0  0  0  0
  182.6410  172.7980  136.5620 C   0  0  2  0  0  0  0  0  0  0  0  0
  184.4680  173.9220  135.5020 N   0  0  0  0  0  2  0  0  0  0  0  0
  181.4620  171.8620  136.3850 C   0  0  0  0  0  2  0  0  0  0  0  0
  180.2480  172.4550  137.1000 C   0  0  0  0  0  2  0  0  0  0  0  0
  180.4850  173.9180  137.2730 C   0  0  1  0  0  3  0  0  0  0  0  0
  185.5240  172.8630  135.5440 C   0  0  1  0  0  3  0  0  0  0  0  0
  183.1710  173.2850  135.2610 C   0  0  0  0  0  2  0  0  0  0  0  0
  182.0020  174.0360  137.2660 C   0  0  2  0  0  3  0  0  0  0  0  0
  183.2820  175.8760  138.6440 C   0  0  0  0  0  2  0  0  0  0  0  0
  182.6530  175.4320  137.3540 C   0  0  2  0  0  3  0  0  0  0  0  0
  181.9750  176.2830  138.2880 O   0  0  0  0  0  0  0  0  0  0  0  0
  183.6620  169.6550  135.6320 O   0  0  0  0  0  1  0  0  0  0  0  0
  185.8030  169.7340  134.8590 O   0  0  0  0  0  1  0  0  0  0  0  0
  184.6790  170.5090  135.2260 C   0  0  0  0  0  3  0  0  0  0  0  0
  179.3950  175.9370  136.3620 O   0  0  0  0  0  1  0  0  0  0  0  0
  179.6460  174.5880  136.1680 C   0  0  0  0  0  2  0  0  0  0  0  0
  1  4  2  0  0  0  0
  2  1  1  0  0  0  0
  2  7  1  0  0  0  0
  3 10  1  0  0  0  0
  4  5  1  0  0  0  0
  5  3  2  0  0  0  0
  6  5  1  0  0  0  0
  7 38  1  6  0  0  0
  7  6  1  0  0  0  0
  8  2  2  0  0  0  0
  9 10  2  0  0  0  0
 11 15  1  0  0  0  0
 12 19  1  0  0  0  0
 13 14  1  0  0  0  0
 14 22  1  0  0  0  0
 15 16  1  0  0  0  0
 16 13  1  0  0  0  0
 17 10  1  6  0  0  0
 17 11  1  0  0  0  0
 17 18  1  0  0  0  0
 18 12  1  0  0  0  0
 19 14  1  0  0  0  0
 20 22  2  0  0  0  0
 20 30  1  0  0  0  0
 21 28  2  0  0  0  0
 22 25  1  0  0  0  0
 24 23  1  0  0  0  0
 25 29  1  0  0  0  0
 25 23  2  0  0  0  0
 26 30  1  0  0  0  0
 27 26  1  0  0  0  0
 28 27  1  0  0  0  0
 28 20  1  0  0  0  0
 30 24  2  0  0  0  0
 31 27  1  0  0  0  0
 32 37  2  0  0  0  0
 33 37  1  0  0  0  0
 34 32  1  0  0  0  0
 35 33  2  0  0  0  0
 36 34  1  0  0  0  0
 36 35  1  0  0  0  0
 37 31  1  0  0  0  0
 39 42  1  0  0  0  0
 40 41  2  0  0  0  0
 41 42  1  0  0  0  0
 41 38  1  0  0  0  0
 43 58  1  6  0  0  0
 43 44  1  0  0  0  0
 45 51  1  6  0  0  0
 45 44  1  0  0  0  0
 45 52  1  0  0  0  0
 46 50  1  0  0  0  0
 47 45  1  0  0  0  0
 47 48  1  0  0  0  0
 48 49  1  0  0  0  0
 49 60  1  6  0  0  0
 50 42  1  1  0  0  0
 50 43  1  0  0  0  0
 51 46  1  0  0  0  0
 52 49  1  0  0  0  0
 52 54  1  6  0  0  0
 54 55  1  0  0  0  0
 54 53  1  1  0  0  0
 55 53  1  0  0  0  0
 57 58  1  0  0  0  0
 58 56  1  0  0  0  0
 60 59  1  0  0  0  0
M  END
>  <MODEL>
7

>  <REMARK>
 VINA RESULT:      -8.4      3.517      8.907
  Name = 
  11 active torsions:
  status: ('A' for Active; 'I' for Inactive)
    1  A    between atoms: C_3  and  C_35
    2  A    between atoms: C_11  and  C_54
    3  A    between atoms: C_12  and  N_39
    4  A    between atoms: C_12  and  C_49
    5  A    between atoms: O_19  and  C_33
    6  A    between atoms: O_19  and  C_58
    7  A    between atoms: C_21  and  C_28
    8  A    between atoms: C_22  and  N_38
    9  A    between atoms: C_34  and  N_56
   10  A    between atoms: N_36  and  C_59
   11  A    between atoms: C_45  and  C_59
                            x       y       z     vdW  Elec       q    Type
                         _______ _______ _______ _____ _____    ______ ____

>  <TORSDO>
F 11

$$$$
=
 OpenBabel11062417223D

 60 67  0  0  1  0  0  0  0  0999 V2000
  187.5430  176.7020  144.0400 N   0  0  0  0  0  0  0  0  0  0  0  0
  186.7550  177.7810  143.7350 C   0  0  0  0  0  0  0  0  0  0  0  0
  189.9890  176.8570  141.5760 N   0  0  0  0  0  0  0  0  0  0  0  0
  188.5220  176.3270  143.2680 C   0  0  0  0  0  3  0  0  0  0  0  0
  188.8010  177.0840  142.0690 C   0  0  0  0  0  0  0  0  0  0  0  0
  187.7050  177.8280  141.3770 C   0  0  0  0  0  2  0  0  0  0  0  0
  186.5680  178.3370  142.3580 C   0  0  1  0  0  3  0  0  0  0  0  0
  186.0700  178.3450  144.7020 O   0  0  0  0  0  0  0  0  0  0  0  0
  191.7080  177.8750  140.3020 O   0  0  0  0  0  0  0  0  0  0  0  0
  190.6600  177.1640  140.3720 C   0  0  0  0  0  0  0  0  0  0  0  0
  189.4310  177.9500  138.3260 C   0  0  0  0  0  2  0  0  0  0  0  0
  190.5240  175.1460  137.1640 C   0  0  0  0  0  2  0  0  0  0  0  0
  188.3430  176.0780  135.3270 C   0  0  0  0  0  2  0  0  0  0  0  0
  188.4660  174.7740  136.0170 N   0  0  0  0  0  0  0  0  0  0  0  0
  189.3560  177.8420  136.7940 C   0  0  0  0  0  2  0  0  0  0  0  0
  188.0460  177.2440  136.2770 C   0  0  0  0  0  2  0  0  0  0  0  0
  189.9610  176.7140  139.1250 C   0  0  1  0  0  3  0  0  0  0  0  0
  191.0110  175.8910  138.3850 C   0  0  0  0  0  2  0  0  0  0  0  0
  189.0890  174.7540  137.3450 C   0  0  0  0  0  2  0  0  0  0  0  0
  186.8760  172.9590  135.3620 C   0  0  0  0  0  0  0  0  0  0  0  0
  185.3140  174.8290  135.2280 O   0  0  0  0  0  0  0  0  0  0  0  0
  188.2030  173.4980  135.4650 C   0  0  0  0  0  0  0  0  0  0  0  0
  189.0010  171.1800  135.1890 C   0  0  0  0  0  3  0  0  0  0  0  0
  187.7250  170.7190  135.1920 N   0  0  0  0  0  0  0  0  0  0  0  0
  189.2570  172.5540  135.2660 C   0  0  0  0  0  0  0  0  0  0  0  0
  185.2480  171.2580  135.0070 C   0  0  0  0  0  2  0  0  0  0  0  0
  184.6140  172.5820  134.8870 N   0  0  0  0  0  0  0  0  0  0  0  0
  185.5880  173.5760  135.1860 C   0  0  0  0  0  0  0  0  0  0  0  0
  190.5470  172.9950  135.1480 F   0  0  0  0  0  0  0  0  0  0  0  0
  186.6760  171.6300  135.2480 C   0  0  0  0  0  0  0  0  0  0  0  0
  183.1680  172.6710  134.6470 C   0  0  0  0  0  2  0  0  0  0  0  0
  181.4560  171.6030  135.9850 C   0  0  0  0  0  3  0  0  0  0  0  0
  182.3740  173.6630  136.8850 C   0  0  0  0  0  3  0  0  0  0  0  0
  180.5970  171.5030  137.1960 C   0  0  0  0  0  2  0  0  0  0  0  0
  181.3960  173.7830  137.7190 N   0  0  0  0  0  0  0  0  0  0  0  0
  180.2120  172.9050  137.6770 C   0  0  0  0  0  2  0  0  0  0  0  0
  182.3430  172.6060  135.8730 C   0  0  0  0  0  0  0  0  0  0  0  0
  185.2600  177.9700  141.9630 O   0  0  0  0  0  0  0  0  0  0  0  0
  182.6460  178.6330  142.6830 C   0  0  0  0  0  1  0  0  0  0  0  0
  184.9250  179.5670  140.3080 O   0  0  0  0  0  0  0  0  0  0  0  0
  184.4340  178.6690  141.0790 C   0  0  0  0  0  0  0  0  0  0  0  0
  183.0000  178.6980  141.2890 N   0  0  0  0  0  0  0  0  0  0  0  0
  181.3400  180.2860  139.8420 C   0  0  2  0  0  3  0  0  0  0  0  0
  181.1770  180.1950  138.2500 C   0  0  0  0  0  2  0  0  0  0  0  0
  180.4960  178.8760  137.6690 C   0  0  2  0  0  0  0  0  0  0  0  0
  181.7730  177.8310  139.4010 N   0  0  0  0  0  2  0  0  0  0  0  0
  179.1150  179.2670  137.1810 C   0  0  0  0  0  2  0  0  0  0  0  0
  178.9810  178.8720  135.7100 C   0  0  0  0  0  2  0  0  0  0  0  0
  180.0040  177.8260  135.4180 C   0  0  1  0  0  3  0  0  0  0  0  0
  181.9460  178.9670  140.3600 C   0  0  1  0  0  3  0  0  0  0  0  0
  180.4380  177.9170  138.8040 C   0  0  0  0  0  2  0  0  0  0  0  0
  181.0840  178.0850  136.4570 C   0  0  2  0  0  3  0  0  0  0  0  0
  183.6400  177.6280  136.0300 C   0  0  0  0  0  2  0  0  0  0  0  0
  182.3070  177.1470  136.5290 C   0  0  2  0  0  3  0  0  0  0  0  0
  182.8070  176.8160  135.2260 O   0  0  0  0  0  0  0  0  0  0  0  0
  179.2780  181.6330  140.0680 O   0  0  0  0  0  1  0  0  0  0  0  0
  180.1160  180.6300  141.9330 O   0  0  0  0  0  1  0  0  0  0  0  0
  179.9670  180.5200  140.5310 C   0  0  0  0  0  3  0  0  0  0  0  0
  179.9060  175.4180  134.8840 O   0  0  0  0  0  1  0  0  0  0  0  0
  179.2220  176.4990  135.4200 C   0  0  0  0  0  2  0  0  0  0  0  0
  2  1  1  0  0  0  0
  2  8  2  0  0  0  0
  3  5  2  0  0  0  0
  4  1  2  0  0  0  0
  5  4  1  0  0  0  0
  6  5  1  0  0  0  0
  6  7  1  0  0  0  0
  7 38  1  6  0  0  0
  7  2  1  0  0  0  0
  9 10  2  0  0  0  0
 10  3  1  0  0  0  0
 11 17  1  0  0  0  0
 12 19  1  0  0  0  0
 12 18  1  0  0  0  0
 13 14  1  0  0  0  0
 13 16  1  0  0  0  0
 14 19  1  0  0  0  0
 15 11  1  0  0  0  0
 16 15  1  0  0  0  0
 17 10  1  1  0  0  0
 18 17  1  0  0  0  0
 20 22  1  0  0  0  0
 22 14  1  0  0  0  0
 23 24  2  0  0  0  0
 23 25  1  0  0  0  0
 24 30  1  0  0  0  0
 25 22  2  0  0  0  0
 26 30  1  0  0  0  0
 27 26  1  0  0  0  0
 27 28  1  0  0  0  0
 28 21  2  0  0  0  0
 28 20  1  0  0  0  0
 29 25  1  0  0  0  0
 30 20  2  0  0  0  0
 31 27  1  0  0  0  0
 31 37  1  0  0  0  0
 32 34  1  0  0  0  0
 33 35  2  0  0  0  0
 34 36  1  0  0  0  0
 36 35  1  0  0  0  0
 37 32  2  0  0  0  0
 37 33  1  0  0  0  0
 40 41  2  0  0  0  0
 41 42  1  0  0  0  0
 41 38  1  0  0  0  0
 42 39  1  0  0  0  0
 43 50  1  0  0  0  0
 43 58  1  1  0  0  0
 44 43  1  0  0  0  0
 45 47  1  6  0  0  0
 45 44  1  0  0  0  0
 45 51  1  0  0  0  0
 46 50  1  0  0  0  0
 48 47  1  0  0  0  0
 49 60  1  1  0  0  0
 49 48  1  0  0  0  0
 49 52  1  0  0  0  0
 50 42  1  6  0  0  0
 51 46  1  0  0  0  0
 52 54  1  1  0  0  0
 52 45  1  0  0  0  0
 54 53  1  1  0  0  0
 55 53  1  0  0  0  0
 55 54  1  0  0  0  0
 56 58  1  0  0  0  0
 58 57  1  0  0  0  0
 59 60  1  0  0  0  0
M  END
>  <MODEL>
8

>  <REMARK>
 VINA RESULT:      -8.4      3.294      6.714
  Name = 
  11 active torsions:
  status: ('A' for Active; 'I' for Inactive)
    1  A    between atoms: C_3  and  C_35
    2  A    between atoms: C_11  and  C_54
    3  A    between atoms: C_12  and  N_39
    4  A    between atoms: C_12  and  C_49
    5  A    between atoms: O_19  and  C_33
    6  A    between atoms: O_19  and  C_58
    7  A    between atoms: C_21  and  C_28
    8  A    between atoms: C_22  and  N_38
    9  A    between atoms: C_34  and  N_56
   10  A    between atoms: N_36  and  C_59
   11  A    between atoms: C_45  and  C_59
                            x       y       z     vdW  Elec       q    Type
                         _______ _______ _______ _____ _____    ______ ____

>  <TORSDO>
F 11

$$$$
=
 OpenBabel11062417223D

 60 67  0  0  1  0  0  0  0  0999 V2000
  191.5990  175.3340  137.7760 N   0  0  0  0  0  0  0  0  0  0  0  0
  192.2390  176.0750  138.7350 C   0  0  0  0  0  0  0  0  0  0  0  0
  189.0650  177.4820  136.7560 N   0  0  0  0  0  0  0  0  0  0  0  0
  190.4940  175.7390  137.2200 C   0  0  0  0  0  3  0  0  0  0  0  0
  189.9400  177.0180  137.6070 C   0  0  0  0  0  0  0  0  0  0  0  0
  190.1910  177.5630  138.9750 C   0  0  0  0  0  2  0  0  0  0  0  0
  191.5810  177.1120  139.5910 C   0  0  1  0  0  3  0  0  0  0  0  0
  193.5090  175.8340  138.9650 O   0  0  0  0  0  0  0  0  0  0  0  0
  188.4050  179.7430  137.0180 O   0  0  0  0  0  0  0  0  0  0  0  0
  188.1250  178.5360  136.7470 C   0  0  0  0  0  0  0  0  0  0  0  0
  186.5420  177.4140  135.1500 C   0  0  0  0  0  2  0  0  0  0  0  0
  184.9630  176.7830  137.8910 C   0  0  0  0  0  2  0  0  0  0  0  0
  183.0440  176.3110  135.6330 C   0  0  0  0  0  2  0  0  0  0  0  0
  182.8680  177.1780  136.8210 N   0  0  0  0  0  0  0  0  0  0  0  0
  185.4740  176.3150  135.0120 C   0  0  0  0  0  2  0  0  0  0  0  0
  184.0860  176.8430  134.6410 C   0  0  0  0  0  2  0  0  0  0  0  0
  186.7020  178.1130  136.5400 C   0  0  1  0  0  3  0  0  0  0  0  0
  186.4030  177.2130  137.7340 C   0  0  0  0  0  2  0  0  0  0  0  0
  184.0520  177.8510  137.3640 C   0  0  0  0  0  2  0  0  0  0  0  0
  180.8990  178.4930  137.6270 C   0  0  0  0  0  0  0  0  0  0  0  0
  181.2000  179.6270  135.4880 O   0  0  0  0  0  0  0  0  0  0  0  0
  181.7000  177.3000  137.6110 C   0  0  0  0  0  0  0  0  0  0  0  0
  180.5900  176.7110  139.7330 C   0  0  0  0  0  3  0  0  0  0  0  0
  179.9300  177.8960  139.7410 N   0  0  0  0  0  0  0  0  0  0  0  0
  181.4260  176.3730  138.6620 C   0  0  0  0  0  0  0  0  0  0  0  0
  179.2150  179.9630  138.4450 C   0  0  0  0  0  2  0  0  0  0  0  0
  179.5670  180.3360  137.0640 N   0  0  0  0  0  0  0  0  0  0  0  0
  180.6330  179.4970  136.6310 C   0  0  0  0  0  0  0  0  0  0  0  0
  181.9880  175.1260  138.6290 F   0  0  0  0  0  0  0  0  0  0  0  0
  180.0750  178.7600  138.6610 C   0  0  0  0  0  0  0  0  0  0  0  0
  178.9310  181.5070  136.4490 C   0  0  0  0  0  2  0  0  0  0  0  0
  179.0140  183.5710  137.7100 C   0  0  0  0  0  3  0  0  0  0  0  0
  180.7360  183.2920  136.0210 C   0  0  0  0  0  3  0  0  0  0  0  0
  179.6280  184.8800  138.0640 C   0  0  0  0  0  2  0  0  0  0  0  0
  181.0320  184.5480  136.0570 N   0  0  0  0  0  0  0  0  0  0  0  0
  180.2290  185.5260  136.8130 C   0  0  0  0  0  2  0  0  0  0  0  0
  179.5840  182.7940  136.7740 C   0  0  0  0  0  0  0  0  0  0  0  0
  191.4800  176.5450  140.8840 O   0  0  0  0  0  0  0  0  0  0  0  0
  190.7350  175.0380  143.1120 C   0  0  0  0  0  1  0  0  0  0  0  0
  191.4100  178.3140  142.3900 O   0  0  0  0  0  0  0  0  0  0  0  0
  190.9680  177.1680  142.0250 C   0  0  0  0  0  0  0  0  0  0  0  0
  190.2550  176.3930  143.0210 N   0  0  0  0  0  0  0  0  0  0  0  0
  189.4700  177.7310  145.2490 C   0  0  2  0  0  3  0  0  0  0  0  0
  188.2480  178.7670  145.2870 C   0  0  0  0  0  2  0  0  0  0  0  0
  186.7860  178.1670  145.0770 C   0  0  2  0  0  0  0  0  0  0  0  0
  187.9210  176.7930  143.4810 N   0  0  0  0  0  2  0  0  0  0  0  0
  186.0850  178.2240  146.4200 C   0  0  0  0  0  2  0  0  0  0  0  0
  184.7830  179.0090  146.2650 C   0  0  0  0  0  2  0  0  0  0  0  0
  184.4100  179.0010  144.8200 C   0  0  1  0  0  3  0  0  0  0  0  0
  189.3190  176.8220  144.0140 C   0  0  1  0  0  3  0  0  0  0  0  0
  186.9870  176.7700  144.6090 C   0  0  0  0  0  2  0  0  0  0  0  0
  185.7410  178.8080  144.1100 C   0  0  2  0  0  3  0  0  0  0  0  0
  186.6180  179.6140  141.7640 C   0  0  0  0  0  2  0  0  0  0  0  0
  185.7680  178.6750  142.5730 C   0  0  2  0  0  3  0  0  0  0  0  0
  185.2310  179.8360  141.9250 O   0  0  0  0  0  0  0  0  0  0  0  0
  189.1070  177.5110  147.6860 O   0  0  0  0  0  1  0  0  0  0  0  0
  190.7750  176.2880  146.7340 O   0  0  0  0  0  1  0  0  0  0  0  0
  189.4940  176.8480  146.5290 C   0  0  0  0  0  3  0  0  0  0  0  0
  182.0930  178.4040  144.2120 O   0  0  0  0  0  1  0  0  0  0  0  0
  183.3030  177.9370  144.7030 C   0  0  0  0  0  2  0  0  0  0  0  0
  1  2  1  0  0  0  0
  2  8  2  0  0  0  0
  2  7  1  0  0  0  0
  3  5  2  0  0  0  0
  4  5  1  0  0  0  0
  4  1  2  0  0  0  0
  5  6  1  0  0  0  0
  6  7  1  0  0  0  0
  7 38  1  1  0  0  0
 10  3  1  0  0  0  0
 10  9  2  0  0  0  0
 11 17  1  0  0  0  0
 13 14  1  0  0  0  0
 14 19  1  0  0  0  0
 14 22  1  0  0  0  0
 15 11  1  0  0  0  0
 16 15  1  0  0  0  0
 16 13  1  0  0  0  0
 17 10  1  1  0  0  0
 17 18  1  0  0  0  0
 18 12  1  0  0  0  0
 19 12  1  0  0  0  0
 20 30  1  0  0  0  0
 21 28  2  0  0  0  0
 22 20  2  0  0  0  0
 22 25  1  0  0  0  0
 23 24  1  0  0  0  0
 25 23  2  0  0  0  0
 26 30  1  0  0  0  0
 27 26  1  0  0  0  0
 28 27  1  0  0  0  0
 28 20  1  0  0  0  0
 29 25  1  0  0  0  0
 30 24  2  0  0  0  0
 31 37  1  0  0  0  0
 31 27  1  0  0  0  0
 32 34  1  0  0  0  0
 33 35  2  0  0  0  0
 33 37  1  0  0  0  0
 35 36  1  0  0  0  0
 36 34  1  0  0  0  0
 37 32  2  0  0  0  0
 38 41  1  0  0  0  0
 41 40  2  0  0  0  0
 41 42  1  0  0  0  0
 42 39  1  0  0  0  0
 43 44  1  0  0  0  0
 43 58  1  1  0  0  0
 45 51  1  6  0  0  0
 45 44  1  0  0  0  0
 45 47  1  0  0  0  0
 46 50  1  0  0  0  0
 46 51  1  0  0  0  0
 48 47  1  0  0  0  0
 49 60  1  1  0  0  0
 49 48  1  0  0  0  0
 50 42  1  6  0  0  0
 50 43  1  0  0  0  0
 52 54  1  6  0  0  0
 52 49  1  0  0  0  0
 52 45  1  0  0  0  0
 53 55  1  0  0  0  0
 54 53  1  6  0  0  0
 55 54  1  0  0  0  0
 58 57  1  0  0  0  0
 58 56  1  0  0  0  0
 59 60  1  0  0  0  0
M  END
>  <MODEL>
9

>  <REMARK>
 VINA RESULT:      -8.1      2.525     10.729
  Name = 
  11 active torsions:
  status: ('A' for Active; 'I' for Inactive)
    1  A    between atoms: C_3  and  C_35
    2  A    between atoms: C_11  and  C_54
    3  A    between atoms: C_12  and  N_39
    4  A    between atoms: C_12  and  C_49
    5  A    between atoms: O_19  and  C_33
    6  A    between atoms: O_19  and  C_58
    7  A    between atoms: C_21  and  C_28
    8  A    between atoms: C_22  and  N_38
    9  A    between atoms: C_34  and  N_56
   10  A    between atoms: N_36  and  C_59
   11  A    between atoms: C_45  and  C_59
                            x       y       z     vdW  Elec       q    Type
                         _______ _______ _______ _____ _____    ______ ____

>  <TORSDO>
F 11

$$$$
