=
 OpenBabel11062416193D

 29 30  0  0  1  0  0  0  0  0999 V2000
  182.6680  178.5770  143.1610 C   0  0  2  0  0  3  0  0  0  0  0  0
  185.0930  178.2260  142.7680 C   0  0  0  0  0  0  0  0  0  0  0  0
  181.2120  179.1580  142.3050 Cl  0  0  0  0  0  0  0  0  0  0  0  0
  185.2970  178.5350  144.2220 C   0  0  0  0  0  0  0  0  0  0  0  0
  184.3250  179.1710  144.8930 C   0  0  0  0  0  3  0  0  0  0  0  0
  183.0840  179.6270  144.1900 C   0  0  0  0  0  2  0  0  0  0  0  0
  183.8440  178.2300  142.2530 C   0  0  0  0  0  0  0  0  0  0  0  0
  186.5210  178.1590  146.3720 C   0  0  0  0  0  3  0  0  0  0  0  0
  186.4660  178.0270  144.9750 C   0  0  0  0  0  0  0  0  0  0  0  0
  189.7850  176.6770  147.0930 F   0  0  0  0  0  0  0  0  0  0  0  0
  188.7060  177.1180  146.4040 C   0  0  0  0  0  0  0  0  0  0  0  0
  188.6680  176.9950  145.0130 C   0  0  0  0  0  3  0  0  0  0  0  0
  187.6350  177.7020  147.0830 C   0  0  0  0  0  3  0  0  0  0  0  0
  187.5540  177.4500  144.3010 C   0  0  0  0  0  3  0  0  0  0  0  0
  183.6680  177.8820  140.7970 C   0  0  2  0  0  3  0  0  0  0  0  0
  183.3600  179.1140  139.9600 C   0  0  0  0  0  2  0  0  0  0  0  0
  184.4340  179.3280  138.9020 C   0  0  0  0  0  2  0  0  0  0  0  0
  186.2790  178.1180  137.7460 C   0  0  0  0  0  1  0  0  0  0  0  0
  184.8620  178.0040  138.2830 C   0  0  2  0  0  3  0  0  0  0  0  0
  183.9040  177.6430  137.1600 C   0  0  0  0  0  2  0  0  0  0  0  0
  184.4850  176.0730  135.4960 O   0  0  0  0  0  0  0  0  0  0  0  0
  184.1600  176.2590  136.6570 C   0  0  0  0  0  0  0  0  0  0  0  0
  183.9870  175.0970  137.5720 C   0  0  0  0  0  1  0  0  0  0  0  0
  182.6470  176.7750  140.5700 C   0  0  0  0  0  2  0  0  0  0  0  0
  180.8830  176.0810  139.4420 C   0  0  0  0  0  1  0  0  0  0  0  0
  181.6520  177.2150  139.6990 O   0  0  0  0  0  0  0  0  0  0  0  0
  186.1720  177.9600  141.9130 O   0  0  0  0  0  0  0  0  0  0  0  0
  188.2720  178.3630  140.8320 C   0  0  0  0  0  1  0  0  0  0  0  0
  186.9970  178.9790  141.3670 C   0  0  0  0  0  2  0  0  0  0  0  0
  1  3  1  6  0  0  0
  1  6  1  0  0  0  0
  2  4  1  0  0  0  0
  4  5  2  0  0  0  0
  4  9  1  0  0  0  0
  6  5  1  0  0  0  0
  7  2  2  0  0  0  0
  7  1  1  0  0  0  0
  8 13  1  0  0  0  0
  9  8  2  0  0  0  0
 11 13  2  0  0  0  0
 11 10  1  0  0  0  0
 12 11  1  0  0  0  0
 14  9  1  0  0  0  0
 14 12  2  0  0  0  0
 15 16  1  6  0  0  0
 15  7  1  0  0  0  0
 17 16  1  0  0  0  0
 19 18  1  6  0  0  0
 19 17  1  0  0  0  0
 20 19  1  0  0  0  0
 21 22  2  0  0  0  0
 22 20  1  0  0  0  0
 22 23  1  0  0  0  0
 24 15  1  0  0  0  0
 25 26  1  0  0  0  0
 26 24  1  0  0  0  0
 27  2  1  0  0  0  0
 28 29  1  0  0  0  0
 29 27  1  0  0  0  0
M  END
>  <MODEL>
1

>  <REMARK>
 VINA RESULT:      -6.4      0.000      0.000
  Name = 
  11 active torsions:
  status: ('A' for Active; 'I' for Inactive)
    1  A    between atoms: C_1  and  C_4
    2  A    between atoms: C_1  and  C_14
    3  A    between atoms: C_1  and  C_22
    4  A    between atoms: C_4  and  C_21
    5  A    between atoms: C_6  and  C_24
    6  A    between atoms: O_7  and  C_11
    7  A    between atoms: O_7  and  C_28
    8  A    between atoms: C_10  and  C_16
    9  A    between atoms: C_14  and  O_25
   10  A    between atoms: C_21  and  C_26
   11  A    between atoms: C_24  and  C_26
                            x       y       z     vdW  Elec       q    Type
                         _______ _______ _______ _____ _____    ______ ____

>  <TORSDO>
F 11

$$$$
=
 OpenBabel11062416193D

 29 30  0  0  1  0  0  0  0  0999 V2000
  181.5520  178.3820  141.7580 C   0  0  2  0  0  3  0  0  0  0  0  0
  183.9530  178.9870  141.9200 C   0  0  0  0  0  0  0  0  0  0  0  0
  180.1260  178.6990  140.7310 Cl  0  0  0  0  0  0  0  0  0  0  0  0
  183.8080  178.8600  143.4070 C   0  0  0  0  0  0  0  0  0  0  0  0
  182.5800  178.8930  143.9440 C   0  0  0  0  0  3  0  0  0  0  0  0
  181.3760  179.1190  143.0840 C   0  0  0  0  0  2  0  0  0  0  0  0
  182.8900  178.7490  141.1220 C   0  0  0  0  0  0  0  0  0  0  0  0
  185.9620  177.6640  143.8520 C   0  0  0  0  0  3  0  0  0  0  0  0
  184.9600  178.5470  144.2840 C   0  0  0  0  0  0  0  0  0  0  0  0
  188.1570  177.5990  146.7750 F   0  0  0  0  0  0  0  0  0  0  0  0
  187.1160  177.9060  145.9650 C   0  0  0  0  0  0  0  0  0  0  0  0
  186.1170  178.7750  146.4120 C   0  0  0  0  0  3  0  0  0  0  0  0
  187.0370  177.3480  144.6870 C   0  0  0  0  0  3  0  0  0  0  0  0
  185.0410  179.0920  145.5760 C   0  0  0  0  0  3  0  0  0  0  0  0
  183.0760  178.8500  139.6290 C   0  0  2  0  0  3  0  0  0  0  0  0
  182.4690  180.1300  139.0750 C   0  0  0  0  0  2  0  0  0  0  0  0
  181.7000  179.8500  137.7910 C   0  0  0  0  0  2  0  0  0  0  0  0
  180.6810  181.1200  135.9070 C   0  0  0  0  0  1  0  0  0  0  0  0
  180.8130  181.0290  137.4180 C   0  0  2  0  0  3  0  0  0  0  0  0
  181.4220  182.3080  137.9680 C   0  0  0  0  0  2  0  0  0  0  0  0
  179.4450  183.5970  137.8860 O   0  0  0  0  0  0  0  0  0  0  0  0
  180.6190  183.5040  137.5670 C   0  0  0  0  0  0  0  0  0  0  0  0
  181.2490  184.5750  136.7450 C   0  0  0  0  0  1  0  0  0  0  0  0
  182.5770  177.6190  138.8830 C   0  0  0  0  0  2  0  0  0  0  0  0
  183.0290  175.5070  138.4330 C   0  0  0  0  0  1  0  0  0  0  0  0
  183.1360  176.4680  139.4380 O   0  0  0  0  0  0  0  0  0  0  0  0
  185.1640  179.3770  141.3270 O   0  0  0  0  0  0  0  0  0  0  0  0
  187.3730  178.5930  140.8370 C   0  0  0  0  0  1  0  0  0  0  0  0
  185.9090  178.5340  140.4610 C   0  0  0  0  0  2  0  0  0  0  0  0
  1  3  1  6  0  0  0
  1  6  1  0  0  0  0
  2  4  1  0  0  0  0
  4  5  2  0  0  0  0
  4  9  1  0  0  0  0
  6  5  1  0  0  0  0
  7  1  1  0  0  0  0
  7  2  2  0  0  0  0
  8  9  2  0  0  0  0
  8 13  1  0  0  0  0
  9 14  1  0  0  0  0
 11 12  1  0  0  0  0
 11 10  1  0  0  0  0
 13 11  2  0  0  0  0
 14 12  2  0  0  0  0
 15 24  1  6  0  0  0
 15  7  1  0  0  0  0
 16 15  1  0  0  0  0
 17 16  1  0  0  0  0
 19 18  1  6  0  0  0
 19 17  1  0  0  0  0
 19 20  1  0  0  0  0
 22 21  2  0  0  0  0
 22 20  1  0  0  0  0
 23 22  1  0  0  0  0
 24 26  1  0  0  0  0
 25 26  1  0  0  0  0
 27  2  1  0  0  0  0
 29 28  1  0  0  0  0
 29 27  1  0  0  0  0
M  END
>  <MODEL>
2

>  <REMARK>
 VINA RESULT:      -6.3      2.807      3.949
  Name = 
  11 active torsions:
  status: ('A' for Active; 'I' for Inactive)
    1  A    between atoms: C_1  and  C_4
    2  A    between atoms: C_1  and  C_14
    3  A    between atoms: C_1  and  C_22
    4  A    between atoms: C_4  and  C_21
    5  A    between atoms: C_6  and  C_24
    6  A    between atoms: O_7  and  C_11
    7  A    between atoms: O_7  and  C_28
    8  A    between atoms: C_10  and  C_16
    9  A    between atoms: C_14  and  O_25
   10  A    between atoms: C_21  and  C_26
   11  A    between atoms: C_24  and  C_26
                            x       y       z     vdW  Elec       q    Type
                         _______ _______ _______ _____ _____    ______ ____

>  <TORSDO>
F 11

$$$$
=
 OpenBabel11062416193D

 29 30  0  0  1  0  0  0  0  0999 V2000
  186.6270  178.7410  146.4250 C   0  0  2  0  0  3  0  0  0  0  0  0
  186.6420  177.8030  144.1280 C   0  0  0  0  0  0  0  0  0  0  0  0
  187.3480  178.4430  148.0310 Cl  0  0  0  0  0  0  0  0  0  0  0  0
  185.2240  178.2750  144.0050 C   0  0  0  0  0  0  0  0  0  0  0  0
  184.5370  178.5630  145.1200 C   0  0  0  0  0  3  0  0  0  0  0  0
  185.1500  178.3520  146.4710 C   0  0  0  0  0  2  0  0  0  0  0  0
  187.3260  178.0300  145.2700 C   0  0  0  0  0  0  0  0  0  0  0  0
  183.2410  178.3510  142.4800 C   0  0  0  0  0  3  0  0  0  0  0  0
  184.6090  178.5810  142.6930 C   0  0  0  0  0  0  0  0  0  0  0  0
  182.8900  179.3600  138.9830 F   0  0  0  0  0  0  0  0  0  0  0  0
  183.4490  179.1050  140.1900 C   0  0  0  0  0  0  0  0  0  0  0  0
  184.8160  179.3240  140.3860 C   0  0  0  0  0  3  0  0  0  0  0  0
  182.6630  178.6160  141.2350 C   0  0  0  0  0  3  0  0  0  0  0  0
  185.3940  179.0600  141.6310 C   0  0  0  0  0  3  0  0  0  0  0  0
  188.7610  177.5740  145.3500 C   0  0  2  0  0  3  0  0  0  0  0  0
  189.0130  176.7350  146.5950 C   0  0  0  0  0  2  0  0  0  0  0  0
  190.3860  177.0380  147.1780 C   0  0  0  0  0  2  0  0  0  0  0  0
  192.3840  175.7870  147.9830 C   0  0  0  0  0  1  0  0  0  0  0  0
  191.3730  175.9240  146.8560 C   0  0  2  0  0  3  0  0  0  0  0  0
  192.0840  176.2460  145.5520 C   0  0  0  0  0  2  0  0  0  0  0  0
  192.5050  174.1010  144.6610 O   0  0  0  0  0  0  0  0  0  0  0  0
  191.8950  175.1520  144.5510 C   0  0  0  0  0  0  0  0  0  0  0  0
  190.9800  175.3590  143.3940 C   0  0  0  0  0  1  0  0  0  0  0  0
  189.7560  178.7200  145.2290 C   0  0  0  0  0  2  0  0  0  0  0  0
  191.4200  179.5760  144.0610 C   0  0  0  0  0  1  0  0  0  0  0  0
  190.3130  178.7350  143.9510 O   0  0  0  0  0  0  0  0  0  0  0  0
  187.2770  177.0990  143.0930 O   0  0  0  0  0  0  0  0  0  0  0  0
  188.9880  176.8100  141.4420 C   0  0  0  0  0  1  0  0  0  0  0  0
  187.9420  177.7420  142.0150 C   0  0  0  0  0  2  0  0  0  0  0  0
  1  6  1  0  0  0  0
  1  3  1  1  0  0  0
  2  7  2  0  0  0  0
  4  2  1  0  0  0  0
  4  5  2  0  0  0  0
  5  6  1  0  0  0  0
  7 15  1  0  0  0  0
  7  1  1  0  0  0  0
  8  9  1  0  0  0  0
  9  4  1  0  0  0  0
 10 11  1  0  0  0  0
 11 12  2  0  0  0  0
 11 13  1  0  0  0  0
 12 14  1  0  0  0  0
 13  8  2  0  0  0  0
 14  9  2  0  0  0  0
 15 24  1  1  0  0  0
 15 16  1  0  0  0  0
 16 17  1  0  0  0  0
 19 17  1  0  0  0  0
 19 18  1  1  0  0  0
 20 19  1  0  0  0  0
 22 21  2  0  0  0  0
 22 20  1  0  0  0  0
 23 22  1  0  0  0  0
 26 25  1  0  0  0  0
 26 24  1  0  0  0  0
 27  2  1  0  0  0  0
 28 29  1  0  0  0  0
 29 27  1  0  0  0  0
M  END
>  <MODEL>
3

>  <REMARK>
 VINA RESULT:      -6.2      3.779      7.889
  Name = 
  11 active torsions:
  status: ('A' for Active; 'I' for Inactive)
    1  A    between atoms: C_1  and  C_4
    2  A    between atoms: C_1  and  C_14
    3  A    between atoms: C_1  and  C_22
    4  A    between atoms: C_4  and  C_21
    5  A    between atoms: C_6  and  C_24
    6  A    between atoms: O_7  and  C_11
    7  A    between atoms: O_7  and  C_28
    8  A    between atoms: C_10  and  C_16
    9  A    between atoms: C_14  and  O_25
   10  A    between atoms: C_21  and  C_26
   11  A    between atoms: C_24  and  C_26
                            x       y       z     vdW  Elec       q    Type
                         _______ _______ _______ _____ _____    ______ ____

>  <TORSDO>
F 11

$$$$
=
 OpenBabel11062416193D

 29 30  0  0  1  0  0  0  0  0999 V2000
  183.0810  179.2700  143.7490 C   0  0  2  0  0  3  0  0  0  0  0  0
  183.0080  178.3730  141.4370 C   0  0  0  0  0  0  0  0  0  0  0  0
  183.9060  178.9790  145.3060 Cl  0  0  0  0  0  0  0  0  0  0  0  0
  181.5650  178.7810  141.4040 C   0  0  0  0  0  0  0  0  0  0  0  0
  180.9310  179.0170  142.5610 C   0  0  0  0  0  3  0  0  0  0  0  0
  181.6290  178.8120  143.8700 C   0  0  0  0  0  2  0  0  0  0  0  0
  183.7450  178.6120  142.5430 C   0  0  0  0  0  0  0  0  0  0  0  0
  179.7270  178.3440  139.7620 C   0  0  0  0  0  3  0  0  0  0  0  0
  180.8630  179.0800  140.1350 C   0  0  0  0  0  0  0  0  0  0  0  0
  178.9320  179.8590  136.5300 F   0  0  0  0  0  0  0  0  0  0  0  0
  179.5610  179.6040  137.7020 C   0  0  0  0  0  0  0  0  0  0  0  0
  180.7000  180.3330  138.0560 C   0  0  0  0  0  3  0  0  0  0  0  0
  179.0770  178.6080  138.5530 C   0  0  0  0  0  3  0  0  0  0  0  0
  181.3500  180.0710  139.2660 C   0  0  0  0  0  3  0  0  0  0  0  0
  185.2020  178.2220  142.5330 C   0  0  2  0  0  3  0  0  0  0  0  0
  185.7000  177.8840  143.9300 C   0  0  0  0  0  2  0  0  0  0  0  0
  187.0780  177.2400  143.8690 C   0  0  0  0  0  2  0  0  0  0  0  0
  186.9030  178.0520  146.2170 C   0  0  0  0  0  1  0  0  0  0  0  0
  187.7530  177.2650  145.2330 C   0  0  2  0  0  3  0  0  0  0  0  0
  189.1270  177.9010  145.1020 C   0  0  0  0  0  2  0  0  0  0  0  0
  189.9200  176.7170  146.9840 O   0  0  0  0  0  0  0  0  0  0  0  0
  190.1560  177.1240  145.8590 C   0  0  0  0  0  0  0  0  0  0  0  0
  191.4890  176.8730  145.2450 C   0  0  0  0  0  1  0  0  0  0  0  0
  186.0880  179.2550  141.8510 C   0  0  0  0  0  2  0  0  0  0  0  0
  187.8040  178.4940  140.6910 C   0  0  0  0  0  1  0  0  0  0  0  0
  186.4500  178.8070  140.5800 O   0  0  0  0  0  0  0  0  0  0  0  0
  183.6140  177.7170  140.3540 O   0  0  0  0  0  0  0  0  0  0  0  0
  183.0570  176.8130  138.2070 C   0  0  0  0  0  1  0  0  0  0  0  0
  183.0330  176.5960  139.7050 C   0  0  0  0  0  2  0  0  0  0  0  0
  1  6  1  0  0  0  0
  1  3  1  1  0  0  0
  2  7  2  0  0  0  0
  4  2  1  0  0  0  0
  4  5  2  0  0  0  0
  5  6  1  0  0  0  0
  7  1  1  0  0  0  0
  8  9  1  0  0  0  0
  9  4  1  0  0  0  0
 10 11  1  0  0  0  0
 11 12  2  0  0  0  0
 11 13  1  0  0  0  0
 12 14  1  0  0  0  0
 13  8  2  0  0  0  0
 14  9  2  0  0  0  0
 15 24  1  1  0  0  0
 15  7  1  0  0  0  0
 15 16  1  0  0  0  0
 17 16  1  0  0  0  0
 17 19  1  0  0  0  0
 19 18  1  1  0  0  0
 20 19  1  0  0  0  0
 20 22  1  0  0  0  0
 22 21  2  0  0  0  0
 23 22  1  0  0  0  0
 26 25  1  0  0  0  0
 26 24  1  0  0  0  0
 27  2  1  0  0  0  0
 28 29  1  0  0  0  0
 29 27  1  0  0  0  0
M  END
>  <MODEL>
4

>  <REMARK>
 VINA RESULT:      -6.1      3.677      7.908
  Name = 
  11 active torsions:
  status: ('A' for Active; 'I' for Inactive)
    1  A    between atoms: C_1  and  C_4
    2  A    between atoms: C_1  and  C_14
    3  A    between atoms: C_1  and  C_22
    4  A    between atoms: C_4  and  C_21
    5  A    between atoms: C_6  and  C_24
    6  A    between atoms: O_7  and  C_11
    7  A    between atoms: O_7  and  C_28
    8  A    between atoms: C_10  and  C_16
    9  A    between atoms: C_14  and  O_25
   10  A    between atoms: C_21  and  C_26
   11  A    between atoms: C_24  and  C_26
                            x       y       z     vdW  Elec       q    Type
                         _______ _______ _______ _____ _____    ______ ____

>  <TORSDO>
F 11

$$$$
=
 OpenBabel11062416193D

 29 30  0  0  1  0  0  0  0  0999 V2000
  182.4140  178.6130  142.8630 C   0  0  2  0  0  3  0  0  0  0  0  0
  184.8690  178.2640  142.7630 C   0  0  0  0  0  0  0  0  0  0  0  0
  181.0610  179.1330  141.8200 Cl  0  0  0  0  0  0  0  0  0  0  0  0
  184.9080  178.6540  144.2100 C   0  0  0  0  0  0  0  0  0  0  0  0
  183.8660  179.3170  144.7330 C   0  0  0  0  0  3  0  0  0  0  0  0
  182.7090  179.7220  143.8720 C   0  0  0  0  0  2  0  0  0  0  0  0
  183.6850  178.2280  142.1130 C   0  0  0  0  0  0  0  0  0  0  0  0
  185.9780  178.5650  146.4720 C   0  0  0  0  0  3  0  0  0  0  0  0
  185.9880  178.2000  145.1160 C   0  0  0  0  0  0  0  0  0  0  0  0
  189.0610  176.9940  147.6520 F   0  0  0  0  0  0  0  0  0  0  0  0
  188.0620  177.3880  146.8260 C   0  0  0  0  0  0  0  0  0  0  0  0
  188.0900  177.0300  145.4760 C   0  0  0  0  0  3  0  0  0  0  0  0
  187.0080  178.1580  147.3240 C   0  0  0  0  0  3  0  0  0  0  0  0
  187.0600  177.4370  144.6230 C   0  0  0  0  0  3  0  0  0  0  0  0
  183.6740  177.7990  140.6670 C   0  0  2  0  0  3  0  0  0  0  0  0
  184.0240  178.9510  139.7380 C   0  0  0  0  0  2  0  0  0  0  0  0
  183.5630  178.6570  138.3170 C   0  0  0  0  0  2  0  0  0  0  0  0
  184.4390  176.6520  137.1270 C   0  0  0  0  0  1  0  0  0  0  0  0
  184.7070  178.1060  137.4760 C   0  0  2  0  0  3  0  0  0  0  0  0
  186.0060  178.2270  138.2560 C   0  0  0  0  0  2  0  0  0  0  0  0
  187.3200  178.7870  136.3760 O   0  0  0  0  0  0  0  0  0  0  0  0
  187.1910  178.0730  137.3570 C   0  0  0  0  0  0  0  0  0  0  0  0
  188.2040  177.0200  137.6450 C   0  0  0  0  0  1  0  0  0  0  0  0
  182.3730  177.1190  140.2600 C   0  0  0  0  0  2  0  0  0  0  0  0
  181.4840  175.4520  139.1210 C   0  0  0  0  0  1  0  0  0  0  0  0
  182.6300  175.8190  139.8250 O   0  0  0  0  0  0  0  0  0  0  0  0
  186.0380  177.9620  142.0480 O   0  0  0  0  0  0  0  0  0  0  0  0
  188.2550  178.2880  141.2040 C   0  0  0  0  0  1  0  0  0  0  0  0
  186.9600  178.9520  141.6180 C   0  0  0  0  0  2  0  0  0  0  0  0
  1  3  1  6  0  0  0
  1  6  1  0  0  0  0
  2  4  1  0  0  0  0
  4  5  2  0  0  0  0
  4  9  1  0  0  0  0
  6  5  1  0  0  0  0
  7  2  2  0  0  0  0
  7  1  1  0  0  0  0
  8 13  1  0  0  0  0
  9  8  2  0  0  0  0
 11 13  2  0  0  0  0
 11 10  1  0  0  0  0
 12 11  1  0  0  0  0
 14  9  1  0  0  0  0
 14 12  2  0  0  0  0
 15 16  1  6  0  0  0
 15  7  1  0  0  0  0
 17 16  1  0  0  0  0
 19 18  1  1  0  0  0
 19 20  1  0  0  0  0
 19 17  1  0  0  0  0
 21 22  2  0  0  0  0
 22 23  1  0  0  0  0
 22 20  1  0  0  0  0
 24 15  1  0  0  0  0
 25 26  1  0  0  0  0
 26 24  1  0  0  0  0
 27  2  1  0  0  0  0
 28 29  1  0  0  0  0
 29 27  1  0  0  0  0
M  END
>  <MODEL>
5

>  <REMARK>
 VINA RESULT:      -6.0      1.095      1.605
  Name = 
  11 active torsions:
  status: ('A' for Active; 'I' for Inactive)
    1  A    between atoms: C_1  and  C_4
    2  A    between atoms: C_1  and  C_14
    3  A    between atoms: C_1  and  C_22
    4  A    between atoms: C_4  and  C_21
    5  A    between atoms: C_6  and  C_24
    6  A    between atoms: O_7  and  C_11
    7  A    between atoms: O_7  and  C_28
    8  A    between atoms: C_10  and  C_16
    9  A    between atoms: C_14  and  O_25
   10  A    between atoms: C_21  and  C_26
   11  A    between atoms: C_24  and  C_26
                            x       y       z     vdW  Elec       q    Type
                         _______ _______ _______ _____ _____    ______ ____

>  <TORSDO>
F 11

$$$$
=
 OpenBabel11062416193D

 29 30  0  0  1  0  0  0  0  0999 V2000
  188.6850  177.3070  141.0150 C   0  0  2  0  0  3  0  0  0  0  0  0
  187.2110  178.0050  142.8850 C   0  0  0  0  0  0  0  0  0  0  0  0
  190.4200  177.1670  140.6180 Cl  0  0  0  0  0  0  0  0  0  0  0  0
  186.2240  178.4440  141.8440 C   0  0  0  0  0  0  0  0  0  0  0  0
  186.6490  178.6380  140.5870 C   0  0  0  0  0  3  0  0  0  0  0  0
  188.0970  178.4840  140.2380 C   0  0  0  0  0  2  0  0  0  0  0  0
  188.3810  177.4500  142.5030 C   0  0  0  0  0  0  0  0  0  0  0  0
  183.8390  178.2400  141.1140 C   0  0  0  0  0  3  0  0  0  0  0  0
  184.7720  178.5220  142.1240 C   0  0  0  0  0  0  0  0  0  0  0  0
  180.6890  178.8200  142.8770 F   0  0  0  0  0  0  0  0  0  0  0  0
  182.0170  178.7250  142.6310 C   0  0  0  0  0  0  0  0  0  0  0  0
  182.9370  179.0220  143.6410 C   0  0  0  0  0  3  0  0  0  0  0  0
  182.4680  178.3370  141.3680 C   0  0  0  0  0  3  0  0  0  0  0  0
  184.3080  178.9250  143.3870 C   0  0  0  0  0  3  0  0  0  0  0  0
  189.3380  176.9870  143.5730 C   0  0  2  0  0  3  0  0  0  0  0  0
  190.2610  178.1090  144.0230 C   0  0  0  0  0  2  0  0  0  0  0  0
  189.9870  178.4830  145.4730 C   0  0  0  0  0  2  0  0  0  0  0  0
  189.5360  177.5520  147.7390 C   0  0  0  0  0  1  0  0  0  0  0  0
  190.1890  177.2870  146.3920 C   0  0  2  0  0  3  0  0  0  0  0  0
  191.6780  177.0390  146.5720 C   0  0  0  0  0  2  0  0  0  0  0  0
  191.3020  174.8400  147.3430 O   0  0  0  0  0  0  0  0  0  0  0  0
  191.9260  175.8790  147.4810 C   0  0  0  0  0  0  0  0  0  0  0  0
  192.9200  176.0030  148.5830 C   0  0  0  0  0  1  0  0  0  0  0  0
  190.1170  175.7400  143.1740 C   0  0  0  0  0  2  0  0  0  0  0  0
  191.9810  174.8670  143.9660 C   0  0  0  0  0  1  0  0  0  0  0  0
  191.4860  175.9780  143.2850 O   0  0  0  0  0  0  0  0  0  0  0  0
  186.9660  178.1820  144.2550 O   0  0  0  0  0  0  0  0  0  0  0  0
  186.1530  177.6980  146.4550 C   0  0  0  0  0  1  0  0  0  0  0  0
  186.5390  177.1290  145.1070 C   0  0  0  0  0  2  0  0  0  0  0  0
  1  3  1  1  0  0  0
  1  7  1  0  0  0  0
  2 27  1  0  0  0  0
  4  9  1  0  0  0  0
  4  2  1  0  0  0  0
  5  4  2  0  0  0  0
  6  5  1  0  0  0  0
  6  1  1  0  0  0  0
  7  2  2  0  0  0  0
  7 15  1  0  0  0  0
  8 13  2  0  0  0  0
  8  9  1  0  0  0  0
  9 14  2  0  0  0  0
 11 10  1  0  0  0  0
 11 12  2  0  0  0  0
 13 11  1  0  0  0  0
 14 12  1  0  0  0  0
 15 24  1  6  0  0  0
 15 16  1  0  0  0  0
 16 17  1  0  0  0  0
 17 19  1  0  0  0  0
 19 20  1  0  0  0  0
 19 18  1  1  0  0  0
 20 22  1  0  0  0  0
 21 22  2  0  0  0  0
 22 23  1  0  0  0  0
 24 26  1  0  0  0  0
 26 25  1  0  0  0  0
 27 29  1  0  0  0  0
 29 28  1  0  0  0  0
M  END
>  <MODEL>
6

>  <REMARK>
 VINA RESULT:      -6.0      3.990      8.389
  Name = 
  11 active torsions:
  status: ('A' for Active; 'I' for Inactive)
    1  A    between atoms: C_1  and  C_4
    2  A    between atoms: C_1  and  C_14
    3  A    between atoms: C_1  and  C_22
    4  A    between atoms: C_4  and  C_21
    5  A    between atoms: C_6  and  C_24
    6  A    between atoms: O_7  and  C_11
    7  A    between atoms: O_7  and  C_28
    8  A    between atoms: C_10  and  C_16
    9  A    between atoms: C_14  and  O_25
   10  A    between atoms: C_21  and  C_26
   11  A    between atoms: C_24  and  C_26
                            x       y       z     vdW  Elec       q    Type
                         _______ _______ _______ _____ _____    ______ ____

>  <TORSDO>
F 11

$$$$
=
 OpenBabel11062416193D

 29 30  0  0  1  0  0  0  0  0999 V2000
  186.0880  177.6300  144.5420 C   0  0  2  0  0  3  0  0  0  0  0  0
  188.5450  177.8140  144.2460 C   0  0  0  0  0  0  0  0  0  0  0  0
  184.5720  178.2320  143.8160 Cl  0  0  0  0  0  0  0  0  0  0  0  0
  188.6620  177.6410  145.7310 C   0  0  0  0  0  0  0  0  0  0  0  0
  187.5820  177.8540  146.4960 C   0  0  0  0  0  3  0  0  0  0  0  0
  186.2950  178.3210  145.8890 C   0  0  0  0  0  2  0  0  0  0  0  0
  187.3250  177.7970  143.6650 C   0  0  0  0  0  0  0  0  0  0  0  0
  190.2360  177.4740  147.6700 C   0  0  0  0  0  3  0  0  0  0  0  0
  189.8850  177.0970  146.3630 C   0  0  0  0  0  0  0  0  0  0  0  0
  193.3660  175.6370  148.1190 F   0  0  0  0  0  0  0  0  0  0  0  0
  192.2340  176.1130  147.5470 C   0  0  0  0  0  0  0  0  0  0  0  0
  191.9020  175.7430  146.2410 C   0  0  0  0  0  3  0  0  0  0  0  0
  191.4040  176.9810  148.2600 C   0  0  0  0  0  3  0  0  0  0  0  0
  190.7350  176.2350  145.6500 C   0  0  0  0  0  3  0  0  0  0  0  0
  187.2420  177.9390  142.1660 C   0  0  2  0  0  3  0  0  0  0  0  0
  188.4550  177.3300  141.4790 C   0  0  0  0  0  2  0  0  0  0  0  0
  188.7600  178.0610  140.1790 C   0  0  0  0  0  2  0  0  0  0  0  0
  190.5960  176.4990  139.5540 C   0  0  0  0  0  1  0  0  0  0  0  0
  189.2690  177.0970  139.1170 C   0  0  2  0  0  3  0  0  0  0  0  0
  189.4380  177.8420  137.8030 C   0  0  0  0  0  2  0  0  0  0  0  0
  187.8420  179.3910  137.0120 O   0  0  0  0  0  0  0  0  0  0  0  0
  188.1130  178.2210  137.2230 C   0  0  0  0  0  0  0  0  0  0  0  0
  187.1060  177.1640  136.9310 C   0  0  0  0  0  1  0  0  0  0  0  0
  186.9990  179.3740  141.7180 C   0  0  0  0  0  2  0  0  0  0  0  0
  185.4430  179.0010  140.1990 C   0  0  0  0  0  1  0  0  0  0  0  0
  185.6430  179.5680  141.4570 O   0  0  0  0  0  0  0  0  0  0  0  0
  189.6720  178.0240  143.4360 O   0  0  0  0  0  0  0  0  0  0  0  0
  191.8590  178.8970  143.8710 C   0  0  0  0  0  1  0  0  0  0  0  0
  190.4360  179.2200  143.4700 C   0  0  0  0  0  2  0  0  0  0  0  0
  1  3  1  6  0  0  0
  1  6  1  0  0  0  0
  2  4  1  0  0  0  0
  4  9  1  0  0  0  0
  4  5  2  0  0  0  0
  6  5  1  0  0  0  0
  7  2  2  0  0  0  0
  7  1  1  0  0  0  0
  8 13  1  0  0  0  0
  9  8  2  0  0  0  0
 11 10  1  0  0  0  0
 11 13  2  0  0  0  0
 12 11  1  0  0  0  0
 14 12  2  0  0  0  0
 14  9  1  0  0  0  0
 15 16  1  6  0  0  0
 15  7  1  0  0  0  0
 17 16  1  0  0  0  0
 19 18  1  1  0  0  0
 19 17  1  0  0  0  0
 20 19  1  0  0  0  0
 21 22  2  0  0  0  0
 22 20  1  0  0  0  0
 23 22  1  0  0  0  0
 24 15  1  0  0  0  0
 25 26  1  0  0  0  0
 26 24  1  0  0  0  0
 27 29  1  0  0  0  0
 27  2  1  0  0  0  0
 29 28  1  0  0  0  0
M  END
>  <MODEL>
7

>  <REMARK>
 VINA RESULT:      -6.0      2.812      4.327
  Name = 
  11 active torsions:
  status: ('A' for Active; 'I' for Inactive)
    1  A    between atoms: C_1  and  C_4
    2  A    between atoms: C_1  and  C_14
    3  A    between atoms: C_1  and  C_22
    4  A    between atoms: C_4  and  C_21
    5  A    between atoms: C_6  and  C_24
    6  A    between atoms: O_7  and  C_11
    7  A    between atoms: O_7  and  C_28
    8  A    between atoms: C_10  and  C_16
    9  A    between atoms: C_14  and  O_25
   10  A    between atoms: C_21  and  C_26
   11  A    between atoms: C_24  and  C_26
                            x       y       z     vdW  Elec       q    Type
                         _______ _______ _______ _____ _____    ______ ____

>  <TORSDO>
F 11

$$$$
=
 OpenBabel11062416193D

 29 30  0  0  1  0  0  0  0  0999 V2000
  189.2330  177.0250  137.3790 C   0  0  2  0  0  3  0  0  0  0  0  0
  189.8910  176.8660  139.7660 C   0  0  0  0  0  0  0  0  0  0  0  0
  189.9730  177.0560  135.7530 Cl  0  0  0  0  0  0  0  0  0  0  0  0
  188.6940  177.7150  140.0750 C   0  0  0  0  0  0  0  0  0  0  0  0
  188.1290  178.4240  139.0870 C   0  0  0  0  0  3  0  0  0  0  0  0
  188.7210  178.4250  137.7120 C   0  0  0  0  0  2  0  0  0  0  0  0
  190.1520  176.5200  138.4870 C   0  0  0  0  0  0  0  0  0  0  0  0
  188.4190  176.7400  142.3640 C   0  0  0  0  0  3  0  0  0  0  0  0
  188.0240  177.6760  141.3950 C   0  0  0  0  0  0  0  0  0  0  0  0
  186.0920  177.5070  145.0780 F   0  0  0  0  0  0  0  0  0  0  0  0
  186.7200  177.5610  143.8800 C   0  0  0  0  0  0  0  0  0  0  0  0
  186.3080  178.4870  142.9170 C   0  0  0  0  0  3  0  0  0  0  0  0
  187.7720  176.6860  143.6020 C   0  0  0  0  0  3  0  0  0  0  0  0
  186.9550  178.5430  141.6790 C   0  0  0  0  0  3  0  0  0  0  0  0
  191.3440  175.6370  138.2120 C   0  0  2  0  0  3  0  0  0  0  0  0
  192.5770  176.4550  137.8600 C   0  0  0  0  0  2  0  0  0  0  0  0
  193.2520  175.9020  136.6130 C   0  0  0  0  0  2  0  0  0  0  0  0
  195.5720  175.5280  135.7870 C   0  0  0  0  0  1  0  0  0  0  0  0
  194.6140  175.3100  136.9470 C   0  0  2  0  0  3  0  0  0  0  0  0
  194.4590  173.8230  137.2240 C   0  0  0  0  0  2  0  0  0  0  0  0
  195.2990  172.2480  138.7690 O   0  0  0  0  0  0  0  0  0  0  0  0
  195.2160  173.4220  138.4500 C   0  0  0  0  0  0  0  0  0  0  0  0
  195.8460  174.4670  139.3040 C   0  0  0  0  0  1  0  0  0  0  0  0
  191.0600  174.5650  137.1680 C   0  0  0  0  0  2  0  0  0  0  0  0
  189.4260  173.2580  136.4670 C   0  0  0  0  0  1  0  0  0  0  0  0
  190.0590  173.7080  137.6250 O   0  0  0  0  0  0  0  0  0  0  0  0
  190.7740  176.4420  140.7710 O   0  0  0  0  0  0  0  0  0  0  0  0
  191.8080  177.0100  142.8560 C   0  0  0  0  0  1  0  0  0  0  0  0
  191.7320  177.3010  141.3720 C   0  0  0  0  0  2  0  0  0  0  0  0
  1  3  1  6  0  0  0
  1  6  1  0  0  0  0
  1  7  1  0  0  0  0
  2  4  1  0  0  0  0
  2 27  1  0  0  0  0
  4  9  1  0  0  0  0
  5  4  2  0  0  0  0
  6  5  1  0  0  0  0
  7  2  2  0  0  0  0
  8 13  1  0  0  0  0
  9 14  1  0  0  0  0
  9  8  2  0  0  0  0
 11 10  1  0  0  0  0
 12 11  1  0  0  0  0
 13 11  2  0  0  0  0
 14 12  2  0  0  0  0
 15 24  1  6  0  0  0
 15  7  1  0  0  0  0
 16 15  1  0  0  0  0
 17 19  1  0  0  0  0
 17 16  1  0  0  0  0
 19 18  1  6  0  0  0
 19 20  1  0  0  0  0
 20 22  1  0  0  0  0
 22 21  2  0  0  0  0
 22 23  1  0  0  0  0
 24 26  1  0  0  0  0
 25 26  1  0  0  0  0
 27 29  1  0  0  0  0
 29 28  1  0  0  0  0
M  END
>  <MODEL>
8

>  <REMARK>
 VINA RESULT:      -5.9      5.755      8.069
  Name = 
  11 active torsions:
  status: ('A' for Active; 'I' for Inactive)
    1  A    between atoms: C_1  and  C_4
    2  A    between atoms: C_1  and  C_14
    3  A    between atoms: C_1  and  C_22
    4  A    between atoms: C_4  and  C_21
    5  A    between atoms: C_6  and  C_24
    6  A    between atoms: O_7  and  C_11
    7  A    between atoms: O_7  and  C_28
    8  A    between atoms: C_10  and  C_16
    9  A    between atoms: C_14  and  O_25
   10  A    between atoms: C_21  and  C_26
   11  A    between atoms: C_24  and  C_26
                            x       y       z     vdW  Elec       q    Type
                         _______ _______ _______ _____ _____    ______ ____

>  <TORSDO>
F 11

$$$$
=
 OpenBabel11062416193D

 29 30  0  0  1  0  0  0  0  0999 V2000
  188.3230  177.3470  140.2390 C   0  0  2  0  0  3  0  0  0  0  0  0
  186.4270  178.6450  141.1740 C   0  0  0  0  0  0  0  0  0  0  0  0
  190.0840  177.1410  140.4600 Cl  0  0  0  0  0  0  0  0  0  0  0  0
  185.8220  178.6070  139.8030 C   0  0  0  0  0  0  0  0  0  0  0  0
  186.6070  178.3210  138.7540 C   0  0  0  0  0  3  0  0  0  0  0  0
  188.0780  178.1090  138.9370 C   0  0  0  0  0  2  0  0  0  0  0  0
  187.6120  178.0370  141.3990 C   0  0  0  0  0  0  0  0  0  0  0  0
  183.5190  177.6270  139.8260 C   0  0  0  0  0  3  0  0  0  0  0  0
  184.3610  178.7240  139.5860 C   0  0  0  0  0  0  0  0  0  0  0  0
  180.2660  179.0170  138.9000 F   0  0  0  0  0  0  0  0  0  0  0  0
  181.5990  178.9210  139.1220 C   0  0  0  0  0  0  0  0  0  0  0  0
  182.4300  180.0150  138.8660 C   0  0  0  0  0  3  0  0  0  0  0  0
  182.1430  177.7270  139.5990 C   0  0  0  0  0  3  0  0  0  0  0  0
  183.8060  179.9160  139.0930 C   0  0  0  0  0  3  0  0  0  0  0  0
  188.1780  178.0630  142.7960 C   0  0  2  0  0  3  0  0  0  0  0  0
  189.6310  178.5150  142.8030 C   0  0  0  0  0  2  0  0  0  0  0  0
  190.1460  178.6480  144.2300 C   0  0  0  0  0  2  0  0  0  0  0  0
  192.0560  177.5450  143.0720 C   0  0  0  0  0  1  0  0  0  0  0  0
  191.4290  177.8520  144.4220 C   0  0  2  0  0  3  0  0  0  0  0  0
  191.1120  176.5600  145.1570 C   0  0  0  0  0  2  0  0  0  0  0  0
  192.2390  176.6470  147.2300 O   0  0  0  0  0  0  0  0  0  0  0  0
  191.1770  176.7520  146.6390 C   0  0  0  0  0  0  0  0  0  0  0  0
  189.9310  177.0440  147.4010 C   0  0  0  0  0  1  0  0  0  0  0  0
  187.9930  176.7450  143.5360 C   0  0  0  0  0  2  0  0  0  0  0  0
  187.0360  177.5030  145.3730 C   0  0  0  0  0  1  0  0  0  0  0  0
  186.7810  176.7520  144.2270 O   0  0  0  0  0  0  0  0  0  0  0  0
  185.8080  179.3240  142.2350 O   0  0  0  0  0  0  0  0  0  0  0  0
  184.3820  179.6410  144.1330 C   0  0  0  0  0  1  0  0  0  0  0  0
  184.6110  178.8710  142.8510 C   0  0  0  0  0  2  0  0  0  0  0  0
  1  3  1  1  0  0  0
  1  7  1  0  0  0  0
  2  7  2  0  0  0  0
  2 27  1  0  0  0  0
  4  2  1  0  0  0  0
  5  6  1  0  0  0  0
  5  4  2  0  0  0  0
  6  1  1  0  0  0  0
  7 15  1  0  0  0  0
  9  4  1  0  0  0  0
  9  8  2  0  0  0  0
 10 11  1  0  0  0  0
 11 13  2  0  0  0  0
 12 14  2  0  0  0  0
 12 11  1  0  0  0  0
 13  8  1  0  0  0  0
 14  9  1  0  0  0  0
 15 16  1  6  0  0  0
 15 24  1  0  0  0  0
 16 17  1  0  0  0  0
 17 19  1  0  0  0  0
 19 18  1  6  0  0  0
 19 20  1  0  0  0  0
 20 22  1  0  0  0  0
 22 21  2  0  0  0  0
 22 23  1  0  0  0  0
 24 26  1  0  0  0  0
 26 25  1  0  0  0  0
 27 29  1  0  0  0  0
 29 28  1  0  0  0  0
M  END
>  <MODEL>
9

>  <REMARK>
 VINA RESULT:      -5.8      3.741      8.126
  Name = 
  11 active torsions:
  status: ('A' for Active; 'I' for Inactive)
    1  A    between atoms: C_1  and  C_4
    2  A    between atoms: C_1  and  C_14
    3  A    between atoms: C_1  and  C_22
    4  A    between atoms: C_4  and  C_21
    5  A    between atoms: C_6  and  C_24
    6  A    between atoms: O_7  and  C_11
    7  A    between atoms: O_7  and  C_28
    8  A    between atoms: C_10  and  C_16
    9  A    between atoms: C_14  and  O_25
   10  A    between atoms: C_21  and  C_26
   11  A    between atoms: C_24  and  C_26
                            x       y       z     vdW  Elec       q    Type
                         _______ _______ _______ _____ _____    ______ ____

>  <TORSDO>
F 11

$$$$
