=
 OpenBabel11062416533D

 34 37  0  0  1  0  0  0  0  0999 V2000
  187.6070  178.3130  142.0750 N   0  0  0  0  0  2  0  0  0  0  0  0
  190.9340  175.8930  143.3590 C   0  0  0  0  0  0  0  0  0  0  0  0
  188.9340  177.9030  143.9210 C   0  0  1  0  0  3  0  0  0  0  0  0
  189.7830  177.3920  141.6610 C   0  0  1  0  0  3  0  0  0  0  0  0
  188.9580  178.3030  142.4910 N   0  0  1  0  0  0  0  0  0  0  0  0
  187.0110  178.0920  145.6380 C   0  0  0  0  0  0  0  0  0  0  0  0
  187.8010  177.8150  146.7470 O   0  0  0  0  0  1  0  0  0  0  0  0
  184.4290  178.6440  142.2460 C   0  0  0  0  0  3  0  0  0  0  0  0
  184.7710  178.4560  144.5200 C   0  0  0  0  0  0  0  0  0  0  0  0
  185.5330  178.2670  145.7730 C   0  0  0  0  0  0  0  0  0  0  0  0
  190.0530  178.5620  144.7020 C   0  0  0  0  0  2  0  0  0  0  0  0
  192.2660  179.1560  144.1000 O   0  0  0  0  0  0  0  0  0  0  0  0
  186.7740  178.3640  143.2100 C   0  0  0  0  0  0  0  0  0  0  0  0
  191.0780  174.7870  143.9400 O   0  0  0  0  0  0  0  0  0  0  0  0
  189.9440  175.9750  142.2220 C   0  0  0  0  0  2  0  0  0  0  0  0
  191.7910  176.9500  143.7050 O   0  0  0  0  0  0  0  0  0  0  0  0
  185.4510  178.4850  143.2600 C   0  0  0  0  0  0  0  0  0  0  0  0
  184.9440  178.1970  146.9210 N   0  0  0  0  0  2  0  0  0  0  0  0
  183.4980  178.5720  144.3700 N   0  0  0  0  0  0  0  0  0  0  0  0
  191.4060  178.2380  144.1240 C   0  0  0  0  0  0  0  0  0  0  0  0
  187.5560  178.1890  144.4060 C   0  0  0  0  0  0  0  0  0  0  0  0
  183.2880  178.6940  142.9490 C   0  0  0  0  0  3  0  0  0  0  0  0
  189.3200  177.3440  140.2790 N   0  0  0  0  0  2  0  0  0  0  0  0
  190.2980  176.5750  139.5280 C   0  0  0  0  0  2  0  0  0  0  0  0
  190.5660  177.2590  138.1960 C   0  0  0  0  0  2  0  0  0  0  0  0
  191.0170  176.1800  136.0470 C   0  0  0  0  0  1  0  0  0  0  0  0
  189.8940  176.5730  136.9970 C   0  0  1  0  0  0  0  0  0  0  0  0
  189.1450  175.2860  137.4170 C   0  0  2  0  0  3  0  0  0  0  0  0
  189.8180  173.9990  136.9600 C   0  0  0  0  0  1  0  0  0  0  0  0
  187.8200  175.3030  136.9700 O   0  0  0  0  0  1  0  0  0  0  0  0
  188.9700  177.5750  136.2760 C   0  0  0  0  0  2  0  0  0  0  0  0
  189.0550  179.7360  137.2960 O   0  0  0  0  0  0  0  0  0  0  0  0
  188.4290  178.6510  137.1670 C   0  0  0  0  0  0  0  0  0  0  0  0
  187.2290  178.4620  137.8380 O   0  0  0  0  0  1  0  0  0  0  0  0
  1 13  1  0  0  0  0
  2 16  1  0  0  0  0
  2 14  2  0  0  0  0
  3 21  1  0  0  0  0
  3 11  1  1  0  0  0
  4 23  1  6  0  0  0
  4 15  1  0  0  0  0
  4  5  1  0  0  0  0
  5  1  1  6  0  0  0
  5  3  1  0  0  0  0
  6 10  1  0  0  0  0
  6  7  1  0  0  0  0
  8 22  2  0  0  0  0
  8 17  1  0  0  0  0
  9 10  1  0  0  0  0
 10 18  2  0  0  0  0
 12 20  2  0  0  0  0
 13 17  2  0  0  0  0
 13 21  1  0  0  0  0
 15  2  1  0  0  0  0
 16 20  1  0  0  0  0
 17  9  1  0  0  0  0
 19  9  2  0  0  0  0
 20 11  1  0  0  0  0
 21  6  2  0  0  0  0
 22 19  1  0  0  0  0
 24 23  1  0  0  0  0
 25 24  1  0  0  0  0
 27 26  1  6  0  0  0
 27 28  1  0  0  0  0
 27 25  1  0  0  0  0
 28 29  1  6  0  0  0
 30 28  1  0  0  0  0
 31 27  1  0  0  0  0
 31 33  1  0  0  0  0
 33 32  2  0  0  0  0
 33 34  1  0  0  0  0
M  END
>  <MODEL>
1

>  <REMARK>
 VINA RESULT:      -8.2      0.000      0.000
  Name = 
  7 active torsions:
  status: ('A' for Active; 'I' for Inactive)
    1  A    between atoms: C_2  and  C_11
    2  A    between atoms: C_3  and  C_21
    3  A    between atoms: C_7  and  N_9
    4  A    between atoms: N_9  and  C_14
    5  A    between atoms: C_11  and  C_21
    6  A    between atoms: C_14  and  C_32
    7  A    between atoms: C_21  and  C_32
                            x       y       z     vdW  Elec       q    Type
                         _______ _______ _______ _____ _____    ______ ____

>  <TORSDO>
F 7

$$$$
=
 OpenBabel11062416533D

 34 37  0  0  1  0  0  0  0  0999 V2000
  187.6660  178.3320  141.9710 N   0  0  0  0  0  2  0  0  0  0  0  0
  190.9720  175.9290  143.3370 C   0  0  0  0  0  0  0  0  0  0  0  0
  188.9460  177.9260  143.8500 C   0  0  1  0  0  3  0  0  0  0  0  0
  189.8570  177.4250  141.6120 C   0  0  1  0  0  3  0  0  0  0  0  0
  189.0060  178.3290  142.4220 N   0  0  1  0  0  0  0  0  0  0  0  0
  186.9770  178.1010  145.5160 C   0  0  0  0  0  0  0  0  0  0  0  0
  187.7400  177.8270  146.6460 O   0  0  0  0  0  1  0  0  0  0  0  0
  184.4830  178.6430  142.0580 C   0  0  0  0  0  3  0  0  0  0  0  0
  184.7660  178.4540  144.3400 C   0  0  0  0  0  0  0  0  0  0  0  0
  185.4950  178.2670  145.6130 C   0  0  0  0  0  0  0  0  0  0  0  0
  190.0400  178.5900  144.6620 C   0  0  0  0  0  2  0  0  0  0  0  0
  192.2650  179.1980  144.1190 O   0  0  0  0  0  0  0  0  0  0  0  0
  186.8020  178.3760  143.0840 C   0  0  0  0  0  0  0  0  0  0  0  0
  191.1070  174.8230  143.9210 O   0  0  0  0  0  0  0  0  0  0  0  0
  190.0120  176.0070  142.1750 C   0  0  0  0  0  2  0  0  0  0  0  0
  191.8130  176.9910  143.7080 O   0  0  0  0  0  0  0  0  0  0  0  0
  185.4780  178.4890  143.0990 C   0  0  0  0  0  0  0  0  0  0  0  0
  184.8760  178.1920  146.7440 N   0  0  0  0  0  2  0  0  0  0  0  0
  183.4960  178.5630  144.1570 N   0  0  0  0  0  0  0  0  0  0  0  0
  191.4100  178.2760  144.1190 C   0  0  0  0  0  0  0  0  0  0  0  0
  187.5540  178.2030  144.2990 C   0  0  0  0  0  0  0  0  0  0  0  0
  183.3230  178.6850  142.7310 C   0  0  0  0  0  3  0  0  0  0  0  0
  189.4310  177.3760  140.2190 N   0  0  0  0  0  2  0  0  0  0  0  0
  190.3330  176.4710  139.5290 C   0  0  0  0  0  2  0  0  0  0  0  0
  190.8450  177.1350  138.2580 C   0  0  0  0  0  2  0  0  0  0  0  0
  189.7460  175.1210  137.4080 C   0  0  0  0  0  1  0  0  0  0  0  0
  190.4700  176.3860  136.9700 C   0  0  1  0  0  0  0  0  0  0  0  0
  189.5060  177.2120  136.0840 C   0  0  2  0  0  3  0  0  0  0  0  0
  188.9570  178.4590  136.7620 C   0  0  0  0  0  1  0  0  0  0  0  0
  188.4460  176.4270  135.6220 O   0  0  0  0  0  1  0  0  0  0  0  0
  191.7510  175.9800  136.2140 C   0  0  0  0  0  2  0  0  0  0  0  0
  193.0880  174.6820  137.7120 O   0  0  0  0  0  1  0  0  0  0  0  0
  192.9400  175.7730  137.1020 C   0  0  0  0  0  0  0  0  0  0  0  0
  193.8900  176.7760  137.2400 O   0  0  0  0  0  0  0  0  0  0  0  0
  1 13  1  0  0  0  0
  2 16  1  0  0  0  0
  2 14  2  0  0  0  0
  3 21  1  0  0  0  0
  3 11  1  1  0  0  0
  4 23  1  6  0  0  0
  4 15  1  0  0  0  0
  4  5  1  0  0  0  0
  5  1  1  6  0  0  0
  5  3  1  0  0  0  0
  6 10  1  0  0  0  0
  6  7  1  0  0  0  0
  8 22  2  0  0  0  0
  8 17  1  0  0  0  0
  9 10  1  0  0  0  0
 10 18  2  0  0  0  0
 13 17  2  0  0  0  0
 13 21  1  0  0  0  0
 15  2  1  0  0  0  0
 16 20  1  0  0  0  0
 17  9  1  0  0  0  0
 19  9  2  0  0  0  0
 20 12  2  0  0  0  0
 20 11  1  0  0  0  0
 21  6  2  0  0  0  0
 22 19  1  0  0  0  0
 24 23  1  0  0  0  0
 25 24  1  0  0  0  0
 27 26  1  1  0  0  0
 27 25  1  0  0  0  0
 28 29  1  1  0  0  0
 28 27  1  0  0  0  0
 30 28  1  0  0  0  0
 31 27  1  0  0  0  0
 31 33  1  0  0  0  0
 33 34  2  0  0  0  0
 33 32  1  0  0  0  0
M  END
>  <MODEL>
2

>  <REMARK>
 VINA RESULT:      -7.9      1.456      2.194
  Name = 
  7 active torsions:
  status: ('A' for Active; 'I' for Inactive)
    1  A    between atoms: C_2  and  C_11
    2  A    between atoms: C_3  and  C_21
    3  A    between atoms: C_7  and  N_9
    4  A    between atoms: N_9  and  C_14
    5  A    between atoms: C_11  and  C_21
    6  A    between atoms: C_14  and  C_32
    7  A    between atoms: C_21  and  C_32
                            x       y       z     vdW  Elec       q    Type
                         _______ _______ _______ _____ _____    ______ ____

>  <TORSDO>
F 7

$$$$
=
 OpenBabel11062416533D

 34 37  0  0  1  0  0  0  0  0999 V2000
  188.4210  178.6330  139.4310 N   0  0  0  0  0  2  0  0  0  0  0  0
  190.9270  175.4430  137.9750 C   0  0  0  0  0  0  0  0  0  0  0  0
  190.0480  177.1520  140.1340 C   0  0  1  0  0  3  0  0  0  0  0  0
  189.8800  177.7460  137.7450 C   0  0  1  0  0  3  0  0  0  0  0  0
  189.7420  178.2160  139.1450 N   0  0  1  0  0  0  0  0  0  0  0  0
  188.9830  176.7190  142.4490 C   0  0  0  0  0  0  0  0  0  0  0  0
  189.9440  175.8040  142.8640 O   0  0  0  0  0  1  0  0  0  0  0  0
  185.7970  179.2890  141.1390 C   0  0  0  0  0  3  0  0  0  0  0  0
  186.7750  177.9230  142.7200 C   0  0  0  0  0  0  0  0  0  0  0  0
  187.7880  177.0130  143.2970 C   0  0  0  0  0  0  0  0  0  0  0  0
  191.5160  177.1510  140.5130 C   0  0  0  0  0  2  0  0  0  0  0  0
  193.4710  177.6390  139.2670 O   0  0  0  0  0  0  0  0  0  0  0  0
  188.0760  178.2200  140.7330 C   0  0  0  0  0  0  0  0  0  0  0  0
  190.8590  174.1870  137.9310 O   0  0  0  0  0  0  0  0  0  0  0  0
  189.7130  176.2350  137.5510 C   0  0  0  0  0  2  0  0  0  0  0  0
  192.1600  176.0380  138.2860 O   0  0  0  0  0  0  0  0  0  0  0  0
  186.9710  178.4890  141.4200 C   0  0  0  0  0  0  0  0  0  0  0  0
  187.6200  176.4550  144.4500 N   0  0  0  0  0  2  0  0  0  0  0  0
  185.6460  178.2830  143.2240 N   0  0  0  0  0  0  0  0  0  0  0  0
  192.4040  176.9740  139.3100 C   0  0  0  0  0  0  0  0  0  0  0  0
  189.0940  177.3490  141.2600 C   0  0  0  0  0  0  0  0  0  0  0  0
  185.0410  179.1390  142.2370 C   0  0  0  0  0  3  0  0  0  0  0  0
  189.0050  178.4760  136.8350 N   0  0  0  0  0  2  0  0  0  0  0  0
  188.4560  177.5070  135.9030 C   0  0  0  0  0  2  0  0  0  0  0  0
  187.0270  177.8940  135.5520 C   0  0  0  0  0  2  0  0  0  0  0  0
  184.7040  177.1630  135.3110 C   0  0  0  0  0  1  0  0  0  0  0  0
  185.9650  176.9510  136.1370 C   0  0  1  0  0  0  0  0  0  0  0  0
  186.3820  175.4650  136.0090 C   0  0  2  0  0  3  0  0  0  0  0  0
  185.4080  174.6160  135.2050 C   0  0  0  0  0  1  0  0  0  0  0  0
  186.5790  174.8850  137.2660 O   0  0  0  0  0  1  0  0  0  0  0  0
  185.6660  177.3470  137.5970 C   0  0  0  0  0  2  0  0  0  0  0  0
  183.5480  178.3320  138.1080 O   0  0  0  0  0  0  0  0  0  0  0  0
  184.2150  177.2740  137.9620 C   0  0  0  0  0  0  0  0  0  0  0  0
  183.5980  176.0410  138.1220 O   0  0  0  0  0  1  0  0  0  0  0  0
  1 13  1  0  0  0  0
  2 16  1  0  0  0  0
  3 11  1  1  0  0  0
  3 21  1  0  0  0  0
  4 23  1  6  0  0  0
  4  5  1  0  0  0  0
  5  1  1  6  0  0  0
  5  3  1  0  0  0  0
  6  7  1  0  0  0  0
  6 10  1  0  0  0  0
  8 17  1  0  0  0  0
  8 22  2  0  0  0  0
  9 19  2  0  0  0  0
  9 10  1  0  0  0  0
 10 18  2  0  0  0  0
 12 20  2  0  0  0  0
 13 21  1  0  0  0  0
 13 17  2  0  0  0  0
 14  2  2  0  0  0  0
 15  4  1  0  0  0  0
 15  2  1  0  0  0  0
 16 20  1  0  0  0  0
 17  9  1  0  0  0  0
 20 11  1  0  0  0  0
 21  6  2  0  0  0  0
 22 19  1  0  0  0  0
 24 23  1  0  0  0  0
 25 24  1  0  0  0  0
 25 27  1  0  0  0  0
 27 26  1  6  0  0  0
 27 31  1  0  0  0  0
 28 29  1  1  0  0  0
 28 27  1  0  0  0  0
 28 30  1  0  0  0  0
 31 33  1  0  0  0  0
 33 32  2  0  0  0  0
 33 34  1  0  0  0  0
M  END
>  <MODEL>
3

>  <REMARK>
 VINA RESULT:      -7.7      2.704      4.157
  Name = 
  7 active torsions:
  status: ('A' for Active; 'I' for Inactive)
    1  A    between atoms: C_2  and  C_11
    2  A    between atoms: C_3  and  C_21
    3  A    between atoms: C_7  and  N_9
    4  A    between atoms: N_9  and  C_14
    5  A    between atoms: C_11  and  C_21
    6  A    between atoms: C_14  and  C_32
    7  A    between atoms: C_21  and  C_32
                            x       y       z     vdW  Elec       q    Type
                         _______ _______ _______ _____ _____    ______ ____

>  <TORSDO>
F 7

$$$$
=
 OpenBabel11062416533D

 34 37  0  0  1  0  0  0  0  0999 V2000
  187.4120  178.2950  142.0650 N   0  0  0  0  0  2  0  0  0  0  0  0
  190.7590  175.8560  143.2580 C   0  0  0  0  0  0  0  0  0  0  0  0
  188.7990  177.8920  143.8670 C   0  0  1  0  0  3  0  0  0  0  0  0
  189.5630  177.3470  141.5850 C   0  0  1  0  0  3  0  0  0  0  0  0
  188.7770  178.2750  142.4330 N   0  0  1  0  0  0  0  0  0  0  0  0
  186.9400  178.1200  145.6480 C   0  0  0  0  0  0  0  0  0  0  0  0
  187.7660  177.8480  146.7330 O   0  0  0  0  0  1  0  0  0  0  0  0
  184.2450  178.6580  142.3440 C   0  0  0  0  0  3  0  0  0  0  0  0
  184.6660  178.4940  144.6060 C   0  0  0  0  0  0  0  0  0  0  0  0
  185.4690  178.3110  145.8340 C   0  0  0  0  0  0  0  0  0  0  0  0
  189.9510  178.5490  144.6010 C   0  0  0  0  0  2  0  0  0  0  0  0
  192.1480  179.1140  143.9130 O   0  0  0  0  0  0  0  0  0  0  0  0
  186.6200  178.3670  143.2280 C   0  0  0  0  0  0  0  0  0  0  0  0
  190.9130  174.7560  143.8470 O   0  0  0  0  0  0  0  0  0  0  0  0
  189.7300  175.9350  142.1560 C   0  0  0  0  0  2  0  0  0  0  0  0
  191.6380  176.9090  143.5620 O   0  0  0  0  0  0  0  0  0  0  0  0
  185.3010  178.5010  143.3230 C   0  0  0  0  0  0  0  0  0  0  0  0
  184.9210  178.2600  147.0020 N   0  0  0  0  0  2  0  0  0  0  0  0
  183.3890  178.6210  144.5000 N   0  0  0  0  0  0  0  0  0  0  0  0
  191.2800  178.2050  143.9790 C   0  0  0  0  0  0  0  0  0  0  0  0
  187.4420  178.1970  144.3970 C   0  0  0  0  0  0  0  0  0  0  0  0
  183.1300  178.7280  143.0860 C   0  0  0  0  0  3  0  0  0  0  0  0
  189.0510  177.2880  140.2200 N   0  0  0  0  0  2  0  0  0  0  0  0
  190.0830  177.8280  139.3540 C   0  0  0  0  0  2  0  0  0  0  0  0
  191.1660  176.7800  139.1400 C   0  0  0  0  0  2  0  0  0  0  0  0
  190.3480  177.1080  136.8570 C   0  0  0  0  0  1  0  0  0  0  0  0
  191.1750  176.1730  137.7280 C   0  0  1  0  0  0  0  0  0  0  0  0
  192.6060  176.1060  137.1410 C   0  0  2  0  0  3  0  0  0  0  0  0
  193.1770  174.6970  137.0600 C   0  0  0  0  0  1  0  0  0  0  0  0
  193.4850  176.9250  137.8550 O   0  0  0  0  0  1  0  0  0  0  0  0
  190.4910  174.7910  137.7520 C   0  0  0  0  0  2  0  0  0  0  0  0
  189.8710  174.2660  135.5030 O   0  0  0  0  0  0  0  0  0  0  0  0
  189.4880  174.5920  136.6570 C   0  0  0  0  0  0  0  0  0  0  0  0
  188.1330  174.7480  136.9160 O   0  0  0  0  0  1  0  0  0  0  0  0
  1 13  1  0  0  0  0
  2 16  1  0  0  0  0
  2 14  2  0  0  0  0
  3 21  1  0  0  0  0
  3 11  1  1  0  0  0
  4 23  1  6  0  0  0
  4 15  1  0  0  0  0
  4  5  1  0  0  0  0
  5  1  1  6  0  0  0
  5  3  1  0  0  0  0
  6 10  1  0  0  0  0
  6  7  1  0  0  0  0
  8 22  2  0  0  0  0
  8 17  1  0  0  0  0
  9 10  1  0  0  0  0
 10 18  2  0  0  0  0
 12 20  2  0  0  0  0
 13 17  2  0  0  0  0
 13 21  1  0  0  0  0
 15  2  1  0  0  0  0
 16 20  1  0  0  0  0
 17  9  1  0  0  0  0
 19  9  2  0  0  0  0
 20 11  1  0  0  0  0
 21  6  2  0  0  0  0
 22 19  1  0  0  0  0
 24 23  1  0  0  0  0
 25 24  1  0  0  0  0
 27 26  1  6  0  0  0
 27 31  1  0  0  0  0
 27 25  1  0  0  0  0
 28 29  1  1  0  0  0
 28 27  1  0  0  0  0
 28 30  1  0  0  0  0
 32 33  2  0  0  0  0
 33 34  1  0  0  0  0
 33 31  1  0  0  0  0
M  END
>  <MODEL>
4

>  <REMARK>
 VINA RESULT:      -7.5      1.303      2.083
  Name = 
  7 active torsions:
  status: ('A' for Active; 'I' for Inactive)
    1  A    between atoms: C_2  and  C_11
    2  A    between atoms: C_3  and  C_21
    3  A    between atoms: C_7  and  N_9
    4  A    between atoms: N_9  and  C_14
    5  A    between atoms: C_11  and  C_21
    6  A    between atoms: C_14  and  C_32
    7  A    between atoms: C_21  and  C_32
                            x       y       z     vdW  Elec       q    Type
                         _______ _______ _______ _____ _____    ______ ____

>  <TORSDO>
F 7

$$$$
=
 OpenBabel11062416533D

 34 37  0  0  1  0  0  0  0  0999 V2000
  187.3980  178.4400  142.1450 N   0  0  0  0  0  2  0  0  0  0  0  0
  190.7710  175.9510  143.1490 C   0  0  0  0  0  0  0  0  0  0  0  0
  188.8160  177.9440  143.9000 C   0  0  1  0  0  3  0  0  0  0  0  0
  189.5430  177.5270  141.5790 C   0  0  1  0  0  3  0  0  0  0  0  0
  188.7690  178.4050  142.4890 N   0  0  1  0  0  0  0  0  0  0  0  0
  186.9850  178.0680  145.7210 C   0  0  0  0  0  0  0  0  0  0  0  0
  187.8300  177.7400  146.7750 O   0  0  0  0  0  1  0  0  0  0  0  0
  184.2350  178.7770  142.4950 C   0  0  0  0  0  3  0  0  0  0  0  0
  184.6930  178.4900  144.7380 C   0  0  0  0  0  0  0  0  0  0  0  0
  185.5170  178.2440  145.9400 C   0  0  0  0  0  0  0  0  0  0  0  0
  189.9780  178.5640  144.6500 C   0  0  0  0  0  2  0  0  0  0  0  0
  192.1610  179.1730  143.9590 O   0  0  0  0  0  0  0  0  0  0  0  0
  186.6250  178.4460  143.3230 C   0  0  0  0  0  0  0  0  0  0  0  0
  190.9360  174.8210  143.6750 O   0  0  0  0  0  0  0  0  0  0  0  0
  189.7240  176.0860  142.0700 C   0  0  0  0  0  2  0  0  0  0  0  0
  191.6510  176.9890  143.4960 O   0  0  0  0  0  0  0  0  0  0  0  0
  185.3070  178.5700  143.4470 C   0  0  0  0  0  0  0  0  0  0  0  0
  184.9880  178.1270  147.1130 N   0  0  0  0  0  2  0  0  0  0  0  0
  183.4150  178.6180  144.6590 N   0  0  0  0  0  0  0  0  0  0  0  0
  191.2970  178.2590  143.9890 C   0  0  0  0  0  0  0  0  0  0  0  0
  187.4670  178.2160  144.4670 C   0  0  0  0  0  0  0  0  0  0  0  0
  183.1330  178.8010  143.2580 C   0  0  0  0  0  3  0  0  0  0  0  0
  189.0090  177.5410  140.2220 N   0  0  0  0  0  2  0  0  0  0  0  0
  190.1440  177.5120  139.3170 C   0  0  0  0  0  2  0  0  0  0  0  0
  189.6590  177.7070  137.8880 C   0  0  0  0  0  2  0  0  0  0  0  0
  189.7880  176.9530  135.5640 C   0  0  0  0  0  1  0  0  0  0  0  0
  189.8090  176.4600  137.0040 C   0  0  1  0  0  0  0  0  0  0  0  0
  191.1580  175.7410  137.2480 C   0  0  2  0  0  3  0  0  0  0  0  0
  191.9710  175.5010  135.9830 C   0  0  0  0  0  1  0  0  0  0  0  0
  190.9710  174.5280  137.9180 O   0  0  0  0  0  1  0  0  0  0  0  0
  188.6040  175.5230  137.2180 C   0  0  0  0  0  2  0  0  0  0  0  0
  188.7340  173.8670  135.4980 O   0  0  0  0  0  1  0  0  0  0  0  0
  188.1190  174.8610  135.9650 C   0  0  0  0  0  0  0  0  0  0  0  0
  186.9800  175.3310  135.3240 O   0  0  0  0  0  0  0  0  0  0  0  0
  1 13  1  0  0  0  0
  2 16  1  0  0  0  0
  2 14  2  0  0  0  0
  3 21  1  0  0  0  0
  3 11  1  1  0  0  0
  4 23  1  6  0  0  0
  4 15  1  0  0  0  0
  4  5  1  0  0  0  0
  5  1  1  6  0  0  0
  5  3  1  0  0  0  0
  6 10  1  0  0  0  0
  6  7  1  0  0  0  0
  8 22  2  0  0  0  0
  8 17  1  0  0  0  0
  9 10  1  0  0  0  0
 10 18  2  0  0  0  0
 12 20  2  0  0  0  0
 13 17  2  0  0  0  0
 13 21  1  0  0  0  0
 15  2  1  0  0  0  0
 16 20  1  0  0  0  0
 17  9  1  0  0  0  0
 19  9  2  0  0  0  0
 20 11  1  0  0  0  0
 21  6  2  0  0  0  0
 22 19  1  0  0  0  0
 24 23  1  0  0  0  0
 25 24  1  0  0  0  0
 27 26  1  6  0  0  0
 27 31  1  0  0  0  0
 27 28  1  0  0  0  0
 27 25  1  0  0  0  0
 28 29  1  6  0  0  0
 28 30  1  0  0  0  0
 32 33  1  0  0  0  0
 33 31  1  0  0  0  0
 34 33  2  0  0  0  0
M  END
>  <MODEL>
5

>  <REMARK>
 VINA RESULT:      -7.4      1.336      1.753
  Name = 
  7 active torsions:
  status: ('A' for Active; 'I' for Inactive)
    1  A    between atoms: C_2  and  C_11
    2  A    between atoms: C_3  and  C_21
    3  A    between atoms: C_7  and  N_9
    4  A    between atoms: N_9  and  C_14
    5  A    between atoms: C_11  and  C_21
    6  A    between atoms: C_14  and  C_32
    7  A    between atoms: C_21  and  C_32
                            x       y       z     vdW  Elec       q    Type
                         _______ _______ _______ _____ _____    ______ ____

>  <TORSDO>
F 7

$$$$
=
 OpenBabel11062416533D

 34 37  0  0  1  0  0  0  0  0999 V2000
  186.5670  178.6280  139.3690 N   0  0  0  0  0  2  0  0  0  0  0  0
  182.4840  177.8500  140.5100 C   0  0  0  0  0  0  0  0  0  0  0  0
  184.4830  178.2300  138.4560 C   0  0  1  0  0  3  0  0  0  0  0  0
  184.6680  179.1270  140.7470 C   0  0  1  0  0  3  0  0  0  0  0  0
  185.2390  179.1130  139.3790 N   0  0  1  0  0  0  0  0  0  0  0  0
  185.3560  176.7710  136.5090 C   0  0  0  0  0  0  0  0  0  0  0  0
  184.1010  176.5050  135.9740 O   0  0  0  0  0  1  0  0  0  0  0  0
  189.2470  177.2760  138.2630 C   0  0  0  0  0  3  0  0  0  0  0  0
  187.8550  176.4060  136.6410 C   0  0  0  0  0  0  0  0  0  0  0  0
  186.5830  176.1370  135.9380 C   0  0  0  0  0  0  0  0  0  0  0  0
  183.3740  178.9820  137.7480 C   0  0  0  0  0  2  0  0  0  0  0  0
  181.9700  180.7570  138.4480 O   0  0  0  0  0  0  0  0  0  0  0  0
  186.7550  177.8190  138.2310 C   0  0  0  0  0  0  0  0  0  0  0  0
  181.7750  176.8280  140.6940 O   0  0  0  0  0  0  0  0  0  0  0  0
  183.8630  177.8780  141.1240 C   0  0  0  0  0  2  0  0  0  0  0  0
  181.9120  178.9570  139.8620 O   0  0  0  0  0  0  0  0  0  0  0  0
  187.8760  177.2510  137.7970 C   0  0  1  0  0  3  0  0  0  0  0  0
  186.5260  175.3480  134.9170 N   0  0  0  0  0  1  0  0  0  0  0  0
  189.0260  175.9370  136.3810 N   0  0  0  0  0  0  0  0  0  0  0  0
  182.4140  179.6130  138.7220 C   0  0  0  0  0  0  0  0  0  0  0  0
  185.4970  177.5940  137.5710 C   0  0  0  0  0  0  0  0  0  0  0  0
  189.8930  176.4850  137.3930 C   0  0  0  0  0  3  0  0  0  0  0  0
  185.6800  179.4050  141.7590 N   0  0  0  0  0  2  0  0  0  0  0  0
  185.5180  178.4140  142.8080 C   0  0  0  0  0  2  0  0  0  0  0  0
  186.1920  178.9060  144.0810 C   0  0  0  0  0  2  0  0  0  0  0  0
  186.8850  176.5620  143.9910 C   0  0  0  0  0  1  0  0  0  0  0  0
  186.9140  177.8040  144.8700 C   0  0  1  0  0  0  0  0  0  0  0  0
  188.3930  178.1670  145.1440 C   0  0  2  0  0  3  0  0  0  0  0  0
  189.3800  177.5100  144.1890 C   0  0  0  0  0  1  0  0  0  0  0  0
  188.7520  177.8700  146.4620 O   0  0  0  0  0  1  0  0  0  0  0  0
  186.1390  177.5030  146.1690 C   0  0  0  0  0  2  0  0  0  0  0  0
  185.7060  179.5400  147.3430 O   0  0  0  0  0  1  0  0  0  0  0  0
  185.2470  178.6200  146.6170 C   0  0  0  0  0  0  0  0  0  0  0  0
  183.9180  178.6530  146.2190 O   0  0  0  0  0  0  0  0  0  0  0  0
  2 14  2  0  0  0  0
  2 15  1  0  0  0  0
  3 11  1  6  0  0  0
  3  5  1  0  0  0  0
  4 15  1  0  0  0  0
  4 23  1  1  0  0  0
  5  1  1  1  0  0  0
  5  4  1  0  0  0  0
  6 21  1  0  0  0  0
  7  6  1  0  0  0  0
  9 17  1  0  0  0  0
 10  6  2  0  0  0  0
 10  9  1  0  0  0  0
 11 20  1  0  0  0  0
 12 20  2  0  0  0  0
 13  1  1  0  0  0  0
 16  2  1  0  0  0  0
 17 13  1  0  0  0  0
 17  8  1  1  0  0  0
 18 10  1  0  0  0  0
 19  9  2  0  0  0  0
 19 22  1  0  0  0  0
 20 16  1  0  0  0  0
 21 13  2  0  0  0  0
 21  3  1  0  0  0  0
 22  8  2  0  0  0  0
 23 24  1  0  0  0  0
 24 25  1  0  0  0  0
 25 27  1  0  0  0  0
 27 26  1  6  0  0  0
 27 28  1  0  0  0  0
 27 31  1  0  0  0  0
 28 29  1  6  0  0  0
 28 30  1  0  0  0  0
 31 33  1  0  0  0  0
 33 32  1  0  0  0  0
 34 33  2  0  0  0  0
M  END
>  <MODEL>
6

>  <REMARK>
 VINA RESULT:      -7.2      3.209      8.718
  Name = 
  7 active torsions:
  status: ('A' for Active; 'I' for Inactive)
    1  A    between atoms: C_2  and  C_11
    2  A    between atoms: C_3  and  C_21
    3  A    between atoms: C_7  and  N_9
    4  A    between atoms: N_9  and  C_14
    5  A    between atoms: C_11  and  C_21
    6  A    between atoms: C_14  and  C_32
    7  A    between atoms: C_21  and  C_32
                            x       y       z     vdW  Elec       q    Type
                         _______ _______ _______ _____ _____    ______ ____

>  <TORSDO>
F 7

$$$$
=
 OpenBabel11062416533D

 34 37  0  0  1  0  0  0  0  0999 V2000
  186.9340  178.8780  140.7200 N   0  0  0  0  0  2  0  0  0  0  0  0
  182.7320  177.9240  140.6210 C   0  0  0  0  0  0  0  0  0  0  0  0
  185.2130  178.4620  139.2370 C   0  0  1  0  0  3  0  0  0  0  0  0
  184.7030  179.2530  141.5180 C   0  0  1  0  0  3  0  0  0  0  0  0
  185.6380  179.3220  140.3700 N   0  0  1  0  0  0  0  0  0  0  0  0
  186.6630  177.1260  137.5650 C   0  0  0  0  0  0  0  0  0  0  0  0
  185.6220  176.8480  136.6860 O   0  0  0  0  0  1  0  0  0  0  0  0
  189.8730  177.6610  140.3720 C   0  0  0  0  0  3  0  0  0  0  0  0
  189.0350  176.8290  138.3900 C   0  0  0  0  0  0  0  0  0  0  0  0
  188.0270  176.5570  137.3430 C   0  0  0  0  0  0  0  0  0  0  0  0
  184.3200  179.2150  138.2710 C   0  0  0  0  0  2  0  0  0  0  0  0
  182.7000  180.9110  138.6090 O   0  0  0  0  0  0  0  0  0  0  0  0
  187.4720  178.1310  139.6530 C   0  0  0  0  0  0  0  0  0  0  0  0
  182.0440  176.8730  140.5560 O   0  0  0  0  0  0  0  0  0  0  0  0
  183.8780  177.9640  141.6020 C   0  0  0  0  0  2  0  0  0  0  0  0
  182.3200  179.0440  139.8790 O   0  0  0  0  0  0  0  0  0  0  0  0
  188.6920  177.6180  139.5340 C   0  0  0  0  0  0  0  0  0  0  0  0
  188.2950  175.8170  136.3200 N   0  0  0  0  0  1  0  0  0  0  0  0
  190.2500  176.4090  138.4560 N   0  0  0  0  0  0  0  0  0  0  0  0
  183.0970  179.7680  138.9550 C   0  0  0  0  0  0  0  0  0  0  0  0
  186.4620  177.9010  138.6530 C   0  0  0  0  0  0  0  0  0  0  0  0
  190.7710  176.9330  139.6930 C   0  0  0  0  0  2  0  0  0  0  0  0
  185.3750  179.5120  142.7860 N   0  0  0  0  0  2  0  0  0  0  0  0
  185.0740  178.3950  143.6640 C   0  0  0  0  0  2  0  0  0  0  0  0
  185.7750  178.5950  145.0000 C   0  0  0  0  0  2  0  0  0  0  0  0
  186.6290  176.3850  145.6100 C   0  0  0  0  0  1  0  0  0  0  0  0
  187.0630  177.7720  145.1570 C   0  0  1  0  0  0  0  0  0  0  0  0
  187.8210  177.6270  143.8160 C   0  0  2  0  0  3  0  0  0  0  0  0
  188.0270  176.1850  143.3730 C   0  0  0  0  0  1  0  0  0  0  0  0
  189.0550  178.2830  143.8580 O   0  0  0  0  0  1  0  0  0  0  0  0
  187.9450  178.3930  146.2590 C   0  0  0  0  0  2  0  0  0  0  0  0
  189.6130  176.7700  146.8040 O   0  0  0  0  0  0  0  0  0  0  0  0
  188.5790  177.3860  147.1700 C   0  0  0  0  0  0  0  0  0  0  0  0
  188.0360  177.1420  148.4240 O   0  0  0  0  0  1  0  0  0  0  0  0
  2 15  1  0  0  0  0
  3 11  1  6  0  0  0
  3  5  1  0  0  0  0
  4 15  1  0  0  0  0
  4 23  1  1  0  0  0
  5  1  1  1  0  0  0
  5  4  1  0  0  0  0
  6 21  1  0  0  0  0
  7  6  1  0  0  0  0
  9 19  2  0  0  0  0
  9 17  1  0  0  0  0
 10  6  2  0  0  0  0
 10  9  1  0  0  0  0
 11 20  1  0  0  0  0
 12 20  2  0  0  0  0
 13  1  1  0  0  0  0
 14  2  2  0  0  0  0
 16  2  1  0  0  0  0
 17 13  1  0  0  0  0
 17  8  2  0  0  0  0
 18 10  1  0  0  0  0
 19 22  1  0  0  0  0
 20 16  1  0  0  0  0
 21  3  1  0  0  0  0
 21 13  2  0  0  0  0
 22  8  1  0  0  0  0
 23 24  1  0  0  0  0
 24 25  1  0  0  0  0
 25 27  1  0  0  0  0
 27 26  1  1  0  0  0
 27 31  1  0  0  0  0
 28 29  1  1  0  0  0
 28 30  1  0  0  0  0
 28 27  1  0  0  0  0
 31 33  1  0  0  0  0
 32 33  2  0  0  0  0
 33 34  1  0  0  0  0
M  END
>  <MODEL>
7

>  <REMARK>
 VINA RESULT:      -7.1      2.723      8.252
  Name = 
  7 active torsions:
  status: ('A' for Active; 'I' for Inactive)
    1  A    between atoms: C_2  and  C_11
    2  A    between atoms: C_3  and  C_21
    3  A    between atoms: C_7  and  N_9
    4  A    between atoms: N_9  and  C_14
    5  A    between atoms: C_11  and  C_21
    6  A    between atoms: C_14  and  C_32
    7  A    between atoms: C_21  and  C_32
                            x       y       z     vdW  Elec       q    Type
                         _______ _______ _______ _____ _____    ______ ____

>  <TORSDO>
F 7

$$$$
=
 OpenBabel11062416533D

 34 37  0  0  1  0  0  0  0  0999 V2000
  186.9350  178.6130  139.5210 N   0  0  0  0  0  2  0  0  0  0  0  0
  182.8280  177.8090  140.5520 C   0  0  0  0  0  0  0  0  0  0  0  0
  184.8530  178.3420  138.5590 C   0  0  1  0  0  3  0  0  0  0  0  0
  185.0320  179.0160  140.9260 C   0  0  1  0  0  3  0  0  0  0  0  0
  185.6160  179.1200  139.5670 N   0  0  1  0  0  0  0  0  0  0  0  0
  185.7180  177.0570  136.4890 C   0  0  0  0  0  0  0  0  0  0  0  0
  184.4630  176.8660  135.9230 O   0  0  0  0  0  1  0  0  0  0  0  0
  189.6000  177.3200  138.3130 C   0  0  0  0  0  3  0  0  0  0  0  0
  188.2080  176.6330  136.6060 C   0  0  0  0  0  0  0  0  0  0  0  0
  186.9380  176.4560  135.8700 C   0  0  0  0  0  0  0  0  0  0  0  0
  183.7650  179.1790  137.9160 C   0  0  0  0  0  2  0  0  0  0  0  0
  182.3860  180.9070  138.7700 O   0  0  0  0  0  0  0  0  0  0  0  0
  187.1190  177.9110  138.3130 C   0  0  0  0  0  0  0  0  0  0  0  0
  182.0990  176.7870  140.6330 O   0  0  0  0  0  0  0  0  0  0  0  0
  184.2010  177.7530  141.1770 C   0  0  0  0  0  2  0  0  0  0  0  0
  182.2820  178.9830  140.0080 O   0  0  0  0  0  0  0  0  0  0  0  0
  188.2340  177.3650  137.8360 C   0  0  1  0  0  3  0  0  0  0  0  0
  186.8760  175.7670  134.7790 N   0  0  0  0  0  1  0  0  0  0  0  0
  189.3720  176.1680  136.3120 N   0  0  0  0  0  0  0  0  0  0  0  0
  182.8070  179.7330  138.9380 C   0  0  0  0  0  0  0  0  0  0  0  0
  185.8630  177.7730  137.6250 C   0  0  0  0  0  0  0  0  0  0  0  0
  190.2400  176.6030  137.3770 C   0  0  0  0  0  3  0  0  0  0  0  0
  186.0400  179.1780  141.9670 N   0  0  0  0  0  2  0  0  0  0  0  0
  186.3540  177.8510  142.4670 C   0  0  0  0  0  2  0  0  0  0  0  0
  186.9040  177.9590  143.8820 C   0  0  0  0  0  2  0  0  0  0  0  0
  189.2490  178.5250  143.4730 C   0  0  0  0  0  1  0  0  0  0  0  0
  188.3420  177.4380  144.0320 C   0  0  1  0  0  0  0  0  0  0  0  0
  188.7190  177.2110  145.5160 C   0  0  2  0  0  3  0  0  0  0  0  0
  187.6330  177.6200  146.5010 C   0  0  0  0  0  1  0  0  0  0  0  0
  189.9120  177.8630  145.8410 O   0  0  0  0  0  1  0  0  0  0  0  0
  188.5240  176.1630  143.1840 C   0  0  0  0  0  2  0  0  0  0  0  0
  190.1850  176.1280  141.4640 O   0  0  0  0  0  0  0  0  0  0  0  0
  189.9220  175.9610  142.6840 C   0  0  0  0  0  0  0  0  0  0  0  0
  190.9330  175.6060  143.5660 O   0  0  0  0  0  1  0  0  0  0  0  0
  2 14  2  0  0  0  0
  2 15  1  0  0  0  0
  3 11  1  6  0  0  0
  3  5  1  0  0  0  0
  4 15  1  0  0  0  0
  4 23  1  1  0  0  0
  5  1  1  1  0  0  0
  5  4  1  0  0  0  0
  6 21  1  0  0  0  0
  7  6  1  0  0  0  0
  9 17  1  0  0  0  0
 10  6  2  0  0  0  0
 10  9  1  0  0  0  0
 11 20  1  0  0  0  0
 12 20  2  0  0  0  0
 13  1  1  0  0  0  0
 16  2  1  0  0  0  0
 17  8  1  1  0  0  0
 17 13  1  0  0  0  0
 18 10  1  0  0  0  0
 19  9  2  0  0  0  0
 19 22  1  0  0  0  0
 20 16  1  0  0  0  0
 21 13  2  0  0  0  0
 21  3  1  0  0  0  0
 22  8  2  0  0  0  0
 23 24  1  0  0  0  0
 24 25  1  0  0  0  0
 25 27  1  0  0  0  0
 27 26  1  6  0  0  0
 27 28  1  0  0  0  0
 28 30  1  0  0  0  0
 28 29  1  1  0  0  0
 31 27  1  0  0  0  0
 32 33  2  0  0  0  0
 33 31  1  0  0  0  0
 33 34  1  0  0  0  0
M  END
>  <MODEL>
8

>  <REMARK>
 VINA RESULT:      -7.0      2.985      8.195
  Name = 
  7 active torsions:
  status: ('A' for Active; 'I' for Inactive)
    1  A    between atoms: C_2  and  C_11
    2  A    between atoms: C_3  and  C_21
    3  A    between atoms: C_7  and  N_9
    4  A    between atoms: N_9  and  C_14
    5  A    between atoms: C_11  and  C_21
    6  A    between atoms: C_14  and  C_32
    7  A    between atoms: C_21  and  C_32
                            x       y       z     vdW  Elec       q    Type
                         _______ _______ _______ _____ _____    ______ ____

>  <TORSDO>
F 7

$$$$
=
 OpenBabel11062416533D

 34 37  0  0  1  0  0  0  0  0999 V2000
  185.9200  178.7350  140.6120 N   0  0  0  0  0  2  0  0  0  0  0  0
  187.4230  176.4180  137.3030 C   0  0  0  0  0  0  0  0  0  0  0  0
  187.8880  177.8900  139.7470 C   0  0  1  0  0  3  0  0  0  0  0  0
  185.9510  178.2540  138.2620 C   0  0  1  0  0  3  0  0  0  0  0  0
  186.7100  178.7400  139.4390 N   0  0  1  0  0  0  0  0  0  0  0  0
  188.9110  177.2830  142.0420 C   0  0  0  0  0  0  0  0  0  0  0  0
  190.0840  176.7470  141.5220 O   0  0  0  0  0  1  0  0  0  0  0  0
  185.1930  178.6290  143.7260 C   0  0  0  0  0  3  0  0  0  0  0  0
  187.3110  177.7410  143.9470 C   0  0  0  0  0  0  0  0  0  0  0  0
  188.6300  177.2360  143.5090 C   0  0  0  0  0  0  0  0  0  0  0  0
  189.1290  178.3760  139.0240 C   0  0  0  0  0  2  0  0  0  0  0  0
  189.4290  179.3810  136.8990 O   0  0  0  0  0  0  0  0  0  0  0  0
  186.7100  178.3130  141.7010 C   0  0  0  0  0  0  0  0  0  0  0  0
  187.6820  175.2060  137.0900 O   0  0  0  0  0  0  0  0  0  0  0  0
  186.1090  176.7590  137.9640 C   0  0  0  0  0  2  0  0  0  0  0  0
  188.3000  177.3910  136.7970 O   0  0  0  0  0  0  0  0  0  0  0  0
  186.3830  178.2610  142.9880 C   0  0  0  0  0  0  0  0  0  0  0  0
  189.4720  176.7250  144.3450 N   0  0  0  0  0  2  0  0  0  0  0  0
  186.8160  177.7560  145.1350 N   0  0  0  0  0  0  0  0  0  0  0  0
  188.9270  178.4170  137.5310 C   0  0  0  0  0  0  0  0  0  0  0  0
  187.9870  177.8430  141.2310 C   0  0  0  0  0  0  0  0  0  0  0  0
  185.4960  178.3150  144.9940 C   0  0  0  0  0  3  0  0  0  0  0  0
  184.5390  178.6130  138.3360 N   0  0  0  0  0  2  0  0  0  0  0  0
  183.7790  177.4260  137.9850 C   0  0  0  0  0  2  0  0  0  0  0  0
  182.2910  177.7300  138.0820 C   0  0  0  0  0  2  0  0  0  0  0  0
  182.5470  176.0410  139.8340 C   0  0  0  0  0  1  0  0  0  0  0  0
  181.6120  177.1280  139.3220 C   0  0  1  0  0  0  0  0  0  0  0  0
  181.4300  178.1770  140.4450 C   0  0  2  0  0  3  0  0  0  0  0  0
  181.0750  179.5690  139.9400 C   0  0  0  0  0  1  0  0  0  0  0  0
  182.5640  178.2510  141.2570 O   0  0  0  0  0  1  0  0  0  0  0  0
  180.2760  176.4730  138.9150 C   0  0  0  0  0  2  0  0  0  0  0  0
  179.7020  174.3480  139.8500 O   0  0  0  0  0  0  0  0  0  0  0  0
  179.6800  175.6000  139.9770 C   0  0  0  0  0  0  0  0  0  0  0  0
  179.1170  176.1690  141.1120 O   0  0  0  0  0  1  0  0  0  0  0  0
  1 13  1  0  0  0  0
  2 15  1  0  0  0  0
  3 11  1  6  0  0  0
  3 21  1  0  0  0  0
  4 23  1  1  0  0  0
  4  5  1  0  0  0  0
  5  3  1  0  0  0  0
  5  1  1  1  0  0  0
  6 10  1  0  0  0  0
  7  6  1  0  0  0  0
  8 22  2  0  0  0  0
  9 19  2  0  0  0  0
 10  9  1  0  0  0  0
 10 18  2  0  0  0  0
 12 20  2  0  0  0  0
 13 17  2  0  0  0  0
 14  2  2  0  0  0  0
 15  4  1  0  0  0  0
 16  2  1  0  0  0  0
 16 20  1  0  0  0  0
 17  8  1  0  0  0  0
 17  9  1  0  0  0  0
 20 11  1  0  0  0  0
 21 13  1  0  0  0  0
 21  6  2  0  0  0  0
 22 19  1  0  0  0  0
 24 25  1  0  0  0  0
 24 23  1  0  0  0  0
 25 27  1  0  0  0  0
 27 26  1  1  0  0  0
 27 28  1  0  0  0  0
 28 29  1  6  0  0  0
 28 30  1  0  0  0  0
 31 27  1  0  0  0  0
 31 33  1  0  0  0  0
 32 33  2  0  0  0  0
 33 34  1  0  0  0  0
M  END
>  <MODEL>
9

>  <REMARK>
 VINA RESULT:      -7.0      3.669      6.606
  Name = 
  7 active torsions:
  status: ('A' for Active; 'I' for Inactive)
    1  A    between atoms: C_2  and  C_11
    2  A    between atoms: C_3  and  C_21
    3  A    between atoms: C_7  and  N_9
    4  A    between atoms: N_9  and  C_14
    5  A    between atoms: C_11  and  C_21
    6  A    between atoms: C_14  and  C_32
    7  A    between atoms: C_21  and  C_32
                            x       y       z     vdW  Elec       q    Type
                         _______ _______ _______ _____ _____    ______ ____

>  <TORSDO>
F 7

$$$$
