=
 OpenBabel11062414153D

 60 63  0  0  1  0  0  0  0  0999 V2000
  189.4620  177.3520  139.5050 C   0  0  1  0  0  3  0  0  0  0  0  0
  189.1410  176.0520  138.7650 C   0  0  0  0  0  2  0  0  0  0  0  0
  187.9670  176.2000  138.0220 O   0  0  0  0  0  0  0  0  0  0  0  0
  188.2480  177.2050  137.0860 C   0  0  1  0  0  3  0  0  0  0  0  0
  189.7590  177.2580  135.0710 O   0  0  0  0  0  0  0  0  0  0  0  0
  188.2960  175.5090  135.3880 O   0  0  0  0  0  1  0  0  0  0  0  0
  188.7620  176.6040  135.8050 C   0  0  0  0  0  0  0  0  0  0  0  0
  187.3730  179.4800  136.3300 C   0  0  0  0  0  1  0  0  0  0  0  0
  187.0250  178.1220  136.9150 C   0  0  1  0  0  3  0  0  0  0  0  0
  185.8090  177.4870  136.2390 C   0  0  0  0  0  2  0  0  0  0  0  0
  184.7620  177.0170  137.2360 C   0  0  0  0  0  2  0  0  0  0  0  0
  183.5000  177.8450  137.1290 C   0  0  0  0  0  2  0  0  0  0  0  0
  182.3120  177.0520  137.6610 C   0  0  2  0  0  3  0  0  0  0  0  0
  181.3850  178.1910  139.5350 O   0  0  0  0  0  0  0  0  0  0  0  0
  182.1560  177.2830  139.1260 C   0  0  0  0  0  0  0  0  0  0  0  0
  182.8740  176.5250  140.0430 O   0  0  0  0  0  1  0  0  0  0  0  0
  181.9550  175.0280  136.2970 C   0  0  0  0  0  3  0  0  0  0  0  0
  182.4850  175.5920  137.3840 C   0  0  0  0  0  3  0  0  0  0  0  0
  183.3430  173.1580  135.2080 C   0  0  1  0  0  3  0  0  0  0  0  0
  181.9370  173.1280  134.6080 C   0  0  0  0  0  2  0  0  0  0  0  0
  182.1350  173.5690  136.0390 C   0  0  2  0  0  0  0  0  0  0  0  0
  181.6370  172.6320  137.0200 N   0  0  0  0  0  0  0  0  0  0  0  0
  180.5780  172.8090  137.5340 O   0  0  0  0  0  0  0  0  0  0  0  0
  183.8070  171.7350  135.4870 C   0  0  0  0  0  2  0  0  0  0  0  0
  186.0500  170.6370  135.1500 C   0  0  0  0  0  2  0  0  0  0  0  0
  185.2370  171.7070  135.7320 N   0  0  0  0  0  0  0  0  0  0  0  0
  187.5180  170.8870  135.3270 C   0  0  0  0  0  3  0  0  0  0  0  0
  185.7860  172.6100  136.6950 C   0  0  0  0  0  3  0  0  0  0  0  0
  187.0640  172.6480  136.9020 N   0  0  0  0  0  0  0  0  0  0  0  0
  187.9670  171.8120  136.1720 C   0  0  0  0  0  3  0  0  0  0  0  0
  188.6430  177.4960  140.8060 C   0  0  2  0  0  3  0  0  0  0  0  0
  187.9270  178.8430  140.8610 C   0  0  0  0  0  2  0  0  0  0  0  0
  186.5870  178.6940  140.5190 O   0  0  0  0  0  0  0  0  0  0  0  0
  185.8960  179.0950  141.6660 C   0  0  0  0  0  2  0  0  0  0  0  0
  185.0970  178.0540  142.1250 O   0  0  0  0  0  1  0  0  0  0  0  0
  189.5080  177.2800  142.0760 C   0  0  1  0  0  3  0  0  0  0  0  0
  188.5330  177.7200  144.4210 C   0  0  0  0  0  2  0  0  0  0  0  0
  189.5500  177.9620  146.6390 N   0  0  0  0  0  2  0  0  0  0  0  0
  190.4990  179.0700  143.6500 C   0  0  0  0  0  2  0  0  0  0  0  0
  190.2310  178.0940  148.9590 C   0  0  0  0  0  1  0  0  0  0  0  0
  190.8920  176.8660  144.8910 C   0  0  1  0  0  3  0  0  0  0  0  0
  189.4840  177.1020  145.4600 C   0  0  2  0  0  3  0  0  0  0  0  0
  191.5180  178.1510  144.3370 C   0  0  0  0  0  2  0  0  0  0  0  0
  191.7850  176.2340  145.9510 C   0  0  0  0  0  2  0  0  0  0  0  0
  190.2790  177.2590  147.6970 C   0  0  2  0  0  3  0  0  0  0  0  0
  191.7360  177.0030  147.2740 C   0  0  1  0  0  3  0  0  0  0  0  0
  189.2360  178.3320  143.1880 C   0  0  1  0  0  3  0  0  0  0  0  0
  192.2490  174.8720  148.4750 O   0  0  0  0  0  0  0  0  0  0  0  0
  193.2860  176.8220  149.0690 O   0  0  0  0  0  1  0  0  0  0  0  0
  192.4750  176.2330  148.3140 C   0  0  0  0  0  0  0  0  0  0  0  0
  190.3190  175.1210  142.7230 O   0  0  0  0  0  0  0  0  0  0  0  0
  188.0650  175.4400  142.9940 O   0  0  0  0  0  1  0  0  0  0  0  0
  189.3230  175.8890  142.6230 C   0  0  0  0  0  0  0  0  0  0  0  0
  190.9530  177.5130  139.7540 C   0  0  0  0  0  2  0  0  0  0  0  0
  191.6960  176.2910  139.2730 C   0  0  0  0  0  2  0  0  0  0  0  0
  192.2780  176.5360  137.8950 C   0  0  1  0  0  3  0  0  0  0  0  0
  193.4890  177.1970  138.0200 F   0  0  0  0  0  0  0  0  0  0  0  0
  192.4810  175.3160  137.2480 O   0  0  0  0  0  0  0  0  0  0  0  0
  193.8650  175.1520  137.2270 C   0  0  0  0  0  2  0  0  0  0  0  0
  194.2280  173.8660  136.5430 C   0  0  0  0  0  1  0  0  0  0  0  0
  1  2  1  1  0  0  0
  1 54  1  0  0  0  0
  1 31  1  0  0  0  0
  3  2  1  0  0  0  0
  4  7  1  6  0  0  0
  4  3  1  0  0  0  0
  5  7  2  0  0  0  0
  6  7  1  0  0  0  0
  9  8  1  6  0  0  0
  9  4  1  0  0  0  0
 10  9  1  0  0  0  0
 10 11  1  0  0  0  0
 12 11  1  0  0  0  0
 13 12  1  1  0  0  0
 13 15  1  0  0  0  0
 15 14  2  0  0  0  0
 15 16  1  0  0  0  0
 17 18  2  0  0  0  0
 18 13  1  0  0  0  0
 19 24  1  1  0  0  0
 19 21  1  0  0  0  0
 20 19  1  0  0  0  0
 20 21  1  0  0  0  0
 21 17  1  1  0  0  0
 21 22  1  0  0  0  0
 22 23  2  0  0  0  0
 24 26  1  0  0  0  0
 25 27  1  0  0  0  0
 25 26  1  0  0  0  0
 26 28  1  0  0  0  0
 27 30  2  0  0  0  0
 28 29  2  0  0  0  0
 30 29  1  0  0  0  0
 31 32  1  1  0  0  0
 31 36  1  0  0  0  0
 33 32  1  0  0  0  0
 33 34  1  0  0  0  0
 34 35  1  0  0  0  0
 36 53  1  1  0  0  0
 38 45  1  0  0  0  0
 39 43  1  0  0  0  0
 41 43  1  1  0  0  0
 41 42  1  0  0  0  0
 41 44  1  0  0  0  0
 42 37  1  6  0  0  0
 42 38  1  0  0  0  0
 44 46  1  0  0  0  0
 45 40  1  1  0  0  0
 46 45  1  0  0  0  0
 46 50  1  1  0  0  0
 47 36  1  6  0  0  0
 47 39  1  0  0  0  0
 47 37  1  0  0  0  0
 50 48  2  0  0  0  0
 50 49  1  0  0  0  0
 53 51  2  0  0  0  0
 53 52  1  0  0  0  0
 55 54  1  0  0  0  0
 56 57  1  1  0  0  0
 56 55  1  0  0  0  0
 58 56  1  0  0  0  0
 59 58  1  0  0  0  0
 60 59  1  0  0  0  0
M  END
>  <MODEL>
1

>  <REMARK>
 VINA RESULT:      -5.2      0.000      0.000
  Name = 
  28 active torsions:
  status: ('A' for Active; 'I' for Inactive)
    1  A    between atoms: N_2  and  C_30
    2  A    between atoms: C_4  and  C_8
    3  A    between atoms: O_7  and  C_20
    4  A    between atoms: O_7  and  C_26
    5  A    between atoms: C_8  and  N_31
    6  A    between atoms: C_14  and  C_46
    7  A    between atoms: C_14  and  C_60
    8  A    between atoms: C_16  and  C_30
    9  A    between atoms: C_17  and  C_21
   10  A    between atoms: C_17  and  C_50
   11  A    between atoms: C_20  and  C_46
   12  A    between atoms: C_21  and  C_41
   13  A    between atoms: C_24  and  O_57
   14  A    between atoms: C_27  and  C_34
   15  A    between atoms: C_27  and  C_56
   16  A    between atoms: C_27  and  C_58
   17  A    between atoms: C_29  and  C_49
   18  A    between atoms: C_29  and  C_50
   19  A    between atoms: C_33  and  C_41
   20  A    between atoms: C_34  and  C_54
   21  A    between atoms: C_34  and  C_60
   22  A    between atoms: C_39  and  O_53
   23  A    between atoms: C_39  and  C_60
   24  A    between atoms: C_41  and  O_53
   25  A    between atoms: C_43  and  C_55
   26  A    between atoms: C_45  and  C_49
   27  A    between atoms: C_49  and  C_59
   28  A    between atoms: C_54  and  O_57
                            x       y       z     vdW  Elec       q    Type
                         _______ _______ _______ _____ _____    ______ ____

>  <TORSDO>
F 28

$$$$
=
 OpenBabel11062414153D

 60 63  0  0  1  0  0  0  0  0999 V2000
  185.2180  179.2040  142.5420 C   0  0  1  0  0  3  0  0  0  0  0  0
  185.9400  177.8560  142.5940 C   0  0  0  0  0  2  0  0  0  0  0  0
  186.7460  177.6990  141.4640 O   0  0  0  0  0  0  0  0  0  0  0  0
  188.0580  177.6420  141.9540 C   0  0  1  0  0  3  0  0  0  0  0  0
  188.7170  177.3780  144.3710 O   0  0  0  0  0  1  0  0  0  0  0  0
  187.6120  175.6850  143.2700 O   0  0  0  0  0  0  0  0  0  0  0  0
  188.1120  176.8420  143.2280 C   0  0  0  0  0  0  0  0  0  0  0  0
  188.7440  177.7900  139.5000 C   0  0  0  0  0  1  0  0  0  0  0  0
  189.0120  177.1500  140.8510 C   0  0  1  0  0  3  0  0  0  0  0  0
  190.4970  177.1450  141.2140 C   0  0  0  0  0  2  0  0  0  0  0  0
  191.3290  178.0300  140.2980 C   0  0  0  0  0  2  0  0  0  0  0  0
  192.7580  177.5380  140.2210 C   0  0  0  0  0  2  0  0  0  0  0  0
  192.8210  176.2530  139.4040 C   0  0  2  0  0  3  0  0  0  0  0  0
  195.1050  176.0470  140.0460 O   0  0  0  0  0  1  0  0  0  0  0  0
  194.2410  175.8780  139.1450 C   0  0  0  0  0  0  0  0  0  0  0  0
  194.6260  175.3710  137.9100 O   0  0  0  0  0  0  0  0  0  0  0  0
  191.2200  175.4880  137.6900 C   0  0  0  0  0  3  0  0  0  0  0  0
  192.0860  176.4120  138.1110 C   0  0  0  0  0  3  0  0  0  0  0  0
  190.3240  174.4230  135.5280 C   0  0  1  0  0  3  0  0  0  0  0  0
  191.3400  175.5020  135.1510 C   0  0  0  0  0  2  0  0  0  0  0  0
  190.4980  175.6630  136.3960 C   0  0  2  0  0  0  0  0  0  0  0  0
  189.4990  176.7010  136.3020 N   0  0  0  0  0  0  0  0  0  0  0  0
  189.5030  177.4560  135.3800 O   0  0  0  0  0  0  0  0  0  0  0  0
  189.1230  174.5080  134.5950 C   0  0  0  0  0  2  0  0  0  0  0  0
  188.6350  172.0380  134.6930 C   0  0  0  0  0  2  0  0  0  0  0  0
  188.1970  173.4240  134.8630 N   0  0  0  0  0  0  0  0  0  0  0  0
  187.6250  171.0600  135.2160 C   0  0  0  0  0  3  0  0  0  0  0  0
  186.8210  173.7390  135.0970 C   0  0  0  0  0  3  0  0  0  0  0  0
  185.9760  172.8030  135.3900 N   0  0  0  0  0  0  0  0  0  0  0  0
  186.3820  171.4360  135.5070 C   0  0  0  0  0  3  0  0  0  0  0  0
  183.7850  179.0730  141.9860 C   0  0  2  0  0  3  0  0  0  0  0  0
  182.8760  178.3390  142.9690 C   0  0  0  0  0  2  0  0  0  0  0  0
  182.1090  179.2470  143.6900 O   0  0  0  0  0  0  0  0  0  0  0  0
  180.8090  179.0460  143.2190 C   0  0  0  0  0  2  0  0  0  0  0  0
  180.2400  177.9460  143.8540 O   0  0  0  0  0  1  0  0  0  0  0  0
  183.7500  178.3930  140.5910 C   0  0  1  0  0  3  0  0  0  0  0  0
  182.2770  178.4170  138.4760 C   0  0  0  0  0  2  0  0  0  0  0  0
  181.3030  176.6420  137.0940 N   0  0  0  0  0  2  0  0  0  0  0  0
  181.6300  176.9340  140.3910 C   0  0  0  0  0  2  0  0  0  0  0  0
  180.3430  175.1350  135.4590 C   0  0  0  0  0  1  0  0  0  0  0  0
  183.1810  176.0320  138.5640 C   0  0  1  0  0  3  0  0  0  0  0  0
  182.5470  177.1250  137.6880 C   0  0  2  0  0  3  0  0  0  0  0  0
  182.3250  175.7020  139.7920 C   0  0  0  0  0  2  0  0  0  0  0  0
  183.4480  174.7850  137.7310 C   0  0  0  0  0  2  0  0  0  0  0  0
  181.6140  175.5450  136.1740 C   0  0  2  0  0  3  0  0  0  0  0  0
  182.2130  174.3510  136.9370 C   0  0  1  0  0  3  0  0  0  0  0  0
  182.3140  178.2540  140.0140 C   0  0  1  0  0  3  0  0  0  0  0  0
  182.8990  171.9880  136.5030 O   0  0  0  0  0  1  0  0  0  0  0  0
  182.6620  173.4670  134.7740 O   0  0  0  0  0  0  0  0  0  0  0  0
  182.5920  173.2490  136.0070 C   0  0  0  0  0  0  0  0  0  0  0  0
  185.5590  178.5010  139.0250 O   0  0  0  0  0  0  0  0  0  0  0  0
  184.4500  180.4770  139.3750 O   0  0  0  0  0  1  0  0  0  0  0  0
  184.6330  179.1230  139.6150 C   0  0  0  0  0  0  0  0  0  0  0  0
  185.2420  179.9140  143.8860 C   0  0  0  0  0  2  0  0  0  0  0  0
  185.8670  179.0250  144.9340 C   0  0  0  0  0  2  0  0  0  0  0  0
  185.0730  179.0940  146.2230 C   0  0  1  0  0  3  0  0  0  0  0  0
  183.7820  178.6490  145.9920 F   0  0  0  0  0  0  0  0  0  0  0  0
  185.6750  178.2840  147.1880 O   0  0  0  0  0  0  0  0  0  0  0  0
  187.0440  178.4860  147.0160 C   0  0  0  0  0  2  0  0  0  0  0  0
  187.8130  177.8250  148.1230 C   0  0  0  0  0  1  0  0  0  0  0  0
  1  2  1  1  0  0  0
  1 54  1  0  0  0  0
  3  2  1  0  0  0  0
  4  3  1  6  0  0  0
  4  7  1  0  0  0  0
  7  6  2  0  0  0  0
  7  5  1  0  0  0  0
  9  8  1  6  0  0  0
  9 10  1  0  0  0  0
  9  4  1  0  0  0  0
 11 10  1  0  0  0  0
 12 11  1  0  0  0  0
 13 18  1  6  0  0  0
 13 12  1  0  0  0  0
 15 13  1  0  0  0  0
 15 14  1  0  0  0  0
 16 15  2  0  0  0  0
 17 18  2  0  0  0  0
 19 24  1  6  0  0  0
 19 21  1  0  0  0  0
 20 19  1  0  0  0  0
 20 21  1  0  0  0  0
 21 17  1  1  0  0  0
 22 21  1  0  0  0  0
 23 22  2  0  0  0  0
 24 26  1  0  0  0  0
 25 26  1  0  0  0  0
 25 27  1  0  0  0  0
 26 28  1  0  0  0  0
 27 30  2  0  0  0  0
 28 29  2  0  0  0  0
 29 30  1  0  0  0  0
 31  1  1  0  0  0  0
 31 32  1  1  0  0  0
 32 33  1  0  0  0  0
 34 33  1  0  0  0  0
 34 35  1  0  0  0  0
 36 53  1  6  0  0  0
 36 31  1  0  0  0  0
 37 47  1  0  0  0  0
 38 42  1  0  0  0  0
 41 44  1  6  0  0  0
 41 43  1  0  0  0  0
 42 37  1  1  0  0  0
 42 41  1  0  0  0  0
 43 39  1  0  0  0  0
 45 40  1  1  0  0  0
 45 46  1  0  0  0  0
 45 38  1  0  0  0  0
 46 50  1  6  0  0  0
 46 44  1  0  0  0  0
 47 39  1  0  0  0  0
 47 36  1  6  0  0  0
 49 50  2  0  0  0  0
 50 48  1  0  0  0  0
 51 53  2  0  0  0  0
 52 53  1  0  0  0  0
 54 55  1  0  0  0  0
 55 56  1  0  0  0  0
 56 57  1  6  0  0  0
 56 58  1  0  0  0  0
 59 58  1  0  0  0  0
 59 60  1  0  0  0  0
M  END
>  <MODEL>
2

>  <REMARK>
 VINA RESULT:      -4.5      3.318      9.488
  Name = 
  28 active torsions:
  status: ('A' for Active; 'I' for Inactive)
    1  A    between atoms: N_2  and  C_30
    2  A    between atoms: C_4  and  C_8
    3  A    between atoms: O_7  and  C_20
    4  A    between atoms: O_7  and  C_26
    5  A    between atoms: C_8  and  N_31
    6  A    between atoms: C_14  and  C_46
    7  A    between atoms: C_14  and  C_60
    8  A    between atoms: C_16  and  C_30
    9  A    between atoms: C_17  and  C_21
   10  A    between atoms: C_17  and  C_50
   11  A    between atoms: C_20  and  C_46
   12  A    between atoms: C_21  and  C_41
   13  A    between atoms: C_24  and  O_57
   14  A    between atoms: C_27  and  C_34
   15  A    between atoms: C_27  and  C_56
   16  A    between atoms: C_27  and  C_58
   17  A    between atoms: C_29  and  C_49
   18  A    between atoms: C_29  and  C_50
   19  A    between atoms: C_33  and  C_41
   20  A    between atoms: C_34  and  C_54
   21  A    between atoms: C_34  and  C_60
   22  A    between atoms: C_39  and  O_53
   23  A    between atoms: C_39  and  C_60
   24  A    between atoms: C_41  and  O_53
   25  A    between atoms: C_43  and  C_55
   26  A    between atoms: C_45  and  C_49
   27  A    between atoms: C_49  and  C_59
   28  A    between atoms: C_54  and  O_57
                            x       y       z     vdW  Elec       q    Type
                         _______ _______ _______ _____ _____    ______ ____

>  <TORSDO>
F 28

$$$$
=
 OpenBabel11062414153D

 60 63  0  0  1  0  0  0  0  0999 V2000
  189.8760  176.3530  138.2730 C   0  0  1  0  0  3  0  0  0  0  0  0
  188.5460  175.6500  138.5500 C   0  0  0  0  0  2  0  0  0  0  0  0
  187.5220  176.2550  137.8170 O   0  0  0  0  0  0  0  0  0  0  0  0
  187.7030  175.8150  136.4990 C   0  0  1  0  0  3  0  0  0  0  0  0
  187.7790  173.5340  135.4310 O   0  0  0  0  0  0  0  0  0  0  0  0
  186.1740  174.0350  137.0030 O   0  0  0  0  0  1  0  0  0  0  0  0
  187.1700  174.4170  136.3320 C   0  0  0  0  0  0  0  0  0  0  0  0
  188.1800  177.6250  134.7640 C   0  0  0  0  0  1  0  0  0  0  0  0
  187.1170  176.8420  135.5150 C   0  0  1  0  0  3  0  0  0  0  0  0
  186.0120  176.3220  134.5950 C   0  0  0  0  0  2  0  0  0  0  0  0
  184.6640  176.9720  134.8690 C   0  0  0  0  0  2  0  0  0  0  0  0
  183.5740  175.9300  134.9870 C   0  0  0  0  0  2  0  0  0  0  0  0
  183.3940  175.5310  136.4470 C   0  0  2  0  0  3  0  0  0  0  0  0
  181.8140  174.1110  137.5240 O   0  0  0  0  0  1  0  0  0  0  0  0
  182.5860  174.2810  136.5430 C   0  0  0  0  0  0  0  0  0  0  0  0
  182.6960  173.2900  135.5760 O   0  0  0  0  0  0  0  0  0  0  0  0
  183.2030  177.0150  138.4080 C   0  0  0  0  0  3  0  0  0  0  0  0
  182.7360  176.6300  137.2180 C   0  0  0  0  0  3  0  0  0  0  0  0
  182.8090  179.5380  138.7070 C   0  0  1  0  0  3  0  0  0  0  0  0
  183.4410  178.9920  139.9880 C   0  0  0  0  0  2  0  0  0  0  0  0
  182.5300  178.1120  139.1640 C   0  0  2  0  0  0  0  0  0  0  0  0
  181.2550  177.8380  139.7850 N   0  0  0  0  0  0  0  0  0  0  0  0
  181.0630  176.7920  140.3220 O   0  0  0  0  0  0  0  0  0  0  0  0
  181.6950  180.5120  139.0650 C   0  0  0  0  0  2  0  0  0  0  0  0
  181.1480  180.4670  136.6060 C   0  0  0  0  0  2  0  0  0  0  0  0
  181.2150  181.1910  137.8760 N   0  0  0  0  0  0  0  0  0  0  0  0
  180.4340  181.2540  135.5470 C   0  0  0  0  0  3  0  0  0  0  0  0
  181.0050  182.6050  137.9320 C   0  0  0  0  0  3  0  0  0  0  0  0
  180.5290  183.2360  136.9060 N   0  0  0  0  0  0  0  0  0  0  0  0
  180.1820  182.5510  135.6980 C   0  0  0  0  0  3  0  0  0  0  0  0
  190.3520  177.1900  139.4790 C   0  0  2  0  0  3  0  0  0  0  0  0
  191.7520  176.7720  139.9240 C   0  0  0  0  0  2  0  0  0  0  0  0
  192.4660  177.8760  140.3770 O   0  0  0  0  0  0  0  0  0  0  0  0
  193.7470  177.6920  139.8510 C   0  0  0  0  0  2  0  0  0  0  0  0
  194.0730  176.3390  139.8590 O   0  0  0  0  0  1  0  0  0  0  0  0
  189.3560  177.1330  140.6690 C   0  0  1  0  0  3  0  0  0  0  0  0
  190.1360  178.0360  142.9530 C   0  0  0  0  0  2  0  0  0  0  0  0
  189.1840  177.9270  145.2110 N   0  0  0  0  0  2  0  0  0  0  0  0
  189.3660  175.6560  142.7860 C   0  0  0  0  0  2  0  0  0  0  0  0
  188.4350  178.1230  147.5050 C   0  0  0  0  0  1  0  0  0  0  0  0
  187.6690  177.4980  143.3200 C   0  0  1  0  0  3  0  0  0  0  0  0
  188.8920  178.2800  143.8240 C   0  0  2  0  0  3  0  0  0  0  0  0
  187.9360  175.9910  143.2350 C   0  0  0  0  0  2  0  0  0  0  0  0
  186.4610  177.7910  144.2000 C   0  0  0  0  0  2  0  0  0  0  0  0
  188.0720  178.3680  146.0550 C   0  0  2  0  0  3  0  0  0  0  0  0
  186.7810  177.6170  145.6870 C   0  0  1  0  0  3  0  0  0  0  0  0
  190.0420  176.8030  142.0240 C   0  0  1  0  0  3  0  0  0  0  0  0
  184.7130  178.9960  145.9540 O   0  0  0  0  0  0  0  0  0  0  0  0
  185.4880  177.7120  147.6820 O   0  0  0  0  0  1  0  0  0  0  0  0
  185.6250  178.0980  146.4960 C   0  0  0  0  0  0  0  0  0  0  0  0
  189.1930  179.5080  140.9230 O   0  0  0  0  0  1  0  0  0  0  0  0
  187.1910  178.4040  140.7510 O   0  0  0  0  0  0  0  0  0  0  0  0
  188.5780  178.4160  140.7800 C   0  0  0  0  0  0  0  0  0  0  0  0
  190.9460  175.3810  137.8010 C   0  0  0  0  0  2  0  0  0  0  0  0
  191.4340  175.7690  136.4270 C   0  0  0  0  0  2  0  0  0  0  0  0
  192.8200  175.2060  136.1820 C   0  0  1  0  0  3  0  0  0  0  0  0
  192.7680  174.2970  135.1380 F   0  0  0  0  0  0  0  0  0  0  0  0
  193.6950  176.2420  135.8510 O   0  0  0  0  0  0  0  0  0  0  0  0
  194.9640  175.6710  135.9220 C   0  0  0  0  0  2  0  0  0  0  0  0
  195.0050  174.6200  136.9930 C   0  0  0  0  0  1  0  0  0  0  0  0
  1 54  1  1  0  0  0
  1  2  1  0  0  0  0
  1 31  1  0  0  0  0
  3  2  1  0  0  0  0
  4  7  1  1  0  0  0
  4  3  1  0  0  0  0
  5  7  2  0  0  0  0
  7  6  1  0  0  0  0
  9  8  1  6  0  0  0
  9  4  1  0  0  0  0
 10 11  1  0  0  0  0
 10  9  1  0  0  0  0
 11 12  1  0  0  0  0
 13 12  1  6  0  0  0
 13 15  1  0  0  0  0
 13 18  1  0  0  0  0
 15 14  1  0  0  0  0
 16 15  2  0  0  0  0
 18 17  2  0  0  0  0
 19 24  1  1  0  0  0
 19 21  1  0  0  0  0
 19 20  1  0  0  0  0
 21 17  1  6  0  0  0
 21 22  1  0  0  0  0
 21 20  1  0  0  0  0
 22 23  2  0  0  0  0
 25 26  1  0  0  0  0
 26 28  1  0  0  0  0
 26 24  1  0  0  0  0
 27 30  2  0  0  0  0
 27 25  1  0  0  0  0
 29 28  2  0  0  0  0
 30 29  1  0  0  0  0
 31 32  1  1  0  0  0
 31 36  1  0  0  0  0
 32 33  1  0  0  0  0
 34 35  1  0  0  0  0
 34 33  1  0  0  0  0
 36 53  1  1  0  0  0
 38 45  1  0  0  0  0
 39 43  1  0  0  0  0
 41 43  1  1  0  0  0
 41 42  1  0  0  0  0
 41 44  1  0  0  0  0
 42 37  1  6  0  0  0
 42 38  1  0  0  0  0
 44 46  1  0  0  0  0
 45 40  1  1  0  0  0
 46 45  1  0  0  0  0
 46 50  1  1  0  0  0
 47 36  1  6  0  0  0
 47 39  1  0  0  0  0
 47 37  1  0  0  0  0
 48 50  2  0  0  0  0
 50 49  1  0  0  0  0
 52 53  2  0  0  0  0
 53 51  1  0  0  0  0
 55 54  1  0  0  0  0
 56 57  1  6  0  0  0
 56 55  1  0  0  0  0
 58 59  1  0  0  0  0
 58 56  1  0  0  0  0
 59 60  1  0  0  0  0
M  END
>  <MODEL>
3

>  <REMARK>
 VINA RESULT:      -3.8      3.079      5.700
  Name = 
  28 active torsions:
  status: ('A' for Active; 'I' for Inactive)
    1  A    between atoms: N_2  and  C_30
    2  A    between atoms: C_4  and  C_8
    3  A    between atoms: O_7  and  C_20
    4  A    between atoms: O_7  and  C_26
    5  A    between atoms: C_8  and  N_31
    6  A    between atoms: C_14  and  C_46
    7  A    between atoms: C_14  and  C_60
    8  A    between atoms: C_16  and  C_30
    9  A    between atoms: C_17  and  C_21
   10  A    between atoms: C_17  and  C_50
   11  A    between atoms: C_20  and  C_46
   12  A    between atoms: C_21  and  C_41
   13  A    between atoms: C_24  and  O_57
   14  A    between atoms: C_27  and  C_34
   15  A    between atoms: C_27  and  C_56
   16  A    between atoms: C_27  and  C_58
   17  A    between atoms: C_29  and  C_49
   18  A    between atoms: C_29  and  C_50
   19  A    between atoms: C_33  and  C_41
   20  A    between atoms: C_34  and  C_54
   21  A    between atoms: C_34  and  C_60
   22  A    between atoms: C_39  and  O_53
   23  A    between atoms: C_39  and  C_60
   24  A    between atoms: C_41  and  O_53
   25  A    between atoms: C_43  and  C_55
   26  A    between atoms: C_45  and  C_49
   27  A    between atoms: C_49  and  C_59
   28  A    between atoms: C_54  and  O_57
                            x       y       z     vdW  Elec       q    Type
                         _______ _______ _______ _____ _____    ______ ____

>  <TORSDO>
F 28

$$$$
=
 OpenBabel11062414153D

 60 63  0  0  1  0  0  0  0  0999 V2000
  187.3230  177.5130  141.8530 C   0  0  1  0  0  3  0  0  0  0  0  0
  186.1970  178.4140  141.3440 C   0  0  0  0  0  2  0  0  0  0  0  0
  184.9560  177.8630  141.6720 O   0  0  0  0  0  0  0  0  0  0  0  0
  184.0150  178.8430  141.3250 C   0  0  1  0  0  3  0  0  0  0  0  0
  184.1440  180.2660  139.2510 O   0  0  0  0  0  1  0  0  0  0  0  0
  183.7180  178.0090  139.0950 O   0  0  0  0  0  0  0  0  0  0  0  0
  183.9490  179.0060  139.8300 C   0  0  0  0  0  0  0  0  0  0  0  0
  182.4420  179.3150  143.2790 C   0  0  0  0  0  1  0  0  0  0  0  0
  182.6640  178.5360  141.9930 C   0  0  1  0  0  3  0  0  0  0  0  0
  181.4450  178.5690  141.0700 C   0  0  0  0  0  2  0  0  0  0  0  0
  180.6490  179.8580  141.1930 C   0  0  0  0  0  2  0  0  0  0  0  0
  179.8680  180.1370  139.9270 C   0  0  0  0  0  2  0  0  0  0  0  0
  180.7520  180.8670  138.9230 C   0  0  2  0  0  3  0  0  0  0  0  0
  180.6130  182.8370  137.5920 O   0  0  0  0  0  0  0  0  0  0  0  0
  180.1350  182.1730  138.5500 C   0  0  0  0  0  0  0  0  0  0  0  0
  179.0570  182.6780  139.2660 O   0  0  0  0  0  1  0  0  0  0  0  0
  180.6380  178.7380  137.6840 C   0  0  0  0  0  3  0  0  0  0  0  0
  180.9670  180.0310  137.7020 C   0  0  0  0  0  3  0  0  0  0  0  0
  182.3040  177.7440  135.9970 C   0  0  1  0  0  3  0  0  0  0  0  0
  181.3540  178.6760  135.2460 C   0  0  0  0  0  2  0  0  0  0  0  0
  180.8630  177.9180  136.4570 C   0  0  2  0  0  0  0  0  0  0  0  0
  179.9220  176.8650  136.1520 N   0  0  0  0  0  0  0  0  0  0  0  0
  179.6020  176.0850  136.9940 O   0  0  0  0  0  0  0  0  0  0  0  0
  182.5240  176.4770  135.1810 C   0  0  0  0  0  2  0  0  0  0  0  0
  184.7410  175.2810  135.1800 C   0  0  0  0  0  2  0  0  0  0  0  0
  183.4780  175.6070  135.8430 N   0  0  0  0  0  0  0  0  0  0  0  0
  185.6840  174.5540  136.0930 C   0  0  0  0  0  3  0  0  0  0  0  0
  183.0760  174.9330  137.0390 C   0  0  0  0  0  3  0  0  0  0  0  0
  183.9170  174.1900  137.6850 N   0  0  0  0  0  0  0  0  0  0  0  0
  185.2690  174.0290  137.2430 C   0  0  0  0  0  3  0  0  0  0  0  0
  188.4300  177.3150  140.7960 C   0  0  2  0  0  3  0  0  0  0  0  0
  189.8160  177.3350  141.4380 C   0  0  0  0  0  2  0  0  0  0  0  0
  190.1860  176.0530  141.8310 O   0  0  0  0  0  0  0  0  0  0  0  0
  190.6930  176.2270  143.1220 C   0  0  0  0  0  2  0  0  0  0  0  0
  191.9600  176.8000  143.0600 O   0  0  0  0  0  1  0  0  0  0  0  0
  188.3420  178.3520  139.6450 C   0  0  1  0  0  3  0  0  0  0  0  0
  190.7400  177.4800  139.2850 C   0  0  0  0  0  2  0  0  0  0  0  0
  191.7700  176.0750  137.5590 N   0  0  0  0  0  2  0  0  0  0  0  0
  189.5240  178.5200  137.3560 C   0  0  0  0  0  2  0  0  0  0  0  0
  193.0330  174.6020  136.1100 C   0  0  0  0  0  1  0  0  0  0  0  0
  189.3190  176.0010  137.7670 C   0  0  1  0  0  3  0  0  0  0  0  0
  190.6590  176.1590  138.5030 C   0  0  2  0  0  3  0  0  0  0  0  0
  189.0390  177.1680  136.8130 C   0  0  0  0  0  2  0  0  0  0  0  0
  189.2810  174.6690  137.0290 C   0  0  0  0  0  2  0  0  0  0  0  0
  191.8030  174.7280  136.9850 C   0  0  2  0  0  3  0  0  0  0  0  0
  190.5290  174.4560  136.1680 C   0  0  1  0  0  3  0  0  0  0  0  0
  189.6840  178.5340  138.8820 C   0  0  1  0  0  3  0  0  0  0  0  0
  191.7040  172.3530  135.5010 O   0  0  0  0  0  1  0  0  0  0  0  0
  189.4370  172.5480  135.2570 O   0  0  0  0  0  0  0  0  0  0  0  0
  190.5180  173.0670  135.6270 C   0  0  0  0  0  0  0  0  0  0  0  0
  186.8200  176.8060  138.6310 O   0  0  0  0  0  1  0  0  0  0  0  0
  186.7060  178.9530  137.8350 O   0  0  0  0  0  0  0  0  0  0  0  0
  187.2420  177.9940  138.6820 C   0  0  0  0  0  0  0  0  0  0  0  0
  187.8870  177.9990  143.1790 C   0  0  0  0  0  2  0  0  0  0  0  0
  187.4140  177.1110  144.3030 C   0  0  0  0  0  2  0  0  0  0  0  0
  187.0320  177.9460  145.5090 C   0  0  1  0  0  3  0  0  0  0  0  0
  186.1110  177.2510  146.2760 F   0  0  0  0  0  0  0  0  0  0  0  0
  188.1690  178.2090  146.2760 O   0  0  0  0  0  0  0  0  0  0  0  0
  188.0170  177.4200  147.4160 C   0  0  0  0  0  2  0  0  0  0  0  0
  188.6230  178.1020  148.6080 C   0  0  0  0  0  1  0  0  0  0  0  0
  1  2  1  6  0  0  0
  1 54  1  0  0  0  0
  2  3  1  0  0  0  0
  4  7  1  6  0  0  0
  4  3  1  0  0  0  0
  4  9  1  0  0  0  0
  5  7  1  0  0  0  0
  6  7  2  0  0  0  0
  9  8  1  1  0  0  0
 10 11  1  0  0  0  0
 10  9  1  0  0  0  0
 12 11  1  0  0  0  0
 13 18  1  6  0  0  0
 13 12  1  0  0  0  0
 14 15  2  0  0  0  0
 15 13  1  0  0  0  0
 15 16  1  0  0  0  0
 17 18  2  0  0  0  0
 19 24  1  6  0  0  0
 19 21  1  0  0  0  0
 20 19  1  0  0  0  0
 20 21  1  0  0  0  0
 21 17  1  1  0  0  0
 22 21  1  0  0  0  0
 22 23  2  0  0  0  0
 24 26  1  0  0  0  0
 25 26  1  0  0  0  0
 25 27  1  0  0  0  0
 26 28  1  0  0  0  0
 27 30  2  0  0  0  0
 28 29  2  0  0  0  0
 30 29  1  0  0  0  0
 31 32  1  1  0  0  0
 31  1  1  0  0  0  0
 32 33  1  0  0  0  0
 33 34  1  0  0  0  0
 35 34  1  0  0  0  0
 36 53  1  6  0  0  0
 36 31  1  0  0  0  0
 38 42  1  0  0  0  0
 39 47  1  0  0  0  0
 41 43  1  6  0  0  0
 41 42  1  0  0  0  0
 42 37  1  6  0  0  0
 43 39  1  0  0  0  0
 44 41  1  0  0  0  0
 45 40  1  6  0  0  0
 45 38  1  0  0  0  0
 46 50  1  1  0  0  0
 46 45  1  0  0  0  0
 46 44  1  0  0  0  0
 47 37  1  0  0  0  0
 47 36  1  1  0  0  0
 48 50  1  0  0  0  0
 49 50  2  0  0  0  0
 51 53  1  0  0  0  0
 52 53  2  0  0  0  0
 54 55  1  0  0  0  0
 55 56  1  0  0  0  0
 56 57  1  1  0  0  0
 56 58  1  0  0  0  0
 58 59  1  0  0  0  0
 59 60  1  0  0  0  0
M  END
>  <MODEL>
4

>  <REMARK>
 VINA RESULT:      -3.8      3.158      7.364
  Name = 
  28 active torsions:
  status: ('A' for Active; 'I' for Inactive)
    1  A    between atoms: N_2  and  C_30
    2  A    between atoms: C_4  and  C_8
    3  A    between atoms: O_7  and  C_20
    4  A    between atoms: O_7  and  C_26
    5  A    between atoms: C_8  and  N_31
    6  A    between atoms: C_14  and  C_46
    7  A    between atoms: C_14  and  C_60
    8  A    between atoms: C_16  and  C_30
    9  A    between atoms: C_17  and  C_21
   10  A    between atoms: C_17  and  C_50
   11  A    between atoms: C_20  and  C_46
   12  A    between atoms: C_21  and  C_41
   13  A    between atoms: C_24  and  O_57
   14  A    between atoms: C_27  and  C_34
   15  A    between atoms: C_27  and  C_56
   16  A    between atoms: C_27  and  C_58
   17  A    between atoms: C_29  and  C_49
   18  A    between atoms: C_29  and  C_50
   19  A    between atoms: C_33  and  C_41
   20  A    between atoms: C_34  and  C_54
   21  A    between atoms: C_34  and  C_60
   22  A    between atoms: C_39  and  O_53
   23  A    between atoms: C_39  and  C_60
   24  A    between atoms: C_41  and  O_53
   25  A    between atoms: C_43  and  C_55
   26  A    between atoms: C_45  and  C_49
   27  A    between atoms: C_49  and  C_59
   28  A    between atoms: C_54  and  O_57
                            x       y       z     vdW  Elec       q    Type
                         _______ _______ _______ _____ _____    ______ ____

>  <TORSDO>
F 28

$$$$
=
 OpenBabel11062414153D

 60 63  0  0  1  0  0  0  0  0999 V2000
  188.6720  177.5800  141.3390 C   0  0  1  0  0  3  0  0  0  0  0  0
  187.9840  177.9530  142.6530 C   0  0  0  0  0  2  0  0  0  0  0  0
  187.0140  177.0010  142.9750 O   0  0  0  0  0  0  0  0  0  0  0  0
  186.0790  177.6810  143.7670 C   0  0  1  0  0  3  0  0  0  0  0  0
  188.0400  177.8710  145.3370 O   0  0  0  0  0  0  0  0  0  0  0  0
  186.1370  179.1170  145.6890 O   0  0  0  0  0  1  0  0  0  0  0  0
  186.7440  178.2670  144.9840 C   0  0  0  0  0  0  0  0  0  0  0  0
  186.1410  179.8980  142.5050 C   0  0  0  0  0  1  0  0  0  0  0  0
  185.3040  178.6980  142.9120 C   0  0  1  0  0  3  0  0  0  0  0  0
  184.5100  178.1130  141.7440 C   0  0  0  0  0  2  0  0  0  0  0  0
  183.0070  178.2640  141.9200 C   0  0  0  0  0  2  0  0  0  0  0  0
  182.4070  179.0720  140.7910 C   0  0  0  0  0  2  0  0  0  0  0  0
  180.9050  178.8220  140.7150 C   0  0  2  0  0  3  0  0  0  0  0  0
  180.3720  180.0380  142.6920 O   0  0  0  0  0  1  0  0  0  0  0  0
  180.2950  178.9450  142.0700 C   0  0  0  0  0  0  0  0  0  0  0  0
  179.6680  177.8580  142.6670 O   0  0  0  0  0  0  0  0  0  0  0  0
  180.7160  177.2400  138.8320 C   0  0  0  0  0  3  0  0  0  0  0  0
  180.6230  177.4690  140.1440 C   0  0  0  0  0  3  0  0  0  0  0  0
  181.3710  175.3590  137.2060 C   0  0  1  0  0  3  0  0  0  0  0  0
  179.9690  175.8460  136.8410 C   0  0  0  0  0  2  0  0  0  0  0  0
  180.4270  175.8830  138.2810 C   0  0  2  0  0  0  0  0  0  0  0  0
  179.7700  174.9200  139.1340 N   0  0  0  0  0  0  0  0  0  0  0  0
  180.2610  174.6050  140.1720 O   0  0  0  0  0  0  0  0  0  0  0  0
  181.4140  173.8380  137.1360 C   0  0  0  0  0  2  0  0  0  0  0  0
  183.0670  172.0980  136.3700 C   0  0  0  0  0  2  0  0  0  0  0  0
  182.7850  173.3750  137.0280 N   0  0  0  0  0  0  0  0  0  0  0  0
  184.5370  171.8870  136.1610 C   0  0  0  0  0  3  0  0  0  0  0  0
  183.8050  174.0800  137.7390 C   0  0  0  0  0  3  0  0  0  0  0  0
  185.0460  173.7260  137.6250 N   0  0  0  0  0  0  0  0  0  0  0  0
  185.4420  172.6410  136.7810 C   0  0  0  0  0  3  0  0  0  0  0  0
  189.6230  176.3760  141.5050 C   0  0  2  0  0  3  0  0  0  0  0  0
  189.7400  175.9620  142.9700 C   0  0  0  0  0  2  0  0  0  0  0  0
  190.6340  174.9060  143.1060 O   0  0  0  0  0  0  0  0  0  0  0  0
  191.3500  175.2130  144.2660 C   0  0  0  0  0  2  0  0  0  0  0  0
  192.4280  174.3440  144.4000 O   0  0  0  0  0  1  0  0  0  0  0  0
  191.0250  176.6400  140.8940 C   0  0  1  0  0  3  0  0  0  0  0  0
  192.3700  177.6340  138.9330 C   0  0  0  0  0  2  0  0  0  0  0  0
  193.0310  176.7560  136.7410 N   0  0  0  0  0  2  0  0  0  0  0  0
  190.1930  176.4870  138.4550 C   0  0  0  0  0  2  0  0  0  0  0  0
  193.9590  176.1290  134.5940 C   0  0  0  0  0  1  0  0  0  0  0  0
  192.3620  175.1260  138.4590 C   0  0  1  0  0  3  0  0  0  0  0  0
  193.0400  176.4760  138.1750 C   0  0  2  0  0  3  0  0  0  0  0  0
  190.8660  175.1450  138.1280 C   0  0  0  0  0  2  0  0  0  0  0  0
  193.0760  174.0130  137.7040 C   0  0  0  0  0  2  0  0  0  0  0  0
  193.8590  175.7590  136.0600 C   0  0  2  0  0  3  0  0  0  0  0  0
  193.2590  174.3530  136.2220 C   0  0  1  0  0  3  0  0  0  0  0  0
  190.9660  177.3110  139.4940 C   0  0  1  0  0  3  0  0  0  0  0  0
  195.5030  173.3610  135.7420 O   0  0  0  0  0  1  0  0  0  0  0  0
  193.6040  172.4170  134.8820 O   0  0  0  0  0  0  0  0  0  0  0  0
  194.1220  173.3170  135.5860 C   0  0  0  0  0  0  0  0  0  0  0  0
  193.0660  177.1230  142.0500 O   0  0  0  0  0  0  0  0  0  0  0  0
  191.3420  178.5770  142.4620 O   0  0  0  0  0  1  0  0  0  0  0  0
  191.8720  177.4630  141.8280 C   0  0  0  0  0  0  0  0  0  0  0  0
  187.6720  177.3620  140.2150 C   0  0  0  0  0  2  0  0  0  0  0  0
  187.6750  178.5450  139.2780 C   0  0  0  0  0  2  0  0  0  0  0  0
  186.8820  178.2270  138.0260 C   0  0  1  0  0  3  0  0  0  0  0  0
  185.5300  178.3770  138.2890 F   0  0  0  0  0  0  0  0  0  0  0  0
  187.2540  179.1000  137.0020 O   0  0  0  0  0  0  0  0  0  0  0  0
  187.2020  178.3280  135.8430 C   0  0  0  0  0  2  0  0  0  0  0  0
  187.3000  176.8690  136.1810 C   0  0  0  0  0  1  0  0  0  0  0  0
  1 54  1  6  0  0  0
  1 31  1  0  0  0  0
  1  2  1  0  0  0  0
  2  3  1  0  0  0  0
  4  3  1  6  0  0  0
  4  7  1  0  0  0  0
  7  5  2  0  0  0  0
  7  6  1  0  0  0  0
  9  8  1  6  0  0  0
  9  4  1  0  0  0  0
 10 11  1  0  0  0  0
 10  9  1  0  0  0  0
 12 11  1  0  0  0  0
 13 18  1  1  0  0  0
 13 12  1  0  0  0  0
 13 15  1  0  0  0  0
 15 16  2  0  0  0  0
 15 14  1  0  0  0  0
 17 18  2  0  0  0  0
 19 24  1  1  0  0  0
 19 21  1  0  0  0  0
 20 19  1  0  0  0  0
 20 21  1  0  0  0  0
 21 17  1  1  0  0  0
 21 22  1  0  0  0  0
 22 23  2  0  0  0  0
 25 26  1  0  0  0  0
 26 24  1  0  0  0  0
 26 28  1  0  0  0  0
 27 25  1  0  0  0  0
 27 30  2  0  0  0  0
 29 28  2  0  0  0  0
 30 29  1  0  0  0  0
 31 32  1  1  0  0  0
 32 33  1  0  0  0  0
 33 34  1  0  0  0  0
 34 35  1  0  0  0  0
 36 31  1  0  0  0  0
 36 53  1  1  0  0  0
 37 47  1  0  0  0  0
 38 42  1  0  0  0  0
 39 47  1  0  0  0  0
 41 44  1  6  0  0  0
 42 41  1  0  0  0  0
 42 37  1  1  0  0  0
 43 39  1  0  0  0  0
 43 41  1  0  0  0  0
 45 40  1  6  0  0  0
 45 46  1  0  0  0  0
 45 38  1  0  0  0  0
 46 50  1  1  0  0  0
 46 44  1  0  0  0  0
 47 36  1  1  0  0  0
 49 50  2  0  0  0  0
 50 48  1  0  0  0  0
 53 51  2  0  0  0  0
 53 52  1  0  0  0  0
 55 54  1  0  0  0  0
 56 57  1  1  0  0  0
 56 55  1  0  0  0  0
 58 56  1  0  0  0  0
 59 60  1  0  0  0  0
 59 58  1  0  0  0  0
M  END
>  <MODEL>
5

>  <REMARK>
 VINA RESULT:      -3.1      2.997      6.867
  Name = 
  28 active torsions:
  status: ('A' for Active; 'I' for Inactive)
    1  A    between atoms: N_2  and  C_30
    2  A    between atoms: C_4  and  C_8
    3  A    between atoms: O_7  and  C_20
    4  A    between atoms: O_7  and  C_26
    5  A    between atoms: C_8  and  N_31
    6  A    between atoms: C_14  and  C_46
    7  A    between atoms: C_14  and  C_60
    8  A    between atoms: C_16  and  C_30
    9  A    between atoms: C_17  and  C_21
   10  A    between atoms: C_17  and  C_50
   11  A    between atoms: C_20  and  C_46
   12  A    between atoms: C_21  and  C_41
   13  A    between atoms: C_24  and  O_57
   14  A    between atoms: C_27  and  C_34
   15  A    between atoms: C_27  and  C_56
   16  A    between atoms: C_27  and  C_58
   17  A    between atoms: C_29  and  C_49
   18  A    between atoms: C_29  and  C_50
   19  A    between atoms: C_33  and  C_41
   20  A    between atoms: C_34  and  C_54
   21  A    between atoms: C_34  and  C_60
   22  A    between atoms: C_39  and  O_53
   23  A    between atoms: C_39  and  C_60
   24  A    between atoms: C_41  and  O_53
   25  A    between atoms: C_43  and  C_55
   26  A    between atoms: C_45  and  C_49
   27  A    between atoms: C_49  and  C_59
   28  A    between atoms: C_54  and  O_57
                            x       y       z     vdW  Elec       q    Type
                         _______ _______ _______ _____ _____    ______ ____

>  <TORSDO>
F 28

$$$$
=
 OpenBabel11062414153D

 60 63  0  0  1  0  0  0  0  0999 V2000
  186.5170  178.1940  143.5190 C   0  0  1  0  0  3  0  0  0  0  0  0
  187.9180  178.6890  143.1590 C   0  0  0  0  0  2  0  0  0  0  0  0
  188.7140  177.6190  142.7440 O   0  0  0  0  0  0  0  0  0  0  0  0
  190.0020  178.1530  142.5990 C   0  0  1  0  0  3  0  0  0  0  0  0
  191.7140  179.3960  143.9660 O   0  0  0  0  0  0  0  0  0  0  0  0
  189.7960  178.5880  144.9500 O   0  0  0  0  0  1  0  0  0  0  0  0
  190.4890  178.7200  143.9050 C   0  0  0  0  0  0  0  0  0  0  0  0
  190.5110  175.6760  142.2460 C   0  0  0  0  0  1  0  0  0  0  0  0
  190.9390  177.1070  141.9690 C   0  0  1  0  0  3  0  0  0  0  0  0
  191.2970  177.3380  140.5000 C   0  0  0  0  0  2  0  0  0  0  0  0
  190.3930  176.5720  139.5470 C   0  0  0  0  0  2  0  0  0  0  0  0
  191.2050  175.7340  138.5850 C   0  0  0  0  0  2  0  0  0  0  0  0
  190.5500  175.7420  137.2090 C   0  0  2  0  0  3  0  0  0  0  0  0
  189.9990  177.9810  137.8030 O   0  0  0  0  0  1  0  0  0  0  0  0
  190.0160  177.1000  136.9030 C   0  0  0  0  0  0  0  0  0  0  0  0
  189.5080  177.3950  135.6430 O   0  0  0  0  0  0  0  0  0  0  0  0
  189.3020  173.9450  136.0700 C   0  0  0  0  0  3  0  0  0  0  0  0
  189.4520  174.7290  137.1400 C   0  0  0  0  0  3  0  0  0  0  0  0
  187.0490  173.1270  137.0010 C   0  0  1  0  0  3  0  0  0  0  0  0
  188.0890  172.0270  137.2180 C   0  0  0  0  0  2  0  0  0  0  0  0
  188.1990  172.9410  136.0190 C   0  0  2  0  0  0  0  0  0  0  0  0
  187.9140  172.2960  134.7580 N   0  0  0  0  0  0  0  0  0  0  0  0
  187.6760  171.1300  134.7210 O   0  0  0  0  0  0  0  0  0  0  0  0
  185.7440  172.5050  136.5220 C   0  0  0  0  0  2  0  0  0  0  0  0
  183.8530  173.3500  135.0880 C   0  0  0  0  0  2  0  0  0  0  0  0
  184.7760  173.5390  136.2090 N   0  0  0  0  0  0  0  0  0  0  0  0
  182.7940  174.4110  135.0470 C   0  0  0  0  0  3  0  0  0  0  0  0
  184.8770  174.7990  136.8770 C   0  0  0  0  0  3  0  0  0  0  0  0
  184.0000  175.7270  136.6600 N   0  0  0  0  0  0  0  0  0  0  0  0
  182.8990  175.5250  135.7680 C   0  0  0  0  0  3  0  0  0  0  0  0
  185.7360  177.7110  142.2790 C   0  0  2  0  0  3  0  0  0  0  0  0
  186.6260  177.6950  141.0380 C   0  0  0  0  0  2  0  0  0  0  0  0
  186.6310  178.9450  140.4290 O   0  0  0  0  0  0  0  0  0  0  0  0
  187.1880  178.7080  139.1700 C   0  0  0  0  0  2  0  0  0  0  0  0
  186.6490  177.5470  138.6250 O   0  0  0  0  0  1  0  0  0  0  0  0
  184.4520  178.5460  142.0240 C   0  0  1  0  0  3  0  0  0  0  0  0
  181.9210  178.4060  141.5630 C   0  0  0  0  0  2  0  0  0  0  0  0
  180.5530  178.8490  139.5760 N   0  0  0  0  0  2  0  0  0  0  0  0
  183.5130  177.3710  139.9270 C   0  0  0  0  0  2  0  0  0  0  0  0
  178.9310  179.3480  137.8490 C   0  0  0  0  0  1  0  0  0  0  0  0
  182.8160  179.8170  139.6340 C   0  0  1  0  0  3  0  0  0  0  0  0
  181.5780  179.4120  140.4520 C   0  0  2  0  0  3  0  0  0  0  0  0
  183.5260  178.6070  139.0170 C   0  0  0  0  0  2  0  0  0  0  0  0
  182.4270  180.8290  138.5650 C   0  0  0  0  0  2  0  0  0  0  0  0
  180.0860  179.8950  138.6640 C   0  0  2  0  0  3  0  0  0  0  0  0
  181.2250  180.3590  137.7410 C   0  0  1  0  0  3  0  0  0  0  0  0
  183.2940  177.7130  141.4060 C   0  0  1  0  0  3  0  0  0  0  0  0
  179.9570  182.4740  137.3330 O   0  0  0  0  0  1  0  0  0  0  0  0
  181.1310  181.4750  135.6420 O   0  0  0  0  0  0  0  0  0  0  0  0
  180.7820  181.4660  136.8470 C   0  0  0  0  0  0  0  0  0  0  0  0
  184.1660  180.4590  143.4360 O   0  0  0  0  0  0  0  0  0  0  0  0
  183.3920  178.4820  144.3010 O   0  0  0  0  0  1  0  0  0  0  0  0
  183.9900  179.2180  143.2890 C   0  0  0  0  0  0  0  0  0  0  0  0
  186.5490  177.1390  144.6140 C   0  0  0  0  0  2  0  0  0  0  0  0
  187.1900  177.7000  145.8590 C   0  0  0  0  0  2  0  0  0  0  0  0
  186.1650  178.4540  146.6840 C   0  0  1  0  0  3  0  0  0  0  0  0
  185.3150  177.5500  147.2980 F   0  0  0  0  0  0  0  0  0  0  0  0
  186.8150  179.2140  147.6580 O   0  0  0  0  0  0  0  0  0  0  0  0
  187.9620  178.4860  147.9690 C   0  0  0  0  0  2  0  0  0  0  0  0
  187.8740  177.9450  149.3660 C   0  0  0  0  0  1  0  0  0  0  0  0
  1  2  1  6  0  0  0
  1 54  1  0  0  0  0
  3  2  1  0  0  0  0
  4  3  1  1  0  0  0
  4  7  1  0  0  0  0
  7  5  2  0  0  0  0
  7  6  1  0  0  0  0
  9  8  1  6  0  0  0
  9  4  1  0  0  0  0
 10  9  1  0  0  0  0
 11 10  1  0  0  0  0
 12 11  1  0  0  0  0
 13 18  1  1  0  0  0
 13 12  1  0  0  0  0
 15 13  1  0  0  0  0
 15 14  1  0  0  0  0
 16 15  2  0  0  0  0
 17 18  2  0  0  0  0
 19 24  1  6  0  0  0
 19 20  1  0  0  0  0
 21 17  1  1  0  0  0
 21 19  1  0  0  0  0
 21 20  1  0  0  0  0
 22 21  1  0  0  0  0
 23 22  2  0  0  0  0
 25 26  1  0  0  0  0
 26 24  1  0  0  0  0
 26 28  1  0  0  0  0
 27 25  1  0  0  0  0
 27 30  2  0  0  0  0
 29 28  2  0  0  0  0
 30 29  1  0  0  0  0
 31 32  1  6  0  0  0
 31  1  1  0  0  0  0
 33 32  1  0  0  0  0
 34 33  1  0  0  0  0
 35 34  1  0  0  0  0
 36 31  1  0  0  0  0
 36 53  1  1  0  0  0
 38 42  1  0  0  0  0
 39 47  1  0  0  0  0
 41 44  1  6  0  0  0
 41 42  1  0  0  0  0
 42 37  1  1  0  0  0
 43 41  1  0  0  0  0
 43 39  1  0  0  0  0
 45 40  1  6  0  0  0
 45 38  1  0  0  0  0
 46 50  1  1  0  0  0
 46 44  1  0  0  0  0
 46 45  1  0  0  0  0
 47 37  1  0  0  0  0
 47 36  1  6  0  0  0
 49 50  2  0  0  0  0
 50 48  1  0  0  0  0
 53 51  2  0  0  0  0
 53 52  1  0  0  0  0
 54 55  1  0  0  0  0
 55 56  1  0  0  0  0
 56 57  1  1  0  0  0
 56 58  1  0  0  0  0
 58 59  1  0  0  0  0
 59 60  1  0  0  0  0
M  END
>  <MODEL>
6

>  <REMARK>
 VINA RESULT:      -3.1      3.450      8.976
  Name = 
  28 active torsions:
  status: ('A' for Active; 'I' for Inactive)
    1  A    between atoms: N_2  and  C_30
    2  A    between atoms: C_4  and  C_8
    3  A    between atoms: O_7  and  C_20
    4  A    between atoms: O_7  and  C_26
    5  A    between atoms: C_8  and  N_31
    6  A    between atoms: C_14  and  C_46
    7  A    between atoms: C_14  and  C_60
    8  A    between atoms: C_16  and  C_30
    9  A    between atoms: C_17  and  C_21
   10  A    between atoms: C_17  and  C_50
   11  A    between atoms: C_20  and  C_46
   12  A    between atoms: C_21  and  C_41
   13  A    between atoms: C_24  and  O_57
   14  A    between atoms: C_27  and  C_34
   15  A    between atoms: C_27  and  C_56
   16  A    between atoms: C_27  and  C_58
   17  A    between atoms: C_29  and  C_49
   18  A    between atoms: C_29  and  C_50
   19  A    between atoms: C_33  and  C_41
   20  A    between atoms: C_34  and  C_54
   21  A    between atoms: C_34  and  C_60
   22  A    between atoms: C_39  and  O_53
   23  A    between atoms: C_39  and  C_60
   24  A    between atoms: C_41  and  O_53
   25  A    between atoms: C_43  and  C_55
   26  A    between atoms: C_45  and  C_49
   27  A    between atoms: C_49  and  C_59
   28  A    between atoms: C_54  and  O_57
                            x       y       z     vdW  Elec       q    Type
                         _______ _______ _______ _____ _____    ______ ____

>  <TORSDO>
F 28

$$$$
=
 OpenBabel11062414153D

 60 63  0  0  1  0  0  0  0  0999 V2000
  188.7090  178.0750  144.7990 C   0  0  1  0  0  3  0  0  0  0  0  0
  189.3560  177.7890  143.4430 C   0  0  0  0  0  2  0  0  0  0  0  0
  189.6720  178.9880  142.7990 O   0  0  0  0  0  0  0  0  0  0  0  0
  191.0690  178.9810  142.6740 C   0  0  1  0  0  3  0  0  0  0  0  0
  192.7810  178.5640  144.4740 O   0  0  0  0  0  0  0  0  0  0  0  0
  191.3070  180.3240  144.6480 O   0  0  0  0  0  1  0  0  0  0  0  0
  191.7180  179.3340  143.9850 C   0  0  0  0  0  0  0  0  0  0  0  0
  191.1630  176.4420  142.9160 C   0  0  0  0  0  1  0  0  0  0  0  0
  191.5370  177.6460  142.0690 C   0  0  1  0  0  3  0  0  0  0  0  0
  191.2200  177.4420  140.5870 C   0  0  0  0  0  2  0  0  0  0  0  0
  192.4560  177.1330  139.7580 C   0  0  0  0  0  2  0  0  0  0  0  0
  192.0810  176.7660  138.3400 C   0  0  0  0  0  2  0  0  0  0  0  0
  190.9970  175.6940  138.3510 C   0  0  2  0  0  3  0  0  0  0  0  0
  190.6370  173.6310  137.2170 O   0  0  0  0  0  0  0  0  0  0  0  0
  191.4730  174.4750  137.6350 C   0  0  0  0  0  0  0  0  0  0  0  0
  192.8320  174.2460  137.4510 O   0  0  0  0  0  1  0  0  0  0  0  0
  189.7640  177.2460  136.8830 C   0  0  0  0  0  3  0  0  0  0  0  0
  189.7420  176.2050  137.7180 C   0  0  0  0  0  3  0  0  0  0  0  0
  187.5750  176.7020  135.6490 C   0  0  1  0  0  3  0  0  0  0  0  0
  188.4160  177.6210  134.7610 C   0  0  0  0  0  2  0  0  0  0  0  0
  188.5000  177.7440  136.2640 C   0  0  2  0  0  0  0  0  0  0  0  0
  187.9060  178.9500  136.7920 N   0  0  0  0  0  0  0  0  0  0  0  0
  187.0880  178.8880  137.6550 O   0  0  0  0  0  0  0  0  0  0  0  0
  186.1190  177.1450  135.6030 C   0  0  0  0  0  2  0  0  0  0  0  0
  183.9300  176.6220  136.7350 C   0  0  0  0  0  2  0  0  0  0  0  0
  185.2860  176.2250  136.3540 N   0  0  0  0  0  0  0  0  0  0  0  0
  183.1500  175.4780  137.3110 C   0  0  0  0  0  3  0  0  0  0  0  0
  185.8780  175.0310  136.8730 C   0  0  0  0  0  3  0  0  0  0  0  0
  185.1540  174.1620  137.5030 N   0  0  0  0  0  0  0  0  0  0  0  0
  183.7480  174.3510  137.6880 C   0  0  0  0  0  3  0  0  0  0  0  0
  187.1720  178.1590  144.7020 C   0  0  2  0  0  3  0  0  0  0  0  0
  186.5030  177.2900  145.7640 C   0  0  0  0  0  2  0  0  0  0  0  0
  185.3190  177.8770  146.1960 O   0  0  0  0  0  0  0  0  0  0  0  0
  185.7380  178.9990  146.9170 C   0  0  0  0  0  2  0  0  0  0  0  0
  186.7030  178.6290  147.8480 O   0  0  0  0  0  1  0  0  0  0  0  0
  186.6470  177.7990  143.2860 C   0  0  1  0  0  3  0  0  0  0  0  0
  186.0900  178.6590  140.9210 C   0  0  0  0  0  2  0  0  0  0  0  0
  184.0330  179.5070  139.8890 N   0  0  0  0  0  2  0  0  0  0  0  0
  185.3450  179.9950  142.9070 C   0  0  0  0  0  2  0  0  0  0  0  0
  182.1490  180.2360  138.5540 C   0  0  0  0  0  1  0  0  0  0  0  0
  183.8040  178.1860  141.9530 C   0  0  1  0  0  3  0  0  0  0  0  0
  184.5980  178.3980  140.6540 C   0  0  2  0  0  3  0  0  0  0  0  0
  183.9430  179.3680  142.9190 C   0  0  0  0  0  2  0  0  0  0  0  0
  182.3410  177.9100  141.6330 C   0  0  0  0  0  2  0  0  0  0  0  0
  182.6810  179.1440  139.4590 C   0  0  2  0  0  3  0  0  0  0  0  0
  181.7580  178.9510  140.6740 C   0  0  1  0  0  3  0  0  0  0  0  0
  186.4260  179.0430  142.3810 C   0  0  1  0  0  3  0  0  0  0  0  0
  180.2250  177.6930  139.1530 O   0  0  0  0  0  0  0  0  0  0  0  0
  179.3880  178.9330  140.8840 O   0  0  0  0  0  1  0  0  0  0  0  0
  180.3930  178.5220  140.2550 C   0  0  0  0  0  0  0  0  0  0  0  0
  188.0510  177.1010  141.4760 O   0  0  0  0  0  0  0  0  0  0  0  0
  187.8630  175.6020  143.2000 O   0  0  0  0  0  1  0  0  0  0  0  0
  187.5650  176.8190  142.6050 C   0  0  0  0  0  0  0  0  0  0  0  0
  189.1560  177.0850  145.8630 C   0  0  0  0  0  2  0  0  0  0  0  0
  190.5790  177.3710  146.2750 C   0  0  0  0  0  2  0  0  0  0  0  0
  190.7730  177.0630  147.7470 C   0  0  1  0  0  3  0  0  0  0  0  0
  189.6190  177.3910  148.4400 F   0  0  0  0  0  0  0  0  0  0  0  0
  191.0400  175.7020  147.9100 O   0  0  0  0  0  0  0  0  0  0  0  0
  192.4000  175.5730  147.6360 C   0  0  0  0  0  2  0  0  0  0  0  0
  193.2160  176.0010  148.8210 C   0  0  0  0  0  1  0  0  0  0  0  0
  1  2  1  6  0  0  0
  1 54  1  0  0  0  0
  3  2  1  0  0  0  0
  4  3  1  1  0  0  0
  4  7  1  0  0  0  0
  7  5  2  0  0  0  0
  7  6  1  0  0  0  0
  9  4  1  0  0  0  0
  9  8  1  1  0  0  0
 10  9  1  0  0  0  0
 11 10  1  0  0  0  0
 12 13  1  0  0  0  0
 12 11  1  0  0  0  0
 13 18  1  6  0  0  0
 14 15  2  0  0  0  0
 15 13  1  0  0  0  0
 16 15  1  0  0  0  0
 17 18  2  0  0  0  0
 19 24  1  6  0  0  0
 19 21  1  0  0  0  0
 20 19  1  0  0  0  0
 20 21  1  0  0  0  0
 21 22  1  0  0  0  0
 21 17  1  1  0  0  0
 22 23  2  0  0  0  0
 24 26  1  0  0  0  0
 25 27  1  0  0  0  0
 26 25  1  0  0  0  0
 26 28  1  0  0  0  0
 27 30  2  0  0  0  0
 28 29  2  0  0  0  0
 29 30  1  0  0  0  0
 31  1  1  0  0  0  0
 31 32  1  1  0  0  0
 32 33  1  0  0  0  0
 33 34  1  0  0  0  0
 34 35  1  0  0  0  0
 36 53  1  6  0  0  0
 36 31  1  0  0  0  0
 37 47  1  0  0  0  0
 38 42  1  0  0  0  0
 39 43  1  0  0  0  0
 41 44  1  6  0  0  0
 41 43  1  0  0  0  0
 42 37  1  1  0  0  0
 42 41  1  0  0  0  0
 45 40  1  6  0  0  0
 45 38  1  0  0  0  0
 45 46  1  0  0  0  0
 46 50  1  6  0  0  0
 46 44  1  0  0  0  0
 47 39  1  0  0  0  0
 47 36  1  1  0  0  0
 48 50  2  0  0  0  0
 50 49  1  0  0  0  0
 51 53  2  0  0  0  0
 53 52  1  0  0  0  0
 54 55  1  0  0  0  0
 55 56  1  0  0  0  0
 56 58  1  0  0  0  0
 56 57  1  1  0  0  0
 59 58  1  0  0  0  0
 59 60  1  0  0  0  0
M  END
>  <MODEL>
7

>  <REMARK>
 VINA RESULT:      -2.7      2.958      8.365
  Name = 
  28 active torsions:
  status: ('A' for Active; 'I' for Inactive)
    1  A    between atoms: N_2  and  C_30
    2  A    between atoms: C_4  and  C_8
    3  A    between atoms: O_7  and  C_20
    4  A    between atoms: O_7  and  C_26
    5  A    between atoms: C_8  and  N_31
    6  A    between atoms: C_14  and  C_46
    7  A    between atoms: C_14  and  C_60
    8  A    between atoms: C_16  and  C_30
    9  A    between atoms: C_17  and  C_21
   10  A    between atoms: C_17  and  C_50
   11  A    between atoms: C_20  and  C_46
   12  A    between atoms: C_21  and  C_41
   13  A    between atoms: C_24  and  O_57
   14  A    between atoms: C_27  and  C_34
   15  A    between atoms: C_27  and  C_56
   16  A    between atoms: C_27  and  C_58
   17  A    between atoms: C_29  and  C_49
   18  A    between atoms: C_29  and  C_50
   19  A    between atoms: C_33  and  C_41
   20  A    between atoms: C_34  and  C_54
   21  A    between atoms: C_34  and  C_60
   22  A    between atoms: C_39  and  O_53
   23  A    between atoms: C_39  and  C_60
   24  A    between atoms: C_41  and  O_53
   25  A    between atoms: C_43  and  C_55
   26  A    between atoms: C_45  and  C_49
   27  A    between atoms: C_49  and  C_59
   28  A    between atoms: C_54  and  O_57
                            x       y       z     vdW  Elec       q    Type
                         _______ _______ _______ _____ _____    ______ ____

>  <TORSDO>
F 28

$$$$
