=
 OpenBabel11062412523D

 50 56  0  0  1  0  0  0  0  0999 V2000
  180.1160  174.3430  138.3490 C   0  0  0  0  0  3  0  0  0  0  0  0
  181.1810  179.4310  142.2460 C   0  0  0  0  0  1  0  0  0  0  0  0
  178.9970  176.6950  140.9270 N   0  0  0  0  0  0  0  0  0  0  0  0
  181.5880  177.6220  140.5160 C   0  0  0  0  0  0  0  0  0  0  0  0
  183.1660  176.4890  138.4660 N   0  0  0  0  0  0  0  0  0  0  0  0
  183.0570  177.9860  140.4140 C   0  0  2  0  0  3  0  0  0  0  0  0
  179.7870  176.0660  140.0190 C   0  0  0  0  0  0  0  0  0  0  0  0
  183.6950  177.4730  139.1360 C   0  0  0  0  0  0  0  0  0  0  0  0
  181.3930  174.8390  138.0760 C   0  0  0  0  0  3  0  0  0  0  0  0
  181.8850  175.9370  138.7900 C   0  0  0  0  0  0  0  0  0  0  0  0
  179.3120  174.9580  139.3170 C   0  0  0  0  0  3  0  0  0  0  0  0
  179.4390  177.7750  141.6240 C   0  0  0  0  0  3  0  0  0  0  0  0
  181.0950  176.5360  139.7810 C   0  0  0  0  0  0  0  0  0  0  0  0
  180.7370  178.2590  141.4400 C   0  0  0  0  0  0  0  0  0  0  0  0
  185.0340  177.9910  138.7020 C   0  0  2  0  0  3  0  0  0  0  0  0
  185.1590  179.3380  139.0540 O   0  0  0  0  0  1  0  0  0  0  0  0
  188.0600  177.1320  137.1480 C   0  0  0  0  0  0  0  0  0  0  0  0
  188.7970  179.2210  136.9380 C   0  0  0  0  0  3  0  0  0  0  0  0
  185.6940  176.3420  136.8860 C   0  0  2  0  0  3  0  0  0  0  0  0
  185.2600  177.7950  137.1960 C   0  0  2  0  0  3  0  0  0  0  0  0
  189.8270  178.4470  137.2210 O   0  0  0  0  0  0  0  0  0  0  0  0
  189.4230  177.2030  137.3530 C   0  0  0  0  0  0  0  0  0  0  0  0
  186.2610  178.8330  136.6360 C   0  0  0  0  0  2  0  0  0  0  0  0
  187.1030  176.0070  137.4100 C   0  0  0  0  0  2  0  0  0  0  0  0
  185.5910  176.0480  135.4000 C   0  0  0  0  0  1  0  0  0  0  0  0
  187.6700  178.4230  136.9110 C   0  0  0  0  0  0  0  0  0  0  0  0
  193.2640  174.7340  136.1840 C   0  0  1  0  0  3  0  0  0  0  0  0
  192.4650  175.0900  135.0150 N   0  0  0  0  0  2  0  0  0  0  0  0
  192.1520  174.2070  137.5170 S   0  0  0  0  0  0  0  0  0  0  0  0
  191.0500  175.4430  136.9010 C   0  0  0  0  0  0  0  0  0  0  0  0
  191.3070  175.8390  135.4890 C   0  0  0  0  0  2  0  0  0  0  0  0
  194.2120  173.6080  135.8320 C   0  0  0  0  0  1  0  0  0  0  0  0
  190.3020  176.1290  137.7150 N   0  0  0  0  0  0  0  0  0  0  0  0
  183.7680  177.4090  141.5480 N   0  0  0  0  0  2  0  0  0  0  0  0
  184.4430  178.4900  142.2500 C   0  0  0  0  0  2  0  0  0  0  0  0
  185.8880  178.1020  142.5340 C   0  0  2  0  0  3  0  0  0  0  0  0
  186.7160  178.2030  146.7540 C   0  0  0  0  0  0  0  0  0  0  0  0
  187.5530  177.4720  145.9060 C   0  0  0  0  0  3  0  0  0  0  0  0
  185.6170  178.8920  146.2320 C   0  0  0  0  0  3  0  0  0  0  0  0
  187.2900  177.4300  144.5340 C   0  0  0  0  0  3  0  0  0  0  0  0
  186.1860  178.1220  144.0070 C   0  0  0  0  0  0  0  0  0  0  0  0
  185.3550  178.8530  144.8600 C   0  0  0  0  0  3  0  0  0  0  0  0
  186.9670  178.2380  148.0830 F   0  0  0  0  0  0  0  0  0  0  0  0
  186.7870  179.0020  141.8220 N   0  0  0  0  0  2  0  0  0  0  0  0
  187.9850  178.5470  141.1870 C   0  0  0  0  0  0  0  0  0  0  0  0
  188.7350  179.3910  140.6310 O   0  0  0  0  0  0  0  0  0  0  0  0
  189.3200  176.5530  141.7120 C   0  0  0  0  0  3  0  0  0  0  0  0
  188.2970  177.1430  141.1620 N   0  0  0  0  0  0  0  0  0  0  0  0
  190.3550  177.2530  142.5320 C   0  0  0  0  0  2  0  0  0  0  0  0
  191.5950  177.5050  141.6980 C   0  0  0  0  0  1  0  0  0  0  0  0
  1 11  1  0  0  0  0
  3 12  2  0  0  0  0
  4 14  2  0  0  0  0
  5 10  1  0  0  0  0
  5  8  2  0  0  0  0
  6  4  1  0  0  0  0
  6 34  1  1  0  0  0
  7  3  1  0  0  0  0
  8  6  1  0  0  0  0
  9  1  2  0  0  0  0
  9 10  1  0  0  0  0
 10 13  2  0  0  0  0
 11  7  2  0  0  0  0
 13  7  1  0  0  0  0
 13  4  1  0  0  0  0
 14 12  1  0  0  0  0
 14  2  1  0  0  0  0
 15 16  1  6  0  0  0
 15  8  1  0  0  0  0
 17 22  2  0  0  0  0
 17 24  1  0  0  0  0
 18 21  1  0  0  0  0
 19 25  1  6  0  0  0
 19 20  1  0  0  0  0
 19 24  1  0  0  0  0
 20 15  1  1  0  0  0
 21 22  1  0  0  0  0
 22 33  1  0  0  0  0
 23 26  1  0  0  0  0
 23 20  1  0  0  0  0
 26 18  2  0  0  0  0
 26 17  1  0  0  0  0
 27 32  1  6  0  0  0
 27 29  1  0  0  0  0
 28 31  1  0  0  0  0
 28 27  1  0  0  0  0
 30 29  1  0  0  0  0
 30 33  2  0  0  0  0
 31 30  1  0  0  0  0
 34 35  1  0  0  0  0
 36 35  1  1  0  0  0
 36 41  1  0  0  0  0
 37 43  1  0  0  0  0
 38 37  2  0  0  0  0
 39 37  1  0  0  0  0
 40 38  1  0  0  0  0
 41 40  2  0  0  0  0
 41 42  1  0  0  0  0
 42 39  2  0  0  0  0
 44 36  1  0  0  0  0
 45 44  1  0  0  0  0
 46 45  2  0  0  0  0
 47 49  1  0  0  0  0
 48 45  1  0  0  0  0
 48 47  2  0  0  0  0
 50 49  1  0  0  0  0
M  END
>  <MODEL>
1

>  <REMARK>
 VINA RESULT:      -7.9      0.000      0.000
  Name = 
  10 active torsions:
  status: ('A' for Active; 'I' for Inactive)
    1  A    between atoms: N_2  and  C_50
    2  A    between atoms: C_4  and  C_23
    3  A    between atoms: C_4  and  C_24
    4  A    between atoms: C_7  and  C_10
    5  A    between atoms: C_17  and  N_21
    6  A    between atoms: N_21  and  C_25
    7  A    between atoms: C_25  and  C_50
    8  A    between atoms: C_31  and  N_47
    9  A    between atoms: C_36  and  C_50
   10  A    between atoms: C_39  and  N_42
                            x       y       z     vdW  Elec       q    Type
                         _______ _______ _______ _____ _____    ______ ____

>  <TORSDO>
F 10

$$$$
=
 OpenBabel11062412523D

 50 56  0  0  1  0  0  0  0  0999 V2000
  188.1380  177.5830  144.1980 C   0  0  0  0  0  3  0  0  0  0  0  0
  190.0230  177.8870  137.9870 C   0  0  0  0  0  1  0  0  0  0  0  0
  190.7450  177.4140  141.6270 N   0  0  0  0  0  0  0  0  0  0  0  0
  188.5200  177.9040  140.0300 C   0  0  0  0  0  0  0  0  0  0  0  0
  186.0190  178.4110  141.2400 N   0  0  0  0  0  0  0  0  0  0  0  0
  187.2730  177.9790  139.1690 C   0  0  2  0  0  3  0  0  0  0  0  0
  189.5260  177.5400  142.2140 C   0  0  0  0  0  0  0  0  0  0  0  0
  186.0650  178.4790  139.9410 C   0  0  0  0  0  0  0  0  0  0  0  0
  187.0220  177.9020  143.4210 C   0  0  0  0  0  3  0  0  0  0  0  0
  187.1460  178.0180  142.0320 C   0  0  0  0  0  0  0  0  0  0  0  0
  189.3900  177.4060  143.5960 C   0  0  0  0  0  3  0  0  0  0  0  0
  190.9020  177.5390  140.2830 C   0  0  0  0  0  3  0  0  0  0  0  0
  188.3920  177.8110  141.4220 C   0  0  0  0  0  0  0  0  0  0  0  0
  189.8010  177.7810  139.4570 C   0  0  0  0  0  0  0  0  0  0  0  0
  184.8330  178.9200  139.2060 C   0  0  2  0  0  3  0  0  0  0  0  0
  184.2650  180.0220  139.8520 O   0  0  0  0  0  1  0  0  0  0  0  0
  181.3670  179.2700  138.7910 C   0  0  0  0  0  0  0  0  0  0  0  0
  180.8970  179.3590  140.9640 C   0  0  0  0  0  3  0  0  0  0  0  0
  183.1060  177.8380  137.6900 C   0  0  2  0  0  3  0  0  0  0  0  0
  183.8140  177.7810  139.0660 C   0  0  2  0  0  3  0  0  0  0  0  0
  180.0920  180.1930  140.3330 O   0  0  0  0  0  0  0  0  0  0  0  0
  180.3470  180.1650  139.0450 C   0  0  0  0  0  0  0  0  0  0  0  0
  182.8060  177.7770  140.2390 C   0  0  0  0  0  2  0  0  0  0  0  0
  182.1680  179.0500  137.5430 C   0  0  0  0  0  2  0  0  0  0  0  0
  182.3610  176.5460  137.4080 C   0  0  0  0  0  1  0  0  0  0  0  0
  181.7250  178.7840  140.0200 C   0  0  0  0  0  0  0  0  0  0  0  0
  180.7890  183.6680  135.9220 C   0  0  1  0  0  3  0  0  0  0  0  0
  181.6250  183.8760  137.1010 N   0  0  0  0  0  2  0  0  0  0  0  0
  179.1660  183.0550  136.4550 S   0  0  0  0  0  0  0  0  0  0  0  0
  180.0590  182.1840  137.7060 C   0  0  0  0  0  0  0  0  0  0  0  0
  181.4060  182.7470  137.9960 C   0  0  0  0  0  2  0  0  0  0  0  0
  180.6220  184.9750  135.1760 C   0  0  0  0  0  1  0  0  0  0  0  0
  179.6740  181.0030  138.0940 N   0  0  0  0  0  0  0  0  0  0  0  0
  186.9730  176.6490  138.6530 N   0  0  0  0  0  2  0  0  0  0  0  0
  186.7720  176.7620  137.2160 C   0  0  0  0  0  2  0  0  0  0  0  0
  187.1280  175.4460  136.5380 C   0  0  2  0  0  3  0  0  0  0  0  0
  183.7680  172.7610  136.4790 C   0  0  0  0  0  0  0  0  0  0  0  0
  184.6500  172.7360  137.5630 C   0  0  0  0  0  3  0  0  0  0  0  0
  183.9810  173.6500  135.4220 C   0  0  0  0  0  3  0  0  0  0  0  0
  185.7460  173.6020  137.5890 C   0  0  0  0  0  3  0  0  0  0  0  0
  185.9630  174.4970  136.5280 C   0  0  0  0  0  0  0  0  0  0  0  0
  185.0760  174.5190  135.4480 C   0  0  0  0  0  3  0  0  0  0  0  0
  182.7100  171.9180  136.4510 F   0  0  0  0  0  0  0  0  0  0  0  0
  188.2700  174.8400  137.2100 N   0  0  0  0  0  2  0  0  0  0  0  0
  189.1320  173.8980  136.5650 C   0  0  0  0  0  0  0  0  0  0  0  0
  190.0710  173.3830  137.2250 O   0  0  0  0  0  0  0  0  0  0  0  0
  188.4170  172.4970  134.6780 C   0  0  0  0  0  3  0  0  0  0  0  0
  188.9380  173.5830  135.1740 N   0  0  0  0  0  0  0  0  0  0  0  0
  187.8690  171.3740  135.4990 C   0  0  0  0  0  2  0  0  0  0  0  0
  186.5920  170.8490  134.8750 C   0  0  0  0  0  1  0  0  0  0  0  0
  2 14  1  0  0  0  0
  3  7  1  0  0  0  0
  4 13  1  0  0  0  0
  5 10  1  0  0  0  0
  6 34  1  1  0  0  0
  6  8  1  0  0  0  0
  6  4  1  0  0  0  0
  7 11  2  0  0  0  0
  8  5  2  0  0  0  0
  9  1  2  0  0  0  0
 10  9  1  0  0  0  0
 11  1  1  0  0  0  0
 12  3  2  0  0  0  0
 13 10  2  0  0  0  0
 13  7  1  0  0  0  0
 14  4  2  0  0  0  0
 14 12  1  0  0  0  0
 15 16  1  1  0  0  0
 15  8  1  0  0  0  0
 17 22  2  0  0  0  0
 17 26  1  0  0  0  0
 19 25  1  1  0  0  0
 19 20  1  0  0  0  0
 20 15  1  1  0  0  0
 20 23  1  0  0  0  0
 21 18  1  0  0  0  0
 22 21  1  0  0  0  0
 24 19  1  0  0  0  0
 24 17  1  0  0  0  0
 26 23  1  0  0  0  0
 26 18  2  0  0  0  0
 27 32  1  1  0  0  0
 27 29  1  0  0  0  0
 27 28  1  0  0  0  0
 28 31  1  0  0  0  0
 29 30  1  0  0  0  0
 30 31  1  0  0  0  0
 30 33  2  0  0  0  0
 33 22  1  0  0  0  0
 35 34  1  0  0  0  0
 36 44  1  0  0  0  0
 36 35  1  1  0  0  0
 37 38  1  0  0  0  0
 38 40  2  0  0  0  0
 39 42  1  0  0  0  0
 39 37  2  0  0  0  0
 41 36  1  0  0  0  0
 41 40  1  0  0  0  0
 42 41  2  0  0  0  0
 43 37  1  0  0  0  0
 45 44  1  0  0  0  0
 45 46  2  0  0  0  0
 47 48  2  0  0  0  0
 47 49  1  0  0  0  0
 48 45  1  0  0  0  0
 50 49  1  0  0  0  0
M  END
>  <MODEL>
2

>  <REMARK>
 VINA RESULT:      -7.2      4.456      9.340
  Name = 
  10 active torsions:
  status: ('A' for Active; 'I' for Inactive)
    1  A    between atoms: N_2  and  C_50
    2  A    between atoms: C_4  and  C_23
    3  A    between atoms: C_4  and  C_24
    4  A    between atoms: C_7  and  C_10
    5  A    between atoms: C_17  and  N_21
    6  A    between atoms: N_21  and  C_25
    7  A    between atoms: C_25  and  C_50
    8  A    between atoms: C_31  and  N_47
    9  A    between atoms: C_36  and  C_50
   10  A    between atoms: C_39  and  N_42
                            x       y       z     vdW  Elec       q    Type
                         _______ _______ _______ _____ _____    ______ ____

>  <TORSDO>
F 10

$$$$
=
 OpenBabel11062412523D

 50 56  0  0  1  0  0  0  0  0999 V2000
  180.1050  174.3560  139.3990 C   0  0  0  0  0  3  0  0  0  0  0  0
  181.0120  180.1260  142.2450 C   0  0  0  0  0  1  0  0  0  0  0  0
  178.9310  177.1020  141.5230 N   0  0  0  0  0  0  0  0  0  0  0  0
  181.4670  178.0420  140.8740 C   0  0  0  0  0  0  0  0  0  0  0  0
  183.0550  176.6110  139.0280 N   0  0  0  0  0  0  0  0  0  0  0  0
  182.9160  178.4410  140.6640 C   0  0  2  0  0  3  0  0  0  0  0  0
  179.7310  176.3460  140.7260 C   0  0  0  0  0  0  0  0  0  0  0  0
  183.5520  177.7240  139.4860 C   0  0  0  0  0  0  0  0  0  0  0  0
  181.3520  174.8440  139.0020 C   0  0  0  0  0  3  0  0  0  0  0  0
  181.8080  176.0760  139.4850 C   0  0  0  0  0  0  0  0  0  0  0  0
  179.2930  175.1080  140.2570 C   0  0  0  0  0  3  0  0  0  0  0  0
  179.3360  178.3110  141.9930 C   0  0  0  0  0  3  0  0  0  0  0  0
  181.0100  176.8180  140.3680 C   0  0  0  0  0  0  0  0  0  0  0  0
  180.6070  178.8060  141.6860 C   0  0  0  0  0  0  0  0  0  0  0  0
  184.8560  178.2070  138.9260 C   0  0  2  0  0  3  0  0  0  0  0  0
  184.9970  179.5770  139.1620 O   0  0  0  0  0  1  0  0  0  0  0  0
  187.7840  177.2580  137.2420 C   0  0  0  0  0  0  0  0  0  0  0  0
  188.4710  179.3320  136.8170 C   0  0  0  0  0  3  0  0  0  0  0  0
  185.4200  176.4240  137.2050 C   0  0  2  0  0  3  0  0  0  0  0  0
  184.9840  177.8930  137.4280 C   0  0  2  0  0  3  0  0  0  0  0  0
  189.5300  178.5940  137.0890 O   0  0  0  0  0  0  0  0  0  0  0  0
  189.1570  177.3610  137.3470 C   0  0  0  0  0  0  0  0  0  0  0  0
  185.9270  178.8930  136.7200 C   0  0  0  0  0  2  0  0  0  0  0  0
  186.8660  176.1480  137.6570 C   0  0  0  0  0  2  0  0  0  0  0  0
  185.2220  176.0110  135.7580 C   0  0  0  0  0  1  0  0  0  0  0  0
  187.3580  178.5220  136.9300 C   0  0  0  0  0  0  0  0  0  0  0  0
  193.1150  175.0460  136.2560 C   0  0  1  0  0  3  0  0  0  0  0  0
  192.3180  175.3550  135.0720 N   0  0  0  0  0  2  0  0  0  0  0  0
  192.0080  174.4850  137.5790 S   0  0  0  0  0  0  0  0  0  0  0  0
  190.8630  175.6670  136.9350 C   0  0  0  0  0  0  0  0  0  0  0  0
  191.1230  176.0590  135.5230 C   0  0  0  0  0  2  0  0  0  0  0  0
  194.1140  173.9570  135.9290 C   0  0  0  0  0  1  0  0  0  0  0  0
  190.0760  176.3280  137.7320 N   0  0  0  0  0  0  0  0  0  0  0  0
  183.6750  178.1170  141.8650 N   0  0  0  0  0  2  0  0  0  0  0  0
  184.4490  179.2930  142.2360 C   0  0  0  0  0  2  0  0  0  0  0  0
  185.3230  178.9790  143.4440 C   0  0  2  0  0  3  0  0  0  0  0  0
  188.8280  176.7270  142.3760 C   0  0  0  0  0  0  0  0  0  0  0  0
  188.2750  177.6180  141.4520 C   0  0  0  0  0  3  0  0  0  0  0  0
  188.2420  176.5680  143.6350 C   0  0  0  0  0  3  0  0  0  0  0  0
  187.1340  178.3520  141.7890 C   0  0  0  0  0  3  0  0  0  0  0  0
  186.5430  178.1940  143.0530 C   0  0  0  0  0  0  0  0  0  0  0  0
  187.1030  177.3030  143.9740 C   0  0  0  0  0  3  0  0  0  0  0  0
  189.9300  176.0120  142.0470 F   0  0  0  0  0  0  0  0  0  0  0  0
  184.5440  178.2470  144.4350 N   0  0  0  0  0  2  0  0  0  0  0  0
  184.6820  178.4730  145.8410 C   0  0  0  0  0  0  0  0  0  0  0  0
  184.0090  177.7690  146.6370 O   0  0  0  0  0  0  0  0  0  0  0  0
  186.6040  179.3770  147.0750 C   0  0  0  0  0  3  0  0  0  0  0  0
  185.5530  179.5150  146.3190 N   0  0  0  0  0  0  0  0  0  0  0  0
  187.1330  178.0630  147.5530 C   0  0  0  0  0  2  0  0  0  0  0  0
  188.5130  178.2450  148.1500 C   0  0  0  0  0  1  0  0  0  0  0  0
  1 11  1  0  0  0  0
  3 12  2  0  0  0  0
  4 14  2  0  0  0  0
  5 10  1  0  0  0  0
  5  8  2  0  0  0  0
  6  4  1  0  0  0  0
  6 34  1  1  0  0  0
  7  3  1  0  0  0  0
  8  6  1  0  0  0  0
  9  1  2  0  0  0  0
  9 10  1  0  0  0  0
 10 13  2  0  0  0  0
 11  7  2  0  0  0  0
 13  7  1  0  0  0  0
 13  4  1  0  0  0  0
 14 12  1  0  0  0  0
 14  2  1  0  0  0  0
 15 16  1  6  0  0  0
 15  8  1  0  0  0  0
 17 22  2  0  0  0  0
 17 24  1  0  0  0  0
 18 26  2  0  0  0  0
 18 21  1  0  0  0  0
 19 25  1  6  0  0  0
 19 20  1  0  0  0  0
 19 24  1  0  0  0  0
 20 15  1  1  0  0  0
 21 22  1  0  0  0  0
 22 33  1  0  0  0  0
 23 26  1  0  0  0  0
 23 20  1  0  0  0  0
 26 17  1  0  0  0  0
 27 32  1  6  0  0  0
 27 29  1  0  0  0  0
 28 31  1  0  0  0  0
 28 27  1  0  0  0  0
 30 29  1  0  0  0  0
 30 33  2  0  0  0  0
 31 30  1  0  0  0  0
 34 35  1  0  0  0  0
 36 35  1  6  0  0  0
 36 44  1  0  0  0  0
 37 39  1  0  0  0  0
 38 40  1  0  0  0  0
 38 37  2  0  0  0  0
 39 42  2  0  0  0  0
 40 41  2  0  0  0  0
 41 36  1  0  0  0  0
 41 42  1  0  0  0  0
 43 37  1  0  0  0  0
 44 45  1  0  0  0  0
 45 48  1  0  0  0  0
 45 46  2  0  0  0  0
 47 49  1  0  0  0  0
 48 47  2  0  0  0  0
 49 50  1  0  0  0  0
M  END
>  <MODEL>
3

>  <REMARK>
 VINA RESULT:      -6.7      1.847      2.905
  Name = 
  10 active torsions:
  status: ('A' for Active; 'I' for Inactive)
    1  A    between atoms: N_2  and  C_50
    2  A    between atoms: C_4  and  C_23
    3  A    between atoms: C_4  and  C_24
    4  A    between atoms: C_7  and  C_10
    5  A    between atoms: C_17  and  N_21
    6  A    between atoms: N_21  and  C_25
    7  A    between atoms: C_25  and  C_50
    8  A    between atoms: C_31  and  N_47
    9  A    between atoms: C_36  and  C_50
   10  A    between atoms: C_39  and  N_42
                            x       y       z     vdW  Elec       q    Type
                         _______ _______ _______ _____ _____    ______ ____

>  <TORSDO>
F 10

$$$$
=
 OpenBabel11062412523D

 50 56  0  0  1  0  0  0  0  0999 V2000
  187.9360  177.5380  144.3410 C   0  0  0  0  0  3  0  0  0  0  0  0
  190.3590  177.8780  138.3220 C   0  0  0  0  0  1  0  0  0  0  0  0
  190.7650  177.4260  142.0130 N   0  0  0  0  0  0  0  0  0  0  0  0
  188.6810  177.8630  140.2230 C   0  0  0  0  0  0  0  0  0  0  0  0
  186.0710  178.3140  141.2040 N   0  0  0  0  0  0  0  0  0  0  0  0
  187.5140  177.9090  139.2540 C   0  0  2  0  0  3  0  0  0  0  0  0
  189.4960  177.5250  142.4880 C   0  0  0  0  0  0  0  0  0  0  0  0
  186.2300  178.3810  139.9130 C   0  0  0  0  0  0  0  0  0  0  0  0
  186.8870  177.8310  143.4670 C   0  0  0  0  0  3  0  0  0  0  0  0
  187.1310  177.9480  142.0940 C   0  0  0  0  0  0  0  0  0  0  0  0
  189.2410  177.3890  143.8530 C   0  0  0  0  0  3  0  0  0  0  0  0
  191.0380  177.5530  140.6880 C   0  0  0  0  0  3  0  0  0  0  0  0
  188.4310  177.7690  141.5980 C   0  0  0  0  0  0  0  0  0  0  0  0
  190.0100  177.7690  139.7660 C   0  0  0  0  0  0  0  0  0  0  0  0
  185.0600  178.7940  139.0710 C   0  0  2  0  0  3  0  0  0  0  0  0
  184.5000  179.9690  139.5790 O   0  0  0  0  0  1  0  0  0  0  0  0
  181.5860  179.2340  138.8560 C   0  0  0  0  0  0  0  0  0  0  0  0
  181.2400  179.3070  141.0530 C   0  0  0  0  0  3  0  0  0  0  0  0
  183.2240  177.7720  137.6430 C   0  0  2  0  0  3  0  0  0  0  0  0
  184.0060  177.6820  138.9760 C   0  0  2  0  0  3  0  0  0  0  0  0
  180.4230  180.1680  140.4780 O   0  0  0  0  0  0  0  0  0  0  0  0
  180.6040  180.1490  139.1770 C   0  0  0  0  0  0  0  0  0  0  0  0
  183.0650  177.6880  140.2040 C   0  0  0  0  0  2  0  0  0  0  0  0
  182.3100  179.0090  137.5620 C   0  0  0  0  0  2  0  0  0  0  0  0
  182.4310  176.5030  137.3890 C   0  0  0  0  0  1  0  0  0  0  0  0
  182.0000  178.7240  140.0570 C   0  0  0  0  0  0  0  0  0  0  0  0
  180.9440  183.7360  136.1370 C   0  0  1  0  0  3  0  0  0  0  0  0
  181.8240  183.9100  137.2900 N   0  0  0  0  0  2  0  0  0  0  0  0
  179.3400  183.1130  136.7120 S   0  0  0  0  0  0  0  0  0  0  0  0
  180.2750  182.2050  137.9060 C   0  0  0  0  0  0  0  0  0  0  0  0
  181.6340  182.7560  138.1610 C   0  0  0  0  0  2  0  0  0  0  0  0
  180.7560  185.0630  135.4340 C   0  0  0  0  0  1  0  0  0  0  0  0
  179.9000  181.0160  138.2750 N   0  0  0  0  0  0  0  0  0  0  0  0
  187.2920  176.5720  138.7180 N   0  0  0  0  0  2  0  0  0  0  0  0
  187.4320  176.6420  137.2710 C   0  0  0  0  0  2  0  0  0  0  0  0
  187.8460  175.2820  136.7230 C   0  0  2  0  0  3  0  0  0  0  0  0
  191.9520  175.2760  135.4420 C   0  0  0  0  0  0  0  0  0  0  0  0
  191.5800  174.5280  136.5620 C   0  0  0  0  0  3  0  0  0  0  0  0
  190.9960  176.0220  134.7470 C   0  0  0  0  0  3  0  0  0  0  0  0
  190.2490  174.5260  136.9880 C   0  0  0  0  0  3  0  0  0  0  0  0
  189.2860  175.2750  136.2920 C   0  0  0  0  0  0  0  0  0  0  0  0
  189.6640  176.0190  135.1710 C   0  0  0  0  0  3  0  0  0  0  0  0
  193.2420  175.2820  135.0330 F   0  0  0  0  0  0  0  0  0  0  0  0
  186.9810  174.9180  135.6080 N   0  0  0  0  0  2  0  0  0  0  0  0
  186.1810  173.7320  135.6120 C   0  0  0  0  0  0  0  0  0  0  0  0
  185.4930  173.4610  134.5940 O   0  0  0  0  0  0  0  0  0  0  0  0
  185.1140  172.6360  137.5350 C   0  0  0  0  0  3  0  0  0  0  0  0
  186.1450  172.8930  136.7810 N   0  0  0  0  0  0  0  0  0  0  0  0
  183.7330  173.1490  137.2770 C   0  0  0  0  0  2  0  0  0  0  0  0
  182.8300  172.0120  136.8420 C   0  0  0  0  0  1  0  0  0  0  0  0
  2 14  1  0  0  0  0
  3  7  1  0  0  0  0
  4 13  1  0  0  0  0
  5 10  1  0  0  0  0
  6 34  1  1  0  0  0
  6  8  1  0  0  0  0
  6  4  1  0  0  0  0
  7 11  2  0  0  0  0
  8  5  2  0  0  0  0
  9  1  2  0  0  0  0
 10  9  1  0  0  0  0
 11  1  1  0  0  0  0
 12  3  2  0  0  0  0
 13 10  2  0  0  0  0
 13  7  1  0  0  0  0
 14  4  2  0  0  0  0
 14 12  1  0  0  0  0
 15 16  1  1  0  0  0
 15  8  1  0  0  0  0
 17 22  2  0  0  0  0
 17 26  1  0  0  0  0
 19 25  1  1  0  0  0
 19 20  1  0  0  0  0
 20 15  1  1  0  0  0
 20 23  1  0  0  0  0
 21 18  1  0  0  0  0
 22 21  1  0  0  0  0
 24 19  1  0  0  0  0
 24 17  1  0  0  0  0
 26 23  1  0  0  0  0
 26 18  2  0  0  0  0
 27 32  1  1  0  0  0
 27 29  1  0  0  0  0
 27 28  1  0  0  0  0
 28 31  1  0  0  0  0
 29 30  1  0  0  0  0
 30 31  1  0  0  0  0
 30 33  2  0  0  0  0
 33 22  1  0  0  0  0
 35 34  1  0  0  0  0
 36 35  1  6  0  0  0
 37 38  1  0  0  0  0
 38 40  2  0  0  0  0
 39 42  1  0  0  0  0
 39 37  2  0  0  0  0
 41 36  1  0  0  0  0
 41 40  1  0  0  0  0
 42 41  2  0  0  0  0
 43 37  1  0  0  0  0
 44 45  1  0  0  0  0
 44 36  1  0  0  0  0
 45 48  1  0  0  0  0
 46 45  2  0  0  0  0
 48 47  2  0  0  0  0
 49 47  1  0  0  0  0
 50 49  1  0  0  0  0
M  END
>  <MODEL>
4

>  <REMARK>
 VINA RESULT:      -6.5      4.404      9.474
  Name = 
  10 active torsions:
  status: ('A' for Active; 'I' for Inactive)
    1  A    between atoms: N_2  and  C_50
    2  A    between atoms: C_4  and  C_23
    3  A    between atoms: C_4  and  C_24
    4  A    between atoms: C_7  and  C_10
    5  A    between atoms: C_17  and  N_21
    6  A    between atoms: N_21  and  C_25
    7  A    between atoms: C_25  and  C_50
    8  A    between atoms: C_31  and  N_47
    9  A    between atoms: C_36  and  C_50
   10  A    between atoms: C_39  and  N_42
                            x       y       z     vdW  Elec       q    Type
                         _______ _______ _______ _____ _____    ______ ____

>  <TORSDO>
F 10

$$$$
=
 OpenBabel11062412523D

 50 56  0  0  1  0  0  0  0  0999 V2000
  188.5470  177.5990  144.1780 C   0  0  0  0  0  3  0  0  0  0  0  0
  190.5550  177.6480  137.9990 C   0  0  0  0  0  1  0  0  0  0  0  0
  191.2120  177.3770  141.6720 N   0  0  0  0  0  0  0  0  0  0  0  0
  189.0100  177.7240  140.0080 C   0  0  0  0  0  0  0  0  0  0  0  0
  186.4700  178.2200  141.1400 N   0  0  0  0  0  0  0  0  0  0  0  0
  187.7800  177.7210  139.1190 C   0  0  2  0  0  3  0  0  0  0  0  0
  189.9770  177.4970  142.2270 C   0  0  0  0  0  0  0  0  0  0  0  0
  186.5420  178.2240  139.8400 C   0  0  0  0  0  0  0  0  0  0  0  0
  187.4400  177.8480  143.3640 C   0  0  0  0  0  3  0  0  0  0  0  0
  187.5900  177.8980  141.9730 C   0  0  0  0  0  0  0  0  0  0  0  0
  189.8160  177.4280  143.6110 C   0  0  0  0  0  3  0  0  0  0  0  0
  191.3940  177.4400  140.3270 C   0  0  0  0  0  3  0  0  0  0  0  0
  188.8530  177.6970  141.4000 C   0  0  0  0  0  0  0  0  0  0  0  0
  190.3050  177.6090  139.4670 C   0  0  0  0  0  0  0  0  0  0  0  0
  185.3150  178.5940  139.0600 C   0  0  2  0  0  3  0  0  0  0  0  0
  185.6640  179.4250  137.9920 O   0  0  0  0  0  1  0  0  0  0  0  0
  181.8920  177.8300  139.1380 C   0  0  0  0  0  0  0  0  0  0  0  0
  181.3220  179.2220  137.4980 C   0  0  0  0  0  3  0  0  0  0  0  0
  183.6160  178.2300  140.9140 C   0  0  2  0  0  3  0  0  0  0  0  0
  184.2540  179.2590  139.9480 C   0  0  2  0  0  3  0  0  0  0  0  0
  180.5860  178.1330  137.3880 O   0  0  0  0  0  0  0  0  0  0  0  0
  180.9010  177.2880  138.3440 C   0  0  0  0  0  0  0  0  0  0  0  0
  183.1920  179.9990  139.1020 C   0  0  0  0  0  2  0  0  0  0  0  0
  182.7410  177.1880  140.1930 C   0  0  0  0  0  2  0  0  0  0  0  0
  182.8280  178.9260  142.0080 C   0  0  0  0  0  1  0  0  0  0  0  0
  182.1690  179.0470  138.5750 C   0  0  0  0  0  0  0  0  0  0  0  0
  181.1630  172.7520  137.0880 C   0  0  1  0  0  3  0  0  0  0  0  0
  181.5250  173.6450  135.9920 N   0  0  0  0  0  2  0  0  0  0  0  0
  179.7130  173.4300  137.9430 S   0  0  0  0  0  0  0  0  0  0  0  0
  180.4260  175.0120  137.6060 C   0  0  0  0  0  0  0  0  0  0  0  0
  181.4030  175.0120  136.4840 C   0  0  0  0  0  2  0  0  0  0  0  0
  180.8380  171.3780  136.5420 C   0  0  0  0  0  1  0  0  0  0  0  0
  180.3120  175.9840  138.4630 N   0  0  0  0  0  0  0  0  0  0  0  0
  187.5280  176.3600  138.6650 N   0  0  0  0  0  2  0  0  0  0  0  0
  187.2770  176.4060  137.2320 C   0  0  0  0  0  2  0  0  0  0  0  0
  187.8620  175.1690  136.5630 C   0  0  2  0  0  3  0  0  0  0  0  0
  184.9240  172.0610  136.1020 C   0  0  0  0  0  0  0  0  0  0  0  0
  185.0070  172.7560  137.3120 C   0  0  0  0  0  3  0  0  0  0  0  0
  185.7940  172.3730  135.0530 C   0  0  0  0  0  3  0  0  0  0  0  0
  185.9600  173.7650  137.4720 C   0  0  0  0  0  3  0  0  0  0  0  0
  186.8350  174.0810  136.4190 C   0  0  0  0  0  0  0  0  0  0  0  0
  186.7460  173.3840  135.2110 C   0  0  0  0  0  3  0  0  0  0  0  0
  184.0050  171.0800  135.9490 F   0  0  0  0  0  0  0  0  0  0  0  0
  189.0050  174.6900  137.3310 N   0  0  0  0  0  2  0  0  0  0  0  0
  190.1980  174.2040  136.7100 C   0  0  0  0  0  0  0  0  0  0  0  0
  191.1250  173.7640  137.4390 O   0  0  0  0  0  0  0  0  0  0  0  0
  191.1610  174.9980  134.5940 C   0  0  0  0  0  3  0  0  0  0  0  0
  190.3370  174.2570  135.2780 N   0  0  0  0  0  0  0  0  0  0  0  0
  192.1720  175.9160  135.2010 C   0  0  0  0  0  2  0  0  0  0  0  0
  193.5710  175.4410  134.8670 C   0  0  0  0  0  1  0  0  0  0  0  0
  2 14  1  0  0  0  0
  3  7  1  0  0  0  0
  4 13  1  0  0  0  0
  5 10  1  0  0  0  0
  6 34  1  1  0  0  0
  6  8  1  0  0  0  0
  6  4  1  0  0  0  0
  7 11  2  0  0  0  0
  8  5  2  0  0  0  0
  9  1  2  0  0  0  0
 10  9  1  0  0  0  0
 11  1  1  0  0  0  0
 12  3  2  0  0  0  0
 13 10  2  0  0  0  0
 13  7  1  0  0  0  0
 14  4  2  0  0  0  0
 14 12  1  0  0  0  0
 15 16  1  6  0  0  0
 15  8  1  0  0  0  0
 17 24  1  0  0  0  0
 18 26  2  0  0  0  0
 19 25  1  1  0  0  0
 20 15  1  6  0  0  0
 20 19  1  0  0  0  0
 21 18  1  0  0  0  0
 21 22  1  0  0  0  0
 22 33  1  0  0  0  0
 22 17  2  0  0  0  0
 23 20  1  0  0  0  0
 24 19  1  0  0  0  0
 26 23  1  0  0  0  0
 26 17  1  0  0  0  0
 27 32  1  6  0  0  0
 27 29  1  0  0  0  0
 28 31  1  0  0  0  0
 28 27  1  0  0  0  0
 30 29  1  0  0  0  0
 30 33  2  0  0  0  0
 31 30  1  0  0  0  0
 35 34  1  0  0  0  0
 36 35  1  1  0  0  0
 36 44  1  0  0  0  0
 37 38  1  0  0  0  0
 38 40  2  0  0  0  0
 39 42  1  0  0  0  0
 39 37  2  0  0  0  0
 41 36  1  0  0  0  0
 41 40  1  0  0  0  0
 42 41  2  0  0  0  0
 43 37  1  0  0  0  0
 45 44  1  0  0  0  0
 45 46  2  0  0  0  0
 47 49  1  0  0  0  0
 47 48  2  0  0  0  0
 48 45  1  0  0  0  0
 50 49  1  0  0  0  0
M  END
>  <MODEL>
5

>  <REMARK>
 VINA RESULT:      -6.4      3.528      8.801
  Name = 
  10 active torsions:
  status: ('A' for Active; 'I' for Inactive)
    1  A    between atoms: N_2  and  C_50
    2  A    between atoms: C_4  and  C_23
    3  A    between atoms: C_4  and  C_24
    4  A    between atoms: C_7  and  C_10
    5  A    between atoms: C_17  and  N_21
    6  A    between atoms: N_21  and  C_25
    7  A    between atoms: C_25  and  C_50
    8  A    between atoms: C_31  and  N_47
    9  A    between atoms: C_36  and  C_50
   10  A    between atoms: C_39  and  N_42
                            x       y       z     vdW  Elec       q    Type
                         _______ _______ _______ _____ _____    ______ ____

>  <TORSDO>
F 10

$$$$
=
 OpenBabel11062412523D

 50 56  0  0  1  0  0  0  0  0999 V2000
  187.2320  178.6520  147.1160 C   0  0  0  0  0  3  0  0  0  0  0  0
  182.9190  178.3820  142.2650 C   0  0  0  0  0  1  0  0  0  0  0  0
  183.8120  179.0000  145.8440 N   0  0  0  0  0  0  0  0  0  0  0  0
  185.1290  178.2740  143.5040 C   0  0  0  0  0  0  0  0  0  0  0  0
  187.8620  177.5680  143.6020 N   0  0  0  0  0  0  0  0  0  0  0  0
  185.8960  178.0650  142.2110 C   0  0  2  0  0  3  0  0  0  0  0  0
  185.1520  178.7770  145.8820 C   0  0  0  0  0  0  0  0  0  0  0  0
  187.2760  177.4750  142.4430 C   0  0  0  0  0  0  0  0  0  0  0  0
  187.8970  178.2150  145.9690 C   0  0  0  0  0  3  0  0  0  0  0  0
  187.1990  178.0800  144.7630 C   0  0  0  0  0  0  0  0  0  0  0  0
  185.8600  178.9290  147.0750 C   0  0  0  0  0  3  0  0  0  0  0  0
  183.1020  178.8600  144.6940 C   0  0  0  0  0  3  0  0  0  0  0  0
  185.8310  178.3860  144.7110 C   0  0  0  0  0  0  0  0  0  0  0  0
  183.7390  178.5000  143.5030 C   0  0  0  0  0  0  0  0  0  0  0  0
  188.0540  176.9060  141.2940 C   0  0  2  0  0  3  0  0  0  0  0  0
  189.1870  176.2420  141.7700 O   0  0  0  0  0  1  0  0  0  0  0  0
  190.5990  176.6870  138.8890 C   0  0  0  0  0  0  0  0  0  0  0  0
  192.2190  177.4290  140.2200 C   0  0  0  0  0  3  0  0  0  0  0  0
  188.2230  177.4890  138.8270 C   0  0  2  0  0  3  0  0  0  0  0  0
  188.4400  177.9890  140.2760 C   0  0  2  0  0  3  0  0  0  0  0  0
  192.7210  176.4850  139.4470 O   0  0  0  0  0  0  0  0  0  0  0  0
  191.7850  176.0240  138.6480 C   0  0  0  0  0  0  0  0  0  0  0  0
  189.8830  178.4930  140.5070 C   0  0  0  0  0  2  0  0  0  0  0  0
  189.2090  176.3780  138.4180 C   0  0  0  0  0  2  0  0  0  0  0  0
  188.2740  178.6410  137.8400 C   0  0  0  0  0  1  0  0  0  0  0  0
  190.8810  177.5580  139.9070 C   0  0  0  0  0  0  0  0  0  0  0  0
  194.7670  172.6850  137.1740 C   0  0  1  0  0  3  0  0  0  0  0  0
  195.4610  173.9160  137.5380 N   0  0  0  0  0  2  0  0  0  0  0  0
  193.2660  173.1090  136.2470 S   0  0  0  0  0  0  0  0  0  0  0  0
  193.1610  174.5060  137.3250 C   0  0  0  0  0  0  0  0  0  0  0  0
  194.4510  174.8750  137.9680 C   0  0  0  0  0  2  0  0  0  0  0  0
  195.6700  171.8230  136.3170 C   0  0  0  0  0  1  0  0  0  0  0  0
  192.0050  174.9490  137.7230 N   0  0  0  0  0  0  0  0  0  0  0  0
  186.0510  179.3500  141.5410 N   0  0  0  0  0  2  0  0  0  0  0  0
  185.9150  179.1270  140.1090 C   0  0  0  0  0  2  0  0  0  0  0  0
  184.4420  179.0180  139.7380 C   0  0  2  0  0  3  0  0  0  0  0  0
  183.7140  175.6820  137.1230 C   0  0  0  0  0  0  0  0  0  0  0  0
  183.1470  175.6920  138.4000 C   0  0  0  0  0  3  0  0  0  0  0  0
  184.5130  176.7490  136.7020 C   0  0  0  0  0  3  0  0  0  0  0  0
  183.3810  176.7700  139.2580 C   0  0  0  0  0  3  0  0  0  0  0  0
  184.1840  177.8430  138.8390 C   0  0  0  0  0  0  0  0  0  0  0  0
  184.7460  177.8290  137.5590 C   0  0  0  0  0  3  0  0  0  0  0  0
  183.4920  174.6360  136.2940 F   0  0  0  0  0  0  0  0  0  0  0  0
  184.0050  180.2530  139.0980 N   0  0  0  0  0  2  0  0  0  0  0  0
  182.6240  180.5940  138.9480 C   0  0  0  0  0  0  0  0  0  0  0  0
  182.3230  181.6560  138.3440 O   0  0  0  0  0  0  0  0  0  0  0  0
  180.6030  179.1980  138.8970 C   0  0  0  0  0  3  0  0  0  0  0  0
  181.6090  179.7470  139.5170 N   0  0  0  0  0  0  0  0  0  0  0  0
  180.3500  179.3200  137.4280 C   0  0  0  0  0  2  0  0  0  0  0  0
  180.9650  178.1440  136.6970 C   0  0  0  0  0  1  0  0  0  0  0  0
  2 14  1  0  0  0  0
  3  7  1  0  0  0  0
  4 13  1  0  0  0  0
  5 10  1  0  0  0  0
  6 34  1  1  0  0  0
  6  8  1  0  0  0  0
  6  4  1  0  0  0  0
  7 11  2  0  0  0  0
  8  5  2  0  0  0  0
  9  1  2  0  0  0  0
 10  9  1  0  0  0  0
 11  1  1  0  0  0  0
 12  3  2  0  0  0  0
 13 10  2  0  0  0  0
 13  7  1  0  0  0  0
 14  4  2  0  0  0  0
 14 12  1  0  0  0  0
 15 16  1  1  0  0  0
 15  8  1  0  0  0  0
 17 26  1  0  0  0  0
 19 25  1  6  0  0  0
 19 20  1  0  0  0  0
 20 23  1  0  0  0  0
 20 15  1  1  0  0  0
 21 18  1  0  0  0  0
 22 17  2  0  0  0  0
 22 21  1  0  0  0  0
 24 19  1  0  0  0  0
 24 17  1  0  0  0  0
 26 18  2  0  0  0  0
 26 23  1  0  0  0  0
 27 32  1  6  0  0  0
 27 28  1  0  0  0  0
 28 31  1  0  0  0  0
 29 27  1  0  0  0  0
 29 30  1  0  0  0  0
 30 33  2  0  0  0  0
 30 31  1  0  0  0  0
 33 22  1  0  0  0  0
 35 34  1  0  0  0  0
 36 35  1  6  0  0  0
 37 38  1  0  0  0  0
 38 40  2  0  0  0  0
 39 37  2  0  0  0  0
 39 42  1  0  0  0  0
 41 40  1  0  0  0  0
 41 36  1  0  0  0  0
 42 41  2  0  0  0  0
 43 37  1  0  0  0  0
 44 36  1  0  0  0  0
 45 44  1  0  0  0  0
 45 48  1  0  0  0  0
 46 45  2  0  0  0  0
 47 48  2  0  0  0  0
 49 47  1  0  0  0  0
 50 49  1  0  0  0  0
M  END
>  <MODEL>
6

>  <REMARK>
 VINA RESULT:      -5.7      2.853      6.590
  Name = 
  10 active torsions:
  status: ('A' for Active; 'I' for Inactive)
    1  A    between atoms: N_2  and  C_50
    2  A    between atoms: C_4  and  C_23
    3  A    between atoms: C_4  and  C_24
    4  A    between atoms: C_7  and  C_10
    5  A    between atoms: C_17  and  N_21
    6  A    between atoms: N_21  and  C_25
    7  A    between atoms: C_25  and  C_50
    8  A    between atoms: C_31  and  N_47
    9  A    between atoms: C_36  and  C_50
   10  A    between atoms: C_39  and  N_42
                            x       y       z     vdW  Elec       q    Type
                         _______ _______ _______ _____ _____    ______ ____

>  <TORSDO>
F 10

$$$$
=
 OpenBabel11062412523D

 50 56  0  0  1  0  0  0  0  0999 V2000
  187.7490  178.5450  146.9380 C   0  0  0  0  0  3  0  0  0  0  0  0
  183.1620  178.2400  142.3470 C   0  0  0  0  0  1  0  0  0  0  0  0
  184.2490  178.8070  145.8820 N   0  0  0  0  0  0  0  0  0  0  0  0
  185.4450  178.1780  143.4490 C   0  0  0  0  0  0  0  0  0  0  0  0
  188.2000  177.5630  143.3670 N   0  0  0  0  0  0  0  0  0  0  0  0
  186.1380  178.0250  142.1080 C   0  0  2  0  0  3  0  0  0  0  0  0
  185.5960  178.6280  145.8340 C   0  0  0  0  0  0  0  0  0  0  0  0
  187.5480  177.4770  142.2430 C   0  0  0  0  0  0  0  0  0  0  0  0
  188.3570  178.1560  145.7420 C   0  0  0  0  0  3  0  0  0  0  0  0
  187.5920  178.0250  144.5780 C   0  0  0  0  0  0  0  0  0  0  0  0
  186.3690  178.7760  146.9850 C   0  0  0  0  0  3  0  0  0  0  0  0
  183.4760  178.6690  144.7720 C   0  0  0  0  0  3  0  0  0  0  0  0
  186.2150  178.2860  144.6150 C   0  0  0  0  0  0  0  0  0  0  0  0
  184.0500  178.3570  143.5370 C   0  0  0  0  0  0  0  0  0  0  0  0
  188.2730  176.9600  141.0350 C   0  0  2  0  0  3  0  0  0  0  0  0
  189.1700  175.9580  141.4120 O   0  0  0  0  0  1  0  0  0  0  0  0
  190.2010  176.6080  138.1260 C   0  0  0  0  0  0  0  0  0  0  0  0
  192.1070  176.1600  139.1820 C   0  0  0  0  0  3  0  0  0  0  0  0
  188.4340  178.2360  138.8440 C   0  0  2  0  0  3  0  0  0  0  0  0
  188.9940  178.0850  140.2800 C   0  0  2  0  0  3  0  0  0  0  0  0
  192.0580  175.4220  138.0910 O   0  0  0  0  0  0  0  0  0  0  0  0
  190.9400  175.6630  137.4440 C   0  0  0  0  0  0  0  0  0  0  0  0
  190.5270  177.8780  140.2880 C   0  0  0  0  0  2  0  0  0  0  0  0
  188.7800  177.0430  137.9330 C   0  0  0  0  0  2  0  0  0  0  0  0
  188.8910  179.5400  138.2160 C   0  0  0  0  0  1  0  0  0  0  0  0
  190.9410  176.8970  139.2410 C   0  0  0  0  0  0  0  0  0  0  0  0
  187.8010  172.8100  135.3880 C   0  0  1  0  0  3  0  0  0  0  0  0
  188.0510  172.4380  136.7780 N   0  0  0  0  0  2  0  0  0  0  0  0
  189.3800  173.2280  134.5990 S   0  0  0  0  0  0  0  0  0  0  0  0
  189.8280  173.9060  136.1680 C   0  0  0  0  0  0  0  0  0  0  0  0
  189.0350  173.3740  137.3090 C   0  0  0  0  0  2  0  0  0  0  0  0
  187.1540  171.6520  134.6570 C   0  0  0  0  0  1  0  0  0  0  0  0
  190.5670  174.9740  136.2410 N   0  0  0  0  0  0  0  0  0  0  0  0
  186.2110  179.3300  141.4620 N   0  0  0  0  0  2  0  0  0  0  0  0
  186.0380  179.1290  140.0300 C   0  0  0  0  0  2  0  0  0  0  0  0
  184.5570  178.9970  139.7010 C   0  0  2  0  0  3  0  0  0  0  0  0
  183.7970  175.6280  137.1360 C   0  0  0  0  0  0  0  0  0  0  0  0
  184.6640  176.6370  136.7080 C   0  0  0  0  0  3  0  0  0  0  0  0
  183.1810  175.7170  138.3880 C   0  0  0  0  0  3  0  0  0  0  0  0
  184.9140  177.7370  137.5330 C   0  0  0  0  0  3  0  0  0  0  0  0
  184.2960  177.8290  138.7910 C   0  0  0  0  0  0  0  0  0  0  0  0
  183.4320  176.8160  139.2150 C   0  0  0  0  0  3  0  0  0  0  0  0
  183.5500  174.5650  136.3350 F   0  0  0  0  0  0  0  0  0  0  0  0
  184.0770  180.2310  139.0920 N   0  0  0  0  0  2  0  0  0  0  0  0
  182.6870  180.5610  139.0150 C   0  0  0  0  0  0  0  0  0  0  0  0
  182.3470  181.6230  138.4340 O   0  0  0  0  0  0  0  0  0  0  0  0
  180.7780  179.0150  139.0270 C   0  0  0  0  0  3  0  0  0  0  0  0
  181.7100  179.7000  139.6270 N   0  0  0  0  0  0  0  0  0  0  0  0
  180.5880  178.9680  137.5450 C   0  0  0  0  0  2  0  0  0  0  0  0
  180.3370  177.5410  137.0990 C   0  0  0  0  0  1  0  0  0  0  0  0
  1 11  1  0  0  0  0
  2 14  1  0  0  0  0
  4 14  2  0  0  0  0
  4 13  1  0  0  0  0
  5 10  1  0  0  0  0
  6 34  1  1  0  0  0
  6  8  1  0  0  0  0
  6  4  1  0  0  0  0
  7  3  1  0  0  0  0
  7 11  2  0  0  0  0
  8  5  2  0  0  0  0
  9  1  2  0  0  0  0
 10 13  2  0  0  0  0
 10  9  1  0  0  0  0
 12  3  2  0  0  0  0
 13  7  1  0  0  0  0
 14 12  1  0  0  0  0
 15 16  1  1  0  0  0
 15  8  1  0  0  0  0
 17 26  1  0  0  0  0
 18 26  2  0  0  0  0
 19 25  1  6  0  0  0
 19 20  1  0  0  0  0
 20 23  1  0  0  0  0
 20 15  1  6  0  0  0
 21 18  1  0  0  0  0
 22 21  1  0  0  0  0
 22 17  2  0  0  0  0
 24 17  1  0  0  0  0
 24 19  1  0  0  0  0
 26 23  1  0  0  0  0
 27 32  1  6  0  0  0
 27 28  1  0  0  0  0
 28 31  1  0  0  0  0
 29 27  1  0  0  0  0
 29 30  1  0  0  0  0
 30 33  2  0  0  0  0
 30 31  1  0  0  0  0
 33 22  1  0  0  0  0
 35 34  1  0  0  0  0
 36 35  1  6  0  0  0
 37 39  1  0  0  0  0
 38 37  2  0  0  0  0
 38 40  1  0  0  0  0
 39 42  2  0  0  0  0
 40 41  2  0  0  0  0
 41 42  1  0  0  0  0
 41 36  1  0  0  0  0
 43 37  1  0  0  0  0
 44 36  1  0  0  0  0
 45 44  1  0  0  0  0
 45 48  1  0  0  0  0
 46 45  2  0  0  0  0
 47 48  2  0  0  0  0
 49 47  1  0  0  0  0
 50 49  1  0  0  0  0
M  END
>  <MODEL>
7

>  <REMARK>
 VINA RESULT:      -5.7      2.963      6.777
  Name = 
  10 active torsions:
  status: ('A' for Active; 'I' for Inactive)
    1  A    between atoms: N_2  and  C_50
    2  A    between atoms: C_4  and  C_23
    3  A    between atoms: C_4  and  C_24
    4  A    between atoms: C_7  and  C_10
    5  A    between atoms: C_17  and  N_21
    6  A    between atoms: N_21  and  C_25
    7  A    between atoms: C_25  and  C_50
    8  A    between atoms: C_31  and  N_47
    9  A    between atoms: C_36  and  C_50
   10  A    between atoms: C_39  and  N_42
                            x       y       z     vdW  Elec       q    Type
                         _______ _______ _______ _____ _____    ______ ____

>  <TORSDO>
F 10

$$$$
=
 OpenBabel11062412523D

 50 56  0  0  1  0  0  0  0  0999 V2000
  187.7330  177.6040  144.3480 C   0  0  0  0  0  3  0  0  0  0  0  0
  189.7200  178.1980  138.1910 C   0  0  0  0  0  1  0  0  0  0  0  0
  190.3920  177.6210  141.8260 N   0  0  0  0  0  0  0  0  0  0  0  0
  188.1800  178.0880  140.2030 C   0  0  0  0  0  0  0  0  0  0  0  0
  185.6410  178.4620  141.3800 N   0  0  0  0  0  0  0  0  0  0  0  0
  186.9480  178.1510  139.3210 C   0  0  2  0  0  3  0  0  0  0  0  0
  189.1580  177.6820  142.3920 C   0  0  0  0  0  0  0  0  0  0  0  0
  185.7080  178.5790  140.0850 C   0  0  0  0  0  0  0  0  0  0  0  0
  186.6210  177.9110  143.5610 C   0  0  0  0  0  3  0  0  0  0  0  0
  186.7660  178.0820  142.1800 C   0  0  0  0  0  0  0  0  0  0  0  0
  189.0010  177.4940  143.7650 C   0  0  0  0  0  3  0  0  0  0  0  0
  190.5690  177.8000  140.4900 C   0  0  0  0  0  3  0  0  0  0  0  0
  188.0290  177.9410  141.5880 C   0  0  0  0  0  0  0  0  0  0  0  0
  189.4750  178.0320  139.6510 C   0  0  0  0  0  0  0  0  0  0  0  0
  184.4750  179.0030  139.3430 C   0  0  2  0  0  3  0  0  0  0  0  0
  184.8150  179.9140  138.3390 O   0  0  0  0  0  1  0  0  0  0  0  0
  181.0330  178.3270  139.2910 C   0  0  0  0  0  0  0  0  0  0  0  0
  180.5240  179.9060  137.8080 C   0  0  0  0  0  3  0  0  0  0  0  0
  182.7390  178.4830  141.1230 C   0  0  2  0  0  3  0  0  0  0  0  0
  183.4180  179.5940  140.2850 C   0  0  2  0  0  3  0  0  0  0  0  0
  179.7630  178.8560  137.5690 O   0  0  0  0  0  0  0  0  0  0  0  0
  180.0420  177.9020  138.4300 C   0  0  0  0  0  0  0  0  0  0  0  0
  182.3880  180.4510  139.5120 C   0  0  0  0  0  2  0  0  0  0  0  0
  181.8490  177.5500  140.2800 C   0  0  0  0  0  2  0  0  0  0  0  0
  181.9520  179.0750  142.2780 C   0  0  0  0  0  1  0  0  0  0  0  0
  181.3490  179.5910  138.8700 C   0  0  0  0  0  0  0  0  0  0  0  0
  180.6710  173.2750  137.7910 C   0  0  1  0  0  3  0  0  0  0  0  0
  181.4910  174.0700  136.8820 N   0  0  0  0  0  2  0  0  0  0  0  0
  179.0170  174.0150  137.8890 S   0  0  0  0  0  0  0  0  0  0  0  0
  179.8530  175.5660  137.7550 C   0  0  0  0  0  0  0  0  0  0  0  0
  181.2140  175.4740  137.1590 C   0  0  0  0  0  2  0  0  0  0  0  0
  180.5660  171.8550  137.2770 C   0  0  0  0  0  1  0  0  0  0  0  0
  179.4180  176.6100  138.3970 N   0  0  0  0  0  0  0  0  0  0  0  0
  186.7060  176.8300  138.7520 N   0  0  0  0  0  2  0  0  0  0  0  0
  186.6400  176.9720  137.3050 C   0  0  0  0  0  2  0  0  0  0  0  0
  187.0860  175.6790  136.6360 C   0  0  2  0  0  3  0  0  0  0  0  0
  191.1380  175.9550  135.2200 C   0  0  0  0  0  0  0  0  0  0  0  0
  190.8140  175.0120  136.1990 C   0  0  0  0  0  3  0  0  0  0  0  0
  190.1510  176.8020  134.7080 C   0  0  0  0  0  3  0  0  0  0  0  0
  189.5010  174.9170  136.6680 C   0  0  0  0  0  3  0  0  0  0  0  0
  188.5080  175.7680  136.1560 C   0  0  0  0  0  0  0  0  0  0  0  0
  188.8370  176.7070  135.1750 C   0  0  0  0  0  3  0  0  0  0  0  0
  192.4110  176.0500  134.7700 F   0  0  0  0  0  0  0  0  0  0  0  0
  186.1950  175.3670  135.5260 N   0  0  0  0  0  2  0  0  0  0  0  0
  185.1840  174.3590  135.6110 C   0  0  0  0  0  0  0  0  0  0  0  0
  184.4830  174.1150  134.5950 O   0  0  0  0  0  0  0  0  0  0  0  0
  184.7410  172.3960  137.0210 C   0  0  0  0  0  3  0  0  0  0  0  0
  184.9610  173.6690  136.8540 N   0  0  0  0  0  0  0  0  0  0  0  0
  184.7290  171.3910  135.9130 C   0  0  0  0  0  2  0  0  0  0  0  0
  183.4630  170.5620  135.9780 C   0  0  0  0  0  1  0  0  0  0  0  0
  2 14  1  0  0  0  0
  3  7  1  0  0  0  0
  4 13  1  0  0  0  0
  5 10  1  0  0  0  0
  6 34  1  1  0  0  0
  6  8  1  0  0  0  0
  6  4  1  0  0  0  0
  7 11  2  0  0  0  0
  8  5  2  0  0  0  0
  9  1  2  0  0  0  0
 10  9  1  0  0  0  0
 11  1  1  0  0  0  0
 12  3  2  0  0  0  0
 13 10  2  0  0  0  0
 13  7  1  0  0  0  0
 14  4  2  0  0  0  0
 14 12  1  0  0  0  0
 15 16  1  6  0  0  0
 15  8  1  0  0  0  0
 17 24  1  0  0  0  0
 18 26  2  0  0  0  0
 19 25  1  1  0  0  0
 20 15  1  6  0  0  0
 20 19  1  0  0  0  0
 21 18  1  0  0  0  0
 21 22  1  0  0  0  0
 22 17  2  0  0  0  0
 23 20  1  0  0  0  0
 24 19  1  0  0  0  0
 26 17  1  0  0  0  0
 26 23  1  0  0  0  0
 27 32  1  6  0  0  0
 27 29  1  0  0  0  0
 28 31  1  0  0  0  0
 28 27  1  0  0  0  0
 30 29  1  0  0  0  0
 30 33  2  0  0  0  0
 31 30  1  0  0  0  0
 33 22  1  0  0  0  0
 35 34  1  0  0  0  0
 36 35  1  6  0  0  0
 37 38  1  0  0  0  0
 38 40  2  0  0  0  0
 39 42  1  0  0  0  0
 39 37  2  0  0  0  0
 41 36  1  0  0  0  0
 41 40  1  0  0  0  0
 42 41  2  0  0  0  0
 43 37  1  0  0  0  0
 44 45  1  0  0  0  0
 44 36  1  0  0  0  0
 45 48  1  0  0  0  0
 46 45  2  0  0  0  0
 48 47  2  0  0  0  0
 49 50  1  0  0  0  0
 49 47  1  0  0  0  0
M  END
>  <MODEL>
8

>  <REMARK>
 VINA RESULT:      -5.6      3.724      9.029
  Name = 
  10 active torsions:
  status: ('A' for Active; 'I' for Inactive)
    1  A    between atoms: N_2  and  C_50
    2  A    between atoms: C_4  and  C_23
    3  A    between atoms: C_4  and  C_24
    4  A    between atoms: C_7  and  C_10
    5  A    between atoms: C_17  and  N_21
    6  A    between atoms: N_21  and  C_25
    7  A    between atoms: C_25  and  C_50
    8  A    between atoms: C_31  and  N_47
    9  A    between atoms: C_36  and  C_50
   10  A    between atoms: C_39  and  N_42
                            x       y       z     vdW  Elec       q    Type
                         _______ _______ _______ _____ _____    ______ ____

>  <TORSDO>
F 10

$$$$
=
 OpenBabel11062412523D

 50 56  0  0  1  0  0  0  0  0999 V2000
  188.9680  177.8590  134.8050 C   0  0  0  0  0  3  0  0  0  0  0  0
  189.8080  176.0750  140.9950 C   0  0  0  0  0  1  0  0  0  0  0  0
  190.9010  176.1660  137.4180 N   0  0  0  0  0  0  0  0  0  0  0  0
  188.7830  177.1420  138.9360 C   0  0  0  0  0  0  0  0  0  0  0  0
  186.6250  178.4350  137.6510 N   0  0  0  0  0  0  0  0  0  0  0  0
  187.7250  177.8420  139.7690 C   0  0  0  0  0  0  0  0  0  0  0  0
  189.9270  176.8890  136.8050 C   0  0  0  0  0  0  0  0  0  0  0  0
  186.5320  178.2830  138.9410 C   0  0  0  0  0  0  0  0  0  0  0  0
  187.8600  178.2940  135.5350 C   0  0  0  0  0  3  0  0  0  0  0  0
  187.7900  178.0500  136.9120 C   0  0  0  0  0  0  0  0  0  0  0  0
  189.9990  177.1540  135.4380 C   0  0  0  0  0  3  0  0  0  0  0  0
  190.8520  175.8970  138.7500 C   0  0  0  0  0  3  0  0  0  0  0  0
  188.8340  177.3710  137.5550 C   0  0  1  0  0  3  0  0  0  0  0  0
  189.8020  176.3780  139.5370 C   0  0  0  0  0  0  0  0  0  0  0  0
  185.2600  178.7010  139.6170 C   0  0  2  0  0  3  0  0  0  0  0  0
  185.5520  179.3670  140.8110 O   0  0  0  0  0  1  0  0  0  0  0  0
  181.7560  178.7180  139.4420 C   0  0  0  0  0  0  0  0  0  0  0  0
  181.4360  179.3510  141.5500 C   0  0  0  0  0  3  0  0  0  0  0  0
  183.5240  177.1520  138.5970 C   0  0  2  0  0  3  0  0  0  0  0  0
  184.3300  177.5060  139.8700 C   0  0  2  0  0  3  0  0  0  0  0  0
  180.5230  179.9370  140.8010 O   0  0  0  0  0  0  0  0  0  0  0  0
  180.6860  179.5840  139.5460 C   0  0  0  0  0  0  0  0  0  0  0  0
  183.4120  177.7520  141.0900 C   0  0  0  0  0  2  0  0  0  0  0  0
  182.4810  178.2230  138.2260 C   0  0  0  0  0  2  0  0  0  0  0  0
  182.8680  175.7890  138.7280 C   0  0  0  0  0  1  0  0  0  0  0  0
  182.2400  178.5980  140.7170 C   0  0  0  0  0  0  0  0  0  0  0  0
  180.4210  182.6580  135.9820 C   0  0  1  0  0  3  0  0  0  0  0  0
  181.1150  183.2180  137.1380 N   0  0  0  0  0  2  0  0  0  0  0  0
  178.9730  181.7300  136.5600 S   0  0  0  0  0  0  0  0  0  0  0  0
  179.9840  181.2780  137.9380 C   0  0  0  0  0  0  0  0  0  0  0  0
  181.1330  182.1940  138.1760 C   0  0  0  0  0  2  0  0  0  0  0  0
  179.9790  183.7740  135.0610 C   0  0  0  0  0  1  0  0  0  0  0  0
  179.8800  180.0980  138.4760 N   0  0  0  0  0  0  0  0  0  0  0  0
  188.3170  179.0210  140.3900 N   0  0  0  0  0  2  0  0  0  0  0  0
  187.6530  179.2340  141.6680 C   0  0  0  0  0  2  0  0  0  0  0  0
  188.3810  178.4670  142.7640 C   0  0  2  0  0  3  0  0  0  0  0  0
  185.8300  177.8790  146.1770 C   0  0  0  0  0  0  0  0  0  0  0  0
  187.2060  177.6610  146.3000 C   0  0  0  0  0  3  0  0  0  0  0  0
  185.2910  178.2810  144.9520 C   0  0  0  0  0  3  0  0  0  0  0  0
  188.0420  177.8470  145.1960 C   0  0  0  0  0  3  0  0  0  0  0  0
  187.5020  178.2510  143.9640 C   0  0  0  0  0  0  0  0  0  0  0  0
  186.1270  178.4690  143.8480 C   0  0  0  0  0  3  0  0  0  0  0  0
  185.0200  177.6940  147.2450 F   0  0  0  0  0  0  0  0  0  0  0  0
  189.5910  179.1860  143.1450 N   0  0  0  0  0  2  0  0  0  0  0  0
  190.7770  178.5170  143.5830 C   0  0  0  0  0  0  0  0  0  0  0  0
  191.7670  179.2070  143.9390 O   0  0  0  0  0  0  0  0  0  0  0  0
  191.1530  176.2990  144.5720 C   0  0  0  0  0  3  0  0  0  0  0  0
  190.8340  177.0790  143.5780 N   0  0  0  0  0  0  0  0  0  0  0  0
  191.4810  176.7810  145.9490 C   0  0  0  0  0  2  0  0  0  0  0  0
  192.0530  175.6460  146.7740 C   0  0  0  0  0  1  0  0  0  0  0  0
  1 11  2  0  0  0  0
  1  9  1  0  0  0  0
  3 12  1  0  0  0  0
  4 14  1  0  0  0  0
  4  6  2  0  0  0  0
  5  8  2  0  0  0  0
  6 34  1  0  0  0  0
  7  3  2  0  0  0  0
  8 15  1  0  0  0  0
  8  6  1  0  0  0  0
  9 10  2  0  0  0  0
 10 13  1  0  0  0  0
 10  5  1  0  0  0  0
 11  7  1  0  0  0  0
 12 14  2  0  0  0  0
 13  7  1  6  0  0  0
 13  4  1  0  0  0  0
 14  2  1  0  0  0  0
 15 16  1  1  0  0  0
 17 22  2  0  0  0  0
 17 26  1  0  0  0  0
 19 25  1  1  0  0  0
 19 20  1  0  0  0  0
 20 15  1  6  0  0  0
 20 23  1  0  0  0  0
 21 18  1  0  0  0  0
 22 21  1  0  0  0  0
 24 19  1  0  0  0  0
 24 17  1  0  0  0  0
 26 23  1  0  0  0  0
 26 18  2  0  0  0  0
 27 32  1  6  0  0  0
 27 29  1  0  0  0  0
 27 28  1  0  0  0  0
 28 31  1  0  0  0  0
 29 30  1  0  0  0  0
 30 31  1  0  0  0  0
 30 33  2  0  0  0  0
 33 22  1  0  0  0  0
 34 35  1  0  0  0  0
 36 35  1  6  0  0  0
 36 44  1  0  0  0  0
 36 41  1  0  0  0  0
 37 38  1  0  0  0  0
 37 43  1  0  0  0  0
 39 37  2  0  0  0  0
 40 38  2  0  0  0  0
 41 40  1  0  0  0  0
 42 41  2  0  0  0  0
 42 39  1  0  0  0  0
 44 45  1  0  0  0  0
 45 46  2  0  0  0  0
 47 49  1  0  0  0  0
 48 45  1  0  0  0  0
 48 47  2  0  0  0  0
 49 50  1  0  0  0  0
M  END
>  <MODEL>
9

>  <REMARK>
 VINA RESULT:      -5.4      3.623      7.886
  Name = 
  10 active torsions:
  status: ('A' for Active; 'I' for Inactive)
    1  A    between atoms: N_2  and  C_50
    2  A    between atoms: C_4  and  C_23
    3  A    between atoms: C_4  and  C_24
    4  A    between atoms: C_7  and  C_10
    5  A    between atoms: C_17  and  N_21
    6  A    between atoms: N_21  and  C_25
    7  A    between atoms: C_25  and  C_50
    8  A    between atoms: C_31  and  N_47
    9  A    between atoms: C_36  and  C_50
   10  A    between atoms: C_39  and  N_42
                            x       y       z     vdW  Elec       q    Type
                         _______ _______ _______ _____ _____    ______ ____

>  <TORSDO>
F 10

$$$$
