=
 OpenBabel11062415343D

 35 39  0  0  1  0  0  0  0  0999 V2000
  189.9060  177.7060  139.3890 C   0  0  0  0  0  1  0  0  0  0  0  0
  188.6630  178.2940  140.0340 C   0  0  1  0  0  3  0  0  0  0  0  0
  186.1020  178.5170  139.8160 C   0  0  0  0  0  0  0  0  0  0  0  0
  186.7350  177.8300  143.3360 C   0  0  0  0  0  0  0  0  0  0  0  0
  187.4240  178.2610  139.1060 C   0  0  2  0  0  3  0  0  0  0  0  0
  185.2780  178.2710  143.4190 C   0  0  0  0  0  2  0  0  0  0  0  0
  187.2530  178.4200  142.0360 C   0  0  1  0  0  3  0  0  0  0  0  0
  186.7970  176.4460  143.3230 F   0  0  0  0  0  0  0  0  0  0  0  0
  184.7980  178.4870  141.9890 C   0  0  0  0  0  2  0  0  0  0  0  0
  187.4500  178.3250  144.4110 F   0  0  0  0  0  0  0  0  0  0  0  0
  188.3810  177.6370  141.3780 C   0  0  0  0  0  2  0  0  0  0  0  0
  186.0430  178.5040  141.1710 C   0  0  0  0  0  0  0  0  0  0  0  0
  184.8800  178.6640  138.9380 C   0  0  2  0  0  3  0  0  0  0  0  0
  183.4030  176.9330  139.7690 O   0  0  0  0  0  0  0  0  0  0  0  0
  183.1730  177.6140  137.5340 C   0  0  0  0  0  2  0  0  0  0  0  0
  183.9120  179.7680  139.4030 C   0  0  0  0  0  2  0  0  0  0  0  0
  184.1580  177.3330  138.6450 C   0  0  1  0  0  3  0  0  0  0  0  0
  182.5860  179.7350  138.6140 C   0  0  0  0  0  2  0  0  0  0  0  0
  182.0970  178.2970  138.3150 C   0  0  2  0  0  3  0  0  0  0  0  0
  182.0900  177.4130  139.5570 C   0  0  2  0  0  3  0  0  0  0  0  0
  181.6300  178.1030  140.6860 O   0  0  0  0  0  0  0  0  0  0  0  0
  179.7500  176.1130  140.2170 O   0  0  0  0  0  1  0  0  0  0  0  0
  179.6240  177.6250  142.5170 O   0  0  0  0  0  1  0  0  0  0  0  0
  179.1090  178.6530  140.1720 O   0  0  0  0  0  0  0  0  0  0  0  0
  180.0050  177.6540  140.8700 P   0  0  0  0  0  0  0  0  0  0  0  0
  187.2400  176.9860  136.8700 C   0  0  0  0  0  0  0  0  0  0  0  0
  187.1860  177.6910  134.7220 C   0  0  0  0  0  3  0  0  0  0  0  0
  187.1190  175.7080  136.1220 C   0  0  2  0  0  3  0  0  0  0  0  0
  187.3650  177.0400  138.2970 N   0  0  0  0  0  2  0  0  0  0  0  0
  187.2860  178.0340  136.1270 N   0  0  0  0  0  0  0  0  0  0  0  0
  187.1370  176.1660  134.6690 C   0  0  0  0  0  3  0  0  0  0  0  0
  186.0390  173.8690  137.2730 O   0  0  0  0  0  1  0  0  0  0  0  0
  185.8160  174.9610  136.4260 C   0  0  2  0  0  3  0  0  0  0  0  0
  183.6410  174.6910  135.2400 C   0  0  0  0  0  1  0  0  0  0  0  0
  185.1410  174.5040  135.1410 C   0  0  0  0  0  2  0  0  0  0  0  0
  2  1  1  6  0  0  0
  2 11  1  0  0  0  0
  3 12  2  0  0  0  0
  4  6  1  0  0  0  0
  4 10  1  0  0  0  0
  5 29  1  1  0  0  0
  5  3  1  0  0  0  0
  5  2  1  0  0  0  0
  7 11  1  6  0  0  0
  7  4  1  0  0  0  0
  8  4  1  0  0  0  0
  9  6  1  0  0  0  0
 12  9  1  0  0  0  0
 12  7  1  0  0  0  0
 13 16  1  0  0  0  0
 13  3  1  1  0  0  0
 17 15  1  6  0  0  0
 17 13  1  0  0  0  0
 17 14  1  0  0  0  0
 18 16  1  0  0  0  0
 19 15  1  6  0  0  0
 19 18  1  0  0  0  0
 19 20  1  0  0  0  0
 20 14  1  0  0  0  0
 20 21  1  1  0  0  0
 21 25  1  0  0  0  0
 22 25  1  0  0  0  0
 24 25  2  0  0  0  0
 25 23  1  0  0  0  0
 26 29  1  0  0  0  0
 27 30  1  0  0  0  0
 28 33  1  1  0  0  0
 28 26  1  0  0  0  0
 30 26  2  0  0  0  0
 31 27  2  0  0  0  0
 31 28  1  0  0  0  0
 33 32  1  1  0  0  0
 35 34  1  0  0  0  0
 35 33  1  0  0  0  0
M  END
>  <MODEL>
1

>  <REMARK>
 VINA RESULT:      -6.5      0.000      0.000
  Name = 
  6 active torsions:
  status: ('A' for Active; 'I' for Inactive)
    1  A    between atoms: C_1  and  C_13
    2  A    between atoms: C_7  and  C_22
    3  A    between atoms: C_16  and  N_21
    4  A    between atoms: C_22  and  C_34
    5  A    between atoms: O_25  and  P_27
    6  A    between atoms: O_25  and  C_28
                            x       y       z     vdW  Elec       q    Type
                         _______ _______ _______ _____ _____    ______ ____

>  <TORSDO>
F 6

$$$$
=
 OpenBabel11062415343D

 35 39  0  0  1  0  0  0  0  0999 V2000
  192.7610  176.7510  141.2890 C   0  0  0  0  0  1  0  0  0  0  0  0
  191.4700  177.5080  141.0300 C   0  0  1  0  0  3  0  0  0  0  0  0
  189.5390  177.8330  139.3510 C   0  0  0  0  0  0  0  0  0  0  0  0
  187.9770  177.7170  142.6390 C   0  0  0  0  0  0  0  0  0  0  0  0
  190.9790  177.3880  139.5670 C   0  0  2  0  0  3  0  0  0  0  0  0
  186.8060  178.2470  141.8180 C   0  0  0  0  0  2  0  0  0  0  0  0
  189.2140  178.0500  141.8230 C   0  0  1  0  0  3  0  0  0  0  0  0
  187.8360  176.3500  142.8110 F   0  0  0  0  0  0  0  0  0  0  0  0
  187.2510  178.2450  140.3600 C   0  0  0  0  0  2  0  0  0  0  0  0
  188.0260  178.3470  143.8690 F   0  0  0  0  0  0  0  0  0  0  0  0
  190.3900  177.1050  142.0250 C   0  0  0  0  0  2  0  0  0  0  0  0
  188.7270  178.0540  140.4150 C   0  0  0  0  0  0  0  0  0  0  0  0
  189.0590  177.8980  137.9190 C   0  0  2  0  0  3  0  0  0  0  0  0
  187.2900  176.2420  137.8650 O   0  0  0  0  0  0  0  0  0  0  0  0
  188.4290  176.7220  135.8680 C   0  0  0  0  0  2  0  0  0  0  0  0
  188.0550  179.0350  137.6520 C   0  0  0  0  0  2  0  0  0  0  0  0
  188.5750  176.5440  137.3610 C   0  0  1  0  0  3  0  0  0  0  0  0
  187.4290  178.9290  136.2460 C   0  0  0  0  0  2  0  0  0  0  0  0
  187.1340  177.4680  135.8260 C   0  0  2  0  0  3  0  0  0  0  0  0
  186.3680  176.6980  136.8950 C   0  0  2  0  0  3  0  0  0  0  0  0
  185.3740  177.4830  137.4930 O   0  0  0  0  0  0  0  0  0  0  0  0
  183.3900  176.9520  135.6230 O   0  0  0  0  0  0  0  0  0  0  0  0
  184.1510  175.0120  137.4260 O   0  0  0  0  0  1  0  0  0  0  0  0
  182.8560  177.1500  138.1810 O   0  0  0  0  0  1  0  0  0  0  0  0
  183.9120  176.6710  137.2100 P   0  0  0  0  0  0  0  0  0  0  0  0
  192.1660  175.7250  137.9910 C   0  0  0  0  0  0  0  0  0  0  0  0
  193.8970  175.9680  136.5570 C   0  0  0  0  0  3  0  0  0  0  0  0
  192.3000  174.3580  137.4250 C   0  0  2  0  0  3  0  0  0  0  0  0
  191.2100  176.0530  139.0080 N   0  0  0  0  0  2  0  0  0  0  0  0
  193.0190  176.5740  137.5380 N   0  0  0  0  0  0  0  0  0  0  0  0
  193.4990  174.4950  136.4960 C   0  0  0  0  0  3  0  0  0  0  0  0
  190.0480  173.4640  137.4820 O   0  0  0  0  0  1  0  0  0  0  0  0
  191.0640  173.9180  136.6330 C   0  0  2  0  0  3  0  0  0  0  0  0
  190.1770  172.3280  134.9310 C   0  0  0  0  0  1  0  0  0  0  0  0
  191.4250  172.8430  135.6190 C   0  0  0  0  0  2  0  0  0  0  0  0
  2  1  1  6  0  0  0
  2 11  1  0  0  0  0
  3  5  1  0  0  0  0
  3 12  2  0  0  0  0
  4  8  1  0  0  0  0
  4 10  1  0  0  0  0
  5 29  1  1  0  0  0
  5  2  1  0  0  0  0
  6  4  1  0  0  0  0
  7 11  1  6  0  0  0
  7  4  1  0  0  0  0
  9 12  1  0  0  0  0
  9  6  1  0  0  0  0
 12  7  1  0  0  0  0
 13  3  1  1  0  0  0
 16 13  1  0  0  0  0
 17 15  1  6  0  0  0
 17 14  1  0  0  0  0
 17 13  1  0  0  0  0
 18 16  1  0  0  0  0
 19 15  1  1  0  0  0
 19 18  1  0  0  0  0
 19 20  1  0  0  0  0
 20 21  1  1  0  0  0
 20 14  1  0  0  0  0
 22 25  2  0  0  0  0
 25 23  1  0  0  0  0
 25 21  1  0  0  0  0
 25 24  1  0  0  0  0
 26 29  1  0  0  0  0
 27 30  1  0  0  0  0
 28 33  1  6  0  0  0
 28 26  1  0  0  0  0
 30 26  2  0  0  0  0
 31 27  2  0  0  0  0
 31 28  1  0  0  0  0
 33 32  1  1  0  0  0
 34 35  1  0  0  0  0
 35 33  1  0  0  0  0
M  END
>  <MODEL>
2

>  <REMARK>
 VINA RESULT:      -5.9      3.129      4.751
  Name = 
  6 active torsions:
  status: ('A' for Active; 'I' for Inactive)
    1  A    between atoms: C_1  and  C_13
    2  A    between atoms: C_7  and  C_22
    3  A    between atoms: C_16  and  N_21
    4  A    between atoms: C_22  and  C_34
    5  A    between atoms: O_25  and  P_27
    6  A    between atoms: O_25  and  C_28
                            x       y       z     vdW  Elec       q    Type
                         _______ _______ _______ _____ _____    ______ ____

>  <TORSDO>
F 6

$$$$
=
 OpenBabel11062415343D

 35 39  0  0  1  0  0  0  0  0999 V2000
  182.5350  178.3780  141.1920 C   0  0  0  0  0  1  0  0  0  0  0  0
  183.2220  178.3750  139.8370 C   0  0  1  0  0  3  0  0  0  0  0  0
  185.5110  178.2530  138.6550 C   0  0  0  0  0  0  0  0  0  0  0  0
  183.2950  176.0860  136.7410 C   0  0  0  0  0  0  0  0  0  0  0  0
  184.7520  178.5870  139.9310 C   0  0  2  0  0  3  0  0  0  0  0  0
  184.4610  176.1890  135.7630 C   0  0  0  0  0  2  0  0  0  0  0  0
  183.4290  177.3000  137.6440 C   0  0  1  0  0  3  0  0  0  0  0  0
  183.4020  174.9060  137.4600 F   0  0  0  0  0  0  0  0  0  0  0  0
  185.5600  176.9780  136.4640 C   0  0  0  0  0  2  0  0  0  0  0  0
  182.0920  176.1190  136.0610 F   0  0  0  0  0  0  0  0  0  0  0  0
  182.8700  177.1210  139.0480 C   0  0  0  0  0  2  0  0  0  0  0  0
  184.8910  177.5870  137.6480 C   0  0  0  0  0  0  0  0  0  0  0  0
  186.9820  178.5980  138.6320 C   0  0  2  0  0  3  0  0  0  0  0  0
  188.0490  176.4240  138.5810 O   0  0  0  0  0  0  0  0  0  0  0  0
  189.2330  178.2240  139.5140 C   0  0  0  0  0  2  0  0  0  0  0  0
  187.5180  178.9370  137.2280 C   0  0  0  0  0  2  0  0  0  0  0  0
  187.8740  177.5810  139.3720 C   0  0  1  0  0  3  0  0  0  0  0  0
  189.0560  179.0670  137.2190 C   0  0  0  0  0  2  0  0  0  0  0  0
  189.7550  178.0260  138.1270 C   0  0  2  0  0  3  0  0  0  0  0  0
  189.2600  176.6060  137.8750 C   0  0  2  0  0  3  0  0  0  0  0  0
  189.0760  176.3530  136.5100 O   0  0  0  0  0  0  0  0  0  0  0  0
  190.1920  174.0520  137.5940 O   0  0  0  0  0  1  0  0  0  0  0  0
  187.7410  173.9460  136.3390 O   0  0  0  0  0  1  0  0  0  0  0  0
  189.9460  174.3770  135.0060 O   0  0  0  0  0  0  0  0  0  0  0  0
  189.2650  174.6780  136.3220 P   0  0  0  0  0  0  0  0  0  0  0  0
  185.3750  178.4160  142.4300 C   0  0  0  0  0  0  0  0  0  0  0  0
  184.9300  179.7540  144.1980 C   0  0  0  0  0  3  0  0  0  0  0  0
  186.0470  177.6990  143.5440 C   0  0  2  0  0  3  0  0  0  0  0  0
  185.3390  177.9070  141.0900 N   0  0  0  0  0  2  0  0  0  0  0  0
  184.7750  179.4990  142.7790 N   0  0  0  0  0  0  0  0  0  0  0  0
  185.7080  178.5630  144.7520 C   0  0  0  0  0  3  0  0  0  0  0  0
  187.9470  176.3680  142.8440 O   0  0  0  0  0  1  0  0  0  0  0  0
  187.5660  177.6110  143.3640 C   0  0  2  0  0  3  0  0  0  0  0  0
  189.7350  177.4540  144.5810 C   0  0  0  0  0  1  0  0  0  0  0  0
  188.2830  177.8750  144.6800 C   0  0  0  0  0  2  0  0  0  0  0  0
  2  5  1  0  0  0  0
  2  1  1  1  0  0  0
  3  5  1  0  0  0  0
  4  8  1  0  0  0  0
  4  7  1  0  0  0  0
  5 29  1  1  0  0  0
  6  9  1  0  0  0  0
  6  4  1  0  0  0  0
  7 12  1  0  0  0  0
  7 11  1  1  0  0  0
  9 12  1  0  0  0  0
 10  4  1  0  0  0  0
 11  2  1  0  0  0  0
 12  3  2  0  0  0  0
 13  3  1  6  0  0  0
 13 17  1  0  0  0  0
 14 17  1  0  0  0  0
 16 13  1  0  0  0  0
 17 15  1  6  0  0  0
 18 16  1  0  0  0  0
 19 18  1  6  0  0  0
 19 15  1  0  0  0  0
 20 21  1  6  0  0  0
 20 19  1  0  0  0  0
 20 14  1  0  0  0  0
 24 25  2  0  0  0  0
 25 23  1  0  0  0  0
 25 21  1  0  0  0  0
 25 22  1  0  0  0  0
 26 30  2  0  0  0  0
 26 28  1  0  0  0  0
 27 31  2  0  0  0  0
 28 33  1  6  0  0  0
 28 31  1  0  0  0  0
 29 26  1  0  0  0  0
 30 27  1  0  0  0  0
 33 32  1  1  0  0  0
 33 35  1  0  0  0  0
 34 35  1  0  0  0  0
M  END
>  <MODEL>
3

>  <REMARK>
 VINA RESULT:      -5.6      4.285      7.663
  Name = 
  6 active torsions:
  status: ('A' for Active; 'I' for Inactive)
    1  A    between atoms: C_1  and  C_13
    2  A    between atoms: C_7  and  C_22
    3  A    between atoms: C_16  and  N_21
    4  A    between atoms: C_22  and  C_34
    5  A    between atoms: O_25  and  P_27
    6  A    between atoms: O_25  and  C_28
                            x       y       z     vdW  Elec       q    Type
                         _______ _______ _______ _____ _____    ______ ____

>  <TORSDO>
F 6

$$$$
=
 OpenBabel11062415343D

 35 39  0  0  1  0  0  0  0  0999 V2000
  180.8840  175.6800  136.9090 C   0  0  0  0  0  1  0  0  0  0  0  0
  182.2420  175.3240  136.3290 C   0  0  1  0  0  3  0  0  0  0  0  0
  184.7280  176.0090  136.2530 C   0  0  0  0  0  0  0  0  0  0  0  0
  184.7150  172.3820  136.5960 C   0  0  0  0  0  0  0  0  0  0  0  0
  183.2920  176.4470  136.5040 C   0  0  2  0  0  3  0  0  0  0  0  0
  186.1780  172.5990  136.2220 C   0  0  0  0  0  2  0  0  0  0  0  0
  183.9920  173.6220  136.0970 C   0  0  1  0  0  3  0  0  0  0  0  0
  184.6070  172.2520  137.9710 F   0  0  0  0  0  0  0  0  0  0  0  0
  186.4000  174.1060  136.1560 C   0  0  0  0  0  2  0  0  0  0  0  0
  184.2220  171.2510  135.9730 F   0  0  0  0  0  0  0  0  0  0  0  0
  182.7390  173.9930  136.8780 C   0  0  0  0  0  2  0  0  0  0  0  0
  185.0290  174.6900  136.1490 C   0  0  0  0  0  0  0  0  0  0  0  0
  185.7770  177.0980  136.2440 C   0  0  2  0  0  3  0  0  0  0  0  0
  187.3830  176.3180  137.8820 O   0  0  0  0  0  0  0  0  0  0  0  0
  187.2140  178.6280  137.4990 C   0  0  0  0  0  2  0  0  0  0  0  0
  186.8070  176.9570  135.1080 C   0  0  0  0  0  2  0  0  0  0  0  0
  186.4410  177.3360  137.6150 C   0  0  1  0  0  3  0  0  0  0  0  0
  187.9750  177.9530  135.2680 C   0  0  0  0  0  2  0  0  0  0  0  0
  188.4090  178.1430  136.7420 C   0  0  2  0  0  3  0  0  0  0  0  0
  188.6360  176.8160  137.4580 C   0  0  2  0  0  3  0  0  0  0  0  0
  189.2840  175.8850  136.6380 O   0  0  0  0  0  0  0  0  0  0  0  0
  192.0580  175.8960  136.7760 O   0  0  0  0  0  0  0  0  0  0  0  0
  190.5550  175.9890  139.0840 O   0  0  0  0  0  1  0  0  0  0  0  0
  190.6460  173.8460  137.5930 O   0  0  0  0  0  1  0  0  0  0  0  0
  190.6350  175.3570  137.5180 P   0  0  0  0  0  0  0  0  0  0  0  0
  182.4790  178.3730  138.0180 C   0  0  0  0  0  0  0  0  0  0  0  0
  181.1620  180.1650  137.6150 C   0  0  0  0  0  3  0  0  0  0  0  0
  182.4480  179.0440  139.3430 C   0  0  2  0  0  3  0  0  0  0  0  0
  183.1650  177.1340  137.7930 N   0  0  0  0  0  2  0  0  0  0  0  0
  181.7890  178.9620  137.1070 N   0  0  0  0  0  0  0  0  0  0  0  0
  181.5180  180.2260  139.0990 C   0  0  0  0  0  3  0  0  0  0  0  0
  184.5560  180.0650  138.7190 O   0  0  0  0  0  1  0  0  0  0  0  0
  183.8270  179.5390  139.7920 C   0  0  2  0  0  3  0  0  0  0  0  0
  185.6890  179.0010  141.3590 C   0  0  0  0  0  1  0  0  0  0  0  0
  184.6100  178.4220  140.4660 C   0  0  0  0  0  2  0  0  0  0  0  0
  2  5  1  0  0  0  0
  2 11  1  0  0  0  0
  2  1  1  1  0  0  0
  3  5  1  0  0  0  0
  4  8  1  0  0  0  0
  5 29  1  1  0  0  0
  6  4  1  0  0  0  0
  7 12  1  0  0  0  0
  7  4  1  0  0  0  0
  7 11  1  1  0  0  0
  9  6  1  0  0  0  0
 10  4  1  0  0  0  0
 12  9  1  0  0  0  0
 12  3  2  0  0  0  0
 13  3  1  1  0  0  0
 13 17  1  0  0  0  0
 16 18  1  0  0  0  0
 16 13  1  0  0  0  0
 17 15  1  6  0  0  0
 17 14  1  0  0  0  0
 19 18  1  6  0  0  0
 19 20  1  0  0  0  0
 19 15  1  0  0  0  0
 20 21  1  6  0  0  0
 20 14  1  0  0  0  0
 21 25  1  0  0  0  0
 22 25  2  0  0  0  0
 25 24  1  0  0  0  0
 25 23  1  0  0  0  0
 26 28  1  0  0  0  0
 27 31  2  0  0  0  0
 28 33  1  6  0  0  0
 29 26  1  0  0  0  0
 30 27  1  0  0  0  0
 30 26  2  0  0  0  0
 31 28  1  0  0  0  0
 33 32  1  6  0  0  0
 33 35  1  0  0  0  0
 35 34  1  0  0  0  0
M  END
>  <MODEL>
4

>  <REMARK>
 VINA RESULT:      -5.5      3.889      7.734
  Name = 
  6 active torsions:
  status: ('A' for Active; 'I' for Inactive)
    1  A    between atoms: C_1  and  C_13
    2  A    between atoms: C_7  and  C_22
    3  A    between atoms: C_16  and  N_21
    4  A    between atoms: C_22  and  C_34
    5  A    between atoms: O_25  and  P_27
    6  A    between atoms: O_25  and  C_28
                            x       y       z     vdW  Elec       q    Type
                         _______ _______ _______ _____ _____    ______ ____

>  <TORSDO>
F 6

$$$$
=
 OpenBabel11062415343D

 35 39  0  0  1  0  0  0  0  0999 V2000
  182.9370  172.5290  136.7000 C   0  0  0  0  0  1  0  0  0  0  0  0
  184.2690  172.9420  136.0970 C   0  0  1  0  0  3  0  0  0  0  0  0
  186.0310  174.8240  136.0110 C   0  0  0  0  0  0  0  0  0  0  0  0
  187.9180  171.7180  136.2670 C   0  0  0  0  0  0  0  0  0  0  0  0
  184.5830  174.4450  136.2880 C   0  0  2  0  0  3  0  0  0  0  0  0
  189.0440  172.6710  135.8830 C   0  0  0  0  0  2  0  0  0  0  0  0
  186.6440  172.4050  135.8060 C   0  0  1  0  0  3  0  0  0  0  0  0
  187.9230  171.5300  137.6400 F   0  0  0  0  0  0  0  0  0  0  0  0
  188.4470  174.0730  135.8510 C   0  0  0  0  0  2  0  0  0  0  0  0
  188.0730  170.5050  135.6230 F   0  0  0  0  0  0  0  0  0  0  0  0
  185.3990  172.0570  136.6090 C   0  0  0  0  0  2  0  0  0  0  0  0
  186.9730  173.8570  135.8730 C   0  0  0  0  0  0  0  0  0  0  0  0
  186.3580  176.2990  136.0180 C   0  0  2  0  0  3  0  0  0  0  0  0
  187.9060  176.5040  137.8700 O   0  0  0  0  0  0  0  0  0  0  0  0
  186.6220  178.3790  137.2790 C   0  0  0  0  0  2  0  0  0  0  0  0
  187.4520  176.6970  135.0080 C   0  0  0  0  0  2  0  0  0  0  0  0
  186.6190  176.8750  137.4240 C   0  0  1  0  0  3  0  0  0  0  0  0
  187.9050  178.1590  135.2020 C   0  0  0  0  0  2  0  0  0  0  0  0
  187.9820  178.5750  136.6910 C   0  0  2  0  0  3  0  0  0  0  0  0
  188.7660  177.5760  137.5360 C   0  0  2  0  0  3  0  0  0  0  0  0
  189.9020  177.1060  136.8670 O   0  0  0  0  0  0  0  0  0  0  0  0
  192.5580  176.7520  137.5970 O   0  0  0  0  0  0  0  0  0  0  0  0
  190.6760  177.4180  139.4960 O   0  0  0  0  0  1  0  0  0  0  0  0
  190.6890  175.0750  138.3430 O   0  0  0  0  0  1  0  0  0  0  0  0
  190.9480  176.5400  138.0770 P   0  0  0  0  0  0  0  0  0  0  0  0
  182.8950  175.5920  137.8670 C   0  0  0  0  0  0  0  0  0  0  0  0
  180.7880  176.3470  137.5440 C   0  0  0  0  0  3  0  0  0  0  0  0
  182.5450  176.1330  139.2060 C   0  0  2  0  0  3  0  0  0  0  0  0
  184.1450  174.9450  137.5940 N   0  0  0  0  0  2  0  0  0  0  0  0
  181.9590  175.6970  136.9910 N   0  0  0  0  0  0  0  0  0  0  0  0
  181.1060  176.5960  139.0160 C   0  0  0  0  0  3  0  0  0  0  0  0
  183.2380  177.6480  140.9660 O   0  0  0  0  0  1  0  0  0  0  0  0
  183.4310  177.3130  139.6210 C   0  0  2  0  0  3  0  0  0  0  0  0
  183.8500  179.7490  139.3090 C   0  0  0  0  0  1  0  0  0  0  0  0
  183.1750  178.5210  138.7330 C   0  0  0  0  0  2  0  0  0  0  0  0
  2  5  1  0  0  0  0
  2 11  1  0  0  0  0
  2  1  1  1  0  0  0
  3  5  1  0  0  0  0
  4  8  1  0  0  0  0
  5 29  1  1  0  0  0
  6  4  1  0  0  0  0
  7 12  1  0  0  0  0
  7  4  1  0  0  0  0
  7 11  1  1  0  0  0
  9 12  1  0  0  0  0
  9  6  1  0  0  0  0
 10  4  1  0  0  0  0
 12  3  2  0  0  0  0
 13  3  1  1  0  0  0
 13 17  1  0  0  0  0
 16 18  1  0  0  0  0
 16 13  1  0  0  0  0
 17 15  1  6  0  0  0
 17 14  1  0  0  0  0
 19 18  1  6  0  0  0
 19 15  1  0  0  0  0
 19 20  1  0  0  0  0
 20 21  1  6  0  0  0
 20 14  1  0  0  0  0
 21 25  1  0  0  0  0
 22 25  2  0  0  0  0
 25 24  1  0  0  0  0
 25 23  1  0  0  0  0
 26 28  1  0  0  0  0
 27 31  2  0  0  0  0
 28 33  1  6  0  0  0
 29 26  1  0  0  0  0
 30 27  1  0  0  0  0
 30 26  2  0  0  0  0
 31 28  1  0  0  0  0
 33 32  1  1  0  0  0
 35 34  1  0  0  0  0
 35 33  1  0  0  0  0
M  END
>  <MODEL>
5

>  <REMARK>
 VINA RESULT:      -5.2      4.057      7.724
  Name = 
  6 active torsions:
  status: ('A' for Active; 'I' for Inactive)
    1  A    between atoms: C_1  and  C_13
    2  A    between atoms: C_7  and  C_22
    3  A    between atoms: C_16  and  N_21
    4  A    between atoms: C_22  and  C_34
    5  A    between atoms: O_25  and  P_27
    6  A    between atoms: O_25  and  C_28
                            x       y       z     vdW  Elec       q    Type
                         _______ _______ _______ _____ _____    ______ ____

>  <TORSDO>
F 6

$$$$
=
 OpenBabel11062415343D

 35 39  0  0  1  0  0  0  0  0999 V2000
  189.4830  178.1010  139.1610 C   0  0  0  0  0  1  0  0  0  0  0  0
  188.0080  178.4660  139.1470 C   0  0  1  0  0  3  0  0  0  0  0  0
  185.6920  177.7760  138.2450 C   0  0  0  0  0  0  0  0  0  0  0  0
  185.1580  178.6980  141.7280 C   0  0  0  0  0  0  0  0  0  0  0  0
  187.2030  177.7010  138.0700 C   0  0  2  0  0  3  0  0  0  0  0  0
  183.7110  178.6570  141.2490 C   0  0  0  0  0  2  0  0  0  0  0  0
  185.9860  178.8870  140.4680 C   0  0  1  0  0  3  0  0  0  0  0  0
  185.4660  177.5060  142.3620 F   0  0  0  0  0  0  0  0  0  0  0  0
  183.7340  178.1580  139.8090 C   0  0  0  0  0  2  0  0  0  0  0  0
  185.3490  179.7580  142.5950 F   0  0  0  0  0  0  0  0  0  0  0  0
  187.3930  178.3100  140.5320 C   0  0  0  0  0  2  0  0  0  0  0  0
  185.1630  178.2560  139.3980 C   0  0  0  0  0  0  0  0  0  0  0  0
  184.8520  177.1920  137.1320 C   0  0  2  0  0  3  0  0  0  0  0  0
  183.8200  175.2690  138.1850 O   0  0  0  0  0  0  0  0  0  0  0  0
  184.1390  175.2290  135.8580 C   0  0  0  0  0  2  0  0  0  0  0  0
  183.4850  177.8800  136.9610 C   0  0  0  0  0  2  0  0  0  0  0  0
  184.7340  175.6550  137.1800 C   0  0  1  0  0  3  0  0  0  0  0  0
  182.5800  177.1180  135.9710 C   0  0  0  0  0  2  0  0  0  0  0  0
  182.7060  175.5800  136.1000 C   0  0  2  0  0  3  0  0  0  0  0  0
  182.5720  175.1030  137.5420 C   0  0  2  0  0  3  0  0  0  0  0  0
  181.5690  175.7960  138.2290 O   0  0  0  0  0  0  0  0  0  0  0  0
  179.0440  175.2750  137.1950 O   0  0  0  0  0  0  0  0  0  0  0  0
  180.7360  173.1970  137.8370 O   0  0  0  0  0  1  0  0  0  0  0  0
  179.6610  174.7060  139.6770 O   0  0  0  0  0  1  0  0  0  0  0  0
  180.2350  174.7500  138.2790 P   0  0  0  0  0  0  0  0  0  0  0  0
  188.3840  175.7870  136.8050 C   0  0  0  0  0  0  0  0  0  0  0  0
  189.5810  175.7500  134.8870 C   0  0  0  0  0  3  0  0  0  0  0  0
  188.7480  174.3510  136.6890 C   0  0  2  0  0  3  0  0  0  0  0  0
  187.6500  176.3140  137.9180 N   0  0  0  0  0  2  0  0  0  0  0  0
  188.8350  176.5280  135.8550 N   0  0  0  0  0  0  0  0  0  0  0  0
  189.6020  174.3220  135.4280 C   0  0  0  0  0  3  0  0  0  0  0  0
  187.4760  172.4670  137.5290 O   0  0  0  0  0  1  0  0  0  0  0  0
  187.5270  173.4400  136.5240 C   0  0  2  0  0  3  0  0  0  0  0  0
  186.1870  172.1200  134.8880 C   0  0  0  0  0  1  0  0  0  0  0  0
  187.5250  172.7820  135.1520 C   0  0  0  0  0  2  0  0  0  0  0  0
  2  1  1  1  0  0  0
  2 11  1  0  0  0  0
  3 12  2  0  0  0  0
  4  8  1  0  0  0  0
  4 10  1  0  0  0  0
  5 29  1  1  0  0  0
  5  3  1  0  0  0  0
  5  2  1  0  0  0  0
  6  4  1  0  0  0  0
  7 11  1  1  0  0  0
  7  4  1  0  0  0  0
  9  6  1  0  0  0  0
 12  9  1  0  0  0  0
 12  7  1  0  0  0  0
 13 17  1  0  0  0  0
 13  3  1  1  0  0  0
 16 13  1  0  0  0  0
 17 15  1  6  0  0  0
 17 14  1  0  0  0  0
 18 19  1  0  0  0  0
 18 16  1  0  0  0  0
 19 15  1  1  0  0  0
 19 20  1  0  0  0  0
 20 14  1  0  0  0  0
 20 21  1  1  0  0  0
 21 25  1  0  0  0  0
 22 25  2  0  0  0  0
 23 25  1  0  0  0  0
 25 24  1  0  0  0  0
 26 29  1  0  0  0  0
 27 31  2  0  0  0  0
 27 30  1  0  0  0  0
 28 33  1  6  0  0  0
 28 26  1  0  0  0  0
 30 26  2  0  0  0  0
 31 28  1  0  0  0  0
 33 32  1  1  0  0  0
 34 35  1  0  0  0  0
 35 33  1  0  0  0  0
M  END
>  <MODEL>
6

>  <REMARK>
 VINA RESULT:      -4.9      2.075      2.831
  Name = 
  6 active torsions:
  status: ('A' for Active; 'I' for Inactive)
    1  A    between atoms: C_1  and  C_13
    2  A    between atoms: C_7  and  C_22
    3  A    between atoms: C_16  and  N_21
    4  A    between atoms: C_22  and  C_34
    5  A    between atoms: O_25  and  P_27
    6  A    between atoms: O_25  and  C_28
                            x       y       z     vdW  Elec       q    Type
                         _______ _______ _______ _____ _____    ______ ____

>  <TORSDO>
F 6

$$$$
=
 OpenBabel11062415343D

 35 39  0  0  1  0  0  0  0  0999 V2000
  185.1810  178.4790  143.6290 C   0  0  0  0  0  1  0  0  0  0  0  0
  185.1530  178.7700  142.1380 C   0  0  1  0  0  3  0  0  0  0  0  0
  186.4890  178.5580  139.9410 C   0  0  0  0  0  0  0  0  0  0  0  0
  183.0650  177.6380  139.1050 C   0  0  0  0  0  0  0  0  0  0  0  0
  186.5360  178.6140  141.4620 C   0  0  2  0  0  3  0  0  0  0  0  0
  183.6360  177.8040  137.7010 C   0  0  0  0  0  2  0  0  0  0  0  0
  183.9890  178.4400  140.0050 C   0  0  1  0  0  3  0  0  0  0  0  0
  183.0670  176.2950  139.4460 F   0  0  0  0  0  0  0  0  0  0  0  0
  185.1270  178.0770  137.8580 C   0  0  0  0  0  2  0  0  0  0  0  0
  181.7780  178.1390  139.1640 F   0  0  0  0  0  0  0  0  0  0  0  0
  184.0840  177.9390  141.4390 C   0  0  0  0  0  2  0  0  0  0  0  0
  185.3030  178.3970  139.3030 C   0  0  0  0  0  0  0  0  0  0  0  0
  187.8180  178.5760  139.2210 C   0  0  2  0  0  3  0  0  0  0  0  0
  188.0780  176.2760  138.5060 O   0  0  0  0  0  0  0  0  0  0  0  0
  190.0130  177.5600  138.8550 C   0  0  0  0  0  2  0  0  0  0  0  0
  187.7260  179.0610  137.7620 C   0  0  0  0  0  2  0  0  0  0  0  0
  188.6190  177.2650  139.3560 C   0  0  1  0  0  3  0  0  0  0  0  0
  189.0560  178.8560  137.0060 C   0  0  0  0  0  2  0  0  0  0  0  0
  189.7650  177.5310  137.3810 C   0  0  2  0  0  3  0  0  0  0  0  0
  188.8300  176.3290  137.3090 C   0  0  2  0  0  3  0  0  0  0  0  0
  187.9810  176.3940  136.1980 O   0  0  0  0  0  0  0  0  0  0  0  0
  188.4950  173.6740  136.4260 O   0  0  0  0  0  1  0  0  0  0  0  0
  186.0040  174.6710  137.0540 O   0  0  0  0  0  1  0  0  0  0  0  0
  186.8800  174.6220  134.5940 O   0  0  0  0  0  0  0  0  0  0  0  0
  187.3320  174.8360  136.0210 P   0  0  0  0  0  0  0  0  0  0  0  0
  188.0860  177.5180  143.2100 C   0  0  0  0  0  0  0  0  0  0  0  0
  188.9350  178.2680  145.1670 C   0  0  0  0  0  3  0  0  0  0  0  0
  188.8910  176.3570  143.6700 C   0  0  2  0  0  3  0  0  0  0  0  0
  187.3020  177.4910  142.0100 N   0  0  0  0  0  2  0  0  0  0  0  0
  188.1020  178.5250  144.0080 N   0  0  0  0  0  0  0  0  0  0  0  0
  189.4250  176.8300  145.0160 C   0  0  0  0  0  3  0  0  0  0  0  0
  190.9150  175.0780  143.2900 O   0  0  0  0  0  1  0  0  0  0  0  0
  190.0520  176.0250  142.7260 C   0  0  2  0  0  3  0  0  0  0  0  0
  192.2270  176.9300  141.9140 C   0  0  0  0  0  1  0  0  0  0  0  0
  190.8200  177.2830  142.3510 C   0  0  0  0  0  2  0  0  0  0  0  0
  2  1  1  1  0  0  0
  3  5  1  0  0  0  0
  4 10  1  0  0  0  0
  4  8  1  0  0  0  0
  4  7  1  0  0  0  0
  5 29  1  1  0  0  0
  5  2  1  0  0  0  0
  6  9  1  0  0  0  0
  6  4  1  0  0  0  0
  7 11  1  1  0  0  0
  9 12  1  0  0  0  0
 11  2  1  0  0  0  0
 12  3  2  0  0  0  0
 12  7  1  0  0  0  0
 13 17  1  0  0  0  0
 13  3  1  6  0  0  0
 14 17  1  0  0  0  0
 16 13  1  0  0  0  0
 17 15  1  6  0  0  0
 18 16  1  0  0  0  0
 19 18  1  1  0  0  0
 19 15  1  0  0  0  0
 20 21  1  6  0  0  0
 20 19  1  0  0  0  0
 20 14  1  0  0  0  0
 24 25  2  0  0  0  0
 25 21  1  0  0  0  0
 25 22  1  0  0  0  0
 25 23  1  0  0  0  0
 26 28  1  0  0  0  0
 26 30  2  0  0  0  0
 28 33  1  6  0  0  0
 28 31  1  0  0  0  0
 29 26  1  0  0  0  0
 30 27  1  0  0  0  0
 31 27  2  0  0  0  0
 33 32  1  1  0  0  0
 34 35  1  0  0  0  0
 35 33  1  0  0  0  0
M  END
>  <MODEL>
7

>  <REMARK>
 VINA RESULT:      -4.9      4.053      7.016
  Name = 
  6 active torsions:
  status: ('A' for Active; 'I' for Inactive)
    1  A    between atoms: C_1  and  C_13
    2  A    between atoms: C_7  and  C_22
    3  A    between atoms: C_16  and  N_21
    4  A    between atoms: C_22  and  C_34
    5  A    between atoms: O_25  and  P_27
    6  A    between atoms: O_25  and  C_28
                            x       y       z     vdW  Elec       q    Type
                         _______ _______ _______ _____ _____    ______ ____

>  <TORSDO>
F 6

$$$$
=
 OpenBabel11062415343D

 35 39  0  0  1  0  0  0  0  0999 V2000
  184.3740  172.3280  136.1730 C   0  0  0  0  0  1  0  0  0  0  0  0
  183.4760  173.1180  137.1090 C   0  0  1  0  0  3  0  0  0  0  0  0
  183.1610  175.3980  138.2740 C   0  0  0  0  0  0  0  0  0  0  0  0
  179.8610  174.4480  137.0610 C   0  0  0  0  0  0  0  0  0  0  0  0
  184.1320  174.4220  137.6230 C   0  0  2  0  0  3  0  0  0  0  0  0
  179.4720  175.5890  137.9950 C   0  0  0  0  0  2  0  0  0  0  0  0
  181.2260  173.9890  137.5460 C   0  0  1  0  0  3  0  0  0  0  0  0
  179.9180  174.9180  135.7590 F   0  0  0  0  0  0  0  0  0  0  0  0
  180.7690  176.2010  138.5110 C   0  0  0  0  0  2  0  0  0  0  0  0
  178.9440  173.4170  137.1520 F   0  0  0  0  0  0  0  0  0  0  0  0
  182.1170  173.3800  136.4730 C   0  0  0  0  0  2  0  0  0  0  0  0
  181.8230  175.2120  138.1510 C   0  0  0  0  0  0  0  0  0  0  0  0
  183.7680  176.6100  138.9430 C   0  0  2  0  0  3  0  0  0  0  0  0
  182.8460  178.4520  137.6680 O   0  0  0  0  0  0  0  0  0  0  0  0
  184.9150  178.7610  138.7360 C   0  0  0  0  0  2  0  0  0  0  0  0
  183.0160  177.0600  140.2100 C   0  0  0  0  0  2  0  0  0  0  0  0
  184.0490  177.7810  137.9800 C   0  0  1  0  0  3  0  0  0  0  0  0
  183.5330  178.4170  140.7310 C   0  0  0  0  0  2  0  0  0  0  0  0
  183.8770  179.4100  139.5930 C   0  0  2  0  0  3  0  0  0  0  0  0
  182.7520  179.5360  138.5710 C   0  0  2  0  0  3  0  0  0  0  0  0
  181.4920  179.5590  139.1810 O   0  0  0  0  0  0  0  0  0  0  0  0
  179.6810  181.5640  139.8240 O   0  0  0  0  0  1  0  0  0  0  0  0
  181.9290  182.1500  138.3430 O   0  0  0  0  0  1  0  0  0  0  0  0
  179.9800  180.7140  137.3640 O   0  0  0  0  0  0  0  0  0  0  0  0
  180.7440  180.9820  138.6410 P   0  0  0  0  0  0  0  0  0  0  0  0
  186.3660  175.0130  136.4750 C   0  0  0  0  0  0  0  0  0  0  0  0
  188.4890  174.3290  136.8470 C   0  0  0  0  0  3  0  0  0  0  0  0
  187.1250  175.7650  135.4430 C   0  0  2  0  0  3  0  0  0  0  0  0
  184.9390  175.0840  136.5950 N   0  0  0  0  0  2  0  0  0  0  0  0
  187.0880  174.2440  137.2110 N   0  0  0  0  0  0  0  0  0  0  0  0
  188.5510  175.2720  135.6480 C   0  0  0  0  0  3  0  0  0  0  0  0
  186.3660  177.9050  134.5940 O   0  0  0  0  0  1  0  0  0  0  0  0
  187.0550  177.2830  135.6420 C   0  0  2  0  0  3  0  0  0  0  0  0
  188.5690  178.6350  137.0880 C   0  0  0  0  0  1  0  0  0  0  0  0
  188.4500  177.8750  135.7830 C   0  0  0  0  0  2  0  0  0  0  0  0
  2  1  1  6  0  0  0
  2  5  1  0  0  0  0
  4 10  1  0  0  0  0
  4  7  1  0  0  0  0
  4  6  1  0  0  0  0
  5 29  1  6  0  0  0
  5  3  1  0  0  0  0
  6  9  1  0  0  0  0
  7 11  1  6  0  0  0
  7 12  1  0  0  0  0
  8  4  1  0  0  0  0
 11  2  1  0  0  0  0
 12  3  2  0  0  0  0
 12  9  1  0  0  0  0
 13  3  1  6  0  0  0
 13 16  1  0  0  0  0
 14 17  1  0  0  0  0
 14 20  1  0  0  0  0
 16 18  1  0  0  0  0
 17 15  1  1  0  0  0
 17 13  1  0  0  0  0
 19 15  1  6  0  0  0
 19 18  1  0  0  0  0
 20 21  1  1  0  0  0
 20 19  1  0  0  0  0
 23 25  1  0  0  0  0
 24 25  2  0  0  0  0
 25 21  1  0  0  0  0
 25 22  1  0  0  0  0
 26 29  1  0  0  0  0
 26 30  2  0  0  0  0
 27 30  1  0  0  0  0
 28 33  1  1  0  0  0
 28 31  1  0  0  0  0
 28 26  1  0  0  0  0
 31 27  2  0  0  0  0
 33 32  1  6  0  0  0
 33 35  1  0  0  0  0
 35 34  1  0  0  0  0
M  END
>  <MODEL>
8

>  <REMARK>
 VINA RESULT:      -4.8      3.714      5.706
  Name = 
  6 active torsions:
  status: ('A' for Active; 'I' for Inactive)
    1  A    between atoms: C_1  and  C_13
    2  A    between atoms: C_7  and  C_22
    3  A    between atoms: C_16  and  N_21
    4  A    between atoms: C_22  and  C_34
    5  A    between atoms: O_25  and  P_27
    6  A    between atoms: O_25  and  C_28
                            x       y       z     vdW  Elec       q    Type
                         _______ _______ _______ _____ _____    ______ ____

>  <TORSDO>
F 6

$$$$
=
 OpenBabel11062415343D

 35 39  0  0  1  0  0  0  0  0999 V2000
  186.4890  177.9680  136.9070 C   0  0  0  0  0  1  0  0  0  0  0  0
  186.9970  178.4390  138.2590 C   0  0  1  0  0  3  0  0  0  0  0  0
  186.3570  178.7550  140.7380 C   0  0  0  0  0  0  0  0  0  0  0  0
  189.7210  177.3570  140.7580 C   0  0  0  0  0  0  0  0  0  0  0  0
  185.8690  178.6210  139.3020 C   0  0  2  0  0  3  0  0  0  0  0  0
  189.6190  177.8020  142.2130 C   0  0  0  0  0  2  0  0  0  0  0  0
  188.6860  178.1870  140.0170 C   0  0  1  0  0  3  0  0  0  0  0  0
  189.4390  176.0030  140.6710 F   0  0  0  0  0  0  0  0  0  0  0  0
  188.1990  178.3140  142.4220 C   0  0  0  0  0  2  0  0  0  0  0  0
  190.9870  177.6090  140.2640 F   0  0  0  0  0  0  0  0  0  0  0  0
  188.1040  177.5300  138.7740 C   0  0  0  0  0  2  0  0  0  0  0  0
  187.6470  178.4700  141.0470 C   0  0  0  0  0  0  0  0  0  0  0  0
  185.3170  179.1020  141.7770 C   0  0  2  0  0  3  0  0  0  0  0  0
  185.6550  177.4050  143.4720 O   0  0  0  0  0  0  0  0  0  0  0  0
  183.5230  178.3670  143.2700 C   0  0  0  0  0  2  0  0  0  0  0  0
  185.7560  180.2150  142.7480 C   0  0  0  0  0  2  0  0  0  0  0  0
  184.7350  177.8780  142.5120 C   0  0  1  0  0  3  0  0  0  0  0  0
  184.7620  180.3820  143.9160 C   0  0  0  0  0  2  0  0  0  0  0  0
  184.1980  179.0330  144.4260 C   0  0  2  0  0  3  0  0  0  0  0  0
  185.2940  178.0090  144.6980 C   0  0  2  0  0  3  0  0  0  0  0  0
  186.4120  178.5910  145.3080 O   0  0  0  0  0  0  0  0  0  0  0  0
  184.5570  177.9160  147.2630 O   0  0  0  0  0  0  0  0  0  0  0  0
  187.2550  177.7610  147.8000 O   0  0  0  0  0  1  0  0  0  0  0  0
  186.0550  180.0560  147.4640 O   0  0  0  0  0  1  0  0  0  0  0  0
  186.0650  178.6280  146.9680 P   0  0  0  0  0  0  0  0  0  0  0  0
  183.5610  177.7480  138.5450 C   0  0  0  0  0  0  0  0  0  0  0  0
  181.9230  178.6780  137.2940 C   0  0  0  0  0  3  0  0  0  0  0  0
  182.5310  176.6770  138.5270 C   0  0  2  0  0  3  0  0  0  0  0  0
  184.8320  177.5900  139.1890 N   0  0  0  0  0  2  0  0  0  0  0  0
  183.2420  178.8030  137.8830 N   0  0  0  0  0  0  0  0  0  0  0  0
  181.4440  177.2710  137.6410 C   0  0  0  0  0  3  0  0  0  0  0  0
  181.1280  175.2490  139.8930 O   0  0  0  0  0  1  0  0  0  0  0  0
  181.9700  176.3670  139.9190 C   0  0  2  0  0  3  0  0  0  0  0  0
  179.8990  177.1460  141.0660 C   0  0  0  0  0  1  0  0  0  0  0  0
  181.2330  177.5710  140.4860 C   0  0  0  0  0  2  0  0  0  0  0  0
  2  1  1  6  0  0  0
  2 11  1  0  0  0  0
  2  5  1  0  0  0  0
  3 12  2  0  0  0  0
  4  6  1  0  0  0  0
  5 29  1  1  0  0  0
  5  3  1  0  0  0  0
  6  9  1  0  0  0  0
  7 11  1  6  0  0  0
  7  4  1  0  0  0  0
  7 12  1  0  0  0  0
  8  4  1  0  0  0  0
 10  4  1  0  0  0  0
 12  9  1  0  0  0  0
 13  3  1  1  0  0  0
 13 17  1  0  0  0  0
 13 16  1  0  0  0  0
 14 20  1  0  0  0  0
 16 18  1  0  0  0  0
 17 15  1  1  0  0  0
 17 14  1  0  0  0  0
 18 19  1  0  0  0  0
 19 15  1  6  0  0  0
 19 20  1  0  0  0  0
 20 21  1  6  0  0  0
 21 25  1  0  0  0  0
 25 22  2  0  0  0  0
 25 24  1  0  0  0  0
 25 23  1  0  0  0  0
 26 29  1  0  0  0  0
 27 31  2  0  0  0  0
 27 30  1  0  0  0  0
 28 26  1  0  0  0  0
 28 33  1  1  0  0  0
 30 26  2  0  0  0  0
 31 28  1  0  0  0  0
 33 32  1  6  0  0  0
 33 35  1  0  0  0  0
 35 34  1  0  0  0  0
M  END
>  <MODEL>
9

>  <REMARK>
 VINA RESULT:      -4.7      3.586      5.460
  Name = 
  6 active torsions:
  status: ('A' for Active; 'I' for Inactive)
    1  A    between atoms: C_1  and  C_13
    2  A    between atoms: C_7  and  C_22
    3  A    between atoms: C_16  and  N_21
    4  A    between atoms: C_22  and  C_34
    5  A    between atoms: O_25  and  P_27
    6  A    between atoms: O_25  and  C_28
                            x       y       z     vdW  Elec       q    Type
                         _______ _______ _______ _____ _____    ______ ____

>  <TORSDO>
F 6

$$$$
