=
 OpenBabel11062417583D

 40 41  0  0  1  0  0  0  0  0999 V2000
  184.5000  178.9920  146.2660 O   0  0  0  0  0  0  0  0  0  0  0  0
  184.8150  178.7920  145.1010 C   0  0  0  0  0  0  0  0  0  0  0  0
  182.5400  178.9090  144.0560 C   0  0  0  0  0  1  0  0  0  0  0  0
  183.9860  179.3970  144.0040 C   0  0  2  0  0  3  0  0  0  0  0  0
  184.6280  179.0660  142.6640 C   0  0  0  0  0  2  0  0  0  0  0  0
  183.7300  178.1940  141.8010 C   0  0  0  0  0  2  0  0  0  0  0  0
  184.2140  178.2090  140.3550 C   0  0  2  0  0  3  0  0  0  0  0  0
  184.8540  179.4910  140.1020 N   0  0  0  0  0  1  0  0  0  0  0  0
  183.0670  177.9780  139.3520 C   0  0  1  0  0  3  0  0  0  0  0  0
  182.8210  176.4770  139.1390 C   0  0  1  0  0  3  0  0  0  0  0  0
  181.5680  176.0750  139.6180 O   0  0  0  0  0  1  0  0  0  0  0  0
  183.0690  176.0120  137.6960 C   0  0  1  0  0  3  0  0  0  0  0  0
  182.8000  177.3770  136.5200 S   0  0  0  0  0  1  0  0  0  0  0  0
  185.7100  173.3070  137.4370 C   0  0  0  0  0  3  0  0  0  0  0  0
  184.4890  173.9600  137.6360 C   0  0  0  0  0  3  0  0  0  0  0  0
  186.7530  175.4210  136.8860 C   0  0  0  0  0  3  0  0  0  0  0  0
  184.3940  175.3440  137.4660 C   0  0  0  0  0  0  0  0  0  0  0  0
  186.8430  174.0380  137.0670 C   0  0  0  0  0  0  0  0  0  0  0  0
  185.5310  176.0750  137.0820 C   0  0  0  0  0  3  0  0  0  0  0  0
  188.0570  173.3920  136.8720 O   0  0  0  0  0  1  0  0  0  0  0  0
  181.3420  179.5380  138.7880 O   0  0  0  0  0  1  0  0  0  0  0  0
  181.7850  178.6800  139.7980 C   0  0  0  0  0  2  0  0  0  0  0  0
  186.0550  177.9950  144.7970 C   0  0  0  0  0  2  0  0  0  0  0  0
  186.8210  177.6380  146.0620 C   0  0  0  0  0  2  0  0  0  0  0  0
  189.0680  177.9570  145.1120 C   0  0  0  0  0  2  0  0  0  0  0  0
  188.1970  177.1490  145.7350 C   0  0  0  0  0  2  0  0  0  0  0  0
  189.4210  177.9800  146.0810 C   0  0  0  0  0  2  0  0  0  0  0  0
  190.5930  177.4430  145.4410 O   0  0  0  0  0  0  0  0  0  0  0  0
  190.8480  178.2950  144.3640 C   0  0  0  0  0  2  0  0  0  0  0  0
  191.8240  177.6290  143.4150 C   0  0  0  0  0  2  0  0  0  0  0  0
  190.5220  176.1580  141.7910 N   0  0  0  0  0  2  0  0  0  0  0  0
  191.2920  176.3020  142.9910 C   0  0  0  0  0  0  0  0  0  0  0  0
  191.5410  175.2840  143.6910 O   0  0  0  0  0  0  0  0  0  0  0  0
  190.2320  177.2740  140.8970 C   0  0  2  0  0  3  0  0  0  0  0  0
  188.0990  177.3860  141.9710 O   0  0  0  0  0  0  0  0  0  0  0  0
  188.2430  178.6410  141.3550 C   0  0  0  0  0  2  0  0  0  0  0  0
  188.7270  177.3980  140.7110 C   0  0  1  0  0  3  0  0  0  0  0  0
  190.9020  177.0390  139.5530 C   0  0  0  0  0  2  0  0  0  0  0  0
  190.0310  176.3690  138.6940 O   0  0  0  0  0  0  0  0  0  0  0  0
  190.6100  175.2070  138.4690 O   0  0  0  0  0  1  0  0  0  0  0  0
  2  1  2  0  0  0  0
  4  3  1  6  0  0  0
  4  2  1  0  0  0  0
  5  4  1  0  0  0  0
  6  5  1  0  0  0  0
  7  8  1  6  0  0  0
  7  6  1  0  0  0  0
  9 22  1  1  0  0  0
  9  7  1  0  0  0  0
 10  9  1  0  0  0  0
 10 11  1  6  0  0  0
 12 13  1  6  0  0  0
 12 10  1  0  0  0  0
 14 15  1  0  0  0  0
 16 18  1  0  0  0  0
 16 19  2  0  0  0  0
 17 15  2  0  0  0  0
 17 12  1  0  0  0  0
 18 14  2  0  0  0  0
 19 17  1  0  0  0  0
 20 18  1  0  0  0  0
 21 22  1  0  0  0  0
 23  2  1  0  0  0  0
 23 24  1  0  0  0  0
 25 26  1  0  0  0  0
 25 27  1  0  0  0  0
 26 24  1  0  0  0  0
 28 27  1  0  0  0  0
 29 28  1  0  0  0  0
 30 29  1  0  0  0  0
 31 32  1  0  0  0  0
 32 30  1  0  0  0  0
 32 33  2  0  0  0  0
 34 38  1  6  0  0  0
 34 31  1  0  0  0  0
 36 35  1  0  0  0  0
 37 34  1  1  0  0  0
 37 36  1  0  0  0  0
 37 35  1  0  0  0  0
 39 38  1  0  0  0  0
 40 39  1  0  0  0  0
M  END
>  <MODEL>
1

>  <REMARK>
 VINA RESULT:      -7.0      0.000      0.000
  Name = 
  21 active torsions:
  status: ('A' for Active; 'I' for Inactive)
    1  A    between atoms: C_1  and  C_21
    2  A    between atoms: C_1  and  N_27
    3  A    between atoms: C_1  and  C_34
    4  A    between atoms: C_2  and  O_11
    5  A    between atoms: C_2  and  C_29
    6  A    between atoms: C_3  and  C_23
    7  A    between atoms: C_3  and  C_39
    8  A    between atoms: C_4  and  C_8
    9  A    between atoms: C_4  and  C_36
   10  A    between atoms: C_8  and  C_32
   11  A    between atoms: O_10  and  C_21
   12  A    between atoms: O_11  and  C_16
   13  A    between atoms: C_13  and  C_31
   14  A    between atoms: C_13  and  C_35
   15  A    between atoms: C_16  and  C_39
   16  A    between atoms: C_20  and  C_23
   17  A    between atoms: C_20  and  C_35
   18  A    between atoms: C_22  and  C_36
   19  A    between atoms: C_24  and  C_31
   20  A    between atoms: C_24  and  C_36
   21  A    between atoms: C_28  and  C_29
                            x       y       z     vdW  Elec       q    Type
                         _______ _______ _______ _____ _____    ______ ____

>  <TORSDO>
F 21

$$$$
=
 OpenBabel11062417583D

 40 41  0  0  1  0  0  0  0  0999 V2000
  184.9220  179.7610  143.8210 O   0  0  0  0  0  0  0  0  0  0  0  0
  184.3970  178.9950  144.6170 C   0  0  0  0  0  0  0  0  0  0  0  0
  184.9520  178.2880  146.9570 C   0  0  0  0  0  1  0  0  0  0  0  0
  185.2680  178.1190  145.4730 C   0  0  2  0  0  3  0  0  0  0  0  0
  186.7260  178.4430  145.1820 C   0  0  0  0  0  2  0  0  0  0  0  0
  187.5520  177.1900  144.9390 C   0  0  0  0  0  2  0  0  0  0  0  0
  188.6690  177.0870  145.9710 C   0  0  2  0  0  3  0  0  0  0  0  0
  188.5590  178.2190  146.8770 N   0  0  0  0  0  1  0  0  0  0  0  0
  190.0660  177.0590  145.3200 C   0  0  1  0  0  3  0  0  0  0  0  0
  190.1220  177.9970  144.1050 C   0  0  1  0  0  3  0  0  0  0  0  0
  190.8630  179.1560  144.3660 O   0  0  0  0  0  1  0  0  0  0  0  0
  190.5690  177.3010  142.8110 C   0  0  1  0  0  3  0  0  0  0  0  0
  190.6970  175.5000  143.0540 S   0  0  0  0  0  1  0  0  0  0  0  0
  189.5110  177.6040  139.1840 C   0  0  0  0  0  3  0  0  0  0  0  0
  190.2480  177.3030  140.3350 C   0  0  0  0  0  3  0  0  0  0  0  0
  187.7570  178.5580  140.5540 C   0  0  0  0  0  3  0  0  0  0  0  0
  189.7460  177.6320  141.5980 C   0  0  0  0  0  0  0  0  0  0  0  0
  188.2690  178.2360  139.2930 C   0  0  0  0  0  0  0  0  0  0  0  0
  188.4920  178.2540  141.7060 C   0  0  0  0  0  3  0  0  0  0  0  0
  187.5380  178.5390  138.1520 O   0  0  0  0  0  1  0  0  0  0  0  0
  192.0960  176.3770  146.3880 O   0  0  0  0  0  1  0  0  0  0  0  0
  191.1580  177.4120  146.3280 C   0  0  0  0  0  2  0  0  0  0  0  0
  182.8990  178.9880  144.7600 C   0  0  0  0  0  2  0  0  0  0  0  0
  182.2030  178.9980  143.4070 C   0  0  0  0  0  2  0  0  0  0  0  0
  179.9680  180.0090  143.2190 C   0  0  2  0  0  3  0  0  0  0  0  0
  180.7170  178.9510  143.5690 C   0  0  0  0  0  2  0  0  0  0  0  0
  179.7960  179.3640  142.4320 C   0  0  0  0  0  1  0  0  0  0  0  0
  179.9380  180.7680  142.1510 O   0  0  0  0  0  0  0  0  0  0  0  0
  179.4250  180.9390  140.8630 C   0  0  0  0  0  2  0  0  0  0  0  0
  180.1680  180.0350  139.9010 C   0  0  0  0  0  2  0  0  0  0  0  0
  182.0990  180.3110  138.2600 N   0  0  0  0  0  2  0  0  0  0  0  0
  180.9690  180.8580  138.9480 C   0  0  0  0  0  0  0  0  0  0  0  0
  180.6310  182.0520  138.7310 O   0  0  0  0  0  0  0  0  0  0  0  0
  182.5260  178.9240  138.4130 C   0  0  2  0  0  3  0  0  0  0  0  0
  184.4220  180.1220  139.2400 O   0  0  0  0  0  0  0  0  0  0  0  0
  184.2430  179.0780  140.1620 C   0  0  0  0  0  2  0  0  0  0  0  0
  184.0170  178.8820  138.7120 C   0  0  1  0  0  3  0  0  0  0  0  0
  182.2320  178.1540  137.1360 C   0  0  0  0  0  2  0  0  0  0  0  0
  183.3920  177.5360  136.6710 O   0  0  0  0  0  0  0  0  0  0  0  0
  183.0740  176.2610  136.5720 O   0  0  0  0  0  1  0  0  0  0  0  0
  1  2  2  0  0  0  0
  2 23  1  0  0  0  0
  2  4  1  0  0  0  0
  4  3  1  1  0  0  0
  5  4  1  0  0  0  0
  6  5  1  0  0  0  0
  6  7  1  0  0  0  0
  7  8  1  1  0  0  0
  9  7  1  0  0  0  0
  9 22  1  1  0  0  0
 10 11  1  1  0  0  0
 10  9  1  0  0  0  0
 12 13  1  1  0  0  0
 12 10  1  0  0  0  0
 14 18  2  0  0  0  0
 14 15  1  0  0  0  0
 15 17  2  0  0  0  0
 16 19  2  0  0  0  0
 17 19  1  0  0  0  0
 17 12  1  0  0  0  0
 18 16  1  0  0  0  0
 20 18  1  0  0  0  0
 22 21  1  0  0  0  0
 24 26  1  0  0  0  0
 24 23  1  0  0  0  0
 25 27  1  6  0  0  0
 25 26  1  0  0  0  0
 28 25  1  0  0  0  0
 29 28  1  0  0  0  0
 30 29  1  0  0  0  0
 31 34  1  0  0  0  0
 31 32  1  0  0  0  0
 32 30  1  0  0  0  0
 33 32  2  0  0  0  0
 34 38  1  6  0  0  0
 35 36  1  0  0  0  0
 37 34  1  1  0  0  0
 37 35  1  0  0  0  0
 37 36  1  0  0  0  0
 39 38  1  0  0  0  0
 40 39  1  0  0  0  0
M  END
>  <MODEL>
2

>  <REMARK>
 VINA RESULT:      -6.9      3.287      8.266
  Name = 
  21 active torsions:
  status: ('A' for Active; 'I' for Inactive)
    1  A    between atoms: C_1  and  C_21
    2  A    between atoms: C_1  and  N_27
    3  A    between atoms: C_1  and  C_34
    4  A    between atoms: C_2  and  O_11
    5  A    between atoms: C_2  and  C_29
    6  A    between atoms: C_3  and  C_23
    7  A    between atoms: C_3  and  C_39
    8  A    between atoms: C_4  and  C_8
    9  A    between atoms: C_4  and  C_36
   10  A    between atoms: C_8  and  C_32
   11  A    between atoms: O_10  and  C_21
   12  A    between atoms: O_11  and  C_16
   13  A    between atoms: C_13  and  C_31
   14  A    between atoms: C_13  and  C_35
   15  A    between atoms: C_16  and  C_39
   16  A    between atoms: C_20  and  C_23
   17  A    between atoms: C_20  and  C_35
   18  A    between atoms: C_22  and  C_36
   19  A    between atoms: C_24  and  C_31
   20  A    between atoms: C_24  and  C_36
   21  A    between atoms: C_28  and  C_29
                            x       y       z     vdW  Elec       q    Type
                         _______ _______ _______ _____ _____    ______ ____

>  <TORSDO>
F 21

$$$$
=
 OpenBabel11062417583D

 40 41  0  0  1  0  0  0  0  0999 V2000
  186.0550  178.5250  139.0530 O   0  0  0  0  0  0  0  0  0  0  0  0
  186.9890  178.2470  138.3130 C   0  0  0  0  0  0  0  0  0  0  0  0
  189.3530  178.6100  137.5650 C   0  0  0  0  0  1  0  0  0  0  0  0
  188.3900  178.5720  138.7490 C   0  0  2  0  0  3  0  0  0  0  0  0
  188.8320  177.5460  139.7820 C   0  0  0  0  0  2  0  0  0  0  0  0
  188.8300  178.1180  141.1910 C   0  0  0  0  0  2  0  0  0  0  0  0
  190.1600  177.8320  141.8780 C   0  0  2  0  0  3  0  0  0  0  0  0
  190.9940  177.0720  140.9600 N   0  0  0  0  0  1  0  0  0  0  0  0
  189.9820  177.0600  143.2000 C   0  0  1  0  0  3  0  0  0  0  0  0
  188.5280  176.5960  143.3710 C   0  0  1  0  0  3  0  0  0  0  0  0
  188.3780  175.2270  143.1160 O   0  0  0  0  0  1  0  0  0  0  0  0
  187.9040  177.0100  144.7110 C   0  0  1  0  0  3  0  0  0  0  0  0
  189.0660  178.0210  145.6830 S   0  0  0  0  0  1  0  0  0  0  0  0
  184.7270  178.4280  143.2070 C   0  0  0  0  0  3  0  0  0  0  0  0
  185.9750  177.8100  143.3430 C   0  0  0  0  0  3  0  0  0  0  0  0
  184.6320  178.7640  145.6030 C   0  0  0  0  0  3  0  0  0  0  0  0
  186.5590  177.6710  144.6050 C   0  0  0  0  0  0  0  0  0  0  0  0
  184.0580  178.9100  144.3360 C   0  0  0  0  0  0  0  0  0  0  0  0
  185.8790  178.1440  145.7400 C   0  0  0  0  0  3  0  0  0  0  0  0
  182.8210  179.5260  144.2030 O   0  0  0  0  0  1  0  0  0  0  0  0
  191.6540  175.9350  144.4910 O   0  0  0  0  0  1  0  0  0  0  0  0
  190.9440  175.8760  143.2880 C   0  0  0  0  0  2  0  0  0  0  0  0
  186.7170  177.5380  137.0140 C   0  0  0  0  0  2  0  0  0  0  0  0
  186.7860  176.0270  137.1700 C   0  0  0  0  0  2  0  0  0  0  0  0
  189.0770  175.2850  136.6610 C   0  0  1  0  0  3  0  0  0  0  0  0
  187.8090  175.4390  136.2490 C   0  0  0  0  0  2  0  0  0  0  0  0
  188.7230  174.3180  136.7140 C   0  0  0  0  0  1  0  0  0  0  0  0
  190.0750  174.5560  136.2840 O   0  0  0  0  0  0  0  0  0  0  0  0
  190.8780  173.8560  137.1880 C   0  0  0  0  0  2  0  0  0  0  0  0
  192.3210  173.9130  136.7280 C   0  0  0  0  0  2  0  0  0  0  0  0
  194.4520  175.0860  137.4860 N   0  0  0  0  0  2  0  0  0  0  0  0
  193.0230  175.0420  137.4050 C   0  0  0  0  0  0  0  0  0  0  0  0
  192.3460  175.9840  137.8960 O   0  0  0  0  0  0  0  0  0  0  0  0
  195.3120  174.0650  136.8990 C   0  0  2  0  0  3  0  0  0  0  0  0
  195.2510  172.6290  138.8100 O   0  0  0  0  0  0  0  0  0  0  0  0
  196.0050  171.9150  137.8640 C   0  0  0  0  0  2  0  0  0  0  0  0
  196.1170  173.3860  137.9970 C   0  0  1  0  0  3  0  0  0  0  0  0
  196.2520  174.7060  135.8900 C   0  0  0  0  0  2  0  0  0  0  0  0
  196.2840  176.0870  136.0760 O   0  0  0  0  0  0  0  0  0  0  0  0
  197.5540  176.3670  136.2830 O   0  0  0  0  0  1  0  0  0  0  0  0
  2  4  1  0  0  0  0
  2  1  2  0  0  0  0
  4  3  1  6  0  0  0
  4  5  1  0  0  0  0
  5  6  1  0  0  0  0
  6  7  1  0  0  0  0
  7  8  1  6  0  0  0
  7  9  1  0  0  0  0
  9 22  1  6  0  0  0
  9 10  1  0  0  0  0
 10 11  1  1  0  0  0
 10 12  1  0  0  0  0
 12 13  1  6  0  0  0
 14 15  2  0  0  0  0
 14 18  1  0  0  0  0
 15 17  1  0  0  0  0
 16 19  1  0  0  0  0
 17 12  1  0  0  0  0
 17 19  2  0  0  0  0
 18 16  2  0  0  0  0
 20 18  1  0  0  0  0
 22 21  1  0  0  0  0
 23 24  1  0  0  0  0
 23  2  1  0  0  0  0
 25 27  1  1  0  0  0
 26 25  1  0  0  0  0
 26 24  1  0  0  0  0
 28 25  1  0  0  0  0
 28 29  1  0  0  0  0
 30 29  1  0  0  0  0
 30 32  1  0  0  0  0
 32 31  1  0  0  0  0
 32 33  2  0  0  0  0
 34 38  1  6  0  0  0
 34 31  1  0  0  0  0
 36 37  1  0  0  0  0
 36 35  1  0  0  0  0
 37 34  1  6  0  0  0
 37 35  1  0  0  0  0
 38 39  1  0  0  0  0
 39 40  1  0  0  0  0
M  END
>  <MODEL>
3

>  <REMARK>
 VINA RESULT:      -6.7      3.883      8.328
  Name = 
  21 active torsions:
  status: ('A' for Active; 'I' for Inactive)
    1  A    between atoms: C_1  and  C_21
    2  A    between atoms: C_1  and  N_27
    3  A    between atoms: C_1  and  C_34
    4  A    between atoms: C_2  and  O_11
    5  A    between atoms: C_2  and  C_29
    6  A    between atoms: C_3  and  C_23
    7  A    between atoms: C_3  and  C_39
    8  A    between atoms: C_4  and  C_8
    9  A    between atoms: C_4  and  C_36
   10  A    between atoms: C_8  and  C_32
   11  A    between atoms: O_10  and  C_21
   12  A    between atoms: O_11  and  C_16
   13  A    between atoms: C_13  and  C_31
   14  A    between atoms: C_13  and  C_35
   15  A    between atoms: C_16  and  C_39
   16  A    between atoms: C_20  and  C_23
   17  A    between atoms: C_20  and  C_35
   18  A    between atoms: C_22  and  C_36
   19  A    between atoms: C_24  and  C_31
   20  A    between atoms: C_24  and  C_36
   21  A    between atoms: C_28  and  C_29
                            x       y       z     vdW  Elec       q    Type
                         _______ _______ _______ _____ _____    ______ ____

>  <TORSDO>
F 21

$$$$
=
 OpenBabel11062417583D

 40 41  0  0  1  0  0  0  0  0999 V2000
  187.8570  176.0940  143.5980 O   0  0  0  0  0  0  0  0  0  0  0  0
  188.6770  176.9060  144.0040 C   0  0  0  0  0  0  0  0  0  0  0  0
  190.9100  178.0230  143.7750 C   0  0  0  0  0  1  0  0  0  0  0  0
  190.1280  176.7160  143.6600 C   0  0  2  0  0  3  0  0  0  0  0  0
  190.2270  176.1390  142.2560 C   0  0  0  0  0  2  0  0  0  0  0  0
  189.9910  177.1950  141.1870 C   0  0  0  0  0  2  0  0  0  0  0  0
  190.7620  176.8440  139.9200 C   0  0  2  0  0  3  0  0  0  0  0  0
  192.0820  177.4490  140.0060 N   0  0  0  0  0  1  0  0  0  0  0  0
  190.0400  177.3190  138.6450 C   0  0  1  0  0  3  0  0  0  0  0  0
  189.3150  176.1510  137.9600 C   0  0  1  0  0  3  0  0  0  0  0  0
  187.9420  176.3930  137.8180 O   0  0  0  0  0  1  0  0  0  0  0  0
  189.9670  175.7100  136.6410 C   0  0  1  0  0  3  0  0  0  0  0  0
  189.5740  176.8790  135.3010 S   0  0  0  0  0  1  0  0  0  0  0  0
  193.2490  173.9180  137.2580 C   0  0  0  0  0  3  0  0  0  0  0  0
  191.8800  174.1940  137.1620 C   0  0  0  0  0  3  0  0  0  0  0  0
  193.7560  176.1490  136.4640 C   0  0  0  0  0  3  0  0  0  0  0  0
  191.4440  175.4470  136.7230 C   0  0  0  0  0  0  0  0  0  0  0  0
  194.1860  174.8970  136.9140 C   0  0  0  0  0  0  0  0  0  0  0  0
  192.3870  176.4240  136.3650 C   0  0  0  0  0  3  0  0  0  0  0  0
  195.5450  174.6260  137.0110 O   0  0  0  0  0  1  0  0  0  0  0  0
  189.0630  179.3650  137.8810 O   0  0  0  0  0  1  0  0  0  0  0  0
  189.0690  178.4600  138.9450 C   0  0  0  0  0  2  0  0  0  0  0  0
  188.2080  178.1020  144.7870 C   0  0  0  0  0  2  0  0  0  0  0  0
  187.6330  177.7030  146.1370 C   0  0  0  0  0  2  0  0  0  0  0  0
  185.4540  178.5420  146.9140 C   0  0  0  0  0  2  0  0  0  0  0  0
  186.1370  177.7150  146.1070 C   0  0  0  0  0  2  0  0  0  0  0  0
  185.3700  179.0230  146.0050 C   0  0  0  0  0  2  0  0  0  0  0  0
  184.0030  178.7800  145.6290 O   0  0  0  0  0  0  0  0  0  0  0  0
  183.7900  179.5590  144.4890 C   0  0  0  0  0  2  0  0  0  0  0  0
  183.7180  178.6600  143.2720 C   0  0  0  0  0  2  0  0  0  0  0  0
  182.2790  178.5100  141.1730 N   0  0  0  0  0  2  0  0  0  0  0  0
  182.4370  178.8960  142.5440 C   0  0  0  0  0  0  0  0  0  0  0  0
  181.4700  179.4260  143.1520 O   0  0  0  0  0  0  0  0  0  0  0  0
  183.3290  177.8430  140.4110 C   0  0  2  0  0  3  0  0  0  0  0  0
  184.7120  179.7210  139.8870 O   0  0  0  0  0  0  0  0  0  0  0  0
  185.3060  178.6510  139.1970 C   0  0  0  0  0  2  0  0  0  0  0  0
  183.8350  178.7760  139.3210 C   0  0  1  0  0  3  0  0  0  0  0  0
  182.7780  176.5710  139.7870 C   0  0  0  0  0  2  0  0  0  0  0  0
  181.4010  176.6880  139.5970 O   0  0  0  0  0  0  0  0  0  0  0  0
  180.9410  175.4600  139.7220 O   0  0  0  0  0  1  0  0  0  0  0  0
  1  2  2  0  0  0  0
  2 23  1  0  0  0  0
  4  3  1  6  0  0  0
  4  2  1  0  0  0  0
  5  4  1  0  0  0  0
  6  5  1  0  0  0  0
  7  8  1  1  0  0  0
  7  6  1  0  0  0  0
  9 22  1  1  0  0  0
  9  7  1  0  0  0  0
 10 11  1  6  0  0  0
 10  9  1  0  0  0  0
 12 13  1  6  0  0  0
 12 17  1  0  0  0  0
 12 10  1  0  0  0  0
 15 14  1  0  0  0  0
 16 18  1  0  0  0  0
 17 15  2  0  0  0  0
 18 20  1  0  0  0  0
 18 14  2  0  0  0  0
 19 16  2  0  0  0  0
 19 17  1  0  0  0  0
 21 22  1  0  0  0  0
 23 24  1  0  0  0  0
 26 24  1  0  0  0  0
 26 25  1  0  0  0  0
 27 25  1  0  0  0  0
 28 27  1  0  0  0  0
 29 28  1  0  0  0  0
 30 29  1  0  0  0  0
 31 32  1  0  0  0  0
 32 33  2  0  0  0  0
 32 30  1  0  0  0  0
 34 38  1  6  0  0  0
 34 31  1  0  0  0  0
 36 37  1  0  0  0  0
 36 35  1  0  0  0  0
 37 35  1  0  0  0  0
 37 34  1  1  0  0  0
 39 40  1  0  0  0  0
 39 38  1  0  0  0  0
M  END
>  <MODEL>
4

>  <REMARK>
 VINA RESULT:      -6.7      2.686      6.887
  Name = 
  21 active torsions:
  status: ('A' for Active; 'I' for Inactive)
    1  A    between atoms: C_1  and  C_21
    2  A    between atoms: C_1  and  N_27
    3  A    between atoms: C_1  and  C_34
    4  A    between atoms: C_2  and  O_11
    5  A    between atoms: C_2  and  C_29
    6  A    between atoms: C_3  and  C_23
    7  A    between atoms: C_3  and  C_39
    8  A    between atoms: C_4  and  C_8
    9  A    between atoms: C_4  and  C_36
   10  A    between atoms: C_8  and  C_32
   11  A    between atoms: O_10  and  C_21
   12  A    between atoms: O_11  and  C_16
   13  A    between atoms: C_13  and  C_31
   14  A    between atoms: C_13  and  C_35
   15  A    between atoms: C_16  and  C_39
   16  A    between atoms: C_20  and  C_23
   17  A    between atoms: C_20  and  C_35
   18  A    between atoms: C_22  and  C_36
   19  A    between atoms: C_24  and  C_31
   20  A    between atoms: C_24  and  C_36
   21  A    between atoms: C_28  and  C_29
                            x       y       z     vdW  Elec       q    Type
                         _______ _______ _______ _____ _____    ______ ____

>  <TORSDO>
F 21

$$$$
=
 OpenBabel11062417583D

 40 41  0  0  1  0  0  0  0  0999 V2000
  185.0540  179.9680  143.4880 O   0  0  0  0  0  0  0  0  0  0  0  0
  184.4790  178.9700  143.9030 C   0  0  0  0  0  0  0  0  0  0  0  0
  184.2930  178.5970  146.3740 C   0  0  0  0  0  1  0  0  0  0  0  0
  185.0400  178.2410  145.0910 C   0  0  2  0  0  3  0  0  0  0  0  0
  186.5220  178.5670  145.2110 C   0  0  0  0  0  2  0  0  0  0  0  0
  187.3990  177.4190  144.7370 C   0  0  0  0  0  2  0  0  0  0  0  0
  188.3930  177.0310  145.8260 C   0  0  2  0  0  3  0  0  0  0  0  0
  188.2360  177.9570  146.9370 N   0  0  0  0  0  1  0  0  0  0  0  0
  189.8490  177.0460  145.3210 C   0  0  1  0  0  3  0  0  0  0  0  0
  190.0010  177.9910  144.1200 C   0  0  1  0  0  3  0  0  0  0  0  0
  190.7260  179.1440  144.4450 O   0  0  0  0  0  1  0  0  0  0  0  0
  190.5420  177.3000  142.8590 C   0  0  1  0  0  3  0  0  0  0  0  0
  190.6870  175.5030  143.1160 S   0  0  0  0  0  1  0  0  0  0  0  0
  187.8070  178.5190  140.5350 C   0  0  0  0  0  3  0  0  0  0  0  0
  188.5360  178.2190  141.6910 C   0  0  0  0  0  3  0  0  0  0  0  0
  189.5940  177.6150  139.1740 C   0  0  0  0  0  3  0  0  0  0  0  0
  189.7920  177.6140  141.5950 C   0  0  0  0  0  0  0  0  0  0  0  0
  188.3340  178.2120  139.2770 C   0  0  0  0  0  0  0  0  0  0  0  0
  190.3250  177.3190  140.3300 C   0  0  0  0  0  3  0  0  0  0  0  0
  187.6110  178.5050  138.1280 O   0  0  0  0  0  1  0  0  0  0  0  0
  192.0020  176.6880  146.3020 O   0  0  0  0  0  1  0  0  0  0  0  0
  190.8220  177.4240  146.4360 C   0  0  0  0  0  2  0  0  0  0  0  0
  183.1970  178.5300  143.2480 C   0  0  0  0  0  2  0  0  0  0  0  0
  182.0170  179.3830  143.6880 C   0  0  0  0  0  2  0  0  0  0  0  0
  179.5870  179.0510  143.8870 C   0  0  0  0  0  2  0  0  0  0  0  0
  180.8210  178.5320  143.9810 C   0  0  0  0  0  2  0  0  0  0  0  0
  179.6420  178.4900  143.0230 C   0  0  0  0  0  2  0  0  0  0  0  0
  179.6400  177.2580  142.2790 O   0  0  0  0  0  0  0  0  0  0  0  0
  179.0180  177.5630  141.0650 C   0  0  0  0  0  2  0  0  0  0  0  0
  179.8300  178.6140  140.3350 C   0  0  0  0  0  2  0  0  0  0  0  0
  181.6630  178.7230  138.5680 N   0  0  0  0  0  2  0  0  0  0  0  0
  180.7550  177.9560  139.3660 C   0  0  0  0  0  0  0  0  0  0  0  0
  180.7490  176.7010  139.2630 O   0  0  0  0  0  0  0  0  0  0  0  0
  181.7710  180.1750  138.6620 C   0  0  2  0  0  3  0  0  0  0  0  0
  179.7230  180.7650  137.5810 O   0  0  0  0  0  0  0  0  0  0  0  0
  180.3360  181.9980  137.8560 C   0  0  0  0  0  2  0  0  0  0  0  0
  181.1230  180.8130  137.4430 C   0  0  1  0  0  3  0  0  0  0  0  0
  183.2360  180.5750  138.7390 C   0  0  0  0  0  2  0  0  0  0  0  0
  184.0330  179.4440  138.9090 O   0  0  0  0  0  0  0  0  0  0  0  0
  184.6630  179.6470  140.0480 O   0  0  0  0  0  1  0  0  0  0  0  0
  1  2  2  0  0  0  0
  2  4  1  0  0  0  0
  4  5  1  0  0  0  0
  4  3  1  1  0  0  0
  6  5  1  0  0  0  0
  6  7  1  0  0  0  0
  7  8  1  1  0  0  0
  9  7  1  0  0  0  0
  9 22  1  1  0  0  0
 10 11  1  1  0  0  0
 10  9  1  0  0  0  0
 12 13  1  1  0  0  0
 12 10  1  0  0  0  0
 14 15  1  0  0  0  0
 16 18  1  0  0  0  0
 16 19  2  0  0  0  0
 17 15  2  0  0  0  0
 17 12  1  0  0  0  0
 18 14  2  0  0  0  0
 19 17  1  0  0  0  0
 20 18  1  0  0  0  0
 21 22  1  0  0  0  0
 23 24  1  0  0  0  0
 23  2  1  0  0  0  0
 24 26  1  0  0  0  0
 25 26  1  0  0  0  0
 27 25  1  0  0  0  0
 28 27  1  0  0  0  0
 29 28  1  0  0  0  0
 30 29  1  0  0  0  0
 31 34  1  0  0  0  0
 31 32  1  0  0  0  0
 32 30  1  0  0  0  0
 33 32  2  0  0  0  0
 34 38  1  6  0  0  0
 35 36  1  0  0  0  0
 37 35  1  0  0  0  0
 37 36  1  0  0  0  0
 37 34  1  1  0  0  0
 38 39  1  0  0  0  0
 39 40  1  0  0  0  0
M  END
>  <MODEL>
5

>  <REMARK>
 VINA RESULT:      -6.6      3.400      8.387
  Name = 
  21 active torsions:
  status: ('A' for Active; 'I' for Inactive)
    1  A    between atoms: C_1  and  C_21
    2  A    between atoms: C_1  and  N_27
    3  A    between atoms: C_1  and  C_34
    4  A    between atoms: C_2  and  O_11
    5  A    between atoms: C_2  and  C_29
    6  A    between atoms: C_3  and  C_23
    7  A    between atoms: C_3  and  C_39
    8  A    between atoms: C_4  and  C_8
    9  A    between atoms: C_4  and  C_36
   10  A    between atoms: C_8  and  C_32
   11  A    between atoms: O_10  and  C_21
   12  A    between atoms: O_11  and  C_16
   13  A    between atoms: C_13  and  C_31
   14  A    between atoms: C_13  and  C_35
   15  A    between atoms: C_16  and  C_39
   16  A    between atoms: C_20  and  C_23
   17  A    between atoms: C_20  and  C_35
   18  A    between atoms: C_22  and  C_36
   19  A    between atoms: C_24  and  C_31
   20  A    between atoms: C_24  and  C_36
   21  A    between atoms: C_28  and  C_29
                            x       y       z     vdW  Elec       q    Type
                         _______ _______ _______ _____ _____    ______ ____

>  <TORSDO>
F 21

$$$$
=
 OpenBabel11062417583D

 40 41  0  0  1  0  0  0  0  0999 V2000
  190.4000  175.5140  143.2590 O   0  0  0  0  0  0  0  0  0  0  0  0
  189.6070  176.2480  142.6840 C   0  0  0  0  0  0  0  0  0  0  0  0
  191.3990  177.4110  141.3750 C   0  0  0  0  0  1  0  0  0  0  0  0
  189.9840  176.8380  141.3550 C   0  0  2  0  0  3  0  0  0  0  0  0
  188.9650  177.9060  140.9860 C   0  0  0  0  0  2  0  0  0  0  0  0
  188.1700  177.5320  139.7450 C   0  0  0  0  0  2  0  0  0  0  0  0
  188.9820  177.8320  138.4900 C   0  0  2  0  0  3  0  0  0  0  0  0
  188.9190  179.2630  138.2370 N   0  0  0  0  0  1  0  0  0  0  0  0
  188.4730  177.0510  137.2630 C   0  0  1  0  0  3  0  0  0  0  0  0
  188.9890  175.6050  137.2820 C   0  0  1  0  0  3  0  0  0  0  0  0
  187.9480  174.6720  137.1940 O   0  0  0  0  0  1  0  0  0  0  0  0
  190.1010  175.3350  136.2580 C   0  0  1  0  0  3  0  0  0  0  0  0
  190.0100  176.5170  134.8760 S   0  0  0  0  0  1  0  0  0  0  0  0
  193.4410  173.9400  137.3830 C   0  0  0  0  0  3  0  0  0  0  0  0
  192.1510  174.0390  136.8490 C   0  0  0  0  0  3  0  0  0  0  0  0
  193.4170  176.3100  137.8790 C   0  0  0  0  0  3  0  0  0  0  0  0
  191.4880  175.2690  136.8320 C   0  0  0  0  0  0  0  0  0  0  0  0
  194.0710  175.0740  137.9030 C   0  0  0  0  0  0  0  0  0  0  0  0
  192.1280  176.4100  137.3420 C   0  0  0  0  0  3  0  0  0  0  0  0
  195.3500  174.9780  138.4370 O   0  0  0  0  0  1  0  0  0  0  0  0
  186.5560  177.7610  136.0180 O   0  0  0  0  0  1  0  0  0  0  0  0
  186.9480  177.0820  137.1750 C   0  0  0  0  0  2  0  0  0  0  0  0
  188.2540  176.4950  143.2960 C   0  0  0  0  0  2  0  0  0  0  0  0
  188.3610  177.2150  144.6310 C   0  0  0  0  0  2  0  0  0  0  0  0
  186.7160  178.3290  146.0840 C   0  0  0  0  0  2  0  0  0  0  0  0
  187.0310  177.2750  145.3150 C   0  0  0  0  0  2  0  0  0  0  0  0
  186.1670  178.5220  145.2320 C   0  0  0  0  0  2  0  0  0  0  0  0
  184.9560  178.2500  144.5040 O   0  0  0  0  0  0  0  0  0  0  0  0
  185.0960  178.9270  143.2900 C   0  0  0  0  0  2  0  0  0  0  0  0
  184.3440  178.1800  142.2080 C   0  0  0  0  0  2  0  0  0  0  0  0
  183.5330  178.7760  139.8660 N   0  0  0  0  0  2  0  0  0  0  0  0
  184.5220  178.8710  140.8980 C   0  0  0  0  0  0  0  0  0  0  0  0
  185.5540  179.5670  140.7030 O   0  0  0  0  0  0  0  0  0  0  0  0
  182.2870  178.0350  140.0280 C   0  0  2  0  0  3  0  0  0  0  0  0
  183.0430  176.0680  138.8990 O   0  0  0  0  0  0  0  0  0  0  0  0
  181.7410  175.7470  139.3200 C   0  0  0  0  0  2  0  0  0  0  0  0
  182.0920  177.1040  138.8410 C   0  0  1  0  0  3  0  0  0  0  0  0
  181.1220  179.0070  140.1200 C   0  0  0  0  0  2  0  0  0  0  0  0
  180.9180  179.3850  141.4470 O   0  0  0  0  0  0  0  0  0  0  0  0
  180.3810  178.3260  142.0170 O   0  0  0  0  0  1  0  0  0  0  0  0
  2  1  2  0  0  0  0
  2 23  1  0  0  0  0
  4  3  1  1  0  0  0
  4  2  1  0  0  0  0
  5  4  1  0  0  0  0
  6  5  1  0  0  0  0
  7  8  1  6  0  0  0
  7  6  1  0  0  0  0
  9 22  1  1  0  0  0
  9 10  1  0  0  0  0
  9  7  1  0  0  0  0
 10 11  1  6  0  0  0
 12 13  1  6  0  0  0
 12 17  1  0  0  0  0
 12 10  1  0  0  0  0
 14 18  1  0  0  0  0
 15 14  2  0  0  0  0
 16 18  2  0  0  0  0
 17 15  1  0  0  0  0
 17 19  2  0  0  0  0
 18 20  1  0  0  0  0
 19 16  1  0  0  0  0
 21 22  1  0  0  0  0
 23 24  1  0  0  0  0
 24 26  1  0  0  0  0
 26 25  1  0  0  0  0
 27 25  1  0  0  0  0
 28 27  1  0  0  0  0
 29 28  1  0  0  0  0
 30 29  1  0  0  0  0
 31 34  1  0  0  0  0
 31 32  1  0  0  0  0
 32 30  1  0  0  0  0
 33 32  2  0  0  0  0
 34 38  1  6  0  0  0
 35 36  1  0  0  0  0
 37 35  1  0  0  0  0
 37 36  1  0  0  0  0
 37 34  1  1  0  0  0
 38 39  1  0  0  0  0
 39 40  1  0  0  0  0
M  END
>  <MODEL>
6

>  <REMARK>
 VINA RESULT:      -6.5      2.733      6.838
  Name = 
  21 active torsions:
  status: ('A' for Active; 'I' for Inactive)
    1  A    between atoms: C_1  and  C_21
    2  A    between atoms: C_1  and  N_27
    3  A    between atoms: C_1  and  C_34
    4  A    between atoms: C_2  and  O_11
    5  A    between atoms: C_2  and  C_29
    6  A    between atoms: C_3  and  C_23
    7  A    between atoms: C_3  and  C_39
    8  A    between atoms: C_4  and  C_8
    9  A    between atoms: C_4  and  C_36
   10  A    between atoms: C_8  and  C_32
   11  A    between atoms: O_10  and  C_21
   12  A    between atoms: O_11  and  C_16
   13  A    between atoms: C_13  and  C_31
   14  A    between atoms: C_13  and  C_35
   15  A    between atoms: C_16  and  C_39
   16  A    between atoms: C_20  and  C_23
   17  A    between atoms: C_20  and  C_35
   18  A    between atoms: C_22  and  C_36
   19  A    between atoms: C_24  and  C_31
   20  A    between atoms: C_24  and  C_36
   21  A    between atoms: C_28  and  C_29
                            x       y       z     vdW  Elec       q    Type
                         _______ _______ _______ _____ _____    ______ ____

>  <TORSDO>
F 21

$$$$
=
 OpenBabel11062417583D

 40 41  0  0  1  0  0  0  0  0999 V2000
  186.1320  178.4930  142.6030 O   0  0  0  0  0  0  0  0  0  0  0  0
  185.2800  178.5570  143.4790 C   0  0  0  0  0  0  0  0  0  0  0  0
  182.9360  178.8800  144.3050 C   0  0  0  0  0  1  0  0  0  0  0  0
  183.8880  178.9930  143.1180 C   0  0  2  0  0  3  0  0  0  0  0  0
  183.4020  178.1560  141.9430 C   0  0  0  0  0  2  0  0  0  0  0  0
  182.7560  179.0100  140.8630 C   0  0  0  0  0  2  0  0  0  0  0  0
  183.4860  178.8250  139.5380 C   0  0  2  0  0  3  0  0  0  0  0  0
  184.5910  179.7700  139.4900 N   0  0  0  0  0  1  0  0  0  0  0  0
  182.5590  179.0280  138.3250 C   0  0  1  0  0  3  0  0  0  0  0  0
  182.5000  177.7580  137.4630 C   0  0  1  0  0  3  0  0  0  0  0  0
  182.7290  178.0290  136.1080 O   0  0  0  0  0  1  0  0  0  0  0  0
  183.3870  176.6180  137.9850 C   0  0  1  0  0  3  0  0  0  0  0  0
  182.3820  175.1660  138.4290 S   0  0  0  0  0  1  0  0  0  0  0  0
  186.8220  176.5980  136.3830 C   0  0  0  0  0  3  0  0  0  0  0  0
  185.7420  176.9200  137.2120 C   0  0  0  0  0  3  0  0  0  0  0  0
  185.4810  174.9020  135.2920 C   0  0  0  0  0  3  0  0  0  0  0  0
  184.5270  176.2400  137.0830 C   0  0  0  0  0  0  0  0  0  0  0  0
  186.6900  175.5930  135.4200 C   0  0  0  0  0  0  0  0  0  0  0  0
  184.4010  175.2220  136.1240 C   0  0  0  0  0  3  0  0  0  0  0  0
  187.7600  175.2740  134.5940 O   0  0  0  0  0  1  0  0  0  0  0  0
  180.2020  178.6980  138.0750 O   0  0  0  0  0  1  0  0  0  0  0  0
  181.1570  179.4540  138.7590 C   0  0  0  0  0  2  0  0  0  0  0  0
  185.6310  178.1450  144.8830 C   0  0  0  0  0  2  0  0  0  0  0  0
  186.8940  177.2980  144.9230 C   0  0  0  0  0  2  0  0  0  0  0  0
  188.8180  177.1160  146.4470 C   0  0  0  0  0  2  0  0  0  0  0  0
  187.9140  177.8990  145.8380 C   0  0  0  0  0  2  0  0  0  0  0  0
  189.3860  177.5480  145.7020 C   0  0  0  0  0  2  0  0  0  0  0  0
  190.0840  178.5700  144.9690 O   0  0  0  0  0  0  0  0  0  0  0  0
  191.0680  177.8950  144.2420 C   0  0  0  0  0  2  0  0  0  0  0  0
  190.6940  177.8900  142.7740 C   0  0  0  0  0  2  0  0  0  0  0  0
  190.4650  176.1750  140.9020 N   0  0  0  0  0  2  0  0  0  0  0  0
  190.5260  176.4850  142.2990 C   0  0  0  0  0  0  0  0  0  0  0  0
  190.4550  175.5530  143.1440 O   0  0  0  0  0  0  0  0  0  0  0  0
  190.5910  177.1860  139.8580 C   0  0  2  0  0  3  0  0  0  0  0  0
  188.4060  178.1520  139.7860 O   0  0  0  0  0  0  0  0  0  0  0  0
  189.0610  178.6940  138.6680 C   0  0  0  0  0  2  0  0  0  0  0  0
  189.2810  177.2930  139.0940 C   0  0  1  0  0  3  0  0  0  0  0  0
  191.7150  176.8030  138.9090 C   0  0  0  0  0  2  0  0  0  0  0  0
  192.9490  177.1210  139.4740 O   0  0  0  0  0  0  0  0  0  0  0  0
  193.8350  176.5310  138.6970 O   0  0  0  0  0  1  0  0  0  0  0  0
  1  2  2  0  0  0  0
  2 23  1  0  0  0  0
  4  2  1  0  0  0  0
  4  3  1  1  0  0  0
  5  4  1  0  0  0  0
  6  5  1  0  0  0  0
  7  8  1  6  0  0  0
  7  6  1  0  0  0  0
  9 22  1  1  0  0  0
  9  7  1  0  0  0  0
 10 11  1  6  0  0  0
 10 12  1  0  0  0  0
 10  9  1  0  0  0  0
 12 13  1  6  0  0  0
 14 15  1  0  0  0  0
 16 18  1  0  0  0  0
 16 19  2  0  0  0  0
 17 15  2  0  0  0  0
 17 12  1  0  0  0  0
 18 14  2  0  0  0  0
 19 17  1  0  0  0  0
 20 18  1  0  0  0  0
 21 22  1  0  0  0  0
 23 24  1  0  0  0  0
 24 26  1  0  0  0  0
 26 25  1  0  0  0  0
 27 25  1  0  0  0  0
 28 27  1  0  0  0  0
 29 28  1  0  0  0  0
 30 29  1  0  0  0  0
 31 32  1  0  0  0  0
 32 30  1  0  0  0  0
 32 33  2  0  0  0  0
 34 38  1  6  0  0  0
 34 31  1  0  0  0  0
 36 37  1  0  0  0  0
 36 35  1  0  0  0  0
 37 35  1  0  0  0  0
 37 34  1  1  0  0  0
 38 39  1  0  0  0  0
 40 39  1  0  0  0  0
M  END
>  <MODEL>
7

>  <REMARK>
 VINA RESULT:      -6.5      1.748      2.031
  Name = 
  21 active torsions:
  status: ('A' for Active; 'I' for Inactive)
    1  A    between atoms: C_1  and  C_21
    2  A    between atoms: C_1  and  N_27
    3  A    between atoms: C_1  and  C_34
    4  A    between atoms: C_2  and  O_11
    5  A    between atoms: C_2  and  C_29
    6  A    between atoms: C_3  and  C_23
    7  A    between atoms: C_3  and  C_39
    8  A    between atoms: C_4  and  C_8
    9  A    between atoms: C_4  and  C_36
   10  A    between atoms: C_8  and  C_32
   11  A    between atoms: O_10  and  C_21
   12  A    between atoms: O_11  and  C_16
   13  A    between atoms: C_13  and  C_31
   14  A    between atoms: C_13  and  C_35
   15  A    between atoms: C_16  and  C_39
   16  A    between atoms: C_20  and  C_23
   17  A    between atoms: C_20  and  C_35
   18  A    between atoms: C_22  and  C_36
   19  A    between atoms: C_24  and  C_31
   20  A    between atoms: C_24  and  C_36
   21  A    between atoms: C_28  and  C_29
                            x       y       z     vdW  Elec       q    Type
                         _______ _______ _______ _____ _____    ______ ____

>  <TORSDO>
F 21

$$$$
=
 OpenBabel11062417583D

 40 41  0  0  1  0  0  0  0  0999 V2000
  184.3450  180.1290  139.3620 O   0  0  0  0  0  0  0  0  0  0  0  0
  184.8190  179.0710  139.7560 C   0  0  0  0  0  0  0  0  0  0  0  0
  186.2020  178.1400  137.8850 C   0  0  0  0  0  1  0  0  0  0  0  0
  184.9860  177.9370  138.7850 C   0  0  2  0  0  3  0  0  0  0  0  0
  183.7120  177.8020  137.9640 C   0  0  0  0  0  2  0  0  0  0  0  0
  182.5810  177.1740  138.7630 C   0  0  0  0  0  2  0  0  0  0  0  0
  182.6380  175.6550  138.6510 C   0  0  2  0  0  3  0  0  0  0  0  0
  183.3760  175.3130  137.4460 N   0  0  0  0  0  1  0  0  0  0  0  0
  181.2350  175.0190  138.6150 C   0  0  1  0  0  3  0  0  0  0  0  0
  180.1490  176.0960  138.4730 C   0  0  1  0  0  3  0  0  0  0  0  0
  179.4140  175.9510  137.2900 O   0  0  0  0  0  1  0  0  0  0  0  0
  179.2440  176.2230  139.7080 C   0  0  1  0  0  3  0  0  0  0  0  0
  179.3430  174.7270  140.7410 S   0  0  0  0  0  1  0  0  0  0  0  0
  180.0520  178.4730  142.6490 C   0  0  0  0  0  3  0  0  0  0  0  0
  179.8510  177.3360  141.8580 C   0  0  0  0  0  3  0  0  0  0  0  0
  179.4780  179.8840  140.7670 C   0  0  0  0  0  3  0  0  0  0  0  0
  179.4590  177.4670  140.5230 C   0  0  0  0  0  0  0  0  0  0  0  0
  179.8600  179.7470  142.1050 C   0  0  0  0  0  0  0  0  0  0  0  0
  179.2790  178.7470  139.9750 C   0  0  0  0  0  3  0  0  0  0  0  0
  180.0560  180.8760  142.8880 O   0  0  0  0  0  1  0  0  0  0  0  0
  180.4130  172.8690  137.9590 O   0  0  0  0  0  1  0  0  0  0  0  0
  181.1210  173.9820  137.4980 C   0  0  0  0  0  2  0  0  0  0  0  0
  185.2730  178.9530  141.1850 C   0  0  0  0  0  2  0  0  0  0  0  0
  184.1200  178.6200  142.1190 C   0  0  0  0  0  2  0  0  0  0  0  0
  183.4680  179.0030  144.4610 C   0  0  0  0  0  2  0  0  0  0  0  0
  184.2850  179.3040  143.4390 C   0  0  0  0  0  2  0  0  0  0  0  0
  184.3300  178.5050  144.7310 C   0  0  0  0  0  2  0  0  0  0  0  0
  185.0190  179.2400  145.7570 O   0  0  0  0  0  0  0  0  0  0  0  0
  185.6010  178.2710  146.5780 C   0  0  0  0  0  2  0  0  0  0  0  0
  186.9050  178.8020  147.1380 C   0  0  0  0  0  2  0  0  0  0  0  0
  188.7240  177.2020  146.3480 N   0  0  0  0  0  2  0  0  0  0  0  0
  187.8490  177.6720  147.3800 C   0  0  0  0  0  0  0  0  0  0  0  0
  187.8910  177.1350  148.5180 O   0  0  0  0  0  0  0  0  0  0  0  0
  188.7770  177.8010  145.0180 C   0  0  2  0  0  3  0  0  0  0  0  0
  187.1260  176.9790  143.4980 O   0  0  0  0  0  0  0  0  0  0  0  0
  188.1770  177.4050  142.6700 C   0  0  0  0  0  2  0  0  0  0  0  0
  188.4310  176.7510  143.9740 C   0  0  1  0  0  3  0  0  0  0  0  0
  190.1720  178.3480  144.7600 C   0  0  0  0  0  2  0  0  0  0  0  0
  191.0590  177.3010  144.5130 O   0  0  0  0  0  0  0  0  0  0  0  0
  191.7550  177.6920  143.4640 O   0  0  0  0  0  1  0  0  0  0  0  0
  1  2  2  0  0  0  0
  2 23  1  0  0  0  0
  4  3  1  6  0  0  0
  4  2  1  0  0  0  0
  5  6  1  0  0  0  0
  5  4  1  0  0  0  0
  7  8  1  6  0  0  0
  7  6  1  0  0  0  0
  9 22  1  6  0  0  0
  9  7  1  0  0  0  0
 10 11  1  6  0  0  0
 10  9  1  0  0  0  0
 10 12  1  0  0  0  0
 12 17  1  0  0  0  0
 12 13  1  1  0  0  0
 15 14  2  0  0  0  0
 16 18  2  0  0  0  0
 17 15  1  0  0  0  0
 18 14  1  0  0  0  0
 18 20  1  0  0  0  0
 19 17  2  0  0  0  0
 19 16  1  0  0  0  0
 22 21  1  0  0  0  0
 23 24  1  0  0  0  0
 24 26  1  0  0  0  0
 25 27  1  0  0  0  0
 26 25  1  0  0  0  0
 27 28  1  0  0  0  0
 28 29  1  0  0  0  0
 29 30  1  0  0  0  0
 30 32  1  0  0  0  0
 31 32  1  0  0  0  0
 32 33  2  0  0  0  0
 34 38  1  6  0  0  0
 34 31  1  0  0  0  0
 35 37  1  0  0  0  0
 36 35  1  0  0  0  0
 36 37  1  0  0  0  0
 37 34  1  1  0  0  0
 39 38  1  0  0  0  0
 40 39  1  0  0  0  0
M  END
>  <MODEL>
8

>  <REMARK>
 VINA RESULT:      -6.3      3.011      5.997
  Name = 
  21 active torsions:
  status: ('A' for Active; 'I' for Inactive)
    1  A    between atoms: C_1  and  C_21
    2  A    between atoms: C_1  and  N_27
    3  A    between atoms: C_1  and  C_34
    4  A    between atoms: C_2  and  O_11
    5  A    between atoms: C_2  and  C_29
    6  A    between atoms: C_3  and  C_23
    7  A    between atoms: C_3  and  C_39
    8  A    between atoms: C_4  and  C_8
    9  A    between atoms: C_4  and  C_36
   10  A    between atoms: C_8  and  C_32
   11  A    between atoms: O_10  and  C_21
   12  A    between atoms: O_11  and  C_16
   13  A    between atoms: C_13  and  C_31
   14  A    between atoms: C_13  and  C_35
   15  A    between atoms: C_16  and  C_39
   16  A    between atoms: C_20  and  C_23
   17  A    between atoms: C_20  and  C_35
   18  A    between atoms: C_22  and  C_36
   19  A    between atoms: C_24  and  C_31
   20  A    between atoms: C_24  and  C_36
   21  A    between atoms: C_28  and  C_29
                            x       y       z     vdW  Elec       q    Type
                         _______ _______ _______ _____ _____    ______ ____

>  <TORSDO>
F 21

$$$$
=
 OpenBabel11062417583D

 40 41  0  0  1  0  0  0  0  0999 V2000
  185.6520  179.7640  146.2350 O   0  0  0  0  0  0  0  0  0  0  0  0
  185.8790  178.6320  145.8300 C   0  0  0  0  0  0  0  0  0  0  0  0
  186.5370  177.8740  143.5340 C   0  0  0  0  0  1  0  0  0  0  0  0
  185.3840  178.2280  144.4700 C   0  0  2  0  0  3  0  0  0  0  0  0
  184.5420  179.3600  143.8980 C   0  0  0  0  0  2  0  0  0  0  0  0
  183.0630  179.0090  143.8660 C   0  0  0  0  0  2  0  0  0  0  0  0
  182.6610  178.5510  142.4690 C   0  0  2  0  0  3  0  0  0  0  0  0
  183.6770  179.0010  141.5300 N   0  0  0  0  0  1  0  0  0  0  0  0
  181.2770  179.0860  142.0520 C   0  0  1  0  0  3  0  0  0  0  0  0
  180.4160  177.9650  141.4510 C   0  0  1  0  0  3  0  0  0  0  0  0
  179.1730  177.8560  142.0890 O   0  0  0  0  0  1  0  0  0  0  0  0
  180.2810  178.0450  139.9240 C   0  0  1  0  0  3  0  0  0  0  0  0
  179.9430  179.7540  139.3910 S   0  0  0  0  0  1  0  0  0  0  0  0
  183.0080  177.6260  137.3260 C   0  0  0  0  0  3  0  0  0  0  0  0
  181.9470  178.1560  138.0680 C   0  0  0  0  0  3  0  0  0  0  0  0
  183.0410  175.6770  138.7620 C   0  0  0  0  0  3  0  0  0  0  0  0
  181.4260  177.4490  139.1550 C   0  0  0  0  0  0  0  0  0  0  0  0
  183.5520  176.3850  137.6690 C   0  0  0  0  0  0  0  0  0  0  0  0
  181.9820  176.2080  139.5070 C   0  0  0  0  0  3  0  0  0  0  0  0
  184.6030  175.8560  136.9320 O   0  0  0  0  0  1  0  0  0  0  0  0
  179.8150  180.8410  142.7650 O   0  0  0  0  0  1  0  0  0  0  0  0
  180.5600  179.7520  143.2260 C   0  0  0  0  0  2  0  0  0  0  0  0
  186.6930  177.6930  146.6780 C   0  0  0  0  0  2  0  0  0  0  0  0
  187.8740  177.1190  145.9100 C   0  0  0  0  0  2  0  0  0  0  0  0
  190.2890  177.5090  145.6460 C   0  0  2  0  0  3  0  0  0  0  0  0
  189.1310  177.8690  146.2210 C   0  0  0  0  0  2  0  0  0  0  0  0
  190.0440  178.3540  145.1070 C   0  0  0  0  0  1  0  0  0  0  0  0
  191.0940  177.4000  144.8630 O   0  0  0  0  0  0  0  0  0  0  0  0
  191.6210  177.7440  143.6160 C   0  0  0  0  0  2  0  0  0  0  0  0
  190.5130  177.7330  142.5820 C   0  0  0  0  0  2  0  0  0  0  0  0
  190.2950  176.0540  140.6770 N   0  0  0  0  0  2  0  0  0  0  0  0
  190.3030  176.3430  142.0800 C   0  0  0  0  0  0  0  0  0  0  0  0
  190.1500  175.4050  142.9060 O   0  0  0  0  0  0  0  0  0  0  0  0
  190.5160  177.0710  139.6550 C   0  0  2  0  0  3  0  0  0  0  0  0
  188.3520  178.0870  139.6310 O   0  0  0  0  0  0  0  0  0  0  0  0
  189.0520  178.7370  138.6000 C   0  0  0  0  0  2  0  0  0  0  0  0
  189.2320  177.2920  138.8710 C   0  0  1  0  0  3  0  0  0  0  0  0
  191.6250  176.6200  138.7170 C   0  0  0  0  0  2  0  0  0  0  0  0
  191.0970  175.8300  137.6970 O   0  0  0  0  0  0  0  0  0  0  0  0
  191.5220  174.6120  137.9630 O   0  0  0  0  0  1  0  0  0  0  0  0
  2  1  2  0  0  0  0
  2 23  1  0  0  0  0
  4  3  1  6  0  0  0
  4  2  1  0  0  0  0
  5  4  1  0  0  0  0
  6  5  1  0  0  0  0
  7  8  1  6  0  0  0
  7  6  1  0  0  0  0
  9  7  1  0  0  0  0
  9 22  1  1  0  0  0
 10  9  1  0  0  0  0
 10 11  1  1  0  0  0
 12 13  1  1  0  0  0
 12 10  1  0  0  0  0
 14 18  2  0  0  0  0
 14 15  1  0  0  0  0
 15 17  2  0  0  0  0
 16 19  2  0  0  0  0
 17 19  1  0  0  0  0
 17 12  1  0  0  0  0
 18 16  1  0  0  0  0
 20 18  1  0  0  0  0
 21 22  1  0  0  0  0
 24 26  1  0  0  0  0
 24 23  1  0  0  0  0
 25 27  1  1  0  0  0
 25 26  1  0  0  0  0
 28 25  1  0  0  0  0
 29 28  1  0  0  0  0
 30 29  1  0  0  0  0
 31 32  1  0  0  0  0
 32 30  1  0  0  0  0
 32 33  2  0  0  0  0
 34 38  1  6  0  0  0
 34 31  1  0  0  0  0
 36 37  1  0  0  0  0
 36 35  1  0  0  0  0
 37 35  1  0  0  0  0
 37 34  1  1  0  0  0
 39 40  1  0  0  0  0
 39 38  1  0  0  0  0
M  END
>  <MODEL>
9

>  <REMARK>
 VINA RESULT:      -6.3      2.132      2.906
  Name = 
  21 active torsions:
  status: ('A' for Active; 'I' for Inactive)
    1  A    between atoms: C_1  and  C_21
    2  A    between atoms: C_1  and  N_27
    3  A    between atoms: C_1  and  C_34
    4  A    between atoms: C_2  and  O_11
    5  A    between atoms: C_2  and  C_29
    6  A    between atoms: C_3  and  C_23
    7  A    between atoms: C_3  and  C_39
    8  A    between atoms: C_4  and  C_8
    9  A    between atoms: C_4  and  C_36
   10  A    between atoms: C_8  and  C_32
   11  A    between atoms: O_10  and  C_21
   12  A    between atoms: O_11  and  C_16
   13  A    between atoms: C_13  and  C_31
   14  A    between atoms: C_13  and  C_35
   15  A    between atoms: C_16  and  C_39
   16  A    between atoms: C_20  and  C_23
   17  A    between atoms: C_20  and  C_35
   18  A    between atoms: C_22  and  C_36
   19  A    between atoms: C_24  and  C_31
   20  A    between atoms: C_24  and  C_36
   21  A    between atoms: C_28  and  C_29
                            x       y       z     vdW  Elec       q    Type
                         _______ _______ _______ _____ _____    ______ ____

>  <TORSDO>
F 21

$$$$
