=
 OpenBabel11062417523D

 39 43  0  0  1  0  0  0  0  0999 V2000
  183.4500  178.4300  138.3030 C   0  0  0  0  0  0  0  0  0  0  0  0
  191.1250  175.8320  136.6310 C   0  0  0  0  0  0  0  0  0  0  0  0
  184.6720  177.8280  138.2350 C   0  0  0  0  0  0  0  0  0  0  0  0
  190.3770  175.3900  135.5440 C   0  0  0  0  0  3  0  0  0  0  0  0
  188.4560  177.7540  141.5570 C   0  0  0  0  0  2  0  0  0  0  0  0
  185.6420  177.9970  139.2140 C   0  0  0  0  0  3  0  0  0  0  0  0
  193.6670  177.3100  140.0990 Cl  0  0  0  0  0  0  0  0  0  0  0  0
  185.3200  178.8120  140.3200 C   0  0  1  0  0  3  0  0  0  0  0  0
  187.4370  177.7900  135.5410 C   0  0  0  0  0  2  0  0  0  0  0  0
  189.0000  178.7620  137.8410 C   0  0  0  0  0  0  0  0  0  0  0  0
  184.6490  177.1060  137.0710 C   0  0  0  0  0  0  0  0  0  0  0  0
  188.7820  179.8380  137.2250 O   0  0  0  0  0  0  0  0  0  0  0  0
  186.3130  176.7980  135.2580 C   0  0  0  0  0  2  0  0  0  0  0  0
  188.8180  178.7380  139.2640 N   0  0  0  0  0  2  0  0  0  0  0  0
  183.4460  177.2850  136.4760 N   0  0  0  0  0  0  0  0  0  0  0  0
  188.6460  176.4190  139.5970 O   0  0  0  0  0  0  0  0  0  0  0  0
  185.2430  174.9490  136.3100 O   0  0  0  0  0  1  0  0  0  0  0  0
  185.7420  176.2300  136.5470 C   0  0  2  0  0  3  0  0  0  0  0  0
  181.5290  180.0240  139.4690 Cl  0  0  0  0  0  0  0  0  0  0  0  0
  189.1860  176.0300  135.2100 C   0  0  0  0  0  3  0  0  0  0  0  0
  188.7110  177.1100  135.9670 C   0  0  0  0  0  0  0  0  0  0  0  0
  182.7090  178.0980  137.2300 N   0  0  0  0  0  0  0  0  0  0  0  0
  191.4890  177.3860  138.4600 C   0  0  0  0  0  3  0  0  0  0  0  0
  186.3320  179.0780  141.3880 C   0  0  0  0  0  2  0  0  0  0  0  0
  189.4610  177.5770  137.0750 C   0  0  0  0  0  0  0  0  0  0  0  0
  192.6880  176.7410  138.7660 C   0  0  0  0  0  0  0  0  0  0  0  0
  184.0560  179.4410  140.3920 C   0  0  0  0  0  3  0  0  0  0  0  0
  188.6750  177.5770  140.0930 C   0  0  0  0  0  0  0  0  0  0  0  0
  183.0990  179.2490  139.3760 C   0  0  0  0  0  0  0  0  0  0  0  0
  193.1060  175.6430  138.0120 C   0  0  0  0  0  3  0  0  0  0  0  0
  186.9660  177.7840  141.8860 C   0  0  2  0  0  3  0  0  0  0  0  0
  192.3270  175.1910  136.9430 C   0  0  0  0  0  3  0  0  0  0  0  0
  190.6830  176.9370  137.3990 C   0  0  0  0  0  0  0  0  0  0  0  0
  186.7580  177.6720  143.3870 C   0  0  0  0  0  2  0  0  0  0  0  0
  188.0890  177.5800  144.1230 C   0  0  0  0  0  2  0  0  0  0  0  0
  187.9100  177.7790  145.6230 C   0  0  0  0  0  2  0  0  0  0  0  0
  186.4850  177.4640  146.0610 C   0  0  0  0  0  2  0  0  0  0  0  0
  184.6240  178.8730  146.5630 O   0  0  0  0  0  1  0  0  0  0  0  0
  185.9280  178.5630  146.9510 C   0  0  0  0  0  2  0  0  0  0  0  0
  1 29  1  0  0  0  0
  2 32  2  0  0  0  0
  2 33  1  0  0  0  0
  3  1  1  0  0  0  0
  3  6  2  0  0  0  0
  4  2  1  0  0  0  0
  5 31  1  0  0  0  0
  8  6  1  6  0  0  0
  8 27  1  0  0  0  0
  8 24  1  0  0  0  0
  9 21  1  0  0  0  0
 10 14  1  0  0  0  0
 11  3  1  0  0  0  0
 12 10  2  0  0  0  0
 13  9  1  0  0  0  0
 13 18  1  0  0  0  0
 14 28  1  0  0  0  0
 15 11  2  0  0  0  0
 15 22  1  0  0  0  0
 16 28  2  0  0  0  0
 18 17  1  6  0  0  0
 18 11  1  0  0  0  0
 20  4  2  0  0  0  0
 20 21  1  0  0  0  0
 21 25  2  0  0  0  0
 22  1  2  0  0  0  0
 23 26  1  0  0  0  0
 24 31  1  0  0  0  0
 25 33  1  0  0  0  0
 25 10  1  0  0  0  0
 26  7  1  0  0  0  0
 28  5  1  0  0  0  0
 29 19  1  0  0  0  0
 29 27  2  0  0  0  0
 30 26  2  0  0  0  0
 31 34  1  1  0  0  0
 32 30  1  0  0  0  0
 33 23  2  0  0  0  0
 34 35  1  0  0  0  0
 35 36  1  0  0  0  0
 36 37  1  0  0  0  0
 37 39  1  0  0  0  0
 38 39  1  0  0  0  0
M  END
>  <MODEL>
1

>  <REMARK>
 VINA RESULT:      -8.3      0.000      0.000
  Name = 
  5 active torsions:
  status: ('A' for Active; 'I' for Inactive)
    1  A    between atoms: C_5  and  C_11
    2  A    between atoms: C_5  and  C_36
    3  A    between atoms: C_11  and  C_19
    4  A    between atoms: C_19  and  C_38
    5  A    between atoms: C_31  and  C_38
                            x       y       z     vdW  Elec       q    Type
                         _______ _______ _______ _____ _____    ______ ____

>  <TORSDO>
F 5

$$$$
=
 OpenBabel11062417523D

 39 43  0  0  1  0  0  0  0  0999 V2000
  186.6620  178.1740  138.9190 C   0  0  0  0  0  0  0  0  0  0  0  0
  188.5160  177.9050  146.9780 C   0  0  0  0  0  0  0  0  0  0  0  0
  187.1590  178.3130  140.1810 C   0  0  1  0  0  3  0  0  0  0  0  0
  187.2820  178.5450  146.9390 C   0  0  0  0  0  3  0  0  0  0  0  0
  191.7010  177.1760  142.0360 C   0  0  0  0  0  2  0  0  0  0  0  0
  188.4170  177.8500  140.5430 C   0  0  0  0  0  3  0  0  0  0  0  0
  192.5120  175.7460  147.2110 Cl  0  0  0  0  0  0  0  0  0  0  0  0
  189.1980  177.2310  139.5440 C   0  0  0  0  0  0  0  0  0  0  0  0
  185.8210  177.3100  143.6620 C   0  0  0  0  0  2  0  0  0  0  0  0
  188.4220  175.9290  143.7140 C   0  0  0  0  0  0  0  0  0  0  0  0
  186.1770  178.9630  140.8820 C   0  0  0  0  0  0  0  0  0  0  0  0
  187.6490  174.9760  143.4340 O   0  0  0  0  0  0  0  0  0  0  0  0
  185.2310  178.6210  143.1480 C   0  0  0  0  0  2  0  0  0  0  0  0
  189.6450  176.0580  142.9760 N   0  0  0  0  0  2  0  0  0  0  0  0
  185.1330  179.1920  140.0500 N   0  0  0  0  0  0  0  0  0  0  0  0
  190.1530  178.3020  143.4490 O   0  0  0  0  0  0  0  0  0  0  0  0
  185.9770  180.7570  142.4070 O   0  0  0  0  0  1  0  0  0  0  0  0
  186.2410  179.3900  142.3140 C   0  0  2  0  0  3  0  0  0  0  0  0
  186.7660  177.3790  136.2830 Cl  0  0  0  0  0  0  0  0  0  0  0  0
  186.4260  178.3460  145.8580 C   0  0  0  0  0  3  0  0  0  0  0  0
  186.7970  177.5210  144.7880 C   0  0  0  0  0  0  0  0  0  0  0  0
  185.4290  178.7080  138.8450 N   0  0  0  0  0  0  0  0  0  0  0  0
  190.1410  176.3780  146.0190 C   0  0  0  0  0  3  0  0  0  0  0  0
  190.5420  176.6640  139.8720 C   0  0  0  0  0  2  0  0  0  0  0  0
  188.0490  176.8580  144.8110 C   0  0  0  0  0  0  0  0  0  0  0  0
  190.9760  176.5780  147.1200 C   0  0  0  0  0  0  0  0  0  0  0  0
  188.6840  177.0800  138.2350 C   0  0  0  0  0  3  0  0  0  0  0  0
  190.4780  177.2220  142.8890 C   0  0  0  0  0  0  0  0  0  0  0  0
  187.4000  177.5600  137.9090 C   0  0  0  0  0  0  0  0  0  0  0  0
  190.5860  177.4390  148.1470 C   0  0  0  0  0  3  0  0  0  0  0  0
  191.4000  177.6740  140.6250 C   0  0  2  0  0  3  0  0  0  0  0  0
  189.3570  178.1000  148.0780 C   0  0  0  0  0  3  0  0  0  0  0  0
  188.9080  177.0450  145.9230 C   0  0  0  0  0  0  0  0  0  0  0  0
  192.6950  177.8970  139.8610 C   0  0  0  0  0  2  0  0  0  0  0  0
  193.1730  176.6100  139.2000 C   0  0  0  0  0  2  0  0  0  0  0  0
  193.3000  176.7760  137.6890 C   0  0  0  0  0  2  0  0  0  0  0  0
  192.2600  175.9450  136.9480 C   0  0  0  0  0  2  0  0  0  0  0  0
  191.0090  174.0270  137.6230 O   0  0  0  0  0  1  0  0  0  0  0  0
  192.3030  174.4910  137.3890 C   0  0  0  0  0  2  0  0  0  0  0  0
  1  3  1  0  0  0  0
  2 32  1  0  0  0  0
  3  6  1  6  0  0  0
  3 11  1  0  0  0  0
  4  2  1  0  0  0  0
  5 28  1  0  0  0  0
  8 24  1  0  0  0  0
  8  6  2  0  0  0  0
  9 21  1  0  0  0  0
 10 25  1  0  0  0  0
 11 18  1  0  0  0  0
 12 10  2  0  0  0  0
 13  9  1  0  0  0  0
 14 10  1  0  0  0  0
 15 11  2  0  0  0  0
 18 17  1  6  0  0  0
 18 13  1  0  0  0  0
 19 29  1  0  0  0  0
 20  4  2  0  0  0  0
 21 25  2  0  0  0  0
 21 20  1  0  0  0  0
 22  1  2  0  0  0  0
 22 15  1  0  0  0  0
 23 26  2  0  0  0  0
 24 31  1  0  0  0  0
 25 33  1  0  0  0  0
 26  7  1  0  0  0  0
 26 30  1  0  0  0  0
 27  8  1  0  0  0  0
 28 14  1  0  0  0  0
 28 16  2  0  0  0  0
 29 27  2  0  0  0  0
 29  1  1  0  0  0  0
 31 34  1  6  0  0  0
 31  5  1  0  0  0  0
 32 30  2  0  0  0  0
 33 23  1  0  0  0  0
 33  2  2  0  0  0  0
 35 34  1  0  0  0  0
 36 35  1  0  0  0  0
 37 39  1  0  0  0  0
 37 36  1  0  0  0  0
 39 38  1  0  0  0  0
M  END
>  <MODEL>
2

>  <REMARK>
 VINA RESULT:      -7.8      3.011      7.720
  Name = 
  5 active torsions:
  status: ('A' for Active; 'I' for Inactive)
    1  A    between atoms: C_5  and  C_11
    2  A    between atoms: C_5  and  C_36
    3  A    between atoms: C_11  and  C_19
    4  A    between atoms: C_19  and  C_38
    5  A    between atoms: C_31  and  C_38
                            x       y       z     vdW  Elec       q    Type
                         _______ _______ _______ _____ _____    ______ ____

>  <TORSDO>
F 5

$$$$
=
 OpenBabel11062417523D

 39 43  0  0  1  0  0  0  0  0999 V2000
  185.3250  176.9550  137.7070 C   0  0  0  0  0  0  0  0  0  0  0  0
  191.9650  172.5730  135.4350 C   0  0  0  0  0  0  0  0  0  0  0  0
  186.4370  176.1740  137.5990 C   0  0  0  0  0  0  0  0  0  0  0  0
  190.8950  171.8560  134.9100 C   0  0  0  0  0  3  0  0  0  0  0  0
  191.0730  176.8310  139.4550 C   0  0  0  0  0  2  0  0  0  0  0  0
  187.6730  176.5630  138.0970 C   0  0  0  0  0  3  0  0  0  0  0  0
  195.5320  174.8940  137.0380 Cl  0  0  0  0  0  0  0  0  0  0  0  0
  187.7510  177.8100  138.7520 C   0  0  1  0  0  3  0  0  0  0  0  0
  188.2040  174.5130  134.5940 C   0  0  0  0  0  2  0  0  0  0  0  0
  190.4520  176.0670  135.6930 C   0  0  0  0  0  0  0  0  0  0  0  0
  186.0190  175.0450  136.9440 C   0  0  0  0  0  0  0  0  0  0  0  0
  190.0940  176.8040  134.7380 O   0  0  0  0  0  0  0  0  0  0  0  0
  187.0090  173.7120  135.1030 C   0  0  0  0  0  2  0  0  0  0  0  0
  190.7290  176.6770  136.9620 N   0  0  0  0  0  2  0  0  0  0  0  0
  184.6970  175.1690  136.6750 N   0  0  0  0  0  0  0  0  0  0  0  0
  190.5790  174.7860  138.3460 O   0  0  0  0  0  0  0  0  0  0  0  0
  186.2540  172.7010  137.1220 O   0  0  0  0  0  1  0  0  0  0  0  0
  186.8530  173.8510  136.6080 C   0  0  2  0  0  3  0  0  0  0  0  0
  183.9380  179.2060  138.4810 Cl  0  0  0  0  0  0  0  0  0  0  0  0
  189.6860  172.4970  134.6510 C   0  0  0  0  0  3  0  0  0  0  0  0
  189.5190  173.8610  134.9280 C   0  0  0  0  0  0  0  0  0  0  0  0
  184.2700  176.3410  137.1410 N   0  0  0  0  0  0  0  0  0  0  0  0
  192.9510  174.6600  136.1860 C   0  0  0  0  0  3  0  0  0  0  0  0
  189.0590  178.3160  139.2710 C   0  0  0  0  0  2  0  0  0  0  0  0
  190.5990  174.6090  135.4590 C   0  0  0  0  0  0  0  0  0  0  0  0
  194.1590  174.0020  136.4230 C   0  0  0  0  0  0  0  0  0  0  0  0
  186.6010  178.6250  138.8620 C   0  0  0  0  0  3  0  0  0  0  0  0
  190.8090  176.0190  138.2330 C   0  0  0  0  0  0  0  0  0  0  0  0
  185.3650  178.1970  138.3380 C   0  0  0  0  0  0  0  0  0  0  0  0
  194.2730  172.6330  136.1710 C   0  0  0  0  0  3  0  0  0  0  0  0
  189.7660  177.2610  140.1160 C   0  0  2  0  0  3  0  0  0  0  0  0
  193.1780  171.9210  135.6740 C   0  0  0  0  0  3  0  0  0  0  0  0
  191.8340  173.9580  135.7020 C   0  0  0  0  0  0  0  0  0  0  0  0
  190.0390  177.8300  141.4980 C   0  0  0  0  0  2  0  0  0  0  0  0
  189.5220  176.9010  142.5890 C   0  0  0  0  0  2  0  0  0  0  0  0
  190.6070  176.5880  143.6130 C   0  0  0  0  0  2  0  0  0  0  0  0
  190.3530  177.3070  144.9310 C   0  0  0  0  0  2  0  0  0  0  0  0
  188.2570  177.3120  146.0750 O   0  0  0  0  0  1  0  0  0  0  0  0
  188.9390  177.8630  144.9910 C   0  0  0  0  0  2  0  0  0  0  0  0
  1 29  1  0  0  0  0
  2 32  2  0  0  0  0
  2 33  1  0  0  0  0
  3  1  1  0  0  0  0
  3  6  2  0  0  0  0
  4  2  1  0  0  0  0
  5 31  1  0  0  0  0
  8  6  1  6  0  0  0
  8 27  1  0  0  0  0
  8 24  1  0  0  0  0
  9 21  1  0  0  0  0
  9 13  1  0  0  0  0
 10 14  1  0  0  0  0
 11  3  1  0  0  0  0
 12 10  2  0  0  0  0
 13 18  1  0  0  0  0
 14 28  1  0  0  0  0
 15 11  2  0  0  0  0
 15 22  1  0  0  0  0
 18 11  1  0  0  0  0
 18 17  1  6  0  0  0
 20  4  2  0  0  0  0
 20 21  1  0  0  0  0
 21 25  2  0  0  0  0
 22  1  2  0  0  0  0
 23 26  1  0  0  0  0
 24 31  1  0  0  0  0
 25 10  1  0  0  0  0
 25 33  1  0  0  0  0
 26  7  1  0  0  0  0
 28 16  2  0  0  0  0
 28  5  1  0  0  0  0
 29 19  1  0  0  0  0
 29 27  2  0  0  0  0
 30 26  2  0  0  0  0
 31 34  1  1  0  0  0
 32 30  1  0  0  0  0
 33 23  2  0  0  0  0
 34 35  1  0  0  0  0
 35 36  1  0  0  0  0
 36 37  1  0  0  0  0
 37 39  1  0  0  0  0
 39 38  1  0  0  0  0
M  END
>  <MODEL>
3

>  <REMARK>
 VINA RESULT:      -6.5      2.408      3.342
  Name = 
  5 active torsions:
  status: ('A' for Active; 'I' for Inactive)
    1  A    between atoms: C_5  and  C_11
    2  A    between atoms: C_5  and  C_36
    3  A    between atoms: C_11  and  C_19
    4  A    between atoms: C_19  and  C_38
    5  A    between atoms: C_31  and  C_38
                            x       y       z     vdW  Elec       q    Type
                         _______ _______ _______ _____ _____    ______ ____

>  <TORSDO>
F 5

$$$$
=
 OpenBabel11062417523D

 39 43  0  0  1  0  0  0  0  0999 V2000
  184.6240  178.8670  140.9620 C   0  0  0  0  0  0  0  0  0  0  0  0
  189.7970  175.9130  135.2200 C   0  0  0  0  0  0  0  0  0  0  0  0
  185.4910  178.1620  140.1800 C   0  0  0  0  0  0  0  0  0  0  0  0
  188.5550  175.8960  134.5940 C   0  0  0  0  0  3  0  0  0  0  0  0
  190.2160  176.6730  141.0800 C   0  0  0  0  0  2  0  0  0  0  0  0
  186.8060  177.9230  140.5530 C   0  0  0  0  0  3  0  0  0  0  0  0
  193.9110  176.0120  137.1560 Cl  0  0  0  0  0  0  0  0  0  0  0  0
  187.2330  178.4220  141.8020 C   0  0  1  0  0  3  0  0  0  0  0  0
  186.6320  178.5460  136.5110 C   0  0  0  0  0  2  0  0  0  0  0  0
  189.2520  178.6190  137.8550 C   0  0  0  0  0  0  0  0  0  0  0  0
  184.7660  177.8090  139.0720 C   0  0  0  0  0  0  0  0  0  0  0  0
  189.0540  179.8450  137.6450 O   0  0  0  0  0  0  0  0  0  0  0  0
  185.2940  177.8240  136.6500 C   0  0  0  0  0  2  0  0  0  0  0  0
  189.7330  178.2150  139.1450 N   0  0  0  0  0  2  0  0  0  0  0  0
  183.5100  178.3000  139.2050 N   0  0  0  0  0  0  0  0  0  0  0  0
  189.1620  175.9380  139.0780 O   0  0  0  0  0  0  0  0  0  0  0  0
  184.3950  175.9020  137.7280 O   0  0  0  0  0  1  0  0  0  0  0  0
  185.2470  176.9890  137.9180 C   0  0  2  0  0  3  0  0  0  0  0  0
  183.9020  180.2910  143.2070 Cl  0  0  0  0  0  0  0  0  0  0  0  0
  187.5430  176.7480  135.0270 C   0  0  0  0  0  3  0  0  0  0  0  0
  187.7460  177.6190  136.1060 C   0  0  0  0  0  0  0  0  0  0  0  0
  183.4220  178.9500  140.3630 N   0  0  0  0  0  0  0  0  0  0  0  0
  191.3220  176.8240  136.8750 C   0  0  0  0  0  3  0  0  0  0  0  0
  188.6490  178.2450  142.2480 C   0  0  0  0  0  2  0  0  0  0  0  0
  189.0060  177.6530  136.7550 C   0  0  0  0  0  0  0  0  0  0  0  0
  192.3280  175.9730  136.4130 C   0  0  0  0  0  0  0  0  0  0  0  0
  186.3390  179.1580  142.6130 C   0  0  0  0  0  3  0  0  0  0  0  0
  189.6980  176.8930  139.7000 C   0  0  0  0  0  0  0  0  0  0  0  0
  185.0120  179.3850  142.1970 C   0  0  0  0  0  0  0  0  0  0  0  0
  192.0720  175.0920  135.3610 C   0  0  0  0  0  3  0  0  0  0  0  0
  189.0960  176.7940  142.1090 C   0  0  2  0  0  3  0  0  0  0  0  0
  190.8100  175.0640  134.7630 C   0  0  0  0  0  3  0  0  0  0  0  0
  190.0410  176.8000  136.2980 C   0  0  0  0  0  0  0  0  0  0  0  0
  189.5690  176.2860  143.4610 C   0  0  0  0  0  2  0  0  0  0  0  0
  188.7870  176.9330  144.5970 C   0  0  0  0  0  2  0  0  0  0  0  0
  189.6560  177.1170  145.8370 C   0  0  0  0  0  2  0  0  0  0  0  0
  191.1380  177.0210  145.4970 C   0  0  0  0  0  2  0  0  0  0  0  0
  192.0190  176.9980  147.7160 O   0  0  0  0  0  1  0  0  0  0  0  0
  191.8940  176.2350  146.5550 C   0  0  0  0  0  2  0  0  0  0  0  0
  1 29  1  0  0  0  0
  2 33  1  0  0  0  0
  3  6  2  0  0  0  0
  3  1  1  0  0  0  0
  4 20  2  0  0  0  0
  4  2  1  0  0  0  0
  5 31  1  0  0  0  0
  8  6  1  6  0  0  0
  8 24  1  0  0  0  0
  8 27  1  0  0  0  0
  9 13  1  0  0  0  0
 10 14  1  0  0  0  0
 11 15  2  0  0  0  0
 11  3  1  0  0  0  0
 12 10  2  0  0  0  0
 13 18  1  0  0  0  0
 14 28  1  0  0  0  0
 15 22  1  0  0  0  0
 16 28  2  0  0  0  0
 18 17  1  6  0  0  0
 18 11  1  0  0  0  0
 20 21  1  0  0  0  0
 21  9  1  0  0  0  0
 21 25  2  0  0  0  0
 22  1  2  0  0  0  0
 25 10  1  0  0  0  0
 26 23  1  0  0  0  0
 26  7  1  0  0  0  0
 28  5  1  0  0  0  0
 29 27  2  0  0  0  0
 29 19  1  0  0  0  0
 30 26  2  0  0  0  0
 31 24  1  0  0  0  0
 31 34  1  1  0  0  0
 32  2  2  0  0  0  0
 32 30  1  0  0  0  0
 33 25  1  0  0  0  0
 33 23  2  0  0  0  0
 34 35  1  0  0  0  0
 35 36  1  0  0  0  0
 37 36  1  0  0  0  0
 37 39  1  0  0  0  0
 39 38  1  0  0  0  0
M  END
>  <MODEL>
4

>  <REMARK>
 VINA RESULT:      -6.2      2.155      2.811
  Name = 
  5 active torsions:
  status: ('A' for Active; 'I' for Inactive)
    1  A    between atoms: C_5  and  C_11
    2  A    between atoms: C_5  and  C_36
    3  A    between atoms: C_11  and  C_19
    4  A    between atoms: C_19  and  C_38
    5  A    between atoms: C_31  and  C_38
                            x       y       z     vdW  Elec       q    Type
                         _______ _______ _______ _____ _____    ______ ____

>  <TORSDO>
F 5

$$$$
=
 OpenBabel11062417523D

 39 43  0  0  1  0  0  0  0  0999 V2000
  188.7430  177.3480  137.4050 C   0  0  0  0  0  0  0  0  0  0  0  0
  182.8670  178.6250  143.0880 C   0  0  0  0  0  0  0  0  0  0  0  0
  187.7290  177.2900  138.3160 C   0  0  1  0  0  3  0  0  0  0  0  0
  184.0560  178.7890  143.7920 C   0  0  0  0  0  3  0  0  0  0  0  0
  182.8590  176.1670  137.6980 C   0  0  0  0  0  2  0  0  0  0  0  0
  186.4110  177.0580  137.9490 C   0  0  0  0  0  3  0  0  0  0  0  0
  178.9310  178.1930  140.8520 Cl  0  0  0  0  0  0  0  0  0  0  0  0
  186.1380  176.8590  136.5790 C   0  0  0  0  0  0  0  0  0  0  0  0
  186.5090  179.7250  141.0530 C   0  0  0  0  0  2  0  0  0  0  0  0
  184.0090  179.3980  139.5300 C   0  0  0  0  0  0  0  0  0  0  0  0
  188.3280  177.4980  139.5300 C   0  0  0  0  0  0  0  0  0  0  0  0
  184.4140  180.5080  139.0940 O   0  0  0  0  0  0  0  0  0  0  0  0
  187.7000  178.8780  141.4930 C   0  0  0  0  0  2  0  0  0  0  0  0
  183.5220  178.4300  138.5900 N   0  0  0  0  0  2  0  0  0  0  0  0
  189.6560  177.6760  139.3320 N   0  0  0  0  0  0  0  0  0  0  0  0
  183.6720  176.4940  139.9100 O   0  0  0  0  0  0  0  0  0  0  0  0
  188.2880  176.5810  141.7070 O   0  0  0  0  0  1  0  0  0  0  0  0
  187.6540  177.4950  140.8660 C   0  0  2  0  0  3  0  0  0  0  0  0
  189.8110  177.2390  134.8680 Cl  0  0  0  0  0  0  0  0  0  0  0  0
  185.2230  179.1380  143.1190 C   0  0  0  0  0  3  0  0  0  0  0  0
  185.2290  179.3110  141.7280 C   0  0  0  0  0  0  0  0  0  0  0  0
  189.9120  177.5850  138.0280 N   0  0  0  0  0  0  0  0  0  0  0  0
  181.6080  178.6910  141.0140 C   0  0  0  0  0  3  0  0  0  0  0  0
  184.7350  176.6510  136.1050 C   0  0  0  0  0  2  0  0  0  0  0  0
  184.0270  179.1520  140.9930 C   0  0  0  0  0  0  0  0  0  0  0  0
  180.4450  178.3580  141.7120 C   0  0  0  0  0  0  0  0  0  0  0  0
  187.1860  176.9230  135.6320 C   0  0  0  0  0  3  0  0  0  0  0  0
  183.3450  177.0260  138.8160 C   0  0  0  0  0  0  0  0  0  0  0  0
  188.5110  177.1660  136.0430 C   0  0  0  0  0  0  0  0  0  0  0  0
  180.4900  178.1550  143.0920 C   0  0  0  0  0  3  0  0  0  0  0  0
  184.0290  175.5730  136.9190 C   0  0  2  0  0  3  0  0  0  0  0  0
  181.6990  178.2920  143.7800 C   0  0  0  0  0  3  0  0  0  0  0  0
  182.8360  178.8180  141.6850 C   0  0  0  0  0  0  0  0  0  0  0  0
  183.5340  174.4840  135.9810 C   0  0  0  0  0  2  0  0  0  0  0  0
  184.0070  173.1090  136.4350 C   0  0  0  0  0  2  0  0  0  0  0  0
  184.9430  173.2110  137.6340 C   0  0  0  0  0  2  0  0  0  0  0  0
  186.3280  172.6660  137.3070 C   0  0  0  0  0  2  0  0  0  0  0  0
  188.2080  173.5520  136.1310 O   0  0  0  0  0  1  0  0  0  0  0  0
  186.8530  173.2470  136.0040 C   0  0  0  0  0  2  0  0  0  0  0  0
  1 22  2  0  0  0  0
  1  3  1  0  0  0  0
  2 32  1  0  0  0  0
  2  4  2  0  0  0  0
  3  6  1  1  0  0  0
  3 11  1  0  0  0  0
  5 28  1  0  0  0  0
  7 26  1  0  0  0  0
  8  6  2  0  0  0  0
  9 13  1  0  0  0  0
  9 21  1  0  0  0  0
 10 25  1  0  0  0  0
 11 18  1  0  0  0  0
 12 10  2  0  0  0  0
 14 28  1  0  0  0  0
 14 10  1  0  0  0  0
 15 11  2  0  0  0  0
 18 13  1  0  0  0  0
 18 17  1  1  0  0  0
 19 29  1  0  0  0  0
 20  4  1  0  0  0  0
 21 20  2  0  0  0  0
 22 15  1  0  0  0  0
 23 33  1  0  0  0  0
 23 26  2  0  0  0  0
 24  8  1  0  0  0  0
 24 31  1  0  0  0  0
 25 33  2  0  0  0  0
 25 21  1  0  0  0  0
 26 30  1  0  0  0  0
 27 29  2  0  0  0  0
 27  8  1  0  0  0  0
 28 16  2  0  0  0  0
 29  1  1  0  0  0  0
 30 32  2  0  0  0  0
 31 34  1  6  0  0  0
 31  5  1  0  0  0  0
 33  2  1  0  0  0  0
 34 35  1  0  0  0  0
 35 36  1  0  0  0  0
 37 36  1  0  0  0  0
 39 38  1  0  0  0  0
 39 37  1  0  0  0  0
M  END
>  <MODEL>
5

>  <REMARK>
 VINA RESULT:      -5.8      2.821      8.444
  Name = 
  5 active torsions:
  status: ('A' for Active; 'I' for Inactive)
    1  A    between atoms: C_5  and  C_11
    2  A    between atoms: C_5  and  C_36
    3  A    between atoms: C_11  and  C_19
    4  A    between atoms: C_19  and  C_38
    5  A    between atoms: C_31  and  C_38
                            x       y       z     vdW  Elec       q    Type
                         _______ _______ _______ _____ _____    ______ ____

>  <TORSDO>
F 5

$$$$
=
 OpenBabel11062417523D

 39 43  0  0  1  0  0  0  0  0999 V2000
  189.3020  177.8070  139.8160 C   0  0  0  0  0  0  0  0  0  0  0  0
  182.1770  177.9170  135.6120 C   0  0  0  0  0  0  0  0  0  0  0  0
  188.0940  178.0690  139.2410 C   0  0  0  0  0  0  0  0  0  0  0  0
  183.1510  178.0520  134.6260 C   0  0  0  0  0  3  0  0  0  0  0  0
  183.5460  178.6280  141.3310 C   0  0  0  0  0  2  0  0  0  0  0  0
  186.9120  178.0920  139.9690 C   0  0  0  0  0  3  0  0  0  0  0  0
  178.9310  177.3910  138.7520 Cl  0  0  0  0  0  0  0  0  0  0  0  0
  186.9920  177.8500  141.3560 C   0  0  1  0  0  3  0  0  0  0  0  0
  186.2000  176.4990  136.2650 C   0  0  0  0  0  2  0  0  0  0  0  0
  184.1640  176.1830  138.3710 C   0  0  0  0  0  0  0  0  0  0  0  0
  188.3670  178.2780  137.9150 C   0  0  0  0  0  0  0  0  0  0  0  0
  184.6520  175.0230  138.3310 O   0  0  0  0  0  0  0  0  0  0  0  0
  187.2530  177.5160  135.8350 C   0  0  0  0  0  2  0  0  0  0  0  0
  183.9390  176.7880  139.6520 N   0  0  0  0  0  2  0  0  0  0  0  0
  189.7010  178.1370  137.7230 N   0  0  0  0  0  0  0  0  0  0  0  0
  183.7760  179.0380  138.9990 O   0  0  0  0  0  0  0  0  0  0  0  0
  187.7960  179.8050  136.2050 O   0  0  0  0  0  1  0  0  0  0  0  0
  187.3820  178.6390  136.8500 C   0  0  2  0  0  3  0  0  0  0  0  0
  190.9720  177.2170  141.9270 Cl  0  0  0  0  0  0  0  0  0  0  0  0
  184.4450  177.5950  134.8570 C   0  0  0  0  0  3  0  0  0  0  0  0
  184.7970  177.0110  136.0820 C   0  0  0  0  0  0  0  0  0  0  0  0
  190.2750  177.8470  138.8880 N   0  0  0  0  0  0  0  0  0  0  0  0
  181.4760  177.1440  137.8030 C   0  0  0  0  0  3  0  0  0  0  0  0
  185.7540  177.8110  142.1950 C   0  0  0  0  0  2  0  0  0  0  0  0
  183.8190  176.8610  137.0960 C   0  0  0  0  0  0  0  0  0  0  0  0
  180.1800  177.5940  137.5450 C   0  0  0  0  0  0  0  0  0  0  0  0
  188.2430  177.5730  141.9550 C   0  0  0  0  0  3  0  0  0  0  0  0
  183.7270  178.1800  139.9200 C   0  0  0  0  0  0  0  0  0  0  0  0
  189.4200  177.5540  141.1820 C   0  0  0  0  0  0  0  0  0  0  0  0
  179.8810  178.2070  136.3270 C   0  0  0  0  0  3  0  0  0  0  0  0
  184.8800  179.0360  141.9490 C   0  0  2  0  0  3  0  0  0  0  0  0
  180.8770  178.3650  135.3600 C   0  0  0  0  0  3  0  0  0  0  0  0
  182.4960  177.3080  136.8500 C   0  0  0  0  0  0  0  0  0  0  0  0
  184.6490  179.7550  143.2680 C   0  0  0  0  0  2  0  0  0  0  0  0
  183.6170  179.0260  144.1200 C   0  0  0  0  0  2  0  0  0  0  0  0
  184.1490  178.7520  145.5220 C   0  0  0  0  0  2  0  0  0  0  0  0
  185.6420  179.0390  145.6180 C   0  0  0  0  0  2  0  0  0  0  0  0
  187.6550  177.8030  145.2710 O   0  0  0  0  0  1  0  0  0  0  0  0
  186.4250  177.7740  145.9280 C   0  0  0  0  0  2  0  0  0  0  0  0
  1 29  1  0  0  0  0
  2 33  1  0  0  0  0
  3  1  1  0  0  0  0
  3  6  2  0  0  0  0
  4 20  2  0  0  0  0
  4  2  1  0  0  0  0
  5 31  1  0  0  0  0
  8  6  1  6  0  0  0
  8 27  1  0  0  0  0
  8 24  1  0  0  0  0
 10 14  1  0  0  0  0
 11  3  1  0  0  0  0
 12 10  2  0  0  0  0
 13  9  1  0  0  0  0
 13 18  1  0  0  0  0
 14 28  1  0  0  0  0
 15 11  2  0  0  0  0
 15 22  1  0  0  0  0
 16 28  2  0  0  0  0
 18 17  1  6  0  0  0
 18 11  1  0  0  0  0
 20 21  1  0  0  0  0
 21  9  1  0  0  0  0
 21 25  2  0  0  0  0
 22  1  2  0  0  0  0
 25 10  1  0  0  0  0
 26 23  1  0  0  0  0
 26  7  1  0  0  0  0
 28  5  1  0  0  0  0
 29 19  1  0  0  0  0
 29 27  2  0  0  0  0
 30 26  2  0  0  0  0
 31 24  1  0  0  0  0
 31 34  1  1  0  0  0
 32  2  2  0  0  0  0
 32 30  1  0  0  0  0
 33 25  1  0  0  0  0
 33 23  2  0  0  0  0
 34 35  1  0  0  0  0
 35 36  1  0  0  0  0
 36 37  1  0  0  0  0
 37 39  1  0  0  0  0
 38 39  1  0  0  0  0
M  END
>  <MODEL>
6

>  <REMARK>
 VINA RESULT:      -5.6      2.443      6.670
  Name = 
  5 active torsions:
  status: ('A' for Active; 'I' for Inactive)
    1  A    between atoms: C_5  and  C_11
    2  A    between atoms: C_5  and  C_36
    3  A    between atoms: C_11  and  C_19
    4  A    between atoms: C_19  and  C_38
    5  A    between atoms: C_31  and  C_38
                            x       y       z     vdW  Elec       q    Type
                         _______ _______ _______ _____ _____    ______ ____

>  <TORSDO>
F 5

$$$$
=
 OpenBabel11062417523D

 39 43  0  0  1  0  0  0  0  0999 V2000
  182.5620  177.1590  137.7240 C   0  0  0  0  0  0  0  0  0  0  0  0
  189.7690  173.8060  135.4270 C   0  0  0  0  0  0  0  0  0  0  0  0
  183.7760  176.5490  137.6110 C   0  0  0  0  0  0  0  0  0  0  0  0
  188.8140  172.9440  134.8980 C   0  0  0  0  0  3  0  0  0  0  0  0
  188.2670  177.8630  139.4740 C   0  0  0  0  0  2  0  0  0  0  0  0
  184.9430  177.1100  138.1130 C   0  0  0  0  0  3  0  0  0  0  0  0
  192.9600  176.6120  137.0470 Cl  0  0  0  0  0  0  0  0  0  0  0  0
  184.8380  178.3520  138.7760 C   0  0  1  0  0  3  0  0  0  0  0  0
  185.7650  175.1820  134.5970 C   0  0  0  0  0  2  0  0  0  0  0  0
  187.7630  177.0400  135.7070 C   0  0  0  0  0  0  0  0  0  0  0  0
  183.5260  175.3750  136.9490 C   0  0  0  0  0  0  0  0  0  0  0  0
  187.3000  177.7240  134.7560 O   0  0  0  0  0  0  0  0  0  0  0  0
  184.6990  174.2130  135.1000 C   0  0  0  0  0  2  0  0  0  0  0  0
  187.9480  177.6760  136.9800 N   0  0  0  0  0  2  0  0  0  0  0  0
  182.2010  175.3070  136.6800 N   0  0  0  0  0  0  0  0  0  0  0  0
  188.0770  175.7740  138.3510 O   0  0  0  0  0  0  0  0  0  0  0  0
  184.1010  173.0890  137.1120 O   0  0  0  0  0  1  0  0  0  0  0  0
  184.5260  174.3180  136.6060 C   0  0  2  0  0  3  0  0  0  0  0  0
  180.8620  179.1780  138.5120 Cl  0  0  0  0  0  0  0  0  0  0  0  0
  187.5250  173.4030  134.6410 C   0  0  0  0  0  3  0  0  0  0  0  0
  187.1610  174.7260  134.9280 C   0  0  0  0  0  0  0  0  0  0  0  0
  181.6080  176.4010  137.1540 N   0  0  0  0  0  0  0  0  0  0  0  0
  190.4410  176.0100  136.1920 C   0  0  0  0  0  3  0  0  0  0  0  0
  186.0590  179.0390  139.2990 C   0  0  0  0  0  2  0  0  0  0  0  0
  188.1200  175.6210  135.4640 C   0  0  0  0  0  0  0  0  0  0  0  0
  191.7320  175.5330  136.4250 C   0  0  0  0  0  0  0  0  0  0  0  0
  183.5820  178.9900  138.8900 C   0  0  0  0  0  3  0  0  0  0  0  0
  188.1250  177.0290  138.2460 C   0  0  0  0  0  0  0  0  0  0  0  0
  182.4210  178.3890  138.3640 C   0  0  0  0  0  0  0  0  0  0  0  0
  192.0430  174.1970  136.1640 C   0  0  0  0  0  3  0  0  0  0  0  0
  186.9120  178.0940  140.1370 C   0  0  2  0  0  3  0  0  0  0  0  0
  191.0640  173.3360  135.6630 C   0  0  0  0  0  3  0  0  0  0  0  0
  189.4380  175.1560  135.7030 C   0  0  0  0  0  0  0  0  0  0  0  0
  187.1000  178.6880  141.5230 C   0  0  0  0  0  2  0  0  0  0  0  0
  188.2860  178.0530  142.2380 C   0  0  0  0  0  2  0  0  0  0  0  0
  187.8430  176.9020  143.1340 C   0  0  0  0  0  2  0  0  0  0  0  0
  186.8810  177.3760  144.2150 C   0  0  0  0  0  2  0  0  0  0  0  0
  188.8790  177.1040  145.4950 O   0  0  0  0  0  1  0  0  0  0  0  0
  187.6200  177.7050  145.5030 C   0  0  0  0  0  2  0  0  0  0  0  0
  1 29  1  0  0  0  0
  2 32  2  0  0  0  0
  2 33  1  0  0  0  0
  3  1  1  0  0  0  0
  3  6  2  0  0  0  0
  4  2  1  0  0  0  0
  5 31  1  0  0  0  0
  8  6  1  6  0  0  0
  8 27  1  0  0  0  0
  8 24  1  0  0  0  0
  9 21  1  0  0  0  0
  9 13  1  0  0  0  0
 10 14  1  0  0  0  0
 11  3  1  0  0  0  0
 12 10  2  0  0  0  0
 13 18  1  0  0  0  0
 14 28  1  0  0  0  0
 15 11  2  0  0  0  0
 15 22  1  0  0  0  0
 18 11  1  0  0  0  0
 18 17  1  6  0  0  0
 20  4  2  0  0  0  0
 20 21  1  0  0  0  0
 21 25  2  0  0  0  0
 22  1  2  0  0  0  0
 23 26  1  0  0  0  0
 24 31  1  0  0  0  0
 25 33  1  0  0  0  0
 25 10  1  0  0  0  0
 26  7  1  0  0  0  0
 28 16  2  0  0  0  0
 28  5  1  0  0  0  0
 29 19  1  0  0  0  0
 29 27  2  0  0  0  0
 30 26  2  0  0  0  0
 31 34  1  1  0  0  0
 32 30  1  0  0  0  0
 33 23  2  0  0  0  0
 34 35  1  0  0  0  0
 35 36  1  0  0  0  0
 36 37  1  0  0  0  0
 37 39  1  0  0  0  0
 38 39  1  0  0  0  0
M  END
>  <MODEL>
7

>  <REMARK>
 VINA RESULT:      -5.5      1.947      2.517
  Name = 
  5 active torsions:
  status: ('A' for Active; 'I' for Inactive)
    1  A    between atoms: C_5  and  C_11
    2  A    between atoms: C_5  and  C_36
    3  A    between atoms: C_11  and  C_19
    4  A    between atoms: C_19  and  C_38
    5  A    between atoms: C_31  and  C_38
                            x       y       z     vdW  Elec       q    Type
                         _______ _______ _______ _____ _____    ______ ____

>  <TORSDO>
F 5

$$$$
=
 OpenBabel11062417523D

 39 43  0  0  1  0  0  0  0  0999 V2000
  192.2970  176.3280  137.7620 C   0  0  0  0  0  0  0  0  0  0  0  0
  184.4880  177.9620  139.9550 C   0  0  0  0  0  0  0  0  0  0  0  0
  190.9810  176.3260  138.1190 C   0  0  0  0  0  0  0  0  0  0  0  0
  185.2300  178.2930  141.0850 C   0  0  0  0  0  3  0  0  0  0  0  0
  186.9140  174.8190  135.5590 C   0  0  0  0  0  2  0  0  0  0  0  0
  189.9700  175.9620  137.2390 C   0  0  0  0  0  3  0  0  0  0  0  0
  181.9880  176.9860  136.2840 Cl  0  0  0  0  0  0  0  0  0  0  0  0
  190.3460  175.5670  135.9380 C   0  0  0  0  0  0  0  0  0  0  0  0
  188.6600  179.0160  139.6300 C   0  0  0  0  0  2  0  0  0  0  0  0
  187.1190  178.3310  137.2150 C   0  0  0  0  0  0  0  0  0  0  0  0
  190.9650  176.7300  139.4280 C   0  0  0  0  0  0  0  0  0  0  0  0
  187.6790  179.3980  136.8490 O   0  0  0  0  0  0  0  0  0  0  0  0
  189.5210  178.3130  140.6750 C   0  0  0  0  0  2  0  0  0  0  0  0
  187.1070  177.2180  136.3100 N   0  0  0  0  0  2  0  0  0  0  0  0
  192.2400  176.9660  139.8210 N   0  0  0  0  0  0  0  0  0  0  0  0
  186.6390  175.4870  137.8260 O   0  0  0  0  0  0  0  0  0  0  0  0
  189.9440  176.1070  141.4650 O   0  0  0  0  0  1  0  0  0  0  0  0
  189.7610  176.8590  140.3050 C   0  0  2  0  0  3  0  0  0  0  0  0
  194.3970  175.9540  136.0180 Cl  0  0  0  0  0  0  0  0  0  0  0  0
  186.5770  178.6250  140.9620 C   0  0  0  0  0  3  0  0  0  0  0  0
  187.2120  178.6130  139.7120 C   0  0  0  0  0  0  0  0  0  0  0  0
  193.0580  176.7200  138.7990 N   0  0  0  0  0  2  0  0  0  0  0  0
  184.3040  177.6730  137.5520 C   0  0  0  0  0  3  0  0  0  0  0  0
  189.3080  175.2090  134.9230 C   0  0  0  0  0  2  0  0  0  0  0  0
  186.4720  178.2820  138.5500 C   0  0  0  0  0  0  0  0  0  0  0  0
  182.9510  177.3600  137.6960 C   0  0  0  0  0  0  0  0  0  0  0  0
  191.7090  175.5730  135.5620 C   0  0  0  0  0  3  0  0  0  0  0  0
  186.8440  175.8480  136.6360 C   0  0  0  0  0  0  0  0  0  0  0  0
  192.7060  175.9540  136.4830 C   0  0  0  0  0  0  0  0  0  0  0  0
  182.3660  177.3450  138.9640 C   0  0  0  0  0  3  0  0  0  0  0  0
  188.3090  174.2040  135.4820 C   0  0  2  0  0  3  0  0  0  0  0  0
  183.1330  177.6480  140.0920 C   0  0  0  0  0  3  0  0  0  0  0  0
  185.0960  177.9660  138.6760 C   0  0  0  0  0  0  0  0  0  0  0  0
  188.2900  172.9720  134.5940 C   0  0  0  0  0  2  0  0  0  0  0  0
  187.8910  171.7300  135.3810 C   0  0  0  0  0  2  0  0  0  0  0  0
  186.4970  171.2500  134.9950 C   0  0  0  0  0  2  0  0  0  0  0  0
  185.4940  171.4910  136.1160 C   0  0  0  0  0  2  0  0  0  0  0  0
  183.2760  170.9580  136.8210 O   0  0  0  0  0  1  0  0  0  0  0  0
  184.0910  171.0830  135.6970 C   0  0  0  0  0  2  0  0  0  0  0  0
  1  3  2  0  0  0  0
  1 22  1  0  0  0  0
  2 32  1  0  0  0  0
  2  4  2  0  0  0  0
  3 11  1  0  0  0  0
  5 28  1  0  0  0  0
  6  3  1  0  0  0  0
  7 26  1  0  0  0  0
  8  6  2  0  0  0  0
  9 21  1  0  0  0  0
  9 13  1  0  0  0  0
 10 25  1  0  0  0  0
 11 15  2  0  0  0  0
 11 18  1  0  0  0  0
 12 10  2  0  0  0  0
 14 28  1  0  0  0  0
 14 10  1  0  0  0  0
 18 13  1  0  0  0  0
 18 17  1  1  0  0  0
 19 29  1  0  0  0  0
 20  4  1  0  0  0  0
 21 20  2  0  0  0  0
 22 15  1  0  0  0  0
 23 26  2  0  0  0  0
 23 33  1  0  0  0  0
 24 31  1  0  0  0  0
 24  8  1  0  0  0  0
 25 33  2  0  0  0  0
 25 21  1  0  0  0  0
 26 30  1  0  0  0  0
 27  8  1  0  0  0  0
 27 29  2  0  0  0  0
 28 16  2  0  0  0  0
 29  1  1  0  0  0  0
 30 32  2  0  0  0  0
 31 34  1  6  0  0  0
 31  5  1  0  0  0  0
 33  2  1  0  0  0  0
 34 35  1  0  0  0  0
 36 35  1  0  0  0  0
 36 37  1  0  0  0  0
 39 37  1  0  0  0  0
 39 38  1  0  0  0  0
M  END
>  <MODEL>
8

>  <REMARK>
 VINA RESULT:      -5.4      2.815      8.500
  Name = 
  5 active torsions:
  status: ('A' for Active; 'I' for Inactive)
    1  A    between atoms: C_5  and  C_11
    2  A    between atoms: C_5  and  C_36
    3  A    between atoms: C_11  and  C_19
    4  A    between atoms: C_19  and  C_38
    5  A    between atoms: C_31  and  C_38
                            x       y       z     vdW  Elec       q    Type
                         _______ _______ _______ _____ _____    ______ ____

>  <TORSDO>
F 5

$$$$
