=
 OpenBabel11062413023D

 38 42  0  0  1  0  0  0  0  0999 V2000
  186.1720  178.0150  146.2020 C   0  0  0  0  0  0  0  0  0  0  0  0
  192.1420  176.4060  142.6210 O   0  0  0  0  0  0  0  0  0  0  0  0
  187.5200  177.7340  144.4130 C   0  0  0  0  0  0  0  0  0  0  0  0
  188.3450  177.2660  145.5830 C   0  0  1  0  0  3  0  0  0  0  0  0
  183.9380  178.7880  146.0290 N   0  0  0  0  0  0  0  0  0  0  0  0
  191.6390  177.0460  144.7640 O   0  0  0  0  0  0  0  0  0  0  0  0
  189.8410  176.2100  143.1850 C   0  0  0  0  0  2  0  0  0  0  0  0
  186.7940  178.1840  142.1590 C   0  0  0  0  0  3  0  0  0  0  0  0
  186.2890  178.1180  144.8550 C   0  0  0  0  0  0  0  0  0  0  0  0
  189.2270  177.2000  140.9980 C   0  0  0  0  0  1  0  0  0  0  0  0
  189.6370  178.0540  145.7140 C   0  0  0  0  0  2  0  0  0  0  0  0
  185.2550  178.5450  144.0230 C   0  0  0  0  0  0  0  0  0  0  0  0
  184.9700  178.3570  146.8140 C   0  0  0  0  0  3  0  0  0  0  0  0
  185.5240  178.5830  142.6300 C   0  0  0  0  0  0  0  0  0  0  0  0
  190.7810  177.0680  145.9010 C   0  0  0  0  0  2  0  0  0  0  0  0
  191.2650  176.5370  143.5140 C   0  0  0  0  0  0  0  0  0  0  0  0
  184.0370  178.8920  144.6650 C   0  0  0  0  0  0  0  0  0  0  0  0
  187.4350  177.5110  146.8130 C   0  0  0  0  0  2  0  0  0  0  0  0
  187.8110  177.7320  143.0330 C   0  0  0  0  0  0  0  0  0  0  0  0
  189.1950  177.4130  142.5040 C   0  0  1  0  0  3  0  0  0  0  0  0
  182.9070  179.3490  143.9280 N   0  0  0  0  0  1  0  0  0  0  0  0
  184.4970  178.9670  141.6190 C   0  0  0  0  0  2  0  0  0  0  0  0
  184.6120  180.0560  138.9860 O   0  0  0  0  0  0  0  0  0  0  0  0
  184.7730  178.8140  139.1150 C   0  0  0  0  0  0  0  0  0  0  0  0
  184.7130  178.2030  140.4030 N   0  0  0  0  0  2  0  0  0  0  0  0
  185.0700  177.9720  137.9230 C   0  0  0  0  0  2  0  0  0  0  0  0
  187.0210  176.5930  137.2720 C   0  0  0  0  0  3  0  0  0  0  0  0
  186.5500  177.7150  137.8180 C   0  0  0  0  0  0  0  0  0  0  0  0
  188.7540  178.8330  137.7210 C   0  0  0  0  0  1  0  0  0  0  0  0
  187.4700  178.6500  138.3040 O   0  0  0  0  0  0  0  0  0  0  0  0
  186.1360  175.5100  136.7090 C   0  0  0  0  0  2  0  0  0  0  0  0
  186.0850  172.2730  136.1590 C   0  0  0  0  0  0  0  0  0  0  0  0
  186.3970  171.2280  135.1510 C   0  0  0  0  0  1  0  0  0  0  0  0
  185.0400  173.4810  137.6790 C   0  0  1  0  0  3  0  0  0  0  0  0
  183.7610  174.3170  137.6390 C   0  0  0  0  0  1  0  0  0  0  0  0
  184.9600  172.3390  136.7750 N   0  0  0  0  0  0  0  0  0  0  0  0
  186.3060  174.2000  137.3690 N   0  0  0  0  0  0  0  0  0  0  0  0
  186.9600  173.3300  136.4820 N   0  0  0  0  0  2  0  0  0  0  0  0
  1 18  1  0  0  0  0
  1 13  1  0  0  0  0
  2 16  2  0  0  0  0
  3  9  1  0  0  0  0
  3  4  1  0  0  0  0
  4 11  1  1  0  0  0
  4 18  1  0  0  0  0
  5 13  2  0  0  0  0
  6 15  1  0  0  0  0
  7 16  1  0  0  0  0
  8 14  2  0  0  0  0
  8 19  1  0  0  0  0
  9  1  2  0  0  0  0
 11 15  1  0  0  0  0
 12 17  2  0  0  0  0
 12  9  1  0  0  0  0
 14 12  1  0  0  0  0
 16  6  1  0  0  0  0
 17  5  1  0  0  0  0
 19  3  2  0  0  0  0
 20 10  1  6  0  0  0
 20 19  1  0  0  0  0
 20  7  1  0  0  0  0
 21 17  1  0  0  0  0
 22 14  1  0  0  0  0
 23 24  2  0  0  0  0
 24 25  1  0  0  0  0
 25 22  1  0  0  0  0
 26 24  1  0  0  0  0
 27 28  2  0  0  0  0
 28 26  1  0  0  0  0
 28 30  1  0  0  0  0
 29 30  1  0  0  0  0
 31 27  1  0  0  0  0
 31 37  1  0  0  0  0
 32 38  1  0  0  0  0
 32 36  2  0  0  0  0
 33 32  1  0  0  0  0
 34 35  1  6  0  0  0
 36 34  1  0  0  0  0
 37 34  1  0  0  0  0
 38 37  1  0  0  0  0
M  END
>  <MODEL>
1

>  <REMARK>
 VINA RESULT:     -10.7      0.000      0.000
  Name = 
  7 active torsions:
  status: ('A' for Active; 'I' for Inactive)
    1  A    between atoms: C_1  and  N_25
    2  A    between atoms: C_1  and  C_28
    3  A    between atoms: C_8  and  C_11
    4  A    between atoms: C_8  and  N_32
    5  A    between atoms: C_16  and  C_22
    6  A    between atoms: C_16  and  O_29
    7  A    between atoms: C_20  and  C_22
                            x       y       z     vdW  Elec       q    Type
                         _______ _______ _______ _____ _____    ______ ____

>  <TORSDO>
F 7

$$$$
=
 OpenBabel11062413023D

 38 42  0  0  1  0  0  0  0  0999 V2000
  186.5030  177.9930  146.1460 C   0  0  0  0  0  0  0  0  0  0  0  0
  192.0030  176.8280  141.7370 O   0  0  0  0  0  0  0  0  0  0  0  0
  187.5980  177.8070  144.1800 C   0  0  0  0  0  0  0  0  0  0  0  0
  188.6160  177.4100  145.2170 C   0  0  1  0  0  3  0  0  0  0  0  0
  184.2150  178.5930  146.2990 N   0  0  0  0  0  0  0  0  0  0  0  0
  191.7650  177.4390  143.9330 O   0  0  0  0  0  0  0  0  0  0  0  0
  189.8290  176.4590  142.6230 C   0  0  0  0  0  2  0  0  0  0  0  0
  186.5240  178.1890  142.0560 C   0  0  0  0  0  3  0  0  0  0  0  0
  186.4170  178.0990  144.7960 C   0  0  0  0  0  0  0  0  0  0  0  0
  188.8330  177.3880  140.5530 C   0  0  0  0  0  1  0  0  0  0  0  0
  189.8490  178.2960  145.1660 C   0  0  0  0  0  2  0  0  0  0  0  0
  185.2450  178.4410  144.1230 C   0  0  0  0  0  0  0  0  0  0  0  0
  185.3790  178.2450  146.9260 C   0  0  0  0  0  3  0  0  0  0  0  0
  185.3080  178.4920  142.7070 C   0  0  0  0  0  0  0  0  0  0  0  0
  191.0790  177.4010  145.1810 C   0  0  0  0  0  2  0  0  0  0  0  0
  191.2550  176.8960  142.7460 C   0  0  0  0  0  0  0  0  0  0  0  0
  184.1090  178.6960  144.9350 C   0  0  0  0  0  0  0  0  0  0  0  0
  187.8750  177.5910  146.5660 C   0  0  0  0  0  2  0  0  0  0  0  0
  187.6870  177.8200  142.7730 C   0  0  0  0  0  0  0  0  0  0  0  0
  189.0010  177.6060  142.0490 C   0  0  1  0  0  3  0  0  0  0  0  0
  182.8530  179.0620  144.3710 N   0  0  0  0  0  1  0  0  0  0  0  0
  184.1200  178.7910  141.8560 C   0  0  0  0  0  2  0  0  0  0  0  0
  182.2900  178.2410  139.7380 O   0  0  0  0  0  0  0  0  0  0  0  0
  183.5090  178.3640  139.4450 C   0  0  0  0  0  0  0  0  0  0  0  0
  184.4780  178.6250  140.4580 N   0  0  0  0  0  2  0  0  0  0  0  0
  183.9460  178.2790  138.0230 C   0  0  0  0  0  2  0  0  0  0  0  0
  185.6500  176.6560  137.2520 C   0  0  0  0  0  3  0  0  0  0  0  0
  184.4150  176.8850  137.7010 C   0  0  0  0  0  0  0  0  0  0  0  0
  183.9920  174.4480  137.6960 C   0  0  0  0  0  1  0  0  0  0  0  0
  183.5550  175.7920  137.8560 O   0  0  0  0  0  0  0  0  0  0  0  0
  186.6720  177.7460  137.0460 C   0  0  0  0  0  2  0  0  0  0  0  0
  189.3400  175.8470  136.7940 C   0  0  0  0  0  0  0  0  0  0  0  0
  189.9180  174.5410  137.1990 C   0  0  0  0  0  1  0  0  0  0  0  0
  189.0800  178.0030  136.4190 C   0  0  1  0  0  3  0  0  0  0  0  0
  189.0520  179.2220  137.3420 C   0  0  0  0  0  1  0  0  0  0  0  0
  189.9610  176.9620  136.9350 N   0  0  0  0  0  0  0  0  0  0  0  0
  187.7660  177.3670  136.1290 N   0  0  0  0  0  0  0  0  0  0  0  0
  188.0330  175.9970  136.2870 N   0  0  0  0  0  2  0  0  0  0  0  0
  1 18  1  0  0  0  0
  1 13  1  0  0  0  0
  2 16  2  0  0  0  0
  3  9  1  0  0  0  0
  3  4  1  0  0  0  0
  4 11  1  1  0  0  0
  4 18  1  0  0  0  0
  5 13  2  0  0  0  0
  6 15  1  0  0  0  0
  7 16  1  0  0  0  0
  8 14  2  0  0  0  0
  8 19  1  0  0  0  0
  9  1  2  0  0  0  0
 11 15  1  0  0  0  0
 12  9  1  0  0  0  0
 12 17  2  0  0  0  0
 14 12  1  0  0  0  0
 16  6  1  0  0  0  0
 17  5  1  0  0  0  0
 19  3  2  0  0  0  0
 20 10  1  6  0  0  0
 20  7  1  0  0  0  0
 20 19  1  0  0  0  0
 21 17  1  0  0  0  0
 22 14  1  0  0  0  0
 24 23  2  0  0  0  0
 24 25  1  0  0  0  0
 25 22  1  0  0  0  0
 26 24  1  0  0  0  0
 27 28  2  0  0  0  0
 28 30  1  0  0  0  0
 28 26  1  0  0  0  0
 29 30  1  0  0  0  0
 31 27  1  0  0  0  0
 32 36  2  0  0  0  0
 32 33  1  0  0  0  0
 34 36  1  0  0  0  0
 34 35  1  1  0  0  0
 37 38  1  0  0  0  0
 37 34  1  0  0  0  0
 37 31  1  0  0  0  0
 38 32  1  0  0  0  0
M  END
>  <MODEL>
2

>  <REMARK>
 VINA RESULT:     -10.3      1.795      2.846
  Name = 
  7 active torsions:
  status: ('A' for Active; 'I' for Inactive)
    1  A    between atoms: C_1  and  N_25
    2  A    between atoms: C_1  and  C_28
    3  A    between atoms: C_8  and  C_11
    4  A    between atoms: C_8  and  N_32
    5  A    between atoms: C_16  and  C_22
    6  A    between atoms: C_16  and  O_29
    7  A    between atoms: C_20  and  C_22
                            x       y       z     vdW  Elec       q    Type
                         _______ _______ _______ _____ _____    ______ ____

>  <TORSDO>
F 7

$$$$
=
 OpenBabel11062413023D

 38 42  0  0  1  0  0  0  0  0999 V2000
  189.2820  177.3740  146.4750 C   0  0  0  0  0  0  0  0  0  0  0  0
  182.8870  179.3740  143.9940 O   0  0  0  0  0  0  0  0  0  0  0  0
  187.6660  177.7680  144.9470 C   0  0  0  0  0  0  0  0  0  0  0  0
  187.0790  178.2480  146.2480 C   0  0  1  0  0  3  0  0  0  0  0  0
  191.4070  176.4920  145.9100 N   0  0  0  0  0  0  0  0  0  0  0  0
  183.7110  178.6560  146.0090 O   0  0  0  0  0  0  0  0  0  0  0  0
  185.2570  179.4380  144.1580 C   0  0  0  0  0  2  0  0  0  0  0  0
  187.9730  177.3380  142.5950 C   0  0  0  0  0  3  0  0  0  0  0  0
  188.9310  177.3100  145.1660 C   0  0  0  0  0  0  0  0  0  0  0  0
  185.4360  178.4730  141.8830 C   0  0  0  0  0  1  0  0  0  0  0  0
  185.7870  177.5240  146.5860 C   0  0  0  0  0  2  0  0  0  0  0  0
  189.7840  176.8520  144.1620 C   0  0  0  0  0  0  0  0  0  0  0  0
  190.5490  176.9560  146.8660 C   0  0  0  0  0  3  0  0  0  0  0  0
  189.2800  176.8630  142.8360 C   0  0  0  0  0  0  0  0  0  0  0  0
  184.7470  178.5620  146.9810 C   0  0  0  0  0  2  0  0  0  0  0  0
  183.8940  179.1770  144.7210 C   0  0  0  0  0  0  0  0  0  0  0  0
  191.0730  176.4280  144.5810 C   0  0  0  0  0  0  0  0  0  0  0  0
  188.1700  177.9260  147.3010 C   0  0  0  0  0  2  0  0  0  0  0  0
  187.1450  177.8190  143.6370 C   0  0  0  0  0  0  0  0  0  0  0  0
  185.7110  178.2210  143.3580 C   0  0  1  0  0  3  0  0  0  0  0  0
  192.0340  175.9320  143.6550 N   0  0  0  0  0  1  0  0  0  0  0  0
  190.0990  176.4520  141.6580 C   0  0  0  0  0  2  0  0  0  0  0  0
  190.6750  175.8160  138.9380 O   0  0  0  0  0  0  0  0  0  0  0  0
  190.0300  176.8720  139.1700 C   0  0  0  0  0  0  0  0  0  0  0  0
  189.7210  177.2560  140.5080 N   0  0  0  0  0  2  0  0  0  0  0  0
  189.5440  177.7120  138.0400 C   0  0  0  0  0  2  0  0  0  0  0  0
  187.6190  176.6050  136.9450 C   0  0  0  0  0  3  0  0  0  0  0  0
  188.0690  177.5010  137.8240 C   0  0  0  0  0  0  0  0  0  0  0  0
  185.7520  178.2800  138.1960 C   0  0  0  0  0  1  0  0  0  0  0  0
  187.1310  178.2530  138.5390 O   0  0  0  0  0  0  0  0  0  0  0  0
  188.5260  175.7300  136.1160 C   0  0  0  0  0  2  0  0  0  0  0  0
  186.4740  173.3160  136.9830 C   0  0  0  0  0  0  0  0  0  0  0  0
  185.2760  173.0050  137.8030 C   0  0  0  0  0  1  0  0  0  0  0  0
  188.4840  173.2290  136.0830 C   0  0  1  0  0  3  0  0  0  0  0  0
  189.8910  173.3300  136.6730 C   0  0  0  0  0  1  0  0  0  0  0  0
  187.5520  172.6210  137.0250 N   0  0  0  0  0  0  0  0  0  0  0  0
  187.8720  174.5030  135.6170 N   0  0  0  0  0  0  0  0  0  0  0  0
  186.5690  174.4420  136.1400 N   0  0  0  0  0  2  0  0  0  0  0  0
  1 13  1  0  0  0  0
  1 18  1  0  0  0  0
  2 16  2  0  0  0  0
  3  9  1  0  0  0  0
  3  4  1  0  0  0  0
  4 11  1  1  0  0  0
  4 18  1  0  0  0  0
  5 13  2  0  0  0  0
  6 15  1  0  0  0  0
  7 16  1  0  0  0  0
  8 14  2  0  0  0  0
  8 19  1  0  0  0  0
  9  1  2  0  0  0  0
 11 15  1  0  0  0  0
 12 17  2  0  0  0  0
 12  9  1  0  0  0  0
 14 12  1  0  0  0  0
 16  6  1  0  0  0  0
 17  5  1  0  0  0  0
 19  3  2  0  0  0  0
 20 10  1  6  0  0  0
 20 19  1  0  0  0  0
 20  7  1  0  0  0  0
 21 17  1  0  0  0  0
 22 14  1  0  0  0  0
 23 24  2  0  0  0  0
 24 25  1  0  0  0  0
 25 22  1  0  0  0  0
 26 24  1  0  0  0  0
 27 28  2  0  0  0  0
 28 26  1  0  0  0  0
 28 30  1  0  0  0  0
 29 30  1  0  0  0  0
 31 27  1  0  0  0  0
 32 36  2  0  0  0  0
 32 33  1  0  0  0  0
 34 35  1  1  0  0  0
 34 36  1  0  0  0  0
 37 34  1  0  0  0  0
 37 31  1  0  0  0  0
 37 38  1  0  0  0  0
 38 32  1  0  0  0  0
M  END
>  <MODEL>
3

>  <REMARK>
 VINA RESULT:     -10.2      2.861      4.934
  Name = 
  7 active torsions:
  status: ('A' for Active; 'I' for Inactive)
    1  A    between atoms: C_1  and  N_25
    2  A    between atoms: C_1  and  C_28
    3  A    between atoms: C_8  and  C_11
    4  A    between atoms: C_8  and  N_32
    5  A    between atoms: C_16  and  C_22
    6  A    between atoms: C_16  and  O_29
    7  A    between atoms: C_20  and  C_22
                            x       y       z     vdW  Elec       q    Type
                         _______ _______ _______ _____ _____    ______ ____

>  <TORSDO>
F 7

$$$$
=
 OpenBabel11062413023D

 38 42  0  0  1  0  0  0  0  0999 V2000
  189.1220  177.4060  146.8460 C   0  0  0  0  0  0  0  0  0  0  0  0
  182.9510  179.3600  143.8200 O   0  0  0  0  0  0  0  0  0  0  0  0
  187.6240  177.7430  145.1900 C   0  0  0  0  0  0  0  0  0  0  0  0
  186.9550  178.2960  146.4200 C   0  0  1  0  0  3  0  0  0  0  0  0
  191.2670  176.4680  146.4790 N   0  0  0  0  0  0  0  0  0  0  0  0
  183.6200  178.7350  145.9220 O   0  0  0  0  0  0  0  0  0  0  0  0
  185.3040  179.4010  144.1490 C   0  0  0  0  0  2  0  0  0  0  0  0
  188.0880  177.1880  142.8910 C   0  0  0  0  0  3  0  0  0  0  0  0
  188.8630  177.2800  145.5210 C   0  0  0  0  0  0  0  0  0  0  0  0
  185.6260  178.3190  141.9440 C   0  0  0  0  0  1  0  0  0  0  0  0
  185.6300  177.6070  146.7020 C   0  0  0  0  0  2  0  0  0  0  0  0
  189.7760  176.7590  144.6040 C   0  0  0  0  0  0  0  0  0  0  0  0
  190.3510  176.9920  147.3470 C   0  0  0  0  0  3  0  0  0  0  0  0
  189.3670  176.7090  143.2470 C   0  0  0  0  0  0  0  0  0  0  0  0
  184.5830  178.6770  146.9690 C   0  0  0  0  0  2  0  0  0  0  0  0
  183.9010  179.1870  144.6260 C   0  0  0  0  0  0  0  0  0  0  0  0
  191.0250  176.3410  145.1340 C   0  0  0  0  0  0  0  0  0  0  0  0
  187.9640  178.0140  147.5630 C   0  0  0  0  0  2  0  0  0  0  0  0
  187.1980  177.7330  143.8460 C   0  0  0  0  0  0  0  0  0  0  0  0
  185.7930  178.1390  143.4450 C   0  0  1  0  0  3  0  0  0  0  0  0
  192.0410  175.7850  144.3050 N   0  0  0  0  0  1  0  0  0  0  0  0
  190.2600  176.2280  142.1520 C   0  0  0  0  0  2  0  0  0  0  0  0
  191.9220  177.5610  140.2560 O   0  0  0  0  0  0  0  0  0  0  0  0
  190.7000  177.4300  139.9780 C   0  0  0  0  0  0  0  0  0  0  0  0
  189.8120  176.7870  140.8880 N   0  0  0  0  0  2  0  0  0  0  0  0
  190.1780  177.9140  138.6690 C   0  0  0  0  0  2  0  0  0  0  0  0
  189.1210  176.1470  137.2940 C   0  0  0  0  0  3  0  0  0  0  0  0
  190.2230  176.8110  137.6460 C   0  0  0  0  0  0  0  0  0  0  0  0
  192.0720  175.2030  137.3090 C   0  0  0  0  0  1  0  0  0  0  0  0
  191.4340  176.4460  137.0460 O   0  0  0  0  0  0  0  0  0  0  0  0
  187.7570  176.4450  137.8630 C   0  0  0  0  0  2  0  0  0  0  0  0
  185.0890  178.3580  137.9670 C   0  0  0  0  0  0  0  0  0  0  0  0
  184.2190  179.1440  138.8780 C   0  0  0  0  0  1  0  0  0  0  0  0
  185.7810  176.9540  136.4150 C   0  0  1  0  0  3  0  0  0  0  0  0
  185.6690  175.4360  136.2650 C   0  0  0  0  0  1  0  0  0  0  0  0
  184.6320  177.5070  137.1230 N   0  0  0  0  0  0  0  0  0  0  0  0
  187.0030  177.4580  137.0970 N   0  0  0  0  0  0  0  0  0  0  0  0
  186.4980  178.4160  137.9930 N   0  0  0  0  0  2  0  0  0  0  0  0
  1 13  1  0  0  0  0
  1 18  1  0  0  0  0
  2 16  2  0  0  0  0
  3  9  1  0  0  0  0
  3  4  1  0  0  0  0
  4 11  1  1  0  0  0
  4 18  1  0  0  0  0
  5 13  2  0  0  0  0
  6 15  1  0  0  0  0
  7 16  1  0  0  0  0
  8 14  2  0  0  0  0
  8 19  1  0  0  0  0
  9  1  2  0  0  0  0
 11 15  1  0  0  0  0
 12 17  2  0  0  0  0
 12  9  1  0  0  0  0
 14 12  1  0  0  0  0
 16  6  1  0  0  0  0
 17  5  1  0  0  0  0
 19  3  2  0  0  0  0
 20 10  1  6  0  0  0
 20 19  1  0  0  0  0
 20  7  1  0  0  0  0
 21 17  1  0  0  0  0
 22 14  1  0  0  0  0
 24 23  2  0  0  0  0
 24 25  1  0  0  0  0
 25 22  1  0  0  0  0
 26 24  1  0  0  0  0
 27 28  2  0  0  0  0
 27 31  1  0  0  0  0
 28 26  1  0  0  0  0
 30 29  1  0  0  0  0
 30 28  1  0  0  0  0
 32 38  1  0  0  0  0
 32 33  1  0  0  0  0
 34 35  1  1  0  0  0
 34 37  1  0  0  0  0
 34 36  1  0  0  0  0
 36 32  2  0  0  0  0
 37 31  1  0  0  0  0
 37 38  1  0  0  0  0
M  END
>  <MODEL>
4

>  <REMARK>
 VINA RESULT:      -9.9      3.091      5.457
  Name = 
  7 active torsions:
  status: ('A' for Active; 'I' for Inactive)
    1  A    between atoms: C_1  and  N_25
    2  A    between atoms: C_1  and  C_28
    3  A    between atoms: C_8  and  C_11
    4  A    between atoms: C_8  and  N_32
    5  A    between atoms: C_16  and  C_22
    6  A    between atoms: C_16  and  O_29
    7  A    between atoms: C_20  and  C_22
                            x       y       z     vdW  Elec       q    Type
                         _______ _______ _______ _____ _____    ______ ____

>  <TORSDO>
F 7

$$$$
=
 OpenBabel11062413023D

 38 42  0  0  1  0  0  0  0  0999 V2000
  186.4530  177.9900  146.1500 C   0  0  0  0  0  0  0  0  0  0  0  0
  192.0290  176.8020  141.8440 O   0  0  0  0  0  0  0  0  0  0  0  0
  187.5930  177.8350  144.2070 C   0  0  0  0  0  0  0  0  0  0  0  0
  188.5710  177.3740  145.2550 C   0  0  1  0  0  3  0  0  0  0  0  0
  184.1810  178.6540  146.2650 N   0  0  0  0  0  0  0  0  0  0  0  0
  191.7520  177.3480  144.0530 O   0  0  0  0  0  0  0  0  0  0  0  0
  189.8230  176.4720  142.6620 C   0  0  0  0  0  2  0  0  0  0  0  0
  186.5870  178.3190  142.0710 C   0  0  0  0  0  3  0  0  0  0  0  0
  186.4060  178.1430  144.8020 C   0  0  0  0  0  0  0  0  0  0  0  0
  188.9100  177.4980  140.6000 C   0  0  0  0  0  1  0  0  0  0  0  0
  189.8310  178.2220  145.2660 C   0  0  0  0  0  2  0  0  0  0  0  0
  185.2630  178.5430  144.1120 C   0  0  0  0  0  0  0  0  0  0  0  0
  185.3170  178.2510  146.9090 C   0  0  0  0  0  3  0  0  0  0  0  0
  185.3640  178.6380  142.7000 C   0  0  0  0  0  0  0  0  0  0  0  0
  191.0340  177.2900  145.2810 C   0  0  0  0  0  2  0  0  0  0  0  0
  191.2580  176.8600  142.8360 C   0  0  0  0  0  0  0  0  0  0  0  0
  184.1140  178.8060  144.9030 C   0  0  0  0  0  0  0  0  0  0  0  0
  187.8010  177.5330  146.5910 C   0  0  0  0  0  2  0  0  0  0  0  0
  187.7200  177.8920  142.8040 C   0  0  0  0  0  0  0  0  0  0  0  0
  189.0460  177.6610  142.1070 C   0  0  1  0  0  3  0  0  0  0  0  0
  182.8850  179.2280  144.3200 N   0  0  0  0  0  1  0  0  0  0  0  0
  184.2080  179.0020  141.8300 C   0  0  0  0  0  2  0  0  0  0  0  0
  183.4260  178.5640  139.1220 O   0  0  0  0  0  0  0  0  0  0  0  0
  183.2390  177.6300  139.9470 C   0  0  0  0  0  0  0  0  0  0  0  0
  183.5940  177.7890  141.3180 N   0  0  0  0  0  2  0  0  0  0  0  0
  182.6800  176.3290  139.4840 C   0  0  0  0  0  2  0  0  0  0  0  0
  180.5350  176.8510  138.3630 C   0  0  0  0  0  3  0  0  0  0  0  0
  181.8250  176.5300  138.2610 C   0  0  0  0  0  0  0  0  0  0  0  0
  183.6740  175.8520  136.7640 C   0  0  0  0  0  1  0  0  0  0  0  0
  182.3680  176.3710  136.9810 O   0  0  0  0  0  0  0  0  0  0  0  0
  179.8330  177.0540  139.6820 C   0  0  0  0  0  2  0  0  0  0  0  0
  180.4310  180.2760  139.4600 C   0  0  0  0  0  0  0  0  0  0  0  0
  181.2170  181.2960  138.7200 C   0  0  0  0  0  1  0  0  0  0  0  0
  179.5150  179.1020  141.0840 C   0  0  1  0  0  3  0  0  0  0  0  0
  180.1040  178.2570  142.2140 C   0  0  0  0  0  1  0  0  0  0  0  0
  180.3870  180.2190  140.7410 N   0  0  0  0  0  0  0  0  0  0  0  0
  179.2020  178.3820  139.8200 N   0  0  0  0  0  0  0  0  0  0  0  0
  179.7210  179.2330  138.8300 N   0  0  0  0  0  2  0  0  0  0  0  0
  1 18  1  0  0  0  0
  1 13  1  0  0  0  0
  2 16  2  0  0  0  0
  3  9  1  0  0  0  0
  3  4  1  0  0  0  0
  4 11  1  1  0  0  0
  4 18  1  0  0  0  0
  5 13  2  0  0  0  0
  6 15  1  0  0  0  0
  7 16  1  0  0  0  0
  8 14  2  0  0  0  0
  8 19  1  0  0  0  0
  9  1  2  0  0  0  0
 11 15  1  0  0  0  0
 12  9  1  0  0  0  0
 12 17  2  0  0  0  0
 14 12  1  0  0  0  0
 16  6  1  0  0  0  0
 17  5  1  0  0  0  0
 19  3  2  0  0  0  0
 20 10  1  6  0  0  0
 20  7  1  0  0  0  0
 20 19  1  0  0  0  0
 21 17  1  0  0  0  0
 22 14  1  0  0  0  0
 23 24  2  0  0  0  0
 24 25  1  0  0  0  0
 25 22  1  0  0  0  0
 26 24  1  0  0  0  0
 27 31  1  0  0  0  0
 28 27  2  0  0  0  0
 28 26  1  0  0  0  0
 29 30  1  0  0  0  0
 30 28  1  0  0  0  0
 31 37  1  0  0  0  0
 32 36  2  0  0  0  0
 33 32  1  0  0  0  0
 34 35  1  1  0  0  0
 36 34  1  0  0  0  0
 37 34  1  0  0  0  0
 38 32  1  0  0  0  0
 38 37  1  0  0  0  0
M  END
>  <MODEL>
5

>  <REMARK>
 VINA RESULT:      -9.7      2.741      4.729
  Name = 
  7 active torsions:
  status: ('A' for Active; 'I' for Inactive)
    1  A    between atoms: C_1  and  N_25
    2  A    between atoms: C_1  and  C_28
    3  A    between atoms: C_8  and  C_11
    4  A    between atoms: C_8  and  N_32
    5  A    between atoms: C_16  and  C_22
    6  A    between atoms: C_16  and  O_29
    7  A    between atoms: C_20  and  C_22
                            x       y       z     vdW  Elec       q    Type
                         _______ _______ _______ _____ _____    ______ ____

>  <TORSDO>
F 7

$$$$
=
 OpenBabel11062413023D

 38 42  0  0  1  0  0  0  0  0999 V2000
  188.4930  177.5170  146.0800 C   0  0  0  0  0  0  0  0  0  0  0  0
  190.9460  177.3390  139.3720 O   0  0  0  0  0  0  0  0  0  0  0  0
  188.4280  177.6860  143.8290 C   0  0  0  0  0  0  0  0  0  0  0  0
  189.8220  177.2030  144.1300 C   0  0  1  0  0  3  0  0  0  0  0  0
  186.6190  177.9510  147.4630 N   0  0  0  0  0  0  0  0  0  0  0  0
  191.8760  177.6060  141.4500 O   0  0  0  0  0  0  0  0  0  0  0  0
  189.5200  176.7160  141.1670 C   0  0  0  0  0  2  0  0  0  0  0  0
  186.4310  178.3110  142.6330 C   0  0  0  0  0  3  0  0  0  0  0  0
  187.7340  177.8140  144.9950 C   0  0  0  0  0  0  0  0  0  0  0  0
  187.6300  177.8780  140.0630 C   0  0  0  0  0  1  0  0  0  0  0  0
  190.8780  178.1570  143.6000 C   0  0  0  0  0  2  0  0  0  0  0  0
  186.3910  178.1820  145.0730 C   0  0  0  0  0  0  0  0  0  0  0  0
  187.9300  177.5850  147.3500 C   0  0  0  0  0  3  0  0  0  0  0  0
  185.7240  178.4430  143.8480 C   0  0  0  0  0  0  0  0  0  0  0  0
  191.9220  177.3450  142.8490 C   0  0  0  0  0  2  0  0  0  0  0  0
  190.8200  177.2140  140.6170 C   0  0  0  0  0  0  0  0  0  0  0  0
  185.8340  178.2470  146.3770 C   0  0  0  0  0  0  0  0  0  0  0  0
  189.8780  177.1400  145.6770 C   0  0  0  0  0  2  0  0  0  0  0  0
  187.7880  177.9120  142.5930 C   0  0  0  0  0  0  0  0  0  0  0  0
  188.5430  177.8840  141.2800 C   0  0  1  0  0  3  0  0  0  0  0  0
  184.4760  178.6160  146.5930 N   0  0  0  0  0  1  0  0  0  0  0  0
  184.2760  178.7930  143.7760 C   0  0  0  0  0  2  0  0  0  0  0  0
  181.5660  178.8750  142.8890 O   0  0  0  0  0  0  0  0  0  0  0  0
  182.4700  178.8210  142.0140 C   0  0  0  0  0  0  0  0  0  0  0  0
  183.8440  178.7630  142.3900 N   0  0  0  0  0  2  0  0  0  0  0  0
  182.1100  178.8580  140.5680 C   0  0  0  0  0  2  0  0  0  0  0  0
  181.2840  176.6640  139.7720 C   0  0  0  0  0  3  0  0  0  0  0  0
  181.0140  177.8690  140.2750 C   0  0  0  0  0  0  0  0  0  0  0  0
  179.1810  179.5270  140.3760 C   0  0  0  0  0  1  0  0  0  0  0  0
  179.6760  178.2000  140.5140 O   0  0  0  0  0  0  0  0  0  0  0  0
  182.6830  176.1850  139.4740 C   0  0  0  0  0  2  0  0  0  0  0  0
  184.5550  174.2860  137.5570 C   0  0  0  0  0  0  0  0  0  0  0  0
  185.3210  173.0150  137.5200 C   0  0  0  0  0  1  0  0  0  0  0  0
  183.9970  176.4090  137.3570 C   0  0  1  0  0  3  0  0  0  0  0  0
  184.5430  177.6900  137.9890 C   0  0  0  0  0  1  0  0  0  0  0  0
  185.0460  175.4110  137.1810 N   0  0  0  0  0  0  0  0  0  0  0  0
  182.8750  175.7480  138.0770 N   0  0  0  0  0  0  0  0  0  0  0  0
  183.2480  174.3930  138.0760 N   0  0  0  0  0  2  0  0  0  0  0  0
  1 13  1  0  0  0  0
  2 16  2  0  0  0  0
  3  4  1  0  0  0  0
  3  9  1  0  0  0  0
  4 11  1  1  0  0  0
  4 18  1  0  0  0  0
  6 15  1  0  0  0  0
  7 20  1  0  0  0  0
  8 14  2  0  0  0  0
  9 12  1  0  0  0  0
  9  1  2  0  0  0  0
 12 17  2  0  0  0  0
 13  5  2  0  0  0  0
 14 12  1  0  0  0  0
 15 11  1  0  0  0  0
 16  7  1  0  0  0  0
 16  6  1  0  0  0  0
 17 21  1  0  0  0  0
 17  5  1  0  0  0  0
 18  1  1  0  0  0  0
 19  8  1  0  0  0  0
 19  3  2  0  0  0  0
 20 10  1  6  0  0  0
 20 19  1  0  0  0  0
 22 14  1  0  0  0  0
 24 25  1  0  0  0  0
 24 23  2  0  0  0  0
 25 22  1  0  0  0  0
 26 24  1  0  0  0  0
 27 28  2  0  0  0  0
 28 30  1  0  0  0  0
 28 26  1  0  0  0  0
 29 30  1  0  0  0  0
 31 27  1  0  0  0  0
 32 38  1  0  0  0  0
 33 32  1  0  0  0  0
 34 35  1  1  0  0  0
 34 37  1  0  0  0  0
 36 34  1  0  0  0  0
 36 32  2  0  0  0  0
 37 31  1  0  0  0  0
 38 37  1  0  0  0  0
M  END
>  <MODEL>
6

>  <REMARK>
 VINA RESULT:      -9.7      2.393      3.738
  Name = 
  7 active torsions:
  status: ('A' for Active; 'I' for Inactive)
    1  A    between atoms: C_1  and  N_25
    2  A    between atoms: C_1  and  C_28
    3  A    between atoms: C_8  and  C_11
    4  A    between atoms: C_8  and  N_32
    5  A    between atoms: C_16  and  C_22
    6  A    between atoms: C_16  and  O_29
    7  A    between atoms: C_20  and  C_22
                            x       y       z     vdW  Elec       q    Type
                         _______ _______ _______ _____ _____    ______ ____

>  <TORSDO>
F 7

$$$$
=
 OpenBabel11062413023D

 38 42  0  0  1  0  0  0  0  0999 V2000
  187.6020  177.7820  146.2240 C   0  0  0  0  0  0  0  0  0  0  0  0
  191.5030  177.1850  140.2670 O   0  0  0  0  0  0  0  0  0  0  0  0
  188.0550  177.8310  144.0120 C   0  0  0  0  0  0  0  0  0  0  0  0
  189.3270  177.3320  144.6450 C   0  0  1  0  0  3  0  0  0  0  0  0
  185.4790  178.3330  147.1210 N   0  0  0  0  0  0  0  0  0  0  0  0
  191.9470  177.5420  142.4870 O   0  0  0  0  0  0  0  0  0  0  0  0
  189.6860  176.6930  141.7180 C   0  0  0  0  0  2  0  0  0  0  0  0
  186.4030  178.4370  142.3640 C   0  0  0  0  0  3  0  0  0  0  0  0
  187.1190  178.0380  144.9820 C   0  0  0  0  0  0  0  0  0  0  0  0
  188.1380  177.8370  140.1580 C   0  0  0  0  0  1  0  0  0  0  0  0
  190.5080  178.2320  144.3250 C   0  0  0  0  0  2  0  0  0  0  0  0
  185.8070  178.4400  144.7340 C   0  0  0  0  0  0  0  0  0  0  0  0
  186.7690  177.9320  147.3270 C   0  0  0  0  0  3  0  0  0  0  0  0
  185.4450  178.6500  143.3780 C   0  0  0  0  0  0  0  0  0  0  0  0
  191.6660  177.3560  143.8710 C   0  0  0  0  0  2  0  0  0  0  0  0
  191.0940  177.1300  141.4550 C   0  0  0  0  0  0  0  0  0  0  0  0
  184.9730  178.5890  145.8720 C   0  0  0  0  0  0  0  0  0  0  0  0
  189.0280  177.3510  146.1660 C   0  0  0  0  0  2  0  0  0  0  0  0
  187.7190  178.0040  142.6530 C   0  0  0  0  0  0  0  0  0  0  0  0
  188.7510  177.8870  141.5490 C   0  0  1  0  0  3  0  0  0  0  0  0
  183.6140  179.0010  145.7550 N   0  0  0  0  0  1  0  0  0  0  0  0
  184.0630  179.0300  142.9620 C   0  0  0  0  0  2  0  0  0  0  0  0
  181.4550  178.7570  141.8410 O   0  0  0  0  0  0  0  0  0  0  0  0
  182.4290  178.3090  141.1790 C   0  0  0  0  0  0  0  0  0  0  0  0
  183.7570  178.4000  141.6890 N   0  0  0  0  0  2  0  0  0  0  0  0
  182.2040  177.7130  139.8320 C   0  0  0  0  0  2  0  0  0  0  0  0
  183.1820  178.2600  137.6240 C   0  0  0  0  0  3  0  0  0  0  0  0
  182.6140  178.6820  138.7550 C   0  0  0  0  0  0  0  0  0  0  0  0
  181.1860  180.6950  138.6130 C   0  0  0  0  0  1  0  0  0  0  0  0
  182.4180  180.0570  138.9230 O   0  0  0  0  0  0  0  0  0  0  0  0
  183.4440  176.8070  137.3200 C   0  0  0  0  0  2  0  0  0  0  0  0
  186.5770  177.4960  136.6140 C   0  0  0  0  0  0  0  0  0  0  0  0
  187.5170  178.6060  136.3130 C   0  0  0  0  0  1  0  0  0  0  0  0
  185.4750  175.5900  136.5090 C   0  0  1  0  0  3  0  0  0  0  0  0
  184.5340  174.9910  135.4630 C   0  0  0  0  0  1  0  0  0  0  0  0
  186.4890  176.4380  135.8930 N   0  0  0  0  0  0  0  0  0  0  0  0
  184.8330  176.3850  137.5920 N   0  0  0  0  0  0  0  0  0  0  0  0
  185.6450  177.5300  137.6710 N   0  0  0  0  0  2  0  0  0  0  0  0
  1 13  1  0  0  0  0
  2 16  2  0  0  0  0
  3  4  1  0  0  0  0
  3  9  1  0  0  0  0
  4 11  1  1  0  0  0
  4 18  1  0  0  0  0
  5 13  2  0  0  0  0
  6 15  1  0  0  0  0
  8 19  1  0  0  0  0
  8 14  2  0  0  0  0
  9  1  2  0  0  0  0
 12  9  1  0  0  0  0
 12 17  2  0  0  0  0
 14 12  1  0  0  0  0
 15 11  1  0  0  0  0
 16  7  1  0  0  0  0
 16  6  1  0  0  0  0
 17  5  1  0  0  0  0
 18  1  1  0  0  0  0
 19  3  2  0  0  0  0
 20 10  1  6  0  0  0
 20  7  1  0  0  0  0
 20 19  1  0  0  0  0
 21 17  1  0  0  0  0
 22 14  1  0  0  0  0
 24 25  1  0  0  0  0
 24 23  2  0  0  0  0
 25 22  1  0  0  0  0
 26 24  1  0  0  0  0
 27 28  2  0  0  0  0
 28 30  1  0  0  0  0
 28 26  1  0  0  0  0
 29 30  1  0  0  0  0
 31 37  1  0  0  0  0
 31 27  1  0  0  0  0
 32 38  1  0  0  0  0
 33 32  1  0  0  0  0
 34 35  1  6  0  0  0
 34 37  1  0  0  0  0
 36 34  1  0  0  0  0
 36 32  2  0  0  0  0
 37 38  1  0  0  0  0
M  END
>  <MODEL>
7

>  <REMARK>
 VINA RESULT:      -9.7      1.993      3.156
  Name = 
  7 active torsions:
  status: ('A' for Active; 'I' for Inactive)
    1  A    between atoms: C_1  and  N_25
    2  A    between atoms: C_1  and  C_28
    3  A    between atoms: C_8  and  C_11
    4  A    between atoms: C_8  and  N_32
    5  A    between atoms: C_16  and  C_22
    6  A    between atoms: C_16  and  O_29
    7  A    between atoms: C_20  and  C_22
                            x       y       z     vdW  Elec       q    Type
                         _______ _______ _______ _____ _____    ______ ____

>  <TORSDO>
F 7

$$$$
=
 OpenBabel11062413023D

 38 42  0  0  1  0  0  0  0  0999 V2000
  189.1430  177.4740  146.0700 C   0  0  0  0  0  0  0  0  0  0  0  0
  182.7150  179.3770  143.5980 O   0  0  0  0  0  0  0  0  0  0  0  0
  187.5330  177.8870  144.5410 C   0  0  0  0  0  0  0  0  0  0  0  0
  186.9140  178.2840  145.8550 C   0  0  1  0  0  3  0  0  0  0  0  0
  191.3040  176.6910  145.4930 N   0  0  0  0  0  0  0  0  0  0  0  0
  183.5380  178.5920  145.5880 O   0  0  0  0  0  0  0  0  0  0  0  0
  185.0790  179.5120  143.7990 C   0  0  0  0  0  2  0  0  0  0  0  0
  187.8830  177.5790  142.1760 C   0  0  0  0  0  3  0  0  0  0  0  0
  188.8110  177.4610  144.7550 C   0  0  0  0  0  0  0  0  0  0  0  0
  185.3180  178.6630  141.4830 C   0  0  0  0  0  1  0  0  0  0  0  0
  185.6440  177.5020  146.1400 C   0  0  0  0  0  2  0  0  0  0  0  0
  189.6900  177.0790  143.7420 C   0  0  0  0  0  0  0  0  0  0  0  0
  190.4190  177.0800  146.4590 C   0  0  0  0  0  3  0  0  0  0  0  0
  189.2030  177.1370  142.4110 C   0  0  0  0  0  0  0  0  0  0  0  0
  184.5650  178.4850  146.5690 C   0  0  0  0  0  2  0  0  0  0  0  0
  183.7190  179.1790  144.3290 C   0  0  0  0  0  0  0  0  0  0  0  0
  190.9870  176.6790  144.1580 C   0  0  0  0  0  0  0  0  0  0  0  0
  188.0030  177.9490  146.9060 C   0  0  0  0  0  2  0  0  0  0  0  0
  187.0270  177.9830  143.2280 C   0  0  0  0  0  0  0  0  0  0  0  0
  185.5840  178.3500  142.9480 C   0  0  1  0  0  3  0  0  0  0  0  0
  191.9760  176.2600  143.2230 N   0  0  0  0  0  1  0  0  0  0  0  0
  190.0490  176.8100  141.2270 C   0  0  0  0  0  2  0  0  0  0  0  0
  190.8210  175.7530  138.6920 O   0  0  0  0  0  0  0  0  0  0  0  0
  189.6620  176.2350  138.8000 C   0  0  0  0  0  0  0  0  0  0  0  0
  189.2180  176.7920  140.0350 N   0  0  0  0  0  2  0  0  0  0  0  0
  188.7250  176.1880  137.6430 C   0  0  0  0  0  2  0  0  0  0  0  0
  186.4570  177.1610  137.4370 C   0  0  0  0  0  3  0  0  0  0  0  0
  187.7510  177.3340  137.7100 C   0  0  0  0  0  0  0  0  0  0  0  0
  189.0560  179.3770  137.2180 C   0  0  0  0  0  1  0  0  0  0  0  0
  188.1880  178.6190  138.0510 O   0  0  0  0  0  0  0  0  0  0  0  0
  185.8610  175.8280  137.0600 C   0  0  0  0  0  2  0  0  0  0  0  0
  183.0630  176.2710  138.7210 C   0  0  0  0  0  0  0  0  0  0  0  0
  182.4460  177.0260  139.8420 C   0  0  0  0  0  1  0  0  0  0  0  0
  183.6850  174.6360  137.3810 C   0  0  1  0  0  3  0  0  0  0  0  0
  184.5500  173.3930  137.5930 C   0  0  0  0  0  1  0  0  0  0  0  0
  182.9630  174.9980  138.5960 N   0  0  0  0  0  0  0  0  0  0  0  0
  184.3930  175.8560  136.9080 N   0  0  0  0  0  0  0  0  0  0  0  0
  183.8730  176.8680  137.7330 N   0  0  0  0  0  2  0  0  0  0  0  0
  1 13  1  0  0  0  0
  1 18  1  0  0  0  0
  2 16  2  0  0  0  0
  3  9  1  0  0  0  0
  3  4  1  0  0  0  0
  4 11  1  1  0  0  0
  4 18  1  0  0  0  0
  5 13  2  0  0  0  0
  6 15  1  0  0  0  0
  7 16  1  0  0  0  0
  8 14  2  0  0  0  0
  8 19  1  0  0  0  0
  9  1  2  0  0  0  0
 11 15  1  0  0  0  0
 12 17  2  0  0  0  0
 12  9  1  0  0  0  0
 14 12  1  0  0  0  0
 16  6  1  0  0  0  0
 17  5  1  0  0  0  0
 19  3  2  0  0  0  0
 20 10  1  6  0  0  0
 20 19  1  0  0  0  0
 20  7  1  0  0  0  0
 21 17  1  0  0  0  0
 22 14  1  0  0  0  0
 23 24  2  0  0  0  0
 24 25  1  0  0  0  0
 25 22  1  0  0  0  0
 26 28  1  0  0  0  0
 26 24  1  0  0  0  0
 27 28  2  0  0  0  0
 28 30  1  0  0  0  0
 29 30  1  0  0  0  0
 31 27  1  0  0  0  0
 32 33  1  0  0  0  0
 34 35  1  1  0  0  0
 34 36  1  0  0  0  0
 36 32  2  0  0  0  0
 37 31  1  0  0  0  0
 37 34  1  0  0  0  0
 37 38  1  0  0  0  0
 38 32  1  0  0  0  0
M  END
>  <MODEL>
8

>  <REMARK>
 VINA RESULT:      -9.6      2.824      5.051
  Name = 
  7 active torsions:
  status: ('A' for Active; 'I' for Inactive)
    1  A    between atoms: C_1  and  N_25
    2  A    between atoms: C_1  and  C_28
    3  A    between atoms: C_8  and  C_11
    4  A    between atoms: C_8  and  N_32
    5  A    between atoms: C_16  and  C_22
    6  A    between atoms: C_16  and  O_29
    7  A    between atoms: C_20  and  C_22
                            x       y       z     vdW  Elec       q    Type
                         _______ _______ _______ _____ _____    ______ ____

>  <TORSDO>
F 7

$$$$
=
 OpenBabel11062413023D

 38 42  0  0  1  0  0  0  0  0999 V2000
  186.8670  177.9100  146.0910 C   0  0  0  0  0  0  0  0  0  0  0  0
  192.0090  177.1380  141.1900 O   0  0  0  0  0  0  0  0  0  0  0  0
  187.8040  177.8780  144.0370 C   0  0  0  0  0  0  0  0  0  0  0  0
  188.9050  177.4250  144.9590 C   0  0  1  0  0  3  0  0  0  0  0  0
  184.5940  178.4640  146.4670 N   0  0  0  0  0  0  0  0  0  0  0  0
  191.9410  177.5890  143.4360 O   0  0  0  0  0  0  0  0  0  0  0  0
  189.9160  176.6760  142.2160 C   0  0  0  0  0  2  0  0  0  0  0  0
  186.5610  178.3930  142.0370 C   0  0  0  0  0  3  0  0  0  0  0  0
  186.6740  178.1090  144.7630 C   0  0  0  0  0  0  0  0  0  0  0  0
  188.7500  177.7330  140.3030 C   0  0  0  0  0  1  0  0  0  0  0  0
  190.1220  178.3290  144.8750 C   0  0  0  0  0  2  0  0  0  0  0  0
  185.4490  178.4810  144.2110 C   0  0  0  0  0  0  0  0  0  0  0  0
  185.8070  178.0910  146.9730 C   0  0  0  0  0  3  0  0  0  0  0  0
  185.3980  178.6320  142.8010 C   0  0  0  0  0  0  0  0  0  0  0  0
  191.3580  177.4540  144.7280 C   0  0  0  0  0  2  0  0  0  0  0  0
  191.3440  177.1230  142.2580 C   0  0  0  0  0  0  0  0  0  0  0  0
  184.3790  178.6620  145.1260 C   0  0  0  0  0  0  0  0  0  0  0  0
  188.2730  177.5000  146.3720 C   0  0  0  0  0  2  0  0  0  0  0  0
  187.7810  177.9920  142.6310 C   0  0  0  0  0  0  0  0  0  0  0  0
  189.0350  177.8480  141.7930 C   0  0  1  0  0  3  0  0  0  0  0  0
  183.0790  179.0480  144.6900 N   0  0  0  0  0  1  0  0  0  0  0  0
  184.1430  178.9730  142.0700 C   0  0  0  0  0  2  0  0  0  0  0  0
  184.5560  180.1190  139.4910 O   0  0  0  0  0  0  0  0  0  0  0  0
  184.3380  178.8800  139.5560 C   0  0  0  0  0  0  0  0  0  0  0  0
  184.1090  178.2470  140.8120 N   0  0  0  0  0  2  0  0  0  0  0  0
  184.3590  178.0540  138.3160 C   0  0  0  0  0  2  0  0  0  0  0  0
  182.8170  177.5000  136.4600 C   0  0  0  0  0  3  0  0  0  0  0  0
  183.0140  178.0880  137.6410 C   0  0  0  0  0  0  0  0  0  0  0  0
  181.2260  179.7950  137.5820 C   0  0  0  0  0  1  0  0  0  0  0  0
  181.9360  178.7510  138.2360 O   0  0  0  0  0  0  0  0  0  0  0  0
  183.8940  176.7510  135.7170 C   0  0  0  0  0  2  0  0  0  0  0  0
  182.2200  174.1550  136.8330 C   0  0  0  0  0  0  0  0  0  0  0  0
  181.0090  173.7520  137.5930 C   0  0  0  0  0  1  0  0  0  0  0  0
  184.3040  174.3180  136.1350 C   0  0  1  0  0  3  0  0  0  0  0  0
  185.5920  174.7880  136.8120 C   0  0  0  0  0  1  0  0  0  0  0  0
  183.3920  173.7000  137.0910 N   0  0  0  0  0  0  0  0  0  0  0  0
  183.5330  175.3550  135.3960 N   0  0  0  0  0  0  0  0  0  0  0  0
  182.2100  175.1250  135.8100 N   0  0  0  0  0  2  0  0  0  0  0  0
  1 18  1  0  0  0  0
  1 13  1  0  0  0  0
  2 16  2  0  0  0  0
  3  9  1  0  0  0  0
  3  4  1  0  0  0  0
  4 11  1  1  0  0  0
  4 18  1  0  0  0  0
  5 13  2  0  0  0  0
  6 15  1  0  0  0  0
  7 16  1  0  0  0  0
  8 19  1  0  0  0  0
  8 14  2  0  0  0  0
  9  1  2  0  0  0  0
 12  9  1  0  0  0  0
 12 17  2  0  0  0  0
 14 12  1  0  0  0  0
 15 11  1  0  0  0  0
 16  6  1  0  0  0  0
 17  5  1  0  0  0  0
 19  3  2  0  0  0  0
 20 10  1  6  0  0  0
 20  7  1  0  0  0  0
 20 19  1  0  0  0  0
 21 17  1  0  0  0  0
 22 14  1  0  0  0  0
 23 24  2  0  0  0  0
 24 25  1  0  0  0  0
 25 22  1  0  0  0  0
 26 24  1  0  0  0  0
 27 28  2  0  0  0  0
 28 30  1  0  0  0  0
 28 26  1  0  0  0  0
 29 30  1  0  0  0  0
 31 27  1  0  0  0  0
 32 36  2  0  0  0  0
 32 33  1  0  0  0  0
 34 35  1  1  0  0  0
 34 36  1  0  0  0  0
 37 31  1  0  0  0  0
 37 38  1  0  0  0  0
 37 34  1  0  0  0  0
 38 32  1  0  0  0  0
M  END
>  <MODEL>
9

>  <REMARK>
 VINA RESULT:      -9.6      1.720      2.614
  Name = 
  7 active torsions:
  status: ('A' for Active; 'I' for Inactive)
    1  A    between atoms: C_1  and  N_25
    2  A    between atoms: C_1  and  C_28
    3  A    between atoms: C_8  and  C_11
    4  A    between atoms: C_8  and  N_32
    5  A    between atoms: C_16  and  C_22
    6  A    between atoms: C_16  and  O_29
    7  A    between atoms: C_20  and  C_22
                            x       y       z     vdW  Elec       q    Type
                         _______ _______ _______ _____ _____    ______ ____

>  <TORSDO>
F 7

$$$$
