=
 OpenBabel11062416343D

 29 35  0  0  1  0  0  0  0  0999 V2000
  190.0930  177.0000  142.7450 N   0  0  0  0  0  0  0  0  0  0  0  0
  189.3980  177.8460  143.6780 C   0  0  2  0  0  3  0  0  0  0  0  0
  190.2150  176.7380  144.2300 C   0  0  1  0  0  0  0  0  0  0  0  0
  191.4450  176.0590  144.3070 C   0  0  0  0  0  0  0  0  0  0  0  0
  191.2460  177.4520  144.8750 N   0  0  0  0  0  2  0  0  0  0  0  0
  192.1720  175.0590  144.0730 O   0  0  0  0  0  0  0  0  0  0  0  0
  185.3510  178.8130  146.2370 C   0  0  0  0  0  3  0  0  0  0  0  0
  186.0140  178.5970  147.4460 C   0  0  0  0  0  3  0  0  0  0  0  0
  187.9220  177.4670  143.7290 C   0  0  1  0  0  3  0  0  0  0  0  0
  187.2890  178.0280  147.4520 C   0  0  0  0  0  3  0  0  0  0  0  0
  187.2660  177.9260  145.0210 C   0  0  0  0  0  0  0  0  0  0  0  0
  185.2160  178.7440  143.7510 C   0  0  0  0  0  2  0  0  0  0  0  0
  187.2180  178.0120  142.4830 C   0  0  0  0  0  2  0  0  0  0  0  0
  185.7100  177.8620  142.6120 C   0  0  0  0  0  2  0  0  0  0  0  0
  185.9560  178.4630  145.0270 C   0  0  0  0  0  0  0  0  0  0  0  0
  187.9070  177.6860  146.2470 C   0  0  0  0  0  3  0  0  0  0  0  0
  191.1470  177.7910  142.2440 N   0  0  0  0  0  2  0  0  0  0  0  0
  191.4260  177.3110  140.9020 C   0  0  0  0  0  2  0  0  0  0  0  0
  190.3590  176.4150  140.4790 N   0  0  0  0  0  2  0  0  0  0  0  0
  191.1000  175.4050  138.2690 C   0  0  0  0  0  2  0  0  0  0  0  0
  190.2810  176.4410  139.0210 C   0  0  0  0  0  0  0  0  0  0  0  0
  191.6050  176.8340  138.4020 C   0  0  0  0  0  2  0  0  0  0  0  0
  188.1950  178.0300  139.1820 C   0  0  0  0  0  2  0  0  0  0  0  0
  189.0760  177.1090  138.3560 C   0  0  2  0  0  0  0  0  0  0  0  0
  188.5750  176.6190  137.0110 C   0  0  2  0  0  3  0  0  0  0  0  0
  188.0630  177.7600  136.2640 N   0  0  0  0  0  2  0  0  0  0  0  0
  189.2350  178.6000  138.2300 C   0  0  1  0  0  3  0  0  0  0  0  0
  188.6010  178.9610  136.8980 C   0  0  0  0  0  2  0  0  0  0  0  0
  187.4780  175.5860  137.1910 C   0  0  0  0  0  1  0  0  0  0  0  0
  1  3  1  0  0  0  0
  2  1  1  6  0  0  0
  2  9  1  0  0  0  0
  2  3  1  0  0  0  0
  3  4  1  1  0  0  0
  3  5  1  0  0  0  0
  4  5  1  0  0  0  0
  6  4  2  0  0  0  0
  7  8  1  0  0  0  0
  8 10  2  0  0  0  0
  9 13  1  6  0  0  0
  9 11  1  0  0  0  0
 11 15  1  0  0  0  0
 11 16  2  0  0  0  0
 12 15  1  0  0  0  0
 13 14  1  0  0  0  0
 14 12  1  0  0  0  0
 15  7  2  0  0  0  0
 16 10  1  0  0  0  0
 17  1  1  0  0  0  0
 18 17  1  0  0  0  0
 19 18  1  0  0  0  0
 20 22  1  0  0  0  0
 20 21  1  0  0  0  0
 21 19  1  0  0  0  0
 22 21  1  0  0  0  0
 24 21  1  1  0  0  0
 24 23  1  0  0  0  0
 25 29  1  1  0  0  0
 25 24  1  0  0  0  0
 26 28  1  0  0  0  0
 26 25  1  0  0  0  0
 27 28  1  6  0  0  0
 27 24  1  0  0  0  0
 27 23  1  0  0  0  0
M  END
>  <MODEL>
1

>  <REMARK>
 VINA RESULT:      -9.0      0.000      0.000
  Name = 
  6 active torsions:
  status: ('A' for Active; 'I' for Inactive)
    1  A    between atoms: N_2  and  N_17
    2  A    between atoms: C_3  and  C_12
    3  A    between atoms: C_5  and  C_10
    4  A    between atoms: C_5  and  N_16
    5  A    between atoms: C_14  and  N_16
    6  A    between atoms: C_14  and  N_17
                            x       y       z     vdW  Elec       q    Type
                         _______ _______ _______ _____ _____    ______ ____

>  <TORSDO>
F 6

$$$$
=
 OpenBabel11062416343D

 29 35  0  0  1  0  0  0  0  0999 V2000
  190.0660  177.0230  142.6140 N   0  0  0  0  0  0  0  0  0  0  0  0
  189.3430  177.8750  143.5190 C   0  0  2  0  0  3  0  0  0  0  0  0
  190.1360  176.7650  144.1040 C   0  0  1  0  0  0  0  0  0  0  0  0
  191.3600  176.0820  144.2250 C   0  0  0  0  0  0  0  0  0  0  0  0
  191.1460  177.4770  144.7820 N   0  0  0  0  0  2  0  0  0  0  0  0
  192.0910  175.0790  144.0200 O   0  0  0  0  0  0  0  0  0  0  0  0
  185.2280  178.8020  145.9840 C   0  0  0  0  0  3  0  0  0  0  0  0
  185.8550  178.5570  147.2060 C   0  0  0  0  0  3  0  0  0  0  0  0
  187.8640  177.5010  143.5210 C   0  0  1  0  0  3  0  0  0  0  0  0
  187.1280  177.9830  147.2350 C   0  0  0  0  0  3  0  0  0  0  0  0
  187.1730  177.9340  144.8030 C   0  0  0  0  0  0  0  0  0  0  0  0
  185.1640  178.7880  143.4940 C   0  0  0  0  0  2  0  0  0  0  0  0
  187.1980  178.0750  142.2670 C   0  0  0  0  0  2  0  0  0  0  0  0
  185.6870  177.9290  142.3500 C   0  0  0  0  0  2  0  0  0  0  0  0
  185.8660  178.4770  144.7830 C   0  0  0  0  0  0  0  0  0  0  0  0
  187.7780  177.6650  146.0410 C   0  0  0  0  0  3  0  0  0  0  0  0
  191.1400  177.8080  142.1470 N   0  0  0  0  0  2  0  0  0  0  0  0
  191.4450  177.3420  140.8070 C   0  0  0  0  0  2  0  0  0  0  0  0
  190.3880  176.4480  140.3550 N   0  0  0  0  0  2  0  0  0  0  0  0
  189.5020  178.3040  138.8660 C   0  0  0  0  0  2  0  0  0  0  0  0
  189.9640  176.8660  139.0220 C   0  0  0  0  0  0  0  0  0  0  0  0
  188.4830  177.1790  138.9840 C   0  0  0  0  0  2  0  0  0  0  0  0
  189.6340  174.8790  137.3340 C   0  0  0  0  0  2  0  0  0  0  0  0
  190.4490  176.0710  137.8070 C   0  0  2  0  0  0  0  0  0  0  0  0
  191.8620  176.2520  137.2890 C   0  0  2  0  0  3  0  0  0  0  0  0
  191.8480  176.0950  135.8410 N   0  0  0  0  0  2  0  0  0  0  0  0
  189.5400  176.2180  136.6170 C   0  0  1  0  0  3  0  0  0  0  0  0
  190.4600  176.2450  135.4090 C   0  0  0  0  0  2  0  0  0  0  0  0
  192.7960  175.2280  137.9100 C   0  0  0  0  0  1  0  0  0  0  0  0
  1  3  1  0  0  0  0
  2  1  1  6  0  0  0
  2  9  1  0  0  0  0
  2  3  1  0  0  0  0
  3  4  1  1  0  0  0
  3  5  1  0  0  0  0
  4  5  1  0  0  0  0
  6  4  2  0  0  0  0
  7  8  1  0  0  0  0
  8 10  2  0  0  0  0
  9 13  1  6  0  0  0
  9 11  1  0  0  0  0
 11 16  2  0  0  0  0
 12 15  1  0  0  0  0
 13 14  1  0  0  0  0
 14 12  1  0  0  0  0
 15 11  1  0  0  0  0
 15  7  2  0  0  0  0
 16 10  1  0  0  0  0
 17  1  1  0  0  0  0
 18 17  1  0  0  0  0
 19 18  1  0  0  0  0
 20 22  1  0  0  0  0
 20 21  1  0  0  0  0
 21 19  1  0  0  0  0
 22 21  1  0  0  0  0
 24 23  1  1  0  0  0
 24 21  1  0  0  0  0
 25 24  1  0  0  0  0
 25 29  1  1  0  0  0
 26 25  1  0  0  0  0
 27 28  1  6  0  0  0
 27 23  1  0  0  0  0
 27 24  1  0  0  0  0
 28 26  1  0  0  0  0
M  END
>  <MODEL>
2

>  <REMARK>
 VINA RESULT:      -8.6      1.118      2.034
  Name = 
  6 active torsions:
  status: ('A' for Active; 'I' for Inactive)
    1  A    between atoms: N_2  and  N_17
    2  A    between atoms: C_3  and  C_12
    3  A    between atoms: C_5  and  C_10
    4  A    between atoms: C_5  and  N_16
    5  A    between atoms: C_14  and  N_16
    6  A    between atoms: C_14  and  N_17
                            x       y       z     vdW  Elec       q    Type
                         _______ _______ _______ _____ _____    ______ ____

>  <TORSDO>
F 6

$$$$
=
 OpenBabel11062416343D

 29 35  0  0  1  0  0  0  0  0999 V2000
  188.3990  177.1190  141.6020 N   0  0  0  0  0  0  0  0  0  0  0  0
  187.8530  178.0620  142.5410 C   0  0  2  0  0  3  0  0  0  0  0  0
  188.7040  176.9710  143.0770 C   0  0  1  0  0  0  0  0  0  0  0  0
  189.9150  176.2550  143.0540 C   0  0  0  0  0  0  0  0  0  0  0  0
  189.8280  177.6950  143.5250 N   0  0  0  0  0  2  0  0  0  0  0  0
  190.5790  175.2130  142.8140 O   0  0  0  0  0  0  0  0  0  0  0  0
  184.3780  178.8570  145.8820 C   0  0  0  0  0  3  0  0  0  0  0  0
  185.2240  178.4560  146.9170 C   0  0  0  0  0  3  0  0  0  0  0  0
  186.3860  177.7430  142.8100 C   0  0  1  0  0  3  0  0  0  0  0  0
  186.4410  177.8370  146.6260 C   0  0  0  0  0  3  0  0  0  0  0  0
  185.9930  178.0560  144.2440 C   0  0  0  0  0  0  0  0  0  0  0  0
  183.8140  179.1210  143.4700 C   0  0  0  0  0  2  0  0  0  0  0  0
  185.5150  178.4760  141.7850 C   0  0  0  0  0  2  0  0  0  0  0  0
  184.0460  178.3760  142.1630 C   0  0  0  0  0  2  0  0  0  0  0  0
  184.7430  178.6440  144.5490 C   0  0  0  0  0  0  0  0  0  0  0  0
  186.8190  177.6300  145.2970 C   0  0  0  0  0  3  0  0  0  0  0  0
  189.4010  177.8280  140.9080 N   0  0  0  0  0  2  0  0  0  0  0  0
  188.7550  178.4530  139.7680 C   0  0  0  0  0  2  0  0  0  0  0  0
  188.1890  177.4220  138.9090 N   0  0  0  0  0  2  0  0  0  0  0  0
  189.0740  178.9210  137.0600 C   0  0  0  0  0  2  0  0  0  0  0  0
  188.8100  177.5230  137.5910 C   0  0  0  0  0  0  0  0  0  0  0  0
  187.8650  178.1310  136.5780 C   0  0  0  0  0  2  0  0  0  0  0  0
  190.5440  176.5350  135.8820 C   0  0  0  0  0  2  0  0  0  0  0  0
  189.5960  176.3260  137.0500 C   0  0  2  0  0  0  0  0  0  0  0  0
  189.2030  174.9140  137.4390 C   0  0  2  0  0  3  0  0  0  0  0  0
  190.4100  174.1030  137.5180 N   0  0  0  0  0  2  0  0  0  0  0  0
  191.0740  176.4390  137.3040 C   0  0  1  0  0  3  0  0  0  0  0  0
  191.5390  175.0260  137.6090 C   0  0  0  0  0  2  0  0  0  0  0  0
  188.2490  174.3220  136.4170 C   0  0  0  0  0  1  0  0  0  0  0  0
  1  3  1  0  0  0  0
  2  1  1  6  0  0  0
  2  9  1  0  0  0  0
  2  3  1  0  0  0  0
  3  4  1  1  0  0  0
  3  5  1  0  0  0  0
  4  5  1  0  0  0  0
  6  4  2  0  0  0  0
  7  8  1  0  0  0  0
  9 13  1  6  0  0  0
  9 11  1  0  0  0  0
 10  8  2  0  0  0  0
 11 15  1  0  0  0  0
 11 16  2  0  0  0  0
 12 15  1  0  0  0  0
 13 14  1  0  0  0  0
 14 12  1  0  0  0  0
 15  7  2  0  0  0  0
 16 10  1  0  0  0  0
 17  1  1  0  0  0  0
 18 17  1  0  0  0  0
 19 18  1  0  0  0  0
 20 21  1  0  0  0  0
 21 19  1  0  0  0  0
 22 20  1  0  0  0  0
 22 21  1  0  0  0  0
 24 23  1  6  0  0  0
 24 27  1  0  0  0  0
 24 25  1  0  0  0  0
 24 21  1  0  0  0  0
 25 29  1  6  0  0  0
 25 26  1  0  0  0  0
 26 28  1  0  0  0  0
 27 23  1  6  0  0  0
 27 28  1  0  0  0  0
M  END
>  <MODEL>
3

>  <REMARK>
 VINA RESULT:      -8.5      1.527      2.573
  Name = 
  6 active torsions:
  status: ('A' for Active; 'I' for Inactive)
    1  A    between atoms: N_2  and  N_17
    2  A    between atoms: C_3  and  C_12
    3  A    between atoms: C_5  and  C_10
    4  A    between atoms: C_5  and  N_16
    5  A    between atoms: C_14  and  N_16
    6  A    between atoms: C_14  and  N_17
                            x       y       z     vdW  Elec       q    Type
                         _______ _______ _______ _____ _____    ______ ____

>  <TORSDO>
F 6

$$$$
=
 OpenBabel11062416343D

 29 35  0  0  1  0  0  0  0  0999 V2000
  188.8590  177.3830  140.5700 N   0  0  0  0  0  0  0  0  0  0  0  0
  189.4180  177.7630  141.8390 C   0  0  2  0  0  3  0  0  0  0  0  0
  190.1540  176.7540  141.0370 C   0  0  1  0  0  0  0  0  0  0  0  0
  190.7480  176.3710  139.8210 C   0  0  0  0  0  0  0  0  0  0  0  0
  191.3180  177.4720  140.6950 N   0  0  0  0  0  2  0  0  0  0  0  0
  190.7820  175.6610  138.7820 O   0  0  0  0  0  0  0  0  0  0  0  0
  189.5730  177.2390  146.6940 C   0  0  0  0  0  3  0  0  0  0  0  0
  190.9310  176.9170  146.6570 C   0  0  0  0  0  3  0  0  0  0  0  0
  188.6690  177.0670  142.9710 C   0  0  1  0  0  3  0  0  0  0  0  0
  191.5550  176.6550  145.4350 C   0  0  0  0  0  3  0  0  0  0  0  0
  189.4630  177.0790  144.2650 C   0  0  0  0  0  0  0  0  0  0  0  0
  187.3800  177.6820  145.5990 C   0  0  0  0  0  2  0  0  0  0  0  0
  187.2830  177.7000  143.1210 C   0  0  0  0  0  2  0  0  0  0  0  0
  186.6000  177.1980  144.3840 C   0  0  0  0  0  2  0  0  0  0  0  0
  188.8300  177.3010  145.5120 C   0  0  0  0  0  0  0  0  0  0  0  0
  190.8230  176.7260  144.2480 C   0  0  0  0  0  3  0  0  0  0  0  0
  189.0660  178.4940  139.7270 N   0  0  0  0  0  2  0  0  0  0  0  0
  188.2740  178.2640  138.5330 C   0  0  0  0  0  2  0  0  0  0  0  0
  186.8650  178.4600  138.8430 N   0  0  0  0  0  2  0  0  0  0  0  0
  186.7810  176.5920  137.1240 C   0  0  0  0  0  2  0  0  0  0  0  0
  186.0680  177.6940  137.8890 C   0  0  0  0  0  0  0  0  0  0  0  0
  186.5200  177.9390  136.4660 C   0  0  0  0  0  2  0  0  0  0  0  0
  183.6830  177.3670  136.8350 C   0  0  0  0  0  2  0  0  0  0  0  0
  184.5460  177.6680  138.0490 C   0  0  2  0  0  0  0  0  0  0  0  0
  183.8970  178.2450  139.2910 C   0  0  2  0  0  3  0  0  0  0  0  0
  182.7100  177.4600  139.6020 N   0  0  0  0  0  2  0  0  0  0  0  0
  183.9680  176.2900  137.8710 C   0  0  1  0  0  3  0  0  0  0  0  0
  182.8320  176.1990  138.8750 C   0  0  0  0  0  2  0  0  0  0  0  0
  183.5120  179.6970  139.0700 C   0  0  0  0  0  1  0  0  0  0  0  0
  1  3  1  0  0  0  0
  2  1  1  6  0  0  0
  2  9  1  0  0  0  0
  3  4  1  1  0  0  0
  3  2  1  0  0  0  0
  4  5  1  0  0  0  0
  5  3  1  0  0  0  0
  6  4  2  0  0  0  0
  8  7  1  0  0  0  0
  9 13  1  1  0  0  0
  9 11  1  0  0  0  0
 10  8  2  0  0  0  0
 11 15  1  0  0  0  0
 13 14  1  0  0  0  0
 14 12  1  0  0  0  0
 15 12  1  0  0  0  0
 15  7  2  0  0  0  0
 16 11  2  0  0  0  0
 16 10  1  0  0  0  0
 17  1  1  0  0  0  0
 18 19  1  0  0  0  0
 18 17  1  0  0  0  0
 20 21  1  0  0  0  0
 21 24  1  0  0  0  0
 21 19  1  0  0  0  0
 22 20  1  0  0  0  0
 22 21  1  0  0  0  0
 24 23  1  6  0  0  0
 24 25  1  0  0  0  0
 25 29  1  6  0  0  0
 25 26  1  0  0  0  0
 27 23  1  6  0  0  0
 27 24  1  0  0  0  0
 27 28  1  0  0  0  0
 28 26  1  0  0  0  0
M  END
>  <MODEL>
4

>  <REMARK>
 VINA RESULT:      -8.3      2.833      4.379
  Name = 
  6 active torsions:
  status: ('A' for Active; 'I' for Inactive)
    1  A    between atoms: N_2  and  N_17
    2  A    between atoms: C_3  and  C_12
    3  A    between atoms: C_5  and  C_10
    4  A    between atoms: C_5  and  N_16
    5  A    between atoms: C_14  and  N_16
    6  A    between atoms: C_14  and  N_17
                            x       y       z     vdW  Elec       q    Type
                         _______ _______ _______ _____ _____    ______ ____

>  <TORSDO>
F 6

$$$$
=
 OpenBabel11062416343D

 29 35  0  0  1  0  0  0  0  0999 V2000
  188.4770  177.1790  141.6560 N   0  0  0  0  0  0  0  0  0  0  0  0
  187.9500  178.1190  142.6090 C   0  0  2  0  0  3  0  0  0  0  0  0
  188.7750  177.0000  143.1290 C   0  0  1  0  0  0  0  0  0  0  0  0
  189.9690  176.2580  143.0980 C   0  0  0  0  0  0  0  0  0  0  0  0
  189.9130  177.6920  143.5920 N   0  0  0  0  0  2  0  0  0  0  0  0
  190.6110  175.2060  142.8430 O   0  0  0  0  0  0  0  0  0  0  0  0
  184.4660  179.0030  145.9180 C   0  0  0  0  0  3  0  0  0  0  0  0
  185.2970  178.5950  146.9620 C   0  0  0  0  0  3  0  0  0  0  0  0
  186.4750  177.8280  142.8700 C   0  0  1  0  0  3  0  0  0  0  0  0
  186.5040  177.9520  146.6850 C   0  0  0  0  0  3  0  0  0  0  0  0
  186.0780  178.1600  144.2980 C   0  0  0  0  0  0  0  0  0  0  0  0
  183.9240  179.2580  143.5000 C   0  0  0  0  0  2  0  0  0  0  0  0
  185.6250  178.5690  141.8320 C   0  0  0  0  0  2  0  0  0  0  0  0
  184.1520  178.4980  142.2000 C   0  0  0  0  0  2  0  0  0  0  0  0
  184.8360  178.7720  144.5900 C   0  0  0  0  0  0  0  0  0  0  0  0
  186.8880  177.7280  145.3610 C   0  0  0  0  0  3  0  0  0  0  0  0
  189.4960  177.8760  140.9760 N   0  0  0  0  0  2  0  0  0  0  0  0
  188.9100  178.3730  139.7450 C   0  0  0  0  0  2  0  0  0  0  0  0
  188.3320  177.2620  139.0020 N   0  0  0  0  0  2  0  0  0  0  0  0
  189.5860  177.5600  136.8130 C   0  0  0  0  0  2  0  0  0  0  0  0
  188.2810  177.6250  137.5880 C   0  0  0  0  0  0  0  0  0  0  0  0
  189.0550  178.8960  137.3130 C   0  0  0  0  0  2  0  0  0  0  0  0
  186.8090  178.2220  135.4950 C   0  0  0  0  0  2  0  0  0  0  0  0
  186.9390  177.5580  136.8550 C   0  0  2  0  0  0  0  0  0  0  0  0
  185.6840  177.1350  137.5930 C   0  0  2  0  0  3  0  0  0  0  0  0
  184.8270  176.4050  136.6700 N   0  0  0  0  0  2  0  0  0  0  0  0
  187.0000  176.7170  135.6090 C   0  0  1  0  0  3  0  0  0  0  0  0
  185.6630  176.0000  135.5420 C   0  0  0  0  0  2  0  0  0  0  0  0
  184.9470  178.3470  138.1340 C   0  0  0  0  0  1  0  0  0  0  0  0
  1  3  1  0  0  0  0
  2  1  1  6  0  0  0
  2  9  1  0  0  0  0
  2  3  1  0  0  0  0
  3  4  1  1  0  0  0
  3  5  1  0  0  0  0
  4  5  1  0  0  0  0
  6  4  2  0  0  0  0
  7  8  1  0  0  0  0
  9 13  1  6  0  0  0
  9 11  1  0  0  0  0
 10  8  2  0  0  0  0
 11 15  1  0  0  0  0
 11 16  2  0  0  0  0
 12 15  1  0  0  0  0
 13 14  1  0  0  0  0
 14 12  1  0  0  0  0
 15  7  2  0  0  0  0
 16 10  1  0  0  0  0
 17  1  1  0  0  0  0
 18 17  1  0  0  0  0
 19 18  1  0  0  0  0
 20 22  1  0  0  0  0
 20 21  1  0  0  0  0
 21 19  1  0  0  0  0
 22 21  1  0  0  0  0
 24 23  1  6  0  0  0
 24 21  1  0  0  0  0
 24 25  1  0  0  0  0
 25 29  1  6  0  0  0
 26 25  1  0  0  0  0
 27 23  1  6  0  0  0
 27 24  1  0  0  0  0
 28 27  1  0  0  0  0
 28 26  1  0  0  0  0
M  END
>  <MODEL>
5

>  <REMARK>
 VINA RESULT:      -8.3      1.743      2.514
  Name = 
  6 active torsions:
  status: ('A' for Active; 'I' for Inactive)
    1  A    between atoms: N_2  and  N_17
    2  A    between atoms: C_3  and  C_12
    3  A    between atoms: C_5  and  C_10
    4  A    between atoms: C_5  and  N_16
    5  A    between atoms: C_14  and  N_16
    6  A    between atoms: C_14  and  N_17
                            x       y       z     vdW  Elec       q    Type
                         _______ _______ _______ _____ _____    ______ ____

>  <TORSDO>
F 6

$$$$
=
 OpenBabel11062416343D

 29 35  0  0  1  0  0  0  0  0999 V2000
  188.2800  177.4110  141.8830 N   0  0  0  0  0  0  0  0  0  0  0  0
  188.8390  177.9800  143.0800 C   0  0  2  0  0  3  0  0  0  0  0  0
  189.7080  177.0920  142.2690 C   0  0  1  0  0  0  0  0  0  0  0  0
  190.2780  176.7570  141.0270 C   0  0  0  0  0  0  0  0  0  0  0  0
  190.6690  178.0070  141.7940 N   0  0  0  0  0  2  0  0  0  0  0  0
  190.3830  176.0020  140.0260 O   0  0  0  0  0  0  0  0  0  0  0  0
  190.0580  177.1070  147.7300 C   0  0  0  0  0  3  0  0  0  0  0  0
  191.3590  176.7570  147.3660 C   0  0  0  0  0  3  0  0  0  0  0  0
  188.3360  177.2230  144.3050 C   0  0  1  0  0  3  0  0  0  0  0  0
  191.6820  176.5680  146.0210 C   0  0  0  0  0  3  0  0  0  0  0  0
  189.4000  177.1240  145.3840 C   0  0  0  0  0  0  0  0  0  0  0  0
  187.6940  177.6800  147.1900 C   0  0  0  0  0  2  0  0  0  0  0  0
  187.0450  177.8770  144.8050 C   0  0  0  0  0  2  0  0  0  0  0  0
  186.6440  177.3020  146.1550 C   0  0  0  0  0  2  0  0  0  0  0  0
  189.0710  177.2720  146.7530 C   0  0  0  0  0  0  0  0  0  0  0  0
  190.7060  176.7410  145.0370 C   0  0  0  0  0  3  0  0  0  0  0  0
  188.1900  178.4830  140.9720 N   0  0  0  0  0  2  0  0  0  0  0  0
  186.9760  179.2090  141.3010 C   0  0  0  0  0  2  0  0  0  0  0  0
  185.9370  178.8730  140.3380 N   0  0  0  0  0  2  0  0  0  0  0  0
  184.6350  179.3700  142.4610 C   0  0  0  0  0  2  0  0  0  0  0  0
  184.6480  178.8770  141.0250 C   0  0  0  0  0  0  0  0  0  0  0  0
  184.6230  177.8780  142.1610 C   0  0  0  0  0  2  0  0  0  0  0  0
  183.2090  179.9170  139.0880 C   0  0  0  0  0  2  0  0  0  0  0  0
  183.3650  178.8840  140.1900 C   0  0  2  0  0  0  0  0  0  0  0  0
  182.1480  178.1070  140.6530 C   0  0  2  0  0  3  0  0  0  0  0  0
  181.4460  177.6050  139.4800 N   0  0  0  0  0  2  0  0  0  0  0  0
  183.6020  178.4850  138.7590 C   0  0  1  0  0  3  0  0  0  0  0  0
  182.3830  177.6720  138.3610 C   0  0  0  0  0  2  0  0  0  0  0  0
  181.2240  178.9950  141.4670 C   0  0  0  0  0  1  0  0  0  0  0  0
  1  3  1  0  0  0  0
  2  1  1  6  0  0  0
  2  9  1  0  0  0  0
  3  4  1  1  0  0  0
  3  2  1  0  0  0  0
  4  5  1  0  0  0  0
  5  3  1  0  0  0  0
  6  4  2  0  0  0  0
  8  7  1  0  0  0  0
  9 13  1  1  0  0  0
  9 11  1  0  0  0  0
 10  8  2  0  0  0  0
 11 15  1  0  0  0  0
 13 14  1  0  0  0  0
 14 12  1  0  0  0  0
 15 12  1  0  0  0  0
 15  7  2  0  0  0  0
 16 11  2  0  0  0  0
 16 10  1  0  0  0  0
 17 18  1  0  0  0  0
 17  1  1  0  0  0  0
 19 21  1  0  0  0  0
 19 18  1  0  0  0  0
 21 22  1  0  0  0  0
 21 20  1  0  0  0  0
 22 20  1  0  0  0  0
 24 23  1  6  0  0  0
 24 25  1  0  0  0  0
 24 21  1  0  0  0  0
 25 29  1  6  0  0  0
 26 25  1  0  0  0  0
 27 28  1  6  0  0  0
 27 23  1  0  0  0  0
 27 24  1  0  0  0  0
 28 26  1  0  0  0  0
M  END
>  <MODEL>
6

>  <REMARK>
 VINA RESULT:      -8.3      3.089      5.140
  Name = 
  6 active torsions:
  status: ('A' for Active; 'I' for Inactive)
    1  A    between atoms: N_2  and  N_17
    2  A    between atoms: C_3  and  C_12
    3  A    between atoms: C_5  and  C_10
    4  A    between atoms: C_5  and  N_16
    5  A    between atoms: C_14  and  N_16
    6  A    between atoms: C_14  and  N_17
                            x       y       z     vdW  Elec       q    Type
                         _______ _______ _______ _____ _____    ______ ____

>  <TORSDO>
F 6

$$$$
=
 OpenBabel11062416343D

 29 35  0  0  1  0  0  0  0  0999 V2000
  188.7640  177.4770  141.2880 N   0  0  0  0  0  0  0  0  0  0  0  0
  189.2980  177.8980  142.5550 C   0  0  2  0  0  3  0  0  0  0  0  0
  190.1200  176.9750  141.7340 C   0  0  1  0  0  0  0  0  0  0  0  0
  190.7340  176.6640  140.5080 C   0  0  0  0  0  0  0  0  0  0  0  0
  191.2040  177.8070  141.3870 N   0  0  0  0  0  2  0  0  0  0  0  0
  190.8250  175.9710  139.4610 O   0  0  0  0  0  0  0  0  0  0  0  0
  189.7920  177.0640  147.3430 C   0  0  0  0  0  3  0  0  0  0  0  0
  191.1470  176.7630  147.1930 C   0  0  0  0  0  3  0  0  0  0  0  0
  188.6350  177.1200  143.6870 C   0  0  1  0  0  3  0  0  0  0  0  0
  191.6870  176.5880  145.9170 C   0  0  0  0  0  3  0  0  0  0  0  0
  189.5160  177.0600  144.9230 C   0  0  0  0  0  0  0  0  0  0  0  0
  187.5250  177.5480  146.4320 C   0  0  0  0  0  2  0  0  0  0  0  0
  187.2570  177.7250  143.9730 C   0  0  0  0  0  2  0  0  0  0  0  0
  186.6680  177.1330  145.2440 C   0  0  0  0  0  2  0  0  0  0  0  0
  188.9680  177.1930  146.2210 C   0  0  0  0  0  0  0  0  0  0  0  0
  190.8740  176.7270  144.7900 C   0  0  0  0  0  3  0  0  0  0  0  0
  188.8510  178.6110  140.4560 N   0  0  0  0  0  2  0  0  0  0  0  0
  187.7660  178.5080  139.4960 C   0  0  0  0  0  2  0  0  0  0  0  0
  187.9080  177.2720  138.7390 N   0  0  0  0  0  2  0  0  0  0  0  0
  188.9800  178.9940  137.2110 C   0  0  0  0  0  2  0  0  0  0  0  0
  188.4170  177.5970  137.4100 C   0  0  0  0  0  0  0  0  0  0  0  0
  187.5730  178.6580  136.7370 C   0  0  0  0  0  2  0  0  0  0  0  0
  189.2230  176.7830  135.0450 C   0  0  0  0  0  2  0  0  0  0  0  0
  188.8220  176.4560  136.4730 C   0  0  2  0  0  0  0  0  0  0  0  0
  188.5200  175.0180  136.8440 C   0  0  2  0  0  3  0  0  0  0  0  0
  189.5900  174.1730  136.3320 N   0  0  0  0  0  2  0  0  0  0  0  0
  190.2790  176.5010  136.1020 C   0  0  1  0  0  3  0  0  0  0  0  0
  190.7230  175.0490  136.0410 C   0  0  0  0  0  2  0  0  0  0  0  0
  187.1910  174.5800  136.2550 C   0  0  0  0  0  1  0  0  0  0  0  0
  1  3  1  0  0  0  0
  2  1  1  6  0  0  0
  2  9  1  0  0  0  0
  3  4  1  1  0  0  0
  3  2  1  0  0  0  0
  4  5  1  0  0  0  0
  5  3  1  0  0  0  0
  6  4  2  0  0  0  0
  8  7  1  0  0  0  0
  9 13  1  1  0  0  0
  9 11  1  0  0  0  0
 10  8  2  0  0  0  0
 11 15  1  0  0  0  0
 13 14  1  0  0  0  0
 14 12  1  0  0  0  0
 15 12  1  0  0  0  0
 15  7  2  0  0  0  0
 16 11  2  0  0  0  0
 16 10  1  0  0  0  0
 17  1  1  0  0  0  0
 18 17  1  0  0  0  0
 19 18  1  0  0  0  0
 20 21  1  0  0  0  0
 21 19  1  0  0  0  0
 22 20  1  0  0  0  0
 22 21  1  0  0  0  0
 24 23  1  6  0  0  0
 24 25  1  0  0  0  0
 24 21  1  0  0  0  0
 25 29  1  6  0  0  0
 26 25  1  0  0  0  0
 27 23  1  6  0  0  0
 27 24  1  0  0  0  0
 28 27  1  0  0  0  0
 28 26  1  0  0  0  0
M  END
>  <MODEL>
7

>  <REMARK>
 VINA RESULT:      -8.0      1.904      3.493
  Name = 
  6 active torsions:
  status: ('A' for Active; 'I' for Inactive)
    1  A    between atoms: N_2  and  N_17
    2  A    between atoms: C_3  and  C_12
    3  A    between atoms: C_5  and  C_10
    4  A    between atoms: C_5  and  N_16
    5  A    between atoms: C_14  and  N_16
    6  A    between atoms: C_14  and  N_17
                            x       y       z     vdW  Elec       q    Type
                         _______ _______ _______ _____ _____    ______ ____

>  <TORSDO>
F 6

$$$$
=
 OpenBabel11062416343D

 29 35  0  0  1  0  0  0  0  0999 V2000
  186.0360  179.0820  143.3180 N   0  0  0  0  0  0  0  0  0  0  0  0
  186.1340  177.6480  143.2700 C   0  0  2  0  0  3  0  0  0  0  0  0
  184.8230  178.2360  143.6400 C   0  0  1  0  0  0  0  0  0  0  0  0
  183.7660  179.1190  143.3550 C   0  0  0  0  0  0  0  0  0  0  0  0
  184.0370  177.8770  142.5260 N   0  0  0  0  0  2  0  0  0  0  0  0
  183.1000  180.1590  143.5940 O   0  0  0  0  0  0  0  0  0  0  0  0
  190.6250  177.0150  145.0860 C   0  0  0  0  0  3  0  0  0  0  0  0
  191.0530  176.3810  143.9180 C   0  0  0  0  0  3  0  0  0  0  0  0
  186.8330  177.1290  144.5220 C   0  0  1  0  0  3  0  0  0  0  0  0
  190.1230  176.0010  142.9490 C   0  0  0  0  0  3  0  0  0  0  0  0
  188.3220  176.9290  144.2960 C   0  0  0  0  0  0  0  0  0  0  0  0
  188.8590  177.9850  146.5500 C   0  0  0  0  0  2  0  0  0  0  0  0
  186.5330  178.0700  145.6930 C   0  0  0  0  0  2  0  0  0  0  0  0
  187.3990  177.7210  146.8930 C   0  0  0  0  0  2  0  0  0  0  0  0
  189.2670  177.2730  145.2930 C   0  0  0  0  0  0  0  0  0  0  0  0
  188.7660  176.2650  143.1410 C   0  0  0  0  0  3  0  0  0  0  0  0
  186.0650  179.4990  141.9720 N   0  0  0  0  0  2  0  0  0  0  0  0
  187.0700  178.6890  141.3060 C   0  0  0  0  0  2  0  0  0  0  0  0
  186.7690  178.6190  139.8840 N   0  0  0  0  0  2  0  0  0  0  0  0
  188.8860  177.2300  140.0720 C   0  0  0  0  0  2  0  0  0  0  0  0
  187.8890  177.9760  139.2020 C   0  0  0  0  0  0  0  0  0  0  0  0
  189.2060  178.6290  139.5630 C   0  0  0  0  0  2  0  0  0  0  0  0
  187.0410  178.6280  136.8020 C   0  0  0  0  0  2  0  0  0  0  0  0
  187.7590  177.6480  137.7130 C   0  0  2  0  0  0  0  0  0  0  0  0
  188.0410  176.2450  137.2120 C   0  0  2  0  0  3  0  0  0  0  0  0
  188.6260  176.3370  135.8810 N   0  0  0  0  0  2  0  0  0  0  0  0
  188.5610  178.5770  136.8430 C   0  0  1  0  0  3  0  0  0  0  0  0
  189.0980  177.7100  135.7170 C   0  0  0  0  0  2  0  0  0  0  0  0
  186.7630  175.4270  137.1590 C   0  0  0  0  0  1  0  0  0  0  0  0
  1  3  1  0  0  0  0
  2  1  1  1  0  0  0
  2  3  1  0  0  0  0
  2  9  1  0  0  0  0
  3  5  1  6  0  0  0
  4  6  2  0  0  0  0
  4  3  1  0  0  0  0
  5  4  1  0  0  0  0
  7 15  1  0  0  0  0
  8  7  2  0  0  0  0
  9 13  1  1  0  0  0
 10 16  2  0  0  0  0
 10  8  1  0  0  0  0
 11  9  1  0  0  0  0
 11 15  2  0  0  0  0
 12 14  1  0  0  0  0
 13 14  1  0  0  0  0
 15 12  1  0  0  0  0
 16 11  1  0  0  0  0
 17  1  1  0  0  0  0
 18 17  1  0  0  0  0
 19 18  1  0  0  0  0
 21 22  1  0  0  0  0
 21 19  1  0  0  0  0
 21 20  1  0  0  0  0
 22 20  1  0  0  0  0
 23 27  1  0  0  0  0
 24 23  1  6  0  0  0
 24 21  1  0  0  0  0
 25 29  1  6  0  0  0
 25 24  1  0  0  0  0
 26 25  1  0  0  0  0
 27 28  1  6  0  0  0
 27 24  1  0  0  0  0
 28 26  1  0  0  0  0
M  END
>  <MODEL>
8

>  <REMARK>
 VINA RESULT:      -8.0      3.002      4.573
  Name = 
  6 active torsions:
  status: ('A' for Active; 'I' for Inactive)
    1  A    between atoms: N_2  and  N_17
    2  A    between atoms: C_3  and  C_12
    3  A    between atoms: C_5  and  C_10
    4  A    between atoms: C_5  and  N_16
    5  A    between atoms: C_14  and  N_16
    6  A    between atoms: C_14  and  N_17
                            x       y       z     vdW  Elec       q    Type
                         _______ _______ _______ _____ _____    ______ ____

>  <TORSDO>
F 6

$$$$
=
 OpenBabel11062416343D

 29 35  0  0  1  0  0  0  0  0999 V2000
  187.8800  177.6840  141.1680 N   0  0  0  0  0  0  0  0  0  0  0  0
  187.6020  178.5040  142.3160 C   0  0  2  0  0  3  0  0  0  0  0  0
  188.6900  177.5000  142.4330 C   0  0  1  0  0  0  0  0  0  0  0  0
  189.8820  176.9420  141.9400 C   0  0  0  0  0  0  0  0  0  0  0  0
  189.8210  178.3340  142.5390 N   0  0  0  0  0  2  0  0  0  0  0  0
  190.5220  176.0030  141.3980 O   0  0  0  0  0  0  0  0  0  0  0  0
  185.4780  178.6270  146.7140 C   0  0  0  0  0  3  0  0  0  0  0  0
  186.6660  178.2530  147.3440 C   0  0  0  0  0  3  0  0  0  0  0  0
  186.3570  177.9930  143.0350 C   0  0  1  0  0  3  0  0  0  0  0  0
  187.7500  177.8060  146.5840 C   0  0  0  0  0  3  0  0  0  0  0  0
  186.4720  178.1490  144.5420 C   0  0  0  0  0  0  0  0  0  0  0  0
  184.0780  179.0030  144.6890 C   0  0  0  0  0  2  0  0  0  0  0  0
  185.1220  178.6930  142.4600 C   0  0  0  0  0  2  0  0  0  0  0  0
  183.8950  178.3910  143.3060 C   0  0  0  0  0  2  0  0  0  0  0  0
  185.3650  178.5590  145.3220 C   0  0  0  0  0  0  0  0  0  0  0  0
  187.6490  177.7460  145.1930 C   0  0  0  0  0  3  0  0  0  0  0  0
  188.5050  178.5440  140.2430 N   0  0  0  0  0  2  0  0  0  0  0  0
  187.9370  178.2400  138.9420 C   0  0  0  0  0  2  0  0  0  0  0  0
  186.5340  178.6280  138.9250 N   0  0  0  0  0  2  0  0  0  0  0  0
  186.6540  176.7480  137.2220 C   0  0  0  0  0  2  0  0  0  0  0  0
  185.8370  177.8100  137.9360 C   0  0  0  0  0  0  0  0  0  0  0  0
  186.3510  178.0730  136.5380 C   0  0  0  0  0  2  0  0  0  0  0  0
  183.6560  177.4840  139.3660 C   0  0  0  0  0  2  0  0  0  0  0  0
  184.3120  177.6960  138.0130 C   0  0  2  0  0  0  0  0  0  0  0  0
  183.4980  177.4680  136.7540 C   0  0  2  0  0  3  0  0  0  0  0  0
  182.2220  178.1560  136.8960 N   0  0  0  0  0  2  0  0  0  0  0  0
  183.6780  178.8610  138.7210 C   0  0  1  0  0  3  0  0  0  0  0  0
  182.3790  179.1250  137.9780 C   0  0  0  0  0  2  0  0  0  0  0  0
  183.2620  175.9850  136.5290 C   0  0  0  0  0  1  0  0  0  0  0  0
  1  3  1  0  0  0  0
  2  1  1  6  0  0  0
  2  3  1  0  0  0  0
  2  9  1  0  0  0  0
  3  4  1  1  0  0  0
  3  5  1  0  0  0  0
  4  5  1  0  0  0  0
  6  4  2  0  0  0  0
  7  8  1  0  0  0  0
  9 13  1  6  0  0  0
  9 11  1  0  0  0  0
 10  8  2  0  0  0  0
 11 16  2  0  0  0  0
 11 15  1  0  0  0  0
 12 15  1  0  0  0  0
 13 14  1  0  0  0  0
 14 12  1  0  0  0  0
 15  7  2  0  0  0  0
 16 10  1  0  0  0  0
 17  1  1  0  0  0  0
 18 17  1  0  0  0  0
 19 18  1  0  0  0  0
 20 21  1  0  0  0  0
 21 19  1  0  0  0  0
 22 20  1  0  0  0  0
 22 21  1  0  0  0  0
 24 21  1  6  0  0  0
 24 27  1  0  0  0  0
 24 23  1  0  0  0  0
 25 29  1  1  0  0  0
 25 26  1  0  0  0  0
 25 24  1  0  0  0  0
 26 28  1  0  0  0  0
 27 28  1  6  0  0  0
 27 23  1  0  0  0  0
M  END
>  <MODEL>
9

>  <REMARK>
 VINA RESULT:      -8.0      2.788      3.664
  Name = 
  6 active torsions:
  status: ('A' for Active; 'I' for Inactive)
    1  A    between atoms: N_2  and  N_17
    2  A    between atoms: C_3  and  C_12
    3  A    between atoms: C_5  and  C_10
    4  A    between atoms: C_5  and  N_16
    5  A    between atoms: C_14  and  N_16
    6  A    between atoms: C_14  and  N_17
                            x       y       z     vdW  Elec       q    Type
                         _______ _______ _______ _____ _____    ______ ____

>  <TORSDO>
F 6

$$$$
