=
 OpenBabel11062417273D

 45 50  0  0  1  0  0  0  0  0999 V2000
  183.8470  179.0050  138.9460 C   0  0  0  0  0  0  0  0  0  0  0  0
  183.1640  178.4750  137.7930 N   0  0  0  0  0  0  0  0  0  0  0  0
  184.0440  180.2470  139.0530 O   0  0  0  0  0  0  0  0  0  0  0  0
  184.3440  174.8820  137.0090 C   0  0  1  0  0  3  0  0  0  0  0  0
  183.7190  176.0120  137.8420 C   0  0  1  0  0  3  0  0  0  0  0  0
  183.8020  177.3510  137.0860 C   0  0  2  0  0  3  0  0  0  0  0  0
  185.9130  176.4800  136.0410 C   0  0  0  0  0  3  0  0  0  0  0  0
  185.2550  177.6620  136.7020 C   0  0  0  0  0  2  0  0  0  0  0  0
  185.5180  175.2690  136.2320 N   0  0  0  0  0  0  0  0  0  0  0  0
  184.7570  173.4790  138.0330 Cl  0  0  0  0  0  0  0  0  0  0  0  0
  181.9260  175.6850  139.5590 C   0  0  0  0  0  3  0  0  0  0  0  0
  181.3580  175.2640  137.2420 C   0  0  0  0  0  3  0  0  0  0  0  0
  180.6050  175.4150  139.9320 C   0  0  0  0  0  3  0  0  0  0  0  0
  180.0320  175.0060  137.6140 C   0  0  0  0  0  3  0  0  0  0  0  0
  179.6540  175.0880  138.9590 C   0  0  0  0  0  3  0  0  0  0  0  0
  182.3040  175.6420  138.2120 C   0  0  0  0  0  0  0  0  0  0  0  0
  181.8620  179.0050  137.3560 C   0  0  1  0  0  3  0  0  0  0  0  0
  181.3920  178.3270  136.0630 C   0  0  0  0  0  1  0  0  0  0  0  0
  180.8260  178.8560  138.4800 C   0  0  0  0  0  2  0  0  0  0  0  0
  180.3570  180.1980  139.0170 C   0  0  0  0  0  2  0  0  0  0  0  0
  180.5690  180.2250  140.4010 O   0  0  0  0  0  0  0  0  0  0  0  0
  180.2870  178.8080  142.3050 C   0  0  0  0  0  1  0  0  0  0  0  0
  180.5830  178.8910  140.8160 C   0  0  0  0  0  2  0  0  0  0  0  0
  184.3440  178.0880  140.0300 C   0  0  0  0  0  2  0  0  0  0  0  0
  185.3680  178.7950  140.9190 C   0  0  0  0  0  2  0  0  0  0  0  0
  186.6930  178.6390  140.3240 N   0  0  0  0  0  2  0  0  0  0  0  0
  188.9620  178.9640  141.0830 N   0  0  0  0  0  2  0  0  0  0  0  0
  187.6550  178.3430  141.3840 C   0  0  2  0  0  3  0  0  0  0  0  0
  188.7550  177.5240  140.8510 C   0  0  2  0  0  3  0  0  0  0  0  0
  189.5040  176.7000  141.9340 C   0  0  0  0  0  2  0  0  0  0  0  0
  189.8390  177.8120  144.1710 C   0  0  0  0  0  0  0  0  0  0  0  0
  190.3270  177.4970  142.8580 N   0  0  0  0  0  0  0  0  0  0  0  0
  190.1100  178.9390  144.6770 O   0  0  0  0  0  0  0  0  0  0  0  0
  191.6450  177.9650  142.4550 C   0  0  0  0  0  1  0  0  0  0  0  0
  188.7700  177.2830  146.4130 C   0  0  0  0  0  0  0  0  0  0  0  0
  189.9080  177.5310  147.3950 C   0  0  0  0  0  2  0  0  0  0  0  0
  187.7030  176.4810  144.2480 C   0  0  0  0  0  3  0  0  0  0  0  0
  189.1950  176.2010  147.3910 C   0  0  0  0  0  2  0  0  0  0  0  0
  185.4890  178.9710  146.0570 C   0  0  0  0  0  2  0  0  0  0  0  0
  185.9850  179.4920  147.4150 C   0  0  0  0  0  2  0  0  0  0  0  0
  186.7190  178.3040  145.5200 C   0  0  2  0  0  3  0  0  0  0  0  0
  186.5890  177.2050  144.5070 C   0  0  0  0  0  3  0  0  0  0  0  0
  187.2440  178.8050  147.7510 N   0  0  0  0  0  2  0  0  0  0  0  0
  189.0250  176.7990  144.9530 C   0  0  1  0  0  3  0  0  0  0  0  0
  187.3470  177.7450  146.7590 C   0  0  2  0  0  3  0  0  0  0  0  0
  1  3  2  0  0  0  0
  1 24  1  0  0  0  0
  2  1  1  0  0  0  0
  4  5  1  0  0  0  0
  4 10  1  1  0  0  0
  5 16  1  6  0  0  0
  6  2  1  1  0  0  0
  6  5  1  0  0  0  0
  7  9  2  0  0  0  0
  7  8  1  0  0  0  0
  8  6  1  0  0  0  0
  9  4  1  0  0  0  0
 11 13  1  0  0  0  0
 12 14  2  0  0  0  0
 12 16  1  0  0  0  0
 14 15  1  0  0  0  0
 15 13  2  0  0  0  0
 16 11  2  0  0  0  0
 17 18  1  6  0  0  0
 17  2  1  0  0  0  0
 17 19  1  0  0  0  0
 19 20  1  0  0  0  0
 20 21  1  0  0  0  0
 21 23  1  0  0  0  0
 23 22  1  0  0  0  0
 24 25  1  0  0  0  0
 26 25  1  0  0  0  0
 27 28  1  0  0  0  0
 28 26  1  6  0  0  0
 29 27  1  0  0  0  0
 29 28  1  0  0  0  0
 29 30  1  1  0  0  0
 30 32  1  0  0  0  0
 31 33  2  0  0  0  0
 32 31  1  0  0  0  0
 34 32  1  0  0  0  0
 35 45  1  0  0  0  0
 35 38  1  0  0  0  0
 35 36  1  0  0  0  0
 37 42  2  0  0  0  0
 37 44  1  0  0  0  0
 38 36  1  0  0  0  0
 39 40  1  0  0  0  0
 40 43  1  0  0  0  0
 41 42  1  6  0  0  0
 41 39  1  0  0  0  0
 41 45  1  0  0  0  0
 44 31  1  6  0  0  0
 44 35  1  0  0  0  0
 45 43  1  1  0  0  0
M  END
>  <MODEL>
1

>  <REMARK>
 VINA RESULT:      -7.0      0.000      0.000
  Name = 
  14 active torsions:
  status: ('A' for Active; 'I' for Inactive)
    1  A    between atoms: C_5  and  C_11
    2  A    between atoms: C_5  and  N_25
    3  A    between atoms: C_8  and  C_41
    4  A    between atoms: N_9  and  C_20
    5  A    between atoms: N_9  and  C_22
    6  A    between atoms: C_11  and  C_43
    7  A    between atoms: C_12  and  C_36
    8  A    between atoms: C_13  and  N_25
    9  A    between atoms: O_18  and  C_37
   10  A    between atoms: O_18  and  C_43
   11  A    between atoms: C_19  and  C_42
   12  A    between atoms: C_21  and  N_26
   13  A    between atoms: C_21  and  C_39
   14  A    between atoms: C_22  and  C_42
                            x       y       z     vdW  Elec       q    Type
                         _______ _______ _______ _____ _____    ______ ____

>  <TORSDO>
F 14

$$$$
=
 OpenBabel11062417273D

 45 50  0  0  1  0  0  0  0  0999 V2000
  187.2140  177.6920  137.8110 C   0  0  0  0  0  0  0  0  0  0  0  0
  186.8290  177.2380  136.4990 N   0  0  0  0  0  0  0  0  0  0  0  0
  186.9020  178.8520  138.1990 O   0  0  0  0  0  0  0  0  0  0  0  0
  189.3450  174.6550  135.1160 C   0  0  1  0  0  3  0  0  0  0  0  0
  188.3020  175.2290  136.0870 C   0  0  1  0  0  3  0  0  0  0  0  0
  187.8780  176.6440  135.6520 C   0  0  2  0  0  3  0  0  0  0  0  0
  190.1940  176.9080  134.7170 C   0  0  0  0  0  3  0  0  0  0  0  0
  189.1050  177.5580  135.5290 C   0  0  0  0  0  2  0  0  0  0  0  0
  190.2990  175.6300  134.5940 N   0  0  0  0  0  0  0  0  0  0  0  0
  190.2420  173.3020  135.8590 Cl  0  0  0  0  0  0  0  0  0  0  0  0
  186.6710  173.9150  137.4590 C   0  0  0  0  0  3  0  0  0  0  0  0
  186.4970  173.7610  135.0470 C   0  0  0  0  0  3  0  0  0  0  0  0
  185.5470  173.0910  137.5910 C   0  0  0  0  0  3  0  0  0  0  0  0
  185.3640  172.9480  135.1800 C   0  0  0  0  0  3  0  0  0  0  0  0
  184.8860  172.6170  136.4530 C   0  0  0  0  0  3  0  0  0  0  0  0
  187.1340  174.2800  136.1890 C   0  0  0  0  0  0  0  0  0  0  0  0
  185.4360  177.3270  136.0300 C   0  0  1  0  0  3  0  0  0  0  0  0
  185.2990  176.8040  134.5940 C   0  0  0  0  0  1  0  0  0  0  0  0
  184.5050  176.5780  136.9930 C   0  0  0  0  0  2  0  0  0  0  0  0
  183.6750  177.5210  137.8490 C   0  0  0  0  0  2  0  0  0  0  0  0
  183.4100  176.8980  139.0750 O   0  0  0  0  0  0  0  0  0  0  0  0
  184.1200  178.2610  140.9060 C   0  0  0  0  0  1  0  0  0  0  0  0
  182.9960  177.9130  139.9410 C   0  0  0  0  0  2  0  0  0  0  0  0
  188.0020  176.7980  138.7290 C   0  0  0  0  0  2  0  0  0  0  0  0
  188.8730  177.6200  139.6800 C   0  0  0  0  0  2  0  0  0  0  0  0
  190.1100  176.8880  139.9360 N   0  0  0  0  0  2  0  0  0  0  0  0
  192.2500  177.3350  140.9610 N   0  0  0  0  0  2  0  0  0  0  0  0
  190.7850  177.4870  141.0850 C   0  0  2  0  0  3  0  0  0  0  0  0
  191.4850  176.4480  141.8560 C   0  0  2  0  0  3  0  0  0  0  0  0
  191.7480  176.8360  143.3370 C   0  0  0  0  0  2  0  0  0  0  0  0
  189.7310  178.1950  144.0000 C   0  0  0  0  0  0  0  0  0  0  0  0
  191.1440  178.1100  143.7600 N   0  0  0  0  0  0  0  0  0  0  0  0
  189.1130  179.2530  143.6880 O   0  0  0  0  0  0  0  0  0  0  0  0
  191.9730  179.2920  143.9460 C   0  0  0  0  0  1  0  0  0  0  0  0
  188.2520  177.4900  145.9400 C   0  0  0  0  0  0  0  0  0  0  0  0
  188.9990  178.0360  147.1500 C   0  0  0  0  0  2  0  0  0  0  0  0
  188.0110  176.3880  143.6600 C   0  0  0  0  0  3  0  0  0  0  0  0
  188.6330  176.5730  147.0900 C   0  0  0  0  0  2  0  0  0  0  0  0
  184.8900  178.3190  144.6140 C   0  0  0  0  0  2  0  0  0  0  0  0
  184.8750  178.9850  145.9980 C   0  0  0  0  0  2  0  0  0  0  0  0
  186.3370  177.9540  144.4680 C   0  0  2  0  0  3  0  0  0  0  0  0
  186.7350  176.8260  143.5620 C   0  0  0  0  0  3  0  0  0  0  0  0
  186.1200  178.6350  146.7030 N   0  0  0  0  0  2  0  0  0  0  0  0
  188.9900  177.0380  144.6430 C   0  0  1  0  0  3  0  0  0  0  0  0
  186.7210  177.6030  145.8720 C   0  0  2  0  0  3  0  0  0  0  0  0
  1  3  2  0  0  0  0
  1 24  1  0  0  0  0
  2  1  1  0  0  0  0
  4 10  1  1  0  0  0
  4  5  1  0  0  0  0
  5 16  1  6  0  0  0
  6  5  1  0  0  0  0
  6  2  1  1  0  0  0
  7  8  1  0  0  0  0
  8  6  1  0  0  0  0
  9  7  2  0  0  0  0
  9  4  1  0  0  0  0
 11 13  1  0  0  0  0
 12 14  2  0  0  0  0
 12 16  1  0  0  0  0
 14 15  1  0  0  0  0
 15 13  2  0  0  0  0
 16 11  2  0  0  0  0
 17 18  1  6  0  0  0
 17  2  1  0  0  0  0
 17 19  1  0  0  0  0
 19 20  1  0  0  0  0
 20 21  1  0  0  0  0
 21 23  1  0  0  0  0
 23 22  1  0  0  0  0
 24 25  1  0  0  0  0
 25 26  1  0  0  0  0
 27 28  1  0  0  0  0
 27 29  1  0  0  0  0
 28 26  1  6  0  0  0
 28 29  1  0  0  0  0
 29 30  1  1  0  0  0
 30 32  1  0  0  0  0
 32 34  1  0  0  0  0
 32 31  1  0  0  0  0
 33 31  2  0  0  0  0
 35 38  1  0  0  0  0
 35 36  1  0  0  0  0
 37 44  1  0  0  0  0
 38 36  1  0  0  0  0
 39 40  1  0  0  0  0
 40 43  1  0  0  0  0
 41 42  1  6  0  0  0
 41 39  1  0  0  0  0
 41 45  1  0  0  0  0
 42 37  2  0  0  0  0
 44 31  1  6  0  0  0
 44 35  1  0  0  0  0
 45 35  1  0  0  0  0
 45 43  1  1  0  0  0
M  END
>  <MODEL>
2

>  <REMARK>
 VINA RESULT:      -6.7      2.500      3.806
  Name = 
  14 active torsions:
  status: ('A' for Active; 'I' for Inactive)
    1  A    between atoms: C_5  and  C_11
    2  A    between atoms: C_5  and  N_25
    3  A    between atoms: C_8  and  C_41
    4  A    between atoms: N_9  and  C_20
    5  A    between atoms: N_9  and  C_22
    6  A    between atoms: C_11  and  C_43
    7  A    between atoms: C_12  and  C_36
    8  A    between atoms: C_13  and  N_25
    9  A    between atoms: O_18  and  C_37
   10  A    between atoms: O_18  and  C_43
   11  A    between atoms: C_19  and  C_42
   12  A    between atoms: C_21  and  N_26
   13  A    between atoms: C_21  and  C_39
   14  A    between atoms: C_22  and  C_42
                            x       y       z     vdW  Elec       q    Type
                         _______ _______ _______ _____ _____    ______ ____

>  <TORSDO>
F 14

$$$$
=
 OpenBabel11062417273D

 45 50  0  0  1  0  0  0  0  0999 V2000
  189.2660  176.0020  142.8670 C   0  0  0  0  0  0  0  0  0  0  0  0
  189.6590  177.0650  141.9760 N   0  0  0  0  0  0  0  0  0  0  0  0
  190.0790  175.0790  143.1540 O   0  0  0  0  0  0  0  0  0  0  0  0
  188.4740  178.1780  138.4730 C   0  0  1  0  0  3  0  0  0  0  0  0
  189.4740  177.9430  139.6160 C   0  0  1  0  0  3  0  0  0  0  0  0
  188.7550  177.3790  140.8560 C   0  0  2  0  0  3  0  0  0  0  0  0
  186.7360  178.6730  140.1120 C   0  0  0  0  0  3  0  0  0  0  0  0
  187.6110  178.3080  141.2820 C   0  0  0  0  0  2  0  0  0  0  0  0
  187.1590  178.6500  138.8950 N   0  0  0  0  0  0  0  0  0  0  0  0
  189.1370  179.3060  137.2580 Cl  0  0  0  0  0  0  0  0  0  0  0  0
  190.2600  175.8810  138.4320 C   0  0  0  0  0  3  0  0  0  0  0  0
  191.9410  177.3550  139.3660 C   0  0  0  0  0  3  0  0  0  0  0  0
  191.2680  175.0620  137.9110 C   0  0  0  0  0  3  0  0  0  0  0  0
  192.9500  176.5420  138.8330 C   0  0  0  0  0  3  0  0  0  0  0  0
  192.6130  175.3980  138.1000 C   0  0  0  0  0  3  0  0  0  0  0  0
  190.5880  177.0470  139.1350 C   0  0  0  0  0  0  0  0  0  0  0  0
  190.8960  177.8340  142.1910 C   0  0  1  0  0  3  0  0  0  0  0  0
  190.5990  179.1900  142.8460 C   0  0  0  0  0  1  0  0  0  0  0  0
  191.8920  177.0130  143.0220 C   0  0  0  0  0  2  0  0  0  0  0  0
  191.8720  177.3940  144.4940 C   0  0  0  0  0  2  0  0  0  0  0  0
  191.8430  176.2220  145.2590 O   0  0  0  0  0  0  0  0  0  0  0  0
  192.3150  175.8100  147.5660 C   0  0  0  0  0  1  0  0  0  0  0  0
  191.5110  176.6170  146.5580 C   0  0  0  0  0  2  0  0  0  0  0  0
  187.8830  175.9710  143.4570 C   0  0  0  0  0  2  0  0  0  0  0  0
  187.7510  176.9800  144.5990 C   0  0  0  0  0  2  0  0  0  0  0  0
  186.3380  177.1260  144.9360 N   0  0  0  0  0  2  0  0  0  0  0  0
  185.0540  179.1490  145.2370 N   0  0  0  0  0  2  0  0  0  0  0  0
  185.8160  178.3220  144.2770 C   0  0  2  0  0  3  0  0  0  0  0  0
  184.3450  178.2920  144.2700 C   0  0  2  0  0  3  0  0  0  0  0  0
  183.7050  179.1650  143.1570 C   0  0  0  0  0  2  0  0  0  0  0  0
  181.7810  178.8550  141.5570 C   0  0  0  0  0  0  0  0  0  0  0  0
  182.2800  178.8970  142.9030 N   0  0  0  0  0  0  0  0  0  0  0  0
  180.6260  179.3040  141.3120 O   0  0  0  0  0  0  0  0  0  0  0  0
  181.3650  178.6630  144.0110 C   0  0  0  0  0  1  0  0  0  0  0  0
  181.7550  177.3850  139.4860 C   0  0  0  0  0  0  0  0  0  0  0  0
  181.0200  176.1400  139.9650 C   0  0  0  0  0  2  0  0  0  0  0  0
  183.3670  179.3460  139.6630 C   0  0  0  0  0  3  0  0  0  0  0  0
  182.3860  176.0120  139.3360 C   0  0  0  0  0  2  0  0  0  0  0  0
  180.8530  179.8540  136.8700 C   0  0  0  0  0  2  0  0  0  0  0  0
  179.8560  178.7140  136.6100 C   0  0  0  0  0  2  0  0  0  0  0  0
  181.4350  179.4530  138.1930 C   0  0  2  0  0  3  0  0  0  0  0  0
  182.8010  179.9330  138.5840 C   0  0  0  0  0  3  0  0  0  0  0  0
  180.1760  177.5940  137.5110 N   0  0  0  0  0  2  0  0  0  0  0  0
  182.6220  178.2580  140.4440 C   0  0  1  0  0  3  0  0  0  0  0  0
  181.4590  177.9590  138.0920 C   0  0  2  0  0  3  0  0  0  0  0  0
  1  3  2  0  0  0  0
  1 24  1  0  0  0  0
  2 17  1  0  0  0  0
  2  1  1  0  0  0  0
  4 10  1  6  0  0  0
  4  9  1  0  0  0  0
  4  5  1  0  0  0  0
  5 16  1  6  0  0  0
  5  6  1  0  0  0  0
  6  8  1  0  0  0  0
  6  2  1  1  0  0  0
  7  8  1  0  0  0  0
  9  7  2  0  0  0  0
 11 16  1  0  0  0  0
 13 15  1  0  0  0  0
 13 11  2  0  0  0  0
 14 12  1  0  0  0  0
 15 14  2  0  0  0  0
 16 12  2  0  0  0  0
 17 18  1  1  0  0  0
 17 19  1  0  0  0  0
 19 20  1  0  0  0  0
 20 21  1  0  0  0  0
 21 23  1  0  0  0  0
 23 22  1  0  0  0  0
 24 25  1  0  0  0  0
 25 26  1  0  0  0  0
 28 26  1  1  0  0  0
 28 27  1  0  0  0  0
 29 30  1  6  0  0  0
 29 28  1  0  0  0  0
 29 27  1  0  0  0  0
 31 32  1  0  0  0  0
 32 30  1  0  0  0  0
 32 34  1  0  0  0  0
 33 31  2  0  0  0  0
 35 36  1  0  0  0  0
 35 44  1  0  0  0  0
 37 44  1  0  0  0  0
 38 35  1  0  0  0  0
 38 36  1  0  0  0  0
 40 39  1  0  0  0  0
 40 43  1  0  0  0  0
 41 39  1  6  0  0  0
 41 42  1  0  0  0  0
 42 37  2  0  0  0  0
 44 31  1  1  0  0  0
 45 43  1  1  0  0  0
 45 41  1  0  0  0  0
 45 35  1  0  0  0  0
M  END
>  <MODEL>
3

>  <REMARK>
 VINA RESULT:      -6.5      2.627      9.279
  Name = 
  14 active torsions:
  status: ('A' for Active; 'I' for Inactive)
    1  A    between atoms: C_5  and  C_11
    2  A    between atoms: C_5  and  N_25
    3  A    between atoms: C_8  and  C_41
    4  A    between atoms: N_9  and  C_20
    5  A    between atoms: N_9  and  C_22
    6  A    between atoms: C_11  and  C_43
    7  A    between atoms: C_12  and  C_36
    8  A    between atoms: C_13  and  N_25
    9  A    between atoms: O_18  and  C_37
   10  A    between atoms: O_18  and  C_43
   11  A    between atoms: C_19  and  C_42
   12  A    between atoms: C_21  and  N_26
   13  A    between atoms: C_21  and  C_39
   14  A    between atoms: C_22  and  C_42
                            x       y       z     vdW  Elec       q    Type
                         _______ _______ _______ _____ _____    ______ ____

>  <TORSDO>
F 14

$$$$
=
 OpenBabel11062417273D

 45 50  0  0  1  0  0  0  0  0999 V2000
  183.9980  176.7390  136.9920 C   0  0  0  0  0  0  0  0  0  0  0  0
  182.5930  177.0520  136.9260 N   0  0  0  0  0  0  0  0  0  0  0  0
  184.4360  175.9690  137.8920 O   0  0  0  0  0  0  0  0  0  0  0  0
  181.4470  180.5840  137.9900 C   0  0  1  0  0  3  0  0  0  0  0  0
  181.7500  179.0870  138.1610 C   0  0  1  0  0  3  0  0  0  0  0  0
  182.2200  178.4740  136.8280 C   0  0  2  0  0  3  0  0  0  0  0  0
  180.7620  180.1690  135.6850 C   0  0  0  0  0  3  0  0  0  0  0  0
  181.1820  178.7240  135.7260 C   0  0  0  0  0  2  0  0  0  0  0  0
  180.8480  180.9470  136.7090 N   0  0  0  0  0  0  0  0  0  0  0  0
  180.4090  181.1870  139.3120 Cl  0  0  0  0  0  0  0  0  0  0  0  0
  182.3750  178.1710  140.4060 C   0  0  0  0  0  3  0  0  0  0  0  0
  184.0540  179.4280  139.1930 C   0  0  0  0  0  3  0  0  0  0  0  0
  183.3010  177.9190  141.4250 C   0  0  0  0  0  3  0  0  0  0  0  0
  184.9840  179.1640  140.2070 C   0  0  0  0  0  3  0  0  0  0  0  0
  184.6080  178.4040  141.3210 C   0  0  0  0  0  3  0  0  0  0  0  0
  182.7530  178.8990  139.2710 C   0  0  0  0  0  0  0  0  0  0  0  0
  181.5660  175.9970  136.9180 C   0  0  1  0  0  3  0  0  0  0  0  0
  181.8170  174.9860  135.7910 C   0  0  0  0  0  1  0  0  0  0  0  0
  181.5050  175.3090  138.2890 C   0  0  0  0  0  2  0  0  0  0  0  0
  180.0850  175.1960  138.8180 C   0  0  0  0  0  2  0  0  0  0  0  0
  179.8150  173.8500  139.0940 O   0  0  0  0  0  0  0  0  0  0  0  0
  180.0910  172.0700  137.5230 C   0  0  0  0  0  1  0  0  0  0  0  0
  179.3000  173.3090  137.9140 C   0  0  0  0  0  2  0  0  0  0  0  0
  184.9620  177.3310  136.0010 C   0  0  0  0  0  2  0  0  0  0  0  0
  186.3580  177.4680  136.6090 C   0  0  0  0  0  2  0  0  0  0  0  0
  187.2380  176.4770  135.9960 N   0  0  0  0  0  2  0  0  0  0  0  0
  188.8560  175.1320  137.1800 N   0  0  0  0  0  2  0  0  0  0  0  0
  188.5220  176.4870  136.6950 C   0  0  2  0  0  3  0  0  0  0  0  0
  188.3260  176.1430  138.1120 C   0  0  2  0  0  3  0  0  0  0  0  0
  189.4600  176.6510  139.0430 C   0  0  0  0  0  2  0  0  0  0  0  0
  188.9980  178.0420  141.0950 C   0  0  0  0  0  0  0  0  0  0  0  0
  189.2030  177.9550  139.6760 N   0  0  0  0  0  0  0  0  0  0  0  0
  188.1620  178.8740  141.5490 O   0  0  0  0  0  0  0  0  0  0  0  0
  189.1620  179.1690  138.8740 C   0  0  0  0  0  1  0  0  0  0  0  0
  190.1650  177.9240  143.3470 C   0  0  0  0  0  0  0  0  0  0  0  0
  191.0470  179.1670  143.3350 C   0  0  0  0  0  2  0  0  0  0  0  0
  189.0310  175.8690  142.3670 C   0  0  0  0  0  3  0  0  0  0  0  0
  191.6590  177.8120  143.5930 C   0  0  0  0  0  2  0  0  0  0  0  0
  187.3430  177.0010  145.5680 C   0  0  0  0  0  2  0  0  0  0  0  0
  187.9650  178.1990  146.3010 C   0  0  0  0  0  2  0  0  0  0  0  0
  188.0460  177.0570  144.2440 C   0  0  2  0  0  3  0  0  0  0  0  0
  188.1830  175.8110  143.4200 C   0  0  0  0  0  3  0  0  0  0  0  0
  189.1870  178.6050  145.5880 N   0  0  0  0  0  2  0  0  0  0  0  0
  189.7900  177.1590  142.0410 C   0  0  1  0  0  3  0  0  0  0  0  0
  189.4120  177.5340  144.6280 C   0  0  2  0  0  3  0  0  0  0  0  0
  1  3  2  0  0  0  0
  2  1  1  0  0  0  0
  4  5  1  0  0  0  0
  4 10  1  1  0  0  0
  5 16  1  1  0  0  0
  6  2  1  1  0  0  0
  6  5  1  0  0  0  0
  7  8  1  0  0  0  0
  7  9  2  0  0  0  0
  8  6  1  0  0  0  0
  9  4  1  0  0  0  0
 11 13  1  0  0  0  0
 12 16  1  0  0  0  0
 12 14  2  0  0  0  0
 14 15  1  0  0  0  0
 15 13  2  0  0  0  0
 16 11  2  0  0  0  0
 17 18  1  6  0  0  0
 17  2  1  0  0  0  0
 17 19  1  0  0  0  0
 19 20  1  0  0  0  0
 20 21  1  0  0  0  0
 22 23  1  0  0  0  0
 23 21  1  0  0  0  0
 24 25  1  0  0  0  0
 24  1  1  0  0  0  0
 26 25  1  0  0  0  0
 27 29  1  0  0  0  0
 28 26  1  6  0  0  0
 28 27  1  0  0  0  0
 28 29  1  0  0  0  0
 29 30  1  1  0  0  0
 30 32  1  0  0  0  0
 31 33  2  0  0  0  0
 32 31  1  0  0  0  0
 34 32  1  0  0  0  0
 35 38  1  0  0  0  0
 35 45  1  0  0  0  0
 36 35  1  0  0  0  0
 36 38  1  0  0  0  0
 37 42  2  0  0  0  0
 39 40  1  0  0  0  0
 41 42  1  1  0  0  0
 41 45  1  0  0  0  0
 41 39  1  0  0  0  0
 43 40  1  0  0  0  0
 44 31  1  6  0  0  0
 44 37  1  0  0  0  0
 44 35  1  0  0  0  0
 45 43  1  1  0  0  0
M  END
>  <MODEL>
4

>  <REMARK>
 VINA RESULT:      -6.3      2.478      4.602
  Name = 
  14 active torsions:
  status: ('A' for Active; 'I' for Inactive)
    1  A    between atoms: C_5  and  C_11
    2  A    between atoms: C_5  and  N_25
    3  A    between atoms: C_8  and  C_41
    4  A    between atoms: N_9  and  C_20
    5  A    between atoms: N_9  and  C_22
    6  A    between atoms: C_11  and  C_43
    7  A    between atoms: C_12  and  C_36
    8  A    between atoms: C_13  and  N_25
    9  A    between atoms: O_18  and  C_37
   10  A    between atoms: O_18  and  C_43
   11  A    between atoms: C_19  and  C_42
   12  A    between atoms: C_21  and  N_26
   13  A    between atoms: C_21  and  C_39
   14  A    between atoms: C_22  and  C_42
                            x       y       z     vdW  Elec       q    Type
                         _______ _______ _______ _____ _____    ______ ____

>  <TORSDO>
F 14

$$$$
=
 OpenBabel11062417273D

 45 50  0  0  1  0  0  0  0  0999 V2000
  184.1760  179.2680  139.3120 C   0  0  0  0  0  0  0  0  0  0  0  0
  182.7830  179.2020  139.6740 N   0  0  0  0  0  0  0  0  0  0  0  0
  185.0460  179.5460  140.1840 O   0  0  0  0  0  0  0  0  0  0  0  0
  180.5040  180.1180  136.6920 C   0  0  1  0  0  3  0  0  0  0  0  0
  181.5550  179.3100  137.4700 C   0  0  1  0  0  3  0  0  0  0  0  0
  181.8310  179.9570  138.8400 C   0  0  2  0  0  3  0  0  0  0  0  0
  181.3060  182.1610  137.7580 C   0  0  0  0  0  3  0  0  0  0  0  0
  182.2520  181.4220  138.6660 C   0  0  0  0  0  2  0  0  0  0  0  0
  180.5870  181.5640  136.8700 N   0  0  0  0  0  0  0  0  0  0  0  0
  180.5600  179.7400  134.9490 Cl  0  0  0  0  0  0  0  0  0  0  0  0
  179.8870  177.6020  138.2240 C   0  0  0  0  0  3  0  0  0  0  0  0
  181.8640  176.8120  137.0680 C   0  0  0  0  0  3  0  0  0  0  0  0
  179.4020  176.2910  138.2900 C   0  0  0  0  0  3  0  0  0  0  0  0
  181.3730  175.5020  137.1230 C   0  0  0  0  0  3  0  0  0  0  0  0
  180.1380  175.2420  137.7300 C   0  0  0  0  0  3  0  0  0  0  0  0
  181.1030  177.8760  137.5860 C   0  0  0  0  0  0  0  0  0  0  0  0
  182.3170  178.3860  140.8070 C   0  0  1  0  0  3  0  0  0  0  0  0
  182.8230  176.9420  140.6960 C   0  0  0  0  0  1  0  0  0  0  0  0
  182.7410  179.0320  142.1330 C   0  0  0  0  0  2  0  0  0  0  0  0
  181.6970  178.8560  143.2240 C   0  0  0  0  0  2  0  0  0  0  0  0
  182.3530  178.6110  144.4370 O   0  0  0  0  0  0  0  0  0  0  0  0
  184.4770  178.7800  145.5190 C   0  0  0  0  0  1  0  0  0  0  0  0
  183.6880  178.9640  144.2310 C   0  0  0  0  0  2  0  0  0  0  0  0
  184.6120  179.0190  137.8950 C   0  0  0  0  0  2  0  0  0  0  0  0
  185.4300  177.7310  137.7910 C   0  0  0  0  0  2  0  0  0  0  0  0
  186.5820  177.9740  136.9260 N   0  0  0  0  0  2  0  0  0  0  0  0
  188.9220  178.5570  137.0510 N   0  0  0  0  0  2  0  0  0  0  0  0
  187.5940  178.7090  137.6830 C   0  0  2  0  0  3  0  0  0  0  0  0
  188.5770  177.7730  138.2500 C   0  0  2  0  0  3  0  0  0  0  0  0
  189.3350  178.3330  139.4850 C   0  0  0  0  0  2  0  0  0  0  0  0
  190.6060  177.6270  141.5440 C   0  0  0  0  0  0  0  0  0  0  0  0
  190.1420  177.3420  140.2160 N   0  0  0  0  0  0  0  0  0  0  0  0
  191.7470  177.2170  141.9020 O   0  0  0  0  0  0  0  0  0  0  0  0
  190.4700  176.0630  139.6040 C   0  0  0  0  0  1  0  0  0  0  0  0
  189.0780  177.4390  143.5640 C   0  0  0  0  0  0  0  0  0  0  0  0
  188.1220  176.3230  143.1610 C   0  0  0  0  0  2  0  0  0  0  0  0
  190.5130  179.5090  143.2140 C   0  0  0  0  0  3  0  0  0  0  0  0
  187.5760  177.6620  143.5930 C   0  0  0  0  0  2  0  0  0  0  0  0
  191.5330  177.6160  146.3370 C   0  0  0  0  0  2  0  0  0  0  0  0
  190.7060  176.3740  146.7040 C   0  0  0  0  0  2  0  0  0  0  0  0
  191.0680  177.8880  144.9380 C   0  0  2  0  0  3  0  0  0  0  0  0
  191.1670  179.2750  144.3750 C   0  0  0  0  0  3  0  0  0  0  0  0
  189.5990  176.2440  145.7410 N   0  0  0  0  0  2  0  0  0  0  0  0
  189.7290  178.3930  142.5170 C   0  0  1  0  0  3  0  0  0  0  0  0
  189.6240  177.4950  144.9990 C   0  0  2  0  0  3  0  0  0  0  0  0
  1  2  1  0  0  0  0
  1  3  2  0  0  0  0
  2 17  1  0  0  0  0
  4 10  1  6  0  0  0
  4  9  1  0  0  0  0
  4  5  1  0  0  0  0
  5 16  1  1  0  0  0
  5  6  1  0  0  0  0
  6  2  1  6  0  0  0
  7  8  1  0  0  0  0
  8  6  1  0  0  0  0
  9  7  2  0  0  0  0
 11 13  1  0  0  0  0
 12 14  2  0  0  0  0
 12 16  1  0  0  0  0
 14 15  1  0  0  0  0
 15 13  2  0  0  0  0
 16 11  2  0  0  0  0
 17 18  1  6  0  0  0
 17 19  1  0  0  0  0
 19 20  1  0  0  0  0
 20 21  1  0  0  0  0
 23 21  1  0  0  0  0
 23 22  1  0  0  0  0
 24  1  1  0  0  0  0
 25 24  1  0  0  0  0
 26 25  1  0  0  0  0
 27 28  1  0  0  0  0
 27 29  1  0  0  0  0
 28 26  1  6  0  0  0
 28 29  1  0  0  0  0
 29 30  1  1  0  0  0
 30 32  1  0  0  0  0
 31 33  2  0  0  0  0
 32 31  1  0  0  0  0
 34 32  1  0  0  0  0
 35 38  1  0  0  0  0
 35 45  1  0  0  0  0
 36 35  1  0  0  0  0
 36 38  1  0  0  0  0
 37 42  2  0  0  0  0
 39 40  1  0  0  0  0
 41 42  1  1  0  0  0
 41 45  1  0  0  0  0
 41 39  1  0  0  0  0
 43 40  1  0  0  0  0
 44 31  1  6  0  0  0
 44 37  1  0  0  0  0
 44 35  1  0  0  0  0
 45 43  1  6  0  0  0
M  END
>  <MODEL>
5

>  <REMARK>
 VINA RESULT:      -6.2      2.449      4.220
  Name = 
  14 active torsions:
  status: ('A' for Active; 'I' for Inactive)
    1  A    between atoms: C_5  and  C_11
    2  A    between atoms: C_5  and  N_25
    3  A    between atoms: C_8  and  C_41
    4  A    between atoms: N_9  and  C_20
    5  A    between atoms: N_9  and  C_22
    6  A    between atoms: C_11  and  C_43
    7  A    between atoms: C_12  and  C_36
    8  A    between atoms: C_13  and  N_25
    9  A    between atoms: O_18  and  C_37
   10  A    between atoms: O_18  and  C_43
   11  A    between atoms: C_19  and  C_42
   12  A    between atoms: C_21  and  N_26
   13  A    between atoms: C_21  and  C_39
   14  A    between atoms: C_22  and  C_42
                            x       y       z     vdW  Elec       q    Type
                         _______ _______ _______ _____ _____    ______ ____

>  <TORSDO>
F 14

$$$$
=
 OpenBabel11062417273D

 45 50  0  0  1  0  0  0  0  0999 V2000
  183.9900  176.6680  137.3820 C   0  0  0  0  0  0  0  0  0  0  0  0
  182.5890  177.0050  137.3520 N   0  0  0  0  0  0  0  0  0  0  0  0
  184.4540  175.9610  138.3190 O   0  0  0  0  0  0  0  0  0  0  0  0
  181.4960  180.6150  138.1820 C   0  0  1  0  0  3  0  0  0  0  0  0
  181.7770  179.1280  138.4510 C   0  0  1  0  0  3  0  0  0  0  0  0
  182.2370  178.4220  137.1610 C   0  0  2  0  0  3  0  0  0  0  0  0
  180.8010  180.0590  135.9100 C   0  0  0  0  0  3  0  0  0  0  0  0
  181.2010  178.6140  136.0460 C   0  0  0  0  0  2  0  0  0  0  0  0
  180.9000  180.9010  136.8810 N   0  0  0  0  0  0  0  0  0  0  0  0
  180.4690  181.3190  139.4620 Cl  0  0  0  0  0  0  0  0  0  0  0  0
  182.3610  178.4570  140.7910 C   0  0  0  0  0  3  0  0  0  0  0  0
  184.1180  179.4020  139.4180 C   0  0  0  0  0  3  0  0  0  0  0  0
  183.2790  178.2590  141.8290 C   0  0  0  0  0  3  0  0  0  0  0  0
  185.0400  179.1920  140.4520 C   0  0  0  0  0  3  0  0  0  0  0  0
  184.6200  178.6150  141.6570 C   0  0  0  0  0  3  0  0  0  0  0  0
  182.7790  178.9990  139.5710 C   0  0  0  0  0  0  0  0  0  0  0  0
  181.5450  175.9730  137.4700 C   0  0  1  0  0  3  0  0  0  0  0  0
  181.5470  175.0390  136.2530 C   0  0  0  0  0  1  0  0  0  0  0  0
  181.7190  175.1920  138.7800 C   0  0  0  0  0  2  0  0  0  0  0  0
  180.8600  175.7490  139.9050 C   0  0  0  0  0  2  0  0  0  0  0  0
  179.7930  176.4600  139.3430 O   0  0  0  0  0  0  0  0  0  0  0  0
  179.5560  176.3240  141.7170 C   0  0  0  0  0  1  0  0  0  0  0  0
  178.9350  176.7680  140.4020 C   0  0  0  0  0  2  0  0  0  0  0  0
  184.9190  177.1630  136.3080 C   0  0  0  0  0  2  0  0  0  0  0  0
  186.3710  176.8140  136.6350 C   0  0  0  0  0  2  0  0  0  0  0  0
  187.2100  177.9740  136.3500 N   0  0  0  0  0  2  0  0  0  0  0  0
  188.6110  179.6490  137.3810 N   0  0  0  0  0  2  0  0  0  0  0  0
  187.5930  178.6030  137.6130 C   0  0  2  0  0  3  0  0  0  0  0  0
  189.0090  178.3300  137.9030 C   0  0  2  0  0  3  0  0  0  0  0  0
  189.3750  178.4430  139.4080 C   0  0  0  0  0  2  0  0  0  0  0  0
  189.9560  177.1260  141.4770 C   0  0  0  0  0  0  0  0  0  0  0  0
  189.5640  177.1560  140.0970 N   0  0  0  0  0  0  0  0  0  0  0  0
  190.7430  176.2210  141.8780 O   0  0  0  0  0  0  0  0  0  0  0  0
  189.3470  175.9030  139.3890 C   0  0  0  0  0  1  0  0  0  0  0  0
  188.7860  177.4730  143.7050 C   0  0  0  0  0  0  0  0  0  0  0  0
  187.5840  176.5420  143.6020 C   0  0  0  0  0  2  0  0  0  0  0  0
  190.5010  179.1540  142.8670 C   0  0  0  0  0  3  0  0  0  0  0  0
  187.3790  178.0030  143.9210 C   0  0  0  0  0  2  0  0  0  0  0  0
  191.6660  177.4350  146.0390 C   0  0  0  0  0  2  0  0  0  0  0  0
  190.6970  176.4360  146.6900 C   0  0  0  0  0  2  0  0  0  0  0  0
  191.0290  177.6460  144.6980 C   0  0  2  0  0  3  0  0  0  0  0  0
  191.2880  178.9150  143.9410 C   0  0  0  0  0  3  0  0  0  0  0  0
  189.4380  176.4350  145.9260 N   0  0  0  0  0  2  0  0  0  0  0  0
  189.4160  178.1560  142.4520 C   0  0  1  0  0  3  0  0  0  0  0  0
  189.5690  177.5680  145.0230 C   0  0  2  0  0  3  0  0  0  0  0  0
  1  3  2  0  0  0  0
  2  1  1  0  0  0  0
  2 17  1  0  0  0  0
  4  5  1  0  0  0  0
  4 10  1  1  0  0  0
  5 16  1  1  0  0  0
  6  2  1  1  0  0  0
  6  5  1  0  0  0  0
  7  8  1  0  0  0  0
  7  9  2  0  0  0  0
  8  6  1  0  0  0  0
  9  4  1  0  0  0  0
 11 13  1  0  0  0  0
 12 16  1  0  0  0  0
 12 14  2  0  0  0  0
 14 15  1  0  0  0  0
 15 13  2  0  0  0  0
 16 11  2  0  0  0  0
 17 18  1  6  0  0  0
 17 19  1  0  0  0  0
 19 20  1  0  0  0  0
 21 20  1  0  0  0  0
 21 23  1  0  0  0  0
 23 22  1  0  0  0  0
 24 25  1  0  0  0  0
 24  1  1  0  0  0  0
 26 25  1  0  0  0  0
 27 28  1  0  0  0  0
 27 29  1  0  0  0  0
 28 26  1  6  0  0  0
 28 29  1  0  0  0  0
 29 30  1  1  0  0  0
 30 32  1  0  0  0  0
 31 33  2  0  0  0  0
 32 31  1  0  0  0  0
 34 32  1  0  0  0  0
 35 38  1  0  0  0  0
 35 45  1  0  0  0  0
 36 35  1  0  0  0  0
 36 38  1  0  0  0  0
 37 42  2  0  0  0  0
 39 40  1  0  0  0  0
 41 42  1  1  0  0  0
 41 45  1  0  0  0  0
 41 39  1  0  0  0  0
 43 40  1  0  0  0  0
 44 31  1  6  0  0  0
 44 37  1  0  0  0  0
 44 35  1  0  0  0  0
 45 43  1  1  0  0  0
M  END
>  <MODEL>
6

>  <REMARK>
 VINA RESULT:      -6.1      2.457      4.466
  Name = 
  14 active torsions:
  status: ('A' for Active; 'I' for Inactive)
    1  A    between atoms: C_5  and  C_11
    2  A    between atoms: C_5  and  N_25
    3  A    between atoms: C_8  and  C_41
    4  A    between atoms: N_9  and  C_20
    5  A    between atoms: N_9  and  C_22
    6  A    between atoms: C_11  and  C_43
    7  A    between atoms: C_12  and  C_36
    8  A    between atoms: C_13  and  N_25
    9  A    between atoms: O_18  and  C_37
   10  A    between atoms: O_18  and  C_43
   11  A    between atoms: C_19  and  C_42
   12  A    between atoms: C_21  and  N_26
   13  A    between atoms: C_21  and  C_39
   14  A    between atoms: C_22  and  C_42
                            x       y       z     vdW  Elec       q    Type
                         _______ _______ _______ _____ _____    ______ ____

>  <TORSDO>
F 14

$$$$
=
 OpenBabel11062417273D

 45 50  0  0  1  0  0  0  0  0999 V2000
  184.0990  176.7940  137.4970 C   0  0  0  0  0  0  0  0  0  0  0  0
  182.8170  177.0650  136.8970 N   0  0  0  0  0  0  0  0  0  0  0  0
  184.2080  175.9070  138.3890 O   0  0  0  0  0  0  0  0  0  0  0  0
  181.3930  180.4710  138.0330 C   0  0  1  0  0  3  0  0  0  0  0  0
  181.7580  178.9830  138.1530 C   0  0  1  0  0  3  0  0  0  0  0  0
  182.3790  178.4710  136.8400 C   0  0  2  0  0  3  0  0  0  0  0  0
  180.9430  180.1570  135.6560 C   0  0  0  0  0  3  0  0  0  0  0  0
  181.4330  178.7340  135.6600 C   0  0  0  0  0  2  0  0  0  0  0  0
  180.8940  180.8780  136.7230 N   0  0  0  0  0  0  0  0  0  0  0  0
  180.2100  180.9470  139.2820 Cl  0  0  0  0  0  0  0  0  0  0  0  0
  183.8920  179.4550  139.3740 C   0  0  0  0  0  3  0  0  0  0  0  0
  182.3090  177.9420  140.4130 C   0  0  0  0  0  3  0  0  0  0  0  0
  184.7290  179.3440  140.4910 C   0  0  0  0  0  3  0  0  0  0  0  0
  183.1410  177.8430  141.5350 C   0  0  0  0  0  3  0  0  0  0  0  0
  184.3480  178.5490  141.5770 C   0  0  0  0  0  3  0  0  0  0  0  0
  182.6660  178.7810  139.3410 C   0  0  0  0  0  0  0  0  0  0  0  0
  181.9870  175.9900  136.3280 C   0  0  1  0  0  3  0  0  0  0  0  0
  182.6670  175.3500  135.1110 C   0  0  0  0  0  1  0  0  0  0  0  0
  181.6630  174.9460  137.4070 C   0  0  0  0  0  2  0  0  0  0  0  0
  180.8830  175.5380  138.5690 C   0  0  0  0  0  2  0  0  0  0  0  0
  180.1160  174.5230  139.1560 O   0  0  0  0  0  0  0  0  0  0  0  0
  178.9310  176.5960  139.2700 C   0  0  0  0  0  1  0  0  0  0  0  0
  179.0350  175.1620  139.7680 C   0  0  0  0  0  2  0  0  0  0  0  0
  185.3190  177.5690  137.0790 C   0  0  0  0  0  2  0  0  0  0  0  0
  186.5980  176.8100  137.4350 C   0  0  0  0  0  2  0  0  0  0  0  0
  187.5980  177.7670  137.8980 N   0  0  0  0  0  2  0  0  0  0  0  0
  188.3550  178.9380  139.8700 N   0  0  0  0  0  2  0  0  0  0  0  0
  187.6130  177.7660  139.3600 C   0  0  2  0  0  3  0  0  0  0  0  0
  188.9910  177.6080  139.8500 C   0  0  2  0  0  3  0  0  0  0  0  0
  189.0820  177.0430  141.2940 C   0  0  0  0  0  2  0  0  0  0  0  0
  189.8180  177.8970  143.5490 C   0  0  0  0  0  0  0  0  0  0  0  0
  190.0830  177.6970  142.1520 N   0  0  0  0  0  0  0  0  0  0  0  0
  190.2320  178.9490  144.1130 O   0  0  0  0  0  0  0  0  0  0  0  0
  191.3530  178.1410  141.5960 C   0  0  0  0  0  1  0  0  0  0  0  0
  188.7030  177.3700  145.7690 C   0  0  0  0  0  0  0  0  0  0  0  0
  189.7680  177.7680  146.7830 C   0  0  0  0  0  2  0  0  0  0  0  0
  187.8110  176.3760  143.6040 C   0  0  0  0  0  3  0  0  0  0  0  0
  189.1810  176.3780  146.8150 C   0  0  0  0  0  2  0  0  0  0  0  0
  185.2990  178.7260  145.2000 C   0  0  0  0  0  2  0  0  0  0  0  0
  185.6840  179.3510  146.5490 C   0  0  0  0  0  2  0  0  0  0  0  0
  186.6080  178.1530  144.7450 C   0  0  2  0  0  3  0  0  0  0  0  0
  186.6250  177.0020  143.7830 C   0  0  0  0  0  3  0  0  0  0  0  0
  186.9850  178.8010  146.9690 N   0  0  0  0  0  2  0  0  0  0  0  0
  189.0660  176.8470  144.3460 C   0  0  1  0  0  3  0  0  0  0  0  0
  187.2290  177.7120  146.0340 C   0  0  2  0  0  3  0  0  0  0  0  0
  1  3  2  0  0  0  0
  2  1  1  0  0  0  0
  4  5  1  0  0  0  0
  4 10  1  1  0  0  0
  5 16  1  1  0  0  0
  6  2  1  1  0  0  0
  6  5  1  0  0  0  0
  7  8  1  0  0  0  0
  7  9  2  0  0  0  0
  8  6  1  0  0  0  0
  9  4  1  0  0  0  0
 11 13  1  0  0  0  0
 12 14  2  0  0  0  0
 13 15  2  0  0  0  0
 14 15  1  0  0  0  0
 16 11  2  0  0  0  0
 16 12  1  0  0  0  0
 17 18  1  6  0  0  0
 17  2  1  0  0  0  0
 17 19  1  0  0  0  0
 19 20  1  0  0  0  0
 20 21  1  0  0  0  0
 21 23  1  0  0  0  0
 22 23  1  0  0  0  0
 24 25  1  0  0  0  0
 24  1  1  0  0  0  0
 25 26  1  0  0  0  0
 28 26  1  6  0  0  0
 28 29  1  0  0  0  0
 28 27  1  0  0  0  0
 29 27  1  0  0  0  0
 29 30  1  1  0  0  0
 30 32  1  0  0  0  0
 31 33  2  0  0  0  0
 32 31  1  0  0  0  0
 34 32  1  0  0  0  0
 35 45  1  0  0  0  0
 35 36  1  0  0  0  0
 35 38  1  0  0  0  0
 36 38  1  0  0  0  0
 37 42  2  0  0  0  0
 37 44  1  0  0  0  0
 39 40  1  0  0  0  0
 40 43  1  0  0  0  0
 41 42  1  6  0  0  0
 41 39  1  0  0  0  0
 41 45  1  0  0  0  0
 44 31  1  6  0  0  0
 44 35  1  0  0  0  0
 45 43  1  1  0  0  0
M  END
>  <MODEL>
7

>  <REMARK>
 VINA RESULT:      -6.0      2.140      3.672
  Name = 
  14 active torsions:
  status: ('A' for Active; 'I' for Inactive)
    1  A    between atoms: C_5  and  C_11
    2  A    between atoms: C_5  and  N_25
    3  A    between atoms: C_8  and  C_41
    4  A    between atoms: N_9  and  C_20
    5  A    between atoms: N_9  and  C_22
    6  A    between atoms: C_11  and  C_43
    7  A    between atoms: C_12  and  C_36
    8  A    between atoms: C_13  and  N_25
    9  A    between atoms: O_18  and  C_37
   10  A    between atoms: O_18  and  C_43
   11  A    between atoms: C_19  and  C_42
   12  A    between atoms: C_21  and  N_26
   13  A    between atoms: C_21  and  C_39
   14  A    between atoms: C_22  and  C_42
                            x       y       z     vdW  Elec       q    Type
                         _______ _______ _______ _____ _____    ______ ____

>  <TORSDO>
F 14

$$$$
=
 OpenBabel11062417273D

 45 50  0  0  1  0  0  0  0  0999 V2000
  182.9130  178.4650  139.9920 C   0  0  0  0  0  0  0  0  0  0  0  0
  181.5110  178.1620  139.8450 N   0  0  0  0  0  0  0  0  0  0  0  0
  183.4770  179.2650  139.1960 O   0  0  0  0  0  0  0  0  0  0  0  0
  180.6550  174.6490  138.4880 C   0  0  1  0  0  3  0  0  0  0  0  0
  180.9920  176.1460  138.4160 C   0  0  1  0  0  3  0  0  0  0  0  0
  181.1230  176.7410  139.8300 C   0  0  2  0  0  3  0  0  0  0  0  0
  179.4260  175.0400  140.5600 C   0  0  0  0  0  3  0  0  0  0  0  0
  179.8460  176.4830  140.6410 C   0  0  0  0  0  2  0  0  0  0  0  0
  179.7590  174.2740  139.5780 N   0  0  0  0  0  0  0  0  0  0  0  0
  179.9710  174.0660  136.9450 Cl  0  0  0  0  0  0  0  0  0  0  0  0
  182.1980  177.2350  136.5110 C   0  0  0  0  0  3  0  0  0  0  0  0
  183.4340  175.6580  137.8730 C   0  0  0  0  0  3  0  0  0  0  0  0
  183.3530  177.4930  135.7630 C   0  0  0  0  0  3  0  0  0  0  0  0
  184.5930  175.9260  137.1330 C   0  0  0  0  0  3  0  0  0  0  0  0
  184.5530  176.8490  136.0810 C   0  0  0  0  0  3  0  0  0  0  0  0
  182.2380  176.3420  137.5880 C   0  0  0  0  0  0  0  0  0  0  0  0
  180.4980  179.2260  139.7500 C   0  0  1  0  0  3  0  0  0  0  0  0
  180.4780  180.0890  141.0180 C   0  0  0  0  0  1  0  0  0  0  0  0
  180.7390  180.0750  138.4930 C   0  0  0  0  0  2  0  0  0  0  0  0
  179.9370  181.3660  138.5030 C   0  0  0  0  0  2  0  0  0  0  0  0
  180.8270  182.4460  138.4720 O   0  0  0  0  0  0  0  0  0  0  0  0
  181.5550  184.2720  137.1120 C   0  0  0  0  0  1  0  0  0  0  0  0
  180.6660  183.0430  137.2190 C   0  0  0  0  0  2  0  0  0  0  0  0
  183.7240  177.8250  141.0850 C   0  0  0  0  0  2  0  0  0  0  0  0
  184.1110  178.8490  142.1520 C   0  0  0  0  0  2  0  0  0  0  0  0
  183.2970  178.6200  143.3420 N   0  0  0  0  0  2  0  0  0  0  0  0
  183.8060  179.0030  145.6710 N   0  0  0  0  0  2  0  0  0  0  0  0
  184.1740  178.2530  144.4520 C   0  0  2  0  0  3  0  0  0  0  0  0
  184.9720  179.4160  144.8700 C   0  0  2  0  0  3  0  0  0  0  0  0
  186.2840  179.0430  145.6120 C   0  0  0  0  0  2  0  0  0  0  0  0
  187.4670  177.5190  143.9890 C   0  0  0  0  0  0  0  0  0  0  0  0
  186.8380  177.7250  145.2630 N   0  0  0  0  0  0  0  0  0  0  0  0
  187.3230  176.4090  143.4000 O   0  0  0  0  0  0  0  0  0  0  0  0
  186.7630  176.6200  146.2080 C   0  0  0  0  0  1  0  0  0  0  0  0
  189.7330  178.0870  142.9940 C   0  0  0  0  0  0  0  0  0  0  0  0
  190.7030  177.5640  144.0450 C   0  0  0  0  0  2  0  0  0  0  0  0
  187.6220  179.2190  142.1370 C   0  0  0  0  0  3  0  0  0  0  0  0
  190.7870  179.0020  143.5930 C   0  0  0  0  0  2  0  0  0  0  0  0
  189.2380  177.0720  139.4620 C   0  0  0  0  0  2  0  0  0  0  0  0
  190.5590  176.3780  139.8260 C   0  0  0  0  0  2  0  0  0  0  0  0
  188.7570  177.5320  140.8060 C   0  0  2  0  0  3  0  0  0  0  0  0
  187.8220  178.7010  140.9030 C   0  0  0  0  0  3  0  0  0  0  0  0
  190.9510  176.7920  141.1840 N   0  0  0  0  0  2  0  0  0  0  0  0
  188.3120  178.6120  143.3630 C   0  0  1  0  0  3  0  0  0  0  0  0
  190.0360  177.8770  141.5020 C   0  0  2  0  0  3  0  0  0  0  0  0
  1 24  1  0  0  0  0
  2  1  1  0  0  0  0
  3  1  2  0  0  0  0
  4 10  1  6  0  0  0
  4  9  1  0  0  0  0
  5 16  1  1  0  0  0
  5  4  1  0  0  0  0
  5  6  1  0  0  0  0
  6  2  1  6  0  0  0
  6  8  1  0  0  0  0
  7  8  1  0  0  0  0
  9  7  2  0  0  0  0
 11 16  1  0  0  0  0
 13 15  1  0  0  0  0
 13 11  2  0  0  0  0
 14 12  1  0  0  0  0
 15 14  2  0  0  0  0
 16 12  2  0  0  0  0
 17  2  1  0  0  0  0
 17 18  1  1  0  0  0
 19 20  1  0  0  0  0
 19 17  1  0  0  0  0
 21 20  1  0  0  0  0
 22 23  1  0  0  0  0
 23 21  1  0  0  0  0
 24 25  1  0  0  0  0
 25 26  1  0  0  0  0
 28 26  1  6  0  0  0
 28 29  1  0  0  0  0
 28 27  1  0  0  0  0
 29 30  1  1  0  0  0
 29 27  1  0  0  0  0
 31 32  1  0  0  0  0
 32 30  1  0  0  0  0
 32 34  1  0  0  0  0
 33 31  2  0  0  0  0
 35 44  1  0  0  0  0
 35 38  1  0  0  0  0
 35 36  1  0  0  0  0
 37 44  1  0  0  0  0
 38 36  1  0  0  0  0
 39 40  1  0  0  0  0
 40 43  1  0  0  0  0
 41 39  1  6  0  0  0
 41 42  1  0  0  0  0
 41 45  1  0  0  0  0
 42 37  2  0  0  0  0
 44 31  1  6  0  0  0
 45 43  1  1  0  0  0
 45 35  1  0  0  0  0
M  END
>  <MODEL>
8

>  <REMARK>
 VINA RESULT:      -5.9      2.263      4.865
  Name = 
  14 active torsions:
  status: ('A' for Active; 'I' for Inactive)
    1  A    between atoms: C_5  and  C_11
    2  A    between atoms: C_5  and  N_25
    3  A    between atoms: C_8  and  C_41
    4  A    between atoms: N_9  and  C_20
    5  A    between atoms: N_9  and  C_22
    6  A    between atoms: C_11  and  C_43
    7  A    between atoms: C_12  and  C_36
    8  A    between atoms: C_13  and  N_25
    9  A    between atoms: O_18  and  C_37
   10  A    between atoms: O_18  and  C_43
   11  A    between atoms: C_19  and  C_42
   12  A    between atoms: C_21  and  N_26
   13  A    between atoms: C_21  and  C_39
   14  A    between atoms: C_22  and  C_42
                            x       y       z     vdW  Elec       q    Type
                         _______ _______ _______ _____ _____    ______ ____

>  <TORSDO>
F 14

$$$$
=
 OpenBabel11062417273D

 45 50  0  0  1  0  0  0  0  0999 V2000
  188.6780  177.6750  144.3400 C   0  0  0  0  0  0  0  0  0  0  0  0
  190.0880  177.4490  144.1460 N   0  0  0  0  0  0  0  0  0  0  0  0
  188.2600  178.8110  144.7000 O   0  0  0  0  0  0  0  0  0  0  0  0
  191.7170  175.2620  146.8800 C   0  0  1  0  0  3  0  0  0  0  0  0
  191.1770  176.5490  146.2380 C   0  0  1  0  0  3  0  0  0  0  0  0
  190.6820  176.2730  144.8060 C   0  0  2  0  0  3  0  0  0  0  0  0
  192.4410  174.4850  144.6830 C   0  0  0  0  0  3  0  0  0  0  0  0
  191.7990  175.6420  143.9650 C   0  0  0  0  0  2  0  0  0  0  0  0
  192.4270  174.3720  145.9670 N   0  0  0  0  0  0  0  0  0  0  0  0
  192.7710  175.6290  148.2740 Cl  0  0  0  0  0  0  0  0  0  0  0  0
  188.9190  176.4190  147.3110 C   0  0  0  0  0  3  0  0  0  0  0  0
  190.2660  178.3830  147.7550 C   0  0  0  0  0  3  0  0  0  0  0  0
  187.9300  176.9030  148.1760 C   0  0  0  0  0  3  0  0  0  0  0  0
  189.2820  178.8610  148.6290 C   0  0  0  0  0  3  0  0  0  0  0  0
  188.1160  178.1170  148.8450 C   0  0  0  0  0  3  0  0  0  0  0  0
  190.1040  177.1390  147.1190 C   0  0  0  0  0  0  0  0  0  0  0  0
  190.9010  178.3310  143.2930 C   0  0  1  0  0  3  0  0  0  0  0  0
  191.7360  179.3030  144.1360 C   0  0  0  0  0  1  0  0  0  0  0  0
  191.7840  177.4940  142.3570 C   0  0  0  0  0  2  0  0  0  0  0  0
  191.2810  177.5040  140.9230 C   0  0  0  0  0  2  0  0  0  0  0  0
  190.1010  176.7520  140.8570 O   0  0  0  0  0  0  0  0  0  0  0  0
  188.2490  178.2580  140.7440 C   0  0  0  0  0  1  0  0  0  0  0  0
  189.2610  177.4280  139.9690 C   0  0  0  0  0  2  0  0  0  0  0  0
  187.6870  176.5630  144.1290 C   0  0  0  0  0  2  0  0  0  0  0  0
  186.2920  177.1190  143.8420 C   0  0  0  0  0  2  0  0  0  0  0  0
  185.7660  177.7230  145.0620 N   0  0  0  0  0  2  0  0  0  0  0  0
  183.8040  179.0010  145.6510 N   0  0  0  0  0  2  0  0  0  0  0  0
  184.9290  178.8660  144.7020 C   0  0  2  0  0  3  0  0  0  0  0  0
  183.5850  178.4050  144.3210 C   0  0  2  0  0  3  0  0  0  0  0  0
  182.8140  179.4020  143.4130 C   0  0  0  0  0  2  0  0  0  0  0  0
  181.2310  178.7620  141.5580 C   0  0  0  0  0  0  0  0  0  0  0  0
  181.4950  178.9320  142.9590 N   0  0  0  0  0  0  0  0  0  0  0  0
  180.0840  179.0390  141.1060 O   0  0  0  0  0  0  0  0  0  0  0  0
  180.4490  178.6270  143.9240 C   0  0  0  0  0  1  0  0  0  0  0  0
  181.7070  177.3210  139.5210 C   0  0  0  0  0  0  0  0  0  0  0  0
  180.9750  176.0250  139.8470 C   0  0  0  0  0  2  0  0  0  0  0  0
  183.1210  179.3780  140.0120 C   0  0  0  0  0  3  0  0  0  0  0  0
  182.4430  175.9920  139.4980 C   0  0  0  0  0  2  0  0  0  0  0  0
  181.1760  179.7600  136.7800 C   0  0  0  0  0  2  0  0  0  0  0  0
  180.3250  178.5630  136.3290 C   0  0  0  0  0  2  0  0  0  0  0  0
  181.5110  179.3800  138.1910 C   0  0  2  0  0  3  0  0  0  0  0  0
  182.7410  179.9420  138.8420 C   0  0  0  0  0  3  0  0  0  0  0  0
  180.5340  177.4540  137.2750 N   0  0  0  0  0  2  0  0  0  0  0  0
  182.3110  178.2350  140.6310 C   0  0  1  0  0  3  0  0  0  0  0  0
  181.6530  177.8930  138.0970 C   0  0  2  0  0  3  0  0  0  0  0  0
  1  3  2  0  0  0  0
  2  1  1  0  0  0  0
  4 10  1  1  0  0  0
  5  4  1  0  0  0  0
  5 16  1  1  0  0  0
  6  2  1  6  0  0  0
  6  5  1  0  0  0  0
  7  9  2  0  0  0  0
  8  7  1  0  0  0  0
  8  6  1  0  0  0  0
  9  4  1  0  0  0  0
 11 13  1  0  0  0  0
 12 14  2  0  0  0  0
 13 15  2  0  0  0  0
 14 15  1  0  0  0  0
 16 11  2  0  0  0  0
 16 12  1  0  0  0  0
 17 18  1  1  0  0  0
 17  2  1  0  0  0  0
 19 17  1  0  0  0  0
 20 19  1  0  0  0  0
 21 20  1  0  0  0  0
 23 22  1  0  0  0  0
 23 21  1  0  0  0  0
 24  1  1  0  0  0  0
 25 24  1  0  0  0  0
 25 26  1  0  0  0  0
 28 26  1  1  0  0  0
 28 27  1  0  0  0  0
 29 30  1  6  0  0  0
 29 28  1  0  0  0  0
 29 27  1  0  0  0  0
 31 32  1  0  0  0  0
 32 30  1  0  0  0  0
 32 34  1  0  0  0  0
 33 31  2  0  0  0  0
 35 36  1  0  0  0  0
 35 44  1  0  0  0  0
 37 44  1  0  0  0  0
 38 35  1  0  0  0  0
 38 36  1  0  0  0  0
 40 39  1  0  0  0  0
 40 43  1  0  0  0  0
 41 39  1  6  0  0  0
 41 42  1  0  0  0  0
 42 37  2  0  0  0  0
 44 31  1  6  0  0  0
 45 43  1  6  0  0  0
 45 41  1  0  0  0  0
 45 35  1  0  0  0  0
M  END
>  <MODEL>
9

>  <REMARK>
 VINA RESULT:      -5.8      3.048     10.165
  Name = 
  14 active torsions:
  status: ('A' for Active; 'I' for Inactive)
    1  A    between atoms: C_5  and  C_11
    2  A    between atoms: C_5  and  N_25
    3  A    between atoms: C_8  and  C_41
    4  A    between atoms: N_9  and  C_20
    5  A    between atoms: N_9  and  C_22
    6  A    between atoms: C_11  and  C_43
    7  A    between atoms: C_12  and  C_36
    8  A    between atoms: C_13  and  N_25
    9  A    between atoms: O_18  and  C_37
   10  A    between atoms: O_18  and  C_43
   11  A    between atoms: C_19  and  C_42
   12  A    between atoms: C_21  and  N_26
   13  A    between atoms: C_21  and  C_39
   14  A    between atoms: C_22  and  C_42
                            x       y       z     vdW  Elec       q    Type
                         _______ _______ _______ _____ _____    ______ ____

>  <TORSDO>
F 14

$$$$
