=
 OpenBabel11062413183D

 30 35  0  0  1  0  0  0  0  0999 V2000
  190.7590  176.2910  141.1910 N   0  0  0  0  0  0  0  0  0  0  0  0
  184.2160  179.2810  143.1580 N   0  0  0  0  0  0  0  0  0  0  0  0
  186.1850  178.0170  142.8190 C   0  0  0  0  0  0  0  0  0  0  0  0
  189.8920  177.1670  140.6300 C   0  0  0  0  0  0  0  0  0  0  0  0
  189.2350  175.9080  142.9510 C   0  0  0  0  0  3  0  0  0  0  0  0
  185.9020  178.6340  141.6950 C   0  0  0  0  0  0  0  0  0  0  0  0
  187.2350  177.0750  143.0800 N   0  0  0  0  0  0  0  0  0  0  0  0
  190.0390  177.8600  139.3610 C   0  0  0  0  0  3  0  0  0  0  0  0
  185.1450  178.3600  143.8320 C   0  0  1  0  0  3  0  0  0  0  0  0
  188.8700  178.4860  139.2120 C   0  0  0  0  0  0  0  0  0  0  0  0
  186.5770  178.5000  140.4330 N   0  0  0  0  0  0  0  0  0  0  0  0
  188.6630  177.4180  141.1890 C   0  0  0  0  0  0  0  0  0  0  0  0
  184.7250  179.3970  141.8550 N   0  0  0  0  0  0  0  0  0  0  0  0
  188.3080  176.8050  142.3990 C   0  0  0  0  0  0  0  0  0  0  0  0
  187.9830  178.1980  140.3590 C   0  0  0  0  0  0  0  0  0  0  0  0
  190.4290  175.6740  142.3300 N   0  0  0  0  0  0  0  0  0  0  0  0
  185.8620  178.9000  139.2160 C   0  0  0  0  0  3  0  0  0  0  0  0
  184.5300  178.1700  139.1130 C   0  0  0  0  0  2  0  0  0  0  0  0
  185.7020  177.7050  138.2870 C   0  0  0  0  0  2  0  0  0  0  0  0
  188.5350  179.3090  138.1340 O   0  0  0  0  0  0  0  0  0  0  0  0
  188.8230  178.9550  136.7890 C   0  0  0  0  0  1  0  0  0  0  0  0
  185.7870  179.0560  145.0210 C   0  0  0  0  0  2  0  0  0  0  0  0
  185.9520  178.1490  146.0690 O   0  0  0  0  0  0  0  0  0  0  0  0
  189.5940  177.3750  146.2790 C   0  0  0  0  0  2  0  0  0  0  0  0
  187.2790  178.3090  146.4740 C   0  0  1  0  0  3  0  0  0  0  0  0
  188.8140  178.3470  148.4520 C   0  0  0  0  0  2  0  0  0  0  0  0
  189.6800  177.2710  147.8000 C   0  0  2  0  0  3  0  0  0  0  0  0
  187.3650  178.2030  147.9950 C   0  0  0  0  0  2  0  0  0  0  0  0
  191.0050  177.4320  148.2040 O   0  0  0  0  0  1  0  0  0  0  0  0
  188.1450  177.2320  145.8220 C   0  0  0  0  0  2  0  0  0  0  0  0
  1 16  1  0  0  0  0
  2  9  1  0  0  0  0
  3  7  1  0  0  0  0
  3  9  1  0  0  0  0
  4 12  1  0  0  0  0
  4  1  2  0  0  0  0
  6 13  1  0  0  0  0
  6  3  2  0  0  0  0
  8  4  1  0  0  0  0
  9 22  1  1  0  0  0
 10  8  2  0  0  0  0
 10 15  1  0  0  0  0
 11  6  1  0  0  0  0
 12 14  1  0  0  0  0
 13  2  2  0  0  0  0
 14  5  1  0  0  0  0
 14  7  2  0  0  0  0
 15 11  1  0  0  0  0
 15 12  2  0  0  0  0
 16  5  2  0  0  0  0
 17 11  1  0  0  0  0
 18 17  1  0  0  0  0
 19 18  1  0  0  0  0
 19 17  1  0  0  0  0
 20 10  1  0  0  0  0
 21 20  1  0  0  0  0
 22 23  1  0  0  0  0
 24 27  1  0  0  0  0
 25 23  1  1  0  0  0
 25 28  1  0  0  0  0
 27 29  1  6  0  0  0
 27 26  1  0  0  0  0
 28 26  1  0  0  0  0
 30 24  1  0  0  0  0
 30 25  1  0  0  0  0
M  END
>  <MODEL>
1

>  <REMARK>
 VINA RESULT:      -8.4      0.000      0.000
  Name = 
  5 active torsions:
  status: ('A' for Active; 'I' for Inactive)
    1  A    between atoms: C_2  and  N_22
    2  A    between atoms: C_5  and  O_13
    3  A    between atoms: O_7  and  C_21
    4  A    between atoms: C_8  and  O_13
    5  A    between atoms: C_8  and  C_20
                            x       y       z     vdW  Elec       q    Type
                         _______ _______ _______ _____ _____    ______ ____

>  <TORSDO>
F 5

$$$$
=
 OpenBabel11062413183D

 30 35  0  0  1  0  0  0  0  0999 V2000
  186.4010  176.4120  135.4860 N   0  0  0  0  0  0  0  0  0  0  0  0
  190.1220  177.6870  141.8220 N   0  0  0  0  0  0  0  0  0  0  0  0
  188.8200  177.7020  139.8490 C   0  0  0  0  0  0  0  0  0  0  0  0
  187.4570  175.8430  136.1150 C   0  0  0  0  0  0  0  0  0  0  0  0
  186.3630  178.1320  137.1010 C   0  0  0  0  0  3  0  0  0  0  0  0
  189.8010  176.8450  139.6800 C   0  0  0  0  0  0  0  0  0  0  0  0
  187.8240  178.1150  138.9030 N   0  0  0  0  0  0  0  0  0  0  0  0
  188.2140  174.6790  135.6860 C   0  0  0  0  0  3  0  0  0  0  0  0
  188.9430  178.3140  141.2030 C   0  0  1  0  0  3  0  0  0  0  0  0
  189.2140  174.6170  136.5680 C   0  0  0  0  0  0  0  0  0  0  0  0
  190.1240  176.1150  138.4860 N   0  0  0  0  0  0  0  0  0  0  0  0
  188.0180  176.4110  137.2330 C   0  0  0  0  0  0  0  0  0  0  0  0
  190.6080  176.8110  140.8390 N   0  0  0  0  0  0  0  0  0  0  0  0
  187.4590  177.5750  137.7790 C   0  0  0  0  0  0  0  0  0  0  0  0
  189.1080  175.7220  137.5440 C   0  0  0  0  0  0  0  0  0  0  0  0
  185.8700  177.5370  135.9740 N   0  0  0  0  0  0  0  0  0  0  0  0
  191.4810  175.5730  138.3470 C   0  0  0  0  0  3  0  0  0  0  0  0
  192.5170  176.6720  138.5320 C   0  0  0  0  0  2  0  0  0  0  0  0
  192.1720  176.1970  137.1430 C   0  0  0  0  0  2  0  0  0  0  0  0
  190.2100  173.6380  136.5790 O   0  0  0  0  0  0  0  0  0  0  0  0
  190.9090  173.2500  135.4040 C   0  0  0  0  0  1  0  0  0  0  0  0
  187.7040  178.0050  142.0280 C   0  0  0  0  0  2  0  0  0  0  0  0
  187.9260  176.8720  142.8120 O   0  0  0  0  0  0  0  0  0  0  0  0
  185.1710  178.3340  144.8560 C   0  0  0  0  0  2  0  0  0  0  0  0
  187.1070  177.0450  143.9300 C   0  0  1  0  0  3  0  0  0  0  0  0
  187.0740  177.6870  146.3500 C   0  0  0  0  0  2  0  0  0  0  0  0
  186.0220  178.7530  146.0520 C   0  0  2  0  0  3  0  0  0  0  0  0
  187.9580  177.4660  145.1260 C   0  0  0  0  0  2  0  0  0  0  0  0
  185.2040  178.9250  147.1680 O   0  0  0  0  0  1  0  0  0  0  0  0
  186.0550  178.1120  143.6320 C   0  0  0  0  0  2  0  0  0  0  0  0
  1 16  1  0  0  0  0
  1  4  2  0  0  0  0
  3  9  1  0  0  0  0
  4 12  1  0  0  0  0
  5 14  1  0  0  0  0
  6  3  2  0  0  0  0
  6 13  1  0  0  0  0
  7  3  1  0  0  0  0
  8  4  1  0  0  0  0
  8 10  2  0  0  0  0
  9  2  1  0  0  0  0
  9 22  1  1  0  0  0
 10 20  1  0  0  0  0
 10 15  1  0  0  0  0
 11  6  1  0  0  0  0
 12 15  2  0  0  0  0
 12 14  1  0  0  0  0
 13  2  2  0  0  0  0
 14  7  2  0  0  0  0
 15 11  1  0  0  0  0
 16  5  2  0  0  0  0
 17 11  1  0  0  0  0
 17 18  1  0  0  0  0
 19 17  1  0  0  0  0
 19 18  1  0  0  0  0
 21 20  1  0  0  0  0
 22 23  1  0  0  0  0
 24 27  1  0  0  0  0
 25 23  1  6  0  0  0
 25 28  1  0  0  0  0
 27 26  1  0  0  0  0
 27 29  1  1  0  0  0
 28 26  1  0  0  0  0
 30 25  1  0  0  0  0
 30 24  1  0  0  0  0
M  END
>  <MODEL>
2

>  <REMARK>
 VINA RESULT:      -8.2      3.004      5.330
  Name = 
  5 active torsions:
  status: ('A' for Active; 'I' for Inactive)
    1  A    between atoms: C_2  and  N_22
    2  A    between atoms: C_5  and  O_13
    3  A    between atoms: O_7  and  C_21
    4  A    between atoms: C_8  and  O_13
    5  A    between atoms: C_8  and  C_20
                            x       y       z     vdW  Elec       q    Type
                         _______ _______ _______ _____ _____    ______ ____

>  <TORSDO>
F 5

$$$$
=
 OpenBabel11062413183D

 30 35  0  0  1  0  0  0  0  0999 V2000
  182.6960  178.1550  137.5570 N   0  0  0  0  0  0  0  0  0  0  0  0
  189.5200  177.7420  140.5350 N   0  0  0  0  0  0  0  0  0  0  0  0
  187.3360  178.2600  139.7940 C   0  0  0  0  0  0  0  0  0  0  0  0
  183.8310  177.4740  137.2740 C   0  0  0  0  0  0  0  0  0  0  0  0
  183.8310  179.3490  139.2460 C   0  0  0  0  0  3  0  0  0  0  0  0
  187.9120  177.5230  138.8720 C   0  0  0  0  0  0  0  0  0  0  0  0
  186.0450  178.8840  139.7610 N   0  0  0  0  0  0  0  0  0  0  0  0
  184.0350  176.5070  136.2080 C   0  0  0  0  0  3  0  0  0  0  0  0
  188.3000  178.4720  140.9130 C   0  0  1  0  0  3  0  0  0  0  0  0
  185.3400  176.2380  136.2790 C   0  0  0  0  0  0  0  0  0  0  0  0
  187.3830  177.1710  137.5840 N   0  0  0  0  0  0  0  0  0  0  0  0
  185.0060  177.7260  137.9410 C   0  0  0  0  0  0  0  0  0  0  0  0
  189.2250  177.1970  139.2760 N   0  0  0  0  0  0  0  0  0  0  0  0
  185.0290  178.6670  138.9800 C   0  0  0  0  0  0  0  0  0  0  0  0
  185.9690  177.0200  137.3640 C   0  0  0  0  0  0  0  0  0  0  0  0
  182.7030  179.0760  138.5250 N   0  0  0  0  0  0  0  0  0  0  0  0
  188.3230  176.7430  136.5410 C   0  0  0  0  0  3  0  0  0  0  0  0
  189.3450  177.8340  136.2600 C   0  0  0  0  0  2  0  0  0  0  0  0
  188.1870  177.6350  135.3160 C   0  0  0  0  0  2  0  0  0  0  0  0
  186.0160  175.3340  135.4550 O   0  0  0  0  0  0  0  0  0  0  0  0
  186.0290  173.9360  135.7090 C   0  0  0  0  0  1  0  0  0  0  0  0
  187.7350  177.8970  142.2020 C   0  0  0  0  0  2  0  0  0  0  0  0
  188.5370  176.8430  142.6420 O   0  0  0  0  0  0  0  0  0  0  0  0
  186.6710  177.4180  145.8200 C   0  0  0  0  0  2  0  0  0  0  0  0
  188.2410  176.7120  144.0010 C   0  0  1  0  0  3  0  0  0  0  0  0
  189.1030  177.0960  146.3200 C   0  0  0  0  0  2  0  0  0  0  0  0
  187.8540  177.9090  146.6510 C   0  0  2  0  0  3  0  0  0  0  0  0
  189.4230  177.2050  144.8320 C   0  0  0  0  0  2  0  0  0  0  0  0
  187.5570  177.7770  148.0060 O   0  0  0  0  0  1  0  0  0  0  0  0
  186.9900  177.5260  144.3320 C   0  0  0  0  0  2  0  0  0  0  0  0
  1 16  1  0  0  0  0
  2  9  1  0  0  0  0
  3  9  1  0  0  0  0
  4  1  2  0  0  0  0
  4 12  1  0  0  0  0
  6 13  1  0  0  0  0
  6  3  2  0  0  0  0
  7  3  1  0  0  0  0
  8 10  2  0  0  0  0
  8  4  1  0  0  0  0
  9 22  1  1  0  0  0
 10 15  1  0  0  0  0
 11  6  1  0  0  0  0
 12 14  1  0  0  0  0
 13  2  2  0  0  0  0
 14  5  1  0  0  0  0
 14  7  2  0  0  0  0
 15 11  1  0  0  0  0
 15 12  2  0  0  0  0
 16  5  2  0  0  0  0
 17 11  1  0  0  0  0
 18 17  1  0  0  0  0
 19 18  1  0  0  0  0
 19 17  1  0  0  0  0
 20 21  1  0  0  0  0
 20 10  1  0  0  0  0
 22 23  1  0  0  0  0
 24 27  1  0  0  0  0
 25 23  1  6  0  0  0
 25 30  1  0  0  0  0
 25 28  1  0  0  0  0
 26 27  1  0  0  0  0
 27 29  1  1  0  0  0
 28 26  1  0  0  0  0
 30 24  1  0  0  0  0
M  END
>  <MODEL>
3

>  <REMARK>
 VINA RESULT:      -8.1      2.503      5.059
  Name = 
  5 active torsions:
  status: ('A' for Active; 'I' for Inactive)
    1  A    between atoms: C_2  and  N_22
    2  A    between atoms: C_5  and  O_13
    3  A    between atoms: O_7  and  C_21
    4  A    between atoms: C_8  and  O_13
    5  A    between atoms: C_8  and  C_20
                            x       y       z     vdW  Elec       q    Type
                         _______ _______ _______ _____ _____    ______ ____

>  <TORSDO>
F 5

$$$$
=
 OpenBabel11062413183D

 30 35  0  0  1  0  0  0  0  0999 V2000
  183.6140  179.0030  140.7310 N   0  0  0  0  0  0  0  0  0  0  0  0
  190.7470  176.8650  140.3160 N   0  0  0  0  0  0  0  0  0  0  0  0
  188.6230  177.7960  140.7770 C   0  0  0  0  0  0  0  0  0  0  0  0
  184.4020  178.4560  139.7760 C   0  0  0  0  0  0  0  0  0  0  0  0
  185.4870  179.2310  142.1480 C   0  0  0  0  0  3  0  0  0  0  0  0
  188.6750  177.5230  139.4940 C   0  0  0  0  0  0  0  0  0  0  0  0
  187.5750  178.4460  141.5100 N   0  0  0  0  0  0  0  0  0  0  0  0
  184.0130  178.0660  138.4310 C   0  0  0  0  0  3  0  0  0  0  0  0
  189.9230  177.4180  141.4030 C   0  0  1  0  0  3  0  0  0  0  0  0
  185.1690  177.7140  137.8640 C   0  0  0  0  0  0  0  0  0  0  0  0
  187.6850  177.8260  138.4980 N   0  0  0  0  0  0  0  0  0  0  0  0
  185.7550  178.3050  139.9600 C   0  0  0  0  0  0  0  0  0  0  0  0
  189.9350  176.9690  139.1760 N   0  0  0  0  0  0  0  0  0  0  0  0
  186.3380  178.6700  141.1820 C   0  0  0  0  0  0  0  0  0  0  0  0
  186.2830  177.8790  138.8200 C   0  0  0  0  0  0  0  0  0  0  0  0
  184.1540  179.3840  141.8930 N   0  0  0  0  0  0  0  0  0  0  0  0
  188.1010  177.8590  137.0910 C   0  0  0  0  0  3  0  0  0  0  0  0
  189.0740  179.0040  136.8470 C   0  0  0  0  0  2  0  0  0  0  0  0
  187.6310  179.1500  136.4370 C   0  0  0  0  0  2  0  0  0  0  0  0
  185.3050  177.2410  136.5560 O   0  0  0  0  0  0  0  0  0  0  0  0
  184.2270  176.6510  135.8440 C   0  0  0  0  0  1  0  0  0  0  0  0
  189.6990  176.3580  142.4690 C   0  0  0  0  0  2  0  0  0  0  0  0
  190.5350  176.5990  143.5610 O   0  0  0  0  0  0  0  0  0  0  0  0
  189.4250  177.8770  146.8840 C   0  0  0  0  0  2  0  0  0  0  0  0
  189.7430  177.3090  144.4660 C   0  0  1  0  0  3  0  0  0  0  0  0
  187.4330  177.5440  145.4030 C   0  0  0  0  0  2  0  0  0  0  0  0
  187.9870  177.3670  146.8150 C   0  0  2  0  0  3  0  0  0  0  0  0
  188.3050  176.7980  144.3980 C   0  0  0  0  0  2  0  0  0  0  0  0
  187.1970  178.0770  147.7180 O   0  0  0  0  0  1  0  0  0  0  0  0
  190.2970  177.1310  145.8790 C   0  0  0  0  0  2  0  0  0  0  0  0
  1 16  1  0  0  0  0
  2  9  1  0  0  0  0
  3  9  1  0  0  0  0
  3  7  1  0  0  0  0
  4 12  1  0  0  0  0
  4  1  2  0  0  0  0
  6  3  2  0  0  0  0
  8  4  1  0  0  0  0
  9 22  1  1  0  0  0
 10  8  2  0  0  0  0
 10 15  1  0  0  0  0
 11 15  1  0  0  0  0
 11  6  1  0  0  0  0
 12 14  1  0  0  0  0
 13  6  1  0  0  0  0
 13  2  2  0  0  0  0
 14  7  2  0  0  0  0
 14  5  1  0  0  0  0
 15 12  2  0  0  0  0
 16  5  2  0  0  0  0
 17 11  1  0  0  0  0
 18 17  1  0  0  0  0
 19 18  1  0  0  0  0
 19 17  1  0  0  0  0
 20 10  1  0  0  0  0
 21 20  1  0  0  0  0
 22 23  1  0  0  0  0
 25 23  1  6  0  0  0
 25 30  1  0  0  0  0
 26 27  1  0  0  0  0
 27 24  1  0  0  0  0
 27 29  1  1  0  0  0
 28 25  1  0  0  0  0
 28 26  1  0  0  0  0
 30 24  1  0  0  0  0
M  END
>  <MODEL>
4

>  <REMARK>
 VINA RESULT:      -7.9      1.727      4.551
  Name = 
  5 active torsions:
  status: ('A' for Active; 'I' for Inactive)
    1  A    between atoms: C_2  and  N_22
    2  A    between atoms: C_5  and  O_13
    3  A    between atoms: O_7  and  C_21
    4  A    between atoms: C_8  and  O_13
    5  A    between atoms: C_8  and  C_20
                            x       y       z     vdW  Elec       q    Type
                         _______ _______ _______ _____ _____    ______ ____

>  <TORSDO>
F 5

$$$$
=
 OpenBabel11062413183D

 30 35  0  0  1  0  0  0  0  0999 V2000
  183.8840  179.0070  145.6030 N   0  0  0  0  0  0  0  0  0  0  0  0
  189.9890  177.1210  141.7580 N   0  0  0  0  0  0  0  0  0  0  0  0
  187.8370  177.5340  142.6440 C   0  0  0  0  0  0  0  0  0  0  0  0
  185.1880  178.8010  145.9050 C   0  0  0  0  0  0  0  0  0  0  0  0
  184.2810  178.2890  143.3910 C   0  0  0  0  0  3  0  0  0  0  0  0
  188.6650  177.3750  143.6510 C   0  0  0  0  0  0  0  0  0  0  0  0
  186.4150  177.7230  142.6800 N   0  0  0  0  0  0  0  0  0  0  0  0
  185.8230  178.9390  147.2050 C   0  0  0  0  0  3  0  0  0  0  0  0
  188.5940  177.3760  141.3690 C   0  0  1  0  0  3  0  0  0  0  0  0
  187.0640  178.4980  146.9920 C   0  0  0  0  0  0  0  0  0  0  0  0
  188.3390  177.3370  145.0500 N   0  0  0  0  0  0  0  0  0  0  0  0
  186.0710  178.3060  144.9760 C   0  0  0  0  0  0  0  0  0  0  0  0
  189.9650  177.1190  143.1620 N   0  0  0  0  0  0  0  0  0  0  0  0
  185.6390  178.0600  143.6660 C   0  0  0  0  0  0  0  0  0  0  0  0
  187.2270  178.0780  145.5850 C   0  0  0  0  0  0  0  0  0  0  0  0
  183.4450  178.7510  144.3670 N   0  0  0  0  0  0  0  0  0  0  0  0
  189.2950  176.7110  145.9700 C   0  0  0  0  0  3  0  0  0  0  0  0
  190.3820  177.7000  146.3680 C   0  0  0  0  0  2  0  0  0  0  0  0
  190.6740  176.6470  145.3280 C   0  0  0  0  0  2  0  0  0  0  0  0
  188.0730  178.4540  147.9580 O   0  0  0  0  0  0  0  0  0  0  0  0
  187.9050  177.7920  149.2040 C   0  0  0  0  0  1  0  0  0  0  0  0
  188.5130  178.6580  140.5550 C   0  0  0  0  0  2  0  0  0  0  0  0
  187.3890  178.6240  139.7270 O   0  0  0  0  0  0  0  0  0  0  0  0
  189.3940  177.8400  136.6820 C   0  0  0  0  0  2  0  0  0  0  0  0
  187.7930  177.8960  138.6070 C   0  0  1  0  0  3  0  0  0  0  0  0
  187.0550  176.9930  136.3910 C   0  0  0  0  0  2  0  0  0  0  0  0
  188.2220  177.7040  135.7110 C   0  0  2  0  0  3  0  0  0  0  0  0
  186.6220  177.7620  137.6350 C   0  0  0  0  0  2  0  0  0  0  0  0
  188.6260  176.9760  134.5940 O   0  0  0  0  0  1  0  0  0  0  0  0
  188.9610  178.6080  137.9270 C   0  0  0  0  0  2  0  0  0  0  0  0
  1  4  2  0  0  0  0
  2 13  2  0  0  0  0
  3  7  1  0  0  0  0
  3  6  2  0  0  0  0
  4  8  1  0  0  0  0
  5 14  1  0  0  0  0
  5 16  2  0  0  0  0
  6 11  1  0  0  0  0
  7 14  2  0  0  0  0
  9 22  1  6  0  0  0
  9  2  1  0  0  0  0
  9  3  1  0  0  0  0
 10  8  2  0  0  0  0
 10 20  1  0  0  0  0
 11 15  1  0  0  0  0
 11 17  1  0  0  0  0
 12 15  2  0  0  0  0
 12  4  1  0  0  0  0
 13  6  1  0  0  0  0
 14 12  1  0  0  0  0
 15 10  1  0  0  0  0
 16  1  1  0  0  0  0
 17 18  1  0  0  0  0
 19 17  1  0  0  0  0
 19 18  1  0  0  0  0
 20 21  1  0  0  0  0
 23 22  1  0  0  0  0
 24 30  1  0  0  0  0
 25 23  1  1  0  0  0
 26 28  1  0  0  0  0
 27 29  1  6  0  0  0
 27 26  1  0  0  0  0
 27 24  1  0  0  0  0
 28 25  1  0  0  0  0
 30 25  1  0  0  0  0
M  END
>  <MODEL>
5

>  <REMARK>
 VINA RESULT:      -7.8      1.657      8.013
  Name = 
  5 active torsions:
  status: ('A' for Active; 'I' for Inactive)
    1  A    between atoms: C_2  and  N_22
    2  A    between atoms: C_5  and  O_13
    3  A    between atoms: O_7  and  C_21
    4  A    between atoms: C_8  and  O_13
    5  A    between atoms: C_8  and  C_20
                            x       y       z     vdW  Elec       q    Type
                         _______ _______ _______ _____ _____    ______ ____

>  <TORSDO>
F 5

$$$$
=
 OpenBabel11062413183D

 30 35  0  0  1  0  0  0  0  0999 V2000
  178.9310  178.2570  143.0350 N   0  0  0  0  0  0  0  0  0  0  0  0
  186.2920  178.7760  141.9560 N   0  0  0  0  0  0  0  0  0  0  0  0
  184.0290  178.8850  142.6330 C   0  0  0  0  0  0  0  0  0  0  0  0
  179.7680  178.0550  141.9900 C   0  0  0  0  0  0  0  0  0  0  0  0
  180.7300  179.0770  144.3220 C   0  0  0  0  0  3  0  0  0  0  0  0
  184.0540  178.6940  141.3330 C   0  0  0  0  0  0  0  0  0  0  0  0
  182.8920  179.0990  143.4810 N   0  0  0  0  0  0  0  0  0  0  0  0
  179.4170  177.6020  140.6550 C   0  0  0  0  0  3  0  0  0  0  0  0
  185.4310  178.9660  143.1350 C   0  0  1  0  0  3  0  0  0  0  0  0
  180.5650  177.6990  139.9820 C   0  0  0  0  0  0  0  0  0  0  0  0
  182.9330  178.6650  140.4350 N   0  0  0  0  0  0  0  0  0  0  0  0
  181.1000  178.3840  142.0640 C   0  0  0  0  0  0  0  0  0  0  0  0
  185.3930  178.6290  140.8880 N   0  0  0  0  0  0  0  0  0  0  0  0
  181.6300  178.8850  143.2610 C   0  0  0  0  0  0  0  0  0  0  0  0
  181.6360  178.2110  140.8630 C   0  0  0  0  0  0  0  0  0  0  0  0
  179.4090  178.7610  144.1760 N   0  0  0  0  0  0  0  0  0  0  0  0
  183.1810  178.8930  139.0070 C   0  0  0  0  0  3  0  0  0  0  0  0
  183.8250  180.2540  138.7860 C   0  0  0  0  0  2  0  0  0  0  0  0
  182.3530  180.0720  138.5140 C   0  0  0  0  0  2  0  0  0  0  0  0
  180.7360  177.3520  138.6390 O   0  0  0  0  0  0  0  0  0  0  0  0
  180.8150  176.0010  138.2070 C   0  0  0  0  0  1  0  0  0  0  0  0
  185.6870  177.8570  144.1420 C   0  0  0  0  0  2  0  0  0  0  0  0
  186.1260  178.4040  145.3490 O   0  0  0  0  0  0  0  0  0  0  0  0
  188.6950  176.9720  147.6430 C   0  0  0  0  0  2  0  0  0  0  0  0
  187.2050  177.6040  145.7320 C   0  0  1  0  0  3  0  0  0  0  0  0
  189.6270  177.1190  145.3230 C   0  0  0  0  0  2  0  0  0  0  0  0
  189.9200  177.3320  146.8070 C   0  0  2  0  0  3  0  0  0  0  0  0
  188.4320  177.9650  144.8970 C   0  0  0  0  0  2  0  0  0  0  0  0
  190.9960  176.5320  147.1890 O   0  0  0  0  0  1  0  0  0  0  0  0
  187.4980  177.8180  147.2160 C   0  0  0  0  0  2  0  0  0  0  0  0
  1 16  1  0  0  0  0
  2  9  1  0  0  0  0
  3  9  1  0  0  0  0
  3  7  1  0  0  0  0
  4 12  1  0  0  0  0
  4  1  2  0  0  0  0
  6  3  2  0  0  0  0
  8  4  1  0  0  0  0
  9 22  1  1  0  0  0
 10  8  2  0  0  0  0
 10 15  1  0  0  0  0
 11 15  1  0  0  0  0
 11  6  1  0  0  0  0
 12 14  1  0  0  0  0
 13  6  1  0  0  0  0
 13  2  2  0  0  0  0
 14  7  2  0  0  0  0
 14  5  1  0  0  0  0
 15 12  2  0  0  0  0
 16  5  2  0  0  0  0
 17 11  1  0  0  0  0
 18 17  1  0  0  0  0
 19 18  1  0  0  0  0
 19 17  1  0  0  0  0
 20 10  1  0  0  0  0
 21 20  1  0  0  0  0
 22 23  1  0  0  0  0
 25 23  1  6  0  0  0
 25 30  1  0  0  0  0
 26 27  1  0  0  0  0
 27 29  1  1  0  0  0
 27 24  1  0  0  0  0
 28 26  1  0  0  0  0
 28 25  1  0  0  0  0
 30 24  1  0  0  0  0
M  END
>  <MODEL>
6

>  <REMARK>
 VINA RESULT:      -7.8      3.278      5.953
  Name = 
  5 active torsions:
  status: ('A' for Active; 'I' for Inactive)
    1  A    between atoms: C_2  and  N_22
    2  A    between atoms: C_5  and  O_13
    3  A    between atoms: O_7  and  C_21
    4  A    between atoms: C_8  and  O_13
    5  A    between atoms: C_8  and  C_20
                            x       y       z     vdW  Elec       q    Type
                         _______ _______ _______ _____ _____    ______ ____

>  <TORSDO>
F 5

$$$$
=
 OpenBabel11062413183D

 30 35  0  0  1  0  0  0  0  0999 V2000
  182.7230  178.9520  145.0840 N   0  0  0  0  0  0  0  0  0  0  0  0
  186.8490  178.5150  138.8870 N   0  0  0  0  0  0  0  0  0  0  0  0
  185.8780  178.8840  141.0100 C   0  0  0  0  0  0  0  0  0  0  0  0
  182.4720  178.7270  143.7720 C   0  0  0  0  0  0  0  0  0  0  0  0
  184.9850  179.3910  144.5770 C   0  0  0  0  0  3  0  0  0  0  0  0
  184.9070  178.8060  140.1290 C   0  0  0  0  0  0  0  0  0  0  0  0
  185.7900  179.1810  142.4110 N   0  0  0  0  0  0  0  0  0  0  0  0
  181.1840  178.4480  143.1580 C   0  0  0  0  0  3  0  0  0  0  0  0
  187.1820  178.7200  140.3050 C   0  0  1  0  0  3  0  0  0  0  0  0
  181.4590  178.4400  141.8520 C   0  0  0  0  0  0  0  0  0  0  0  0
  183.5040  179.0170  140.3580 N   0  0  0  0  0  0  0  0  0  0  0  0
  183.4540  178.8550  142.8200 C   0  0  0  0  0  0  0  0  0  0  0  0
  185.4480  178.5920  138.8430 N   0  0  0  0  0  0  0  0  0  0  0  0
  184.7640  179.1690  143.2080 C   0  0  0  0  0  0  0  0  0  0  0  0
  182.8930  178.7150  141.6260 C   0  0  0  0  0  0  0  0  0  0  0  0
  183.9590  179.2800  145.4710 N   0  0  0  0  0  0  0  0  0  0  0  0
  182.6520  179.3330  139.2070 C   0  0  0  0  0  3  0  0  0  0  0  0
  182.9510  180.7310  138.6860 C   0  0  0  0  0  2  0  0  0  0  0  0
  181.7310  180.4980  139.5410 C   0  0  0  0  0  2  0  0  0  0  0  0
  180.5270  178.1920  140.8410 O   0  0  0  0  0  0  0  0  0  0  0  0
  180.1130  176.8780  140.4930 C   0  0  0  0  0  1  0  0  0  0  0  0
  187.9140  177.5010  140.8430 C   0  0  0  0  0  2  0  0  0  0  0  0
  189.2010  177.8610  141.2460 O   0  0  0  0  0  0  0  0  0  0  0  0
  190.4000  178.3350  144.7460 C   0  0  0  0  0  2  0  0  0  0  0  0
  189.0980  178.0690  142.6230 C   0  0  1  0  0  3  0  0  0  0  0  0
  188.2070  177.1260  144.7640 C   0  0  0  0  0  2  0  0  0  0  0  0
  189.6040  177.1950  145.3770 C   0  0  2  0  0  3  0  0  0  0  0  0
  188.3040  176.9280  143.2550 C   0  0  0  0  0  2  0  0  0  0  0  0
  189.5010  177.4040  146.7510 O   0  0  0  0  0  1  0  0  0  0  0  0
  190.4960  178.1380  143.2360 C   0  0  0  0  0  2  0  0  0  0  0  0
  1 16  1  0  0  0  0
  2  9  1  0  0  0  0
  3  7  1  0  0  0  0
  4  1  2  0  0  0  0
  5 16  2  0  0  0  0
  6 11  1  0  0  0  0
  6  3  2  0  0  0  0
  7 14  2  0  0  0  0
  8  4  1  0  0  0  0
  9 22  1  1  0  0  0
  9  3  1  0  0  0  0
 10  8  2  0  0  0  0
 11 15  1  0  0  0  0
 12 14  1  0  0  0  0
 12  4  1  0  0  0  0
 13  2  2  0  0  0  0
 13  6  1  0  0  0  0
 14  5  1  0  0  0  0
 15 10  1  0  0  0  0
 15 12  2  0  0  0  0
 17 19  1  0  0  0  0
 17 11  1  0  0  0  0
 18 17  1  0  0  0  0
 18 19  1  0  0  0  0
 20 10  1  0  0  0  0
 21 20  1  0  0  0  0
 22 23  1  0  0  0  0
 24 27  1  0  0  0  0
 25 23  1  6  0  0  0
 25 30  1  0  0  0  0
 25 28  1  0  0  0  0
 26 27  1  0  0  0  0
 27 29  1  1  0  0  0
 28 26  1  0  0  0  0
 30 24  1  0  0  0  0
M  END
>  <MODEL>
7

>  <REMARK>
 VINA RESULT:      -7.7      2.721      5.531
  Name = 
  5 active torsions:
  status: ('A' for Active; 'I' for Inactive)
    1  A    between atoms: C_2  and  N_22
    2  A    between atoms: C_5  and  O_13
    3  A    between atoms: O_7  and  C_21
    4  A    between atoms: C_8  and  O_13
    5  A    between atoms: C_8  and  C_20
                            x       y       z     vdW  Elec       q    Type
                         _______ _______ _______ _____ _____    ______ ____

>  <TORSDO>
F 5

$$$$
=
 OpenBabel11062413183D

 30 35  0  0  1  0  0  0  0  0999 V2000
  190.2690  177.6250  139.1940 N   0  0  0  0  0  0  0  0  0  0  0  0
  184.5100  178.2530  143.8910 N   0  0  0  0  0  0  0  0  0  0  0  0
  186.1870  178.4300  142.2340 C   0  0  0  0  0  0  0  0  0  0  0  0
  189.9670  177.1350  140.4200 C   0  0  0  0  0  0  0  0  0  0  0  0
  188.3240  178.9610  139.2470 C   0  0  0  0  0  3  0  0  0  0  0  0
  186.7040  177.8050  143.2670 C   0  0  0  0  0  0  0  0  0  0  0  0
  186.8380  178.8430  141.0240 N   0  0  0  0  0  0  0  0  0  0  0  0
  190.7650  176.2270  141.2260 C   0  0  0  0  0  3  0  0  0  0  0  0
  184.7690  178.7760  142.5400 C   0  0  1  0  0  3  0  0  0  0  0  0
  190.0970  176.1660  142.3790 C   0  0  0  0  0  0  0  0  0  0  0  0
  188.0680  177.3920  143.4420 N   0  0  0  0  0  0  0  0  0  0  0  0
  188.8580  177.5600  141.1100 C   0  0  0  0  0  0  0  0  0  0  0  0
  185.7310  177.6850  144.2850 N   0  0  0  0  0  0  0  0  0  0  0  0
  187.9790  178.4790  140.5200 C   0  0  0  0  0  0  0  0  0  0  0  0
  188.8940  177.0220  142.3220 C   0  0  0  0  0  0  0  0  0  0  0  0
  189.4590  178.5230  138.6250 N   0  0  0  0  0  0  0  0  0  0  0  0
  188.5460  177.1310  144.8050 C   0  0  0  0  0  3  0  0  0  0  0  0
  188.1270  178.2530  145.7440 C   0  0  0  0  0  2  0  0  0  0  0  0
  189.5420  178.2030  145.2240 C   0  0  0  0  0  2  0  0  0  0  0  0
  190.4710  175.3910  143.4800 O   0  0  0  0  0  0  0  0  0  0  0  0
  191.7850  175.4200  144.0190 C   0  0  0  0  0  1  0  0  0  0  0  0
  183.8420  178.1020  141.5410 C   0  0  0  0  0  2  0  0  0  0  0  0
  183.4610  179.0150  140.5570 O   0  0  0  0  0  0  0  0  0  0  0  0
  182.5800  175.9500  138.6240 C   0  0  0  0  0  2  0  0  0  0  0  0
  183.2120  178.2370  139.4250 C   0  0  1  0  0  3  0  0  0  0  0  0
  184.2160  177.3250  137.3190 C   0  0  0  0  0  2  0  0  0  0  0  0
  183.8290  175.9110  137.7460 C   0  0  2  0  0  3  0  0  0  0  0  0
  184.4620  178.1960  138.5470 C   0  0  0  0  0  2  0  0  0  0  0  0
  183.5790  175.1350  136.6160 O   0  0  0  0  0  1  0  0  0  0  0  0
  182.8250  176.8220  139.8520 C   0  0  0  0  0  2  0  0  0  0  0  0
  1  4  2  0  0  0  0
  2 13  2  0  0  0  0
  3  9  1  0  0  0  0
  3  6  2  0  0  0  0
  4 12  1  0  0  0  0
  4  8  1  0  0  0  0
  5 14  1  0  0  0  0
  6 11  1  0  0  0  0
  6 13  1  0  0  0  0
  7  3  1  0  0  0  0
  8 10  2  0  0  0  0
  9 22  1  6  0  0  0
  9  2  1  0  0  0  0
 10 20  1  0  0  0  0
 11 17  1  0  0  0  0
 12 15  2  0  0  0  0
 14  7  2  0  0  0  0
 14 12  1  0  0  0  0
 15 10  1  0  0  0  0
 15 11  1  0  0  0  0
 16  1  1  0  0  0  0
 16  5  2  0  0  0  0
 17 19  1  0  0  0  0
 17 18  1  0  0  0  0
 19 18  1  0  0  0  0
 20 21  1  0  0  0  0
 23 22  1  0  0  0  0
 24 30  1  0  0  0  0
 25 30  1  0  0  0  0
 25 23  1  1  0  0  0
 26 27  1  0  0  0  0
 26 28  1  0  0  0  0
 27 29  1  6  0  0  0
 27 24  1  0  0  0  0
 28 25  1  0  0  0  0
M  END
>  <MODEL>
8

>  <REMARK>
 VINA RESULT:      -7.4      2.436      6.531
  Name = 
  5 active torsions:
  status: ('A' for Active; 'I' for Inactive)
    1  A    between atoms: C_2  and  N_22
    2  A    between atoms: C_5  and  O_13
    3  A    between atoms: O_7  and  C_21
    4  A    between atoms: C_8  and  O_13
    5  A    between atoms: C_8  and  C_20
                            x       y       z     vdW  Elec       q    Type
                         _______ _______ _______ _____ _____    ______ ____

>  <TORSDO>
F 5

$$$$
=
 OpenBabel11062413183D

 30 35  0  0  1  0  0  0  0  0999 V2000
  190.1440  177.1350  145.3860 N   0  0  0  0  0  0  0  0  0  0  0  0
  187.5560  178.2130  138.4750 N   0  0  0  0  0  0  0  0  0  0  0  0
  188.7580  178.0130  140.5010 C   0  0  0  0  0  0  0  0  0  0  0  0
  188.9240  177.3360  144.8340 C   0  0  0  0  0  0  0  0  0  0  0  0
  191.1570  177.5040  143.2860 C   0  0  0  0  0  3  0  0  0  0  0  0
  187.5080  178.2880  140.7970 C   0  0  0  0  0  0  0  0  0  0  0  0
  189.8770  177.8820  141.3890 N   0  0  0  0  0  0  0  0  0  0  0  0
  187.6430  177.3680  145.5190 C   0  0  0  0  0  3  0  0  0  0  0  0
  188.8990  177.9530  139.0180 C   0  0  1  0  0  3  0  0  0  0  0  0
  186.7880  177.7280  144.5600 C   0  0  0  0  0  0  0  0  0  0  0  0
  186.9570  178.5430  142.0990 N   0  0  0  0  0  0  0  0  0  0  0  0
  188.7810  177.6560  143.5060 C   0  0  0  0  0  0  0  0  0  0  0  0
  186.7560  178.4220  139.6090 N   0  0  0  0  0  0  0  0  0  0  0  0
  189.9110  177.7230  142.6780 C   0  0  0  0  0  0  0  0  0  0  0  0
  187.5020  177.9300  143.2820 C   0  0  0  0  0  0  0  0  0  0  0  0
  191.2370  177.2210  144.6200 N   0  0  0  0  0  0  0  0  0  0  0  0
  185.6810  179.2630  142.1860 C   0  0  0  0  0  3  0  0  0  0  0  0
  184.5110  178.2970  142.0670 C   0  0  0  0  0  2  0  0  0  0  0  0
  184.9160  179.1300  140.8770 C   0  0  0  0  0  2  0  0  0  0  0  0
  185.4090  177.8770  144.7340 O   0  0  0  0  0  0  0  0  0  0  0  0
  184.8550  178.6280  145.8050 C   0  0  0  0  0  1  0  0  0  0  0  0
  189.3660  176.5690  138.5950 C   0  0  0  0  0  2  0  0  0  0  0  0
  189.5900  176.5450  137.2170 O   0  0  0  0  0  0  0  0  0  0  0  0
  192.9620  176.0020  135.7190 C   0  0  0  0  0  2  0  0  0  0  0  0
  190.9730  176.6840  137.0790 C   0  0  1  0  0  3  0  0  0  0  0  0
  193.1800  176.2980  138.1960 C   0  0  0  0  0  2  0  0  0  0  0  0
  193.6550  175.5010  136.9830 C   0  0  2  0  0  3  0  0  0  0  0  0
  191.6670  176.1800  138.3430 C   0  0  0  0  0  2  0  0  0  0  0  0
  195.0350  175.6400  136.8450 O   0  0  0  0  0  1  0  0  0  0  0  0
  191.4480  175.8850  135.8660 C   0  0  0  0  0  2  0  0  0  0  0  0
  2  9  1  0  0  0  0
  2 13  2  0  0  0  0
  3  6  2  0  0  0  0
  3  7  1  0  0  0  0
  4  1  2  0  0  0  0
  4  8  1  0  0  0  0
  5 16  2  0  0  0  0
  6 11  1  0  0  0  0
  7 14  2  0  0  0  0
  9 22  1  1  0  0  0
  9  3  1  0  0  0  0
 10 20  1  0  0  0  0
 10  8  2  0  0  0  0
 11 17  1  0  0  0  0
 11 15  1  0  0  0  0
 12  4  1  0  0  0  0
 13  6  1  0  0  0  0
 14  5  1  0  0  0  0
 14 12  1  0  0  0  0
 15 12  2  0  0  0  0
 15 10  1  0  0  0  0
 16  1  1  0  0  0  0
 18 17  1  0  0  0  0
 19 18  1  0  0  0  0
 19 17  1  0  0  0  0
 20 21  1  0  0  0  0
 23 22  1  0  0  0  0
 24 30  1  0  0  0  0
 24 27  1  0  0  0  0
 25 23  1  1  0  0  0
 25 28  1  0  0  0  0
 26 28  1  0  0  0  0
 27 29  1  6  0  0  0
 27 26  1  0  0  0  0
 30 25  1  0  0  0  0
M  END
>  <MODEL>
9

>  <REMARK>
 VINA RESULT:      -7.4      2.736      6.980
  Name = 
  5 active torsions:
  status: ('A' for Active; 'I' for Inactive)
    1  A    between atoms: C_2  and  N_22
    2  A    between atoms: C_5  and  O_13
    3  A    between atoms: O_7  and  C_21
    4  A    between atoms: C_8  and  O_13
    5  A    between atoms: C_8  and  C_20
                            x       y       z     vdW  Elec       q    Type
                         _______ _______ _______ _____ _____    ______ ____

>  <TORSDO>
F 5

$$$$
