=
 OpenBabel11062417003D

 26 27  0  0  1  0  0  0  0  0999 V2000
  186.5810  178.1520  145.9620 C   0  0  0  0  0  0  0  0  0  0  0  0
  188.4570  177.7720  147.4430 C   0  0  0  0  0  3  0  0  0  0  0  0
  188.7440  177.4710  145.0460 C   0  0  0  0  0  0  0  0  0  0  0  0
  189.2790  177.4530  146.3540 C   0  0  0  0  0  0  0  0  0  0  0  0
  187.3980  177.8290  144.8710 C   0  0  0  0  0  3  0  0  0  0  0  0
  187.1200  178.1160  147.2490 C   0  0  0  0  0  3  0  0  0  0  0  0
  189.5570  177.1340  143.8500 C   0  0  0  0  0  0  0  0  0  0  0  0
  191.4510  178.6230  143.7990 N   0  0  0  0  0  1  0  0  0  0  0  0
  190.8850  177.1310  141.9920 C   0  0  0  0  0  0  0  0  0  0  0  0
  190.3520  178.0850  143.0140 C   0  0  1  0  0  3  0  0  0  0  0  0
  189.6910  175.9060  143.3620 C   0  0  0  0  0  3  0  0  0  0  0  0
  190.5160  175.9140  142.2050 N   0  0  0  0  0  0  0  0  0  0  0  0
  191.7460  177.4930  140.8220 C   0  0  0  0  0  2  0  0  0  0  0  0
  191.1110  177.1200  139.5690 N   0  0  0  0  0  1  0  0  0  0  0  0
  185.2030  178.5110  145.8000 N   0  0  0  0  0  2  0  0  0  0  0  0
  184.4730  178.5710  144.5680 C   0  0  0  0  0  0  0  0  0  0  0  0
  185.0300  178.3240  143.4650 O   0  0  0  0  0  0  0  0  0  0  0  0
  183.0260  178.9260  144.5970 C   0  0  0  0  0  2  0  0  0  0  0  0
  182.4430  178.9790  143.1880 C   0  0  0  0  0  2  0  0  0  0  0  0
  180.4440  180.2420  143.1030 F   0  0  0  0  0  0  0  0  0  0  0  0
  180.4540  178.2340  142.0930 F   0  0  0  0  0  0  0  0  0  0  0  0
  180.4490  178.3680  144.3490 F   0  0  0  0  0  0  0  0  0  0  0  0
  180.9180  178.9470  143.1830 C   0  0  0  0  0  0  0  0  0  0  0  0
  190.6240  177.1290  146.5710 O   0  0  0  0  0  0  0  0  0  0  0  0
  190.9890  176.0390  147.2640 O   0  0  0  0  0  0  0  0  0  0  0  0
  192.3440  176.0630  147.2620 N   0  0  0  0  0  1  0  0  0  0  0  0
  1  6  1  0  0  0  0
  3  4  2  0  0  0  0
  4 24  1  0  0  0  0
  4  2  1  0  0  0  0
  5  3  1  0  0  0  0
  5  1  2  0  0  0  0
  6  2  2  0  0  0  0
  7  3  1  0  0  0  0
  9 12  2  0  0  0  0
  9 10  1  0  0  0  0
 10  8  1  1  0  0  0
 10  7  1  0  0  0  0
 11  7  2  0  0  0  0
 12 11  1  0  0  0  0
 13  9  1  0  0  0  0
 14 13  1  0  0  0  0
 15  1  1  0  0  0  0
 16 18  1  0  0  0  0
 16 15  1  0  0  0  0
 17 16  2  0  0  0  0
 19 18  1  0  0  0  0
 20 23  1  0  0  0  0
 21 23  1  0  0  0  0
 23 19  1  0  0  0  0
 23 22  1  0  0  0  0
 24 25  1  0  0  0  0
 26 25  1  0  0  0  0
M  END
>  <MODEL>
1

>  <REMARK>
 VINA RESULT:      -8.2      0.000      0.000
  Name = 
  8 active torsions:
  status: ('A' for Active; 'I' for Inactive)
    1  A    between atoms: C_1  and  C_7
    2  A    between atoms: C_2  and  C_15
    3  A    between atoms: C_5  and  N_10
    4  A    between atoms: O_8  and  C_16
    5  A    between atoms: O_8  and  O_22
    6  A    between atoms: C_9  and  C_11
    7  A    between atoms: C_9  and  C_25
    8  A    between atoms: C_11  and  C_13
                            x       y       z     vdW  Elec       q    Type
                         _______ _______ _______ _____ _____    ______ ____

>  <TORSDO>
F 8

$$$$
=
 OpenBabel11062417003D

 26 27  0  0  1  0  0  0  0  0999 V2000
  185.5100  178.1920  144.9400 C   0  0  0  0  0  0  0  0  0  0  0  0
  187.0400  178.0940  146.8130 C   0  0  0  0  0  3  0  0  0  0  0  0
  187.8550  177.6000  144.5740 C   0  0  0  0  0  0  0  0  0  0  0  0
  188.0950  177.7410  145.9590 C   0  0  0  0  0  0  0  0  0  0  0  0
  186.5600  177.8350  144.0840 C   0  0  0  0  0  3  0  0  0  0  0  0
  185.7600  178.3150  146.3070 C   0  0  0  0  0  3  0  0  0  0  0  0
  188.9250  177.2180  143.6180 C   0  0  0  0  0  0  0  0  0  0  0  0
  190.6510  178.8960  143.7310 N   0  0  0  0  0  1  0  0  0  0  0  0
  190.6050  177.1480  142.0720 C   0  0  0  0  0  0  0  0  0  0  0  0
  189.7900  178.1490  142.8290 C   0  0  1  0  0  3  0  0  0  0  0  0
  189.2640  175.9650  143.3390 C   0  0  0  0  0  3  0  0  0  0  0  0
  190.3070  175.9300  142.3750 N   0  0  0  0  0  0  0  0  0  0  0  0
  191.6550  177.4650  141.0530 C   0  0  0  0  0  2  0  0  0  0  0  0
  191.2530  177.0200  139.7290 N   0  0  0  0  0  1  0  0  0  0  0  0
  184.1820  178.4270  144.4560 N   0  0  0  0  0  2  0  0  0  0  0  0
  183.8140  178.8510  143.1370 C   0  0  0  0  0  0  0  0  0  0  0  0
  184.6870  179.0910  142.2590 O   0  0  0  0  0  0  0  0  0  0  0  0
  182.3710  179.0050  142.7990 C   0  0  0  0  0  2  0  0  0  0  0  0
  181.4860  178.6860  144.0000 C   0  0  0  0  0  2  0  0  0  0  0  0
  179.6620  180.0660  143.3950 F   0  0  0  0  0  0  0  0  0  0  0  0
  179.7170  177.9810  142.5560 F   0  0  0  0  0  0  0  0  0  0  0  0
  179.2480  178.3110  144.7420 F   0  0  0  0  0  0  0  0  0  0  0  0
  179.9990  178.7540  143.6670 C   0  0  0  0  0  0  0  0  0  0  0  0
  189.3770  177.5430  146.4870 O   0  0  0  0  0  0  0  0  0  0  0  0
  189.6610  176.5110  147.2950 O   0  0  0  0  0  0  0  0  0  0  0  0
  191.0050  176.3620  147.2110 N   0  0  0  0  0  1  0  0  0  0  0  0
  1  6  1  0  0  0  0
  3  4  2  0  0  0  0
  4 24  1  0  0  0  0
  4  2  1  0  0  0  0
  5  3  1  0  0  0  0
  5  1  2  0  0  0  0
  6  2  2  0  0  0  0
  7  3  1  0  0  0  0
  9 12  2  0  0  0  0
  9 10  1  0  0  0  0
 10  7  1  0  0  0  0
 10  8  1  1  0  0  0
 11  7  2  0  0  0  0
 12 11  1  0  0  0  0
 13  9  1  0  0  0  0
 14 13  1  0  0  0  0
 15  1  1  0  0  0  0
 16 15  1  0  0  0  0
 17 16  2  0  0  0  0
 18 16  1  0  0  0  0
 18 19  1  0  0  0  0
 20 23  1  0  0  0  0
 21 23  1  0  0  0  0
 23 19  1  0  0  0  0
 23 22  1  0  0  0  0
 24 25  1  0  0  0  0
 26 25  1  0  0  0  0
M  END
>  <MODEL>
2

>  <REMARK>
 VINA RESULT:      -7.9      1.028      1.181
  Name = 
  8 active torsions:
  status: ('A' for Active; 'I' for Inactive)
    1  A    between atoms: C_1  and  C_7
    2  A    between atoms: C_2  and  C_15
    3  A    between atoms: C_5  and  N_10
    4  A    between atoms: O_8  and  C_16
    5  A    between atoms: O_8  and  O_22
    6  A    between atoms: C_9  and  C_11
    7  A    between atoms: C_9  and  C_25
    8  A    between atoms: C_11  and  C_13
                            x       y       z     vdW  Elec       q    Type
                         _______ _______ _______ _____ _____    ______ ____

>  <TORSDO>
F 8

$$$$
=
 OpenBabel11062417003D

 26 27  0  0  1  0  0  0  0  0999 V2000
  189.4990  177.3300  141.8680 C   0  0  0  0  0  0  0  0  0  0  0  0
  188.5310  178.5850  140.0400 C   0  0  0  0  0  3  0  0  0  0  0  0
  190.3430  177.0240  139.5920 C   0  0  0  0  0  0  0  0  0  0  0  0
  189.3990  177.9680  139.1280 C   0  0  0  0  0  0  0  0  0  0  0  0
  190.3720  176.7140  140.9620 C   0  0  0  0  0  3  0  0  0  0  0  0
  188.5820  178.2700  141.3970 C   0  0  0  0  0  3  0  0  0  0  0  0
  191.2980  176.3420  138.6830 C   0  0  0  0  0  0  0  0  0  0  0  0
  193.5290  176.9220  139.3850 N   0  0  0  0  0  1  0  0  0  0  0  0
  193.0460  175.7310  137.3460 C   0  0  0  0  0  0  0  0  0  0  0  0
  192.6320  176.8550  138.2430 C   0  0  1  0  0  3  0  0  0  0  0  0
  191.0850  175.1510  138.1350 C   0  0  0  0  0  3  0  0  0  0  0  0
  192.1750  174.7800  137.3030 N   0  0  0  0  0  0  0  0  0  0  0  0
  194.3110  175.6680  136.5490 C   0  0  0  0  0  2  0  0  0  0  0  0
  194.6840  176.9810  136.0510 N   0  0  0  0  0  1  0  0  0  0  0  0
  189.5220  177.0300  143.2700 N   0  0  0  0  0  2  0  0  0  0  0  0
  190.0710  177.8480  144.3110 C   0  0  0  0  0  0  0  0  0  0  0  0
  190.6330  178.9460  144.0530 O   0  0  0  0  0  0  0  0  0  0  0  0
  189.9670  177.3910  145.7260 C   0  0  0  0  0  2  0  0  0  0  0  0
  188.5980  177.7230  146.3140 C   0  0  0  0  0  2  0  0  0  0  0  0
  188.1130  176.5230  148.2940 F   0  0  0  0  0  0  0  0  0  0  0  0
  189.8880  177.9020  148.3170 F   0  0  0  0  0  0  0  0  0  0  0  0
  187.7940  178.7500  148.3130 F   0  0  0  0  0  0  0  0  0  0  0  0
  188.6020  177.7310  147.8390 C   0  0  0  0  0  0  0  0  0  0  0  0
  189.3170  178.2860  137.7680 O   0  0  0  0  0  0  0  0  0  0  0  0
  188.8740  179.4790  137.3420 O   0  0  0  0  0  0  0  0  0  0  0  0
  187.6460  179.2310  136.8250 N   0  0  0  0  0  1  0  0  0  0  0  0
  1 15  1  0  0  0  0
  2  6  2  0  0  0  0
  3  5  1  0  0  0  0
  4  3  2  0  0  0  0
  4  2  1  0  0  0  0
  5  1  2  0  0  0  0
  6  1  1  0  0  0  0
  7  3  1  0  0  0  0
  9 10  1  0  0  0  0
 10  7  1  0  0  0  0
 10  8  1  1  0  0  0
 11  7  2  0  0  0  0
 12  9  2  0  0  0  0
 12 11  1  0  0  0  0
 13  9  1  0  0  0  0
 14 13  1  0  0  0  0
 15 16  1  0  0  0  0
 16 18  1  0  0  0  0
 17 16  2  0  0  0  0
 18 19  1  0  0  0  0
 19 23  1  0  0  0  0
 23 20  1  0  0  0  0
 23 22  1  0  0  0  0
 23 21  1  0  0  0  0
 24  4  1  0  0  0  0
 25 24  1  0  0  0  0
 26 25  1  0  0  0  0
M  END
>  <MODEL>
3

>  <REMARK>
 VINA RESULT:      -7.8      4.636      7.239
  Name = 
  8 active torsions:
  status: ('A' for Active; 'I' for Inactive)
    1  A    between atoms: C_1  and  C_7
    2  A    between atoms: C_2  and  C_15
    3  A    between atoms: C_5  and  N_10
    4  A    between atoms: O_8  and  C_16
    5  A    between atoms: O_8  and  O_22
    6  A    between atoms: C_9  and  C_11
    7  A    between atoms: C_9  and  C_25
    8  A    between atoms: C_11  and  C_13
                            x       y       z     vdW  Elec       q    Type
                         _______ _______ _______ _____ _____    ______ ____

>  <TORSDO>
F 8

$$$$
=
 OpenBabel11062417003D

 26 27  0  0  1  0  0  0  0  0999 V2000
  187.7140  177.6480  143.4710 C   0  0  0  0  0  0  0  0  0  0  0  0
  187.9100  178.3020  141.1490 C   0  0  0  0  0  3  0  0  0  0  0  0
  185.7240  178.3210  142.2180 C   0  0  0  0  0  0  0  0  0  0  0  0
  186.5300  178.5420  141.0780 C   0  0  0  0  0  0  0  0  0  0  0  0
  186.3350  177.8810  143.4040 C   0  0  0  0  0  3  0  0  0  0  0  0
  188.4950  177.8580  142.3340 C   0  0  0  0  0  3  0  0  0  0  0  0
  184.2570  178.5450  142.2080 C   0  0  0  0  0  0  0  0  0  0  0  0
  183.7240  180.0380  144.0230 N   0  0  0  0  0  1  0  0  0  0  0  0
  182.0560  178.8930  142.7130 C   0  0  0  0  0  0  0  0  0  0  0  0
  183.3800  178.7710  143.3990 C   0  0  1  0  0  3  0  0  0  0  0  0
  183.5150  178.5810  141.1070 C   0  0  0  0  0  3  0  0  0  0  0  0
  182.1480  178.7950  141.4300 N   0  0  0  0  0  0  0  0  0  0  0  0
  180.7360  179.0940  143.3880 C   0  0  0  0  0  2  0  0  0  0  0  0
  180.1240  180.3480  142.9840 N   0  0  0  0  0  1  0  0  0  0  0  0
  188.3510  177.1920  144.6720 N   0  0  0  0  0  2  0  0  0  0  0  0
  189.5270  177.7410  145.2790 C   0  0  0  0  0  0  0  0  0  0  0  0
  190.1430  178.7080  144.7550 O   0  0  0  0  0  0  0  0  0  0  0  0
  190.0240  177.1590  146.5580 C   0  0  0  0  0  2  0  0  0  0  0  0
  188.8670  176.7490  147.4640 C   0  0  0  0  0  2  0  0  0  0  0  0
  189.2410  178.8730  148.4350 F   0  0  0  0  0  0  0  0  0  0  0  0
  187.2510  178.5100  147.4550 F   0  0  0  0  0  0  0  0  0  0  0  0
  187.7430  177.5170  149.4250 F   0  0  0  0  0  0  0  0  0  0  0  0
  188.2560  177.9320  148.2080 C   0  0  0  0  0  0  0  0  0  0  0  0
  185.9670  179.0060  139.8840 O   0  0  0  0  0  0  0  0  0  0  0  0
  186.4620  178.6630  138.6850 O   0  0  0  0  0  0  0  0  0  0  0  0
  185.4640  177.9730  138.0800 N   0  0  0  0  0  1  0  0  0  0  0  0
  1 15  1  0  0  0  0
  2  6  1  0  0  0  0
  3  5  2  0  0  0  0
  4  2  2  0  0  0  0
  4  3  1  0  0  0  0
  5  1  1  0  0  0  0
  6  1  2  0  0  0  0
  7  3  1  0  0  0  0
  7 10  1  0  0  0  0
  9 13  1  0  0  0  0
  9 10  1  0  0  0  0
 10  8  1  6  0  0  0
 11 12  1  0  0  0  0
 11  7  2  0  0  0  0
 12  9  2  0  0  0  0
 14 13  1  0  0  0  0
 15 16  1  0  0  0  0
 16 18  1  0  0  0  0
 17 16  2  0  0  0  0
 18 19  1  0  0  0  0
 19 23  1  0  0  0  0
 21 23  1  0  0  0  0
 23 20  1  0  0  0  0
 23 22  1  0  0  0  0
 24  4  1  0  0  0  0
 25 24  1  0  0  0  0
 26 25  1  0  0  0  0
M  END
>  <MODEL>
4

>  <REMARK>
 VINA RESULT:      -7.7      4.170      7.836
  Name = 
  8 active torsions:
  status: ('A' for Active; 'I' for Inactive)
    1  A    between atoms: C_1  and  C_7
    2  A    between atoms: C_2  and  C_15
    3  A    between atoms: C_5  and  N_10
    4  A    between atoms: O_8  and  C_16
    5  A    between atoms: O_8  and  O_22
    6  A    between atoms: C_9  and  C_11
    7  A    between atoms: C_9  and  C_25
    8  A    between atoms: C_11  and  C_13
                            x       y       z     vdW  Elec       q    Type
                         _______ _______ _______ _____ _____    ______ ____

>  <TORSDO>
F 8

$$$$
=
 OpenBabel11062417003D

 26 27  0  0  1  0  0  0  0  0999 V2000
  187.4180  177.5920  143.9990 C   0  0  0  0  0  0  0  0  0  0  0  0
  187.5780  178.5260  141.7720 C   0  0  0  0  0  3  0  0  0  0  0  0
  185.4090  178.4110  142.8690 C   0  0  0  0  0  0  0  0  0  0  0  0
  186.1970  178.7700  141.7530 C   0  0  0  0  0  0  0  0  0  0  0  0
  186.0380  177.8300  143.9830 C   0  0  0  0  0  3  0  0  0  0  0  0
  188.1810  177.9400  142.8840 C   0  0  0  0  0  3  0  0  0  0  0  0
  183.9420  178.6320  142.9100 C   0  0  0  0  0  0  0  0  0  0  0  0
  182.9590  177.4150  141.0770 N   0  0  0  0  0  1  0  0  0  0  0  0
  181.7290  178.9660  142.4520 C   0  0  0  0  0  0  0  0  0  0  0  0
  183.0180  178.7090  141.7360 C   0  0  1  0  0  3  0  0  0  0  0  0
  183.2410  178.7870  144.0280 C   0  0  0  0  0  3  0  0  0  0  0  0
  181.8680  178.9980  143.7340 N   0  0  0  0  0  0  0  0  0  0  0  0
  180.3970  179.1860  141.8050 C   0  0  0  0  0  2  0  0  0  0  0  0
  179.4360  178.1810  142.2280 N   0  0  0  0  0  1  0  0  0  0  0  0
  188.0730  176.9930  145.1250 N   0  0  0  0  0  2  0  0  0  0  0  0
  189.2960  177.4270  145.7340 C   0  0  0  0  0  0  0  0  0  0  0  0
  189.9410  178.4100  145.2800 O   0  0  0  0  0  0  0  0  0  0  0  0
  189.8080  176.7020  146.9310 C   0  0  0  0  0  2  0  0  0  0  0  0
  191.3070  176.9270  147.1130 C   0  0  0  0  0  2  0  0  0  0  0  0
  191.2710  174.7040  147.9200 F   0  0  0  0  0  0  0  0  0  0  0  0
  192.4430  175.1160  146.0460 F   0  0  0  0  0  0  0  0  0  0  0  0
  193.2130  175.8340  148.0450 F   0  0  0  0  0  0  0  0  0  0  0  0
  192.0790  175.6230  147.2800 C   0  0  0  0  0  0  0  0  0  0  0  0
  185.6160  179.3760  140.6330 O   0  0  0  0  0  0  0  0  0  0  0  0
  185.7080  178.8400  139.4070 O   0  0  0  0  0  0  0  0  0  0  0  0
  184.7310  179.4450  138.6870 N   0  0  0  0  0  1  0  0  0  0  0  0
  1 15  1  0  0  0  0
  2  6  1  0  0  0  0
  3  7  1  0  0  0  0
  3  5  2  0  0  0  0
  4  2  2  0  0  0  0
  4  3  1  0  0  0  0
  5  1  1  0  0  0  0
  6  1  2  0  0  0  0
  7 11  2  0  0  0  0
  9 12  2  0  0  0  0
 10  8  1  1  0  0  0
 10  9  1  0  0  0  0
 10  7  1  0  0  0  0
 12 11  1  0  0  0  0
 13 14  1  0  0  0  0
 13  9  1  0  0  0  0
 15 16  1  0  0  0  0
 16 18  1  0  0  0  0
 17 16  2  0  0  0  0
 18 19  1  0  0  0  0
 19 23  1  0  0  0  0
 21 23  1  0  0  0  0
 23 20  1  0  0  0  0
 23 22  1  0  0  0  0
 24  4  1  0  0  0  0
 25 24  1  0  0  0  0
 26 25  1  0  0  0  0
M  END
>  <MODEL>
5

>  <REMARK>
 VINA RESULT:      -7.7      5.264      8.735
  Name = 
  8 active torsions:
  status: ('A' for Active; 'I' for Inactive)
    1  A    between atoms: C_1  and  C_7
    2  A    between atoms: C_2  and  C_15
    3  A    between atoms: C_5  and  N_10
    4  A    between atoms: O_8  and  C_16
    5  A    between atoms: O_8  and  O_22
    6  A    between atoms: C_9  and  C_11
    7  A    between atoms: C_9  and  C_25
    8  A    between atoms: C_11  and  C_13
                            x       y       z     vdW  Elec       q    Type
                         _______ _______ _______ _____ _____    ______ ____

>  <TORSDO>
F 8

$$$$
=
 OpenBabel11062417003D

 26 27  0  0  1  0  0  0  0  0999 V2000
  190.0540  177.7140  142.2950 C   0  0  0  0  0  0  0  0  0  0  0  0
  192.1130  177.3120  141.0890 C   0  0  0  0  0  3  0  0  0  0  0  0
  189.9990  177.3030  139.8840 C   0  0  0  0  0  0  0  0  0  0  0  0
  191.4070  177.1780  139.8850 C   0  0  0  0  0  0  0  0  0  0  0  0
  189.3430  177.5770  141.0960 C   0  0  0  0  0  3  0  0  0  0  0  0
  191.4420  177.5750  142.2830 C   0  0  0  0  0  3  0  0  0  0  0  0
  189.1900  177.1630  138.6480 C   0  0  0  0  0  0  0  0  0  0  0  0
  189.0150  179.3390  137.6270 N   0  0  0  0  0  1  0  0  0  0  0  0
  187.7650  177.4190  136.8810 C   0  0  0  0  0  0  0  0  0  0  0  0
  188.2580  178.1810  138.0710 C   0  0  1  0  0  3  0  0  0  0  0  0
  189.1970  176.0870  137.8690 C   0  0  0  0  0  3  0  0  0  0  0  0
  188.3060  176.2530  136.7760 N   0  0  0  0  0  0  0  0  0  0  0  0
  186.7460  177.8990  135.8950 C   0  0  0  0  0  2  0  0  0  0  0  0
  185.7170  176.8960  135.6720 N   0  0  0  0  0  1  0  0  0  0  0  0
  189.3980  177.9860  143.5400 N   0  0  0  0  0  2  0  0  0  0  0  0
  188.3880  177.1850  144.1690 C   0  0  0  0  0  0  0  0  0  0  0  0
  187.9560  176.1330  143.6260 O   0  0  0  0  0  0  0  0  0  0  0  0
  187.8470  177.6050  145.4920 C   0  0  0  0  0  2  0  0  0  0  0  0
  186.3210  177.5800  145.4970 C   0  0  0  0  0  2  0  0  0  0  0  0
  184.5140  178.1680  146.9060 F   0  0  0  0  0  0  0  0  0  0  0  0
  186.5660  178.8780  147.4880 F   0  0  0  0  0  0  0  0  0  0  0  0
  185.5020  179.8100  145.7260 F   0  0  0  0  0  0  0  0  0  0  0  0
  185.7210  178.6330  146.4220 C   0  0  0  0  0  0  0  0  0  0  0  0
  192.1030  176.9330  138.6960 O   0  0  0  0  0  0  0  0  0  0  0  0
  193.4410  177.0080  138.6280 O   0  0  0  0  0  0  0  0  0  0  0  0
  193.8290  175.8270  138.0880 N   0  0  0  0  0  1  0  0  0  0  0  0
  1 15  1  0  0  0  0
  2  6  2  0  0  0  0
  3  4  2  0  0  0  0
  3  5  1  0  0  0  0
  4  2  1  0  0  0  0
  5  1  2  0  0  0  0
  6  1  1  0  0  0  0
  7  3  1  0  0  0  0
  9 10  1  0  0  0  0
 10  8  1  6  0  0  0
 10  7  1  0  0  0  0
 11  7  2  0  0  0  0
 12  9  2  0  0  0  0
 12 11  1  0  0  0  0
 13  9  1  0  0  0  0
 14 13  1  0  0  0  0
 15 16  1  0  0  0  0
 16 18  1  0  0  0  0
 17 16  2  0  0  0  0
 18 19  1  0  0  0  0
 19 23  1  0  0  0  0
 22 23  1  0  0  0  0
 23 20  1  0  0  0  0
 23 21  1  0  0  0  0
 24  4  1  0  0  0  0
 25 24  1  0  0  0  0
 26 25  1  0  0  0  0
M  END
>  <MODEL>
6

>  <REMARK>
 VINA RESULT:      -7.5      4.304      6.235
  Name = 
  8 active torsions:
  status: ('A' for Active; 'I' for Inactive)
    1  A    between atoms: C_1  and  C_7
    2  A    between atoms: C_2  and  C_15
    3  A    between atoms: C_5  and  N_10
    4  A    between atoms: O_8  and  C_16
    5  A    between atoms: O_8  and  O_22
    6  A    between atoms: C_9  and  C_11
    7  A    between atoms: C_9  and  C_25
    8  A    between atoms: C_11  and  C_13
                            x       y       z     vdW  Elec       q    Type
                         _______ _______ _______ _____ _____    ______ ____

>  <TORSDO>
F 8

$$$$
=
 OpenBabel11062417003D

 26 27  0  0  1  0  0  0  0  0999 V2000
  187.7060  177.6860  143.0510 C   0  0  0  0  0  0  0  0  0  0  0  0
  185.7480  178.6370  141.9920 C   0  0  0  0  0  3  0  0  0  0  0  0
  187.6790  178.0510  140.6320 C   0  0  0  0  0  0  0  0  0  0  0  0
  186.3660  178.5610  140.7350 C   0  0  0  0  0  0  0  0  0  0  0  0
  188.3280  177.6140  141.7980 C   0  0  0  0  0  3  0  0  0  0  0  0
  186.4130  178.2050  143.1380 C   0  0  0  0  0  3  0  0  0  0  0  0
  188.3950  177.9540  139.3350 C   0  0  0  0  0  0  0  0  0  0  0  0
  187.1220  176.5000  137.8960 N   0  0  0  0  0  1  0  0  0  0  0  0
  189.3250  177.3100  137.3510 C   0  0  0  0  0  0  0  0  0  0  0  0
  188.4470  176.7630  138.4320 C   0  0  1  0  0  3  0  0  0  0  0  0
  189.0940  178.9450  138.7920 C   0  0  0  0  0  3  0  0  0  0  0  0
  189.6710  178.5350  137.5610 N   0  0  0  0  0  0  0  0  0  0  0  0
  189.7950  176.5620  136.1430 C   0  0  0  0  0  2  0  0  0  0  0  0
  189.1080  177.0140  134.9440 N   0  0  0  0  0  1  0  0  0  0  0  0
  188.3580  177.2510  144.2510 N   0  0  0  0  0  2  0  0  0  0  0  0
  189.4950  177.8600  144.8760 C   0  0  0  0  0  0  0  0  0  0  0  0
  190.0570  178.8690  144.3720 O   0  0  0  0  0  0  0  0  0  0  0  0
  190.0150  177.2900  146.1510 C   0  0  0  0  0  2  0  0  0  0  0  0
  188.8780  176.7870  147.0350 C   0  0  0  0  0  2  0  0  0  0  0  0
  187.7970  177.3120  149.0730 F   0  0  0  0  0  0  0  0  0  0  0  0
  189.2660  178.8050  148.2550 F   0  0  0  0  0  0  0  0  0  0  0  0
  187.2580  178.5260  147.2560 F   0  0  0  0  0  0  0  0  0  0  0  0
  188.2910  177.8840  147.9170 C   0  0  0  0  0  0  0  0  0  0  0  0
  185.6720  178.9830  139.5950 O   0  0  0  0  0  0  0  0  0  0  0  0
  184.3440  179.1790  139.6030 O   0  0  0  0  0  0  0  0  0  0  0  0
  184.1680  180.3910  139.0230 N   0  0  0  0  0  1  0  0  0  0  0  0
  1  6  1  0  0  0  0
  1 15  1  0  0  0  0
  2  6  2  0  0  0  0
  3  4  2  0  0  0  0
  3  5  1  0  0  0  0
  4  2  1  0  0  0  0
  5  1  2  0  0  0  0
  7  3  1  0  0  0  0
  9 12  2  0  0  0  0
  9 10  1  0  0  0  0
 10  8  1  6  0  0  0
 10  7  1  0  0  0  0
 11  7  2  0  0  0  0
 12 11  1  0  0  0  0
 13  9  1  0  0  0  0
 14 13  1  0  0  0  0
 15 16  1  0  0  0  0
 16 18  1  0  0  0  0
 17 16  2  0  0  0  0
 18 19  1  0  0  0  0
 19 23  1  0  0  0  0
 22 23  1  0  0  0  0
 23 21  1  0  0  0  0
 23 20  1  0  0  0  0
 24 25  1  0  0  0  0
 24  4  1  0  0  0  0
 26 25  1  0  0  0  0
M  END
>  <MODEL>
7

>  <REMARK>
 VINA RESULT:      -7.4      4.486      6.937
  Name = 
  8 active torsions:
  status: ('A' for Active; 'I' for Inactive)
    1  A    between atoms: C_1  and  C_7
    2  A    between atoms: C_2  and  C_15
    3  A    between atoms: C_5  and  N_10
    4  A    between atoms: O_8  and  C_16
    5  A    between atoms: O_8  and  O_22
    6  A    between atoms: C_9  and  C_11
    7  A    between atoms: C_9  and  C_25
    8  A    between atoms: C_11  and  C_13
                            x       y       z     vdW  Elec       q    Type
                         _______ _______ _______ _____ _____    ______ ____

>  <TORSDO>
F 8

$$$$
=
 OpenBabel11062417003D

 26 27  0  0  1  0  0  0  0  0999 V2000
  187.9650  177.8760  142.3140 C   0  0  0  0  0  0  0  0  0  0  0  0
  186.0960  177.8890  143.8510 C   0  0  0  0  0  3  0  0  0  0  0  0
  188.3440  177.5180  144.7040 C   0  0  0  0  0  0  0  0  0  0  0  0
  186.9570  177.6560  144.9330 C   0  0  0  0  0  0  0  0  0  0  0  0
  188.8290  177.6380  143.3910 C   0  0  0  0  0  3  0  0  0  0  0  0
  186.5960  177.9960  142.5540 C   0  0  0  0  0  3  0  0  0  0  0  0
  189.3090  177.2600  145.8030 C   0  0  0  0  0  0  0  0  0  0  0  0
  191.5250  177.2560  144.8560 N   0  0  0  0  0  1  0  0  0  0  0  0
  191.0490  176.5950  147.1240 C   0  0  0  0  0  0  0  0  0  0  0  0
  190.6010  176.5140  145.6990 C   0  0  1  0  0  3  0  0  0  0  0  0
  189.1450  177.6770  147.0530 C   0  0  0  0  0  3  0  0  0  0  0  0
  190.2290  177.2560  147.8680 N   0  0  0  0  0  0  0  0  0  0  0  0
  192.2940  175.9820  147.6860 C   0  0  0  0  0  2  0  0  0  0  0  0
  192.8050  176.7600  148.8020 N   0  0  0  0  0  1  0  0  0  0  0  0
  188.4440  177.9920  140.9680 N   0  0  0  0  0  2  0  0  0  0  0  0
  189.5050  177.2380  140.3690 C   0  0  0  0  0  0  0  0  0  0  0  0
  190.1560  176.3850  141.0290 O   0  0  0  0  0  0  0  0  0  0  0  0
  189.8390  177.4670  138.9340 C   0  0  0  0  0  2  0  0  0  0  0  0
  189.0430  178.6360  138.3620 C   0  0  0  0  0  2  0  0  0  0  0  0
  186.9170  177.6580  138.0200 F   0  0  0  0  0  0  0  0  0  0  0  0
  187.5670  179.2680  136.5920 F   0  0  0  0  0  0  0  0  0  0  0  0
  188.5260  177.2240  136.5090 F   0  0  0  0  0  0  0  0  0  0  0  0
  187.9970  178.1910  137.3450 C   0  0  0  0  0  0  0  0  0  0  0  0
  186.4350  177.5710  146.2290 O   0  0  0  0  0  0  0  0  0  0  0  0
  185.2930  178.1850  146.5770 O   0  0  0  0  0  0  0  0  0  0  0  0
  185.6820  179.3610  147.1260 N   0  0  0  0  0  1  0  0  0  0  0  0
  1  6  2  0  0  0  0
  1  5  1  0  0  0  0
  2  4  2  0  0  0  0
  3  4  1  0  0  0  0
  3  7  1  0  0  0  0
  4 24  1  0  0  0  0
  5  3  2  0  0  0  0
  6  2  1  0  0  0  0
  7 11  2  0  0  0  0
  9 13  1  0  0  0  0
  9 12  2  0  0  0  0
 10  8  1  6  0  0  0
 10  7  1  0  0  0  0
 10  9  1  0  0  0  0
 11 12  1  0  0  0  0
 13 14  1  0  0  0  0
 15  1  1  0  0  0  0
 16 15  1  0  0  0  0
 16 17  2  0  0  0  0
 18 16  1  0  0  0  0
 19 18  1  0  0  0  0
 21 23  1  0  0  0  0
 22 23  1  0  0  0  0
 23 20  1  0  0  0  0
 23 19  1  0  0  0  0
 24 25  1  0  0  0  0
 25 26  1  0  0  0  0
M  END
>  <MODEL>
8

>  <REMARK>
 VINA RESULT:      -7.4      3.944      6.332
  Name = 
  8 active torsions:
  status: ('A' for Active; 'I' for Inactive)
    1  A    between atoms: C_1  and  C_7
    2  A    between atoms: C_2  and  C_15
    3  A    between atoms: C_5  and  N_10
    4  A    between atoms: O_8  and  C_16
    5  A    between atoms: O_8  and  O_22
    6  A    between atoms: C_9  and  C_11
    7  A    between atoms: C_9  and  C_25
    8  A    between atoms: C_11  and  C_13
                            x       y       z     vdW  Elec       q    Type
                         _______ _______ _______ _____ _____    ______ ____

>  <TORSDO>
F 8

$$$$
=
 OpenBabel11062417003D

 26 27  0  0  1  0  0  0  0  0999 V2000
  190.7040  176.9050  139.0090 C   0  0  0  0  0  0  0  0  0  0  0  0
  188.5620  177.9820  138.6790 C   0  0  0  0  0  3  0  0  0  0  0  0
  189.4070  177.6650  140.9390 C   0  0  0  0  0  0  0  0  0  0  0  0
  188.4050  178.1420  140.0640 C   0  0  0  0  0  0  0  0  0  0  0  0
  190.5490  177.0570  140.3930 C   0  0  0  0  0  3  0  0  0  0  0  0
  189.6990  177.3680  138.1580 C   0  0  0  0  0  3  0  0  0  0  0  0
  189.2990  177.7920  142.4140 C   0  0  0  0  0  0  0  0  0  0  0  0
  188.1910  175.8210  143.2470 N   0  0  0  0  0  1  0  0  0  0  0  0
  188.6730  177.7490  144.6100 C   0  0  0  0  0  0  0  0  0  0  0  0
  188.1920  177.2740  143.2760 C   0  0  1  0  0  3  0  0  0  0  0  0
  190.2030  178.3930  143.1800 C   0  0  0  0  0  3  0  0  0  0  0  0
  189.8050  178.3650  144.5430 N   0  0  0  0  0  0  0  0  0  0  0  0
  187.9580  177.5710  145.9130 C   0  0  0  0  0  2  0  0  0  0  0  0
  188.8560  177.0750  146.9420 N   0  0  0  0  0  1  0  0  0  0  0  0
  191.8600  176.2790  138.4370 N   0  0  0  0  0  2  0  0  0  0  0  0
  191.9250  174.9710  137.8540 C   0  0  0  0  0  0  0  0  0  0  0  0
  190.9160  174.2170  137.8230 O   0  0  0  0  0  0  0  0  0  0  0  0
  193.2110  174.5010  137.2670 C   0  0  0  0  0  2  0  0  0  0  0  0
  194.4060  175.1220  137.9860 C   0  0  0  0  0  2  0  0  0  0  0  0
  194.7410  172.8530  138.5650 F   0  0  0  0  0  0  0  0  0  0  0  0
  196.4760  173.9700  137.6730 F   0  0  0  0  0  0  0  0  0  0  0  0
  195.8060  174.4160  139.7850 F   0  0  0  0  0  0  0  0  0  0  0  0
  195.3820  174.0750  138.5120 C   0  0  0  0  0  0  0  0  0  0  0  0
  187.2640  178.7790  140.5640 O   0  0  0  0  0  0  0  0  0  0  0  0
  186.1260  178.8560  139.8570 O   0  0  0  0  0  0  0  0  0  0  0  0
  185.2330  179.4370  140.6950 N   0  0  0  0  0  1  0  0  0  0  0  0
  1  5  1  0  0  0  0
  2  4  2  0  0  0  0
  3  7  1  0  0  0  0
  4 24  1  0  0  0  0
  4  3  1  0  0  0  0
  5  3  2  0  0  0  0
  6  2  1  0  0  0  0
  6  1  2  0  0  0  0
  7 11  2  0  0  0  0
  7 10  1  0  0  0  0
  9 13  1  0  0  0  0
 10  8  1  1  0  0  0
 10  9  1  0  0  0  0
 11 12  1  0  0  0  0
 12  9  2  0  0  0  0
 13 14  1  0  0  0  0
 15  1  1  0  0  0  0
 16 15  1  0  0  0  0
 17 16  2  0  0  0  0
 18 16  1  0  0  0  0
 18 19  1  0  0  0  0
 19 23  1  0  0  0  0
 21 23  1  0  0  0  0
 23 20  1  0  0  0  0
 23 22  1  0  0  0  0
 25 24  1  0  0  0  0
 25 26  1  0  0  0  0
M  END
>  <MODEL>
9

>  <REMARK>
 VINA RESULT:      -7.3      6.569      9.776
  Name = 
  8 active torsions:
  status: ('A' for Active; 'I' for Inactive)
    1  A    between atoms: C_1  and  C_7
    2  A    between atoms: C_2  and  C_15
    3  A    between atoms: C_5  and  N_10
    4  A    between atoms: O_8  and  C_16
    5  A    between atoms: O_8  and  O_22
    6  A    between atoms: C_9  and  C_11
    7  A    between atoms: C_9  and  C_25
    8  A    between atoms: C_11  and  C_13
                            x       y       z     vdW  Elec       q    Type
                         _______ _______ _______ _____ _____    ______ ____

>  <TORSDO>
F 8

$$$$
