=
 OpenBabel11062416263D

 46 50  0  0  1  0  0  0  0  0999 V2000
  185.4370  179.4720  145.7430 O   0  0  0  0  0  0  0  0  0  0  0  0
  183.5410  180.0660  144.6470 F   0  0  0  0  0  0  0  0  0  0  0  0
  184.3810  179.0020  144.9190 C   0  0  0  0  0  0  0  0  0  0  0  0
  186.3950  178.1250  143.6830 C   0  0  0  0  0  0  0  0  0  0  0  0
  183.6330  178.0340  145.5790 F   0  0  0  0  0  0  0  0  0  0  0  0
  186.2100  178.3760  146.1700 C   0  0  0  0  0  2  0  0  0  0  0  0
  184.9170  178.4070  143.5900 C   0  0  2  0  0  3  0  0  0  0  0  0
  187.1170  178.2890  142.7070 O   0  0  0  0  0  0  0  0  0  0  0  0
  186.9710  177.7000  145.0150 C   0  0  2  0  0  3  0  0  0  0  0  0
  184.6150  179.2370  142.5000 O   0  0  0  0  0  0  0  0  0  0  0  0
  183.5480  178.6100  141.8500 C   0  0  0  0  0  2  0  0  0  0  0  0
  182.5410  178.3720  138.1660 C   0  0  0  0  0  2  0  0  0  0  0  0
  184.8990  178.2430  139.7880 C   0  0  0  0  0  2  0  0  0  0  0  0
  183.8710  177.7990  137.7050 C   0  0  0  0  0  2  0  0  0  0  0  0
  183.6250  178.8520  140.3590 C   0  0  1  0  0  3  0  0  0  0  0  0
  182.4180  178.2210  139.6800 C   0  0  0  0  0  2  0  0  0  0  0  0
  184.9850  178.5000  138.3450 N   0  0  2  0  0  0  0  0  0  0  0  0
  187.2190  178.8140  137.6350 O   0  0  0  0  0  0  0  0  0  0  0  0
  186.0770  177.5660  136.3720 C   0  0  1  0  0  3  0  0  0  0  0  0
  186.2000  177.8680  137.8530 C   0  0  2  0  0  3  0  0  0  0  0  0
  187.1950  178.5620  136.2470 C   0  0  0  0  0  2  0  0  0  0  0  0
  185.4130  174.2670  136.3890 C   0  0  0  0  0  0  0  0  0  0  0  0
  186.1880  175.1350  136.9560 N   0  0  0  0  0  0  0  0  0  0  0  0
  185.1530  174.5130  135.0200 N   0  0  0  0  0  0  0  0  0  0  0  0
  186.5520  176.1580  135.9710 C   0  0  1  0  0  3  0  0  0  0  0  0
  185.8300  175.7490  134.6770 C   0  0  0  0  0  3  0  0  0  0  0  0
  185.6310  172.7540  138.1960 O   0  0  0  0  0  1  0  0  0  0  0  0
  184.8210  173.1080  137.1150 C   0  0  0  0  0  2  0  0  0  0  0  0
  188.5110  177.8190  145.1040 C   0  0  2  0  0  3  0  0  0  0  0  0
  189.1870  176.8480  144.1170 C   0  0  0  0  0  2  0  0  0  0  0  0
  190.1770  177.5390  143.2310 C   0  0  0  0  0  0  0  0  0  0  0  0
  190.4860  178.6960  143.4500 O   0  0  0  0  0  0  0  0  0  0  0  0
  192.0720  177.5070  141.6660 C   0  0  0  0  0  2  0  0  0  0  0  0
  190.6090  177.1840  139.8800 C   0  0  2  0  0  3  0  0  0  0  0  0
  192.0850  177.2810  140.2100 C   0  0  0  0  0  2  0  0  0  0  0  0
  189.9100  176.7300  141.0070 O   0  0  0  0  0  0  0  0  0  0  0  0
  190.8040  176.8040  142.0960 C   0  0  2  0  0  3  0  0  0  0  0  0
  190.3270  176.3050  138.6930 C   0  0  0  0  0  0  0  0  0  0  0  0
  189.1970  176.1890  138.2480 O   0  0  0  0  0  0  0  0  0  0  0  0
  191.1560  176.0400  136.2190 C   0  0  0  0  0  1  0  0  0  0  0  0
  191.6910  175.4920  137.8760 S   0  0  0  0  0  0  0  0  0  0  0  0
  189.0670  177.6190  146.5160 C   0  0  0  0  0  2  0  0  0  0  0  0
  191.4120  177.5150  148.1480 O   0  0  0  0  0  0  0  0  0  0  0  0
  190.0520  176.5420  146.5110 N   0  0  0  0  0  2  0  0  0  0  0  0
  191.2500  176.6040  147.2840 C   0  0  0  0  0  0  0  0  0  0  0  0
  192.3090  175.5640  147.1020 C   0  0  0  0  0  1  0  0  0  0  0  0
  1  6  1  0  0  0  0
  2  3  1  0  0  0  0
  3  5  1  0  0  0  0
  3  1  1  0  0  0  0
  4  9  1  0  0  0  0
  7 10  1  6  0  0  0
  7  4  1  0  0  0  0
  7  3  1  0  0  0  0
  8  4  2  0  0  0  0
  9 29  1  6  0  0  0
  9  6  1  0  0  0  0
 11 10  1  0  0  0  0
 12 16  1  0  0  0  0
 13 15  1  0  0  0  0
 14 12  1  0  0  0  0
 15 11  1  1  0  0  0
 16 15  1  0  0  0  0
 17 14  1  6  0  0  0
 17 13  1  0  0  0  0
 19 21  1  6  0  0  0
 19 20  1  0  0  0  0
 20 18  1  6  0  0  0
 20 17  1  0  0  0  0
 21 18  1  0  0  0  0
 22 23  2  0  0  0  0
 22 28  1  0  0  0  0
 24 22  1  0  0  0  0
 25 26  1  6  0  0  0
 25 19  1  0  0  0  0
 25 23  1  0  0  0  0
 26 24  2  0  0  0  0
 28 27  1  0  0  0  0
 29 30  1  6  0  0  0
 29 42  1  0  0  0  0
 31 32  2  0  0  0  0
 31 30  1  0  0  0  0
 33 37  1  0  0  0  0
 34 38  1  6  0  0  0
 34 35  1  0  0  0  0
 34 36  1  0  0  0  0
 35 33  1  0  0  0  0
 36 37  1  0  0  0  0
 37 31  1  1  0  0  0
 39 38  2  0  0  0  0
 40 41  1  0  0  0  0
 41 38  1  0  0  0  0
 44 42  1  0  0  0  0
 44 45  1  0  0  0  0
 45 43  2  0  0  0  0
 46 45  1  0  0  0  0
M  END
>  <MODEL>
1

>  <REMARK>
 VINA RESULT:      -8.3      0.000      0.000
  Name = 
  14 active torsions:
  status: ('A' for Active; 'I' for Inactive)
    1  A    between atoms: C_2  and  C_7
    2  A    between atoms: C_2  and  C_31
    3  A    between atoms: C_7  and  C_42
    4  A    between atoms: C_8  and  C_9
    5  A    between atoms: C_9  and  S_16
    6  A    between atoms: C_12  and  C_28
    7  A    between atoms: N_24  and  C_39
    8  A    between atoms: C_27  and  C_33
    9  A    between atoms: O_29  and  C_30
   10  A    between atoms: O_29  and  C_35
   11  A    between atoms: C_30  and  C_36
   12  A    between atoms: C_34  and  N_44
   13  A    between atoms: C_39  and  C_42
   14  A    between atoms: C_42  and  C_43
                            x       y       z     vdW  Elec       q    Type
                         _______ _______ _______ _____ _____    ______ ____

>  <TORSDO>
F 14

$$$$
=
 OpenBabel11062416263D

 46 50  0  0  1  0  0  0  0  0999 V2000
  187.1370  178.6050  145.8230 O   0  0  0  0  0  0  0  0  0  0  0  0
  184.9350  179.1520  145.7880 F   0  0  0  0  0  0  0  0  0  0  0  0
  185.8500  178.1940  145.3890 C   0  0  0  0  0  0  0  0  0  0  0  0
  187.1810  177.9600  143.2630 C   0  0  0  0  0  0  0  0  0  0  0  0
  185.4870  176.9930  145.9870 F   0  0  0  0  0  0  0  0  0  0  0  0
  188.0570  177.5690  145.5780 C   0  0  0  0  0  2  0  0  0  0  0  0
  185.7930  178.0280  143.8480 C   0  0  2  0  0  3  0  0  0  0  0  0
  187.4160  178.4640  142.1710 O   0  0  0  0  0  0  0  0  0  0  0  0
  188.2820  177.3180  144.0760 C   0  0  2  0  0  3  0  0  0  0  0  0
  185.0280  179.0410  143.2530 O   0  0  0  0  0  0  0  0  0  0  0  0
  183.8210  178.4290  142.9050 C   0  0  0  0  0  2  0  0  0  0  0  0
  184.5510  179.1310  139.2150 C   0  0  0  0  0  2  0  0  0  0  0  0
  182.3160  178.5980  140.9260 C   0  0  0  0  0  2  0  0  0  0  0  0
  183.1020  179.4030  138.8450 C   0  0  0  0  0  2  0  0  0  0  0  0
  183.7240  178.2710  141.4030 C   0  0  1  0  0  3  0  0  0  0  0  0
  184.7150  179.2100  140.7300 C   0  0  0  0  0  2  0  0  0  0  0  0
  182.2160  178.4200  139.4710 N   0  0  2  0  0  0  0  0  0  0  0  0
  180.1770  177.6740  138.5340 O   0  0  0  0  0  0  0  0  0  0  0  0
  180.8800  179.4980  137.7360 C   0  0  1  0  0  3  0  0  0  0  0  0
  180.8640  178.7800  139.0710 C   0  0  2  0  0  3  0  0  0  0  0  0
  180.1150  178.2930  137.2680 C   0  0  0  0  0  2  0  0  0  0  0  0
  180.7640  182.8260  137.2490 C   0  0  0  0  0  0  0  0  0  0  0  0
  180.6820  181.9510  138.1980 N   0  0  0  0  0  0  0  0  0  0  0  0
  180.1750  182.4280  136.0260 N   0  0  0  0  0  0  0  0  0  0  0  0
  179.9990  180.7590  137.6850 C   0  0  1  0  0  3  0  0  0  0  0  0
  179.6840  181.0750  136.2140 C   0  0  0  0  0  3  0  0  0  0  0  0
  181.5110  184.8040  136.1860 O   0  0  0  0  0  1  0  0  0  0  0  0
  181.4380  184.1450  137.4150 C   0  0  0  0  0  2  0  0  0  0  0  0
  189.7100  177.6450  143.5760 C   0  0  2  0  0  3  0  0  0  0  0  0
  190.2700  176.4790  142.7400 C   0  0  0  0  0  2  0  0  0  0  0  0
  190.8560  176.9450  141.4420 C   0  0  0  0  0  0  0  0  0  0  0  0
  191.8870  177.5930  141.4370 O   0  0  0  0  0  0  0  0  0  0  0  0
  191.2170  176.5540  139.0420 C   0  0  0  0  0  2  0  0  0  0  0  0
  189.4320  177.9620  138.5310 C   0  0  2  0  0  3  0  0  0  0  0  0
  190.4500  177.0460  137.8840 C   0  0  0  0  0  2  0  0  0  0  0  0
  189.1930  177.5370  139.8450 O   0  0  0  0  0  0  0  0  0  0  0  0
  190.1930  176.5920  140.1540 C   0  0  2  0  0  3  0  0  0  0  0  0
  188.1440  178.0490  137.7600 C   0  0  0  0  0  0  0  0  0  0  0  0
  187.6710  179.1280  137.4380 O   0  0  0  0  0  0  0  0  0  0  0  0
  187.5230  176.9420  135.4650 C   0  0  0  0  0  1  0  0  0  0  0  0
  187.3460  176.5400  137.2370 S   0  0  0  0  0  0  0  0  0  0  0  0
  190.6860  178.0190  144.6940 C   0  0  0  0  0  2  0  0  0  0  0  0
  190.8940  177.1260  147.4010 O   0  0  0  0  0  0  0  0  0  0  0  0
  191.4080  176.8310  145.1370 N   0  0  0  0  0  2  0  0  0  0  0  0
  191.5500  176.4990  146.5180 C   0  0  0  0  0  0  0  0  0  0  0  0
  192.4510  175.3790  146.9260 C   0  0  0  0  0  1  0  0  0  0  0  0
  3  2  1  0  0  0  0
  3  1  1  0  0  0  0
  3  5  1  0  0  0  0
  4  7  1  0  0  0  0
  4  9  1  0  0  0  0
  6  1  1  0  0  0  0
  7 10  1  6  0  0  0
  7  3  1  0  0  0  0
  8  4  2  0  0  0  0
  9 29  1  6  0  0  0
  9  6  1  0  0  0  0
 11 10  1  0  0  0  0
 12 16  1  0  0  0  0
 13 15  1  0  0  0  0
 14 12  1  0  0  0  0
 15 11  1  1  0  0  0
 16 15  1  0  0  0  0
 17 14  1  6  0  0  0
 17 13  1  0  0  0  0
 19 21  1  6  0  0  0
 19 20  1  0  0  0  0
 20 18  1  6  0  0  0
 20 17  1  0  0  0  0
 21 18  1  0  0  0  0
 22 28  1  0  0  0  0
 22 23  2  0  0  0  0
 24 26  2  0  0  0  0
 24 22  1  0  0  0  0
 25 26  1  6  0  0  0
 25 19  1  0  0  0  0
 25 23  1  0  0  0  0
 27 28  1  0  0  0  0
 29 30  1  1  0  0  0
 29 42  1  0  0  0  0
 31 30  1  0  0  0  0
 32 31  2  0  0  0  0
 33 37  1  0  0  0  0
 34 38  1  6  0  0  0
 34 36  1  0  0  0  0
 35 34  1  0  0  0  0
 35 33  1  0  0  0  0
 36 37  1  0  0  0  0
 37 31  1  1  0  0  0
 39 38  2  0  0  0  0
 40 41  1  0  0  0  0
 41 38  1  0  0  0  0
 42 44  1  0  0  0  0
 44 45  1  0  0  0  0
 45 46  1  0  0  0  0
 45 43  2  0  0  0  0
M  END
>  <MODEL>
2

>  <REMARK>
 VINA RESULT:      -8.3      2.835      4.752
  Name = 
  14 active torsions:
  status: ('A' for Active; 'I' for Inactive)
    1  A    between atoms: C_2  and  C_7
    2  A    between atoms: C_2  and  C_31
    3  A    between atoms: C_7  and  C_42
    4  A    between atoms: C_8  and  C_9
    5  A    between atoms: C_9  and  S_16
    6  A    between atoms: C_12  and  C_28
    7  A    between atoms: N_24  and  C_39
    8  A    between atoms: C_27  and  C_33
    9  A    between atoms: O_29  and  C_30
   10  A    between atoms: O_29  and  C_35
   11  A    between atoms: C_30  and  C_36
   12  A    between atoms: C_34  and  N_44
   13  A    between atoms: C_39  and  C_42
   14  A    between atoms: C_42  and  C_43
                            x       y       z     vdW  Elec       q    Type
                         _______ _______ _______ _____ _____    ______ ____

>  <TORSDO>
F 14

$$$$
=
 OpenBabel11062416263D

 46 50  0  0  1  0  0  0  0  0999 V2000
  189.2980  176.1230  142.7540 O   0  0  0  0  0  0  0  0  0  0  0  0
  190.3630  176.0890  140.7500 F   0  0  0  0  0  0  0  0  0  0  0  0
  189.9290  176.9230  141.7650 C   0  0  0  0  0  0  0  0  0  0  0  0
  187.7540  178.1550  142.0780 C   0  0  0  0  0  0  0  0  0  0  0  0
  191.0450  177.5650  142.2870 F   0  0  0  0  0  0  0  0  0  0  0  0
  188.9990  176.9250  143.8710 C   0  0  0  0  0  2  0  0  0  0  0  0
  188.9580  177.9860  141.1870 C   0  0  2  0  0  3  0  0  0  0  0  0
  186.6520  178.3760  141.5900 O   0  0  0  0  0  0  0  0  0  0  0  0
  187.9240  177.9840  143.5710 C   0  0  2  0  0  3  0  0  0  0  0  0
  188.5900  177.6800  139.8690 O   0  0  0  0  0  0  0  0  0  0  0  0
  189.1070  178.7230  139.0960 C   0  0  0  0  0  2  0  0  0  0  0  0
  187.3930  177.7930  135.8030 C   0  0  0  0  0  2  0  0  0  0  0  0
  189.7370  177.1120  137.3020 C   0  0  0  0  0  2  0  0  0  0  0  0
  188.2310  176.5470  135.5680 C   0  0  0  0  0  2  0  0  0  0  0  0
  188.9850  178.3970  137.6230 C   0  0  1  0  0  3  0  0  0  0  0  0
  187.5170  178.2240  137.2620 C   0  0  0  0  0  2  0  0  0  0  0  0
  189.6400  176.8090  135.8680 N   0  0  2  0  0  0  0  0  0  0  0  0
  189.5390  174.4470  135.9440 O   0  0  0  0  0  0  0  0  0  0  0  0
  191.3030  175.2660  136.7670 C   0  0  1  0  0  3  0  0  0  0  0  0
  190.3450  175.5580  135.6290 C   0  0  2  0  0  3  0  0  0  0  0  0
  190.4040  174.0840  136.9970 C   0  0  0  0  0  2  0  0  0  0  0  0
  194.3870  176.2010  135.7960 C   0  0  0  0  0  0  0  0  0  0  0  0
  193.2950  175.7020  135.3140 N   0  0  0  0  0  0  0  0  0  0  0  0
  194.7180  175.7530  137.0970 N   0  0  0  0  0  0  0  0  0  0  0  0
  192.7020  174.8080  136.3140 C   0  0  1  0  0  3  0  0  0  0  0  0
  193.6500  174.8680  137.5230 C   0  0  0  0  0  3  0  0  0  0  0  0
  196.5440  177.1350  135.5200 O   0  0  0  0  0  1  0  0  0  0  0  0
  195.2270  177.1850  135.0570 C   0  0  0  0  0  2  0  0  0  0  0  0
  186.5950  177.7870  144.3390 C   0  0  2  0  0  3  0  0  0  0  0  0
  185.9830  179.1480  144.7210 C   0  0  0  0  0  2  0  0  0  0  0  0
  184.4890  179.0910  144.8140 C   0  0  0  0  0  0  0  0  0  0  0  0
  183.9570  178.6900  145.8330 O   0  0  0  0  0  0  0  0  0  0  0  0
  182.2510  178.9970  143.8030 C   0  0  0  0  0  2  0  0  0  0  0  0
  183.1920  178.4840  141.7330 C   0  0  2  0  0  3  0  0  0  0  0  0
  181.8610  178.7680  142.4000 C   0  0  0  0  0  2  0  0  0  0  0  0
  184.2150  179.1220  142.4480 O   0  0  0  0  0  0  0  0  0  0  0  0
  183.6520  179.5490  143.6690 C   0  0  2  0  0  3  0  0  0  0  0  0
  183.2250  178.8930  140.2860 C   0  0  0  0  0  0  0  0  0  0  0  0
  184.0220  179.7230  139.8810 O   0  0  0  0  0  0  0  0  0  0  0  0
  182.6880  176.4110  139.6270 C   0  0  0  0  0  1  0  0  0  0  0  0
  182.1300  178.0790  139.1340 S   0  0  0  0  0  0  0  0  0  0  0  0
  186.7210  176.8920  145.5740 C   0  0  0  0  0  2  0  0  0  0  0  0
  189.0440  176.5820  147.2120 O   0  0  0  0  0  0  0  0  0  0  0  0
  187.0450  177.7050  146.7410 N   0  0  0  0  0  2  0  0  0  0  0  0
  188.1750  177.4300  147.5700 C   0  0  0  0  0  0  0  0  0  0  0  0
  188.3570  178.1750  148.8530 C   0  0  0  0  0  1  0  0  0  0  0  0
  1  6  1  0  0  0  0
  2  3  1  0  0  0  0
  3  5  1  0  0  0  0
  3  1  1  0  0  0  0
  4  9  1  0  0  0  0
  7 10  1  6  0  0  0
  7  3  1  0  0  0  0
  7  4  1  0  0  0  0
  8  4  2  0  0  0  0
  9  6  1  0  0  0  0
  9 29  1  6  0  0  0
 11 10  1  0  0  0  0
 12 16  1  0  0  0  0
 13 15  1  0  0  0  0
 14 12  1  0  0  0  0
 15 11  1  1  0  0  0
 16 15  1  0  0  0  0
 17 14  1  1  0  0  0
 17 13  1  0  0  0  0
 18 21  1  0  0  0  0
 19 21  1  1  0  0  0
 20 17  1  0  0  0  0
 20 18  1  1  0  0  0
 20 19  1  0  0  0  0
 22 24  1  0  0  0  0
 23 22  2  0  0  0  0
 23 25  1  0  0  0  0
 24 26  2  0  0  0  0
 25 19  1  0  0  0  0
 25 26  1  1  0  0  0
 28 27  1  0  0  0  0
 28 22  1  0  0  0  0
 29 30  1  1  0  0  0
 29 42  1  0  0  0  0
 30 31  1  0  0  0  0
 31 32  2  0  0  0  0
 34 38  1  6  0  0  0
 34 35  1  0  0  0  0
 34 36  1  0  0  0  0
 35 33  1  0  0  0  0
 36 37  1  0  0  0  0
 37 33  1  0  0  0  0
 37 31  1  1  0  0  0
 39 38  2  0  0  0  0
 41 40  1  0  0  0  0
 41 38  1  0  0  0  0
 42 44  1  0  0  0  0
 43 45  2  0  0  0  0
 44 45  1  0  0  0  0
 45 46  1  0  0  0  0
M  END
>  <MODEL>
3

>  <REMARK>
 VINA RESULT:      -8.0      3.604      6.730
  Name = 
  14 active torsions:
  status: ('A' for Active; 'I' for Inactive)
    1  A    between atoms: C_2  and  C_7
    2  A    between atoms: C_2  and  C_31
    3  A    between atoms: C_7  and  C_42
    4  A    between atoms: C_8  and  C_9
    5  A    between atoms: C_9  and  S_16
    6  A    between atoms: C_12  and  C_28
    7  A    between atoms: N_24  and  C_39
    8  A    between atoms: C_27  and  C_33
    9  A    between atoms: O_29  and  C_30
   10  A    between atoms: O_29  and  C_35
   11  A    between atoms: C_30  and  C_36
   12  A    between atoms: C_34  and  N_44
   13  A    between atoms: C_39  and  C_42
   14  A    between atoms: C_42  and  C_43
                            x       y       z     vdW  Elec       q    Type
                         _______ _______ _______ _____ _____    ______ ____

>  <TORSDO>
F 14

$$$$
=
 OpenBabel11062416263D

 46 50  0  0  1  0  0  0  0  0999 V2000
  186.9420  178.6880  145.7310 O   0  0  0  0  0  0  0  0  0  0  0  0
  184.7520  179.2720  145.6210 F   0  0  0  0  0  0  0  0  0  0  0  0
  185.6660  178.3040  145.2430 C   0  0  0  0  0  0  0  0  0  0  0  0
  187.0740  178.0790  143.1650 C   0  0  0  0  0  0  0  0  0  0  0  0
  185.2620  177.1010  145.8090 F   0  0  0  0  0  0  0  0  0  0  0  0
  187.8550  177.6410  145.5060 C   0  0  0  0  0  2  0  0  0  0  0  0
  185.6660  178.1610  143.6980 C   0  0  2  0  0  3  0  0  0  0  0  0
  187.3570  178.5940  142.0900 O   0  0  0  0  0  0  0  0  0  0  0  0
  188.1320  177.4070  144.0100 C   0  0  2  0  0  3  0  0  0  0  0  0
  184.9400  179.1950  143.0890 O   0  0  0  0  0  0  0  0  0  0  0  0
  183.7580  178.5960  142.6430 C   0  0  0  0  0  2  0  0  0  0  0  0
  184.6020  178.7040  138.9130 C   0  0  0  0  0  2  0  0  0  0  0  0
  182.5850  177.6550  140.6560 C   0  0  0  0  0  2  0  0  0  0  0  0
  183.2300  178.2360  138.4560 C   0  0  0  0  0  2  0  0  0  0  0  0
  183.9300  178.0830  141.2310 C   0  0  1  0  0  3  0  0  0  0  0  0
  184.5220  179.1820  140.3600 C   0  0  0  0  0  2  0  0  0  0  0  0
  182.7560  177.1330  139.2940 N   0  0  2  0  0  0  0  0  0  0  0  0
  180.4200  177.2210  139.6490 O   0  0  0  0  0  0  0  0  0  0  0  0
  181.1380  175.3180  139.0800 C   0  0  1  0  0  3  0  0  0  0  0  0
  181.4390  176.7750  138.7870 C   0  0  2  0  0  3  0  0  0  0  0  0
  180.0500  175.8910  139.9440 C   0  0  0  0  0  2  0  0  0  0  0  0
  181.5510  172.8200  136.8630 C   0  0  0  0  0  0  0  0  0  0  0  0
  181.5580  174.1120  136.9270 N   0  0  0  0  0  0  0  0  0  0  0  0
  180.5870  172.1930  137.6890 N   0  0  0  0  0  0  0  0  0  0  0  0
  180.5410  174.5440  137.8910 C   0  0  1  0  0  3  0  0  0  0  0  0
  179.9090  173.2470  138.4210 C   0  0  0  0  0  3  0  0  0  0  0  0
  182.9340  170.9080  136.6890 O   0  0  0  0  0  1  0  0  0  0  0  0
  182.4900  172.0420  136.0070 C   0  0  0  0  0  2  0  0  0  0  0  0
  189.5830  177.7170  143.5690 C   0  0  2  0  0  3  0  0  0  0  0  0
  190.1730  176.5350  142.7770 C   0  0  0  0  0  2  0  0  0  0  0  0
  190.8120  176.9750  141.4960 C   0  0  0  0  0  0  0  0  0  0  0  0
  191.8450  177.6180  141.5210 O   0  0  0  0  0  0  0  0  0  0  0  0
  191.2610  176.5690  139.1140 C   0  0  0  0  0  2  0  0  0  0  0  0
  189.4790  177.9520  138.5280 C   0  0  2  0  0  3  0  0  0  0  0  0
  190.5290  177.0420  137.9250 C   0  0  0  0  0  2  0  0  0  0  0  0
  189.1990  177.5350  139.8370 O   0  0  0  0  0  0  0  0  0  0  0  0
  190.1980  176.6050  140.1890 C   0  0  2  0  0  3  0  0  0  0  0  0
  188.2170  178.0180  137.7120 C   0  0  0  0  0  0  0  0  0  0  0  0
  187.7810  179.0830  137.3080 O   0  0  0  0  0  0  0  0  0  0  0  0
  187.7200  176.7380  135.4770 C   0  0  0  0  0  1  0  0  0  0  0  0
  187.4010  176.4960  137.2590 S   0  0  0  0  0  0  0  0  0  0  0  0
  190.5120  178.1040  144.7230 C   0  0  0  0  0  2  0  0  0  0  0  0
  190.6940  177.1570  147.4150 O   0  0  0  0  0  0  0  0  0  0  0  0
  191.2710  176.9360  145.1580 N   0  0  0  0  0  2  0  0  0  0  0  0
  191.3950  176.5780  146.5340 C   0  0  0  0  0  0  0  0  0  0  0  0
  192.3320  175.4860  146.9390 C   0  0  0  0  0  1  0  0  0  0  0  0
  3  2  1  0  0  0  0
  3  1  1  0  0  0  0
  3  5  1  0  0  0  0
  4  7  1  0  0  0  0
  4  9  1  0  0  0  0
  6  1  1  0  0  0  0
  7 10  1  6  0  0  0
  7  3  1  0  0  0  0
  8  4  2  0  0  0  0
  9 29  1  6  0  0  0
  9  6  1  0  0  0  0
 11 10  1  0  0  0  0
 12 16  1  0  0  0  0
 13 15  1  0  0  0  0
 14 12  1  0  0  0  0
 15 11  1  1  0  0  0
 16 15  1  0  0  0  0
 17 14  1  6  0  0  0
 17 13  1  0  0  0  0
 18 21  1  0  0  0  0
 19 21  1  1  0  0  0
 20 19  1  0  0  0  0
 20 17  1  0  0  0  0
 20 18  1  1  0  0  0
 22 23  2  0  0  0  0
 22 24  1  0  0  0  0
 23 25  1  0  0  0  0
 24 26  2  0  0  0  0
 25 26  1  1  0  0  0
 25 19  1  0  0  0  0
 28 27  1  0  0  0  0
 28 22  1  0  0  0  0
 29 30  1  1  0  0  0
 29 42  1  0  0  0  0
 31 32  2  0  0  0  0
 31 30  1  0  0  0  0
 33 37  1  0  0  0  0
 34 38  1  6  0  0  0
 34 36  1  0  0  0  0
 35 34  1  0  0  0  0
 35 33  1  0  0  0  0
 36 37  1  0  0  0  0
 37 31  1  1  0  0  0
 39 38  2  0  0  0  0
 40 41  1  0  0  0  0
 41 38  1  0  0  0  0
 42 44  1  0  0  0  0
 44 45  1  0  0  0  0
 45 46  1  0  0  0  0
 45 43  2  0  0  0  0
M  END
>  <MODEL>
4

>  <REMARK>
 VINA RESULT:      -7.9      2.370      3.401
  Name = 
  14 active torsions:
  status: ('A' for Active; 'I' for Inactive)
    1  A    between atoms: C_2  and  C_7
    2  A    between atoms: C_2  and  C_31
    3  A    between atoms: C_7  and  C_42
    4  A    between atoms: C_8  and  C_9
    5  A    between atoms: C_9  and  S_16
    6  A    between atoms: C_12  and  C_28
    7  A    between atoms: N_24  and  C_39
    8  A    between atoms: C_27  and  C_33
    9  A    between atoms: O_29  and  C_30
   10  A    between atoms: O_29  and  C_35
   11  A    between atoms: C_30  and  C_36
   12  A    between atoms: C_34  and  N_44
   13  A    between atoms: C_39  and  C_42
   14  A    between atoms: C_42  and  C_43
                            x       y       z     vdW  Elec       q    Type
                         _______ _______ _______ _____ _____    ______ ____

>  <TORSDO>
F 14

$$$$
=
 OpenBabel11062416263D

 46 50  0  0  1  0  0  0  0  0999 V2000
  185.2830  179.6580  145.3470 O   0  0  0  0  0  0  0  0  0  0  0  0
  183.4560  180.0650  144.0640 F   0  0  0  0  0  0  0  0  0  0  0  0
  184.2580  179.0570  144.5700 C   0  0  0  0  0  0  0  0  0  0  0  0
  186.3080  177.9410  143.6220 C   0  0  0  0  0  0  0  0  0  0  0  0
  183.4570  178.2390  145.3570 F   0  0  0  0  0  0  0  0  0  0  0  0
  186.0090  178.6500  146.0070 C   0  0  0  0  0  2  0  0  0  0  0  0
  184.8430  178.2200  143.4030 C   0  0  2  0  0  3  0  0  0  0  0  0
  187.0800  177.9120  142.6710 O   0  0  0  0  0  0  0  0  0  0  0  0
  186.8090  177.7620  145.0380 C   0  0  2  0  0  3  0  0  0  0  0  0
  184.6120  178.8380  142.1650 O   0  0  0  0  0  0  0  0  0  0  0  0
  183.8500  177.9200  141.4360 C   0  0  0  0  0  2  0  0  0  0  0  0
  182.1420  179.7510  138.5430 C   0  0  0  0  0  2  0  0  0  0  0  0
  183.4190  177.2430  139.0770 C   0  0  0  0  0  2  0  0  0  0  0  0
  182.0080  178.5160  137.6690 C   0  0  0  0  0  2  0  0  0  0  0  0
  183.6390  178.4170  140.0230 C   0  0  1  0  0  3  0  0  0  0  0  0
  182.4220  179.3300  139.9830 C   0  0  0  0  0  2  0  0  0  0  0  0
  183.2390  177.7240  137.7010 N   0  0  2  0  0  0  0  0  0  0  0  0
  181.6320  176.2350  136.8120 O   0  0  0  0  0  0  0  0  0  0  0  0
  183.3510  175.2880  137.5910 C   0  0  1  0  0  3  0  0  0  0  0  0
  182.9990  176.5660  136.8530 C   0  0  2  0  0  3  0  0  0  0  0  0
  181.8810  175.0070  137.4600 C   0  0  0  0  0  2  0  0  0  0  0  0
  186.4010  174.0310  136.9280 C   0  0  0  0  0  0  0  0  0  0  0  0
  185.5010  174.8000  136.4060 N   0  0  0  0  0  0  0  0  0  0  0  0
  185.8880  172.9300  137.6550 N   0  0  0  0  0  0  0  0  0  0  0  0
  184.1750  174.2860  136.7630 C   0  0  1  0  0  3  0  0  0  0  0  0
  184.4420  173.0430  137.6260 C   0  0  0  0  0  3  0  0  0  0  0  0
  188.1190  175.0410  135.6520 O   0  0  0  0  0  1  0  0  0  0  0  0
  187.8640  174.2840  136.7970 C   0  0  0  0  0  2  0  0  0  0  0  0
  188.3460  177.8750  145.1820 C   0  0  2  0  0  3  0  0  0  0  0  0
  189.0530  176.8980  144.2230 C   0  0  0  0  0  2  0  0  0  0  0  0
  190.1170  177.5720  143.4130 C   0  0  0  0  0  0  0  0  0  0  0  0
  190.5210  178.6750  143.7340 O   0  0  0  0  0  0  0  0  0  0  0  0
  192.0610  177.4650  141.9120 C   0  0  0  0  0  2  0  0  0  0  0  0
  190.6490  177.5030  140.0580 C   0  0  2  0  0  3  0  0  0  0  0  0
  192.1110  177.3860  140.4410 C   0  0  0  0  0  2  0  0  0  0  0  0
  189.8540  177.0270  141.1100 O   0  0  0  0  0  0  0  0  0  0  0  0
  190.7020  176.8830  142.2270 C   0  0  2  0  0  3  0  0  0  0  0  0
  190.3170  176.7870  138.7780 C   0  0  0  0  0  0  0  0  0  0  0  0
  190.5380  175.5940  138.6450 O   0  0  0  0  0  0  0  0  0  0  0  0
  187.9270  177.7890  138.3760 C   0  0  0  0  0  1  0  0  0  0  0  0
  189.5080  177.6910  137.4670 S   0  0  0  0  0  0  0  0  0  0  0  0
  188.8490  177.6760  146.6140 C   0  0  0  0  0  2  0  0  0  0  0  0
  191.2710  177.6740  148.1340 O   0  0  0  0  0  0  0  0  0  0  0  0
  189.8230  176.5900  146.6490 N   0  0  0  0  0  2  0  0  0  0  0  0
  191.0580  176.6980  147.3560 C   0  0  0  0  0  0  0  0  0  0  0  0
  192.0970  175.6340  147.2090 C   0  0  0  0  0  1  0  0  0  0  0  0
  1  6  1  0  0  0  0
  2  3  1  0  0  0  0
  3  1  1  0  0  0  0
  3  5  1  0  0  0  0
  4  9  1  0  0  0  0
  7 10  1  6  0  0  0
  7  4  1  0  0  0  0
  7  3  1  0  0  0  0
  8  4  2  0  0  0  0
  9 29  1  6  0  0  0
  9  6  1  0  0  0  0
 11 10  1  0  0  0  0
 12 16  1  0  0  0  0
 13 15  1  0  0  0  0
 14 12  1  0  0  0  0
 15 11  1  1  0  0  0
 16 15  1  0  0  0  0
 17 14  1  1  0  0  0
 17 13  1  0  0  0  0
 18 21  1  0  0  0  0
 19 21  1  6  0  0  0
 20 18  1  1  0  0  0
 20 19  1  0  0  0  0
 20 17  1  0  0  0  0
 22 24  1  0  0  0  0
 23 25  1  0  0  0  0
 23 22  2  0  0  0  0
 25 19  1  0  0  0  0
 25 26  1  1  0  0  0
 26 24  2  0  0  0  0
 27 28  1  0  0  0  0
 28 22  1  0  0  0  0
 29 30  1  6  0  0  0
 29 42  1  0  0  0  0
 31 32  2  0  0  0  0
 31 30  1  0  0  0  0
 33 37  1  0  0  0  0
 34 38  1  6  0  0  0
 34 35  1  0  0  0  0
 34 36  1  0  0  0  0
 35 33  1  0  0  0  0
 36 37  1  0  0  0  0
 37 31  1  1  0  0  0
 39 38  2  0  0  0  0
 41 40  1  0  0  0  0
 41 38  1  0  0  0  0
 42 44  1  0  0  0  0
 44 45  1  0  0  0  0
 45 43  2  0  0  0  0
 46 45  1  0  0  0  0
M  END
>  <MODEL>
5

>  <REMARK>
 VINA RESULT:      -7.8      1.517      2.215
  Name = 
  14 active torsions:
  status: ('A' for Active; 'I' for Inactive)
    1  A    between atoms: C_2  and  C_7
    2  A    between atoms: C_2  and  C_31
    3  A    between atoms: C_7  and  C_42
    4  A    between atoms: C_8  and  C_9
    5  A    between atoms: C_9  and  S_16
    6  A    between atoms: C_12  and  C_28
    7  A    between atoms: N_24  and  C_39
    8  A    between atoms: C_27  and  C_33
    9  A    between atoms: O_29  and  C_30
   10  A    between atoms: O_29  and  C_35
   11  A    between atoms: C_30  and  C_36
   12  A    between atoms: C_34  and  N_44
   13  A    between atoms: C_39  and  C_42
   14  A    between atoms: C_42  and  C_43
                            x       y       z     vdW  Elec       q    Type
                         _______ _______ _______ _____ _____    ______ ____

>  <TORSDO>
F 14

$$$$
=
 OpenBabel11062416263D

 46 50  0  0  1  0  0  0  0  0999 V2000
  191.5330  177.7540  143.7390 O   0  0  0  0  0  0  0  0  0  0  0  0
  190.5690  178.0270  145.7750 F   0  0  0  0  0  0  0  0  0  0  0  0
  190.5540  177.2460  144.6330 C   0  0  0  0  0  0  0  0  0  0  0  0
  189.2180  177.4490  142.5070 C   0  0  0  0  0  0  0  0  0  0  0  0
  190.8590  175.9440  145.0110 F   0  0  0  0  0  0  0  0  0  0  0  0
  191.6540  176.8780  142.6440 C   0  0  0  0  0  2  0  0  0  0  0  0
  189.1380  177.2720  144.0020 C   0  0  2  0  0  3  0  0  0  0  0  0
  188.3720  178.1120  141.9180 O   0  0  0  0  0  0  0  0  0  0  0  0
  190.3910  176.8480  141.7660 C   0  0  2  0  0  3  0  0  0  0  0  0
  188.3300  178.2510  144.5980 O   0  0  0  0  0  0  0  0  0  0  0  0
  187.1120  177.6130  144.8510 C   0  0  0  0  0  2  0  0  0  0  0  0
  183.5980  179.1250  144.7810 C   0  0  0  0  0  2  0  0  0  0  0  0
  185.5110  177.9860  142.9780 C   0  0  0  0  0  2  0  0  0  0  0  0
  183.2700  178.6280  143.3830 C   0  0  0  0  0  2  0  0  0  0  0  0
  185.9620  178.4600  144.3540 C   0  0  1  0  0  3  0  0  0  0  0  0
  184.7970  178.3560  145.3280 C   0  0  0  0  0  2  0  0  0  0  0  0
  184.4100  178.8250  142.4850 N   0  0  2  0  0  0  0  0  0  0  0  0
  185.0820  178.2670  140.2870 O   0  0  0  0  0  0  0  0  0  0  0  0
  183.2880  179.3770  140.3890 C   0  0  1  0  0  3  0  0  0  0  0  0
  184.0010  178.3040  141.1890 C   0  0  2  0  0  3  0  0  0  0  0  0
  184.4650  179.2340  139.4660 C   0  0  0  0  0  2  0  0  0  0  0  0
  180.0570  178.5210  140.7740 C   0  0  0  0  0  0  0  0  0  0  0  0
  181.2120  177.9870  140.5410 N   0  0  0  0  0  0  0  0  0  0  0  0
  179.8550  179.7810  140.1630 N   0  0  0  0  0  0  0  0  0  0  0  0
  181.9950  178.9000  139.7030 C   0  0  1  0  0  3  0  0  0  0  0  0
  181.0870  180.1180  139.4740 C   0  0  0  0  0  3  0  0  0  0  0  0
  179.3900  177.9580  142.9740 O   0  0  0  0  0  1  0  0  0  0  0  0
  179.0200  177.8770  141.6300 C   0  0  0  0  0  2  0  0  0  0  0  0
  190.5880  177.4080  140.3360 C   0  0  2  0  0  3  0  0  0  0  0  0
  189.6620  176.6860  139.3390 C   0  0  0  0  0  2  0  0  0  0  0  0
  188.8880  177.6470  138.4890 C   0  0  0  0  0  0  0  0  0  0  0  0
  188.8670  178.8300  138.7720 O   0  0  0  0  0  0  0  0  0  0  0  0
  188.2810  178.1740  136.1660 C   0  0  0  0  0  2  0  0  0  0  0  0
  186.0610  177.6170  136.6060 C   0  0  2  0  0  3  0  0  0  0  0  0
  186.9810  178.0500  135.4830 C   0  0  0  0  0  2  0  0  0  0  0  0
  186.8040  176.9380  137.5810 O   0  0  0  0  0  0  0  0  0  0  0  0
  188.1650  177.1580  137.2800 C   0  0  2  0  0  3  0  0  0  0  0  0
  184.9100  176.7720  136.1330 C   0  0  0  0  0  0  0  0  0  0  0  0
  184.2050  177.1280  135.2030 O   0  0  0  0  0  0  0  0  0  0  0  0
  183.4350  175.8550  138.0980 C   0  0  0  0  0  1  0  0  0  0  0  0
  184.6340  175.1820  136.8970 S   0  0  0  0  0  0  0  0  0  0  0  0
  192.0380  177.3620  139.8480 C   0  0  0  0  0  2  0  0  0  0  0  0
  194.3040  176.0040  138.7520 O   0  0  0  0  0  0  0  0  0  0  0  0
  192.0950  176.7450  138.5270 N   0  0  0  0  0  2  0  0  0  0  0  0
  193.2930  176.1680  138.0080 C   0  0  0  0  0  0  0  0  0  0  0  0
  193.3470  175.7170  136.5840 C   0  0  0  0  0  1  0  0  0  0  0  0
  1  3  1  0  0  0  0
  3  5  1  0  0  0  0
  3  2  1  0  0  0  0
  4  7  1  0  0  0  0
  6  1  1  0  0  0  0
  7 10  1  1  0  0  0
  7  3  1  0  0  0  0
  8  4  2  0  0  0  0
  9 29  1  6  0  0  0
  9  4  1  0  0  0  0
  9  6  1  0  0  0  0
 10 11  1  0  0  0  0
 12 16  1  0  0  0  0
 13 15  1  0  0  0  0
 14 12  1  0  0  0  0
 15 11  1  1  0  0  0
 15 16  1  0  0  0  0
 17 13  1  1  0  0  0
 17 14  1  0  0  0  0
 19 21  1  6  0  0  0
 19 20  1  0  0  0  0
 20 18  1  6  0  0  0
 20 17  1  0  0  0  0
 21 18  1  0  0  0  0
 22 28  1  0  0  0  0
 23 22  2  0  0  0  0
 24 22  1  0  0  0  0
 25 26  1  1  0  0  0
 25 19  1  0  0  0  0
 25 23  1  0  0  0  0
 26 24  2  0  0  0  0
 28 27  1  0  0  0  0
 29 30  1  6  0  0  0
 31 32  2  0  0  0  0
 31 30  1  0  0  0  0
 33 37  1  0  0  0  0
 34 38  1  6  0  0  0
 34 36  1  0  0  0  0
 35 33  1  0  0  0  0
 35 34  1  0  0  0  0
 37 36  1  0  0  0  0
 37 31  1  1  0  0  0
 38 41  1  0  0  0  0
 39 38  2  0  0  0  0
 41 40  1  0  0  0  0
 42 29  1  0  0  0  0
 44 42  1  0  0  0  0
 45 44  1  0  0  0  0
 45 43  2  0  0  0  0
 46 45  1  0  0  0  0
M  END
>  <MODEL>
6

>  <REMARK>
 VINA RESULT:      -7.6      3.223      6.473
  Name = 
  14 active torsions:
  status: ('A' for Active; 'I' for Inactive)
    1  A    between atoms: C_2  and  C_7
    2  A    between atoms: C_2  and  C_31
    3  A    between atoms: C_7  and  C_42
    4  A    between atoms: C_8  and  C_9
    5  A    between atoms: C_9  and  S_16
    6  A    between atoms: C_12  and  C_28
    7  A    between atoms: N_24  and  C_39
    8  A    between atoms: C_27  and  C_33
    9  A    between atoms: O_29  and  C_30
   10  A    between atoms: O_29  and  C_35
   11  A    between atoms: C_30  and  C_36
   12  A    between atoms: C_34  and  N_44
   13  A    between atoms: C_39  and  C_42
   14  A    between atoms: C_42  and  C_43
                            x       y       z     vdW  Elec       q    Type
                         _______ _______ _______ _____ _____    ______ ____

>  <TORSDO>
F 14

$$$$
=
 OpenBabel11062416263D

 46 50  0  0  1  0  0  0  0  0999 V2000
  179.5310  178.5360  142.2680 O   0  0  0  0  0  0  0  0  0  0  0  0
  180.0080  178.8680  144.4610 F   0  0  0  0  0  0  0  0  0  0  0  0
  180.2880  179.3140  143.1820 C   0  0  0  0  0  0  0  0  0  0  0  0
  182.0680  178.6190  141.5390 C   0  0  0  0  0  0  0  0  0  0  0  0
  179.9200  180.6530  143.1150 F   0  0  0  0  0  0  0  0  0  0  0  0
  179.6690  179.0800  140.9770 C   0  0  0  0  0  2  0  0  0  0  0  0
  181.8110  179.1940  142.9090 C   0  0  2  0  0  3  0  0  0  0  0  0
  183.0170  177.8680  141.3530 O   0  0  0  0  0  0  0  0  0  0  0  0
  181.0980  178.9390  140.4230 C   0  0  2  0  0  3  0  0  0  0  0  0
  182.4530  178.4530  143.9110 O   0  0  0  0  0  0  0  0  0  0  0  0
  183.5750  179.2100  144.2600 C   0  0  0  0  0  2  0  0  0  0  0  0
  186.1130  177.7930  146.7490 C   0  0  0  0  0  2  0  0  0  0  0  0
  185.9560  178.5260  143.9840 C   0  0  0  0  0  2  0  0  0  0  0  0
  187.3180  178.0240  145.8520 C   0  0  0  0  0  2  0  0  0  0  0  0
  184.6750  178.3110  144.7800 C   0  0  1  0  0  3  0  0  0  0  0  0
  184.9360  178.6240  146.2470 C   0  0  0  0  0  2  0  0  0  0  0  0
  187.0160  177.6350  144.4730 N   0  0  2  0  0  0  0  0  0  0  0  0
  187.9540  177.8990  142.3180 O   0  0  0  0  0  0  0  0  0  0  0  0
  189.0850  176.6690  143.6100 C   0  0  1  0  0  3  0  0  0  0  0  0
  188.2190  177.9110  143.7010 C   0  0  2  0  0  3  0  0  0  0  0  0
  188.7770  176.7670  142.1420 C   0  0  0  0  0  2  0  0  0  0  0  0
  191.6460  176.3680  145.7710 C   0  0  0  0  0  0  0  0  0  0  0  0
  190.8620  177.2660  145.2690 N   0  0  0  0  0  0  0  0  0  0  0  0
  192.0290  175.3470  144.8690 N   0  0  0  0  0  0  0  0  0  0  0  0
  190.5810  176.9210  143.8720 C   0  0  1  0  0  3  0  0  0  0  0  0
  191.3470  175.6140  143.6160 C   0  0  0  0  0  3  0  0  0  0  0  0
  192.9600  175.3120  147.4330 O   0  0  0  0  0  1  0  0  0  0  0  0
  192.1030  176.3870  147.1900 C   0  0  0  0  0  2  0  0  0  0  0  0
  181.2220  178.0080  139.1930 C   0  0  2  0  0  3  0  0  0  0  0  0
  181.9420  178.7290  138.0380 C   0  0  0  0  0  2  0  0  0  0  0  0
  182.9380  177.8450  137.3530 C   0  0  0  0  0  0  0  0  0  0  0  0
  182.7270  177.4550  136.2190 O   0  0  0  0  0  0  0  0  0  0  0  0
  184.8940  178.6990  138.5720 C   0  0  0  0  0  2  0  0  0  0  0  0
  186.3050  177.4120  137.2370 C   0  0  2  0  0  3  0  0  0  0  0  0
  186.3190  178.3550  138.4230 C   0  0  0  0  0  2  0  0  0  0  0  0
  185.0580  176.7770  137.1620 O   0  0  0  0  0  0  0  0  0  0  0  0
  184.2000  177.4620  138.0480 C   0  0  2  0  0  3  0  0  0  0  0  0
  187.4140  176.3960  137.2790 C   0  0  0  0  0  0  0  0  0  0  0  0
  187.3710  175.3850  136.5980 O   0  0  0  0  0  0  0  0  0  0  0  0
  189.8800  177.1740  136.8370 C   0  0  0  0  0  1  0  0  0  0  0  0
  188.8540  176.7300  138.2810 S   0  0  0  0  0  0  0  0  0  0  0  0
  179.8860  177.4330  138.7150 C   0  0  0  0  0  2  0  0  0  0  0  0
  180.5350  175.1280  137.1530 O   0  0  0  0  0  0  0  0  0  0  0  0
  179.7570  176.0500  139.1590 N   0  0  0  0  0  2  0  0  0  0  0  0
  180.0090  174.9450  138.2900 C   0  0  0  0  0  0  0  0  0  0  0  0
  179.6850  173.5560  138.7360 C   0  0  0  0  0  1  0  0  0  0  0  0
  1  3  1  0  0  0  0
  3  2  1  0  0  0  0
  4  7  1  0  0  0  0
  5  3  1  0  0  0  0
  6  1  1  0  0  0  0
  7  3  1  0  0  0  0
  7 10  1  1  0  0  0
  8  4  2  0  0  0  0
  9 29  1  6  0  0  0
  9  6  1  0  0  0  0
  9  4  1  0  0  0  0
 10 11  1  0  0  0  0
 13 15  1  0  0  0  0
 14 12  1  0  0  0  0
 15 11  1  6  0  0  0
 15 16  1  0  0  0  0
 16 12  1  0  0  0  0
 17 13  1  6  0  0  0
 17 14  1  0  0  0  0
 19 21  1  6  0  0  0
 19 20  1  0  0  0  0
 19 25  1  0  0  0  0
 20 18  1  6  0  0  0
 20 17  1  0  0  0  0
 21 18  1  0  0  0  0
 22 28  1  0  0  0  0
 23 22  2  0  0  0  0
 24 22  1  0  0  0  0
 25 26  1  1  0  0  0
 25 23  1  0  0  0  0
 26 24  2  0  0  0  0
 28 27  1  0  0  0  0
 29 30  1  6  0  0  0
 31 30  1  0  0  0  0
 32 31  2  0  0  0  0
 34 38  1  1  0  0  0
 34 35  1  0  0  0  0
 35 33  1  0  0  0  0
 36 34  1  0  0  0  0
 36 37  1  0  0  0  0
 37 31  1  6  0  0  0
 37 33  1  0  0  0  0
 38 41  1  0  0  0  0
 39 38  2  0  0  0  0
 40 41  1  0  0  0  0
 42 44  1  0  0  0  0
 42 29  1  0  0  0  0
 43 45  2  0  0  0  0
 45 46  1  0  0  0  0
 45 44  1  0  0  0  0
M  END
>  <MODEL>
7

>  <REMARK>
 VINA RESULT:      -7.6      2.761      8.426
  Name = 
  14 active torsions:
  status: ('A' for Active; 'I' for Inactive)
    1  A    between atoms: C_2  and  C_7
    2  A    between atoms: C_2  and  C_31
    3  A    between atoms: C_7  and  C_42
    4  A    between atoms: C_8  and  C_9
    5  A    between atoms: C_9  and  S_16
    6  A    between atoms: C_12  and  C_28
    7  A    between atoms: N_24  and  C_39
    8  A    between atoms: C_27  and  C_33
    9  A    between atoms: O_29  and  C_30
   10  A    between atoms: O_29  and  C_35
   11  A    between atoms: C_30  and  C_36
   12  A    between atoms: C_34  and  N_44
   13  A    between atoms: C_39  and  C_42
   14  A    between atoms: C_42  and  C_43
                            x       y       z     vdW  Elec       q    Type
                         _______ _______ _______ _____ _____    ______ ____

>  <TORSDO>
F 14

$$$$
=
 OpenBabel11062416263D

 46 50  0  0  1  0  0  0  0  0999 V2000
  180.9840  178.0720  142.2510 O   0  0  0  0  0  0  0  0  0  0  0  0
  180.9380  178.5850  144.4610 F   0  0  0  0  0  0  0  0  0  0  0  0
  181.4330  178.9910  143.2340 C   0  0  0  0  0  0  0  0  0  0  0  0
  183.5910  178.4410  142.0550 C   0  0  0  0  0  0  0  0  0  0  0  0
  180.9370  180.2650  142.9830 F   0  0  0  0  0  0  0  0  0  0  0  0
  181.3320  178.5550  140.9760 C   0  0  0  0  0  2  0  0  0  0  0  0
  182.9820  179.0540  143.2900 C   0  0  2  0  0  3  0  0  0  0  0  0
  184.6380  177.8100  142.1310 O   0  0  0  0  0  0  0  0  0  0  0  0
  182.8530  178.5700  140.7410 C   0  0  2  0  0  3  0  0  0  0  0  0
  183.4750  178.4600  144.4610 O   0  0  0  0  0  0  0  0  0  0  0  0
  184.6430  179.1670  144.7640 C   0  0  0  0  0  2  0  0  0  0  0  0
  186.9770  178.2460  147.6530 C   0  0  0  0  0  2  0  0  0  0  0  0
  186.8370  177.9850  144.8030 C   0  0  0  0  0  2  0  0  0  0  0  0
  188.1620  177.9130  146.7610 C   0  0  0  0  0  2  0  0  0  0  0  0
  185.5750  178.3110  145.5920 C   0  0  1  0  0  3  0  0  0  0  0  0
  185.9560  179.0600  146.8620 C   0  0  0  0  0  2  0  0  0  0  0  0
  187.7310  177.1340  145.5990 N   0  0  2  0  0  0  0  0  0  0  0  0
  190.0130  177.6560  145.2690 O   0  0  0  0  0  0  0  0  0  0  0  0
  188.8630  177.6440  143.4980 C   0  0  1  0  0  3  0  0  0  0  0  0
  188.9280  176.8860  144.8100 C   0  0  2  0  0  3  0  0  0  0  0  0
  190.0450  178.3820  144.0600 C   0  0  0  0  0  2  0  0  0  0  0  0
  189.6260  177.6720  140.2210 C   0  0  0  0  0  0  0  0  0  0  0  0
  188.6760  177.3150  141.0230 N   0  0  0  0  0  0  0  0  0  0  0  0
  190.9330  177.4700  140.7250 N   0  0  0  0  0  0  0  0  0  0  0  0
  189.2710  176.8150  142.2670 C   0  0  1  0  0  3  0  0  0  0  0  0
  190.7900  176.9470  142.0710 C   0  0  0  0  0  3  0  0  0  0  0  0
  190.0230  177.5150  137.8930 O   0  0  0  0  0  1  0  0  0  0  0  0
  189.3760  178.2650  138.8770 C   0  0  0  0  0  2  0  0  0  0  0  0
  183.3430  177.5950  139.6440 C   0  0  2  0  0  3  0  0  0  0  0  0
  183.8570  178.3730  138.4180 C   0  0  0  0  0  2  0  0  0  0  0  0
  185.3410  178.2510  138.2520 C   0  0  0  0  0  0  0  0  0  0  0  0
  186.0850  178.5950  139.1520 O   0  0  0  0  0  0  0  0  0  0  0  0
  184.7870  177.2530  136.0750 C   0  0  0  0  0  2  0  0  0  0  0  0
  186.3050  175.5280  136.4650 C   0  0  2  0  0  3  0  0  0  0  0  0
  185.3560  176.0650  135.4130 C   0  0  0  0  0  2  0  0  0  0  0  0
  186.7350  176.5810  137.2850 O   0  0  0  0  0  0  0  0  0  0  0  0
  185.9070  177.6850  136.9940 C   0  0  2  0  0  3  0  0  0  0  0  0
  187.4830  174.7990  135.8780 C   0  0  0  0  0  0  0  0  0  0  0  0
  187.9940  175.1640  134.8320 O   0  0  0  0  0  0  0  0  0  0  0  0
  186.8060  172.3140  136.3710 C   0  0  0  0  0  1  0  0  0  0  0  0
  188.1900  173.4310  136.7820 S   0  0  0  0  0  0  0  0  0  0  0  0
  182.2960  176.5610  139.2210 C   0  0  0  0  0  2  0  0  0  0  0  0
  181.6370  175.3340  136.7240 O   0  0  0  0  0  0  0  0  0  0  0  0
  182.9590  175.3910  138.6550 N   0  0  0  0  0  2  0  0  0  0  0  0
  182.5120  174.7740  137.4470 C   0  0  0  0  0  0  0  0  0  0  0  0
  183.1060  173.4740  137.0100 C   0  0  0  0  0  1  0  0  0  0  0  0
  1  3  1  0  0  0  0
  3  7  1  0  0  0  0
  3  2  1  0  0  0  0
  4  8  2  0  0  0  0
  4  7  1  0  0  0  0
  5  3  1  0  0  0  0
  6  1  1  0  0  0  0
  7 10  1  1  0  0  0
  9 29  1  6  0  0  0
  9  6  1  0  0  0  0
  9  4  1  0  0  0  0
 10 11  1  0  0  0  0
 13 15  1  0  0  0  0
 14 12  1  0  0  0  0
 15 11  1  6  0  0  0
 15 16  1  0  0  0  0
 16 12  1  0  0  0  0
 17 13  1  6  0  0  0
 17 14  1  0  0  0  0
 19 21  1  1  0  0  0
 19 20  1  0  0  0  0
 20 18  1  1  0  0  0
 20 17  1  0  0  0  0
 21 18  1  0  0  0  0
 22 24  1  0  0  0  0
 22 23  2  0  0  0  0
 23 25  1  0  0  0  0
 24 26  2  0  0  0  0
 25 26  1  6  0  0  0
 25 19  1  0  0  0  0
 27 28  1  0  0  0  0
 28 22  1  0  0  0  0
 29 30  1  6  0  0  0
 31 30  1  0  0  0  0
 31 32  2  0  0  0  0
 33 37  1  0  0  0  0
 34 38  1  6  0  0  0
 34 36  1  0  0  0  0
 35 33  1  0  0  0  0
 35 34  1  0  0  0  0
 37 36  1  0  0  0  0
 37 31  1  1  0  0  0
 38 41  1  0  0  0  0
 39 38  2  0  0  0  0
 40 41  1  0  0  0  0
 42 29  1  0  0  0  0
 43 45  2  0  0  0  0
 44 42  1  0  0  0  0
 45 44  1  0  0  0  0
 46 45  1  0  0  0  0
M  END
>  <MODEL>
8

>  <REMARK>
 VINA RESULT:      -7.6      2.328      7.484
  Name = 
  14 active torsions:
  status: ('A' for Active; 'I' for Inactive)
    1  A    between atoms: C_2  and  C_7
    2  A    between atoms: C_2  and  C_31
    3  A    between atoms: C_7  and  C_42
    4  A    between atoms: C_8  and  C_9
    5  A    between atoms: C_9  and  S_16
    6  A    between atoms: C_12  and  C_28
    7  A    between atoms: N_24  and  C_39
    8  A    between atoms: C_27  and  C_33
    9  A    between atoms: O_29  and  C_30
   10  A    between atoms: O_29  and  C_35
   11  A    between atoms: C_30  and  C_36
   12  A    between atoms: C_34  and  N_44
   13  A    between atoms: C_39  and  C_42
   14  A    between atoms: C_42  and  C_43
                            x       y       z     vdW  Elec       q    Type
                         _______ _______ _______ _____ _____    ______ ____

>  <TORSDO>
F 14

$$$$
=
 OpenBabel11062416263D

 46 50  0  0  1  0  0  0  0  0999 V2000
  187.1190  178.7470  145.9200 O   0  0  0  0  0  0  0  0  0  0  0  0
  184.9010  179.2250  145.8940 F   0  0  0  0  0  0  0  0  0  0  0  0
  185.8340  178.2590  145.5650 C   0  0  0  0  0  0  0  0  0  0  0  0
  187.1180  177.8550  143.4340 C   0  0  0  0  0  0  0  0  0  0  0  0
  185.5250  177.1130  146.2870 F   0  0  0  0  0  0  0  0  0  0  0  0
  188.0650  177.7180  145.7510 C   0  0  0  0  0  2  0  0  0  0  0  0
  185.7440  177.9400  144.0490 C   0  0  2  0  0  3  0  0  0  0  0  0
  187.3090  178.2560  142.2920 O   0  0  0  0  0  0  0  0  0  0  0  0
  188.2580  177.3270  144.2750 C   0  0  2  0  0  3  0  0  0  0  0  0
  184.9330  178.8690  143.3800 O   0  0  0  0  0  0  0  0  0  0  0  0
  183.6820  178.2540  143.2810 C   0  0  0  0  0  2  0  0  0  0  0  0
  180.3290  179.7050  142.1440 C   0  0  0  0  0  2  0  0  0  0  0  0
  182.7930  178.7790  141.0130 C   0  0  0  0  0  2  0  0  0  0  0  0
  180.5190  179.3410  140.6810 C   0  0  0  0  0  2  0  0  0  0  0  0
  182.7270  179.1250  142.4950 C   0  0  1  0  0  3  0  0  0  0  0  0
  181.3080  178.9070  143.0000 C   0  0  0  0  0  2  0  0  0  0  0  0
  181.8850  179.6420  140.2470 N   0  0  2  0  0  0  0  0  0  0  0  0
  182.0110  180.3620  137.9980 O   0  0  0  0  0  0  0  0  0  0  0  0
  180.5970  178.8310  138.3380 C   0  0  1  0  0  3  0  0  0  0  0  0
  181.9640  179.2430  138.8500 C   0  0  2  0  0  3  0  0  0  0  0  0
  180.7600  180.0260  137.4410 C   0  0  0  0  0  2  0  0  0  0  0  0
  181.8720  175.7380  137.9770 C   0  0  0  0  0  0  0  0  0  0  0  0
  181.9210  176.9100  137.4310 N   0  0  0  0  0  0  0  0  0  0  0  0
  180.5980  175.3690  138.4710 N   0  0  0  0  0  0  0  0  0  0  0  0
  180.5940  177.5280  137.5180 C   0  0  1  0  0  3  0  0  0  0  0  0
  179.7140  176.4980  138.2440 C   0  0  0  0  0  3  0  0  0  0  0  0
  184.0880  175.3020  137.2700 O   0  0  0  0  0  1  0  0  0  0  0  0
  183.0590  174.8460  138.0970 C   0  0  0  0  0  2  0  0  0  0  0  0
  189.6620  177.6430  143.7050 C   0  0  2  0  0  3  0  0  0  0  0  0
  190.1720  176.4730  142.8420 C   0  0  0  0  0  2  0  0  0  0  0  0
  190.7770  176.9410  141.5540 C   0  0  0  0  0  0  0  0  0  0  0  0
  191.8490  177.5180  141.5580 O   0  0  0  0  0  0  0  0  0  0  0  0
  191.0920  176.3760  139.1830 C   0  0  0  0  0  2  0  0  0  0  0  0
  189.6560  178.1050  138.5660 C   0  0  2  0  0  3  0  0  0  0  0  0
  190.4690  176.9670  137.9840 C   0  0  0  0  0  2  0  0  0  0  0  0
  189.3070  177.7990  139.8880 O   0  0  0  0  0  0  0  0  0  0  0  0
  190.0780  176.6800  140.2630 C   0  0  2  0  0  3  0  0  0  0  0  0
  188.4300  178.4270  137.7560 C   0  0  0  0  0  0  0  0  0  0  0  0
  188.2960  179.5150  137.2190 O   0  0  0  0  0  0  0  0  0  0  0  0
  185.8270  178.2530  138.0180 C   0  0  0  0  0  1  0  0  0  0  0  0
  187.1980  177.1590  137.5120 S   0  0  0  0  0  0  0  0  0  0  0  0
  190.6950  178.0110  144.7720 C   0  0  0  0  0  2  0  0  0  0  0  0
  190.9140  177.1240  147.4810 O   0  0  0  0  0  0  0  0  0  0  0  0
  191.3980  176.8100  145.2130 N   0  0  0  0  0  2  0  0  0  0  0  0
  191.5480  176.4810  146.5940 C   0  0  0  0  0  0  0  0  0  0  0  0
  192.4310  175.3450  146.9980 C   0  0  0  0  0  1  0  0  0  0  0  0
  3  2  1  0  0  0  0
  3  1  1  0  0  0  0
  3  5  1  0  0  0  0
  4  7  1  0  0  0  0
  4  9  1  0  0  0  0
  6  1  1  0  0  0  0
  7 10  1  6  0  0  0
  7  3  1  0  0  0  0
  8  4  2  0  0  0  0
  9 29  1  6  0  0  0
  9  6  1  0  0  0  0
 11 10  1  0  0  0  0
 12 16  1  0  0  0  0
 13 15  1  0  0  0  0
 14 12  1  0  0  0  0
 15 16  1  0  0  0  0
 15 11  1  1  0  0  0
 17 14  1  1  0  0  0
 17 13  1  0  0  0  0
 19 21  1  6  0  0  0
 19 20  1  0  0  0  0
 20 18  1  6  0  0  0
 20 17  1  0  0  0  0
 21 18  1  0  0  0  0
 22 28  1  0  0  0  0
 22 24  1  0  0  0  0
 23 25  1  0  0  0  0
 23 22  2  0  0  0  0
 25 26  1  1  0  0  0
 25 19  1  0  0  0  0
 26 24  2  0  0  0  0
 27 28  1  0  0  0  0
 29 30  1  1  0  0  0
 29 42  1  0  0  0  0
 31 32  2  0  0  0  0
 31 30  1  0  0  0  0
 33 37  1  0  0  0  0
 34 38  1  6  0  0  0
 34 36  1  0  0  0  0
 35 34  1  0  0  0  0
 35 33  1  0  0  0  0
 36 37  1  0  0  0  0
 37 31  1  1  0  0  0
 39 38  2  0  0  0  0
 41 38  1  0  0  0  0
 41 40  1  0  0  0  0
 42 44  1  0  0  0  0
 44 45  1  0  0  0  0
 45 46  1  0  0  0  0
 45 43  2  0  0  0  0
M  END
>  <MODEL>
9

>  <REMARK>
 VINA RESULT:      -7.6      2.254      3.478
  Name = 
  14 active torsions:
  status: ('A' for Active; 'I' for Inactive)
    1  A    between atoms: C_2  and  C_7
    2  A    between atoms: C_2  and  C_31
    3  A    between atoms: C_7  and  C_42
    4  A    between atoms: C_8  and  C_9
    5  A    between atoms: C_9  and  S_16
    6  A    between atoms: C_12  and  C_28
    7  A    between atoms: N_24  and  C_39
    8  A    between atoms: C_27  and  C_33
    9  A    between atoms: O_29  and  C_30
   10  A    between atoms: O_29  and  C_35
   11  A    between atoms: C_30  and  C_36
   12  A    between atoms: C_34  and  N_44
   13  A    between atoms: C_39  and  C_42
   14  A    between atoms: C_42  and  C_43
                            x       y       z     vdW  Elec       q    Type
                         _______ _______ _______ _____ _____    ______ ____

>  <TORSDO>
F 14

$$$$
