=
 OpenBabel11062415453D

 27 32  0  0  1  0  0  0  0  0999 V2000
  183.6850  179.5820  144.5720 C   0  0  0  0  0  3  0  0  0  0  0  0
  184.3580  178.6760  142.4330 C   0  0  0  0  0  0  0  0  0  0  0  0
  184.7390  178.9010  145.1780 C   0  0  0  0  0  0  0  0  0  0  0  0
  186.6540  177.4230  145.0000 C   0  0  0  0  0  0  0  0  0  0  0  0
  185.5960  178.1110  144.3850 C   0  0  0  0  0  0  0  0  0  0  0  0
  186.8300  177.5340  146.3830 C   0  0  0  0  0  3  0  0  0  0  0  0
  183.4900  179.4710  143.1930 C   0  0  0  0  0  3  0  0  0  0  0  0
  184.9400  178.9930  146.5190 N   0  0  0  0  0  0  0  0  0  0  0  0
  185.3840  178.0220  143.0430 N   0  0  0  0  0  0  0  0  0  0  0  0
  185.9590  178.3300  147.1310 C   0  0  0  0  0  3  0  0  0  0  0  0
  184.4250  178.9260  138.7140 C   0  0  0  0  0  3  0  0  0  0  0  0
  184.1690  178.5330  140.9810 C   0  0  0  0  0  0  0  0  0  0  0  0
  183.3760  177.6560  140.4600 N   0  0  0  0  0  0  0  0  0  0  0  0
  184.8550  179.3540  140.0340 N   0  0  0  0  0  0  0  0  0  0  0  0
  183.4820  177.8390  139.0600 C   0  0  0  0  0  0  0  0  0  0  0  0
  182.8420  177.1500  138.2220 O   0  0  0  0  0  0  0  0  0  0  0  0
  187.5800  176.5530  144.2110 C   0  0  0  0  0  2  0  0  0  0  0  0
  189.7760  176.5420  143.0570 C   0  0  1  0  0  3  0  0  0  0  0  0
  191.6670  177.0050  145.8160 C   0  0  0  0  0  2  0  0  0  0  0  0
  191.8310  175.6380  145.3450 N   0  0  0  0  0  2  0  0  0  0  0  0
  188.7900  178.4820  141.4930 O   0  0  0  0  0  0  0  0  0  0  0  0
  191.1890  176.9550  143.4500 C   0  0  2  0  0  3  0  0  0  0  0  0
  188.8690  177.2850  143.8690 C   0  0  1  0  0  0  0  0  0  0  0  0
  191.9630  175.7360  143.9000 C   0  0  0  0  0  2  0  0  0  0  0  0
  189.0340  177.7340  142.4250 C   0  0  0  0  0  0  0  0  0  0  0  0
  191.0940  177.8310  144.6810 C   0  0  1  0  0  3  0  0  0  0  0  0
  189.6180  178.0810  144.9200 C   0  0  0  0  0  2  0  0  0  0  0  0
  1  3  1  0  0  0  0
  2  9  2  0  0  0  0
  2  7  1  0  0  0  0
  3  8  1  0  0  0  0
  4  6  2  0  0  0  0
  5  4  1  0  0  0  0
  5  3  2  0  0  0  0
  6 10  1  0  0  0  0
  7  1  2  0  0  0  0
  8 10  2  0  0  0  0
  9  5  1  0  0  0  0
 11 15  1  0  0  0  0
 11 14  2  0  0  0  0
 12  2  1  0  0  0  0
 13 12  2  0  0  0  0
 14 12  1  0  0  0  0
 15 13  1  0  0  0  0
 16 15  2  0  0  0  0
 17  4  1  0  0  0  0
 18 25  1  6  0  0  0
 18 22  1  0  0  0  0
 18 23  1  0  0  0  0
 20 19  1  0  0  0  0
 21 25  2  0  0  0  0
 22 24  1  1  0  0  0
 22 26  1  0  0  0  0
 23 17  1  1  0  0  0
 23 27  1  0  0  0  0
 24 20  1  0  0  0  0
 25 23  1  0  0  0  0
 26 27  1  1  0  0  0
 26 19  1  0  0  0  0
M  END
>  <MODEL>
1

>  <REMARK>
 VINA RESULT:      -9.6      0.000      0.000
  Name = 
  3 active torsions:
  status: ('A' for Active; 'I' for Inactive)
    1  A    between atoms: C_6  and  C_7
    2  A    between atoms: C_11  and  C_19
    3  A    between atoms: C_18  and  C_19
                            x       y       z     vdW  Elec       q    Type
                         _______ _______ _______ _____ _____    ______ ____

>  <TORSDO>
F 3

$$$$
=
 OpenBabel11062415453D

 27 32  0  0  1  0  0  0  0  0999 V2000
  191.3790  177.7100  144.4690 C   0  0  0  0  0  3  0  0  0  0  0  0
  189.7880  177.5550  142.6540 C   0  0  0  0  0  0  0  0  0  0  0  0
  190.3400  177.5230  145.3790 C   0  0  0  0  0  0  0  0  0  0  0  0
  187.9810  177.1660  145.8190 C   0  0  0  0  0  0  0  0  0  0  0  0
  189.0250  177.3500  144.8980 C   0  0  0  0  0  0  0  0  0  0  0  0
  188.2670  177.1630  147.1870 C   0  0  0  0  0  3  0  0  0  0  0  0
  191.1050  177.7270  143.1000 C   0  0  0  0  0  3  0  0  0  0  0  0
  190.5860  177.5100  146.7150 N   0  0  0  0  0  0  0  0  0  0  0  0
  188.7880  177.3700  143.5580 N   0  0  0  0  0  0  0  0  0  0  0  0
  189.5840  177.3360  147.6200 C   0  0  0  0  0  3  0  0  0  0  0  0
  189.5990  177.0760  138.9610 C   0  0  0  0  0  3  0  0  0  0  0  0
  189.4710  177.5790  141.2180 C   0  0  0  0  0  0  0  0  0  0  0  0
  188.5210  178.3010  140.7220 N   0  0  0  0  0  0  0  0  0  0  0  0
  190.1890  176.8000  140.2600 N   0  0  0  0  0  0  0  0  0  0  0  0
  188.5390  178.0420  139.3300 C   0  0  0  0  0  0  0  0  0  0  0  0
  187.7420  178.5780  138.5160 O   0  0  0  0  0  0  0  0  0  0  0  0
  186.5650  177.0010  145.3660 C   0  0  0  0  0  2  0  0  0  0  0  0
  184.5090  178.3560  145.6700 C   0  0  1  0  0  3  0  0  0  0  0  0
  184.1120  179.1940  142.4230 C   0  0  0  0  0  2  0  0  0  0  0  0
  183.0870  178.2320  142.8000 N   0  0  0  0  0  2  0  0  0  0  0  0
  185.8880  179.7580  147.4900 O   0  0  0  0  0  0  0  0  0  0  0  0
  183.7550  179.3590  144.8060 C   0  0  2  0  0  3  0  0  0  0  0  0
  185.8660  178.3460  145.2340 C   0  0  1  0  0  0  0  0  0  0  0  0
  182.6110  178.6600  144.1060 C   0  0  0  0  0  2  0  0  0  0  0  0
  185.5590  179.0830  146.5290 C   0  0  0  0  0  0  0  0  0  0  0  0
  184.6790  179.8010  143.6920 C   0  0  1  0  0  3  0  0  0  0  0  0
  186.0360  179.1970  143.9900 C   0  0  0  0  0  2  0  0  0  0  0  0
  1  3  1  0  0  0  0
  2  7  1  0  0  0  0
  2  9  2  0  0  0  0
  3  8  1  0  0  0  0
  4  6  2  0  0  0  0
  5  3  2  0  0  0  0
  5  4  1  0  0  0  0
  6 10  1  0  0  0  0
  7  1  2  0  0  0  0
  8 10  2  0  0  0  0
  9  5  1  0  0  0  0
 11 15  1  0  0  0  0
 11 14  2  0  0  0  0
 12  2  1  0  0  0  0
 13 12  2  0  0  0  0
 14 12  1  0  0  0  0
 15 13  1  0  0  0  0
 16 15  2  0  0  0  0
 17  4  1  0  0  0  0
 18 25  1  1  0  0  0
 19 20  1  0  0  0  0
 20 24  1  0  0  0  0
 22 24  1  6  0  0  0
 22 18  1  0  0  0  0
 23 17  1  1  0  0  0
 23 18  1  0  0  0  0
 23 25  1  0  0  0  0
 25 21  2  0  0  0  0
 26 19  1  6  0  0  0
 26 27  1  0  0  0  0
 26 22  1  0  0  0  0
 27 23  1  0  0  0  0
M  END
>  <MODEL>
2

>  <REMARK>
 VINA RESULT:      -9.3      2.542      5.937
  Name = 
  3 active torsions:
  status: ('A' for Active; 'I' for Inactive)
    1  A    between atoms: C_6  and  C_7
    2  A    between atoms: C_11  and  C_19
    3  A    between atoms: C_18  and  C_19
                            x       y       z     vdW  Elec       q    Type
                         _______ _______ _______ _____ _____    ______ ____

>  <TORSDO>
F 3

$$$$
=
 OpenBabel11062415453D

 27 32  0  0  1  0  0  0  0  0999 V2000
  184.4010  178.9980  145.8560 C   0  0  0  0  0  3  0  0  0  0  0  0
  184.0580  178.5810  143.4980 C   0  0  0  0  0  0  0  0  0  0  0  0
  185.6410  178.3670  145.7740 C   0  0  0  0  0  0  0  0  0  0  0  0
  187.3200  177.2140  144.4580 C   0  0  0  0  0  0  0  0  0  0  0  0
  186.0720  177.8510  144.5340 C   0  0  0  0  0  0  0  0  0  0  0  0
  188.1040  177.1010  145.6100 C   0  0  0  0  0  3  0  0  0  0  0  0
  183.6020  179.1060  144.7150 C   0  0  0  0  0  3  0  0  0  0  0  0
  186.4290  178.2470  146.8750 N   0  0  0  0  0  0  0  0  0  0  0  0
  185.2740  177.9730  143.4380 N   0  0  0  0  0  0  0  0  0  0  0  0
  187.6400  177.6290  146.8170 C   0  0  0  0  0  3  0  0  0  0  0  0
  181.3600  178.9560  140.9530 C   0  0  0  0  0  3  0  0  0  0  0  0
  183.2330  178.6730  142.2840 C   0  0  0  0  0  0  0  0  0  0  0  0
  183.7180  178.5260  141.0950 N   0  0  0  0  0  0  0  0  0  0  0  0
  181.8300  178.9350  142.3280 N   0  0  0  0  0  0  0  0  0  0  0  0
  182.6170  178.6880  140.2180 C   0  0  0  0  0  0  0  0  0  0  0  0
  182.7140  178.6110  138.9650 O   0  0  0  0  0  0  0  0  0  0  0  0
  187.8170  176.6280  143.1740 C   0  0  0  0  0  2  0  0  0  0  0  0
  190.1760  176.0340  142.6870 C   0  0  1  0  0  3  0  0  0  0  0  0
  191.5310  177.6100  145.3480 C   0  0  0  0  0  2  0  0  0  0  0  0
  191.6010  176.1720  145.5540 N   0  0  0  0  0  2  0  0  0  0  0  0
  189.7850  177.1100  140.2640 O   0  0  0  0  0  0  0  0  0  0  0  0
  191.5270  176.5320  143.1880 C   0  0  2  0  0  3  0  0  0  0  0  0
  189.2350  177.0890  142.8680 C   0  0  1  0  0  0  0  0  0  0  0  0
  192.0270  175.6140  144.2810 C   0  0  0  0  0  2  0  0  0  0  0  0
  189.7390  176.8450  141.4540 C   0  0  0  0  0  0  0  0  0  0  0  0
  191.3080  177.8650  143.8700 C   0  0  1  0  0  3  0  0  0  0  0  0
  189.8620  178.2440  143.6250 C   0  0  0  0  0  2  0  0  0  0  0  0
  2  7  1  0  0  0  0
  3  1  1  0  0  0  0
  3  8  1  0  0  0  0
  4  5  1  0  0  0  0
  4  6  2  0  0  0  0
  5  3  2  0  0  0  0
  6 10  1  0  0  0  0
  7  1  2  0  0  0  0
  9  2  2  0  0  0  0
  9  5  1  0  0  0  0
 10  8  2  0  0  0  0
 11 14  2  0  0  0  0
 12 14  1  0  0  0  0
 12  2  1  0  0  0  0
 13 12  2  0  0  0  0
 15 11  1  0  0  0  0
 15 13  1  0  0  0  0
 16 15  2  0  0  0  0
 17  4  1  0  0  0  0
 18 25  1  6  0  0  0
 18 23  1  0  0  0  0
 18 22  1  0  0  0  0
 19 20  1  0  0  0  0
 21 25  2  0  0  0  0
 22 26  1  0  0  0  0
 22 24  1  1  0  0  0
 23 17  1  1  0  0  0
 23 27  1  0  0  0  0
 24 20  1  0  0  0  0
 25 23  1  0  0  0  0
 26 27  1  1  0  0  0
 26 19  1  0  0  0  0
M  END
>  <MODEL>
3

>  <REMARK>
 VINA RESULT:      -9.3      1.323      1.604
  Name = 
  3 active torsions:
  status: ('A' for Active; 'I' for Inactive)
    1  A    between atoms: C_6  and  C_7
    2  A    between atoms: C_11  and  C_19
    3  A    between atoms: C_18  and  C_19
                            x       y       z     vdW  Elec       q    Type
                         _______ _______ _______ _____ _____    ______ ____

>  <TORSDO>
F 3

$$$$
=
 OpenBabel11062415453D

 27 32  0  0  1  0  0  0  0  0999 V2000
  188.0300  177.1140  147.4890 C   0  0  0  0  0  3  0  0  0  0  0  0
  186.7330  178.0100  145.6540 C   0  0  0  0  0  0  0  0  0  0  0  0
  189.1880  177.2660  146.7280 C   0  0  0  0  0  0  0  0  0  0  0  0
  190.2610  177.9480  144.6630 C   0  0  0  0  0  0  0  0  0  0  0  0
  189.0930  177.7990  145.4260 C   0  0  0  0  0  0  0  0  0  0  0  0
  191.4890  177.5610  145.2070 C   0  0  0  0  0  3  0  0  0  0  0  0
  186.7950  177.4850  146.9520 C   0  0  0  0  0  3  0  0  0  0  0  0
  190.3980  176.9040  147.2310 N   0  0  0  0  0  0  0  0  0  0  0  0
  187.8760  178.1550  144.9290 N   0  0  0  0  0  0  0  0  0  0  0  0
  191.5390  177.0390  146.5020 C   0  0  0  0  0  3  0  0  0  0  0  0
  183.2670  179.1730  144.9260 C   0  0  0  0  0  3  0  0  0  0  0  0
  185.4450  178.3990  145.0610 C   0  0  0  0  0  0  0  0  0  0  0  0
  185.2060  178.3260  143.7930 N   0  0  0  0  0  0  0  0  0  0  0  0
  184.3580  178.8940  145.8450 N   0  0  0  0  0  0  0  0  0  0  0  0
  183.8770  178.7890  143.6330 C   0  0  0  0  0  0  0  0  0  0  0  0
  183.2990  178.8580  142.5170 O   0  0  0  0  0  0  0  0  0  0  0  0
  190.2160  178.4860  143.2670 C   0  0  0  0  0  2  0  0  0  0  0  0
  190.6720  177.0450  141.2990 C   0  0  1  0  0  3  0  0  0  0  0  0
  188.2340  178.2970  139.3270 C   0  0  0  0  0  2  0  0  0  0  0  0
  189.5280  178.7440  138.8340 N   0  0  0  0  0  2  0  0  0  0  0  0
  190.4220  174.9600  142.9630 O   0  0  0  0  0  0  0  0  0  0  0  0
  189.9050  176.7020  140.0280 C   0  0  2  0  0  3  0  0  0  0  0  0
  189.7190  177.4350  142.2850 C   0  0  1  0  0  0  0  0  0  0  0  0
  190.3930  177.5770  138.8950 C   0  0  0  0  0  2  0  0  0  0  0  0
  190.3200  176.0440  142.4150 C   0  0  0  0  0  0  0  0  0  0  0  0
  188.4600  177.1030  140.2330 C   0  0  1  0  0  3  0  0  0  0  0  0
  188.3300  177.5230  141.6830 C   0  0  0  0  0  2  0  0  0  0  0  0
  2  7  2  0  0  0  0
  3  8  1  0  0  0  0
  3  1  2  0  0  0  0
  4  6  2  0  0  0  0
  4  5  1  0  0  0  0
  5  3  1  0  0  0  0
  6 10  1  0  0  0  0
  7  1  1  0  0  0  0
  9  5  2  0  0  0  0
  9  2  1  0  0  0  0
 10  8  2  0  0  0  0
 11 14  2  0  0  0  0
 12  2  1  0  0  0  0
 12 14  1  0  0  0  0
 13 12  2  0  0  0  0
 15 13  1  0  0  0  0
 15 11  1  0  0  0  0
 16 15  2  0  0  0  0
 17  4  1  0  0  0  0
 18 23  1  0  0  0  0
 18 25  1  1  0  0  0
 20 24  1  0  0  0  0
 20 19  1  0  0  0  0
 22 24  1  6  0  0  0
 22 26  1  0  0  0  0
 22 18  1  0  0  0  0
 23 25  1  0  0  0  0
 23 17  1  1  0  0  0
 25 21  2  0  0  0  0
 26 19  1  6  0  0  0
 26 27  1  0  0  0  0
 27 23  1  0  0  0  0
M  END
>  <MODEL>
4

>  <REMARK>
 VINA RESULT:      -9.2      2.336      4.792
  Name = 
  3 active torsions:
  status: ('A' for Active; 'I' for Inactive)
    1  A    between atoms: C_6  and  C_7
    2  A    between atoms: C_11  and  C_19
    3  A    between atoms: C_18  and  C_19
                            x       y       z     vdW  Elec       q    Type
                         _______ _______ _______ _____ _____    ______ ____

>  <TORSDO>
F 3

$$$$
=
 OpenBabel11062415453D

 27 32  0  0  1  0  0  0  0  0999 V2000
  185.9410  178.7620  146.7340 C   0  0  0  0  0  3  0  0  0  0  0  0
  184.9970  178.4190  144.5330 C   0  0  0  0  0  0  0  0  0  0  0  0
  187.0880  178.0780  146.3340 C   0  0  0  0  0  0  0  0  0  0  0  0
  188.3230  176.8830  144.6230 C   0  0  0  0  0  0  0  0  0  0  0  0
  187.1680  177.5740  145.0190 C   0  0  0  0  0  0  0  0  0  0  0  0
  189.3640  176.7070  145.5390 C   0  0  0  0  0  3  0  0  0  0  0  0
  184.8880  178.9340  145.8320 C   0  0  0  0  0  3  0  0  0  0  0  0
  188.1200  177.8950  147.2000 N   0  0  0  0  0  0  0  0  0  0  0  0
  186.1270  177.7580  144.1610 N   0  0  0  0  0  0  0  0  0  0  0  0
  189.2450  177.2240  146.8310 C   0  0  0  0  0  3  0  0  0  0  0  0
  182.7800  178.5800  141.5400 C   0  0  0  0  0  3  0  0  0  0  0  0
  183.8990  178.5780  143.5670 C   0  0  0  0  0  0  0  0  0  0  0  0
  182.7120  178.9540  143.9110 N   0  0  0  0  0  0  0  0  0  0  0  0
  184.0640  178.3230  142.1710 N   0  0  0  0  0  0  0  0  0  0  0  0
  181.9630  178.9780  142.7090 C   0  0  0  0  0  0  0  0  0  0  0  0
  180.7480  179.3020  142.6580 O   0  0  0  0  0  0  0  0  0  0  0  0
  188.4520  176.3070  143.2480 C   0  0  0  0  0  2  0  0  0  0  0  0
  188.8560  178.2290  141.7310 C   0  0  1  0  0  3  0  0  0  0  0  0
  189.9280  176.4200  139.0890 C   0  0  0  0  0  2  0  0  0  0  0  0
  188.6030  176.9510  138.8030 N   0  0  0  0  0  2  0  0  0  0  0  0
  190.4070  179.2350  143.6710 O   0  0  0  0  0  0  0  0  0  0  0  0
  189.6040  178.4110  140.4160 C   0  0  2  0  0  3  0  0  0  0  0  0
  189.4300  177.1090  142.4020 C   0  0  1  0  0  0  0  0  0  0  0  0
  188.6260  178.3290  139.2660 C   0  0  0  0  0  2  0  0  0  0  0  0
  189.8010  178.4910  142.9180 C   0  0  0  0  0  0  0  0  0  0  0  0
  190.5200  177.2200  140.2330 C   0  0  1  0  0  3  0  0  0  0  0  0
  190.4470  176.4170  141.5160 C   0  0  0  0  0  2  0  0  0  0  0  0
  2  7  1  0  0  0  0
  3  1  1  0  0  0  0
  3  8  1  0  0  0  0
  4  5  1  0  0  0  0
  4  6  2  0  0  0  0
  5  3  2  0  0  0  0
  6 10  1  0  0  0  0
  7  1  2  0  0  0  0
  9  2  2  0  0  0  0
  9  5  1  0  0  0  0
 10  8  2  0  0  0  0
 11 14  2  0  0  0  0
 11 15  1  0  0  0  0
 12 13  2  0  0  0  0
 12  2  1  0  0  0  0
 14 12  1  0  0  0  0
 15 13  1  0  0  0  0
 16 15  2  0  0  0  0
 17  4  1  0  0  0  0
 18 23  1  0  0  0  0
 18 25  1  1  0  0  0
 20 19  1  0  0  0  0
 20 24  1  0  0  0  0
 22 24  1  6  0  0  0
 22 18  1  0  0  0  0
 23 25  1  0  0  0  0
 23 17  1  1  0  0  0
 25 21  2  0  0  0  0
 26 19  1  6  0  0  0
 26 22  1  0  0  0  0
 26 27  1  0  0  0  0
 27 23  1  0  0  0  0
M  END
>  <MODEL>
5

>  <REMARK>
 VINA RESULT:      -8.9      2.294      3.686
  Name = 
  3 active torsions:
  status: ('A' for Active; 'I' for Inactive)
    1  A    between atoms: C_6  and  C_7
    2  A    between atoms: C_11  and  C_19
    3  A    between atoms: C_18  and  C_19
                            x       y       z     vdW  Elec       q    Type
                         _______ _______ _______ _____ _____    ______ ____

>  <TORSDO>
F 3

$$$$
=
 OpenBabel11062415453D

 27 32  0  0  1  0  0  0  0  0999 V2000
  188.7470  177.9260  147.0170 C   0  0  0  0  0  3  0  0  0  0  0  0
  186.9890  177.9670  145.3570 C   0  0  0  0  0  0  0  0  0  0  0  0
  189.5810  177.2880  146.1000 C   0  0  0  0  0  0  0  0  0  0  0  0
  189.9350  176.3550  143.8900 C   0  0  0  0  0  0  0  0  0  0  0  0
  189.0930  177.0010  144.8080 C   0  0  0  0  0  0  0  0  0  0  0  0
  191.2330  176.0070  144.2760 C   0  0  0  0  0  3  0  0  0  0  0  0
  187.4440  178.2680  146.6480 C   0  0  0  0  0  3  0  0  0  0  0  0
  190.8490  176.9430  146.4440 N   0  0  0  0  0  0  0  0  0  0  0  0
  187.8190  177.3470  144.4750 N   0  0  0  0  0  0  0  0  0  0  0  0
  191.6760  176.3130  145.5650 C   0  0  0  0  0  3  0  0  0  0  0  0
  183.4160  179.0020  145.1080 C   0  0  0  0  0  3  0  0  0  0  0  0
  185.6180  178.3060  144.9450 C   0  0  0  0  0  0  0  0  0  0  0  0
  185.2100  178.2130  143.7220 N   0  0  0  0  0  0  0  0  0  0  0  0
  184.6320  178.7680  145.8690 N   0  0  0  0  0  0  0  0  0  0  0  0
  183.8560  178.6280  143.7450 C   0  0  0  0  0  0  0  0  0  0  0  0
  183.1280  178.6680  142.7190 O   0  0  0  0  0  0  0  0  0  0  0  0
  189.4620  176.0050  142.5140 C   0  0  0  0  0  2  0  0  0  0  0  0
  189.0780  177.1030  140.3220 C   0  0  1  0  0  3  0  0  0  0  0  0
  192.0940  176.3760  138.9890 C   0  0  0  0  0  2  0  0  0  0  0  0
  191.0750  175.5640  138.3420 N   0  0  0  0  0  2  0  0  0  0  0  0
  188.4730  179.3140  141.7100 O   0  0  0  0  0  0  0  0  0  0  0  0
  189.9790  177.5270  139.1690 C   0  0  2  0  0  3  0  0  0  0  0  0
  189.8780  177.0630  141.5020 C   0  0  1  0  0  0  0  0  0  0  0  0
  189.9580  176.4620  138.0950 C   0  0  0  0  0  2  0  0  0  0  0  0
  188.9430  178.2510  141.3370 C   0  0  0  0  0  0  0  0  0  0  0  0
  191.4060  177.5410  139.6740 C   0  0  1  0  0  3  0  0  0  0  0  0
  191.3390  177.2940  141.1670 C   0  0  0  0  0  2  0  0  0  0  0  0
  2  7  2  0  0  0  0
  3  8  1  0  0  0  0
  3  1  2  0  0  0  0
  4  6  2  0  0  0  0
  4  5  1  0  0  0  0
  5  3  1  0  0  0  0
  6 10  1  0  0  0  0
  7  1  1  0  0  0  0
  9  5  2  0  0  0  0
  9  2  1  0  0  0  0
 10  8  2  0  0  0  0
 11 14  2  0  0  0  0
 12  2  1  0  0  0  0
 12 14  1  0  0  0  0
 13 15  1  0  0  0  0
 13 12  2  0  0  0  0
 15 11  1  0  0  0  0
 16 15  2  0  0  0  0
 17  4  1  0  0  0  0
 18 25  1  1  0  0  0
 18 23  1  0  0  0  0
 20 19  1  0  0  0  0
 22 24  1  6  0  0  0
 22 26  1  0  0  0  0
 22 18  1  0  0  0  0
 23 17  1  1  0  0  0
 24 20  1  0  0  0  0
 25 23  1  0  0  0  0
 25 21  2  0  0  0  0
 26 19  1  6  0  0  0
 26 27  1  0  0  0  0
 27 23  1  0  0  0  0
M  END
>  <MODEL>
6

>  <REMARK>
 VINA RESULT:      -8.8      2.588      4.799
  Name = 
  3 active torsions:
  status: ('A' for Active; 'I' for Inactive)
    1  A    between atoms: C_6  and  C_7
    2  A    between atoms: C_11  and  C_19
    3  A    between atoms: C_18  and  C_19
                            x       y       z     vdW  Elec       q    Type
                         _______ _______ _______ _____ _____    ______ ____

>  <TORSDO>
F 3

$$$$
=
 OpenBabel11062415453D

 27 32  0  0  1  0  0  0  0  0999 V2000
  188.3310  178.2860  138.5930 C   0  0  0  0  0  3  0  0  0  0  0  0
  190.2150  176.8150  138.9630 C   0  0  0  0  0  0  0  0  0  0  0  0
  187.9740  178.1460  139.9340 C   0  0  0  0  0  0  0  0  0  0  0  0
  188.3950  177.1910  142.1230 C   0  0  0  0  0  0  0  0  0  0  0  0
  188.7610  177.3320  140.7750 C   0  0  0  0  0  0  0  0  0  0  0  0
  187.2610  177.8550  142.5980 C   0  0  0  0  0  3  0  0  0  0  0  0
  189.4550  177.6190  138.1020 C   0  0  0  0  0  3  0  0  0  0  0  0
  186.8800  178.7830  140.4270 N   0  0  0  0  0  0  0  0  0  0  0  0
  189.8520  176.6940  140.2700 N   0  0  0  0  0  0  0  0  0  0  0  0
  186.5110  178.6530  141.7310 C   0  0  0  0  0  3  0  0  0  0  0  0
  192.6710  174.3860  137.5620 C   0  0  0  0  0  3  0  0  0  0  0  0
  191.3970  176.0930  138.4700 C   0  0  0  0  0  0  0  0  0  0  0  0
  192.5830  176.6060  138.4710 N   0  0  0  0  0  0  0  0  0  0  0  0
  191.3220  174.7650  137.9480 N   0  0  0  0  0  0  0  0  0  0  0  0
  193.4250  175.6080  137.9230 C   0  0  0  0  0  0  0  0  0  0  0  0
  194.6650  175.7590  137.7680 O   0  0  0  0  0  0  0  0  0  0  0  0
  189.1800  176.3220  143.0540 C   0  0  0  0  0  2  0  0  0  0  0  0
  191.2880  176.4430  144.3570 C   0  0  1  0  0  3  0  0  0  0  0  0
  189.8700  177.2310  147.3190 C   0  0  0  0  0  2  0  0  0  0  0  0
  190.3550  175.8600  147.3670 N   0  0  0  0  0  2  0  0  0  0  0  0
  192.1430  178.1930  142.5170 O   0  0  0  0  0  0  0  0  0  0  0  0
  191.6680  177.0030  145.7220 C   0  0  2  0  0  3  0  0  0  0  0  0
  190.1310  177.1460  143.9090 C   0  0  1  0  0  0  0  0  0  0  0  0
  191.6670  175.8860  146.7420 C   0  0  0  0  0  2  0  0  0  0  0  0
  191.4610  177.5250  143.2760 C   0  0  0  0  0  0  0  0  0  0  0  0
  190.5610  177.9350  146.1670 C   0  0  1  0  0  3  0  0  0  0  0  0
  189.6080  178.0650  144.9960 C   0  0  0  0  0  2  0  0  0  0  0  0
  1  3  1  0  0  0  0
  2  9  2  0  0  0  0
  3  8  2  0  0  0  0
  3  5  1  0  0  0  0
  4  6  1  0  0  0  0
  4 17  1  0  0  0  0
  5  4  2  0  0  0  0
  7  1  2  0  0  0  0
  7  2  1  0  0  0  0
  8 10  1  0  0  0  0
  9  5  1  0  0  0  0
 10  6  2  0  0  0  0
 11 15  1  0  0  0  0
 11 14  2  0  0  0  0
 12 13  2  0  0  0  0
 12  2  1  0  0  0  0
 14 12  1  0  0  0  0
 15 13  1  0  0  0  0
 16 15  2  0  0  0  0
 18 25  1  6  0  0  0
 18 22  1  0  0  0  0
 19 20  1  0  0  0  0
 21 25  2  0  0  0  0
 22 26  1  0  0  0  0
 22 24  1  1  0  0  0
 23 17  1  6  0  0  0
 23 18  1  0  0  0  0
 23 27  1  0  0  0  0
 24 20  1  0  0  0  0
 25 23  1  0  0  0  0
 26 27  1  6  0  0  0
 26 19  1  0  0  0  0
M  END
>  <MODEL>
7

>  <REMARK>
 VINA RESULT:      -8.6      3.839      6.015
  Name = 
  3 active torsions:
  status: ('A' for Active; 'I' for Inactive)
    1  A    between atoms: C_6  and  C_7
    2  A    between atoms: C_11  and  C_19
    3  A    between atoms: C_18  and  C_19
                            x       y       z     vdW  Elec       q    Type
                         _______ _______ _______ _____ _____    ______ ____

>  <TORSDO>
F 3

$$$$
=
 OpenBabel11062415453D

 27 32  0  0  1  0  0  0  0  0999 V2000
  191.6900  177.5690  143.5220 C   0  0  0  0  0  3  0  0  0  0  0  0
  190.2520  177.2350  141.6060 C   0  0  0  0  0  0  0  0  0  0  0  0
  190.5870  177.4160  144.3610 C   0  0  0  0  0  0  0  0  0  0  0  0
  188.2110  177.0200  144.6430 C   0  0  0  0  0  0  0  0  0  0  0  0
  189.3190  177.1690  143.7950 C   0  0  0  0  0  0  0  0  0  0  0  0
  188.3870  177.1240  146.0260 C   0  0  0  0  0  3  0  0  0  0  0  0
  191.5250  177.4790  142.1390 C   0  0  0  0  0  3  0  0  0  0  0  0
  190.7270  177.5060  145.7100 N   0  0  0  0  0  0  0  0  0  0  0  0
  189.1880  177.0850  142.4420 N   0  0  0  0  0  0  0  0  0  0  0  0
  189.6610  177.3670  146.5450 C   0  0  0  0  0  3  0  0  0  0  0  0
  189.3810  177.7450  138.0170 C   0  0  0  0  0  3  0  0  0  0  0  0
  190.0480  177.1470  140.1530 C   0  0  0  0  0  0  0  0  0  0  0  0
  190.4450  176.1380  139.4490 N   0  0  0  0  0  0  0  0  0  0  0  0
  189.3960  178.1750  139.4050 N   0  0  0  0  0  0  0  0  0  0  0  0
  190.0680  176.4370  138.1170 C   0  0  0  0  0  0  0  0  0  0  0  0
  190.2970  175.6700  137.1450 O   0  0  0  0  0  0  0  0  0  0  0  0
  186.8390  176.7800  144.0960 C   0  0  0  0  0  2  0  0  0  0  0  0
  184.6910  178.0200  144.0310 C   0  0  1  0  0  3  0  0  0  0  0  0
  184.8500  178.9040  140.7760 C   0  0  0  0  0  2  0  0  0  0  0  0
  183.8280  177.8830  140.9470 N   0  0  0  0  0  2  0  0  0  0  0  0
  185.6350  179.4530  146.0890 O   0  0  0  0  0  0  0  0  0  0  0  0
  184.0540  179.0010  143.0540 C   0  0  2  0  0  3  0  0  0  0  0  0
  186.1040  178.0900  143.8530 C   0  0  1  0  0  0  0  0  0  0  0  0
  183.0980  178.2580  142.1480 C   0  0  0  0  0  2  0  0  0  0  0  0
  185.5250  178.7830  145.0760 C   0  0  0  0  0  0  0  0  0  0  0  0
  185.1420  179.5130  142.1340 C   0  0  1  0  0  3  0  0  0  0  0  0
  186.4520  178.9740  142.6710 C   0  0  0  0  0  2  0  0  0  0  0  0
  1  3  1  0  0  0  0
  2  7  1  0  0  0  0
  2  9  2  0  0  0  0
  3  8  1  0  0  0  0
  4  6  2  0  0  0  0
  5  3  2  0  0  0  0
  5  4  1  0  0  0  0
  6 10  1  0  0  0  0
  7  1  2  0  0  0  0
  8 10  2  0  0  0  0
  9  5  1  0  0  0  0
 11 15  1  0  0  0  0
 11 14  2  0  0  0  0
 12  2  1  0  0  0  0
 13 12  2  0  0  0  0
 14 12  1  0  0  0  0
 15 13  1  0  0  0  0
 16 15  2  0  0  0  0
 17  4  1  0  0  0  0
 18 25  1  1  0  0  0
 19 20  1  0  0  0  0
 20 24  1  0  0  0  0
 22 24  1  6  0  0  0
 22 18  1  0  0  0  0
 23 18  1  0  0  0  0
 23 17  1  1  0  0  0
 23 25  1  0  0  0  0
 25 21  2  0  0  0  0
 26 19  1  6  0  0  0
 26 27  1  0  0  0  0
 26 22  1  0  0  0  0
 27 23  1  0  0  0  0
M  END
>  <MODEL>
8

>  <REMARK>
 VINA RESULT:      -8.6      2.809      6.097
  Name = 
  3 active torsions:
  status: ('A' for Active; 'I' for Inactive)
    1  A    between atoms: C_6  and  C_7
    2  A    between atoms: C_11  and  C_19
    3  A    between atoms: C_18  and  C_19
                            x       y       z     vdW  Elec       q    Type
                         _______ _______ _______ _____ _____    ______ ____

>  <TORSDO>
F 3

$$$$
=
 OpenBabel11062415453D

 27 32  0  0  1  0  0  0  0  0999 V2000
  187.3400  178.5870  148.0860 C   0  0  0  0  0  3  0  0  0  0  0  0
  189.1460  177.3460  147.0630 C   0  0  0  0  0  0  0  0  0  0  0  0
  186.6080  178.4710  146.9050 C   0  0  0  0  0  0  0  0  0  0  0  0
  186.4300  177.6690  144.6230 C   0  0  0  0  0  0  0  0  0  0  0  0
  187.1700  177.7800  145.8110 C   0  0  0  0  0  0  0  0  0  0  0  0
  185.1600  178.2470  144.5490 C   0  0  0  0  0  3  0  0  0  0  0  0
  188.6150  178.0250  148.1680 C   0  0  0  0  0  3  0  0  0  0  0  0
  185.3680  179.0180  146.8040 N   0  0  0  0  0  0  0  0  0  0  0  0
  188.4140  177.2400  145.9200 N   0  0  0  0  0  0  0  0  0  0  0  0
  184.6410  178.9210  145.6580 C   0  0  0  0  0  3  0  0  0  0  0  0
  192.3940  175.6280  146.4300 C   0  0  0  0  0  3  0  0  0  0  0  0
  190.4910  176.7530  147.1190 C   0  0  0  0  0  0  0  0  0  0  0  0
  191.2380  176.8100  148.1710 N   0  0  0  0  0  0  0  0  0  0  0  0
  191.0740  176.0690  146.0090 N   0  0  0  0  0  0  0  0  0  0  0  0
  192.4330  176.1350  147.8200 C   0  0  0  0  0  0  0  0  0  0  0  0
  193.4040  175.9920  148.6090 O   0  0  0  0  0  0  0  0  0  0  0  0
  186.9860  176.9670  143.4240 C   0  0  0  0  0  2  0  0  0  0  0  0
  187.6170  177.6010  141.1100 C   0  0  1  0  0  3  0  0  0  0  0  0
  190.9600  177.5030  141.5780 C   0  0  0  0  0  2  0  0  0  0  0  0
  190.5560  176.3690  140.7600 N   0  0  0  0  0  2  0  0  0  0  0  0
  186.0540  179.7530  141.4390 O   0  0  0  0  0  0  0  0  0  0  0  0
  188.9050  178.0760  140.4480 C   0  0  2  0  0  3  0  0  0  0  0  0
  187.6930  177.9400  142.4930 C   0  0  1  0  0  0  0  0  0  0  0  0
  189.6010  176.9010  139.8000 C   0  0  0  0  0  2  0  0  0  0  0  0
  186.8060  178.8080  141.6140 C   0  0  0  0  0  0  0  0  0  0  0  0
  189.8490  178.5340  141.5390 C   0  0  1  0  0  3  0  0  0  0  0  0
  189.0630  178.4940  142.8340 C   0  0  0  0  0  2  0  0  0  0  0  0
  1  7  1  0  0  0  0
  2 12  1  0  0  0  0
  2  7  2  0  0  0  0
  3  1  2  0  0  0  0
  4  5  1  0  0  0  0
  5  9  2  0  0  0  0
  5  3  1  0  0  0  0
  6  4  2  0  0  0  0
  6 10  1  0  0  0  0
  8  3  1  0  0  0  0
  9  2  1  0  0  0  0
 10  8  2  0  0  0  0
 11 15  1  0  0  0  0
 12 13  2  0  0  0  0
 14 11  2  0  0  0  0
 14 12  1  0  0  0  0
 15 13  1  0  0  0  0
 15 16  2  0  0  0  0
 17  4  1  0  0  0  0
 18 25  1  6  0  0  0
 18 23  1  0  0  0  0
 20 19  1  0  0  0  0
 21 25  2  0  0  0  0
 22 24  1  1  0  0  0
 22 18  1  0  0  0  0
 22 26  1  0  0  0  0
 23 27  1  0  0  0  0
 23 17  1  1  0  0  0
 24 20  1  0  0  0  0
 25 23  1  0  0  0  0
 26 19  1  1  0  0  0
 26 27  1  0  0  0  0
M  END
>  <MODEL>
9

>  <REMARK>
 VINA RESULT:      -8.5      2.927      6.375
  Name = 
  3 active torsions:
  status: ('A' for Active; 'I' for Inactive)
    1  A    between atoms: C_6  and  C_7
    2  A    between atoms: C_11  and  C_19
    3  A    between atoms: C_18  and  C_19
                            x       y       z     vdW  Elec       q    Type
                         _______ _______ _______ _____ _____    ______ ____

>  <TORSDO>
F 3

$$$$
