=
 OpenBabel11062414363D

 38 42  0  0  1  0  0  0  0  0999 V2000
  185.6200  178.0790  140.8450 C   0  0  0  0  0  2  0  0  0  0  0  0
  181.2590  176.9240  139.8400 C   0  0  0  0  0  2  0  0  0  0  0  0
  187.1580  178.1990  144.3530 C   0  0  2  0  0  3  0  0  0  0  0  0
  180.2010  179.2850  143.2200 C   0  0  2  0  0  3  0  0  0  0  0  0
  185.1040  179.1300  146.9660 O   0  0  0  0  0  1  0  0  0  0  0  0
  184.7300  179.8750  144.7260 C   0  0  0  0  0  2  0  0  0  0  0  0
  179.1780  178.5660  142.3140 C   0  0  0  0  0  2  0  0  0  0  0  0
  184.2990  178.2340  142.8160 C   0  0  1  0  0  3  0  0  0  0  0  0
  180.4000  180.5770  142.7310 O   0  0  0  0  0  1  0  0  0  0  0  0
  179.8630  176.5500  139.3810 C   0  0  1  0  0  3  0  0  0  0  0  0
  185.7120  179.2430  145.7170 C   0  0  2  0  0  3  0  0  0  0  0  0
  179.7560  175.1620  139.3160 O   0  0  0  0  0  1  0  0  0  0  0  0
  184.1440  178.1110  140.4380 C   0  0  1  0  0  3  0  0  0  0  0  0
  181.5620  178.5530  143.3760 C   0  0  2  0  0  3  0  0  0  0  0  0
  183.3980  178.5820  141.6720 C   0  0  1  0  0  3  0  0  0  0  0  0
  178.9310  177.0860  140.4570 C   0  0  0  0  0  2  0  0  0  0  0  0
  182.4970  179.4580  143.9610 O   0  0  0  0  0  0  0  0  0  0  0  0
  182.0820  177.9100  142.0400 C   0  0  2  0  0  3  0  0  0  0  0  0
  185.7030  178.4950  142.3100 C   0  0  1  0  0  3  0  0  0  0  0  0
  181.0030  177.8970  140.9660 C   0  0  2  0  0  3  0  0  0  0  0  0
  186.1440  177.9760  145.2960 O   0  0  0  0  0  0  0  0  0  0  0  0
  183.7670  178.8520  144.1350 C   0  0  2  0  0  3  0  0  0  0  0  0
  179.7710  177.4490  141.5850 N   0  0  1  0  0  0  0  0  0  0  0  0
  186.7280  177.6120  143.0080 C   0  0  0  0  0  2  0  0  0  0  0  0
  185.2680  180.0000  138.7900 O   0  0  0  0  0  1  0  0  0  0  0  0
  183.9490  179.3280  139.0950 P   0  0  1  0  0  0  0  0  0  0  0  0
  183.4030  178.5380  137.7030 O   0  0  0  0  0  0  0  0  0  0  0  0
  183.0270  181.5130  138.7350 O   0  0  0  0  0  1  0  0  0  0  0  0
  182.8100  180.4980  139.5460 O   0  0  0  0  0  0  0  0  0  0  0  0
  188.4990  177.6300  144.8580 C   0  0  2  0  0  0  0  0  0  0  0  0
  188.4120  177.2190  146.3240 C   0  0  0  0  0  1  0  0  0  0  0  0
  189.4740  178.6200  144.7430 O   0  0  0  0  0  1  0  0  0  0  0  0
  188.9470  176.4440  144.0030 C   0  0  0  0  0  2  0  0  0  0  0  0
  190.3330  176.5140  143.6880 O   0  0  0  0  0  0  0  0  0  0  0  0
  190.8580  176.7480  142.4080 C   0  0  0  0  0  0  0  0  0  0  0  0
  191.9870  177.2990  142.3240 O   0  0  0  0  0  0  0  0  0  0  0  0
  189.5500  177.2200  140.4230 C   0  0  0  0  0  2  0  0  0  0  0  0
  190.1840  176.3950  141.1890 N   0  0  0  0  0  0  0  0  0  0  0  0
  1 19  1  0  0  0  0
  2 20  1  0  0  0  0
  3 30  1  1  0  0  0
  3 21  1  0  0  0  0
  4  9  1  6  0  0  0
  4 14  1  0  0  0  0
  6 11  1  0  0  0  0
  7  4  1  0  0  0  0
  8 22  1  0  0  0  0
 10  2  1  0  0  0  0
 10 16  1  0  0  0  0
 11  5  1  0  0  0  0
 12 10  1  0  0  0  0
 13  1  1  0  0  0  0
 13 15  1  0  0  0  0
 14 17  1  0  0  0  0
 15 18  1  0  0  0  0
 15  8  1  0  0  0  0
 16 23  1  0  0  0  0
 17 22  1  0  0  0  0
 18 14  1  0  0  0  0
 19  8  1  0  0  0  0
 19 24  1  0  0  0  0
 20 23  1  0  0  0  0
 20 18  1  0  0  0  0
 21 11  1  0  0  0  0
 22  6  1  0  0  0  0
 23  7  1  0  0  0  0
 24  3  1  0  0  0  0
 25 26  1  0  0  0  0
 26 29  1  0  0  0  0
 26 13  1  0  0  0  0
 27 26  2  0  0  0  0
 28 29  1  0  0  0  0
 30 31  1  0  0  0  0
 32 30  1  0  0  0  0
 33 30  1  0  0  0  0
 34 33  1  0  0  0  0
 35 34  1  0  0  0  0
 36 35  2  0  0  0  0
 37 38  2  0  0  0  0
 38 35  1  0  0  0  0
M  END
>  <MODEL>
1

>  <REMARK>
 VINA RESULT:      -7.3      0.000      0.000
  Name = 
  7 active torsions:
  status: ('A' for Active; 'I' for Inactive)
    1  A    between atoms: C_3  and  O_34
    2  A    between atoms: C_3  and  N_38
    3  A    between atoms: C_5  and  C_15
    4  A    between atoms: C_15  and  C_22
    5  A    between atoms: C_17  and  P_20
    6  A    between atoms: P_20  and  O_30
    7  A    between atoms: C_22  and  O_34
                            x       y       z     vdW  Elec       q    Type
                         _______ _______ _______ _____ _____    ______ ____

>  <TORSDO>
F 7

$$$$
=
 OpenBabel11062414363D

 38 42  0  0  1  0  0  0  0  0999 V2000
  185.6210  177.9390  140.7720 C   0  0  0  0  0  2  0  0  0  0  0  0
  181.2750  176.8220  139.6650 C   0  0  0  0  0  2  0  0  0  0  0  0
  187.0470  178.1530  144.3220 C   0  0  2  0  0  3  0  0  0  0  0  0
  180.1500  179.3130  142.9280 C   0  0  2  0  0  3  0  0  0  0  0  0
  184.9280  179.2060  146.8350 O   0  0  0  0  0  1  0  0  0  0  0  0
  184.6390  179.8800  144.5600 C   0  0  0  0  0  2  0  0  0  0  0  0
  179.1450  178.5800  142.0140 C   0  0  0  0  0  2  0  0  0  0  0  0
  184.2400  178.1820  142.6930 C   0  0  1  0  0  3  0  0  0  0  0  0
  180.3870  180.5840  142.4020 O   0  0  0  0  0  1  0  0  0  0  0  0
  179.8880  176.4550  139.1730 C   0  0  1  0  0  3  0  0  0  0  0  0
  185.5770  179.2660  145.6030 C   0  0  2  0  0  3  0  0  0  0  0  0
  179.7580  175.0670  139.1510 O   0  0  0  0  0  1  0  0  0  0  0  0
  184.1590  177.9810  140.3160 C   0  0  1  0  0  3  0  0  0  0  0  0
  181.4930  178.5650  143.1520 C   0  0  2  0  0  3  0  0  0  0  0  0
  183.3820  178.5060  141.5090 C   0  0  1  0  0  3  0  0  0  0  0  0
  178.9310  177.0430  140.2010 C   0  0  0  0  0  2  0  0  0  0  0  0
  182.4240  179.4740  143.7370 O   0  0  0  0  0  0  0  0  0  0  0  0
  182.0440  177.8690  141.8560 C   0  0  2  0  0  3  0  0  0  0  0  0
  185.6640  178.4030  142.2240 C   0  0  1  0  0  3  0  0  0  0  0  0
  181.0000  177.8370  140.7490 C   0  0  2  0  0  3  0  0  0  0  0  0
  186.0000  177.9790  145.2380 O   0  0  0  0  0  0  0  0  0  0  0  0
  183.6770  178.8540  143.9720 C   0  0  2  0  0  3  0  0  0  0  0  0
  179.7410  177.4300  141.3420 N   0  0  1  0  0  0  0  0  0  0  0  0
  186.6510  177.5280  142.9840 C   0  0  0  0  0  2  0  0  0  0  0  0
  183.5910  180.5150  139.4210 O   0  0  0  0  0  1  0  0  0  0  0  0
  184.0280  179.1540  138.9280 P   0  0  1  0  0  0  0  0  0  0  0  0
  185.5370  179.3030  138.1790 O   0  0  0  0  0  0  0  0  0  0  0  0
  183.5710  177.6980  137.0780 O   0  0  0  0  0  1  0  0  0  0  0  0
  182.9070  178.5780  137.7970 O   0  0  0  0  0  0  0  0  0  0  0  0
  188.3610  177.5800  144.8890 C   0  0  2  0  0  0  0  0  0  0  0  0
  188.1480  176.9550  146.2640 C   0  0  0  0  0  1  0  0  0  0  0  0
  189.2800  178.6210  145.0250 O   0  0  0  0  0  1  0  0  0  0  0  0
  188.9700  176.5550  143.9320 C   0  0  0  0  0  2  0  0  0  0  0  0
  190.3470  176.8140  143.6840 O   0  0  0  0  0  0  0  0  0  0  0  0
  191.4140  176.2710  144.4150 C   0  0  0  0  0  0  0  0  0  0  0  0
  191.9690  175.2330  143.9680 O   0  0  0  0  0  0  0  0  0  0  0  0
  191.6430  176.3890  146.8250 C   0  0  0  0  0  2  0  0  0  0  0  0
  191.9120  176.8320  145.6410 N   0  0  0  0  0  0  0  0  0  0  0  0
  1 19  1  0  0  0  0
  2 20  1  0  0  0  0
  3 30  1  1  0  0  0
  3 21  1  0  0  0  0
  4  9  1  6  0  0  0
  4 14  1  0  0  0  0
  6 11  1  0  0  0  0
  7  4  1  0  0  0  0
  8 22  1  0  0  0  0
 10  2  1  0  0  0  0
 10 16  1  0  0  0  0
 11  5  1  0  0  0  0
 12 10  1  0  0  0  0
 13  1  1  0  0  0  0
 13 15  1  0  0  0  0
 14 17  1  0  0  0  0
 15 18  1  0  0  0  0
 15  8  1  0  0  0  0
 16 23  1  0  0  0  0
 17 22  1  0  0  0  0
 18 14  1  0  0  0  0
 19  8  1  0  0  0  0
 19 24  1  0  0  0  0
 20 23  1  0  0  0  0
 20 18  1  0  0  0  0
 21 11  1  0  0  0  0
 22  6  1  0  0  0  0
 23  7  1  0  0  0  0
 24  3  1  0  0  0  0
 26 25  1  0  0  0  0
 26 13  1  0  0  0  0
 27 26  2  0  0  0  0
 28 29  1  0  0  0  0
 29 26  1  0  0  0  0
 30 32  1  0  0  0  0
 30 31  1  0  0  0  0
 33 30  1  0  0  0  0
 34 33  1  0  0  0  0
 34 35  1  0  0  0  0
 35 38  1  0  0  0  0
 36 35  2  0  0  0  0
 38 37  2  0  0  0  0
M  END
>  <MODEL>
2

>  <REMARK>
 VINA RESULT:      -7.2      1.154      1.742
  Name = 
  7 active torsions:
  status: ('A' for Active; 'I' for Inactive)
    1  A    between atoms: C_3  and  O_34
    2  A    between atoms: C_3  and  N_38
    3  A    between atoms: C_5  and  C_15
    4  A    between atoms: C_15  and  C_22
    5  A    between atoms: C_17  and  P_20
    6  A    between atoms: P_20  and  O_30
    7  A    between atoms: C_22  and  O_34
                            x       y       z     vdW  Elec       q    Type
                         _______ _______ _______ _____ _____    ______ ____

>  <TORSDO>
F 7

$$$$
=
 OpenBabel11062414363D

 38 42  0  0  1  0  0  0  0  0999 V2000
  191.7960  175.7950  138.9200 C   0  0  0  0  0  2  0  0  0  0  0  0
  189.5260  173.1020  135.9270 C   0  0  0  0  0  2  0  0  0  0  0  0
  190.2320  177.7090  141.8490 C   0  0  2  0  0  3  0  0  0  0  0  0
  186.5570  176.1520  135.9390 C   0  0  2  0  0  3  0  0  0  0  0  0
  187.0260  178.9190  141.4370 O   0  0  0  0  0  1  0  0  0  0  0  0
  188.5110  178.5950  139.5920 C   0  0  0  0  0  2  0  0  0  0  0  0
  186.4760  174.8710  135.0820 C   0  0  0  0  0  2  0  0  0  0  0  0
  189.4740  176.2970  139.0260 C   0  0  1  0  0  3  0  0  0  0  0  0
  187.1820  177.1520  135.1910 O   0  0  0  0  0  1  0  0  0  0  0  0
  188.9010  172.1830  134.8960 C   0  0  1  0  0  3  0  0  0  0  0  0
  188.3660  178.7160  141.1120 C   0  0  2  0  0  3  0  0  0  0  0  0
  188.7380  170.9130  135.4470 O   0  0  0  0  0  1  0  0  0  0  0  0
  191.1200  175.2270  137.6690 C   0  0  1  0  0  3  0  0  0  0  0  0
  187.2730  175.9780  137.3070 C   0  0  2  0  0  3  0  0  0  0  0  0
  189.7580  175.8920  137.6120 C   0  0  1  0  0  3  0  0  0  0  0  0
  187.5380  172.7900  134.5940 C   0  0  0  0  0  2  0  0  0  0  0  0
  187.5510  177.2720  137.8380 O   0  0  0  0  0  0  0  0  0  0  0  0
  188.5440  175.0560  137.2330 C   0  0  2  0  0  3  0  0  0  0  0  0
  190.8080  176.7470  139.5850 C   0  0  1  0  0  3  0  0  0  0  0  0
  188.6200  174.3100  135.9080 C   0  0  2  0  0  3  0  0  0  0  0  0
  188.8380  177.5760  141.7790 O   0  0  0  0  0  0  0  0  0  0  0  0
  188.2060  177.1870  139.0940 C   0  0  2  0  0  3  0  0  0  0  0  0
  187.2970  173.7910  135.6180 N   0  0  1  0  0  0  0  0  0  0  0  0
  190.8840  176.5500  141.0930 C   0  0  0  0  0  2  0  0  0  0  0  0
  192.7140  174.4990  135.5540 O   0  0  0  0  0  1  0  0  0  0  0  0
  192.1060  175.7140  136.2160 P   0  0  1  0  0  0  0  0  0  0  0  0
  191.1060  176.5010  135.1020 O   0  0  0  0  0  0  0  0  0  0  0  0
  194.4030  176.0120  136.8400 O   0  0  0  0  0  1  0  0  0  0  0  0
  193.3400  176.7740  136.6920 O   0  0  0  0  0  0  0  0  0  0  0  0
  190.6930  177.8050  143.3170 C   0  0  2  0  0  0  0  0  0  0  0  0
  190.9910  179.2470  143.7130 C   0  0  0  0  0  1  0  0  0  0  0  0
  191.8650  177.0640  143.4660 O   0  0  0  0  0  1  0  0  0  0  0  0
  189.6490  177.2040  144.2590 C   0  0  0  0  0  2  0  0  0  0  0  0
  189.7410  177.7520  145.5690 O   0  0  0  0  0  0  0  0  0  0  0  0
  190.2800  177.0910  146.6840 C   0  0  0  0  0  0  0  0  0  0  0  0
  189.4910  176.7270  147.5940 O   0  0  0  0  0  0  0  0  0  0  0  0
  192.1660  175.6780  147.2500 C   0  0  0  0  0  2  0  0  0  0  0  0
  191.6790  176.8040  146.8440 N   0  0  0  0  0  0  0  0  0  0  0  0
  1 19  1  0  0  0  0
  3 30  1  1  0  0  0
  4  9  1  6  0  0  0
  4 14  1  0  0  0  0
  6 11  1  0  0  0  0
  7 23  1  0  0  0  0
  7  4  1  0  0  0  0
  8 22  1  0  0  0  0
  8 19  1  0  0  0  0
 10 12  1  0  0  0  0
 10  2  1  0  0  0  0
 11  5  1  0  0  0  0
 11 21  1  0  0  0  0
 13  1  1  0  0  0  0
 14 17  1  0  0  0  0
 15 13  1  0  0  0  0
 15  8  1  0  0  0  0
 16 10  1  0  0  0  0
 16 23  1  0  0  0  0
 17 22  1  0  0  0  0
 18 14  1  0  0  0  0
 18 15  1  0  0  0  0
 19 24  1  0  0  0  0
 20  2  1  0  0  0  0
 20 18  1  0  0  0  0
 21  3  1  0  0  0  0
 22  6  1  0  0  0  0
 23 20  1  0  0  0  0
 24  3  1  0  0  0  0
 25 26  1  0  0  0  0
 26 29  1  0  0  0  0
 26 13  1  0  0  0  0
 27 26  2  0  0  0  0
 29 28  1  0  0  0  0
 30 32  1  0  0  0  0
 30 31  1  0  0  0  0
 30 33  1  0  0  0  0
 33 34  1  0  0  0  0
 34 35  1  0  0  0  0
 35 38  1  0  0  0  0
 35 36  2  0  0  0  0
 38 37  2  0  0  0  0
M  END
>  <MODEL>
3

>  <REMARK>
 VINA RESULT:      -6.9      5.545      7.978
  Name = 
  7 active torsions:
  status: ('A' for Active; 'I' for Inactive)
    1  A    between atoms: C_3  and  O_34
    2  A    between atoms: C_3  and  N_38
    3  A    between atoms: C_5  and  C_15
    4  A    between atoms: C_15  and  C_22
    5  A    between atoms: C_17  and  P_20
    6  A    between atoms: P_20  and  O_30
    7  A    between atoms: C_22  and  O_34
                            x       y       z     vdW  Elec       q    Type
                         _______ _______ _______ _____ _____    ______ ____

>  <TORSDO>
F 7

$$$$
=
 OpenBabel11062414363D

 38 42  0  0  1  0  0  0  0  0999 V2000
  186.3830  177.8270  137.4950 C   0  0  0  0  0  2  0  0  0  0  0  0
  181.9680  178.8760  136.6170 C   0  0  0  0  0  2  0  0  0  0  0  0
  188.2190  174.6790  136.3120 C   0  0  2  0  0  3  0  0  0  0  0  0
  181.1750  174.7730  137.4220 C   0  0  2  0  0  3  0  0  0  0  0  0
  186.3880  171.7640  136.0540 O   0  0  0  0  0  1  0  0  0  0  0  0
  185.8090  173.4990  137.5940 C   0  0  0  0  0  2  0  0  0  0  0  0
  180.0880  175.8090  137.0650 C   0  0  0  0  0  2  0  0  0  0  0  0
  185.2370  175.8610  136.8070 C   0  0  1  0  0  3  0  0  0  0  0  0
  181.3120  174.7300  138.8110 O   0  0  0  0  0  1  0  0  0  0  0  0
  180.5430  179.3400  136.3850 C   0  0  1  0  0  3  0  0  0  0  0  0
  186.8830  172.9110  136.6730 C   0  0  2  0  0  3  0  0  0  0  0  0
  180.4500  179.9350  135.1280 O   0  0  0  0  0  1  0  0  0  0  0  0
  184.8760  178.0790  137.6130 C   0  0  1  0  0  3  0  0  0  0  0  0
  182.5550  175.0180  136.7530 C   0  0  2  0  0  3  0  0  0  0  0  0
  184.2340  176.7070  137.5310 C   0  0  1  0  0  3  0  0  0  0  0  0
  179.7000  178.0720  136.4150 C   0  0  0  0  0  2  0  0  0  0  0  0
  183.5240  174.1970  137.4020 O   0  0  0  0  0  0  0  0  0  0  0  0
  182.9660  176.5340  136.7070 C   0  0  2  0  0  3  0  0  0  0  0  0
  186.5870  176.3280  137.3110 C   0  0  1  0  0  3  0  0  0  0  0  0
  181.7970  177.4430  137.0620 C   0  0  2  0  0  3  0  0  0  0  0  0
  187.2950  173.8260  135.6920 O   0  0  0  0  0  0  0  0  0  0  0  0
  184.8130  174.3700  136.8370 C   0  0  2  0  0  3  0  0  0  0  0  0
  180.6300  176.9590  136.3490 N   0  0  1  0  0  0  0  0  0  0  0  0
  187.6820  176.1100  136.2760 C   0  0  0  0  0  2  0  0  0  0  0  0
  184.0200  180.2270  139.0940 O   0  0  0  0  0  0  0  0  0  0  0  0
  184.5470  178.8180  139.2450 P   0  0  1  0  0  0  0  0  0  0  0  0
  183.3910  177.8870  140.0560 O   0  0  0  0  0  1  0  0  0  0  0  0
  185.6520  179.4710  141.2720 O   0  0  0  0  0  1  0  0  0  0  0  0
  185.9730  178.8440  140.1600 O   0  0  0  0  0  0  0  0  0  0  0  0
  189.6070  174.5390  135.6560 C   0  0  2  0  0  0  0  0  0  0  0  0
  189.9900  175.8010  134.8910 C   0  0  0  0  0  1  0  0  0  0  0  0
  189.5670  173.4800  134.7500 O   0  0  0  0  0  1  0  0  0  0  0  0
  190.6750  174.2100  136.6990 C   0  0  0  0  0  2  0  0  0  0  0  0
  190.3670  174.7760  137.9680 O   0  0  0  0  0  0  0  0  0  0  0  0
  190.8550  176.0020  138.4450 C   0  0  0  0  0  0  0  0  0  0  0  0
  191.8470  176.5100  137.8600 O   0  0  0  0  0  0  0  0  0  0  0  0
  189.5930  177.7980  139.4720 C   0  0  0  0  0  2  0  0  0  0  0  0
  190.2860  176.7110  139.5580 N   0  0  0  0  0  0  0  0  0  0  0  0
  1 13  1  0  0  0  0
  2 20  1  0  0  0  0
  3 30  1  6  0  0  0
  4  9  1  1  0  0  0
  5 11  1  0  0  0  0
  7  4  1  0  0  0  0
  8 22  1  0  0  0  0
  8 19  1  0  0  0  0
  8 15  1  0  0  0  0
 10 16  1  0  0  0  0
 10  2  1  0  0  0  0
 11  6  1  0  0  0  0
 12 10  1  0  0  0  0
 13 26  1  0  0  0  0
 14 17  1  0  0  0  0
 14  4  1  0  0  0  0
 15 13  1  0  0  0  0
 18 14  1  0  0  0  0
 18 20  1  0  0  0  0
 18 15  1  0  0  0  0
 19  1  1  0  0  0  0
 21  3  1  0  0  0  0
 21 11  1  0  0  0  0
 22 17  1  0  0  0  0
 22  6  1  0  0  0  0
 23 16  1  0  0  0  0
 23 20  1  0  0  0  0
 23  7  1  0  0  0  0
 24  3  1  0  0  0  0
 24 19  1  0  0  0  0
 25 26  2  0  0  0  0
 26 27  1  0  0  0  0
 26 29  1  0  0  0  0
 29 28  1  0  0  0  0
 30 33  1  0  0  0  0
 31 30  1  0  0  0  0
 32 30  1  0  0  0  0
 33 34  1  0  0  0  0
 34 35  1  0  0  0  0
 35 38  1  0  0  0  0
 36 35  2  0  0  0  0
 37 38  2  0  0  0  0
M  END
>  <MODEL>
4

>  <REMARK>
 VINA RESULT:      -5.9      4.646      6.860
  Name = 
  7 active torsions:
  status: ('A' for Active; 'I' for Inactive)
    1  A    between atoms: C_3  and  O_34
    2  A    between atoms: C_3  and  N_38
    3  A    between atoms: C_5  and  C_15
    4  A    between atoms: C_15  and  C_22
    5  A    between atoms: C_17  and  P_20
    6  A    between atoms: P_20  and  O_30
    7  A    between atoms: C_22  and  O_34
                            x       y       z     vdW  Elec       q    Type
                         _______ _______ _______ _____ _____    ______ ____

>  <TORSDO>
F 7

$$$$
=
 OpenBabel11062414363D

 38 42  0  0  1  0  0  0  0  0999 V2000
  184.5090  178.9810  138.9530 C   0  0  0  0  0  2  0  0  0  0  0  0
  180.5860  179.6960  136.6150 C   0  0  0  0  0  2  0  0  0  0  0  0
  187.5740  177.0790  137.6630 C   0  0  2  0  0  3  0  0  0  0  0  0
  180.9750  175.6460  135.3680 C   0  0  2  0  0  3  0  0  0  0  0  0
  187.0240  174.4240  135.5270 O   0  0  0  0  0  1  0  0  0  0  0  0
  185.4090  175.1060  137.1520 C   0  0  0  0  0  2  0  0  0  0  0  0
  179.8000  176.5630  134.9690 C   0  0  0  0  0  2  0  0  0  0  0  0
  184.3920  177.4490  137.1380 C   0  0  1  0  0  3  0  0  0  0  0  0
  180.6320  174.9610  136.5350 O   0  0  0  0  0  1  0  0  0  0  0  0
  179.2600  180.0110  135.9490 C   0  0  1  0  0  3  0  0  0  0  0  0
  186.8640  175.1890  136.6810 C   0  0  2  0  0  3  0  0  0  0  0  0
  179.4140  181.1180  135.1150 O   0  0  0  0  0  1  0  0  0  0  0  0
  183.0620  178.9320  138.4520 C   0  0  1  0  0  3  0  0  0  0  0  0
  182.3360  176.3720  135.5510 C   0  0  2  0  0  3  0  0  0  0  0  0
  182.9820  177.6940  137.5790 C   0  0  1  0  0  3  0  0  0  0  0  0
  178.9310  178.7820  135.1130 C   0  0  0  0  0  2  0  0  0  0  0  0
  183.2360  175.4840  136.2110 O   0  0  0  0  0  0  0  0  0  0  0  0
  182.2090  177.7640  136.2690 C   0  0  2  0  0  3  0  0  0  0  0  0
  185.2490  177.8000  138.3380 C   0  0  1  0  0  3  0  0  0  0  0  0
  180.7590  178.2180  136.3600 C   0  0  2  0  0  3  0  0  0  0  0  0
  187.2590  176.5090  136.4210 O   0  0  0  0  0  0  0  0  0  0  0  0
  184.5060  176.0840  136.4110 C   0  0  2  0  0  3  0  0  0  0  0  0
  180.1400  177.9790  135.0700 N   0  0  1  0  0  0  0  0  0  0  0  0
  186.6390  178.2610  137.9220 C   0  0  0  0  0  2  0  0  0  0  0  0
  181.0260  179.9230  140.0070 O   0  0  0  0  0  1  0  0  0  0  0  0
  181.9640  178.7430  139.8940 P   0  0  1  0  0  0  0  0  0  0  0  0
  181.0490  177.3310  139.7160 O   0  0  0  0  0  0  0  0  0  0  0  0
  182.0280  178.7500  142.2920 O   0  0  0  0  0  1  0  0  0  0  0  0
  182.8920  178.6230  141.3070 O   0  0  0  0  0  0  0  0  0  0  0  0
  189.0650  177.4660  137.7170 C   0  0  2  0  0  0  0  0  0  0  0  0
  189.2520  178.9760  137.6120 C   0  0  0  0  0  1  0  0  0  0  0  0
  189.7190  176.8740  136.6360 O   0  0  0  0  0  1  0  0  0  0  0  0
  189.7220  176.9410  138.9940 C   0  0  0  0  0  2  0  0  0  0  0  0
  189.6020  177.8650  140.0690 O   0  0  0  0  0  0  0  0  0  0  0  0
  188.7250  177.7300  141.1560 C   0  0  0  0  0  0  0  0  0  0  0  0
  187.7120  178.4760  141.1940 O   0  0  0  0  0  0  0  0  0  0  0  0
  188.1340  176.6530  143.2450 C   0  0  0  0  0  2  0  0  0  0  0  0
  188.9150  176.7880  142.2240 N   0  0  0  0  0  0  0  0  0  0  0  0
  3 30  1  6  0  0  0
  3 24  1  0  0  0  0
  4 14  1  0  0  0  0
  4  9  1  1  0  0  0
  5 11  1  0  0  0  0
  7 23  1  0  0  0  0
  7  4  1  0  0  0  0
  8 15  1  0  0  0  0
  8 19  1  0  0  0  0
 10  2  1  0  0  0  0
 11  6  1  0  0  0  0
 12 10  1  0  0  0  0
 13  1  1  0  0  0  0
 13 26  1  0  0  0  0
 14 17  1  0  0  0  0
 14 18  1  0  0  0  0
 15 13  1  0  0  0  0
 16 10  1  0  0  0  0
 17 22  1  0  0  0  0
 18 20  1  0  0  0  0
 18 15  1  0  0  0  0
 19  1  1  0  0  0  0
 20  2  1  0  0  0  0
 21 11  1  0  0  0  0
 21  3  1  0  0  0  0
 22  8  1  0  0  0  0
 22  6  1  0  0  0  0
 23 16  1  0  0  0  0
 23 20  1  0  0  0  0
 24 19  1  0  0  0  0
 26 25  1  0  0  0  0
 26 29  1  0  0  0  0
 27 26  2  0  0  0  0
 29 28  1  0  0  0  0
 30 33  1  0  0  0  0
 31 30  1  0  0  0  0
 32 30  1  0  0  0  0
 33 34  1  0  0  0  0
 34 35  1  0  0  0  0
 35 36  2  0  0  0  0
 35 38  1  0  0  0  0
 38 37  2  0  0  0  0
M  END
>  <MODEL>
5

>  <REMARK>
 VINA RESULT:      -5.7      3.734      6.397
  Name = 
  7 active torsions:
  status: ('A' for Active; 'I' for Inactive)
    1  A    between atoms: C_3  and  O_34
    2  A    between atoms: C_3  and  N_38
    3  A    between atoms: C_5  and  C_15
    4  A    between atoms: C_15  and  C_22
    5  A    between atoms: C_17  and  P_20
    6  A    between atoms: P_20  and  O_30
    7  A    between atoms: C_22  and  O_34
                            x       y       z     vdW  Elec       q    Type
                         _______ _______ _______ _____ _____    ______ ____

>  <TORSDO>
F 7

$$$$
=
 OpenBabel11062414363D

 38 42  0  0  1  0  0  0  0  0999 V2000
  185.7210  176.1160  136.5960 C   0  0  0  0  0  2  0  0  0  0  0  0
  189.6140  176.9790  138.9330 C   0  0  0  0  0  2  0  0  0  0  0  0
  184.3920  172.6480  135.6530 C   0  0  2  0  0  3  0  0  0  0  0  0
  191.3530  173.9410  136.5120 C   0  0  2  0  0  3  0  0  0  0  0  0
  186.7080  170.1870  134.9500 O   0  0  0  0  0  1  0  0  0  0  0  0
  187.1740  172.5070  134.6110 C   0  0  0  0  0  2  0  0  0  0  0  0
  192.1290  174.7480  137.5740 C   0  0  0  0  0  2  0  0  0  0  0  0
  187.1110  174.1880  136.5350 C   0  0  1  0  0  3  0  0  0  0  0  0
  191.4660  174.5940  135.2840 O   0  0  0  0  0  1  0  0  0  0  0  0
  190.8540  177.3900  139.7030 C   0  0  1  0  0  3  0  0  0  0  0  0
  186.1030  171.4380  134.8460 C   0  0  2  0  0  3  0  0  0  0  0  0
  190.6080  177.2740  141.0700 O   0  0  0  0  0  1  0  0  0  0  0  0
  187.1420  176.5300  136.9900 C   0  0  1  0  0  3  0  0  0  0  0  0
  189.8590  173.6850  136.8500 C   0  0  2  0  0  3  0  0  0  0  0  0
  188.0280  175.3710  136.5720 C   0  0  1  0  0  3  0  0  0  0  0  0
  191.9310  176.3970  139.2890 C   0  0  0  0  0  2  0  0  0  0  0  0
  189.2030  173.2190  135.6730 O   0  0  0  0  0  0  0  0  0  0  0  0
  189.1450  174.9240  137.5030 C   0  0  2  0  0  3  0  0  0  0  0  0
  185.7990  174.7180  135.9930 C   0  0  1  0  0  3  0  0  0  0  0  0
  190.1470  175.9910  137.9230 C   0  0  2  0  0  3  0  0  0  0  0  0
  185.3520  171.6890  136.0040 O   0  0  0  0  0  0  0  0  0  0  0  0
  187.8280  172.9630  135.9110 C   0  0  2  0  0  3  0  0  0  0  0  0
  191.2500  175.3230  138.5870 N   0  0  1  0  0  0  0  0  0  0  0  0
  184.6120  173.9070  136.4930 C   0  0  0  0  0  2  0  0  0  0  0  0
  188.9720  177.8830  135.4520 O   0  0  0  0  0  1  0  0  0  0  0  0
  187.5860  178.0210  136.0410 P   0  0  1  0  0  0  0  0  0  0  0  0
  186.4760  178.2320  134.7830 O   0  0  0  0  0  0  0  0  0  0  0  0
  188.7960  179.7250  137.2190 O   0  0  0  0  0  1  0  0  0  0  0  0
  187.5360  179.3790  137.0530 O   0  0  0  0  0  0  0  0  0  0  0  0
  182.9710  172.0680  135.7960 C   0  0  2  0  0  0  0  0  0  0  0  0
  182.8830  171.0950  136.9660 C   0  0  0  0  0  1  0  0  0  0  0  0
  182.6540  171.3720  134.6290 O   0  0  0  0  0  1  0  0  0  0  0  0
  181.9380  173.1840  135.9580 C   0  0  0  0  0  2  0  0  0  0  0  0
  181.2500  173.0910  137.2000 O   0  0  0  0  0  0  0  0  0  0  0  0
  180.9170  174.1790  138.0210 C   0  0  0  0  0  0  0  0  0  0  0  0
  179.8680  174.0980  138.7120 O   0  0  0  0  0  0  0  0  0  0  0  0
  182.2600  175.8170  139.1990 C   0  0  0  0  0  2  0  0  0  0  0  0
  181.7030  175.3780  138.1190 N   0  0  0  0  0  0  0  0  0  0  0  0
  1 13  1  0  0  0  0
  2 10  1  0  0  0  0
  3 30  1  1  0  0  0
  3 21  1  0  0  0  0
  3 24  1  0  0  0  0
  4  9  1  6  0  0  0
  4 14  1  0  0  0  0
  4  7  1  0  0  0  0
  6 11  1  0  0  0  0
  6 22  1  0  0  0  0
  7 23  1  0  0  0  0
  8 15  1  0  0  0  0
 10 12  1  0  0  0  0
 11  5  1  0  0  0  0
 11 21  1  0  0  0  0
 14 18  1  0  0  0  0
 15 13  1  0  0  0  0
 15 18  1  0  0  0  0
 16 10  1  0  0  0  0
 17 22  1  0  0  0  0
 17 14  1  0  0  0  0
 18 20  1  0  0  0  0
 19 24  1  0  0  0  0
 19  8  1  0  0  0  0
 19  1  1  0  0  0  0
 20 23  1  0  0  0  0
 20  2  1  0  0  0  0
 22  8  1  0  0  0  0
 23 16  1  0  0  0  0
 25 26  1  0  0  0  0
 26 13  1  0  0  0  0
 26 29  1  0  0  0  0
 27 26  2  0  0  0  0
 29 28  1  0  0  0  0
 30 33  1  0  0  0  0
 30 31  1  0  0  0  0
 32 30  1  0  0  0  0
 33 34  1  0  0  0  0
 34 35  1  0  0  0  0
 35 38  1  0  0  0  0
 35 36  2  0  0  0  0
 38 37  2  0  0  0  0
M  END
>  <MODEL>
6

>  <REMARK>
 VINA RESULT:      -5.6      5.298     10.587
  Name = 
  7 active torsions:
  status: ('A' for Active; 'I' for Inactive)
    1  A    between atoms: C_3  and  O_34
    2  A    between atoms: C_3  and  N_38
    3  A    between atoms: C_5  and  C_15
    4  A    between atoms: C_15  and  C_22
    5  A    between atoms: C_17  and  P_20
    6  A    between atoms: P_20  and  O_30
    7  A    between atoms: C_22  and  O_34
                            x       y       z     vdW  Elec       q    Type
                         _______ _______ _______ _____ _____    ______ ____

>  <TORSDO>
F 7

$$$$
=
 OpenBabel11062414363D

 38 42  0  0  1  0  0  0  0  0999 V2000
  188.3820  177.7900  139.5200 C   0  0  0  0  0  2  0  0  0  0  0  0
  185.1960  176.4100  136.4690 C   0  0  0  0  0  2  0  0  0  0  0  0
  187.8600  178.1540  143.2990 C   0  0  2  0  0  3  0  0  0  0  0  0
  182.5120  178.8990  138.6400 C   0  0  2  0  0  3  0  0  0  0  0  0
  184.7370  179.1380  144.3920 O   0  0  0  0  0  1  0  0  0  0  0  0
  185.5830  179.7490  142.2420 C   0  0  0  0  0  2  0  0  0  0  0  0
  182.1180  178.0930  137.3830 C   0  0  0  0  0  2  0  0  0  0  0  0
  186.2250  177.9940  140.4990 C   0  0  1  0  0  3  0  0  0  0  0  0
  182.9280  180.1710  138.2420 O   0  0  0  0  0  1  0  0  0  0  0  0
  184.2490  175.9560  135.3750 C   0  0  1  0  0  3  0  0  0  0  0  0
  185.9070  179.2090  143.6380 C   0  0  2  0  0  3  0  0  0  0  0  0
  184.2010  174.5630  135.3550 O   0  0  0  0  0  1  0  0  0  0  0  0
  187.3360  177.7410  138.4020 C   0  0  1  0  0  3  0  0  0  0  0  0
  183.5960  178.2320  139.5300 C   0  0  2  0  0  3  0  0  0  0  0  0
  186.0510  178.2460  139.0330 C   0  0  1  0  0  3  0  0  0  0  0  0
  182.8870  176.5100  135.7710 C   0  0  0  0  0  2  0  0  0  0  0  0
  184.0810  179.2030  140.4550 O   0  0  0  0  0  0  0  0  0  0  0  0
  184.7420  177.5420  138.7050 C   0  0  2  0  0  3  0  0  0  0  0  0
  187.6840  178.2850  140.7820 C   0  0  1  0  0  3  0  0  0  0  0  0
  184.3830  177.4290  137.2300 C   0  0  2  0  0  3  0  0  0  0  0  0
  186.5040  177.9410  143.5880 O   0  0  0  0  0  0  0  0  0  0  0  0
  185.0780  178.6590  141.3040 C   0  0  2  0  0  3  0  0  0  0  0  0
  183.0120  176.9650  137.1450 N   0  0  1  0  0  0  0  0  0  0  0  0
  188.2000  177.4820  141.9680 C   0  0  0  0  0  2  0  0  0  0  0  0
  186.7080  179.7470  136.6340 O   0  0  0  0  0  0  0  0  0  0  0  0
  187.8620  178.8770  137.0780 P   0  0  1  0  0  0  0  0  0  0  0  0
  189.1030  179.8700  137.6560 O   0  0  0  0  0  1  0  0  0  0  0  0
  188.6070  176.7660  136.2180 O   0  0  0  0  0  1  0  0  0  0  0  0
  188.4390  177.9870  135.7570 O   0  0  0  0  0  0  0  0  0  0  0  0
  188.7430  177.6670  144.4640 C   0  0  2  0  0  0  0  0  0  0  0  0
  187.9320  177.4990  145.7450 C   0  0  0  0  0  1  0  0  0  0  0  0
  189.7330  178.6210  144.7020 O   0  0  0  0  0  1  0  0  0  0  0  0
  189.4450  176.3560  144.1080 C   0  0  0  0  0  2  0  0  0  0  0  0
  190.8600  176.5090  144.0650 O   0  0  0  0  0  0  0  0  0  0  0  0
  191.7590  175.9560  144.9890 C   0  0  0  0  0  0  0  0  0  0  0  0
  192.3440  174.8860  144.6760 O   0  0  0  0  0  0  0  0  0  0  0  0
  191.3490  176.3770  147.3400 C   0  0  0  0  0  2  0  0  0  0  0  0
  192.0530  176.5400  146.2680 N   0  0  0  0  0  0  0  0  0  0  0  0
  1 19  1  0  0  0  0
  2 20  1  0  0  0  0
  3 21  1  0  0  0  0
  3 30  1  1  0  0  0
  4  9  1  6  0  0  0
  4 14  1  0  0  0  0
  6 11  1  0  0  0  0
  7  4  1  0  0  0  0
  8 19  1  0  0  0  0
  8 22  1  0  0  0  0
 10 16  1  0  0  0  0
 10  2  1  0  0  0  0
 11  5  1  0  0  0  0
 12 10  1  0  0  0  0
 13 15  1  0  0  0  0
 13  1  1  0  0  0  0
 14 17  1  0  0  0  0
 15  8  1  0  0  0  0
 16 23  1  0  0  0  0
 17 22  1  0  0  0  0
 18 15  1  0  0  0  0
 18 14  1  0  0  0  0
 19 24  1  0  0  0  0
 20 18  1  0  0  0  0
 21 11  1  0  0  0  0
 22  6  1  0  0  0  0
 23 20  1  0  0  0  0
 23  7  1  0  0  0  0
 24  3  1  0  0  0  0
 25 26  2  0  0  0  0
 26 27  1  0  0  0  0
 26 13  1  0  0  0  0
 29 28  1  0  0  0  0
 29 26  1  0  0  0  0
 30 32  1  0  0  0  0
 30 31  1  0  0  0  0
 33 30  1  0  0  0  0
 34 33  1  0  0  0  0
 34 35  1  0  0  0  0
 35 38  1  0  0  0  0
 36 35  2  0  0  0  0
 38 37  2  0  0  0  0
M  END
>  <MODEL>
7

>  <REMARK>
 VINA RESULT:      -5.6      3.014      4.279
  Name = 
  7 active torsions:
  status: ('A' for Active; 'I' for Inactive)
    1  A    between atoms: C_3  and  O_34
    2  A    between atoms: C_3  and  N_38
    3  A    between atoms: C_5  and  C_15
    4  A    between atoms: C_15  and  C_22
    5  A    between atoms: C_17  and  P_20
    6  A    between atoms: P_20  and  O_30
    7  A    between atoms: C_22  and  O_34
                            x       y       z     vdW  Elec       q    Type
                         _______ _______ _______ _____ _____    ______ ____

>  <TORSDO>
F 7

$$$$
=
 OpenBabel11062414363D

 38 42  0  0  1  0  0  0  0  0999 V2000
  184.5890  174.7980  136.6270 C   0  0  0  0  0  2  0  0  0  0  0  0
  181.0730  175.7870  139.4600 C   0  0  0  0  0  2  0  0  0  0  0  0
  188.2070  175.9920  137.0400 C   0  0  2  0  0  3  0  0  0  0  0  0
  182.6680  179.7320  139.5300 C   0  0  2  0  0  3  0  0  0  0  0  0
  188.7110  179.1110  138.4320 O   0  0  0  0  0  1  0  0  0  0  0  0
  186.7230  178.5630  137.2230 C   0  0  0  0  0  2  0  0  0  0  0  0
  181.3870  179.3050  140.2780 C   0  0  0  0  0  2  0  0  0  0  0  0
  185.1710  176.6740  137.9670 C   0  0  1  0  0  3  0  0  0  0  0  0
  182.3120  180.2000  138.2640 O   0  0  0  0  0  1  0  0  0  0  0  0
  179.8460  176.0250  140.3180 C   0  0  1  0  0  3  0  0  0  0  0  0
  188.1700  178.1790  137.5480 C   0  0  2  0  0  3  0  0  0  0  0  0
  179.8590  175.1430  141.3970 O   0  0  0  0  0  1  0  0  0  0  0  0
  183.3080  175.3710  137.2420 C   0  0  1  0  0  3  0  0  0  0  0  0
  183.7530  178.6270  139.4100 C   0  0  2  0  0  3  0  0  0  0  0  0
  183.6910  176.7470  137.7550 C   0  0  1  0  0  3  0  0  0  0  0  0
  179.9810  177.4550  140.8230 C   0  0  0  0  0  2  0  0  0  0  0  0
  184.7190  179.0450  138.4480 O   0  0  0  0  0  0  0  0  0  0  0  0
  183.1610  177.2020  139.1080 C   0  0  2  0  0  3  0  0  0  0  0  0
  185.6950  175.8290  136.8250 C   0  0  1  0  0  3  0  0  0  0  0  0
  181.6500  177.1720  139.2910 C   0  0  2  0  0  3  0  0  0  0  0  0
  188.2620  176.8970  138.1100 O   0  0  0  0  0  0  0  0  0  0  0  0
  185.7450  178.0790  138.2870 C   0  0  2  0  0  3  0  0  0  0  0  0
  181.3420  177.8670  140.5250 N   0  0  1  0  0  0  0  0  0  0  0  0
  186.9770  175.0990  137.2030 C   0  0  0  0  0  2  0  0  0  0  0  0
  182.6360  175.0880  134.5940 O   0  0  0  0  0  0  0  0  0  0  0  0
  182.0630  175.5290  135.9220 P   0  0  1  0  0  0  0  0  0  0  0  0
  180.7310  174.5540  136.2930 O   0  0  0  0  0  1  0  0  0  0  0  0
  180.2410  177.0720  135.6900 O   0  0  0  0  0  1  0  0  0  0  0  0
  181.5500  177.1400  135.8080 O   0  0  0  0  0  0  0  0  0  0  0  0
  189.5220  175.1950  136.9400 C   0  0  2  0  0  0  0  0  0  0  0  0
  190.1270  175.2930  135.5430 C   0  0  0  0  0  1  0  0  0  0  0  0
  189.2500  173.8510  137.1990 O   0  0  0  0  0  1  0  0  0  0  0  0
  190.5310  175.6680  137.9860 C   0  0  0  0  0  2  0  0  0  0  0  0
  191.5940  176.4110  137.3990 O   0  0  0  0  0  0  0  0  0  0  0  0
  192.9080  176.4630  137.8880 C   0  0  0  0  0  0  0  0  0  0  0  0
  193.0860  176.8920  139.0580 O   0  0  0  0  0  0  0  0  0  0  0  0
  194.2720  176.3330  135.8890 C   0  0  0  0  0  2  0  0  0  0  0  0
  194.0600  176.0540  137.1320 N   0  0  0  0  0  0  0  0  0  0  0  0
  1 19  1  0  0  0  0
  1 13  1  0  0  0  0
  2 10  1  0  0  0  0
  3 30  1  1  0  0  0
  3 24  1  0  0  0  0
  3 21  1  0  0  0  0
  4  9  1  6  0  0  0
  4  7  1  0  0  0  0
  6 11  1  0  0  0  0
  6 22  1  0  0  0  0
  7 23  1  0  0  0  0
  8 22  1  0  0  0  0
 10 16  1  0  0  0  0
 10 12  1  0  0  0  0
 11 21  1  0  0  0  0
 11  5  1  0  0  0  0
 13 15  1  0  0  0  0
 14  4  1  0  0  0  0
 15  8  1  0  0  0  0
 15 18  1  0  0  0  0
 17 14  1  0  0  0  0
 18 20  1  0  0  0  0
 18 14  1  0  0  0  0
 19 24  1  0  0  0  0
 19  8  1  0  0  0  0
 20  2  1  0  0  0  0
 20 23  1  0  0  0  0
 22 17  1  0  0  0  0
 23 16  1  0  0  0  0
 25 26  2  0  0  0  0
 26 27  1  0  0  0  0
 26 13  1  0  0  0  0
 28 29  1  0  0  0  0
 29 26  1  0  0  0  0
 30 32  1  0  0  0  0
 30 33  1  0  0  0  0
 31 30  1  0  0  0  0
 34 35  1  0  0  0  0
 34 33  1  0  0  0  0
 35 36  2  0  0  0  0
 37 38  2  0  0  0  0
 38 35  1  0  0  0  0
M  END
>  <MODEL>
8

>  <REMARK>
 VINA RESULT:      -5.3      4.452      5.879
  Name = 
  7 active torsions:
  status: ('A' for Active; 'I' for Inactive)
    1  A    between atoms: C_3  and  O_34
    2  A    between atoms: C_3  and  N_38
    3  A    between atoms: C_5  and  C_15
    4  A    between atoms: C_15  and  C_22
    5  A    between atoms: C_17  and  P_20
    6  A    between atoms: P_20  and  O_30
    7  A    between atoms: C_22  and  O_34
                            x       y       z     vdW  Elec       q    Type
                         _______ _______ _______ _____ _____    ______ ____

>  <TORSDO>
F 7

$$$$
=
 OpenBabel11062414363D

 38 42  0  0  1  0  0  0  0  0999 V2000
  184.4370  179.1150  140.0400 C   0  0  0  0  0  2  0  0  0  0  0  0
  180.6540  180.9030  138.0760 C   0  0  0  0  0  2  0  0  0  0  0  0
  187.3160  177.3840  138.1970 C   0  0  2  0  0  3  0  0  0  0  0  0
  180.6510  177.3990  135.6600 C   0  0  2  0  0  3  0  0  0  0  0  0
  186.5380  175.5670  135.3670 O   0  0  0  0  0  1  0  0  0  0  0  0
  184.9710  175.8910  137.1420 C   0  0  0  0  0  2  0  0  0  0  0  0
  179.5830  178.5100  135.5710 C   0  0  0  0  0  2  0  0  0  0  0  0
  184.1990  178.2220  137.8490 C   0  0  1  0  0  3  0  0  0  0  0  0
  180.2170  176.4340  136.5700 O   0  0  0  0  0  1  0  0  0  0  0  0
  179.3810  181.5390  137.5520 C   0  0  1  0  0  3  0  0  0  0  0  0
  186.4350  175.9610  136.7000 C   0  0  2  0  0  3  0  0  0  0  0  0
  179.6630  182.8230  137.0890 O   0  0  0  0  0  1  0  0  0  0  0  0
  183.0030  179.3690  139.5660 C   0  0  1  0  0  3  0  0  0  0  0  0
  182.0750  177.8910  136.0370 C   0  0  2  0  0  3  0  0  0  0  0  0
  182.8130  178.4670  138.3600 C   0  0  1  0  0  3  0  0  0  0  0  0
  178.9430  180.6590  136.3890 C   0  0  0  0  0  2  0  0  0  0  0  0
  182.8670  176.7580  136.3870 O   0  0  0  0  0  0  0  0  0  0  0  0
  182.0770  179.0080  137.1430 C   0  0  2  0  0  3  0  0  0  0  0  0
  185.0650  178.1040  139.0870 C   0  0  1  0  0  3  0  0  0  0  0  0
  180.6800  179.5610  137.3840 C   0  0  2  0  0  3  0  0  0  0  0  0
  186.9690  177.2510  136.8450 O   0  0  0  0  0  0  0  0  0  0  0  0
  184.1870  177.1360  136.7420 C   0  0  2  0  0  3  0  0  0  0  0  0
  180.0650  179.7860  136.0900 N   0  0  1  0  0  0  0  0  0  0  0  0
  186.5020  178.5230  138.8130 C   0  0  0  0  0  2  0  0  0  0  0  0
  182.6240  178.6100  142.1780 O   0  0  0  0  0  1  0  0  0  0  0  0
  181.8640  178.8690  140.8970 P   0  0  1  0  0  0  0  0  0  0  0  0
  180.7430  180.1070  141.1670 O   0  0  0  0  0  0  0  0  0  0  0  0
  180.0120  177.3900  141.2680 O   0  0  0  0  0  1  0  0  0  0  0  0
  181.0330  177.4640  140.4410 O   0  0  0  0  0  0  0  0  0  0  0  0
  188.8380  177.5810  138.3470 C   0  0  2  0  0  0  0  0  0  0  0  0
  189.3970  178.4590  137.2330 C   0  0  0  0  0  1  0  0  0  0  0  0
  189.4580  176.3340  138.2680 O   0  0  0  0  0  1  0  0  0  0  0  0
  189.1810  178.1770  139.7120 C   0  0  0  0  0  2  0  0  0  0  0  0
  189.0210  177.2280  140.7600 O   0  0  0  0  0  0  0  0  0  0  0  0
  189.9710  176.9590  141.7570 C   0  0  0  0  0  0  0  0  0  0  0  0
  191.1770  177.2150  141.5070 O   0  0  0  0  0  0  0  0  0  0  0  0
  188.6450  176.7740  143.7770 C   0  0  0  0  0  2  0  0  0  0  0  0
  189.6460  176.4110  143.0450 N   0  0  0  0  0  0  0  0  0  0  0  0
  3 30  1  6  0  0  0
  3 24  1  0  0  0  0
  4 14  1  0  0  0  0
  4  9  1  1  0  0  0
  5 11  1  0  0  0  0
  7  4  1  0  0  0  0
  7 23  1  0  0  0  0
  8 15  1  0  0  0  0
  8 19  1  0  0  0  0
 10  2  1  0  0  0  0
 11 21  1  0  0  0  0
 11  6  1  0  0  0  0
 12 10  1  0  0  0  0
 13  1  1  0  0  0  0
 13 26  1  0  0  0  0
 14 17  1  0  0  0  0
 14 18  1  0  0  0  0
 15 13  1  0  0  0  0
 16 10  1  0  0  0  0
 17 22  1  0  0  0  0
 18 20  1  0  0  0  0
 18 15  1  0  0  0  0
 19  1  1  0  0  0  0
 20  2  1  0  0  0  0
 21  3  1  0  0  0  0
 22  6  1  0  0  0  0
 22  8  1  0  0  0  0
 23 16  1  0  0  0  0
 23 20  1  0  0  0  0
 24 19  1  0  0  0  0
 26 27  2  0  0  0  0
 26 25  1  0  0  0  0
 29 26  1  0  0  0  0
 29 28  1  0  0  0  0
 30 33  1  0  0  0  0
 31 30  1  0  0  0  0
 32 30  1  0  0  0  0
 33 34  1  0  0  0  0
 34 35  1  0  0  0  0
 35 38  1  0  0  0  0
 36 35  2  0  0  0  0
 38 37  2  0  0  0  0
M  END
>  <MODEL>
9

>  <REMARK>
 VINA RESULT:      -5.3      3.369      6.018
  Name = 
  7 active torsions:
  status: ('A' for Active; 'I' for Inactive)
    1  A    between atoms: C_3  and  O_34
    2  A    between atoms: C_3  and  N_38
    3  A    between atoms: C_5  and  C_15
    4  A    between atoms: C_15  and  C_22
    5  A    between atoms: C_17  and  P_20
    6  A    between atoms: P_20  and  O_30
    7  A    between atoms: C_22  and  O_34
                            x       y       z     vdW  Elec       q    Type
                         _______ _______ _______ _____ _____    ______ ____

>  <TORSDO>
F 7

$$$$
