=
 OpenBabel11062416143D

 44 50  0  0  1  0  0  0  0  0999 V2000
  186.3070  179.9580  140.6630 O   0  0  0  0  0  1  0  0  0  0  0  0
  185.4590  178.0530  141.8820 C   0  0  1  0  0  3  0  0  0  0  0  0
  184.6640  178.7870  143.9610 C   0  0  0  0  0  0  0  0  0  0  0  0
  182.9920  178.4500  142.2860 N   0  0  0  0  0  0  0  0  0  0  0  0
  183.6890  178.8710  144.9330 C   0  0  0  0  0  0  0  0  0  0  0  0
  182.3580  178.9690  144.5030 O   0  0  0  0  0  0  0  0  0  0  0  0
  182.5910  179.8530  138.8700 C   0  0  0  0  0  2  0  0  0  0  0  0
  180.1190  179.6300  141.9030 C   0  0  0  0  0  2  0  0  0  0  0  0
  186.6040  177.9970  142.9400 C   0  0  0  0  0  2  0  0  0  0  0  0
  181.9870  180.0300  140.2540 C   0  0  0  0  0  2  0  0  0  0  0  0
  185.9220  178.3480  144.2150 C   0  0  0  0  0  0  0  0  0  0  0  0
  184.3600  178.8970  142.5430 C   0  0  2  0  0  3  0  0  0  0  0  0
  186.3400  178.1410  145.5320 C   0  0  0  0  0  3  0  0  0  0  0  0
  180.5240  179.5750  140.4130 C   0  0  1  0  0  3  0  0  0  0  0  0
  182.0410  178.6320  143.1650 C   0  0  0  0  0  0  0  0  0  0  0  0
  184.1180  179.8530  138.9440 C   0  0  0  0  0  2  0  0  0  0  0  0
  185.8780  178.6340  140.5010 C   0  0  1  0  0  0  0  0  0  0  0  0
  185.4080  178.3670  146.5720 C   0  0  0  0  0  3  0  0  0  0  0  0
  184.6750  178.5950  139.5640 C   0  0  0  0  0  0  0  0  0  0  0  0
  184.1910  177.5130  139.2580 O   0  0  0  0  0  0  0  0  0  0  0  0
  180.6190  178.4520  142.7530 C   0  0  0  0  0  2  0  0  0  0  0  0
  184.0690  178.7130  146.2740 C   0  0  0  0  0  3  0  0  0  0  0  0
  180.0930  178.2740  139.6750 C   0  0  2  0  0  0  0  0  0  0  0  0
  179.6240  178.5520  138.2550 C   0  0  0  0  0  1  0  0  0  0  0  0
  178.9660  177.5750  140.4460 C   0  0  0  0  0  2  0  0  0  0  0  0
  179.5400  176.2620  140.7750 C   0  0  0  0  0  0  0  0  0  0  0  0
  178.9310  175.3690  141.4200 O   0  0  0  0  0  0  0  0  0  0  0  0
  181.2560  177.2580  139.6180 C   0  0  0  0  0  2  0  0  0  0  0  0
  180.8200  176.1020  140.3060 O   0  0  0  0  0  0  0  0  0  0  0  0
  187.0170  177.9240  138.4720 O   0  0  0  0  0  1  0  0  0  0  0  0
  187.0210  177.8000  139.8650 C   0  0  1  0  0  3  0  0  0  0  0  0
  188.4010  178.1890  140.3830 C   0  0  0  0  0  2  0  0  0  0  0  0
  190.2650  176.4610  140.6390 N   0  0  2  0  0  0  0  0  0  0  0  0
  189.0130  177.0480  141.2010 C   0  0  1  0  0  3  0  0  0  0  0  0
  190.3110  177.4500  141.7310 C   0  0  1  0  0  3  0  0  0  0  0  0
  190.1090  176.2560  137.9470 S   0  0  0  0  0  0  0  0  0  0  0  0
  192.2450  177.0670  139.3680 C   0  0  0  0  0  0  0  0  0  0  0  0
  190.7510  177.1310  139.4290 C   0  0  2  0  0  3  0  0  0  0  0  0
  192.9760  177.6530  140.2080 O   0  0  0  0  0  0  0  0  0  0  0  0
  192.8060  176.3200  138.3040 N   0  0  0  0  0  2  0  0  0  0  0  0
  192.0230  175.0830  136.4890 O   0  0  0  0  0  0  0  0  0  0  0  0
  191.7750  175.8110  137.4840 C   0  0  0  0  0  0  0  0  0  0  0  0
  190.2060  175.3350  142.9080 N   0  0  0  0  0  1  0  0  0  0  0  0
  190.5690  176.7350  143.0410 C   0  0  0  0  0  2  0  0  0  0  0  0
  2 12  1  0  0  0  0
  2  9  1  1  0  0  0
  3 11  2  0  0  0  0
  3  5  1  0  0  0  0
  4 15  2  0  0  0  0
  5 22  2  0  0  0  0
  6  5  1  0  0  0  0
  7 16  1  0  0  0  0
  7 10  1  0  0  0  0
  8 21  1  0  0  0  0
  9 11  1  0  0  0  0
 11 13  1  0  0  0  0
 12  4  1  1  0  0  0
 12  3  1  0  0  0  0
 13 18  2  0  0  0  0
 14 10  1  1  0  0  0
 14  8  1  0  0  0  0
 15  6  1  0  0  0  0
 16 19  1  0  0  0  0
 17  1  1  1  0  0  0
 17  2  1  0  0  0  0
 19 17  1  0  0  0  0
 20 19  2  0  0  0  0
 21 15  1  0  0  0  0
 22 18  1  0  0  0  0
 23 24  1  6  0  0  0
 23 14  1  0  0  0  0
 23 25  1  0  0  0  0
 25 26  1  0  0  0  0
 26 27  2  0  0  0  0
 28 23  1  0  0  0  0
 28 29  1  0  0  0  0
 29 26  1  0  0  0  0
 31 30  1  6  0  0  0
 31 32  1  0  0  0  0
 31 17  1  0  0  0  0
 33 38  1  6  0  0  0
 33 34  1  0  0  0  0
 33 35  1  0  0  0  0
 34 32  1  6  0  0  0
 34 35  1  0  0  0  0
 35 44  1  1  0  0  0
 37 38  1  0  0  0  0
 37 39  2  0  0  0  0
 38 36  1  6  0  0  0
 40 37  1  0  0  0  0
 41 42  2  0  0  0  0
 42 36  1  0  0  0  0
 42 40  1  0  0  0  0
 43 44  1  0  0  0  0
M  END
>  <MODEL>
1

>  <REMARK>
 VINA RESULT:      -8.3      0.000      0.000
  Name = 
  6 active torsions:
  status: ('A' for Active; 'I' for Inactive)
    1  A    between atoms: C_6  and  C_23
    2  A    between atoms: N_11  and  C_29
    3  A    between atoms: C_12  and  C_15
    4  A    between atoms: C_13  and  C_27
    5  A    between atoms: C_27  and  C_35
    6  A    between atoms: C_35  and  C_37
                            x       y       z     vdW  Elec       q    Type
                         _______ _______ _______ _____ _____    ______ ____

>  <TORSDO>
F 6

$$$$
=
 OpenBabel11062416143D

 44 50  0  0  1  0  0  0  0  0999 V2000
  188.1630  179.6590  141.1500 O   0  0  0  0  0  1  0  0  0  0  0  0
  186.5940  177.8260  141.0370 C   0  0  1  0  0  3  0  0  0  0  0  0
  184.4960  178.6710  140.4230 C   0  0  0  0  0  0  0  0  0  0  0  0
  185.7630  177.6860  138.6510 N   0  0  0  0  0  0  0  0  0  0  0  0
  183.3680  178.6750  139.6290 C   0  0  0  0  0  0  0  0  0  0  0  0
  183.5380  178.3860  138.2670 O   0  0  0  0  0  0  0  0  0  0  0  0
  189.1710  178.3940  137.3530 C   0  0  0  0  0  2  0  0  0  0  0  0
  185.7070  178.0770  135.5460 C   0  0  0  0  0  2  0  0  0  0  0  0
  185.7810  178.2110  142.3110 C   0  0  0  0  0  2  0  0  0  0  0  0
  187.7250  178.6400  136.9540 C   0  0  0  0  0  2  0  0  0  0  0  0
  184.4460  178.5880  141.7750 C   0  0  0  0  0  0  0  0  0  0  0  0
  185.8300  178.4790  139.8770 C   0  0  2  0  0  3  0  0  0  0  0  0
  183.2210  178.6980  142.4390 C   0  0  0  0  0  3  0  0  0  0  0  0
  187.2320  177.8830  135.7060 C   0  0  1  0  0  3  0  0  0  0  0  0
  184.7410  177.7750  137.8390 C   0  0  0  0  0  0  0  0  0  0  0  0
  189.3970  178.7670  138.8170 C   0  0  0  0  0  2  0  0  0  0  0  0
  188.0870  178.2620  141.0620 C   0  0  1  0  0  0  0  0  0  0  0  0
  182.0510  178.8590  141.6610 C   0  0  0  0  0  3  0  0  0  0  0  0
  188.7600  177.7910  139.7780 C   0  0  0  0  0  0  0  0  0  0  0  0
  188.8410  176.5920  139.5500 O   0  0  0  0  0  0  0  0  0  0  0  0
  184.8440  177.2010  136.4660 C   0  0  0  0  0  2  0  0  0  0  0  0
  182.1190  178.8270  140.2470 C   0  0  0  0  0  3  0  0  0  0  0  0
  187.7200  176.4160  135.5180 C   0  0  2  0  0  0  0  0  0  0  0  0
  189.1250  176.3530  134.9390 C   0  0  0  0  0  1  0  0  0  0  0  0
  186.7620  175.6540  134.5940 C   0  0  0  0  0  2  0  0  0  0  0  0
  186.2760  174.5530  135.4380 C   0  0  0  0  0  0  0  0  0  0  0  0
  185.4530  173.6810  135.0550 O   0  0  0  0  0  0  0  0  0  0  0  0
  187.7060  175.6520  136.8610 C   0  0  0  0  0  2  0  0  0  0  0  0
  186.8120  174.5670  136.7010 O   0  0  0  0  0  0  0  0  0  0  0  0
  190.2190  177.6510  142.0610 O   0  0  0  0  0  1  0  0  0  0  0  0
  188.8350  177.6330  142.2660 C   0  0  1  0  0  3  0  0  0  0  0  0
  188.5310  178.3300  143.5880 C   0  0  0  0  0  2  0  0  0  0  0  0
  188.3330  177.0500  145.7890 N   0  0  2  0  0  0  0  0  0  0  0  0
  187.6920  177.4260  144.4950 C   0  0  1  0  0  3  0  0  0  0  0  0
  187.3380  178.1350  145.7200 C   0  0  1  0  0  3  0  0  0  0  0  0
  190.9530  176.6400  145.2600 S   0  0  0  0  0  0  0  0  0  0  0  0
  189.9270  177.7560  147.4830 C   0  0  0  0  0  0  0  0  0  0  0  0
  189.6390  177.6770  146.0160 C   0  0  2  0  0  3  0  0  0  0  0  0
  189.2430  178.4690  148.2630 O   0  0  0  0  0  0  0  0  0  0  0  0
  191.0220  176.9940  147.9570 N   0  0  0  0  0  2  0  0  0  0  0  0
  192.6230  175.5600  147.0520 O   0  0  0  0  0  0  0  0  0  0  0  0
  191.6430  176.3290  146.8760 C   0  0  0  0  0  0  0  0  0  0  0  0
  185.0990  178.7410  146.4180 N   0  0  0  0  0  1  0  0  0  0  0  0
  186.0080  177.6250  146.2350 C   0  0  0  0  0  2  0  0  0  0  0  0
  2 17  1  0  0  0  0
  2  9  1  1  0  0  0
  3 11  1  0  0  0  0
  5 22  1  0  0  0  0
  5  3  2  0  0  0  0
  6  5  1  0  0  0  0
  7 16  1  0  0  0  0
  8 21  1  0  0  0  0
 10  7  1  0  0  0  0
 11  9  1  0  0  0  0
 11 13  2  0  0  0  0
 12  4  1  6  0  0  0
 12  3  1  0  0  0  0
 12  2  1  0  0  0  0
 14  8  1  1  0  0  0
 14 10  1  0  0  0  0
 15  6  1  0  0  0  0
 15  4  2  0  0  0  0
 16 19  1  0  0  0  0
 17  1  1  1  0  0  0
 17 31  1  0  0  0  0
 18 13  1  0  0  0  0
 19 17  1  0  0  0  0
 20 19  2  0  0  0  0
 21 15  1  0  0  0  0
 22 18  2  0  0  0  0
 23 24  1  6  0  0  0
 23 14  1  0  0  0  0
 23 28  1  0  0  0  0
 25 26  1  0  0  0  0
 25 23  1  0  0  0  0
 26 29  1  0  0  0  0
 27 26  2  0  0  0  0
 29 28  1  0  0  0  0
 31 30  1  6  0  0  0
 31 32  1  0  0  0  0
 33 38  1  6  0  0  0
 34 32  1  6  0  0  0
 34 35  1  0  0  0  0
 34 33  1  0  0  0  0
 35 33  1  0  0  0  0
 35 44  1  1  0  0  0
 36 42  1  0  0  0  0
 37 40  1  0  0  0  0
 37 39  2  0  0  0  0
 38 36  1  6  0  0  0
 38 37  1  0  0  0  0
 42 41  2  0  0  0  0
 42 40  1  0  0  0  0
 44 43  1  0  0  0  0
M  END
>  <MODEL>
2

>  <REMARK>
 VINA RESULT:      -8.0      3.611      6.606
  Name = 
  6 active torsions:
  status: ('A' for Active; 'I' for Inactive)
    1  A    between atoms: C_6  and  C_23
    2  A    between atoms: N_11  and  C_29
    3  A    between atoms: C_12  and  C_15
    4  A    between atoms: C_13  and  C_27
    5  A    between atoms: C_27  and  C_35
    6  A    between atoms: C_35  and  C_37
                            x       y       z     vdW  Elec       q    Type
                         _______ _______ _______ _____ _____    ______ ____

>  <TORSDO>
F 6

$$$$
=
 OpenBabel11062416143D

 44 50  0  0  1  0  0  0  0  0999 V2000
  186.3700  179.9780  140.8280 O   0  0  0  0  0  1  0  0  0  0  0  0
  185.5170  178.0540  142.0130 C   0  0  1  0  0  3  0  0  0  0  0  0
  184.6310  178.7680  144.0630 C   0  0  0  0  0  0  0  0  0  0  0  0
  183.0300  178.3990  142.3270 N   0  0  0  0  0  0  0  0  0  0  0  0
  183.6200  178.8310  144.9980 C   0  0  0  0  0  0  0  0  0  0  0  0
  182.3040  178.9020  144.5190 O   0  0  0  0  0  0  0  0  0  0  0  0
  182.7250  179.7980  138.8990 C   0  0  0  0  0  2  0  0  0  0  0  0
  180.1480  179.5210  141.8400 C   0  0  0  0  0  2  0  0  0  0  0  0
  186.6230  178.0200  143.1130 C   0  0  0  0  0  2  0  0  0  0  0  0
  182.0670  179.9610  140.2600 C   0  0  0  0  0  2  0  0  0  0  0  0
  185.8880  178.3550  144.3620 C   0  0  0  0  0  0  0  0  0  0  0  0
  184.3780  178.8740  142.6350 C   0  0  2  0  0  3  0  0  0  0  0  0
  186.2620  178.1550  145.6930 C   0  0  0  0  0  3  0  0  0  0  0  0
  180.6090  179.4770  140.3650 C   0  0  1  0  0  3  0  0  0  0  0  0
  182.0430  178.5610  143.1710 C   0  0  0  0  0  0  0  0  0  0  0  0
  184.2470  179.8300  139.0300 C   0  0  0  0  0  2  0  0  0  0  0  0
  185.9740  178.6450  140.6490 C   0  0  1  0  0  0  0  0  0  0  0  0
  185.2880  178.3600  146.6990 C   0  0  0  0  0  3  0  0  0  0  0  0
  184.8080  178.5820  139.6690 C   0  0  0  0  0  0  0  0  0  0  0  0
  184.3580  177.4920  139.3440 O   0  0  0  0  0  0  0  0  0  0  0  0
  180.6410  178.3530  142.7070 C   0  0  0  0  0  2  0  0  0  0  0  0
  183.9540  178.6790  146.3520 C   0  0  0  0  0  3  0  0  0  0  0  0
  180.2320  178.1670  139.6110 C   0  0  2  0  0  0  0  0  0  0  0  0
  179.8740  178.4300  138.1560 C   0  0  0  0  0  1  0  0  0  0  0  0
  179.0470  177.4800  140.3020 C   0  0  0  0  0  2  0  0  0  0  0  0
  179.5910  176.1690  140.6880 C   0  0  0  0  0  0  0  0  0  0  0  0
  178.9320  175.2850  141.2950 O   0  0  0  0  0  0  0  0  0  0  0  0
  181.3930  177.1490  139.6550 C   0  0  0  0  0  2  0  0  0  0  0  0
  180.9020  176.0010  140.3210 O   0  0  0  0  0  0  0  0  0  0  0  0
  187.8490  178.5880  139.1000 O   0  0  0  0  0  1  0  0  0  0  0  0
  187.1560  177.8360  140.0550 C   0  0  1  0  0  3  0  0  0  0  0  0
  188.1480  177.3640  141.1140 C   0  0  0  0  0  2  0  0  0  0  0  0
  190.5100  177.8400  141.9600 N   0  0  2  0  0  0  0  0  0  0  0  0
  189.5510  177.9020  140.8190 C   0  0  1  0  0  3  0  0  0  0  0  0
  190.5290  176.8220  140.8940 C   0  0  1  0  0  3  0  0  0  0  0  0
  190.1290  178.3390  144.5910 S   0  0  0  0  0  0  0  0  0  0  0  0
  190.7630  175.9680  143.4890 C   0  0  0  0  0  0  0  0  0  0  0  0
  189.9710  177.1960  143.1620 C   0  0  2  0  0  3  0  0  0  0  0  0
  190.7810  174.9610  142.7340 O   0  0  0  0  0  0  0  0  0  0  0  0
  191.4870  175.9840  144.7050 N   0  0  0  0  0  2  0  0  0  0  0  0
  191.8220  177.4690  146.4720 O   0  0  0  0  0  0  0  0  0  0  0  0
  191.2570  177.2040  145.3800 C   0  0  0  0  0  0  0  0  0  0  0  0
  191.3030  176.7270  138.6010 N   0  0  0  0  0  1  0  0  0  0  0  0
  191.6770  177.1110  139.9500 C   0  0  0  0  0  2  0  0  0  0  0  0
  2 12  1  0  0  0  0
  2  9  1  1  0  0  0
  3 11  2  0  0  0  0
  3  5  1  0  0  0  0
  4 15  2  0  0  0  0
  5 22  2  0  0  0  0
  6  5  1  0  0  0  0
  7 16  1  0  0  0  0
  7 10  1  0  0  0  0
  8 21  1  0  0  0  0
  9 11  1  0  0  0  0
 11 13  1  0  0  0  0
 12  4  1  1  0  0  0
 12  3  1  0  0  0  0
 13 18  2  0  0  0  0
 14 10  1  1  0  0  0
 14  8  1  0  0  0  0
 15  6  1  0  0  0  0
 16 19  1  0  0  0  0
 17  1  1  1  0  0  0
 17  2  1  0  0  0  0
 19 17  1  0  0  0  0
 20 19  2  0  0  0  0
 21 15  1  0  0  0  0
 22 18  1  0  0  0  0
 23 24  1  6  0  0  0
 23 28  1  0  0  0  0
 23 25  1  0  0  0  0
 23 14  1  0  0  0  0
 25 26  1  0  0  0  0
 26 27  2  0  0  0  0
 28 29  1  0  0  0  0
 29 26  1  0  0  0  0
 31 30  1  6  0  0  0
 31 17  1  0  0  0  0
 31 32  1  0  0  0  0
 33 38  1  1  0  0  0
 34 35  1  0  0  0  0
 34 32  1  1  0  0  0
 34 33  1  0  0  0  0
 35 44  1  6  0  0  0
 35 33  1  0  0  0  0
 36 42  1  0  0  0  0
 37 40  1  0  0  0  0
 38 37  1  1  0  0  0
 38 36  1  0  0  0  0
 39 37  2  0  0  0  0
 40 42  1  0  0  0  0
 42 41  2  0  0  0  0
 43 44  1  0  0  0  0
M  END
>  <MODEL>
3

>  <REMARK>
 VINA RESULT:      -7.9      1.737      2.848
  Name = 
  6 active torsions:
  status: ('A' for Active; 'I' for Inactive)
    1  A    between atoms: C_6  and  C_23
    2  A    between atoms: N_11  and  C_29
    3  A    between atoms: C_12  and  C_15
    4  A    between atoms: C_13  and  C_27
    5  A    between atoms: C_27  and  C_35
    6  A    between atoms: C_35  and  C_37
                            x       y       z     vdW  Elec       q    Type
                         _______ _______ _______ _____ _____    ______ ____

>  <TORSDO>
F 6

$$$$
=
 OpenBabel11062416143D

 44 50  0  0  1  0  0  0  0  0999 V2000
  184.7450  179.8210  139.1250 O   0  0  0  0  0  1  0  0  0  0  0  0
  184.0540  177.9460  140.4820 C   0  0  1  0  0  3  0  0  0  0  0  0
  182.3020  178.6370  141.8790 C   0  0  0  0  0  0  0  0  0  0  0  0
  181.6390  177.4480  139.9140 N   0  0  0  0  0  0  0  0  0  0  0  0
  181.0350  178.4960  142.4050 C   0  0  0  0  0  0  0  0  0  0  0  0
  180.0310  178.0240  141.5480 O   0  0  0  0  0  0  0  0  0  0  0  0
  182.2940  178.0620  136.3090 C   0  0  0  0  0  2  0  0  0  0  0  0
  178.9710  177.3960  138.2780 C   0  0  0  0  0  2  0  0  0  0  0  0
  184.6270  178.4840  141.8300 C   0  0  0  0  0  2  0  0  0  0  0  0
  181.1510  178.2090  137.3020 C   0  0  0  0  0  2  0  0  0  0  0  0
  183.4130  178.7440  142.6500 C   0  0  0  0  0  0  0  0  0  0  0  0
  182.5900  178.4080  140.4720 C   0  0  2  0  0  3  0  0  0  0  0  0
  183.2940  178.9110  144.0320 C   0  0  0  0  0  3  0  0  0  0  0  0
  179.9490  177.2710  137.0880 C   0  0  1  0  0  3  0  0  0  0  0  0
  180.4020  177.3930  140.3360 C   0  0  0  0  0  0  0  0  0  0  0  0
  183.5850  178.6450  136.8820 C   0  0  0  0  0  2  0  0  0  0  0  0
  184.8180  178.4240  139.2150 C   0  0  1  0  0  0  0  0  0  0  0  0
  181.9950  178.9280  144.5930 C   0  0  0  0  0  3  0  0  0  0  0  0
  184.1720  177.7960  137.9840 C   0  0  0  0  0  0  0  0  0  0  0  0
  184.1880  176.5790  137.8560 O   0  0  0  0  0  0  0  0  0  0  0  0
  179.3910  176.6350  139.5440 C   0  0  0  0  0  2  0  0  0  0  0  0
  180.8590  178.6990  143.7810 C   0  0  0  0  0  3  0  0  0  0  0  0
  180.2510  175.8060  136.6530 C   0  0  2  0  0  0  0  0  0  0  0  0
  180.5760  175.7080  135.1710 C   0  0  0  0  0  1  0  0  0  0  0  0
  179.0490  174.9030  136.9620 C   0  0  0  0  0  2  0  0  0  0  0  0
  179.6010  173.9070  137.8930 C   0  0  0  0  0  0  0  0  0  0  0  0
  178.9310  172.9700  138.4000 O   0  0  0  0  0  0  0  0  0  0  0  0
  181.4330  175.2220  137.4570 C   0  0  0  0  0  2  0  0  0  0  0  0
  180.9330  174.1010  138.1590 O   0  0  0  0  0  0  0  0  0  0  0  0
  187.0630  178.6970  138.3190 O   0  0  0  0  0  1  0  0  0  0  0  0
  186.3060  177.9910  139.2600 C   0  0  1  0  0  3  0  0  0  0  0  0
  186.9410  178.1820  140.6340 C   0  0  0  0  0  2  0  0  0  0  0  0
  189.2990  177.9600  141.5890 N   0  0  2  0  0  0  0  0  0  0  0  0
  188.4330  178.5010  140.5010 C   0  0  1  0  0  3  0  0  0  0  0  0
  189.1920  177.2720  140.2900 C   0  0  1  0  0  3  0  0  0  0  0  0
  187.8020  178.2300  143.8250 S   0  0  0  0  0  0  0  0  0  0  0  0
  189.5460  176.2500  143.2990 C   0  0  0  0  0  0  0  0  0  0  0  0
  188.5850  177.1390  142.5720 C   0  0  2  0  0  3  0  0  0  0  0  0
  190.1800  175.3310  142.7170 O   0  0  0  0  0  0  0  0  0  0  0  0
  189.7030  176.4830  144.6860 N   0  0  0  0  0  2  0  0  0  0  0  0
  188.8320  177.9460  146.2790 O   0  0  0  0  0  0  0  0  0  0  0  0
  188.8470  177.5310  145.0920 C   0  0  0  0  0  0  0  0  0  0  0  0
  191.6050  177.4760  140.3020 N   0  0  0  0  0  1  0  0  0  0  0  0
  190.4240  177.5730  139.4630 C   0  0  0  0  0  2  0  0  0  0  0  0
  2  9  1  1  0  0  0
  3  5  2  0  0  0  0
  3 11  1  0  0  0  0
  4 15  2  0  0  0  0
  5 22  1  0  0  0  0
  6  5  1  0  0  0  0
  7 16  1  0  0  0  0
  7 10  1  0  0  0  0
  8 21  1  0  0  0  0
  9 11  1  0  0  0  0
 11 13  2  0  0  0  0
 12  4  1  1  0  0  0
 12  2  1  0  0  0  0
 12  3  1  0  0  0  0
 13 18  1  0  0  0  0
 14 10  1  1  0  0  0
 14  8  1  0  0  0  0
 15  6  1  0  0  0  0
 16 19  1  0  0  0  0
 17  1  1  6  0  0  0
 17 31  1  0  0  0  0
 17  2  1  0  0  0  0
 19 17  1  0  0  0  0
 20 19  2  0  0  0  0
 21 15  1  0  0  0  0
 22 18  2  0  0  0  0
 23 24  1  6  0  0  0
 23 25  1  0  0  0  0
 23 14  1  0  0  0  0
 23 28  1  0  0  0  0
 25 26  1  0  0  0  0
 26 29  1  0  0  0  0
 26 27  2  0  0  0  0
 28 29  1  0  0  0  0
 31 30  1  6  0  0  0
 31 32  1  0  0  0  0
 33 38  1  1  0  0  0
 34 32  1  1  0  0  0
 34 33  1  0  0  0  0
 35 44  1  6  0  0  0
 35 34  1  0  0  0  0
 35 33  1  0  0  0  0
 36 42  1  0  0  0  0
 37 40  1  0  0  0  0
 38 37  1  1  0  0  0
 38 36  1  0  0  0  0
 39 37  2  0  0  0  0
 40 42  1  0  0  0  0
 42 41  2  0  0  0  0
 44 43  1  0  0  0  0
M  END
>  <MODEL>
4

>  <REMARK>
 VINA RESULT:      -7.2      2.552      3.985
  Name = 
  6 active torsions:
  status: ('A' for Active; 'I' for Inactive)
    1  A    between atoms: C_6  and  C_23
    2  A    between atoms: N_11  and  C_29
    3  A    between atoms: C_12  and  C_15
    4  A    between atoms: C_13  and  C_27
    5  A    between atoms: C_27  and  C_35
    6  A    between atoms: C_35  and  C_37
                            x       y       z     vdW  Elec       q    Type
                         _______ _______ _______ _____ _____    ______ ____

>  <TORSDO>
F 6

$$$$
=
 OpenBabel11062416143D

 44 50  0  0  1  0  0  0  0  0999 V2000
  190.6950  175.7140  139.6550 O   0  0  0  0  0  1  0  0  0  0  0  0
  189.8390  177.9720  139.6950 C   0  0  1  0  0  3  0  0  0  0  0  0
  187.6140  177.9440  138.9550 C   0  0  0  0  0  0  0  0  0  0  0  0
  187.9060  178.0220  141.3270 N   0  0  0  0  0  0  0  0  0  0  0  0
  186.2790  178.2550  139.0980 C   0  0  0  0  0  0  0  0  0  0  0  0
  185.7430  178.2140  140.3930 O   0  0  0  0  0  0  0  0  0  0  0  0
  189.7430  175.8010  143.6710 C   0  0  0  0  0  2  0  0  0  0  0  0
  186.0670  177.1600  143.7090 C   0  0  0  0  0  2  0  0  0  0  0  0
  189.7880  178.1680  138.1480 C   0  0  0  0  0  2  0  0  0  0  0  0
  188.3080  176.0890  143.2610 C   0  0  0  0  0  2  0  0  0  0  0  0
  188.3340  178.2700  137.8530 C   0  0  0  0  0  0  0  0  0  0  0  0
  188.4310  177.4900  140.0700 C   0  0  2  0  0  3  0  0  0  0  0  0
  187.6900  178.7740  136.7200 C   0  0  0  0  0  3  0  0  0  0  0  0
  187.4210  176.7530  144.3310 C   0  0  1  0  0  3  0  0  0  0  0  0
  186.6230  178.2100  141.5020 C   0  0  0  0  0  0  0  0  0  0  0  0
  190.6300  175.6250  142.4390 C   0  0  0  0  0  2  0  0  0  0  0  0
  190.9360  176.9880  140.1890 C   0  0  1  0  0  0  0  0  0  0  0  0
  186.2900  178.9630  136.7750 C   0  0  0  0  0  3  0  0  0  0  0  0
  190.8900  176.9230  141.7120 C   0  0  0  0  0  0  0  0  0  0  0  0
  191.1310  177.9320  142.3610 O   0  0  0  0  0  0  0  0  0  0  0  0
  186.0990  178.4510  142.8770 C   0  0  0  0  0  2  0  0  0  0  0  0
  185.5800  178.7230  137.9760 C   0  0  0  0  0  3  0  0  0  0  0  0
  188.0760  177.8470  145.2250 C   0  0  2  0  0  0  0  0  0  0  0  0
  189.1140  178.6590  144.4650 C   0  0  0  0  0  1  0  0  0  0  0  0
  188.7430  177.2030  146.4480 C   0  0  0  0  0  2  0  0  0  0  0  0
  188.0360  177.8140  147.5830 C   0  0  0  0  0  0  0  0  0  0  0  0
  188.2800  177.5490  148.7900 O   0  0  0  0  0  0  0  0  0  0  0  0
  187.0110  178.8140  145.7880 C   0  0  0  0  0  2  0  0  0  0  0  0
  187.0710  178.7100  147.1970 O   0  0  0  0  0  0  0  0  0  0  0  0
  193.3000  177.1470  140.7390 O   0  0  0  0  0  1  0  0  0  0  0  0
  192.3490  177.4610  139.7630 C   0  0  1  0  0  3  0  0  0  0  0  0
  192.8030  176.8650  138.4340 C   0  0  0  0  0  2  0  0  0  0  0  0
  193.1870  174.4540  137.6860 N   0  0  2  0  0  0  0  0  0  0  0  0
  193.5260  175.5340  138.6580 C   0  0  1  0  0  3  0  0  0  0  0  0
  194.4170  175.2520  137.5380 C   0  0  1  0  0  3  0  0  0  0  0  0
  190.6380  174.0680  136.8690 S   0  0  0  0  0  0  0  0  0  0  0  0
  192.7870  174.4210  135.2890 C   0  0  0  0  0  0  0  0  0  0  0  0
  192.2710  174.8710  136.6200 C   0  0  2  0  0  3  0  0  0  0  0  0
  193.8550  174.8690  134.7980 O   0  0  0  0  0  0  0  0  0  0  0  0
  192.0040  173.4680  134.5940 N   0  0  0  0  0  2  0  0  0  0  0  0
  190.0020  172.3240  134.9400 O   0  0  0  0  0  0  0  0  0  0  0  0
  190.8400  173.1730  135.3380 C   0  0  0  0  0  0  0  0  0  0  0  0
  196.0930  174.9980  139.2680 N   0  0  0  0  0  1  0  0  0  0  0  0
  195.6000  174.4400  138.0220 C   0  0  0  0  0  2  0  0  0  0  0  0
  2  9  1  6  0  0  0
  2 12  1  0  0  0  0
  2 17  1  0  0  0  0
  3  5  1  0  0  0  0
  4 15  2  0  0  0  0
  5  6  1  0  0  0  0
  6 15  1  0  0  0  0
  8 14  1  0  0  0  0
 10  7  1  0  0  0  0
 11  9  1  0  0  0  0
 11  3  2  0  0  0  0
 12  3  1  6  0  0  0
 12  4  1  0  0  0  0
 13 18  2  0  0  0  0
 13 11  1  0  0  0  0
 14 10  1  6  0  0  0
 14 23  1  0  0  0  0
 15 21  1  0  0  0  0
 16  7  1  0  0  0  0
 17  1  1  6  0  0  0
 17 19  1  0  0  0  0
 18 22  1  0  0  0  0
 19 20  2  0  0  0  0
 19 16  1  0  0  0  0
 21  8  1  0  0  0  0
 22  5  2  0  0  0  0
 23 24  1  6  0  0  0
 23 28  1  0  0  0  0
 23 25  1  0  0  0  0
 25 26  1  0  0  0  0
 26 27  2  0  0  0  0
 28 29  1  0  0  0  0
 29 26  1  0  0  0  0
 31 17  1  0  0  0  0
 31 30  1  1  0  0  0
 32 31  1  0  0  0  0
 33 38  1  6  0  0  0
 33 34  1  0  0  0  0
 34 32  1  6  0  0  0
 35 33  1  0  0  0  0
 35 44  1  1  0  0  0
 35 34  1  0  0  0  0
 38 37  1  6  0  0  0
 38 36  1  0  0  0  0
 39 37  2  0  0  0  0
 40 37  1  0  0  0  0
 40 42  1  0  0  0  0
 41 42  2  0  0  0  0
 42 36  1  0  0  0  0
 44 43  1  0  0  0  0
M  END
>  <MODEL>
5

>  <REMARK>
 VINA RESULT:      -7.1      3.646      7.211
  Name = 
  6 active torsions:
  status: ('A' for Active; 'I' for Inactive)
    1  A    between atoms: C_6  and  C_23
    2  A    between atoms: N_11  and  C_29
    3  A    between atoms: C_12  and  C_15
    4  A    between atoms: C_13  and  C_27
    5  A    between atoms: C_27  and  C_35
    6  A    between atoms: C_35  and  C_37
                            x       y       z     vdW  Elec       q    Type
                         _______ _______ _______ _____ _____    ______ ____

>  <TORSDO>
F 6

$$$$
=
 OpenBabel11062416143D

 44 50  0  0  1  0  0  0  0  0999 V2000
  190.5820  175.5650  139.1430 O   0  0  0  0  0  1  0  0  0  0  0  0
  189.8310  177.8520  139.3360 C   0  0  1  0  0  3  0  0  0  0  0  0
  187.4990  177.8980  139.1020 C   0  0  0  0  0  0  0  0  0  0  0  0
  188.3050  177.9820  141.3510 N   0  0  0  0  0  0  0  0  0  0  0  0
  186.2380  178.2580  139.5290 C   0  0  0  0  0  0  0  0  0  0  0  0
  185.9980  178.2450  140.9110 O   0  0  0  0  0  0  0  0  0  0  0  0
  190.5370  175.7140  143.2680 C   0  0  0  0  0  2  0  0  0  0  0  0
  187.0060  177.2040  144.0900 C   0  0  0  0  0  2  0  0  0  0  0  0
  189.4490  178.0390  137.8350 C   0  0  0  0  0  2  0  0  0  0  0  0
  189.0570  176.0500  143.1780 C   0  0  0  0  0  2  0  0  0  0  0  0
  187.9700  178.1910  137.8640 C   0  0  0  0  0  0  0  0  0  0  0  0
  188.5240  177.4240  140.0180 C   0  0  2  0  0  3  0  0  0  0  0  0
  187.1100  178.7090  136.8920 C   0  0  0  0  0  3  0  0  0  0  0  0
  188.4500  176.7530  144.4070 C   0  0  1  0  0  3  0  0  0  0  0  0
  187.0990  178.2180  141.7990 C   0  0  0  0  0  0  0  0  0  0  0  0
  191.1260  175.4980  141.8750 C   0  0  0  0  0  2  0  0  0  0  0  0
  190.9760  176.8320  139.5930 C   0  0  1  0  0  0  0  0  0  0  0  0
  185.7630  178.9480  137.2500 C   0  0  0  0  0  3  0  0  0  0  0  0
  191.2630  176.7800  141.0890 C   0  0  0  0  0  0  0  0  0  0  0  0
  191.6750  177.7850  141.6550 O   0  0  0  0  0  0  0  0  0  0  0  0
  186.8980  178.4870  143.2530 C   0  0  0  0  0  2  0  0  0  0  0  0
  185.3260  178.7430  138.5810 C   0  0  0  0  0  3  0  0  0  0  0  0
  189.3210  177.8290  145.1190 C   0  0  2  0  0  0  0  0  0  0  0  0
  189.7890  178.9110  144.1580 C   0  0  0  0  0  1  0  0  0  0  0  0
  190.5460  177.1730  145.7700 C   0  0  0  0  0  2  0  0  0  0  0  0
  190.3860  177.4910  147.1960 C   0  0  0  0  0  0  0  0  0  0  0  0
  191.1910  177.1280  148.0930 O   0  0  0  0  0  0  0  0  0  0  0  0
  188.5410  178.4990  146.2720 C   0  0  0  0  0  2  0  0  0  0  0  0
  189.2610  178.2310  147.4600 O   0  0  0  0  0  0  0  0  0  0  0  0
  193.3850  177.1540  139.7080 O   0  0  0  0  0  1  0  0  0  0  0  0
  192.2770  177.2520  138.8600 C   0  0  1  0  0  3  0  0  0  0  0  0
  192.5490  176.4260  137.6080 C   0  0  0  0  0  2  0  0  0  0  0  0
  194.8920  175.6270  136.9810 N   0  0  2  0  0  0  0  0  0  0  0  0
  193.9250  176.7630  137.0260 C   0  0  1  0  0  3  0  0  0  0  0  0
  194.1360  176.0310  135.7810 C   0  0  1  0  0  3  0  0  0  0  0  0
  195.4300  173.6270  138.7180 S   0  0  0  0  0  0  0  0  0  0  0  0
  194.2930  173.3750  136.2930 C   0  0  0  0  0  0  0  0  0  0  0  0
  194.3370  174.3470  137.4300 C   0  0  2  0  0  3  0  0  0  0  0  0
  193.5560  173.5510  135.2880 O   0  0  0  0  0  0  0  0  0  0  0  0
  195.1170  172.2290  136.4050 N   0  0  0  0  0  2  0  0  0  0  0  0
  196.6190  171.3520  137.9580 O   0  0  0  0  0  0  0  0  0  0  0  0
  195.7980  172.2510  137.6420 C   0  0  0  0  0  0  0  0  0  0  0  0
  195.4310  178.0630  135.5330 N   0  0  0  0  0  1  0  0  0  0  0  0
  195.0400  176.8330  134.8690 C   0  0  0  0  0  2  0  0  0  0  0  0
  2  9  1  6  0  0  0
  2 17  1  0  0  0  0
  2 12  1  0  0  0  0
  3  5  1  0  0  0  0
  4 15  2  0  0  0  0
  5  6  1  0  0  0  0
  6 15  1  0  0  0  0
  8 14  1  0  0  0  0
  9 11  1  0  0  0  0
 10  7  1  0  0  0  0
 11  3  2  0  0  0  0
 12  3  1  6  0  0  0
 12  4  1  0  0  0  0
 13 18  2  0  0  0  0
 13 11  1  0  0  0  0
 14 10  1  6  0  0  0
 14 23  1  0  0  0  0
 15 21  1  0  0  0  0
 16  7  1  0  0  0  0
 17  1  1  6  0  0  0
 17 19  1  0  0  0  0
 18 22  1  0  0  0  0
 19 20  2  0  0  0  0
 19 16  1  0  0  0  0
 21  8  1  0  0  0  0
 22  5  2  0  0  0  0
 23 24  1  6  0  0  0
 23 25  1  0  0  0  0
 23 28  1  0  0  0  0
 25 26  1  0  0  0  0
 26 29  1  0  0  0  0
 26 27  2  0  0  0  0
 28 29  1  0  0  0  0
 31 17  1  0  0  0  0
 31 30  1  1  0  0  0
 32 31  1  0  0  0  0
 33 34  1  0  0  0  0
 33 38  1  1  0  0  0
 34 32  1  1  0  0  0
 35 44  1  6  0  0  0
 35 33  1  0  0  0  0
 35 34  1  0  0  0  0
 37 40  1  0  0  0  0
 38 37  1  6  0  0  0
 38 36  1  0  0  0  0
 39 37  2  0  0  0  0
 40 42  1  0  0  0  0
 42 41  2  0  0  0  0
 42 36  1  0  0  0  0
 44 43  1  0  0  0  0
M  END
>  <MODEL>
6

>  <REMARK>
 VINA RESULT:      -6.9      3.783      7.902
  Name = 
  6 active torsions:
  status: ('A' for Active; 'I' for Inactive)
    1  A    between atoms: C_6  and  C_23
    2  A    between atoms: N_11  and  C_29
    3  A    between atoms: C_12  and  C_15
    4  A    between atoms: C_13  and  C_27
    5  A    between atoms: C_27  and  C_35
    6  A    between atoms: C_35  and  C_37
                            x       y       z     vdW  Elec       q    Type
                         _______ _______ _______ _____ _____    ______ ____

>  <TORSDO>
F 6

$$$$
=
 OpenBabel11062416143D

 44 50  0  0  1  0  0  0  0  0999 V2000
  187.6350  176.5450  139.0360 O   0  0  0  0  0  1  0  0  0  0  0  0
  186.9120  178.6290  140.0190 C   0  0  1  0  0  3  0  0  0  0  0  0
  184.7530  178.3400  140.8860 C   0  0  0  0  0  0  0  0  0  0  0  0
  186.5250  178.2100  142.4850 N   0  0  0  0  0  0  0  0  0  0  0  0
  183.8270  178.4270  141.9040 C   0  0  0  0  0  0  0  0  0  0  0  0
  184.2750  178.1680  143.2070 O   0  0  0  0  0  0  0  0  0  0  0  0
  189.5500  176.0610  142.6600 C   0  0  0  0  0  2  0  0  0  0  0  0
  186.7440  176.8310  145.2860 C   0  0  0  0  0  2  0  0  0  0  0  0
  185.8490  178.9780  138.9310 C   0  0  0  0  0  2  0  0  0  0  0  0
  188.1870  176.1680  143.3250 C   0  0  0  0  0  2  0  0  0  0  0  0
  184.5560  178.8870  139.6610 C   0  0  0  0  0  0  0  0  0  0  0  0
  186.1210  177.9010  141.1150 C   0  0  2  0  0  3  0  0  0  0  0  0
  183.3040  179.4040  139.3170 C   0  0  0  0  0  3  0  0  0  0  0  0
  188.1920  176.5720  144.8110 C   0  0  1  0  0  3  0  0  0  0  0  0
  185.6650  178.1820  143.4710 C   0  0  0  0  0  0  0  0  0  0  0  0
  189.4180  176.1540  141.1410 C   0  0  0  0  0  2  0  0  0  0  0  0
  188.1080  177.7770  139.5090 C   0  0  1  0  0  0  0  0  0  0  0  0
  182.2770  179.3690  140.2890 C   0  0  0  0  0  3  0  0  0  0  0  0
  189.0760  177.5460  140.6650 C   0  0  0  0  0  0  0  0  0  0  0  0
  189.6370  178.5050  141.1760 O   0  0  0  0  0  0  0  0  0  0  0  0
  186.1630  178.1930  144.8770 C   0  0  0  0  0  2  0  0  0  0  0  0
  182.5420  178.8990  141.5970 C   0  0  0  0  0  3  0  0  0  0  0  0
  189.2210  177.6530  145.2560 C   0  0  2  0  0  0  0  0  0  0  0  0
  189.3440  178.7760  144.2380 C   0  0  0  0  0  1  0  0  0  0  0  0
  190.6000  177.0150  145.4670 C   0  0  0  0  0  2  0  0  0  0  0  0
  190.8890  177.2860  146.8830 C   0  0  0  0  0  0  0  0  0  0  0  0
  191.9410  176.9210  147.4700 O   0  0  0  0  0  0  0  0  0  0  0  0
  188.8280  178.2650  146.6190 C   0  0  0  0  0  2  0  0  0  0  0  0
  189.8880  177.9830  147.5120 O   0  0  0  0  0  0  0  0  0  0  0  0
  189.2720  179.7820  138.7720 O   0  0  0  0  0  1  0  0  0  0  0  0
  188.8710  178.5030  138.3710 C   0  0  1  0  0  3  0  0  0  0  0  0
  190.0990  177.7370  137.8920 C   0  0  0  0  0  2  0  0  0  0  0  0
  190.8330  176.2050  135.9850 N   0  0  2  0  0  0  0  0  0  0  0  0
  189.9340  177.3110  136.4310 C   0  0  1  0  0  3  0  0  0  0  0  0
  189.4310  175.9430  136.3600 C   0  0  1  0  0  3  0  0  0  0  0  0
  193.4200  176.1550  136.7700 S   0  0  0  0  0  0  0  0  0  0  0  0
  191.6360  174.1550  137.0120 C   0  0  0  0  0  0  0  0  0  0  0  0
  191.6750  175.6510  137.0480 C   0  0  2  0  0  3  0  0  0  0  0  0
  190.5850  173.5060  137.2540 O   0  0  0  0  0  0  0  0  0  0  0  0
  192.8500  173.4950  136.7030 N   0  0  0  0  0  2  0  0  0  0  0  0
  195.0450  174.1040  136.2080 O   0  0  0  0  0  0  0  0  0  0  0  0
  193.8780  174.4470  136.5260 C   0  0  0  0  0  0  0  0  0  0  0  0
  187.4020  175.0160  135.4160 N   0  0  0  0  0  1  0  0  0  0  0  0
  188.6030  175.7710  135.1050 C   0  0  0  0  0  2  0  0  0  0  0  0
  2  9  1  6  0  0  0
  2 12  1  0  0  0  0
  3  5  1  0  0  0  0
  4 15  2  0  0  0  0
  5  6  1  0  0  0  0
  6 15  1  0  0  0  0
  7 10  1  0  0  0  0
  9 11  1  0  0  0  0
 11  3  2  0  0  0  0
 12  3  1  1  0  0  0
 12  4  1  0  0  0  0
 13 11  1  0  0  0  0
 13 18  2  0  0  0  0
 14 10  1  6  0  0  0
 14 23  1  0  0  0  0
 14  8  1  0  0  0  0
 15 21  1  0  0  0  0
 16  7  1  0  0  0  0
 17  1  1  6  0  0  0
 17  2  1  0  0  0  0
 17 19  1  0  0  0  0
 18 22  1  0  0  0  0
 19 16  1  0  0  0  0
 19 20  2  0  0  0  0
 21  8  1  0  0  0  0
 22  5  2  0  0  0  0
 23 24  1  6  0  0  0
 23 25  1  0  0  0  0
 23 28  1  0  0  0  0
 25 26  1  0  0  0  0
 26 27  2  0  0  0  0
 26 29  1  0  0  0  0
 28 29  1  0  0  0  0
 31 30  1  1  0  0  0
 31 17  1  0  0  0  0
 32 31  1  0  0  0  0
 33 35  1  0  0  0  0
 33 34  1  0  0  0  0
 33 38  1  1  0  0  0
 34 32  1  1  0  0  0
 35 44  1  6  0  0  0
 35 34  1  0  0  0  0
 37 38  1  0  0  0  0
 37 39  2  0  0  0  0
 38 36  1  6  0  0  0
 40 37  1  0  0  0  0
 41 42  2  0  0  0  0
 42 40  1  0  0  0  0
 42 36  1  0  0  0  0
 44 43  1  0  0  0  0
M  END
>  <MODEL>
7

>  <REMARK>
 VINA RESULT:      -6.8      2.881      6.799
  Name = 
  6 active torsions:
  status: ('A' for Active; 'I' for Inactive)
    1  A    between atoms: C_6  and  C_23
    2  A    between atoms: N_11  and  C_29
    3  A    between atoms: C_12  and  C_15
    4  A    between atoms: C_13  and  C_27
    5  A    between atoms: C_27  and  C_35
    6  A    between atoms: C_35  and  C_37
                            x       y       z     vdW  Elec       q    Type
                         _______ _______ _______ _____ _____    ______ ____

>  <TORSDO>
F 6

$$$$
=
 OpenBabel11062416143D

 44 50  0  0  1  0  0  0  0  0999 V2000
  189.8590  178.5740  141.9400 O   0  0  0  0  0  1  0  0  0  0  0  0
  187.9370  177.1930  141.4600 C   0  0  1  0  0  3  0  0  0  0  0  0
  186.1080  178.5860  141.0010 C   0  0  0  0  0  0  0  0  0  0  0  0
  187.2210  177.6890  139.0840 N   0  0  0  0  0  0  0  0  0  0  0  0
  185.0520  178.9900  140.2120 C   0  0  0  0  0  0  0  0  0  0  0  0
  185.2250  178.9290  138.8220 O   0  0  0  0  0  0  0  0  0  0  0  0
  190.7640  177.8430  137.9800 C   0  0  0  0  0  2  0  0  0  0  0  0
  187.4140  178.6520  136.1120 C   0  0  0  0  0  2  0  0  0  0  0  0
  187.1620  177.5070  142.7770 C   0  0  0  0  0  2  0  0  0  0  0  0
  189.4290  178.4770  137.6220 C   0  0  0  0  0  2  0  0  0  0  0  0
  185.9710  178.2670  142.3120 C   0  0  0  0  0  0  0  0  0  0  0  0
  187.3950  178.2050  140.4410 C   0  0  2  0  0  3  0  0  0  0  0  0
  184.7660  178.5230  142.9730 C   0  0  0  0  0  3  0  0  0  0  0  0
  188.8490  178.0960  136.2470 C   0  0  1  0  0  3  0  0  0  0  0  0
  186.2860  178.1550  138.2950 C   0  0  0  0  0  0  0  0  0  0  0  0
  190.9900  177.8780  139.4900 C   0  0  0  0  0  2  0  0  0  0  0  0
  189.4850  177.2710  141.5830 C   0  0  1  0  0  0  0  0  0  0  0  0
  183.7020  179.0840  142.2290 C   0  0  0  0  0  3  0  0  0  0  0  0
  190.1050  176.9090  140.2380 C   0  0  0  0  0  0  0  0  0  0  0  0
  189.9350  175.7850  139.7850 O   0  0  0  0  0  0  0  0  0  0  0  0
  186.3330  177.8370  136.8390 C   0  0  0  0  0  2  0  0  0  0  0  0
  183.8350  179.3010  140.8370 C   0  0  0  0  0  3  0  0  0  0  0  0
  189.0140  176.6180  135.7840 C   0  0  2  0  0  0  0  0  0  0  0  0
  190.4250  176.3270  135.2970 C   0  0  0  0  0  1  0  0  0  0  0  0
  188.0210  176.3010  134.6590 C   0  0  0  0  0  2  0  0  0  0  0  0
  187.2080  175.2100  135.2170 C   0  0  0  0  0  0  0  0  0  0  0  0
  186.2600  174.6540  134.6050 O   0  0  0  0  0  0  0  0  0  0  0  0
  188.6780  175.6380  136.9300 C   0  0  0  0  0  2  0  0  0  0  0  0
  187.5880  174.8530  136.4870 O   0  0  0  0  0  0  0  0  0  0  0  0
  191.4000  176.3980  142.8040 O   0  0  0  0  0  1  0  0  0  0  0  0
  190.0140  176.2780  142.6500 C   0  0  1  0  0  3  0  0  0  0  0  0
  189.3570  176.4600  144.0130 C   0  0  0  0  0  2  0  0  0  0  0  0
  189.6490  177.7010  146.2270 N   0  0  2  0  0  0  0  0  0  0  0  0
  190.2840  177.2240  144.9630 C   0  0  1  0  0  3  0  0  0  0  0  0
  190.4650  176.4730  146.2000 C   0  0  1  0  0  3  0  0  0  0  0  0
  187.1460  178.6000  145.7350 S   0  0  0  0  0  0  0  0  0  0  0  0
  187.9280  177.1190  147.8410 C   0  0  0  0  0  0  0  0  0  0  0  0
  188.2520  177.2870  146.3890 C   0  0  2  0  0  3  0  0  0  0  0  0
  188.4670  176.2280  148.5490 O   0  0  0  0  0  0  0  0  0  0  0  0
  186.9700  178.0070  148.3850 N   0  0  0  0  0  2  0  0  0  0  0  0
  185.6510  179.7720  147.6210 O   0  0  0  0  0  0  0  0  0  0  0  0
  186.4890  178.8680  147.3730 C   0  0  0  0  0  0  0  0  0  0  0  0
  192.4070  175.5510  147.3160 N   0  0  0  0  0  1  0  0  0  0  0  0
  191.8320  176.7710  146.7800 C   0  0  0  0  0  2  0  0  0  0  0  0
  2 17  1  0  0  0  0
  2  9  1  1  0  0  0
  3 11  1  0  0  0  0
  5 22  1  0  0  0  0
  5  3  2  0  0  0  0
  6  5  1  0  0  0  0
  7 16  1  0  0  0  0
  8 21  1  0  0  0  0
 10  7  1  0  0  0  0
 11  9  1  0  0  0  0
 11 13  2  0  0  0  0
 12  4  1  6  0  0  0
 12  3  1  0  0  0  0
 12  2  1  0  0  0  0
 14  8  1  1  0  0  0
 14 10  1  0  0  0  0
 15  6  1  0  0  0  0
 15  4  2  0  0  0  0
 16 19  1  0  0  0  0
 17  1  1  1  0  0  0
 17 31  1  0  0  0  0
 18 13  1  0  0  0  0
 19 17  1  0  0  0  0
 20 19  2  0  0  0  0
 21 15  1  0  0  0  0
 22 18  2  0  0  0  0
 23 24  1  6  0  0  0
 23 14  1  0  0  0  0
 23 28  1  0  0  0  0
 25 26  1  0  0  0  0
 25 23  1  0  0  0  0
 26 29  1  0  0  0  0
 27 26  2  0  0  0  0
 29 28  1  0  0  0  0
 31 30  1  1  0  0  0
 31 32  1  0  0  0  0
 33 38  1  6  0  0  0
 34 32  1  6  0  0  0
 34 35  1  0  0  0  0
 34 33  1  0  0  0  0
 35 33  1  0  0  0  0
 35 44  1  1  0  0  0
 36 42  1  0  0  0  0
 37 40  1  0  0  0  0
 37 39  2  0  0  0  0
 38 36  1  1  0  0  0
 38 37  1  0  0  0  0
 42 41  2  0  0  0  0
 42 40  1  0  0  0  0
 44 43  1  0  0  0  0
M  END
>  <MODEL>
8

>  <REMARK>
 VINA RESULT:      -6.7      3.462      7.367
  Name = 
  6 active torsions:
  status: ('A' for Active; 'I' for Inactive)
    1  A    between atoms: C_6  and  C_23
    2  A    between atoms: N_11  and  C_29
    3  A    between atoms: C_12  and  C_15
    4  A    between atoms: C_13  and  C_27
    5  A    between atoms: C_27  and  C_35
    6  A    between atoms: C_35  and  C_37
                            x       y       z     vdW  Elec       q    Type
                         _______ _______ _______ _____ _____    ______ ____

>  <TORSDO>
F 6

$$$$
=
 OpenBabel11062416143D

 44 50  0  0  1  0  0  0  0  0999 V2000
  184.6970  180.0100  139.4720 O   0  0  0  0  0  1  0  0  0  0  0  0
  185.5980  177.8110  139.0390 C   0  0  1  0  0  3  0  0  0  0  0  0
  187.6240  178.0460  137.8810 C   0  0  0  0  0  0  0  0  0  0  0  0
  187.8250  177.6580  140.2310 N   0  0  0  0  0  0  0  0  0  0  0  0
  188.9680  177.7890  137.7120 C   0  0  0  0  0  0  0  0  0  0  0  0
  189.7560  177.6940  138.8680 O   0  0  0  0  0  0  0  0  0  0  0  0
  186.4510  179.4700  143.1680 C   0  0  0  0  0  2  0  0  0  0  0  0
  190.0900  178.3080  142.2920 C   0  0  0  0  0  2  0  0  0  0  0  0
  185.3370  177.8130  137.5010 C   0  0  0  0  0  2  0  0  0  0  0  0
  187.7790  179.3100  142.4460 C   0  0  0  0  0  2  0  0  0  0  0  0
  186.7020  177.8240  136.9120 C   0  0  0  0  0  0  0  0  0  0  0  0
  187.0410  178.3140  139.1870 C   0  0  2  0  0  3  0  0  0  0  0  0
  187.1130  177.4990  135.6160 C   0  0  0  0  0  3  0  0  0  0  0  0
  188.8820  178.5640  143.2200 C   0  0  1  0  0  3  0  0  0  0  0  0
  189.1210  177.5150  140.1200 C   0  0  0  0  0  0  0  0  0  0  0  0
  185.3270  179.7530  142.1730 C   0  0  0  0  0  2  0  0  0  0  0  0
  184.6020  178.6690  139.8690 C   0  0  1  0  0  0  0  0  0  0  0  0
  188.4990  177.3770  135.3650 C   0  0  0  0  0  3  0  0  0  0  0  0
  184.9570  178.5450  141.3470 C   0  0  0  0  0  0  0  0  0  0  0  0
  184.8780  177.4510  141.8910 O   0  0  0  0  0  0  0  0  0  0  0  0
  189.9210  177.1310  141.3190 C   0  0  0  0  0  2  0  0  0  0  0  0
  189.4340  177.5010  136.4210 C   0  0  0  0  0  3  0  0  0  0  0  0
  188.4510  177.3340  144.0730 C   0  0  2  0  0  0  0  0  0  0  0  0
  187.8470  176.2310  143.2180 C   0  0  0  0  0  1  0  0  0  0  0  0
  187.4300  177.7590  145.1360 C   0  0  0  0  0  2  0  0  0  0  0  0
  188.0920  177.4140  146.4030 C   0  0  0  0  0  0  0  0  0  0  0  0
  187.5850  177.6080  147.5390 O   0  0  0  0  0  0  0  0  0  0  0  0
  189.6520  176.7520  144.8520 C   0  0  0  0  0  2  0  0  0  0  0  0
  189.3320  176.8540  146.2260 O   0  0  0  0  0  0  0  0  0  0  0  0
  182.5450  177.8820  140.9030 O   0  0  0  0  0  1  0  0  0  0  0  0
  183.1430  178.1800  139.6740 C   0  0  1  0  0  3  0  0  0  0  0  0
  182.2680  179.1920  138.9410 C   0  0  0  0  0  2  0  0  0  0  0  0
  180.7880  181.2170  139.4180 N   0  0  2  0  0  0  0  0  0  0  0  0
  181.3620  179.9360  139.9250 C   0  0  1  0  0  3  0  0  0  0  0  0
  179.9950  179.9750  139.4170 C   0  0  1  0  0  3  0  0  0  0  0  0
  182.3250  182.9060  137.9690 S   0  0  0  0  0  0  0  0  0  0  0  0
  179.9040  181.9560  137.2790 C   0  0  0  0  0  0  0  0  0  0  0  0
  181.1260  181.5150  138.0230 C   0  0  2  0  0  3  0  0  0  0  0  0
  178.9310  181.1850  137.0710 O   0  0  0  0  0  0  0  0  0  0  0  0
  179.8970  183.2890  136.8020 N   0  0  0  0  0  2  0  0  0  0  0  0
  181.3390  185.1210  136.8350 O   0  0  0  0  0  0  0  0  0  0  0  0
  181.1210  183.9170  137.1250 C   0  0  0  0  0  0  0  0  0  0  0  0
  179.5630  180.8290  141.6420 N   0  0  0  0  0  1  0  0  0  0  0  0
  179.0220  180.0040  140.5770 C   0  0  0  0  0  2  0  0  0  0  0  0
  2  9  1  6  0  0  0
  2 12  1  0  0  0  0
  2 17  1  0  0  0  0
  5  3  1  0  0  0  0
  5  6  1  0  0  0  0
  6 15  1  0  0  0  0
 10  7  1  0  0  0  0
 10 14  1  0  0  0  0
 11  9  1  0  0  0  0
 11  3  2  0  0  0  0
 12  3  1  6  0  0  0
 12  4  1  0  0  0  0
 13 11  1  0  0  0  0
 14  8  1  6  0  0  0
 14 23  1  0  0  0  0
 15  4  2  0  0  0  0
 15 21  1  0  0  0  0
 16  7  1  0  0  0  0
 17  1  1  6  0  0  0
 17 19  1  0  0  0  0
 18 13  2  0  0  0  0
 18 22  1  0  0  0  0
 19 20  2  0  0  0  0
 19 16  1  0  0  0  0
 21  8  1  0  0  0  0
 22  5  2  0  0  0  0
 23 24  1  6  0  0  0
 23 28  1  0  0  0  0
 23 25  1  0  0  0  0
 25 26  1  0  0  0  0
 26 27  2  0  0  0  0
 28 29  1  0  0  0  0
 29 26  1  0  0  0  0
 31 17  1  0  0  0  0
 31 30  1  1  0  0  0
 32 31  1  0  0  0  0
 33 38  1  6  0  0  0
 33 34  1  0  0  0  0
 34 32  1  6  0  0  0
 35 33  1  0  0  0  0
 35 34  1  0  0  0  0
 35 44  1  1  0  0  0
 36 38  1  0  0  0  0
 38 37  1  6  0  0  0
 39 37  2  0  0  0  0
 40 42  1  0  0  0  0
 40 37  1  0  0  0  0
 41 42  2  0  0  0  0
 42 36  1  0  0  0  0
 44 43  1  0  0  0  0
M  END
>  <MODEL>
9

>  <REMARK>
 VINA RESULT:      -6.5      3.659      9.257
  Name = 
  6 active torsions:
  status: ('A' for Active; 'I' for Inactive)
    1  A    between atoms: C_6  and  C_23
    2  A    between atoms: N_11  and  C_29
    3  A    between atoms: C_12  and  C_15
    4  A    between atoms: C_13  and  C_27
    5  A    between atoms: C_27  and  C_35
    6  A    between atoms: C_35  and  C_37
                            x       y       z     vdW  Elec       q    Type
                         _______ _______ _______ _____ _____    ______ ____

>  <TORSDO>
F 6

$$$$
