=
 OpenBabel11062417523D

 39 43  0  0  1  0  0  0  0  0999 V2000
  189.0790  178.5090  139.5430 C   0  0  0  0  0  2  0  0  0  0  0  0
  189.1980  178.6920  138.0360 C   0  0  0  0  0  2  0  0  0  0  0  0
  189.0830  177.6070  135.9190 O   0  0  0  0  0  1  0  0  0  0  0  0
  189.6610  176.0740  139.2040 C   0  0  0  0  0  2  0  0  0  0  0  0
  189.7450  176.2790  137.7500 N   0  0  0  0  0  0  0  0  0  0  0  0
  188.8720  177.3860  137.2860 C   0  0  1  0  0  0  0  0  0  0  0  0
  191.1430  176.5090  137.3890 C   0  0  0  0  0  1  0  0  0  0  0  0
  189.9560  177.3520  139.9990 C   0  0  2  0  0  3  0  0  0  0  0  0
  187.3900  177.0010  137.4970 C   0  0  2  0  0  3  0  0  0  0  0  0
  186.8360  176.1600  136.3570 C   0  0  0  0  0  2  0  0  0  0  0  0
  185.4280  176.6620  136.0860 C   0  0  0  0  0  2  0  0  0  0  0  0
  186.4700  178.2030  137.6170 C   0  0  0  0  0  2  0  0  0  0  0  0
  185.1220  177.7250  137.1270 C   0  0  2  0  0  3  0  0  0  0  0  0
  184.3930  177.1240  138.2350 N   0  0  0  0  0  2  0  0  0  0  0  0
  182.8030  178.8300  138.3900 O   0  0  0  0  0  0  0  0  0  0  0  0
  183.1950  177.6920  138.7650 C   0  0  0  0  0  0  0  0  0  0  0  0
  182.3700  176.9010  139.7230 C   0  0  0  0  0  2  0  0  0  0  0  0
  181.2770  179.4860  143.1220 O   0  0  0  0  0  0  0  0  0  0  0  0
  182.8020  178.2420  141.8500 N   0  0  0  0  0  2  0  0  0  0  0  0
  180.6550  178.0050  140.9450 O   0  0  0  0  0  0  0  0  0  0  0  0
  182.4650  179.1030  142.9430 C   0  0  0  0  0  0  0  0  0  0  0  0
  181.8830  177.7340  140.8720 C   0  0  0  0  0  0  0  0  0  0  0  0
  184.0030  178.3780  144.6910 C   0  0  2  0  0  3  0  0  0  0  0  0
  185.3850  178.6660  145.2380 C   0  0  0  0  0  1  0  0  0  0  0  0
  183.5290  179.5330  143.8970 C   0  0  2  0  0  3  0  0  0  0  0  0
  183.0970  179.3120  145.2190 O   0  0  0  0  0  0  0  0  0  0  0  0
  189.9130  177.1130  141.5180 C   0  0  0  0  0  2  0  0  0  0  0  0
  188.3470  177.1640  143.4660 C   0  0  0  0  0  2  0  0  0  0  0  0
  190.5480  177.4440  144.8440 C   0  0  1  0  0  0  0  0  0  0  0  0
  191.7030  176.6230  145.3970 C   0  0  0  0  0  1  0  0  0  0  0  0
  189.3000  176.6160  144.5370 C   0  0  1  0  0  3  0  0  0  0  0  0
  189.3450  176.8340  147.0140 C   0  0  0  0  0  1  0  0  0  0  0  0
  189.3000  177.6070  145.7040 C   0  0  1  0  0  3  0  0  0  0  0  0
  190.9270  178.6090  143.9220 C   0  0  0  0  0  2  0  0  0  0  0  0
  189.7800  179.1450  143.0680 C   0  0  0  0  0  2  0  0  0  0  0  0
  189.0000  178.0220  142.3790 C   0  0  1  0  0  0  0  0  0  0  0  0
  187.9050  178.6170  141.5330 C   0  0  0  0  0  3  0  0  0  0  0  0
  186.6140  178.5510  141.8680 C   0  0  0  0  0  3  0  0  0  0  0  0
  185.5850  179.1620  140.9810 C   0  0  0  0  0  1  0  0  0  0  0  0
  1  8  1  0  0  0  0
  2  1  1  0  0  0  0
  4  8  1  0  0  0  0
  5  4  1  0  0  0  0
  6  3  1  6  0  0  0
  6  9  1  0  0  0  0
  6  5  1  0  0  0  0
  6  2  1  0  0  0  0
  7  5  1  0  0  0  0
  8 27  1  1  0  0  0
  9 10  1  6  0  0  0
  9 12  1  0  0  0  0
 11 10  1  0  0  0  0
 11 13  1  0  0  0  0
 13 12  1  0  0  0  0
 13 14  1  1  0  0  0
 14 16  1  0  0  0  0
 15 16  2  0  0  0  0
 16 17  1  0  0  0  0
 17 22  1  0  0  0  0
 19 21  1  0  0  0  0
 21 18  2  0  0  0  0
 22 20  2  0  0  0  0
 22 19  1  0  0  0  0
 23 26  1  0  0  0  0
 23 24  1  1  0  0  0
 25 21  1  6  0  0  0
 25 23  1  0  0  0  0
 25 26  1  0  0  0  0
 29 30  1  1  0  0  0
 29 33  1  0  0  0  0
 31 28  1  6  0  0  0
 31 29  1  0  0  0  0
 31 33  1  0  0  0  0
 33 32  1  1  0  0  0
 34 29  1  0  0  0  0
 35 34  1  0  0  0  0
 36 27  1  6  0  0  0
 36 35  1  0  0  0  0
 36 28  1  0  0  0  0
 37 38  2  0  0  0  0
 37 36  1  0  0  0  0
 39 38  1  0  0  0  0
M  END
>  <MODEL>
1

>  <REMARK>
 VINA RESULT:      -8.4      0.000      0.000
  Name = 
  8 active torsions:
  status: ('A' for Active; 'I' for Inactive)
    1  A    between atoms: C_2  and  C_31
    2  A    between atoms: C_10  and  C_24
    3  A    between atoms: C_10  and  C_27
    4  A    between atoms: C_13  and  C_18
    5  A    between atoms: N_16  and  C_35
    6  A    between atoms: C_26  and  C_38
    7  A    between atoms: C_26  and  C_39
    8  A    between atoms: C_28  and  C_38
                            x       y       z     vdW  Elec       q    Type
                         _______ _______ _______ _____ _____    ______ ____

>  <TORSDO>
F 8

$$$$
=
 OpenBabel11062417523D

 39 43  0  0  1  0  0  0  0  0999 V2000
  188.4730  174.1850  136.8110 C   0  0  0  0  0  2  0  0  0  0  0  0
  189.2870  175.3790  136.3310 C   0  0  0  0  0  2  0  0  0  0  0  0
  189.4140  177.7560  136.2560 O   0  0  0  0  0  1  0  0  0  0  0  0
  186.4350  175.6790  136.7930 C   0  0  0  0  0  2  0  0  0  0  0  0
  187.2540  176.8190  136.3520 N   0  0  0  0  0  0  0  0  0  0  0  0
  188.6640  176.7070  136.8030 C   0  0  1  0  0  0  0  0  0  0  0  0
  187.1620  176.9270  134.8960 C   0  0  0  0  0  1  0  0  0  0  0  0
  187.0240  174.3280  136.3660 C   0  0  2  0  0  3  0  0  0  0  0  0
  188.7250  176.8120  138.3430 C   0  0  2  0  0  3  0  0  0  0  0  0
  187.8640  177.9420  138.8880 C   0  0  0  0  0  2  0  0  0  0  0  0
  188.6580  178.6000  140.0040 C   0  0  0  0  0  2  0  0  0  0  0  0
  190.1260  177.0600  138.8720 C   0  0  0  0  0  2  0  0  0  0  0  0
  189.9370  177.7980  140.1780 C   0  0  2  0  0  3  0  0  0  0  0  0
  189.7600  176.8320  141.2530 N   0  0  0  0  0  2  0  0  0  0  0  0
  190.7380  178.1710  142.9010 O   0  0  0  0  0  0  0  0  0  0  0  0
  190.1120  177.1170  142.6080 C   0  0  0  0  0  0  0  0  0  0  0  0
  189.6780  176.1860  143.6900 C   0  0  0  0  0  2  0  0  0  0  0  0
  187.9010  178.1800  147.1960 O   0  0  0  0  0  0  0  0  0  0  0  0
  187.7810  177.1660  145.0870 N   0  0  0  0  0  2  0  0  0  0  0  0
  190.0190  177.2900  145.7670 O   0  0  0  0  0  0  0  0  0  0  0  0
  187.1890  177.7890  146.2320 C   0  0  0  0  0  0  0  0  0  0  0  0
  189.1830  176.9200  144.9010 C   0  0  0  0  0  0  0  0  0  0  0  0
  185.3290  179.1260  145.3950 C   0  0  2  0  0  3  0  0  0  0  0  0
  183.8680  179.0050  145.0170 C   0  0  0  0  0  1  0  0  0  0  0  0
  185.7120  177.9990  146.2750 C   0  0  2  0  0  3  0  0  0  0  0  0
  185.4310  179.2800  146.7870 O   0  0  0  0  0  0  0  0  0  0  0  0
  186.1350  173.1480  136.7910 C   0  0  0  0  0  2  0  0  0  0  0  0
  184.5560  171.2630  136.3400 C   0  0  0  0  0  2  0  0  0  0  0  0
  182.7670  173.1670  136.3060 C   0  0  1  0  0  0  0  0  0  0  0  0
  181.9520  174.0340  137.2550 C   0  0  0  0  0  1  0  0  0  0  0  0
  183.2880  171.8800  136.9480 C   0  0  1  0  0  3  0  0  0  0  0  0
  180.8660  171.4760  136.5460 C   0  0  0  0  0  1  0  0  0  0  0  0
  182.1910  171.8210  135.8810 C   0  0  1  0  0  3  0  0  0  0  0  0
  183.6430  173.9130  135.2920 C   0  0  0  0  0  2  0  0  0  0  0  0
  184.7380  173.0640  134.6490 C   0  0  0  0  0  2  0  0  0  0  0  0
  185.5210  172.2530  135.6840 C   0  0  1  0  0  0  0  0  0  0  0  0
  186.6010  171.4630  134.9920 C   0  0  0  0  0  3  0  0  0  0  0  0
  187.5110  170.7450  135.6540 C   0  0  0  0  0  3  0  0  0  0  0  0
  188.5500  169.9890  134.9030 C   0  0  0  0  0  1  0  0  0  0  0  0
  2  6  1  0  0  0  0
  2  1  1  0  0  0  0
  5  4  1  0  0  0  0
  5  6  1  0  0  0  0
  6  3  1  6  0  0  0
  6  9  1  0  0  0  0
  7  5  1  0  0  0  0
  8 27  1  1  0  0  0
  8  4  1  0  0  0  0
  8  1  1  0  0  0  0
  9 12  1  6  0  0  0
  9 10  1  0  0  0  0
 10 11  1  0  0  0  0
 11 13  1  0  0  0  0
 12 13  1  0  0  0  0
 13 14  1  1  0  0  0
 14 16  1  0  0  0  0
 16 15  2  0  0  0  0
 16 17  1  0  0  0  0
 17 22  1  0  0  0  0
 19 21  1  0  0  0  0
 21 18  2  0  0  0  0
 22 19  1  0  0  0  0
 22 20  2  0  0  0  0
 23 24  1  1  0  0  0
 23 25  1  0  0  0  0
 23 26  1  0  0  0  0
 25 21  1  6  0  0  0
 25 26  1  0  0  0  0
 29 31  1  0  0  0  0
 29 30  1  1  0  0  0
 31 28  1  6  0  0  0
 33 29  1  0  0  0  0
 33 32  1  1  0  0  0
 33 31  1  0  0  0  0
 34 29  1  0  0  0  0
 35 34  1  0  0  0  0
 35 36  1  0  0  0  0
 36 37  1  6  0  0  0
 36 28  1  0  0  0  0
 36 27  1  0  0  0  0
 37 38  2  0  0  0  0
 39 38  1  0  0  0  0
M  END
>  <MODEL>
2

>  <REMARK>
 VINA RESULT:      -8.1      3.759      7.981
  Name = 
  8 active torsions:
  status: ('A' for Active; 'I' for Inactive)
    1  A    between atoms: C_2  and  C_31
    2  A    between atoms: C_10  and  C_24
    3  A    between atoms: C_10  and  C_27
    4  A    between atoms: C_13  and  C_18
    5  A    between atoms: N_16  and  C_35
    6  A    between atoms: C_26  and  C_38
    7  A    between atoms: C_26  and  C_39
    8  A    between atoms: C_28  and  C_38
                            x       y       z     vdW  Elec       q    Type
                         _______ _______ _______ _____ _____    ______ ____

>  <TORSDO>
F 8

$$$$
=
 OpenBabel11062417523D

 39 43  0  0  1  0  0  0  0  0999 V2000
  188.6770  176.3780  142.0990 C   0  0  0  0  0  2  0  0  0  0  0  0
  189.4670  175.9630  143.3320 C   0  0  0  0  0  2  0  0  0  0  0  0
  190.6260  176.7340  145.2640 O   0  0  0  0  0  1  0  0  0  0  0  0
  189.8560  178.6110  142.2050 C   0  0  0  0  0  2  0  0  0  0  0  0
  190.5870  178.1860  143.4090 N   0  0  0  0  0  0  0  0  0  0  0  0
  189.8330  177.1820  144.2000 C   0  0  1  0  0  0  0  0  0  0  0  0
  191.8990  177.6800  143.0080 C   0  0  0  0  0  1  0  0  0  0  0  0
  189.4490  177.4300  141.3140 C   0  0  2  0  0  3  0  0  0  0  0  0
  188.5560  177.8310  144.7800 C   0  0  2  0  0  3  0  0  0  0  0  0
  188.6710  178.1220  146.2690 C   0  0  0  0  0  2  0  0  0  0  0  0
  187.3320  177.7610  146.8910 C   0  0  0  0  0  2  0  0  0  0  0  0
  187.3180  176.9670  144.6150 C   0  0  0  0  0  2  0  0  0  0  0  0
  186.4060  177.3540  145.7580 C   0  0  2  0  0  3  0  0  0  0  0  0
  185.5960  178.4970  145.3590 N   0  0  0  0  0  2  0  0  0  0  0  0
  185.0980  177.6690  143.2300 O   0  0  0  0  0  0  0  0  0  0  0  0
  184.9060  178.5510  144.1100 C   0  0  0  0  0  0  0  0  0  0  0  0
  183.9020  179.6290  143.8730 C   0  0  0  0  0  2  0  0  0  0  0  0
  180.2090  177.9530  142.1480 O   0  0  0  0  0  0  0  0  0  0  0  0
  182.2950  179.0070  141.9910 N   0  0  0  0  0  2  0  0  0  0  0  0
  181.7610  178.6670  144.2460 O   0  0  0  0  0  0  0  0  0  0  0  0
  181.1120  178.4420  141.4170 C   0  0  0  0  0  0  0  0  0  0  0  0
  182.5890  179.0840  143.3940 C   0  0  0  0  0  0  0  0  0  0  0  0
  181.6330  177.2980  139.3280 C   0  0  2  0  0  3  0  0  0  0  0  0
  181.0370  176.9980  137.9690 C   0  0  0  0  0  1  0  0  0  0  0  0
  180.9350  178.4530  139.9350 C   0  0  2  0  0  3  0  0  0  0  0  0
  182.1900  178.5870  139.3100 O   0  0  0  0  0  0  0  0  0  0  0  0
  188.7290  177.8900  140.0350 C   0  0  0  0  0  2  0  0  0  0  0  0
  188.8500  176.2510  138.1520 C   0  0  0  0  0  2  0  0  0  0  0  0
  186.7750  177.5680  137.2690 C   0  0  1  0  0  0  0  0  0  0  0  0
  185.2730  177.6810  137.4840 C   0  0  0  0  0  1  0  0  0  0  0  0
  187.3660  176.2460  137.7600 C   0  0  1  0  0  3  0  0  0  0  0  0
  186.1920  175.6880  135.6390 C   0  0  0  0  0  1  0  0  0  0  0  0
  187.2850  176.5450  136.2600 C   0  0  1  0  0  3  0  0  0  0  0  0
  187.5810  178.8620  137.4320 C   0  0  0  0  0  2  0  0  0  0  0  0
  189.0820  178.6590  137.6210 C   0  0  0  0  0  2  0  0  0  0  0  0
  189.3920  177.5860  138.6680 C   0  0  1  0  0  0  0  0  0  0  0  0
  190.8840  177.4550  138.8280 C   0  0  0  0  0  3  0  0  0  0  0  0
  191.6010  176.5230  138.1950 C   0  0  0  0  0  3  0  0  0  0  0  0
  193.0730  176.4520  138.4020 C   0  0  0  0  0  1  0  0  0  0  0  0
  1  2  1  0  0  0  0
  2  6  1  0  0  0  0
  4  5  1  0  0  0  0
  5  6  1  0  0  0  0
  6  9  1  0  0  0  0
  6  3  1  1  0  0  0
  7  5  1  0  0  0  0
  8 27  1  6  0  0  0
  8  1  1  0  0  0  0
  8  4  1  0  0  0  0
  9 12  1  1  0  0  0
  9 10  1  0  0  0  0
 10 11  1  0  0  0  0
 12 13  1  0  0  0  0
 13 14  1  6  0  0  0
 13 11  1  0  0  0  0
 15 16  2  0  0  0  0
 16 14  1  0  0  0  0
 17 16  1  0  0  0  0
 19 22  1  0  0  0  0
 21 19  1  0  0  0  0
 21 18  2  0  0  0  0
 22 17  1  0  0  0  0
 22 20  2  0  0  0  0
 23 24  1  6  0  0  0
 23 25  1  0  0  0  0
 25 21  1  1  0  0  0
 26 23  1  0  0  0  0
 26 25  1  0  0  0  0
 28 36  1  0  0  0  0
 29 34  1  0  0  0  0
 29 30  1  1  0  0  0
 29 31  1  0  0  0  0
 31 28  1  1  0  0  0
 33 32  1  6  0  0  0
 33 29  1  0  0  0  0
 33 31  1  0  0  0  0
 34 35  1  0  0  0  0
 35 36  1  0  0  0  0
 36 37  1  1  0  0  0
 36 27  1  0  0  0  0
 38 39  1  0  0  0  0
 38 37  2  0  0  0  0
M  END
>  <MODEL>
3

>  <REMARK>
 VINA RESULT:      -8.1      2.186      6.700
  Name = 
  8 active torsions:
  status: ('A' for Active; 'I' for Inactive)
    1  A    between atoms: C_2  and  C_31
    2  A    between atoms: C_10  and  C_24
    3  A    between atoms: C_10  and  C_27
    4  A    between atoms: C_13  and  C_18
    5  A    between atoms: N_16  and  C_35
    6  A    between atoms: C_26  and  C_38
    7  A    between atoms: C_26  and  C_39
    8  A    between atoms: C_28  and  C_38
                            x       y       z     vdW  Elec       q    Type
                         _______ _______ _______ _____ _____    ______ ____

>  <TORSDO>
F 8

$$$$
=
 OpenBabel11062417523D

 39 43  0  0  1  0  0  0  0  0999 V2000
  188.3030  178.6170  138.8950 C   0  0  0  0  0  2  0  0  0  0  0  0
  188.6390  178.6000  137.4100 C   0  0  0  0  0  2  0  0  0  0  0  0
  189.1210  177.2210  135.5290 O   0  0  0  0  0  1  0  0  0  0  0  0
  189.4330  176.3650  139.0850 C   0  0  0  0  0  2  0  0  0  0  0  0
  189.7210  176.3690  137.6420 N   0  0  0  0  0  0  0  0  0  0  0  0
  188.7280  177.1590  136.8720 C   0  0  1  0  0  0  0  0  0  0  0  0
  191.0810  176.8670  137.4370 C   0  0  0  0  0  1  0  0  0  0  0  0
  189.3130  177.7780  139.6670 C   0  0  2  0  0  3  0  0  0  0  0  0
  187.3470  176.4710  136.9480 C   0  0  2  0  0  3  0  0  0  0  0  0
  187.2440  175.2620  136.0290 C   0  0  0  0  0  2  0  0  0  0  0  0
  185.8590  175.3040  135.4040 C   0  0  0  0  0  2  0  0  0  0  0  0
  186.1990  177.3880  136.5660 C   0  0  0  0  0  2  0  0  0  0  0  0
  185.1200  176.4760  136.0280 C   0  0  2  0  0  3  0  0  0  0  0  0
  184.3000  175.9980  137.1330 N   0  0  0  0  0  2  0  0  0  0  0  0
  182.2610  176.3240  136.0370 O   0  0  0  0  0  0  0  0  0  0  0  0
  182.8800  175.8740  137.0380 C   0  0  0  0  0  0  0  0  0  0  0  0
  182.1350  175.1500  138.1090 C   0  0  0  0  0  2  0  0  0  0  0  0
  181.1620  178.0650  141.2680 O   0  0  0  0  0  0  0  0  0  0  0  0
  182.6190  177.0520  139.7380 N   0  0  0  0  0  2  0  0  0  0  0  0
  180.5460  175.9640  139.6770 O   0  0  0  0  0  0  0  0  0  0  0  0
  182.3080  178.0210  140.7450 C   0  0  0  0  0  0  0  0  0  0  0  0
  181.7160  176.0630  139.2230 C   0  0  0  0  0  0  0  0  0  0  0  0
  184.4600  178.2460  141.8690 C   0  0  2  0  0  3  0  0  0  0  0  0
  185.7200  179.0850  141.8420 C   0  0  0  0  0  1  0  0  0  0  0  0
  183.3610  178.9770  141.1990 C   0  0  2  0  0  3  0  0  0  0  0  0
  183.4730  178.9250  142.6020 O   0  0  0  0  0  0  0  0  0  0  0  0
  189.0590  177.7610  141.1840 C   0  0  0  0  0  2  0  0  0  0  0  0
  190.4460  177.9910  143.2510 C   0  0  0  0  0  2  0  0  0  0  0  0
  188.2770  177.1510  144.4390 C   0  0  1  0  0  0  0  0  0  0  0  0
  186.9240  177.6580  144.9160 C   0  0  0  0  0  1  0  0  0  0  0  0
  189.3150  178.2580  144.2540 C   0  0  1  0  0  3  0  0  0  0  0  0
  189.1410  177.9300  146.7140 C   0  0  0  0  0  1  0  0  0  0  0  0
  189.4620  177.2450  145.3930 C   0  0  1  0  0  3  0  0  0  0  0  0
  188.2500  175.9700  143.4600 C   0  0  0  0  0  2  0  0  0  0  0  0
  189.5500  175.7510  142.6900 C   0  0  0  0  0  2  0  0  0  0  0  0
  190.0940  177.0530  142.0950 C   0  0  1  0  0  0  0  0  0  0  0  0
  191.3570  176.7650  141.3260 C   0  0  0  0  0  3  0  0  0  0  0  0
  192.2700  177.7010  141.0550 C   0  0  0  0  0  3  0  0  0  0  0  0
  193.4950  177.3440  140.2890 C   0  0  0  0  0  1  0  0  0  0  0  0
  1  8  1  0  0  0  0
  2  1  1  0  0  0  0
  4  8  1  0  0  0  0
  5  4  1  0  0  0  0
  6  3  1  6  0  0  0
  6  9  1  0  0  0  0
  6  2  1  0  0  0  0
  6  5  1  0  0  0  0
  7  5  1  0  0  0  0
  8 27  1  1  0  0  0
  9 10  1  6  0  0  0
 11 13  1  0  0  0  0
 11 10  1  0  0  0  0
 12  9  1  0  0  0  0
 13 12  1  0  0  0  0
 13 14  1  1  0  0  0
 15 16  2  0  0  0  0
 16 14  1  0  0  0  0
 16 17  1  0  0  0  0
 17 22  1  0  0  0  0
 19 21  1  0  0  0  0
 21 18  2  0  0  0  0
 22 20  2  0  0  0  0
 22 19  1  0  0  0  0
 23 24  1  6  0  0  0
 23 26  1  0  0  0  0
 25 21  1  1  0  0  0
 25 23  1  0  0  0  0
 25 26  1  0  0  0  0
 29 30  1  1  0  0  0
 29 33  1  0  0  0  0
 31 28  1  6  0  0  0
 31 29  1  0  0  0  0
 31 33  1  0  0  0  0
 33 32  1  1  0  0  0
 34 29  1  0  0  0  0
 35 34  1  0  0  0  0
 36 27  1  6  0  0  0
 36 35  1  0  0  0  0
 36 28  1  0  0  0  0
 37 36  1  0  0  0  0
 38 37  2  0  0  0  0
 39 38  1  0  0  0  0
M  END
>  <MODEL>
4

>  <REMARK>
 VINA RESULT:      -8.1      1.588      2.708
  Name = 
  8 active torsions:
  status: ('A' for Active; 'I' for Inactive)
    1  A    between atoms: C_2  and  C_31
    2  A    between atoms: C_10  and  C_24
    3  A    between atoms: C_10  and  C_27
    4  A    between atoms: C_13  and  C_18
    5  A    between atoms: N_16  and  C_35
    6  A    between atoms: C_26  and  C_38
    7  A    between atoms: C_26  and  C_39
    8  A    between atoms: C_28  and  C_38
                            x       y       z     vdW  Elec       q    Type
                         _______ _______ _______ _____ _____    ______ ____

>  <TORSDO>
F 8

$$$$
=
 OpenBabel11062417523D

 39 43  0  0  1  0  0  0  0  0999 V2000
  189.0520  178.3240  139.5000 C   0  0  0  0  0  2  0  0  0  0  0  0
  189.3120  178.6230  138.0300 C   0  0  0  0  0  2  0  0  0  0  0  0
  189.5770  177.6800  135.8590 O   0  0  0  0  0  1  0  0  0  0  0  0
  189.9860  176.0100  139.1020 C   0  0  0  0  0  2  0  0  0  0  0  0
  190.2030  176.3230  137.6810 N   0  0  0  0  0  0  0  0  0  0  0  0
  189.2470  177.3410  137.1770 C   0  0  1  0  0  0  0  0  0  0  0  0
  191.5890  176.7520  137.5010 C   0  0  0  0  0  1  0  0  0  0  0  0
  190.0200  177.2570  139.9930 C   0  0  2  0  0  3  0  0  0  0  0  0
  187.8160  176.7590  137.1900 C   0  0  2  0  0  3  0  0  0  0  0  0
  187.5690  175.7880  136.0450 C   0  0  0  0  0  2  0  0  0  0  0  0
  186.1680  176.0680  135.5270 C   0  0  0  0  0  2  0  0  0  0  0  0
  186.7360  177.8220  137.0790 C   0  0  0  0  0  2  0  0  0  0  0  0
  185.5600  177.1310  136.4270 C   0  0  2  0  0  3  0  0  0  0  0  0
  184.7500  176.4910  137.4550 N   0  0  0  0  0  2  0  0  0  0  0  0
  182.8010  177.6800  136.9550 O   0  0  0  0  0  0  0  0  0  0  0  0
  183.3560  176.7570  137.6090 C   0  0  0  0  0  0  0  0  0  0  0  0
  182.5390  175.8900  138.5090 C   0  0  0  0  0  2  0  0  0  0  0  0
  180.0920  178.4710  141.1120 O   0  0  0  0  0  0  0  0  0  0  0  0
  182.1290  177.5700  140.3850 N   0  0  0  0  0  2  0  0  0  0  0  0
  180.3720  176.5960  139.1810 O   0  0  0  0  0  0  0  0  0  0  0  0
  181.3480  178.4320  141.2190 C   0  0  0  0  0  0  0  0  0  0  0  0
  181.6120  176.6900  139.3750 C   0  0  0  0  0  0  0  0  0  0  0  0
  181.9560  178.6280  143.5720 C   0  0  2  0  0  3  0  0  0  0  0  0
  183.0540  179.1680  144.4640 C   0  0  0  0  0  1  0  0  0  0  0  0
  182.0260  179.2780  142.2440 C   0  0  2  0  0  3  0  0  0  0  0  0
  181.0920  179.6780  143.2200 O   0  0  0  0  0  0  0  0  0  0  0  0
  189.8410  176.9110  141.4820 C   0  0  0  0  0  2  0  0  0  0  0  0
  188.2820  176.8350  143.4340 C   0  0  0  0  0  2  0  0  0  0  0  0
  190.4240  177.4740  144.7860 C   0  0  1  0  0  0  0  0  0  0  0  0
  191.6810  176.8440  145.3680 C   0  0  0  0  0  1  0  0  0  0  0  0
  189.3010  176.4700  144.5230 C   0  0  1  0  0  3  0  0  0  0  0  0
  189.3160  176.8040  146.9880 C   0  0  0  0  0  1  0  0  0  0  0  0
  189.1650  177.5040  145.6450 C   0  0  1  0  0  3  0  0  0  0  0  0
  190.6400  178.6370  143.8100 C   0  0  0  0  0  2  0  0  0  0  0  0
  189.4310  178.9730  142.9400 C   0  0  0  0  0  2  0  0  0  0  0  0
  188.8120  177.7240  142.3070 C   0  0  1  0  0  0  0  0  0  0  0  0
  187.6460  178.1250  141.4410 C   0  0  0  0  0  3  0  0  0  0  0  0
  186.5140  178.6280  141.9380 C   0  0  0  0  0  3  0  0  0  0  0  0
  185.4020  179.0020  141.0220 C   0  0  0  0  0  1  0  0  0  0  0  0
  1  8  1  0  0  0  0
  2  1  1  0  0  0  0
  4  8  1  0  0  0  0
  5  4  1  0  0  0  0
  6  3  1  6  0  0  0
  6  9  1  0  0  0  0
  6  5  1  0  0  0  0
  6  2  1  0  0  0  0
  7  5  1  0  0  0  0
  8 27  1  1  0  0  0
  9 10  1  6  0  0  0
 11 10  1  0  0  0  0
 11 13  1  0  0  0  0
 12  9  1  0  0  0  0
 13 12  1  0  0  0  0
 13 14  1  1  0  0  0
 14 16  1  0  0  0  0
 15 16  2  0  0  0  0
 16 17  1  0  0  0  0
 17 22  1  0  0  0  0
 18 21  2  0  0  0  0
 19 21  1  0  0  0  0
 20 22  2  0  0  0  0
 22 19  1  0  0  0  0
 23 24  1  1  0  0  0
 25 21  1  6  0  0  0
 25 26  1  0  0  0  0
 25 23  1  0  0  0  0
 26 23  1  0  0  0  0
 27 36  1  0  0  0  0
 29 30  1  1  0  0  0
 29 33  1  0  0  0  0
 31 28  1  6  0  0  0
 31 29  1  0  0  0  0
 31 33  1  0  0  0  0
 33 32  1  1  0  0  0
 34 29  1  0  0  0  0
 35 34  1  0  0  0  0
 36 37  1  6  0  0  0
 36 35  1  0  0  0  0
 36 28  1  0  0  0  0
 37 38  2  0  0  0  0
 39 38  1  0  0  0  0
M  END
>  <MODEL>
5

>  <REMARK>
 VINA RESULT:      -7.9      0.943      1.272
  Name = 
  8 active torsions:
  status: ('A' for Active; 'I' for Inactive)
    1  A    between atoms: C_2  and  C_31
    2  A    between atoms: C_10  and  C_24
    3  A    between atoms: C_10  and  C_27
    4  A    between atoms: C_13  and  C_18
    5  A    between atoms: N_16  and  C_35
    6  A    between atoms: C_26  and  C_38
    7  A    between atoms: C_26  and  C_39
    8  A    between atoms: C_28  and  C_38
                            x       y       z     vdW  Elec       q    Type
                         _______ _______ _______ _____ _____    ______ ____

>  <TORSDO>
F 8

$$$$
=
 OpenBabel11062417523D

 39 43  0  0  1  0  0  0  0  0999 V2000
  184.1790  178.4380  139.0650 C   0  0  0  0  0  2  0  0  0  0  0  0
  183.0820  179.3580  139.5850 C   0  0  0  0  0  2  0  0  0  0  0  0
  181.1950  179.5320  141.0270 O   0  0  0  0  0  1  0  0  0  0  0  0
  182.6770  176.4830  139.6190 C   0  0  0  0  0  2  0  0  0  0  0  0
  181.6470  177.3980  140.1360 N   0  0  0  0  0  0  0  0  0  0  0  0
  182.2280  178.6600  140.6600 C   0  0  1  0  0  0  0  0  0  0  0  0
  180.6730  177.6540  139.0750 C   0  0  0  0  0  1  0  0  0  0  0  0
  183.5710  177.1380  138.5590 C   0  0  2  0  0  3  0  0  0  0  0  0
  183.0810  178.3570  141.9120 C   0  0  2  0  0  3  0  0  0  0  0  0
  182.2540  178.3140  143.1880 C   0  0  0  0  0  2  0  0  0  0  0  0
  183.0730  179.0070  144.2640 C   0  0  0  0  0  2  0  0  0  0  0  0
  184.1740  179.3830  142.1540 C   0  0  0  0  0  2  0  0  0  0  0  0
  184.4130  179.3670  143.6470 C   0  0  2  0  0  3  0  0  0  0  0  0
  185.3880  178.3330  143.9660 N   0  0  0  0  0  2  0  0  0  0  0  0
  185.9500  179.2130  146.0570 O   0  0  0  0  0  0  0  0  0  0  0  0
  186.0610  178.2740  145.2240 C   0  0  0  0  0  0  0  0  0  0  0  0
  186.8510  177.0580  145.5760 C   0  0  0  0  0  2  0  0  0  0  0  0
  191.1580  177.7620  144.9560 O   0  0  0  0  0  0  0  0  0  0  0  0
  189.0630  176.9330  144.3110 N   0  0  0  0  0  2  0  0  0  0  0  0
  188.9090  177.8580  146.4570 O   0  0  0  0  0  0  0  0  0  0  0  0
  190.4560  177.1790  144.0870 C   0  0  0  0  0  0  0  0  0  0  0  0
  188.3290  177.3000  145.4890 C   0  0  0  0  0  0  0  0  0  0  0  0
  190.3140  177.2010  141.6520 C   0  0  2  0  0  3  0  0  0  0  0  0
  191.1950  177.2130  140.4210 C   0  0  0  0  0  1  0  0  0  0  0  0
  191.0890  176.7180  142.8160 C   0  0  2  0  0  3  0  0  0  0  0  0
  190.1960  175.8810  142.1190 O   0  0  0  0  0  0  0  0  0  0  0  0
  184.6120  176.1570  137.9920 C   0  0  0  0  0  2  0  0  0  0  0  0
  185.6120  177.3160  136.0170 C   0  0  0  0  0  2  0  0  0  0  0  0
  187.7580  175.9990  136.7080 C   0  0  1  0  0  0  0  0  0  0  0  0
  188.9020  176.0530  137.7100 C   0  0  0  0  0  1  0  0  0  0  0  0
  187.0730  177.3470  136.4870 C   0  0  1  0  0  3  0  0  0  0  0  0
  189.2300  177.5030  135.2580 C   0  0  0  0  0  1  0  0  0  0  0  0
  187.9270  176.7260  135.3790 C   0  0  1  0  0  3  0  0  0  0  0  0
  186.9180  174.7160  136.7100 C   0  0  0  0  0  2  0  0  0  0  0  0
  185.5640  174.8390  136.0160 C   0  0  0  0  0  2  0  0  0  0  0  0
  184.8030  176.0930  136.4560 C   0  0  1  0  0  0  0  0  0  0  0  0
  183.4680  176.1420  135.7600 C   0  0  0  0  0  3  0  0  0  0  0  0
  182.9470  177.2690  135.2690 C   0  0  0  0  0  3  0  0  0  0  0  0
  181.6210  177.2410  134.5940 C   0  0  0  0  0  1  0  0  0  0  0  0
  1  2  1  0  0  0  0
  2  6  1  0  0  0  0
  4  5  1  0  0  0  0
  5  6  1  0  0  0  0
  6  3  1  1  0  0  0
  6  9  1  0  0  0  0
  7  5  1  0  0  0  0
  8 27  1  1  0  0  0
  8  1  1  0  0  0  0
  8  4  1  0  0  0  0
  9 12  1  1  0  0  0
  9 10  1  0  0  0  0
 10 11  1  0  0  0  0
 12 13  1  0  0  0  0
 13 14  1  6  0  0  0
 13 11  1  0  0  0  0
 14 16  1  0  0  0  0
 16 17  1  0  0  0  0
 16 15  2  0  0  0  0
 19 22  1  0  0  0  0
 21 19  1  0  0  0  0
 21 18  2  0  0  0  0
 22 17  1  0  0  0  0
 22 20  2  0  0  0  0
 23 24  1  6  0  0  0
 23 26  1  0  0  0  0
 23 25  1  0  0  0  0
 25 21  1  1  0  0  0
 26 25  1  0  0  0  0
 28 36  1  0  0  0  0
 29 34  1  0  0  0  0
 29 30  1  1  0  0  0
 31 28  1  6  0  0  0
 31 29  1  0  0  0  0
 33 32  1  1  0  0  0
 33 31  1  0  0  0  0
 33 29  1  0  0  0  0
 35 36  1  0  0  0  0
 35 34  1  0  0  0  0
 36 37  1  6  0  0  0
 36 27  1  0  0  0  0
 38 37  2  0  0  0  0
 39 38  1  0  0  0  0
M  END
>  <MODEL>
6

>  <REMARK>
 VINA RESULT:      -7.8      2.771      8.106
  Name = 
  8 active torsions:
  status: ('A' for Active; 'I' for Inactive)
    1  A    between atoms: C_2  and  C_31
    2  A    between atoms: C_10  and  C_24
    3  A    between atoms: C_10  and  C_27
    4  A    between atoms: C_13  and  C_18
    5  A    between atoms: N_16  and  C_35
    6  A    between atoms: C_26  and  C_38
    7  A    between atoms: C_26  and  C_39
    8  A    between atoms: C_28  and  C_38
                            x       y       z     vdW  Elec       q    Type
                         _______ _______ _______ _____ _____    ______ ____

>  <TORSDO>
F 8

$$$$
=
 OpenBabel11062417523D

 39 43  0  0  1  0  0  0  0  0999 V2000
  184.2630  174.1640  137.7090 C   0  0  0  0  0  2  0  0  0  0  0  0
  184.7300  172.7720  137.3040 C   0  0  0  0  0  2  0  0  0  0  0  0
  185.7710  171.4790  135.5970 O   0  0  0  0  0  1  0  0  0  0  0  0
  184.0940  174.7250  135.2510 C   0  0  0  0  0  2  0  0  0  0  0  0
  184.5710  173.3800  134.8940 N   0  0  0  0  0  0  0  0  0  0  0  0
  185.4470  172.7970  135.9400 C   0  0  1  0  0  0  0  0  0  0  0  0
  183.4120  172.5280  134.6260 C   0  0  0  0  0  1  0  0  0  0  0  0
  183.3900  174.7600  136.6140 C   0  0  2  0  0  3  0  0  0  0  0  0
  186.7550  173.6150  136.0360 C   0  0  2  0  0  3  0  0  0  0  0  0
  187.5800  173.5500  134.7590 C   0  0  0  0  0  2  0  0  0  0  0  0
  189.0330  173.4210  135.1820 C   0  0  0  0  0  2  0  0  0  0  0  0
  187.6720  173.1490  137.1520 C   0  0  0  0  0  2  0  0  0  0  0  0
  189.0690  173.5090  136.6990 C   0  0  2  0  0  3  0  0  0  0  0  0
  189.3650  174.8770  137.0990 N   0  0  0  0  0  2  0  0  0  0  0  0
  191.4900  174.3930  137.9460 O   0  0  0  0  0  0  0  0  0  0  0  0
  190.6280  175.2620  137.6440 C   0  0  0  0  0  0  0  0  0  0  0  0
  190.9500  176.7110  137.7970 C   0  0  0  0  0  2  0  0  0  0  0  0
  188.2370  178.6390  140.6860 O   0  0  0  0  0  0  0  0  0  0  0  0
  189.7050  176.9420  140.0120 N   0  0  0  0  0  2  0  0  0  0  0  0
  189.3990  178.4540  138.2490 O   0  0  0  0  0  0  0  0  0  0  0  0
  188.8470  177.5720  140.9680 C   0  0  0  0  0  0  0  0  0  0  0  0
  189.9680  177.4170  138.6830 C   0  0  0  0  0  0  0  0  0  0  0  0
  189.6320  177.4940  143.2760 C   0  0  2  0  0  3  0  0  0  0  0  0
  189.1220  177.2940  144.6870 C   0  0  0  0  0  1  0  0  0  0  0  0
  188.6540  176.9460  142.3100 C   0  0  2  0  0  3  0  0  0  0  0  0
  189.8160  176.2390  142.6730 O   0  0  0  0  0  0  0  0  0  0  0  0
  182.8540  176.1610  136.9540 C   0  0  0  0  0  2  0  0  0  0  0  0
  182.1520  176.0600  139.3510 C   0  0  0  0  0  2  0  0  0  0  0  0
  182.8560  178.5750  139.3510 C   0  0  1  0  0  0  0  0  0  0  0  0
  184.0980  179.4510  139.4290 C   0  0  0  0  0  1  0  0  0  0  0  0
  183.0650  177.1640  139.9010 C   0  0  1  0  0  3  0  0  0  0  0  0
  182.9080  178.6300  141.9050 C   0  0  0  0  0  1  0  0  0  0  0  0
  182.1800  178.1620  140.6530 C   0  0  1  0  0  3  0  0  0  0  0  0
  181.9590  178.7820  138.1250 C   0  0  0  0  0  2  0  0  0  0  0  0
  180.9750  177.6460  137.8550 C   0  0  0  0  0  2  0  0  0  0  0  0
  181.6480  176.2720  137.9210 C   0  0  1  0  0  0  0  0  0  0  0  0
  180.6340  175.2000  137.6190 C   0  0  0  0  0  3  0  0  0  0  0  0
  180.2370  174.3030  138.5240 C   0  0  0  0  0  3  0  0  0  0  0  0
  179.2310  173.2700  138.1540 C   0  0  0  0  0  1  0  0  0  0  0  0
  2  1  1  0  0  0  0
  4  8  1  0  0  0  0
  5  4  1  0  0  0  0
  5  6  1  0  0  0  0
  6  3  1  6  0  0  0
  6  9  1  0  0  0  0
  6  2  1  0  0  0  0
  7  5  1  0  0  0  0
  8 27  1  1  0  0  0
  8  1  1  0  0  0  0
  9 10  1  6  0  0  0
  9 12  1  0  0  0  0
 10 11  1  0  0  0  0
 11 13  1  0  0  0  0
 13 14  1  6  0  0  0
 13 12  1  0  0  0  0
 14 16  1  0  0  0  0
 16 17  1  0  0  0  0
 16 15  2  0  0  0  0
 17 22  1  0  0  0  0
 18 21  2  0  0  0  0
 19 21  1  0  0  0  0
 20 22  2  0  0  0  0
 22 19  1  0  0  0  0
 23 24  1  1  0  0  0
 25 21  1  6  0  0  0
 25 26  1  0  0  0  0
 25 23  1  0  0  0  0
 26 23  1  0  0  0  0
 29 30  1  1  0  0  0
 29 31  1  0  0  0  0
 29 33  1  0  0  0  0
 31 28  1  6  0  0  0
 31 33  1  0  0  0  0
 33 32  1  1  0  0  0
 34 29  1  0  0  0  0
 35 36  1  0  0  0  0
 35 34  1  0  0  0  0
 36 27  1  6  0  0  0
 36 28  1  0  0  0  0
 37 36  1  0  0  0  0
 37 38  2  0  0  0  0
 39 38  1  0  0  0  0
M  END
>  <MODEL>
7

>  <REMARK>
 VINA RESULT:      -7.7      3.239      7.697
  Name = 
  8 active torsions:
  status: ('A' for Active; 'I' for Inactive)
    1  A    between atoms: C_2  and  C_31
    2  A    between atoms: C_10  and  C_24
    3  A    between atoms: C_10  and  C_27
    4  A    between atoms: C_13  and  C_18
    5  A    between atoms: N_16  and  C_35
    6  A    between atoms: C_26  and  C_38
    7  A    between atoms: C_26  and  C_39
    8  A    between atoms: C_28  and  C_38
                            x       y       z     vdW  Elec       q    Type
                         _______ _______ _______ _____ _____    ______ ____

>  <TORSDO>
F 8

$$$$
=
 OpenBabel11062417523D

 39 43  0  0  1  0  0  0  0  0999 V2000
  183.8150  177.6140  138.9530 C   0  0  0  0  0  2  0  0  0  0  0  0
  183.0040  178.8630  139.2700 C   0  0  0  0  0  2  0  0  0  0  0  0
  181.2660  179.7770  140.6190 O   0  0  0  0  0  1  0  0  0  0  0  0
  181.8840  176.2440  139.8370 C   0  0  0  0  0  2  0  0  0  0  0  0
  181.1360  177.4710  140.1530 N   0  0  0  0  0  0  0  0  0  0  0  0
  182.0330  178.6180  140.4420 C   0  0  1  0  0  0  0  0  0  0  0  0
  180.2270  177.7640  139.0460 C   0  0  0  0  0  1  0  0  0  0  0  0
  182.8820  176.4400  138.6890 C   0  0  2  0  0  3  0  0  0  0  0  0
  182.8190  178.3470  141.7440 C   0  0  2  0  0  3  0  0  0  0  0  0
  181.9420  178.4230  142.9840 C   0  0  0  0  0  2  0  0  0  0  0  0
  182.7540  179.1360  144.0530 C   0  0  0  0  0  2  0  0  0  0  0  0
  183.9560  179.3280  141.9720 C   0  0  0  0  0  2  0  0  0  0  0  0
  184.1350  179.3890  143.4720 C   0  0  2  0  0  3  0  0  0  0  0  0
  185.0390  178.3270  143.8910 N   0  0  0  0  0  2  0  0  0  0  0  0
  185.6790  179.3700  145.8830 O   0  0  0  0  0  0  0  0  0  0  0  0
  185.7180  178.3470  145.1480 C   0  0  0  0  0  0  0  0  0  0  0  0
  186.4260  177.1210  145.6180 C   0  0  0  0  0  2  0  0  0  0  0  0
  190.7530  177.7250  145.0390 O   0  0  0  0  0  0  0  0  0  0  0  0
  188.5450  177.5670  144.2700 N   0  0  0  0  0  2  0  0  0  0  0  0
  188.6040  177.1230  146.5690 O   0  0  0  0  0  0  0  0  0  0  0  0
  189.9460  177.7920  144.0730 C   0  0  0  0  0  0  0  0  0  0  0  0
  187.9160  177.2570  145.5220 C   0  0  0  0  0  0  0  0  0  0  0  0
  190.6270  176.8280  141.9390 C   0  0  2  0  0  3  0  0  0  0  0  0
  190.6170  177.1270  140.4550 C   0  0  0  0  0  1  0  0  0  0  0  0
  190.4590  178.0850  142.7030 C   0  0  2  0  0  3  0  0  0  0  0  0
  191.7200  177.4820  142.5320 O   0  0  0  0  0  0  0  0  0  0  0  0
  183.6230  175.1390  138.3370 C   0  0  0  0  0  2  0  0  0  0  0  0
  184.4160  173.4000  136.7260 C   0  0  0  0  0  2  0  0  0  0  0  0
  181.9080  172.6700  136.7450 C   0  0  1  0  0  0  0  0  0  0  0  0
  180.9170  171.8810  137.5890 C   0  0  0  0  0  1  0  0  0  0  0  0
  183.3690  172.3180  137.0270 C   0  0  1  0  0  3  0  0  0  0  0  0
  182.4870  170.4170  135.6880 C   0  0  0  0  0  1  0  0  0  0  0  0
  182.7230  171.9200  135.6970 C   0  0  1  0  0  3  0  0  0  0  0  0
  181.5270  174.1230  136.4360 C   0  0  0  0  0  2  0  0  0  0  0  0
  182.6840  174.9990  135.9610 C   0  0  0  0  0  2  0  0  0  0  0  0
  183.9240  174.8450  136.8460 C   0  0  1  0  0  0  0  0  0  0  0  0
  185.0160  175.7530  136.3430 C   0  0  0  0  0  3  0  0  0  0  0  0
  186.2580  175.7310  136.8310 C   0  0  0  0  0  3  0  0  0  0  0  0
  187.2870  176.6590  136.2860 C   0  0  0  0  0  1  0  0  0  0  0  0
  1  2  1  0  0  0  0
  2  6  1  0  0  0  0
  4  5  1  0  0  0  0
  5  6  1  0  0  0  0
  6  3  1  1  0  0  0
  6  9  1  0  0  0  0
  7  5  1  0  0  0  0
  8 27  1  1  0  0  0
  8  1  1  0  0  0  0
  8  4  1  0  0  0  0
  9 12  1  1  0  0  0
  9 10  1  0  0  0  0
 10 11  1  0  0  0  0
 12 13  1  0  0  0  0
 13 14  1  1  0  0  0
 13 11  1  0  0  0  0
 14 16  1  0  0  0  0
 16 17  1  0  0  0  0
 16 15  2  0  0  0  0
 19 22  1  0  0  0  0
 21 19  1  0  0  0  0
 21 18  2  0  0  0  0
 22 17  1  0  0  0  0
 22 20  2  0  0  0  0
 23 24  1  6  0  0  0
 23 26  1  0  0  0  0
 23 25  1  0  0  0  0
 25 21  1  1  0  0  0
 26 25  1  0  0  0  0
 28 36  1  0  0  0  0
 29 31  1  0  0  0  0
 29 30  1  1  0  0  0
 31 28  1  6  0  0  0
 33 32  1  1  0  0  0
 33 29  1  0  0  0  0
 33 31  1  0  0  0  0
 34 29  1  0  0  0  0
 35 34  1  0  0  0  0
 35 36  1  0  0  0  0
 36 37  1  6  0  0  0
 36 27  1  0  0  0  0
 37 38  2  0  0  0  0
 39 38  1  0  0  0  0
M  END
>  <MODEL>
8

>  <REMARK>
 VINA RESULT:      -7.7      3.435      8.820
  Name = 
  8 active torsions:
  status: ('A' for Active; 'I' for Inactive)
    1  A    between atoms: C_2  and  C_31
    2  A    between atoms: C_10  and  C_24
    3  A    between atoms: C_10  and  C_27
    4  A    between atoms: C_13  and  C_18
    5  A    between atoms: N_16  and  C_35
    6  A    between atoms: C_26  and  C_38
    7  A    between atoms: C_26  and  C_39
    8  A    between atoms: C_28  and  C_38
                            x       y       z     vdW  Elec       q    Type
                         _______ _______ _______ _____ _____    ______ ____

>  <TORSDO>
F 8

$$$$
=
 OpenBabel11062417523D

 39 43  0  0  1  0  0  0  0  0999 V2000
  188.0630  178.3620  140.9770 C   0  0  0  0  0  2  0  0  0  0  0  0
  188.8300  178.8150  139.7420 C   0  0  0  0  0  2  0  0  0  0  0  0
  190.1660  178.1080  137.9010 O   0  0  0  0  0  1  0  0  0  0  0  0
  189.5680  176.3340  141.0590 C   0  0  0  0  0  2  0  0  0  0  0  0
  190.2730  176.7880  139.8490 N   0  0  0  0  0  0  0  0  0  0  0  0
  189.4080  177.6130  138.9700 C   0  0  1  0  0  0  0  0  0  0  0  0
  191.4770  177.5130  140.2530 C   0  0  0  0  0  1  0  0  0  0  0  0
  188.9540  177.4930  141.8530 C   0  0  2  0  0  3  0  0  0  0  0  0
  188.2670  176.7410  138.3990 C   0  0  2  0  0  3  0  0  0  0  0  0
  188.7740  175.6510  137.4670 C   0  0  0  0  0  2  0  0  0  0  0  0
  187.8000  175.5820  136.3030 C   0  0  0  0  0  2  0  0  0  0  0  0
  187.2480  177.5350  137.6020 C   0  0  0  0  0  2  0  0  0  0  0  0
  186.6750  176.5580  136.6010 C   0  0  2  0  0  3  0  0  0  0  0  0
  185.5610  175.8440  137.2100 N   0  0  0  0  0  2  0  0  0  0  0  0
  183.9000  177.0900  136.1370 O   0  0  0  0  0  0  0  0  0  0  0  0
  184.2000  176.1100  136.8710 C   0  0  0  0  0  0  0  0  0  0  0  0
  183.1320  175.1800  137.3420 C   0  0  0  0  0  2  0  0  0  0  0  0
  180.7600  177.3240  140.3750 O   0  0  0  0  0  0  0  0  0  0  0  0
  182.7490  176.8510  139.2310 N   0  0  0  0  0  2  0  0  0  0  0  0
  181.0520  175.4310  138.4640 O   0  0  0  0  0  0  0  0  0  0  0  0
  181.9830  177.5730  140.2020 C   0  0  0  0  0  0  0  0  0  0  0  0
  182.2500  175.8110  138.3770 C   0  0  0  0  0  0  0  0  0  0  0  0
  183.7670  178.0250  141.8020 C   0  0  2  0  0  3  0  0  0  0  0  0
  184.7430  179.1100  142.2020 C   0  0  0  0  0  1  0  0  0  0  0  0
  182.6480  178.6170  141.0360 C   0  0  2  0  0  3  0  0  0  0  0  0
  182.5230  178.2840  142.3990 O   0  0  0  0  0  0  0  0  0  0  0  0
  188.2610  177.0100  143.1400 C   0  0  0  0  0  2  0  0  0  0  0  0
  188.7930  176.7880  145.5710 C   0  0  0  0  0  2  0  0  0  0  0  0
  191.2590  176.6880  144.7160 C   0  0  1  0  0  0  0  0  0  0  0  0
  192.2500  175.7170  144.0920 C   0  0  0  0  0  1  0  0  0  0  0  0
  190.1050  176.0000  145.4460 C   0  0  1  0  0  3  0  0  0  0  0  0
  192.0680  175.7560  146.9530 C   0  0  0  0  0  1  0  0  0  0  0  0
  191.1750  176.7580  146.2360 C   0  0  1  0  0  3  0  0  0  0  0  0
  190.9950  177.9800  143.9330 C   0  0  0  0  0  2  0  0  0  0  0  0
  189.7280  178.7270  144.3440 C   0  0  0  0  0  2  0  0  0  0  0  0
  188.5180  177.7940  144.4520 C   0  0  1  0  0  0  0  0  0  0  0  0
  187.2990  178.5930  144.8310 C   0  0  0  0  0  3  0  0  0  0  0  0
  186.2540  178.0610  145.4690 C   0  0  0  0  0  3  0  0  0  0  0  0
  185.0810  178.9130  145.8110 C   0  0  0  0  0  1  0  0  0  0  0  0
  1  8  1  0  0  0  0
  2  1  1  0  0  0  0
  4  8  1  0  0  0  0
  5  7  1  0  0  0  0
  5  4  1  0  0  0  0
  6  3  1  6  0  0  0
  6  2  1  0  0  0  0
  6  5  1  0  0  0  0
  8 27  1  1  0  0  0
  9 10  1  6  0  0  0
  9  6  1  0  0  0  0
 11 13  1  0  0  0  0
 11 10  1  0  0  0  0
 12  9  1  0  0  0  0
 13 14  1  1  0  0  0
 13 12  1  0  0  0  0
 15 16  2  0  0  0  0
 16 14  1  0  0  0  0
 16 17  1  0  0  0  0
 17 22  1  0  0  0  0
 19 21  1  0  0  0  0
 21 18  2  0  0  0  0
 22 20  2  0  0  0  0
 22 19  1  0  0  0  0
 23 24  1  1  0  0  0
 23 26  1  0  0  0  0
 25 21  1  6  0  0  0
 25 23  1  0  0  0  0
 25 26  1  0  0  0  0
 29 30  1  6  0  0  0
 29 31  1  0  0  0  0
 29 33  1  0  0  0  0
 31 28  1  6  0  0  0
 31 33  1  0  0  0  0
 33 32  1  1  0  0  0
 34 35  1  0  0  0  0
 34 29  1  0  0  0  0
 35 36  1  0  0  0  0
 36 27  1  6  0  0  0
 36 37  1  0  0  0  0
 36 28  1  0  0  0  0
 37 38  2  0  0  0  0
 38 39  1  0  0  0  0
M  END
>  <MODEL>
9

>  <REMARK>
 VINA RESULT:      -7.7      1.599      2.589
  Name = 
  8 active torsions:
  status: ('A' for Active; 'I' for Inactive)
    1  A    between atoms: C_2  and  C_31
    2  A    between atoms: C_10  and  C_24
    3  A    between atoms: C_10  and  C_27
    4  A    between atoms: C_13  and  C_18
    5  A    between atoms: N_16  and  C_35
    6  A    between atoms: C_26  and  C_38
    7  A    between atoms: C_26  and  C_39
    8  A    between atoms: C_28  and  C_38
                            x       y       z     vdW  Elec       q    Type
                         _______ _______ _______ _____ _____    ______ ____

>  <TORSDO>
F 8

$$$$
