=
 OpenBabel11062412103D

 54 59  0  0  1  0  0  0  0  0999 V2000
  185.3950  178.6180  139.6900 C   0  0  0  0  0  2  0  0  0  0  0  0
  185.4180  178.3470  138.1930 C   0  0  0  0  0  2  0  0  0  0  0  0
  186.8100  176.6600  135.6370 C   0  0  2  0  0  3  0  0  0  0  0  0
  187.7080  177.8730  135.5070 C   0  0  0  0  0  2  0  0  0  0  0  0
  187.3350  178.7550  136.6760 C   0  0  2  0  0  3  0  0  0  0  0  0
  186.6380  176.4590  137.1280 C   0  0  0  0  0  2  0  0  0  0  0  0
  188.4680  179.4220  137.1450 O   0  0  0  0  0  1  0  0  0  0  0  0
  186.7830  177.8390  137.7550 C   0  0  2  0  0  3  0  0  0  0  0  0
  187.4350  175.4830  135.0450 N   0  0  0  0  0  2  0  0  0  0  0  0
  188.7280  175.8510  134.6390 N   0  0  0  0  0  2  0  0  0  0  0  0
  189.6710  175.0330  135.3820 C   0  0  0  0  0  2  0  0  0  0  0  0
  190.6510  176.4600  137.1980 C   0  0  0  0  0  2  0  0  0  0  0  0
  193.1500  174.9940  136.7790 C   0  0  2  0  0  3  0  0  0  0  0  0
  192.6860  175.7250  138.0360 C   0  0  0  0  0  2  0  0  0  0  0  0
  193.3730  176.0010  135.6680 C   0  0  0  0  0  2  0  0  0  0  0  0
  192.1710  175.0800  135.5890 C   0  0  2  0  0  3  0  0  0  0  0  0
  190.8640  175.8790  135.7910 C   0  0  1  0  0  3  0  0  0  0  0  0
  191.2440  175.5890  138.2000 N   0  0  0  0  0  0  0  0  0  0  0  0
  190.8900  176.1430  139.4990 C   0  0  0  0  0  2  0  0  0  0  0  0
  189.6870  176.8490  139.4030 O   0  0  0  0  0  0  0  0  0  0  0  0
  188.7340  175.8720  142.6840 O   0  0  0  0  0  1  0  0  0  0  0  0
  188.8710  177.2630  142.6070 C   0  0  1  0  0  3  0  0  0  0  0  0
  190.3340  177.6610  142.5930 C   0  0  2  0  0  3  0  0  0  0  0  0
  190.8180  177.4900  141.2890 O   0  0  0  0  0  0  0  0  0  0  0  0
  188.4340  177.7130  141.2470 C   0  0  0  0  0  2  0  0  0  0  0  0
  189.7290  177.7830  140.4430 C   0  0  2  0  0  3  0  0  0  0  0  0
  191.1740  176.8770  143.5900 C   0  0  0  0  0  1  0  0  0  0  0  0
  184.0380  179.1590  140.1260 C   0  0  0  0  0  2  0  0  0  0  0  0
  183.4620  178.3190  141.2600 C   0  0  2  0  0  3  0  0  0  0  0  0
  181.9700  178.2590  141.1700 C   0  0  0  0  0  0  0  0  0  0  0  0
  180.7750  179.4270  143.1130 O   0  0  0  0  0  1  0  0  0  0  0  0
  181.8480  178.9730  142.3560 C   0  0  0  0  0  0  0  0  0  0  0  0
  183.3290  179.0960  142.4580 C   0  0  1  0  0  3  0  0  0  0  0  0
  180.9890  177.6830  140.2070 C   0  0  1  0  0  3  0  0  0  0  0  0
  179.9450  177.0480  140.8920 O   0  0  0  0  0  1  0  0  0  0  0  0
  179.1950  179.1630  139.3700 C   0  0  0  0  0  2  0  0  0  0  0  0
  180.4630  178.7340  139.2690 C   0  0  0  0  0  0  0  0  0  0  0  0
  181.3390  179.1380  138.1050 C   0  0  2  0  0  3  0  0  0  0  0  0
  181.5250  181.6780  138.3880 C   0  0  0  0  0  3  0  0  0  0  0  0
  180.6380  182.6860  136.5970 C   0  0  0  0  0  0  0  0  0  0  0  0
  181.1480  180.5610  137.6510 C   0  0  0  0  0  0  0  0  0  0  0  0
  181.2400  182.8630  137.7920 N   0  0  0  0  0  0  0  0  0  0  0  0
  180.4210  181.0680  136.2150 S   0  0  0  0  0  0  0  0  0  0  0  0
  180.2330  183.7640  135.7610 N   0  0  0  0  0  1  0  0  0  0  0  0
  182.2280  177.1570  136.8960 C   0  0  0  0  0  2  0  0  0  0  0  0
  181.3290  178.1360  136.9790 C   0  0  0  0  0  3  0  0  0  0  0  0
  183.9160  178.4050  143.7030 C   0  0  0  0  0  2  0  0  0  0  0  0
  184.3840  179.3420  144.8200 C   0  0  0  0  0  2  0  0  0  0  0  0
  185.1780  178.6110  145.8540 C   0  0  0  0  0  0  0  0  0  0  0  0
  184.8110  178.6220  147.0180 O   0  0  0  0  0  0  0  0  0  0  0  0
  186.3880  177.8380  145.4550 C   0  0  0  0  0  2  0  0  0  0  0  0
  187.3730  177.7680  146.6140 C   0  0  0  0  0  2  0  0  0  0  0  0
  189.4740  177.0330  147.3210 C   0  0  0  0  0  1  0  0  0  0  0  0
  188.6280  177.2000  146.1510 N   0  0  0  0  0  2  0  0  0  0  0  0
  1 28  1  0  0  0  0
  2  1  1  0  0  0  0
  3  9  1  1  0  0  0
  3  6  1  0  0  0  0
  4  3  1  0  0  0  0
  4  5  1  0  0  0  0
  5  7  1  1  0  0  0
  5  8  1  0  0  0  0
  6  8  1  0  0  0  0
  8  2  1  6  0  0  0
 10  9  1  0  0  0  0
 10 11  1  0  0  0  0
 12 18  1  0  0  0  0
 13 15  1  6  0  0  0
 13 14  1  0  0  0  0
 14 18  1  0  0  0  0
 16 15  1  6  0  0  0
 16 17  1  0  0  0  0
 16 13  1  0  0  0  0
 17 11  1  1  0  0  0
 17 12  1  0  0  0  0
 18 19  1  0  0  0  0
 20 19  1  0  0  0  0
 22 21  1  6  0  0  0
 23 22  1  0  0  0  0
 23 27  1  1  0  0  0
 24 23  1  0  0  0  0
 25 22  1  0  0  0  0
 26 20  1  6  0  0  0
 26 25  1  0  0  0  0
 26 24  1  0  0  0  0
 29 28  1  6  0  0  0
 29 33  1  0  0  0  0
 30 29  1  0  0  0  0
 30 32  2  0  0  0  0
 32 33  1  0  0  0  0
 32 31  1  0  0  0  0
 33 47  1  1  0  0  0
 34 35  1  1  0  0  0
 34 30  1  0  0  0  0
 37 36  2  0  0  0  0
 37 34  1  0  0  0  0
 38 46  1  6  0  0  0
 38 37  1  0  0  0  0
 40 42  2  0  0  0  0
 41 38  1  0  0  0  0
 41 39  2  0  0  0  0
 42 39  1  0  0  0  0
 43 40  1  0  0  0  0
 43 41  1  0  0  0  0
 44 40  1  0  0  0  0
 45 46  2  0  0  0  0
 47 48  1  0  0  0  0
 48 49  1  0  0  0  0
 49 50  2  0  0  0  0
 51 49  1  0  0  0  0
 51 52  1  0  0  0  0
 54 52  1  0  0  0  0
 54 53  1  0  0  0  0
M  END
>  <MODEL>
1

>  <REMARK>
 VINA RESULT:      -7.1      0.000      0.000
  Name = 
  22 active torsions:
  status: ('A' for Active; 'I' for Inactive)
    1  A    between atoms: C_1  and  C_20
    2  A    between atoms: C_1  and  C_54
    3  A    between atoms: C_2  and  C_18
    4  A    between atoms: C_2  and  C_49
    5  A    between atoms: C_2  and  C_52
    6  A    between atoms: C_3  and  C_48
    7  A    between atoms: N_4  and  N_6
    8  A    between atoms: N_4  and  C_44
    9  A    between atoms: N_6  and  C_9
   10  A    between atoms: C_7  and  C_20
   11  A    between atoms: C_7  and  C_39
   12  A    between atoms: O_10  and  C_21
   13  A    between atoms: O_10  and  C_43
   14  A    between atoms: C_14  and  C_23
   15  A    between atoms: C_14  and  C_49
   16  A    between atoms: N_17  and  C_24
   17  A    between atoms: C_19  and  C_48
   18  A    between atoms: C_19  and  C_51
   19  A    between atoms: C_21  and  N_53
   20  A    between atoms: C_24  and  C_39
   21  A    between atoms: C_38  and  C_51
   22  A    between atoms: C_44  and  C_45
                            x       y       z     vdW  Elec       q    Type
                         _______ _______ _______ _____ _____    ______ ____

>  <TORSDO>
F 22

$$$$
=
 OpenBabel11062412103D

 54 59  0  0  1  0  0  0  0  0999 V2000
  187.3430  178.5080  141.2200 C   0  0  0  0  0  2  0  0  0  0  0  0
  187.7840  178.0050  142.5870 C   0  0  0  0  0  2  0  0  0  0  0  0
  190.7490  177.6530  141.0380 C   0  0  2  0  0  3  0  0  0  0  0  0
  191.2910  177.4100  142.4310 C   0  0  0  0  0  2  0  0  0  0  0  0
  190.0710  177.3980  143.3230 C   0  0  2  0  0  3  0  0  0  0  0  0
  189.4030  176.9590  141.0160 C   0  0  0  0  0  2  0  0  0  0  0  0
  190.2530  176.4810  144.3590 O   0  0  0  0  0  1  0  0  0  0  0  0
  188.8990  176.9790  142.4520 C   0  0  2  0  0  3  0  0  0  0  0  0
  191.6250  177.0720  140.0280 N   0  0  0  0  0  2  0  0  0  0  0  0
  190.8090  176.5020  139.0380 N   0  0  0  0  0  2  0  0  0  0  0  0
  191.4040  176.8080  137.7480 C   0  0  0  0  0  2  0  0  0  0  0  0
  191.6980  175.1870  135.8570 C   0  0  0  0  0  2  0  0  0  0  0  0
  189.4130  173.7300  136.9630 C   0  0  2  0  0  3  0  0  0  0  0  0
  190.5370  173.1920  136.0820 C   0  0  0  0  0  2  0  0  0  0  0  0
  188.5910  174.7290  136.1710 C   0  0  0  0  0  2  0  0  0  0  0  0
  189.5050  175.2400  137.2670 C   0  0  2  0  0  3  0  0  0  0  0  0
  190.6910  176.0240  136.6610 C   0  0  1  0  0  3  0  0  0  0  0  0
  191.7970  173.8460  136.4100 N   0  0  0  0  0  0  0  0  0  0  0  0
  192.8540  173.1670  135.6740 C   0  0  0  0  0  2  0  0  0  0  0  0
  193.7120  172.5170  136.5670 O   0  0  0  0  0  0  0  0  0  0  0  0
  197.1570  172.2000  137.3780 O   0  0  0  0  0  1  0  0  0  0  0  0
  196.5920  173.2860  138.0550 C   0  0  1  0  0  3  0  0  0  0  0  0
  196.3910  174.4610  137.1170 C   0  0  2  0  0  3  0  0  0  0  0  0
  195.2140  174.2380  136.3900 O   0  0  0  0  0  0  0  0  0  0  0  0
  195.1760  172.9480  138.4070 C   0  0  0  0  0  2  0  0  0  0  0  0
  194.3560  173.5430  137.2660 C   0  0  2  0  0  3  0  0  0  0  0  0
  197.5700  174.6880  136.1850 C   0  0  0  0  0  1  0  0  0  0  0  0
  185.9480  179.1180  141.2880 C   0  0  0  0  0  2  0  0  0  0  0  0
  184.9850  178.1860  142.0160 C   0  0  2  0  0  3  0  0  0  0  0  0
  183.7440  177.9700  141.2080 C   0  0  0  0  0  0  0  0  0  0  0  0
  181.6330  178.9410  142.2880 O   0  0  0  0  0  1  0  0  0  0  0  0
  182.9820  178.6280  142.1640 C   0  0  0  0  0  0  0  0  0  0  0  0
  184.2000  178.9060  142.9760 C   0  0  1  0  0  3  0  0  0  0  0  0
  183.4290  177.3230  139.9030 C   0  0  1  0  0  3  0  0  0  0  0  0
  182.1170  176.8310  139.9040 O   0  0  0  0  0  1  0  0  0  0  0  0
  183.0170  179.4500  138.7140 C   0  0  0  0  0  2  0  0  0  0  0  0
  183.6540  178.2690  138.7570 C   0  0  0  0  0  0  0  0  0  0  0  0
  184.4570  177.7660  137.5790 C   0  0  2  0  0  3  0  0  0  0  0  0
  182.6330  176.5520  136.2500 C   0  0  0  0  0  3  0  0  0  0  0  0
  183.2400  174.4180  135.9460 C   0  0  0  0  0  0  0  0  0  0  0  0
  183.8650  176.5620  136.8940 C   0  0  0  0  0  0  0  0  0  0  0  0
  182.2910  175.3500  135.7190 N   0  0  0  0  0  0  0  0  0  0  0  0
  184.5440  175.0190  136.8120 S   0  0  0  0  0  0  0  0  0  0  0  0
  183.1340  173.0730  135.4940 N   0  0  0  0  0  1  0  0  0  0  0  0
  186.8520  178.3120  137.2030 C   0  0  0  0  0  2  0  0  0  0  0  0
  185.9280  177.6310  137.8770 C   0  0  0  0  0  3  0  0  0  0  0  0
  184.1740  178.2420  144.3660 C   0  0  0  0  0  2  0  0  0  0  0  0
  184.3040  179.1970  145.5560 C   0  0  0  0  0  2  0  0  0  0  0  0
  185.5100  178.8850  146.3810 C   0  0  0  0  0  0  0  0  0  0  0  0
  185.8040  179.6060  147.3200 O   0  0  0  0  0  0  0  0  0  0  0  0
  186.3250  177.6730  146.0810 C   0  0  0  0  0  2  0  0  0  0  0  0
  187.7920  177.9370  146.3900 C   0  0  0  0  0  2  0  0  0  0  0  0
  188.5440  177.9890  148.6010 C   0  0  0  0  0  1  0  0  0  0  0  0
  188.2120  177.0990  147.5010 N   0  0  0  0  0  2  0  0  0  0  0  0
  1 28  1  0  0  0  0
  1  2  1  0  0  0  0
  3  9  1  6  0  0  0
  3  4  1  0  0  0  0
  4  5  1  0  0  0  0
  5  7  1  1  0  0  0
  6  3  1  0  0  0  0
  6  8  1  0  0  0  0
  8  2  1  6  0  0  0
  8  5  1  0  0  0  0
 10  9  1  0  0  0  0
 11 10  1  0  0  0  0
 12 18  1  0  0  0  0
 12 17  1  0  0  0  0
 13 14  1  6  0  0  0
 13 16  1  0  0  0  0
 14 18  1  0  0  0  0
 15 13  1  0  0  0  0
 16 15  1  6  0  0  0
 17 16  1  0  0  0  0
 17 11  1  1  0  0  0
 19 18  1  0  0  0  0
 19 20  1  0  0  0  0
 22 21  1  6  0  0  0
 22 25  1  0  0  0  0
 23 27  1  6  0  0  0
 23 22  1  0  0  0  0
 24 23  1  0  0  0  0
 24 26  1  0  0  0  0
 26 20  1  6  0  0  0
 26 25  1  0  0  0  0
 29 28  1  6  0  0  0
 29 33  1  0  0  0  0
 30 29  1  0  0  0  0
 30 32  2  0  0  0  0
 32 31  1  0  0  0  0
 32 33  1  0  0  0  0
 33 47  1  1  0  0  0
 34 35  1  1  0  0  0
 34 30  1  0  0  0  0
 36 37  2  0  0  0  0
 37 34  1  0  0  0  0
 38 46  1  1  0  0  0
 38 37  1  0  0  0  0
 39 41  2  0  0  0  0
 40 43  1  0  0  0  0
 41 38  1  0  0  0  0
 42 40  2  0  0  0  0
 42 39  1  0  0  0  0
 43 41  1  0  0  0  0
 44 40  1  0  0  0  0
 45 46  2  0  0  0  0
 47 48  1  0  0  0  0
 48 49  1  0  0  0  0
 49 50  2  0  0  0  0
 51 49  1  0  0  0  0
 51 52  1  0  0  0  0
 52 54  1  0  0  0  0
 54 53  1  0  0  0  0
M  END
>  <MODEL>
2

>  <REMARK>
 VINA RESULT:      -7.1      2.926      5.425
  Name = 
  22 active torsions:
  status: ('A' for Active; 'I' for Inactive)
    1  A    between atoms: C_1  and  C_20
    2  A    between atoms: C_1  and  C_54
    3  A    between atoms: C_2  and  C_18
    4  A    between atoms: C_2  and  C_49
    5  A    between atoms: C_2  and  C_52
    6  A    between atoms: C_3  and  C_48
    7  A    between atoms: N_4  and  N_6
    8  A    between atoms: N_4  and  C_44
    9  A    between atoms: N_6  and  C_9
   10  A    between atoms: C_7  and  C_20
   11  A    between atoms: C_7  and  C_39
   12  A    between atoms: O_10  and  C_21
   13  A    between atoms: O_10  and  C_43
   14  A    between atoms: C_14  and  C_23
   15  A    between atoms: C_14  and  C_49
   16  A    between atoms: N_17  and  C_24
   17  A    between atoms: C_19  and  C_48
   18  A    between atoms: C_19  and  C_51
   19  A    between atoms: C_21  and  N_53
   20  A    between atoms: C_24  and  C_39
   21  A    between atoms: C_38  and  C_51
   22  A    between atoms: C_44  and  C_45
                            x       y       z     vdW  Elec       q    Type
                         _______ _______ _______ _____ _____    ______ ____

>  <TORSDO>
F 22

$$$$
=
 OpenBabel11062412103D

 54 59  0  0  1  0  0  0  0  0999 V2000
  185.2790  178.5600  139.7260 C   0  0  0  0  0  2  0  0  0  0  0  0
  185.4660  178.3760  138.2270 C   0  0  0  0  0  2  0  0  0  0  0  0
  187.1000  176.4740  135.9840 C   0  0  2  0  0  3  0  0  0  0  0  0
  187.9020  177.7300  135.7110 C   0  0  0  0  0  2  0  0  0  0  0  0
  187.4090  178.7310  136.7300 C   0  0  2  0  0  3  0  0  0  0  0  0
  186.8790  176.4700  137.4830 C   0  0  0  0  0  2  0  0  0  0  0  0
  188.4630  179.5510  137.1340 O   0  0  0  0  0  1  0  0  0  0  0  0
  186.8860  177.9300  137.9100 C   0  0  2  0  0  3  0  0  0  0  0  0
  187.8420  175.2840  135.5860 N   0  0  0  0  0  2  0  0  0  0  0  0
  189.0620  175.7120  135.0370 N   0  0  0  0  0  2  0  0  0  0  0  0
  190.1200  174.9430  135.6690 C   0  0  0  0  0  2  0  0  0  0  0  0
  190.9070  176.8930  137.0350 C   0  0  0  0  0  2  0  0  0  0  0  0
  193.3130  175.3230  137.5980 C   0  0  2  0  0  3  0  0  0  0  0  0
  192.7120  176.4560  138.4250 C   0  0  0  0  0  2  0  0  0  0  0  0
  193.7940  175.8740  136.2700 C   0  0  0  0  0  2  0  0  0  0  0  0
  192.5500  175.0080  136.2940 C   0  0  2  0  0  3  0  0  0  0  0  0
  191.2970  175.8540  135.9730 C   0  0  1  0  0  3  0  0  0  0  0  0
  191.2570  176.4150  138.3630 N   0  0  0  0  0  0  0  0  0  0  0  0
  190.7440  177.3950  139.3090 C   0  0  0  0  0  2  0  0  0  0  0  0
  191.3480  177.2120  140.5580 O   0  0  0  0  0  0  0  0  0  0  0  0
  189.9610  178.5610  143.5380 O   0  0  0  0  0  1  0  0  0  0  0  0
  189.6560  177.2000  143.4280 C   0  0  1  0  0  3  0  0  0  0  0  0
  188.5570  176.9750  142.4060 C   0  0  2  0  0  3  0  0  0  0  0  0
  189.1400  176.9990  141.1310 O   0  0  0  0  0  0  0  0  0  0  0  0
  190.8080  176.5010  142.7750 C   0  0  0  0  0  2  0  0  0  0  0  0
  190.4310  176.4580  141.2980 C   0  0  2  0  0  3  0  0  0  0  0  0
  187.4310  177.9920  142.5070 C   0  0  0  0  0  1  0  0  0  0  0  0
  183.8470  178.9720  140.0500 C   0  0  0  0  0  2  0  0  0  0  0  0
  183.3270  178.2090  141.2630 C   0  0  2  0  0  3  0  0  0  0  0  0
  181.8310  178.2330  141.3030 C   0  0  0  0  0  0  0  0  0  0  0  0
  180.8770  179.5380  143.2910 O   0  0  0  0  0  1  0  0  0  0  0  0
  181.8530  178.9950  142.4640 C   0  0  0  0  0  0  0  0  0  0  0  0
  183.3430  179.0360  142.4350 C   0  0  1  0  0  3  0  0  0  0  0  0
  180.7400  177.6810  140.4520 C   0  0  1  0  0  3  0  0  0  0  0  0
  179.8070  176.9910  141.2370 O   0  0  0  0  0  1  0  0  0  0  0  0
  179.1480  179.5550  140.2020 C   0  0  0  0  0  2  0  0  0  0  0  0
  180.0770  178.7620  139.6440 C   0  0  0  0  0  0  0  0  0  0  0  0
  180.3470  178.7930  138.1570 C   0  0  2  0  0  3  0  0  0  0  0  0
  179.7550  176.4310  137.3600 C   0  0  0  0  0  3  0  0  0  0  0  0
  181.6050  175.4230  136.6050 C   0  0  0  0  0  0  0  0  0  0  0  0
  180.6780  177.4520  137.5590 C   0  0  0  0  0  0  0  0  0  0  0  0
  180.2790  175.3000  136.8240 N   0  0  0  0  0  0  0  0  0  0  0  0
  182.2010  176.9210  137.0630 S   0  0  0  0  0  0  0  0  0  0  0  0
  182.4020  174.3840  136.0470 N   0  0  0  0  0  1  0  0  0  0  0  0
  180.9600  180.8250  136.8640 C   0  0  0  0  0  2  0  0  0  0  0  0
  181.2980  179.8890  137.7490 C   0  0  0  0  0  3  0  0  0  0  0  0
  183.9970  178.3570  143.6530 C   0  0  0  0  0  2  0  0  0  0  0  0
  184.7690  179.2880  144.5920 C   0  0  0  0  0  2  0  0  0  0  0  0
  185.1930  178.5810  145.8390 C   0  0  0  0  0  0  0  0  0  0  0  0
  184.6450  178.8410  146.8970 O   0  0  0  0  0  0  0  0  0  0  0  0
  186.2520  177.5340  145.7790 C   0  0  0  0  0  2  0  0  0  0  0  0
  187.5480  178.0630  146.3800 C   0  0  0  0  0  2  0  0  0  0  0  0
  188.9630  178.0410  148.2380 C   0  0  0  0  0  1  0  0  0  0  0  0
  187.6460  177.6420  147.7680 N   0  0  0  0  0  2  0  0  0  0  0  0
  1 28  1  0  0  0  0
  2  1  1  0  0  0  0
  3  9  1  1  0  0  0
  3  6  1  0  0  0  0
  4  3  1  0  0  0  0
  4  5  1  0  0  0  0
  5  7  1  1  0  0  0
  5  8  1  0  0  0  0
  6  8  1  0  0  0  0
  8  2  1  6  0  0  0
 10  9  1  0  0  0  0
 10 11  1  0  0  0  0
 12 18  1  0  0  0  0
 13 15  1  6  0  0  0
 13 14  1  0  0  0  0
 16 15  1  6  0  0  0
 16 13  1  0  0  0  0
 17 11  1  1  0  0  0
 17 16  1  0  0  0  0
 17 12  1  0  0  0  0
 18 14  1  0  0  0  0
 18 19  1  0  0  0  0
 19 20  1  0  0  0  0
 22 21  1  6  0  0  0
 23 27  1  6  0  0  0
 23 22  1  0  0  0  0
 24 26  1  0  0  0  0
 24 23  1  0  0  0  0
 25 22  1  0  0  0  0
 26 20  1  6  0  0  0
 26 25  1  0  0  0  0
 29 28  1  6  0  0  0
 29 30  1  0  0  0  0
 29 33  1  0  0  0  0
 30 32  2  0  0  0  0
 32 31  1  0  0  0  0
 33 32  1  0  0  0  0
 33 47  1  1  0  0  0
 34 35  1  1  0  0  0
 34 30  1  0  0  0  0
 37 36  2  0  0  0  0
 37 34  1  0  0  0  0
 38 46  1  1  0  0  0
 38 37  1  0  0  0  0
 39 41  2  0  0  0  0
 40 42  2  0  0  0  0
 40 43  1  0  0  0  0
 41 38  1  0  0  0  0
 42 39  1  0  0  0  0
 43 41  1  0  0  0  0
 44 40  1  0  0  0  0
 45 46  2  0  0  0  0
 47 48  1  0  0  0  0
 48 49  1  0  0  0  0
 49 50  2  0  0  0  0
 51 49  1  0  0  0  0
 51 52  1  0  0  0  0
 52 54  1  0  0  0  0
 54 53  1  0  0  0  0
M  END
>  <MODEL>
3

>  <REMARK>
 VINA RESULT:      -6.8      1.902      2.561
  Name = 
  22 active torsions:
  status: ('A' for Active; 'I' for Inactive)
    1  A    between atoms: C_1  and  C_20
    2  A    between atoms: C_1  and  C_54
    3  A    between atoms: C_2  and  C_18
    4  A    between atoms: C_2  and  C_49
    5  A    between atoms: C_2  and  C_52
    6  A    between atoms: C_3  and  C_48
    7  A    between atoms: N_4  and  N_6
    8  A    between atoms: N_4  and  C_44
    9  A    between atoms: N_6  and  C_9
   10  A    between atoms: C_7  and  C_20
   11  A    between atoms: C_7  and  C_39
   12  A    between atoms: O_10  and  C_21
   13  A    between atoms: O_10  and  C_43
   14  A    between atoms: C_14  and  C_23
   15  A    between atoms: C_14  and  C_49
   16  A    between atoms: N_17  and  C_24
   17  A    between atoms: C_19  and  C_48
   18  A    between atoms: C_19  and  C_51
   19  A    between atoms: C_21  and  N_53
   20  A    between atoms: C_24  and  C_39
   21  A    between atoms: C_38  and  C_51
   22  A    between atoms: C_44  and  C_45
                            x       y       z     vdW  Elec       q    Type
                         _______ _______ _______ _____ _____    ______ ____

>  <TORSDO>
F 22

$$$$
=
 OpenBabel11062412103D

 54 59  0  0  1  0  0  0  0  0999 V2000
  188.3110  178.4460  141.3660 C   0  0  0  0  0  2  0  0  0  0  0  0
  188.8570  177.8070  140.0970 C   0  0  0  0  0  2  0  0  0  0  0  0
  192.2120  177.5780  140.1980 C   0  0  2  0  0  3  0  0  0  0  0  0
  192.0020  177.1720  141.6420 C   0  0  0  0  0  2  0  0  0  0  0  0
  190.5020  177.0830  141.8030 C   0  0  2  0  0  3  0  0  0  0  0  0
  191.0820  176.9140  139.4380 C   0  0  0  0  0  2  0  0  0  0  0  0
  190.1840  176.0530  142.6900 O   0  0  0  0  0  1  0  0  0  0  0  0
  189.9330  176.7830  140.4270 C   0  0  2  0  0  3  0  0  0  0  0  0
  193.4960  177.0980  139.7020 N   0  0  0  0  0  2  0  0  0  0  0  0
  193.2910  176.6160  138.3990 N   0  0  0  0  0  2  0  0  0  0  0  0
  194.1370  175.4470  138.2260 C   0  0  0  0  0  2  0  0  0  0  0  0
  192.1210  174.9340  136.8240 C   0  0  0  0  0  2  0  0  0  0  0  0
  193.8810  173.2580  135.1920 C   0  0  2  0  0  3  0  0  0  0  0  0
  192.5720  173.9280  134.7830 C   0  0  0  0  0  2  0  0  0  0  0  0
  193.5970  172.2050  136.2450 C   0  0  0  0  0  2  0  0  0  0  0  0
  194.2860  173.4880  136.6640 C   0  0  2  0  0  3  0  0  0  0  0  0
  193.3460  174.3450  137.5410 C   0  0  1  0  0  3  0  0  0  0  0  0
  192.4390  175.2240  135.4350 N   0  0  0  0  0  0  0  0  0  0  0  0
  191.2730  175.8880  134.8690 C   0  0  0  0  0  2  0  0  0  0  0  0
  190.5730  176.5600  135.8760 O   0  0  0  0  0  0  0  0  0  0  0  0
  187.4810  175.6130  137.3490 O   0  0  0  0  0  1  0  0  0  0  0  0
  187.2720  176.1500  136.0740 C   0  0  1  0  0  3  0  0  0  0  0  0
  187.4110  177.6600  136.0960 C   0  0  2  0  0  3  0  0  0  0  0  0
  188.7770  177.9710  136.0580 O   0  0  0  0  0  0  0  0  0  0  0  0
  188.4230  175.7650  135.1970 C   0  0  0  0  0  2  0  0  0  0  0  0
  189.3710  176.9570  135.2790 C   0  0  2  0  0  3  0  0  0  0  0  0
  186.7420  178.3030  137.3020 C   0  0  0  0  0  1  0  0  0  0  0  0
  186.9140  179.0110  141.1340 C   0  0  0  0  0  2  0  0  0  0  0  0
  185.8770  178.2380  141.9400 C   0  0  2  0  0  3  0  0  0  0  0  0
  184.5260  178.8680  141.8090 C   0  0  0  0  0  0  0  0  0  0  0  0
  183.6400  179.8650  143.9970 O   0  0  0  0  0  1  0  0  0  0  0  0
  184.5310  179.2100  143.1550 C   0  0  0  0  0  0  0  0  0  0  0  0
  185.8970  178.6360  143.3180 C   0  0  1  0  0  3  0  0  0  0  0  0
  183.5540  179.0680  140.6980 C   0  0  1  0  0  3  0  0  0  0  0  0
  184.1330  179.8250  139.6710 O   0  0  0  0  0  1  0  0  0  0  0  0
  183.7030  177.0940  139.2180 C   0  0  0  0  0  2  0  0  0  0  0  0
  183.0380  177.7540  140.1800 C   0  0  0  0  0  0  0  0  0  0  0  0
  181.6660  177.3110  140.6320 C   0  0  2  0  0  3  0  0  0  0  0  0
  180.5170  175.2350  139.6670 C   0  0  0  0  0  3  0  0  0  0  0  0
  179.6330  175.7420  137.6730 C   0  0  0  0  0  0  0  0  0  0  0  0
  180.8750  176.5760  139.5830 C   0  0  0  0  0  0  0  0  0  0  0  0
  179.8200  174.7760  138.5960 N   0  0  0  0  0  0  0  0  0  0  0  0
  180.3170  177.2060  138.1210 S   0  0  0  0  0  0  0  0  0  0  0  0
  178.9310  175.5290  136.4530 N   0  0  0  0  0  1  0  0  0  0  0  0
  180.0170  178.1400  142.2970 C   0  0  0  0  0  2  0  0  0  0  0  0
  180.8880  178.4010  141.3240 C   0  0  0  0  0  3  0  0  0  0  0  0
  185.9480  177.4470  144.2970 C   0  0  0  0  0  2  0  0  0  0  0  0
  187.3510  176.9600  144.6700 C   0  0  0  0  0  2  0  0  0  0  0  0
  187.8530  177.6310  145.9080 C   0  0  0  0  0  0  0  0  0  0  0  0
  187.0600  178.0300  146.7450 O   0  0  0  0  0  0  0  0  0  0  0  0
  189.3190  177.7730  146.1360 C   0  0  0  0  0  2  0  0  0  0  0  0
  189.7650  176.8660  147.2750 C   0  0  0  0  0  2  0  0  0  0  0  0
  191.6420  176.6940  145.8960 C   0  0  0  0  0  1  0  0  0  0  0  0
  191.2150  176.7750  147.2830 N   0  0  0  0  0  2  0  0  0  0  0  0
  2  1  1  0  0  0  0
  3  9  1  6  0  0  0
  3  4  1  0  0  0  0
  4  5  1  0  0  0  0
  5  7  1  1  0  0  0
  6  3  1  0  0  0  0
  6  8  1  0  0  0  0
  8  2  1  6  0  0  0
  8  5  1  0  0  0  0
 10  9  1  0  0  0  0
 11 10  1  0  0  0  0
 12 17  1  0  0  0  0
 13 14  1  1  0  0  0
 13 15  1  0  0  0  0
 13 16  1  0  0  0  0
 14 18  1  0  0  0  0
 16 15  1  1  0  0  0
 16 17  1  0  0  0  0
 17 11  1  6  0  0  0
 18 12  1  0  0  0  0
 19 18  1  0  0  0  0
 19 20  1  0  0  0  0
 22 23  1  0  0  0  0
 22 21  1  1  0  0  0
 23 27  1  1  0  0  0
 24 23  1  0  0  0  0
 25 26  1  0  0  0  0
 25 22  1  0  0  0  0
 26 20  1  1  0  0  0
 26 24  1  0  0  0  0
 28  1  1  0  0  0  0
 29 28  1  6  0  0  0
 29 33  1  0  0  0  0
 30 29  1  0  0  0  0
 30 32  2  0  0  0  0
 32 33  1  0  0  0  0
 32 31  1  0  0  0  0
 33 47  1  1  0  0  0
 34 35  1  6  0  0  0
 34 30  1  0  0  0  0
 36 37  2  0  0  0  0
 37 38  1  0  0  0  0
 37 34  1  0  0  0  0
 38 46  1  6  0  0  0
 40 43  1  0  0  0  0
 40 42  2  0  0  0  0
 41 39  2  0  0  0  0
 41 38  1  0  0  0  0
 42 39  1  0  0  0  0
 43 41  1  0  0  0  0
 44 40  1  0  0  0  0
 46 45  2  0  0  0  0
 47 48  1  0  0  0  0
 48 49  1  0  0  0  0
 49 51  1  0  0  0  0
 49 50  2  0  0  0  0
 51 52  1  0  0  0  0
 52 54  1  0  0  0  0
 53 54  1  0  0  0  0
M  END
>  <MODEL>
4

>  <REMARK>
 VINA RESULT:      -6.7      2.825      4.895
  Name = 
  22 active torsions:
  status: ('A' for Active; 'I' for Inactive)
    1  A    between atoms: C_1  and  C_20
    2  A    between atoms: C_1  and  C_54
    3  A    between atoms: C_2  and  C_18
    4  A    between atoms: C_2  and  C_49
    5  A    between atoms: C_2  and  C_52
    6  A    between atoms: C_3  and  C_48
    7  A    between atoms: N_4  and  N_6
    8  A    between atoms: N_4  and  C_44
    9  A    between atoms: N_6  and  C_9
   10  A    between atoms: C_7  and  C_20
   11  A    between atoms: C_7  and  C_39
   12  A    between atoms: O_10  and  C_21
   13  A    between atoms: O_10  and  C_43
   14  A    between atoms: C_14  and  C_23
   15  A    between atoms: C_14  and  C_49
   16  A    between atoms: N_17  and  C_24
   17  A    between atoms: C_19  and  C_48
   18  A    between atoms: C_19  and  C_51
   19  A    between atoms: C_21  and  N_53
   20  A    between atoms: C_24  and  C_39
   21  A    between atoms: C_38  and  C_51
   22  A    between atoms: C_44  and  C_45
                            x       y       z     vdW  Elec       q    Type
                         _______ _______ _______ _____ _____    ______ ____

>  <TORSDO>
F 22

$$$$
=
 OpenBabel11062412103D

 54 59  0  0  1  0  0  0  0  0999 V2000
  187.3650  178.2640  138.0030 C   0  0  0  0  0  2  0  0  0  0  0  0
  187.9230  177.8740  136.6410 C   0  0  0  0  0  2  0  0  0  0  0  0
  185.8770  175.4160  135.5990 C   0  0  2  0  0  3  0  0  0  0  0  0
  186.9910  175.0890  134.6270 C   0  0  0  0  0  2  0  0  0  0  0  0
  188.1170  176.0250  135.0030 C   0  0  2  0  0  3  0  0  0  0  0  0
  186.5790  175.7960  136.8860 C   0  0  0  0  0  2  0  0  0  0  0  0
  189.3440  175.3890  134.8080 O   0  0  0  0  0  1  0  0  0  0  0  0
  187.9300  176.3620  136.4730 C   0  0  2  0  0  3  0  0  0  0  0  0
  185.0220  174.2570  135.8220 N   0  0  0  0  0  2  0  0  0  0  0  0
  184.1580  174.5670  136.8850 N   0  0  0  0  0  2  0  0  0  0  0  0
  182.8580  173.9980  136.5740 C   0  0  0  0  0  2  0  0  0  0  0  0
  182.5020  175.4120  138.6150 C   0  0  0  0  0  2  0  0  0  0  0  0
  180.0960  176.4300  137.2950 C   0  0  2  0  0  3  0  0  0  0  0  0
  180.9320  177.1040  138.3790 C   0  0  0  0  0  2  0  0  0  0  0  0
  179.4450  175.1850  137.8650 C   0  0  0  0  0  2  0  0  0  0  0  0
  180.5900  175.0260  136.8850 C   0  0  2  0  0  3  0  0  0  0  0  0
  181.8410  174.4680  137.5990 C   0  0  1  0  0  3  0  0  0  0  0  0
  182.3450  176.7950  138.1970 N   0  0  0  0  0  0  0  0  0  0  0  0
  183.1010  177.6060  139.1400 C   0  0  0  0  0  2  0  0  0  0  0  0
  182.6220  177.3980  140.4380 O   0  0  0  0  0  0  0  0  0  0  0  0
  180.7250  178.0770  143.3640 O   0  0  0  0  0  1  0  0  0  0  0  0
  181.3350  179.2450  142.8930 C   0  0  1  0  0  3  0  0  0  0  0  0
  182.8150  179.2520  143.2270 C   0  0  2  0  0  3  0  0  0  0  0  0
  183.4770  178.4630  142.2770 O   0  0  0  0  0  0  0  0  0  0  0  0
  181.3740  179.1960  141.3970 C   0  0  0  0  0  2  0  0  0  0  0  0
  182.7560  178.6340  141.0780 C   0  0  2  0  0  3  0  0  0  0  0  0
  183.1100  178.7650  144.6370 C   0  0  0  0  0  1  0  0  0  0  0  0
  188.4850  178.6680  138.9550 C   0  0  0  0  0  2  0  0  0  0  0  0
  189.0360  177.4510  139.6880 C   0  0  2  0  0  3  0  0  0  0  0  0
  189.3120  177.7760  141.1230 C   0  0  0  0  0  0  0  0  0  0  0  0
  191.7990  177.6980  141.7340 O   0  0  0  0  0  1  0  0  0  0  0  0
  190.6750  177.6020  140.9220 C   0  0  0  0  0  0  0  0  0  0  0  0
  190.4480  177.3190  139.4770 C   0  0  1  0  0  3  0  0  0  0  0  0
  188.4810  178.1470  142.3030 C   0  0  1  0  0  3  0  0  0  0  0  0
  187.1470  178.3390  141.9230 O   0  0  0  0  0  1  0  0  0  0  0  0
  188.5120  175.8100  143.1070 C   0  0  0  0  0  2  0  0  0  0  0  0
  188.5930  177.1190  143.3950 C   0  0  0  0  0  0  0  0  0  0  0  0
  188.6020  177.6110  144.8240 C   0  0  2  0  0  3  0  0  0  0  0  0
  191.0430  176.8590  145.0270 C   0  0  0  0  0  3  0  0  0  0  0  0
  191.5720  176.6480  147.1920 C   0  0  0  0  0  0  0  0  0  0  0  0
  189.8330  177.2300  145.6030 C   0  0  0  0  0  0  0  0  0  0  0  0
  192.0120  176.5380  145.9210 N   0  0  0  0  0  0  0  0  0  0  0  0
  189.9710  177.1400  147.2820 S   0  0  0  0  0  0  0  0  0  0  0  0
  192.3870  176.3720  148.3260 N   0  0  0  0  0  1  0  0  0  0  0  0
  186.5690  178.3100  146.0730 C   0  0  0  0  0  2  0  0  0  0  0  0
  187.3130  177.3340  145.5550 C   0  0  0  0  0  3  0  0  0  0  0  0
  190.8730  175.8990  139.0570 C   0  0  0  0  0  2  0  0  0  0  0  0
  191.5330  175.7880  137.6790 C   0  0  0  0  0  2  0  0  0  0  0  0
  193.0240  175.8140  137.7810 C   0  0  0  0  0  0  0  0  0  0  0  0
  193.5970  176.8700  137.9940 O   0  0  0  0  0  0  0  0  0  0  0  0
  193.8010  174.5480  137.6640 C   0  0  0  0  0  2  0  0  0  0  0  0
  195.0860  174.6420  138.4740 C   0  0  0  0  0  2  0  0  0  0  0  0
  195.7590  174.2580  136.2710 C   0  0  0  0  0  1  0  0  0  0  0  0
  196.2240  174.7070  137.5730 N   0  0  0  0  0  2  0  0  0  0  0  0
  1 28  1  0  0  0  0
  2  1  1  0  0  0  0
  3  9  1  1  0  0  0
  3  6  1  0  0  0  0
  4  5  1  0  0  0  0
  4  3  1  0  0  0  0
  5  7  1  1  0  0  0
  5  8  1  0  0  0  0
  8  2  1  6  0  0  0
  8  6  1  0  0  0  0
  9 10  1  0  0  0  0
 11 10  1  0  0  0  0
 13 15  1  1  0  0  0
 13 14  1  0  0  0  0
 16 13  1  0  0  0  0
 16 17  1  0  0  0  0
 16 15  1  1  0  0  0
 17 11  1  6  0  0  0
 17 12  1  0  0  0  0
 18 14  1  0  0  0  0
 18 12  1  0  0  0  0
 18 19  1  0  0  0  0
 19 20  1  0  0  0  0
 22 23  1  0  0  0  0
 22 21  1  1  0  0  0
 23 27  1  1  0  0  0
 24 23  1  0  0  0  0
 25 22  1  0  0  0  0
 26 20  1  1  0  0  0
 26 25  1  0  0  0  0
 26 24  1  0  0  0  0
 29 28  1  6  0  0  0
 29 30  1  0  0  0  0
 30 34  1  0  0  0  0
 32 30  2  0  0  0  0
 32 31  1  0  0  0  0
 33 47  1  1  0  0  0
 33 29  1  0  0  0  0
 33 32  1  0  0  0  0
 34 35  1  6  0  0  0
 34 37  1  0  0  0  0
 36 37  2  0  0  0  0
 37 38  1  0  0  0  0
 38 46  1  1  0  0  0
 38 41  1  0  0  0  0
 39 41  2  0  0  0  0
 39 42  1  0  0  0  0
 40 43  1  0  0  0  0
 40 44  1  0  0  0  0
 41 43  1  0  0  0  0
 42 40  2  0  0  0  0
 46 45  2  0  0  0  0
 48 49  1  0  0  0  0
 48 47  1  0  0  0  0
 49 50  2  0  0  0  0
 51 49  1  0  0  0  0
 51 52  1  0  0  0  0
 53 54  1  0  0  0  0
 54 52  1  0  0  0  0
M  END
>  <MODEL>
5

>  <REMARK>
 VINA RESULT:      -6.6      3.379      9.641
  Name = 
  22 active torsions:
  status: ('A' for Active; 'I' for Inactive)
    1  A    between atoms: C_1  and  C_20
    2  A    between atoms: C_1  and  C_54
    3  A    between atoms: C_2  and  C_18
    4  A    between atoms: C_2  and  C_49
    5  A    between atoms: C_2  and  C_52
    6  A    between atoms: C_3  and  C_48
    7  A    between atoms: N_4  and  N_6
    8  A    between atoms: N_4  and  C_44
    9  A    between atoms: N_6  and  C_9
   10  A    between atoms: C_7  and  C_20
   11  A    between atoms: C_7  and  C_39
   12  A    between atoms: O_10  and  C_21
   13  A    between atoms: O_10  and  C_43
   14  A    between atoms: C_14  and  C_23
   15  A    between atoms: C_14  and  C_49
   16  A    between atoms: N_17  and  C_24
   17  A    between atoms: C_19  and  C_48
   18  A    between atoms: C_19  and  C_51
   19  A    between atoms: C_21  and  N_53
   20  A    between atoms: C_24  and  C_39
   21  A    between atoms: C_38  and  C_51
   22  A    between atoms: C_44  and  C_45
                            x       y       z     vdW  Elec       q    Type
                         _______ _______ _______ _____ _____    ______ ____

>  <TORSDO>
F 22

$$$$
=
 OpenBabel11062412103D

 54 59  0  0  1  0  0  0  0  0999 V2000
  187.4100  178.4330  142.7190 C   0  0  0  0  0  2  0  0  0  0  0  0
  187.4690  176.9930  143.2080 C   0  0  0  0  0  2  0  0  0  0  0  0
  190.3230  177.5760  141.5250 C   0  0  2  0  0  3  0  0  0  0  0  0
  190.9380  177.7370  142.9000 C   0  0  0  0  0  2  0  0  0  0  0  0
  189.8260  177.3870  143.8630 C   0  0  2  0  0  3  0  0  0  0  0  0
  189.3400  176.4320  141.6690 C   0  0  0  0  0  2  0  0  0  0  0  0
  190.3580  176.7480  144.9840 O   0  0  0  0  0  1  0  0  0  0  0  0
  188.8880  176.4500  143.1220 C   0  0  2  0  0  3  0  0  0  0  0  0
  191.3390  177.2380  140.5360 N   0  0  0  0  0  2  0  0  0  0  0  0
  190.7260  176.4380  139.5580 N   0  0  0  0  0  2  0  0  0  0  0  0
  190.5790  177.2460  138.3590 C   0  0  0  0  0  2  0  0  0  0  0  0
  192.2790  176.0680  136.9400 C   0  0  0  0  0  2  0  0  0  0  0  0
  190.4890  173.7520  137.0020 C   0  0  2  0  0  3  0  0  0  0  0  0
  191.9970  173.7710  136.7710 C   0  0  0  0  0  2  0  0  0  0  0  0
  189.7970  174.4520  135.8480 C   0  0  0  0  0  2  0  0  0  0  0  0
  189.8530  175.1450  137.1950 C   0  0  2  0  0  3  0  0  0  0  0  0
  190.7850  176.3750  137.1320 C   0  0  1  0  0  3  0  0  0  0  0  0
  192.6220  174.8090  137.5810 N   0  0  0  0  0  0  0  0  0  0  0  0
  194.0650  174.6570  137.4600 C   0  0  0  0  0  2  0  0  0  0  0  0
  194.5910  175.7050  136.6970 O   0  0  0  0  0  0  0  0  0  0  0  0
  197.9980  175.2420  137.5940 O   0  0  0  0  0  1  0  0  0  0  0  0
  197.8090  174.9770  136.2330 C   0  0  1  0  0  3  0  0  0  0  0  0
  197.1420  173.6290  136.0340 C   0  0  2  0  0  3  0  0  0  0  0  0
  195.7660  173.7910  136.2450 O   0  0  0  0  0  0  0  0  0  0  0  0
  196.7570  175.9030  135.7050 C   0  0  0  0  0  2  0  0  0  0  0  0
  195.4670  175.0930  135.7940 C   0  0  2  0  0  3  0  0  0  0  0  0
  197.7060  172.5460  136.9390 C   0  0  0  0  0  1  0  0  0  0  0  0
  186.1170  178.6970  141.9560 C   0  0  0  0  0  2  0  0  0  0  0  0
  184.9210  178.1190  142.7030 C   0  0  2  0  0  3  0  0  0  0  0  0
  183.6920  178.1630  141.8510 C   0  0  0  0  0  0  0  0  0  0  0  0
  181.8820  179.7450  142.7380 O   0  0  0  0  0  1  0  0  0  0  0  0
  183.1030  179.0810  142.7100 C   0  0  0  0  0  0  0  0  0  0  0  0
  184.3270  179.1020  143.5610 C   0  0  1  0  0  3  0  0  0  0  0  0
  183.2550  177.5070  140.5860 C   0  0  1  0  0  3  0  0  0  0  0  0
  181.8800  177.2440  140.6190 O   0  0  0  0  0  1  0  0  0  0  0  0
  183.6230  179.6760  139.4610 C   0  0  0  0  0  2  0  0  0  0  0  0
  183.6220  178.3360  139.3860 C   0  0  0  0  0  0  0  0  0  0  0  0
  183.7920  177.6220  138.0650 C   0  0  2  0  0  3  0  0  0  0  0  0
  186.2160  178.4520  138.0440 C   0  0  0  0  0  3  0  0  0  0  0  0
  187.1830  177.8570  136.1150 C   0  0  0  0  0  0  0  0  0  0  0  0
  185.1560  177.7810  137.4460 C   0  0  0  0  0  0  0  0  0  0  0  0
  187.3480  178.4880  137.2960 N   0  0  0  0  0  0  0  0  0  0  0  0
  185.6400  177.2270  135.9280 S   0  0  0  0  0  0  0  0  0  0  0  0
  188.2140  177.7450  135.1410 N   0  0  0  0  0  1  0  0  0  0  0  0
  182.0960  176.8910  136.4010 C   0  0  0  0  0  2  0  0  0  0  0  0
  182.6580  177.8730  137.1040 C   0  0  0  0  0  3  0  0  0  0  0  0
  184.0840  178.5960  144.9950 C   0  0  0  0  0  2  0  0  0  0  0  0
  185.2060  177.7420  145.5920 C   0  0  0  0  0  2  0  0  0  0  0  0
  186.0910  178.5470  146.4880 C   0  0  0  0  0  0  0  0  0  0  0  0
  185.6740  179.5830  146.9780 O   0  0  0  0  0  0  0  0  0  0  0  0
  187.4630  178.0610  146.8110 C   0  0  0  0  0  2  0  0  0  0  0  0
  187.6860  178.0810  148.3170 C   0  0  0  0  0  2  0  0  0  0  0  0
  189.8260  177.3600  147.7190 C   0  0  0  0  0  1  0  0  0  0  0  0
  189.1010  178.2650  148.5950 N   0  0  0  0  0  2  0  0  0  0  0  0
  1  2  1  0  0  0  0
  3  9  1  6  0  0  0
  3  6  1  0  0  0  0
  3  4  1  0  0  0  0
  4  5  1  0  0  0  0
  5  7  1  1  0  0  0
  6  8  1  0  0  0  0
  8  2  1  6  0  0  0
  8  5  1  0  0  0  0
 10  9  1  0  0  0  0
 11 10  1  0  0  0  0
 12 17  1  0  0  0  0
 12 18  1  0  0  0  0
 13 15  1  6  0  0  0
 13 16  1  0  0  0  0
 14 13  1  0  0  0  0
 14 18  1  0  0  0  0
 16 15  1  6  0  0  0
 17 16  1  0  0  0  0
 17 11  1  1  0  0  0
 19 18  1  0  0  0  0
 20 19  1  0  0  0  0
 22 21  1  1  0  0  0
 23 22  1  0  0  0  0
 23 24  1  0  0  0  0
 23 27  1  1  0  0  0
 25 26  1  0  0  0  0
 25 22  1  0  0  0  0
 26 24  1  0  0  0  0
 26 20  1  1  0  0  0
 28  1  1  0  0  0  0
 29 28  1  6  0  0  0
 29 33  1  0  0  0  0
 30 29  1  0  0  0  0
 30 32  2  0  0  0  0
 32 31  1  0  0  0  0
 32 33  1  0  0  0  0
 33 47  1  1  0  0  0
 34 35  1  1  0  0  0
 34 30  1  0  0  0  0
 37 36  2  0  0  0  0
 37 34  1  0  0  0  0
 38 46  1  6  0  0  0
 38 37  1  0  0  0  0
 40 42  2  0  0  0  0
 41 39  2  0  0  0  0
 41 38  1  0  0  0  0
 42 39  1  0  0  0  0
 43 40  1  0  0  0  0
 43 41  1  0  0  0  0
 44 40  1  0  0  0  0
 45 46  2  0  0  0  0
 47 48  1  0  0  0  0
 48 49  1  0  0  0  0
 49 51  1  0  0  0  0
 49 50  2  0  0  0  0
 51 52  1  0  0  0  0
 52 54  1  0  0  0  0
 53 54  1  0  0  0  0
M  END
>  <MODEL>
6

>  <REMARK>
 VINA RESULT:      -6.5      2.858      5.496
  Name = 
  22 active torsions:
  status: ('A' for Active; 'I' for Inactive)
    1  A    between atoms: C_1  and  C_20
    2  A    between atoms: C_1  and  C_54
    3  A    between atoms: C_2  and  C_18
    4  A    between atoms: C_2  and  C_49
    5  A    between atoms: C_2  and  C_52
    6  A    between atoms: C_3  and  C_48
    7  A    between atoms: N_4  and  N_6
    8  A    between atoms: N_4  and  C_44
    9  A    between atoms: N_6  and  C_9
   10  A    between atoms: C_7  and  C_20
   11  A    between atoms: C_7  and  C_39
   12  A    between atoms: O_10  and  C_21
   13  A    between atoms: O_10  and  C_43
   14  A    between atoms: C_14  and  C_23
   15  A    between atoms: C_14  and  C_49
   16  A    between atoms: N_17  and  C_24
   17  A    between atoms: C_19  and  C_48
   18  A    between atoms: C_19  and  C_51
   19  A    between atoms: C_21  and  N_53
   20  A    between atoms: C_24  and  C_39
   21  A    between atoms: C_38  and  C_51
   22  A    between atoms: C_44  and  C_45
                            x       y       z     vdW  Elec       q    Type
                         _______ _______ _______ _____ _____    ______ ____

>  <TORSDO>
F 22

$$$$
=
 OpenBabel11062412103D

 54 59  0  0  1  0  0  0  0  0999 V2000
  187.4780  178.6190  141.6960 C   0  0  0  0  0  2  0  0  0  0  0  0
  188.2930  178.2560  140.4630 C   0  0  0  0  0  2  0  0  0  0  0  0
  191.5690  177.5150  140.2770 C   0  0  2  0  0  3  0  0  0  0  0  0
  191.4440  177.2150  141.7570 C   0  0  0  0  0  2  0  0  0  0  0  0
  189.9700  177.3670  142.0570 C   0  0  2  0  0  3  0  0  0  0  0  0
  190.2850  176.9990  139.6640 C   0  0  0  0  0  2  0  0  0  0  0  0
  189.5900  176.4420  143.0300 O   0  0  0  0  0  1  0  0  0  0  0  0
  189.2310  177.0940  140.7580 C   0  0  2  0  0  3  0  0  0  0  0  0
  192.7120  176.8200  139.6990 N   0  0  0  0  0  2  0  0  0  0  0  0
  192.5670  176.8570  138.3030 N   0  0  0  0  0  2  0  0  0  0  0  0
  193.4790  175.8760  137.7400 C   0  0  0  0  0  2  0  0  0  0  0  0
  191.3790  175.1540  136.5730 C   0  0  0  0  0  2  0  0  0  0  0  0
  193.0770  173.4150  134.9410 C   0  0  2  0  0  3  0  0  0  0  0  0
  191.7060  173.9880  134.5940 C   0  0  0  0  0  2  0  0  0  0  0  0
  192.9360  172.4490  136.1010 C   0  0  0  0  0  2  0  0  0  0  0  0
  193.5930  173.7940  136.3450 C   0  0  2  0  0  3  0  0  0  0  0  0
  192.6900  174.6850  137.2260 C   0  0  1  0  0  3  0  0  0  0  0  0
  191.5630  175.3310  135.1420 N   0  0  0  0  0  0  0  0  0  0  0  0
  190.3220  175.8910  134.6270 C   0  0  0  0  0  2  0  0  0  0  0  0
  189.9510  177.0050  135.3870 O   0  0  0  0  0  0  0  0  0  0  0  0
  187.3690  175.4710  137.2850 O   0  0  0  0  0  1  0  0  0  0  0  0
  186.8450  176.0540  136.1260 C   0  0  1  0  0  3  0  0  0  0  0  0
  186.7630  177.5620  136.2710 C   0  0  2  0  0  3  0  0  0  0  0  0
  188.0360  178.0910  136.0220 O   0  0  0  0  0  0  0  0  0  0  0  0
  187.8510  175.9210  135.0250 C   0  0  0  0  0  2  0  0  0  0  0  0
  188.6130  177.2430  135.0550 C   0  0  2  0  0  3  0  0  0  0  0  0
  186.2490  178.0020  137.6330 C   0  0  0  0  0  1  0  0  0  0  0  0
  186.0530  179.0030  141.3140 C   0  0  0  0  0  2  0  0  0  0  0  0
  185.0420  178.2180  142.1420 C   0  0  2  0  0  3  0  0  0  0  0  0
  183.7330  178.1170  141.4240 C   0  0  0  0  0  0  0  0  0  0  0  0
  181.8230  179.3690  142.5870 O   0  0  0  0  0  1  0  0  0  0  0  0
  183.1160  178.8970  142.3940 C   0  0  0  0  0  0  0  0  0  0  0  0
  184.4100  179.0620  143.1150 C   0  0  1  0  0  3  0  0  0  0  0  0
  183.2600  177.4620  140.1720 C   0  0  1  0  0  3  0  0  0  0  0  0
  182.1990  176.5890  140.4460 O   0  0  0  0  0  1  0  0  0  0  0  0
  183.3980  179.7140  139.1640 C   0  0  0  0  0  2  0  0  0  0  0  0
  182.8720  178.4790  139.1360 C   0  0  0  0  0  0  0  0  0  0  0  0
  181.7390  178.1300  138.1980 C   0  0  2  0  0  3  0  0  0  0  0  0
  183.0340  177.3950  136.1130 C   0  0  0  0  0  3  0  0  0  0  0  0
  182.4020  175.3230  135.5460 C   0  0  0  0  0  0  0  0  0  0  0  0
  182.1080  177.1450  137.1200 C   0  0  0  0  0  0  0  0  0  0  0  0
  183.1960  176.3700  135.2380 N   0  0  0  0  0  0  0  0  0  0  0  0
  181.4590  175.6030  136.9040 S   0  0  0  0  0  0  0  0  0  0  0  0
  182.3760  174.1170  134.7900 N   0  0  0  0  0  1  0  0  0  0  0  0
  179.8940  179.2320  136.9490 C   0  0  0  0  0  2  0  0  0  0  0  0
  180.9980  179.3390  137.6860 C   0  0  0  0  0  3  0  0  0  0  0  0
  184.4020  178.4590  144.5320 C   0  0  0  0  0  2  0  0  0  0  0  0
  185.5650  178.8790  145.4350 C   0  0  0  0  0  2  0  0  0  0  0  0
  186.4870  177.7350  145.7100 C   0  0  0  0  0  0  0  0  0  0  0  0
  186.8940  177.0500  144.7860 O   0  0  0  0  0  0  0  0  0  0  0  0
  186.9380  177.4600  147.1040 C   0  0  0  0  0  2  0  0  0  0  0  0
  188.3500  177.9900  147.3130 C   0  0  0  0  0  2  0  0  0  0  0  0
  190.2910  177.1460  146.3280 C   0  0  0  0  0  1  0  0  0  0  0  0
  189.2860  176.8790  147.3430 N   0  0  0  0  0  2  0  0  0  0  0  0
  2  1  1  0  0  0  0
  3  9  1  6  0  0  0
  3  4  1  0  0  0  0
  4  5  1  0  0  0  0
  5  7  1  1  0  0  0
  6  3  1  0  0  0  0
  6  8  1  0  0  0  0
  8  2  1  6  0  0  0
  8  5  1  0  0  0  0
 10  9  1  0  0  0  0
 11 10  1  0  0  0  0
 12 17  1  0  0  0  0
 13 14  1  1  0  0  0
 13 15  1  0  0  0  0
 13 16  1  0  0  0  0
 14 18  1  0  0  0  0
 16 15  1  1  0  0  0
 16 17  1  0  0  0  0
 17 11  1  6  0  0  0
 18 12  1  0  0  0  0
 19 18  1  0  0  0  0
 19 20  1  0  0  0  0
 22 23  1  0  0  0  0
 22 21  1  1  0  0  0
 23 27  1  1  0  0  0
 24 23  1  0  0  0  0
 25 26  1  0  0  0  0
 25 22  1  0  0  0  0
 26 20  1  1  0  0  0
 26 24  1  0  0  0  0
 28  1  1  0  0  0  0
 29 28  1  6  0  0  0
 29 33  1  0  0  0  0
 30 29  1  0  0  0  0
 30 32  2  0  0  0  0
 32 31  1  0  0  0  0
 32 33  1  0  0  0  0
 33 47  1  1  0  0  0
 34 35  1  1  0  0  0
 34 30  1  0  0  0  0
 37 36  2  0  0  0  0
 37 34  1  0  0  0  0
 38 46  1  6  0  0  0
 38 37  1  0  0  0  0
 39 41  2  0  0  0  0
 40 43  1  0  0  0  0
 41 38  1  0  0  0  0
 42 40  2  0  0  0  0
 42 39  1  0  0  0  0
 43 41  1  0  0  0  0
 44 40  1  0  0  0  0
 45 46  2  0  0  0  0
 47 48  1  0  0  0  0
 48 49  1  0  0  0  0
 49 51  1  0  0  0  0
 50 49  2  0  0  0  0
 51 52  1  0  0  0  0
 52 54  1  0  0  0  0
 53 54  1  0  0  0  0
M  END
>  <MODEL>
7

>  <REMARK>
 VINA RESULT:      -6.4      2.348      4.530
  Name = 
  22 active torsions:
  status: ('A' for Active; 'I' for Inactive)
    1  A    between atoms: C_1  and  C_20
    2  A    between atoms: C_1  and  C_54
    3  A    between atoms: C_2  and  C_18
    4  A    between atoms: C_2  and  C_49
    5  A    between atoms: C_2  and  C_52
    6  A    between atoms: C_3  and  C_48
    7  A    between atoms: N_4  and  N_6
    8  A    between atoms: N_4  and  C_44
    9  A    between atoms: N_6  and  C_9
   10  A    between atoms: C_7  and  C_20
   11  A    between atoms: C_7  and  C_39
   12  A    between atoms: O_10  and  C_21
   13  A    between atoms: O_10  and  C_43
   14  A    between atoms: C_14  and  C_23
   15  A    between atoms: C_14  and  C_49
   16  A    between atoms: N_17  and  C_24
   17  A    between atoms: C_19  and  C_48
   18  A    between atoms: C_19  and  C_51
   19  A    between atoms: C_21  and  N_53
   20  A    between atoms: C_24  and  C_39
   21  A    between atoms: C_38  and  C_51
   22  A    between atoms: C_44  and  C_45
                            x       y       z     vdW  Elec       q    Type
                         _______ _______ _______ _____ _____    ______ ____

>  <TORSDO>
F 22

$$$$
=
 OpenBabel11062412103D

 54 59  0  0  1  0  0  0  0  0999 V2000
  188.1490  178.3330  141.8400 C   0  0  0  0  0  2  0  0  0  0  0  0
  189.1410  177.2360  141.4810 C   0  0  0  0  0  2  0  0  0  0  0  0
  189.1520  178.7730  138.4890 C   0  0  2  0  0  3  0  0  0  0  0  0
  190.3230  177.8630  138.1800 C   0  0  0  0  0  2  0  0  0  0  0  0
  190.4330  176.9560  139.3840 C   0  0  2  0  0  3  0  0  0  0  0  0
  188.1900  177.9170  139.2860 C   0  0  0  0  0  2  0  0  0  0  0  0
  190.8460  175.6860  138.9810 O   0  0  0  0  0  1  0  0  0  0  0  0
  189.0470  176.8840  140.0030 C   0  0  2  0  0  3  0  0  0  0  0  0
  188.5100  179.2320  137.2630 N   0  0  0  0  0  2  0  0  0  0  0  0
  187.4460  178.3580  136.9900 N   0  0  0  0  0  2  0  0  0  0  0  0
  187.4610  178.0800  135.5640 C   0  0  0  0  0  2  0  0  0  0  0  0
  188.7530  176.0530  134.8460 C   0  0  0  0  0  2  0  0  0  0  0  0
  187.6240  174.7040  137.1860 C   0  0  2  0  0  3  0  0  0  0  0  0
  188.9140  174.3750  136.4400 C   0  0  0  0  0  2  0  0  0  0  0  0
  186.4400  174.4500  136.2750 C   0  0  0  0  0  2  0  0  0  0  0  0
  186.8230  175.8810  136.5930 C   0  0  2  0  0  3  0  0  0  0  0  0
  187.3950  176.5790  135.3380 C   0  0  1  0  0  3  0  0  0  0  0  0
  189.5550  175.5960  135.9690 N   0  0  0  0  0  0  0  0  0  0  0  0
  190.8590  175.2350  135.4330 C   0  0  0  0  0  2  0  0  0  0  0  0
  191.3860  174.1560  136.1500 O   0  0  0  0  0  0  0  0  0  0  0  0
  193.8100  176.2190  137.7300 O   0  0  0  0  0  1  0  0  0  0  0  0
  194.3540  175.6030  136.5970 C   0  0  1  0  0  3  0  0  0  0  0  0
  194.6620  174.1430  136.8740 C   0  0  2  0  0  3  0  0  0  0  0  0
  193.4680  173.4190  136.7560 O   0  0  0  0  0  0  0  0  0  0  0  0
  193.2840  175.4820  135.5560 C   0  0  0  0  0  2  0  0  0  0  0  0
  192.7260  174.0770  135.7550 C   0  0  2  0  0  3  0  0  0  0  0  0
  195.3030  173.9170  138.2340 C   0  0  0  0  0  1  0  0  0  0  0  0
  186.9270  177.7540  142.5430 C   0  0  0  0  0  2  0  0  0  0  0  0
  185.8440  178.8150  142.7040 C   0  0  2  0  0  3  0  0  0  0  0  0
  185.2470  178.7580  144.0750 C   0  0  0  0  0  0  0  0  0  0  0  0
  182.7860  178.0450  144.0960 O   0  0  0  0  0  1  0  0  0  0  0  0
  184.0250  178.3590  143.5500 C   0  0  0  0  0  0  0  0  0  0  0  0
  184.5940  178.3570  142.1720 C   0  0  1  0  0  3  0  0  0  0  0  0
  185.7430  179.0120  145.4580 C   0  0  1  0  0  3  0  0  0  0  0  0
  184.6770  179.0200  146.3670 O   0  0  0  0  0  1  0  0  0  0  0  0
  186.5750  176.6950  145.6750 C   0  0  0  0  0  2  0  0  0  0  0  0
  186.7890  178.0080  145.8560 C   0  0  0  0  0  0  0  0  0  0  0  0
  187.9830  178.5100  146.6340 C   0  0  2  0  0  3  0  0  0  0  0  0
  189.9400  177.8860  145.1020 C   0  0  0  0  0  3  0  0  0  0  0  0
  191.2990  176.4710  146.1810 C   0  0  0  0  0  0  0  0  0  0  0  0
  189.2720  177.7980  146.3180 C   0  0  0  0  0  0  0  0  0  0  0  0
  191.0740  177.1440  145.0330 N   0  0  0  0  0  0  0  0  0  0  0  0
  190.1150  176.7490  147.3360 S   0  0  0  0  0  0  0  0  0  0  0  0
  192.4210  175.6190  146.3780 N   0  0  0  0  0  1  0  0  0  0  0  0
  187.5440  177.5900  148.9010 C   0  0  0  0  0  2  0  0  0  0  0  0
  187.7140  178.6490  148.1110 C   0  0  0  0  0  3  0  0  0  0  0  0
  183.9210  179.3740  141.2310 C   0  0  0  0  0  2  0  0  0  0  0  0
  184.0220  179.0580  139.7370 C   0  0  0  0  0  2  0  0  0  0  0  0
  183.0200  179.8320  138.9420 C   0  0  0  0  0  0  0  0  0  0  0  0
  183.1960  181.0230  138.7430 O   0  0  0  0  0  0  0  0  0  0  0  0
  181.8340  179.1400  138.3630 C   0  0  0  0  0  2  0  0  0  0  0  0
  181.6640  177.7680  138.9990 C   0  0  0  0  0  2  0  0  0  0  0  0
  182.1290  175.4860  138.8260 C   0  0  0  0  0  1  0  0  0  0  0  0
  182.4250  176.7850  138.2460 N   0  0  0  0  0  2  0  0  0  0  0  0
  1 28  1  0  0  0  0
  2  1  1  0  0  0  0
  3  9  1  6  0  0  0
  3  6  1  0  0  0  0
  4  3  1  0  0  0  0
  4  5  1  0  0  0  0
  5  7  1  6  0  0  0
  5  8  1  0  0  0  0
  6  8  1  0  0  0  0
  8  2  1  1  0  0  0
 10  9  1  0  0  0  0
 11 10  1  0  0  0  0
 12 17  1  0  0  0  0
 12 18  1  0  0  0  0
 13 15  1  6  0  0  0
 14 13  1  0  0  0  0
 16 15  1  6  0  0  0
 16 13  1  0  0  0  0
 17 11  1  1  0  0  0
 17 16  1  0  0  0  0
 18 14  1  0  0  0  0
 19 18  1  0  0  0  0
 19 20  1  0  0  0  0
 22 23  1  0  0  0  0
 22 21  1  1  0  0  0
 23 27  1  1  0  0  0
 24 23  1  0  0  0  0
 25 26  1  0  0  0  0
 25 22  1  0  0  0  0
 26 20  1  1  0  0  0
 26 24  1  0  0  0  0
 29 28  1  1  0  0  0
 29 30  1  0  0  0  0
 30 34  1  0  0  0  0
 32 30  2  0  0  0  0
 32 31  1  0  0  0  0
 33 47  1  6  0  0  0
 33 29  1  0  0  0  0
 33 32  1  0  0  0  0
 34 37  1  0  0  0  0
 34 35  1  1  0  0  0
 36 37  2  0  0  0  0
 37 38  1  0  0  0  0
 38 46  1  1  0  0  0
 39 41  2  0  0  0  0
 40 44  1  0  0  0  0
 40 43  1  0  0  0  0
 41 38  1  0  0  0  0
 41 43  1  0  0  0  0
 42 39  1  0  0  0  0
 42 40  2  0  0  0  0
 46 45  2  0  0  0  0
 48 47  1  0  0  0  0
 49 48  1  0  0  0  0
 50 49  2  0  0  0  0
 51 49  1  0  0  0  0
 51 52  1  0  0  0  0
 54 53  1  0  0  0  0
 54 52  1  0  0  0  0
M  END
>  <MODEL>
8

>  <REMARK>
 VINA RESULT:      -6.2      3.171      7.934
  Name = 
  22 active torsions:
  status: ('A' for Active; 'I' for Inactive)
    1  A    between atoms: C_1  and  C_20
    2  A    between atoms: C_1  and  C_54
    3  A    between atoms: C_2  and  C_18
    4  A    between atoms: C_2  and  C_49
    5  A    between atoms: C_2  and  C_52
    6  A    between atoms: C_3  and  C_48
    7  A    between atoms: N_4  and  N_6
    8  A    between atoms: N_4  and  C_44
    9  A    between atoms: N_6  and  C_9
   10  A    between atoms: C_7  and  C_20
   11  A    between atoms: C_7  and  C_39
   12  A    between atoms: O_10  and  C_21
   13  A    between atoms: O_10  and  C_43
   14  A    between atoms: C_14  and  C_23
   15  A    between atoms: C_14  and  C_49
   16  A    between atoms: N_17  and  C_24
   17  A    between atoms: C_19  and  C_48
   18  A    between atoms: C_19  and  C_51
   19  A    between atoms: C_21  and  N_53
   20  A    between atoms: C_24  and  C_39
   21  A    between atoms: C_38  and  C_51
   22  A    between atoms: C_44  and  C_45
                            x       y       z     vdW  Elec       q    Type
                         _______ _______ _______ _____ _____    ______ ____

>  <TORSDO>
F 22

$$$$
=
 OpenBabel11062412103D

 54 59  0  0  1  0  0  0  0  0999 V2000
  187.3850  179.0100  141.3530 C   0  0  0  0  0  2  0  0  0  0  0  0
  187.9630  177.6060  141.4560 C   0  0  0  0  0  2  0  0  0  0  0  0
  189.0560  178.8860  138.5440 C   0  0  2  0  0  3  0  0  0  0  0  0
  190.2970  178.0570  138.8050 C   0  0  0  0  0  2  0  0  0  0  0  0
  189.9760  177.2650  140.0520 C   0  0  2  0  0  3  0  0  0  0  0  0
  187.9030  178.0190  139.0050 C   0  0  0  0  0  2  0  0  0  0  0  0
  190.5720  176.0060  139.9780 O   0  0  0  0  0  1  0  0  0  0  0  0
  188.4640  177.1260  140.1020 C   0  0  2  0  0  3  0  0  0  0  0  0
  188.9180  179.1850  137.1240 N   0  0  0  0  0  2  0  0  0  0  0  0
  188.2240  178.1170  136.5340 N   0  0  0  0  0  2  0  0  0  0  0  0
  188.8780  177.8130  135.2720 C   0  0  0  0  0  2  0  0  0  0  0  0
  190.5930  176.0180  134.9100 C   0  0  0  0  0  2  0  0  0  0  0  0
  189.3810  174.6260  137.1820 C   0  0  2  0  0  3  0  0  0  0  0  0
  190.8040  174.4950  136.6470 C   0  0  0  0  0  2  0  0  0  0  0  0
  188.4060  174.1050  136.1440 C   0  0  0  0  0  2  0  0  0  0  0  0
  188.4850  175.5990  136.3880 C   0  0  2  0  0  3  0  0  0  0  0  0
  189.1070  176.3150  135.1680 C   0  0  1  0  0  3  0  0  0  0  0  0
  191.2870  175.7830  136.1650 N   0  0  0  0  0  0  0  0  0  0  0  0
  192.6980  175.6360  135.8420 C   0  0  0  0  0  2  0  0  0  0  0  0
  193.2580  174.6110  136.6110 O   0  0  0  0  0  0  0  0  0  0  0  0
  195.3250  172.6290  138.7160 O   0  0  0  0  0  1  0  0  0  0  0  0
  195.8340  173.9290  138.6110 C   0  0  1  0  0  3  0  0  0  0  0  0
  196.5130  174.1350  137.2710 C   0  0  2  0  0  3  0  0  0  0  0  0
  195.5190  174.3940  136.3170 O   0  0  0  0  0  0  0  0  0  0  0  0
  194.6870  174.8860  138.5080 C   0  0  0  0  0  2  0  0  0  0  0  0
  194.5100  175.0950  137.0070 C   0  0  2  0  0  3  0  0  0  0  0  0
  197.3740  172.9540  136.8510 C   0  0  0  0  0  1  0  0  0  0  0  0
  185.8620  178.9740  141.3480 C   0  0  0  0  0  2  0  0  0  0  0  0
  185.3380  178.0860  142.4700 C   0  0  2  0  0  3  0  0  0  0  0  0
  183.8950  178.3710  142.7430 C   0  0  0  0  0  0  0  0  0  0  0  0
  183.4670  179.3910  145.0540 O   0  0  0  0  0  1  0  0  0  0  0  0
  184.2080  178.8620  144.0040 C   0  0  0  0  0  0  0  0  0  0  0  0
  185.6600  178.6380  143.7540 C   0  0  1  0  0  3  0  0  0  0  0  0
  182.6220  178.2120  141.9840 C   0  0  1  0  0  3  0  0  0  0  0  0
  181.6840  179.1680  142.3940 O   0  0  0  0  0  1  0  0  0  0  0  0
  183.1360  179.4570  139.9120 C   0  0  0  0  0  2  0  0  0  0  0  0
  182.8570  178.2830  140.5010 C   0  0  0  0  0  0  0  0  0  0  0  0
  182.5800  177.0410  139.6860 C   0  0  2  0  0  3  0  0  0  0  0  0
  182.2090  177.3810  137.1740 C   0  0  0  0  0  3  0  0  0  0  0  0
  184.1580  177.1340  136.1010 C   0  0  0  0  0  0  0  0  0  0  0  0
  183.0430  177.1220  138.2550 C   0  0  0  0  0  0  0  0  0  0  0  0
  182.8400  177.3890  135.9720 N   0  0  0  0  0  0  0  0  0  0  0  0
  184.6160  176.8810  137.6940 S   0  0  0  0  0  0  0  0  0  0  0  0
  185.0540  177.0850  134.9960 N   0  0  0  0  0  1  0  0  0  0  0  0
  180.8670  175.2400  139.7520 C   0  0  0  0  0  2  0  0  0  0  0  0
  181.1680  176.5350  139.8370 C   0  0  0  0  0  3  0  0  0  0  0  0
  186.2950  177.6160  144.7170 C   0  0  0  0  0  2  0  0  0  0  0  0
  187.4320  178.1520  145.5910 C   0  0  0  0  0  2  0  0  0  0  0  0
  188.5820  177.1990  145.6410 C   0  0  0  0  0  0  0  0  0  0  0  0
  188.9550  176.7550  146.7140 O   0  0  0  0  0  0  0  0  0  0  0  0
  189.2420  176.7620  144.3770 C   0  0  0  0  0  2  0  0  0  0  0  0
  190.6380  177.3620  144.2780 C   0  0  0  0  0  2  0  0  0  0  0  0
  191.4260  179.5600  144.3270 C   0  0  0  0  0  1  0  0  0  0  0  0
  190.5680  178.6430  143.5960 N   0  0  0  0  0  2  0  0  0  0  0  0
  1  2  1  0  0  0  0
  3  9  1  6  0  0  0
  3  4  1  0  0  0  0
  3  6  1  0  0  0  0
  4  5  1  0  0  0  0
  5  7  1  6  0  0  0
  5  8  1  0  0  0  0
  6  8  1  0  0  0  0
  8  2  1  1  0  0  0
 10  9  1  0  0  0  0
 11 10  1  0  0  0  0
 12 17  1  0  0  0  0
 12 18  1  0  0  0  0
 13 15  1  6  0  0  0
 14 13  1  0  0  0  0
 16 15  1  6  0  0  0
 16 13  1  0  0  0  0
 17 11  1  1  0  0  0
 17 16  1  0  0  0  0
 18 14  1  0  0  0  0
 19 18  1  0  0  0  0
 19 20  1  0  0  0  0
 22 21  1  6  0  0  0
 23 27  1  6  0  0  0
 23 22  1  0  0  0  0
 24 26  1  0  0  0  0
 24 23  1  0  0  0  0
 25 22  1  0  0  0  0
 26 20  1  6  0  0  0
 26 25  1  0  0  0  0
 28  1  1  0  0  0  0
 29 28  1  6  0  0  0
 29 30  1  0  0  0  0
 29 33  1  0  0  0  0
 30 32  2  0  0  0  0
 32 31  1  0  0  0  0
 33 32  1  0  0  0  0
 33 47  1  1  0  0  0
 34 35  1  1  0  0  0
 34 30  1  0  0  0  0
 36 37  2  0  0  0  0
 37 34  1  0  0  0  0
 38 46  1  6  0  0  0
 38 37  1  0  0  0  0
 39 41  2  0  0  0  0
 40 43  1  0  0  0  0
 41 38  1  0  0  0  0
 42 40  2  0  0  0  0
 42 39  1  0  0  0  0
 43 41  1  0  0  0  0
 44 40  1  0  0  0  0
 45 46  2  0  0  0  0
 47 48  1  0  0  0  0
 48 49  1  0  0  0  0
 49 50  2  0  0  0  0
 51 49  1  0  0  0  0
 52 51  1  0  0  0  0
 54 52  1  0  0  0  0
 54 53  1  0  0  0  0
M  END
>  <MODEL>
9

>  <REMARK>
 VINA RESULT:      -6.2      2.724      4.720
  Name = 
  22 active torsions:
  status: ('A' for Active; 'I' for Inactive)
    1  A    between atoms: C_1  and  C_20
    2  A    between atoms: C_1  and  C_54
    3  A    between atoms: C_2  and  C_18
    4  A    between atoms: C_2  and  C_49
    5  A    between atoms: C_2  and  C_52
    6  A    between atoms: C_3  and  C_48
    7  A    between atoms: N_4  and  N_6
    8  A    between atoms: N_4  and  C_44
    9  A    between atoms: N_6  and  C_9
   10  A    between atoms: C_7  and  C_20
   11  A    between atoms: C_7  and  C_39
   12  A    between atoms: O_10  and  C_21
   13  A    between atoms: O_10  and  C_43
   14  A    between atoms: C_14  and  C_23
   15  A    between atoms: C_14  and  C_49
   16  A    between atoms: N_17  and  C_24
   17  A    between atoms: C_19  and  C_48
   18  A    between atoms: C_19  and  C_51
   19  A    between atoms: C_21  and  N_53
   20  A    between atoms: C_24  and  C_39
   21  A    between atoms: C_38  and  C_51
   22  A    between atoms: C_44  and  C_45
                            x       y       z     vdW  Elec       q    Type
                         _______ _______ _______ _____ _____    ______ ____

>  <TORSDO>
F 22

$$$$
