=
 OpenBabel11062415503D

 44 48  0  0  1  0  0  0  0  0999 V2000
  187.8680  178.2520  144.7780 C   0  0  2  0  0  3  0  0  0  0  0  0
  189.2110  176.4030  142.4170 C   0  0  0  0  0  2  0  0  0  0  0  0
  188.1710  178.5020  141.5210 C   0  0  0  0  0  2  0  0  0  0  0  0
  186.9250  178.2650  142.3690 C   0  0  0  0  0  2  0  0  0  0  0  0
  187.2390  177.4420  143.6270 C   0  0  1  0  0  3  0  0  0  0  0  0
  187.9900  176.1480  143.2990 C   0  0  0  0  0  2  0  0  0  0  0  0
  188.8210  177.1730  141.1510 C   0  0  1  0  0  3  0  0  0  0  0  0
  189.5990  177.8680  138.9040 C   0  0  0  0  0  0  0  0  0  0  0  0
  190.0480  176.9490  137.9600 N   0  0  0  0  0  0  0  0  0  0  0  0
  190.0190  177.4180  140.2250 C   0  0  2  0  0  3  0  0  0  0  0  0
  190.7590  176.1680  139.9640 N   0  0  0  0  0  0  0  0  0  0  0  0
  188.9540  178.9170  138.6380 O   0  0  0  0  0  0  0  0  0  0  0  0
  189.8030  177.0220  136.5310 C   0  0  0  0  0  1  0  0  0  0  0  0
  190.7440  175.8960  138.5650 N   0  0  0  0  0  0  0  0  0  0  0  0
  188.8560  177.3780  145.5780 C   0  0  1  0  0  3  0  0  0  0  0  0
  191.2820  176.6040  145.0190 C   0  0  2  0  0  3  0  0  0  0  0  0
  190.3200  177.7350  145.2920 C   0  0  2  0  0  0  0  0  0  0  0  0
  191.5880  175.9410  146.2220 O   0  0  0  0  0  0  0  0  0  0  0  0
  191.3430  177.3240  146.3220 C   0  0  1  0  0  3  0  0  0  0  0  0
  190.6310  178.9760  144.6020 N   0  0  0  0  0  1  0  0  0  0  0  0
  188.5940  177.4300  147.0520 C   0  0  0  0  0  0  0  0  0  0  0  0
  188.8230  178.6090  147.7480 O   0  0  0  0  0  1  0  0  0  0  0  0
  188.1570  176.4180  147.6620 O   0  0  0  0  0  0  0  0  0  0  0  0
  186.8620  178.7730  145.6130 O   0  0  0  0  0  0  0  0  0  0  0  0
  185.6460  178.2260  145.1780 C   0  0  1  0  0  3  0  0  0  0  0  0
  184.8340  177.7200  146.3570 C   0  0  0  0  0  1  0  0  0  0  0  0
  184.8380  179.3080  144.4820 C   0  0  0  0  0  2  0  0  0  0  0  0
  183.3480  179.0740  144.6620 C   0  0  0  0  0  2  0  0  0  0  0  0
  182.7090  178.5720  143.3640 C   0  0  2  0  0  3  0  0  0  0  0  0
  183.5110  178.9820  142.1280 C   0  0  0  0  0  2  0  0  0  0  0  0
  182.9400  178.4320  140.8300 C   0  0  2  0  0  3  0  0  0  0  0  0
  183.4300  177.1440  140.6110 O   0  0  0  0  0  1  0  0  0  0  0  0
  183.3500  179.3370  139.6810 C   0  0  0  0  0  2  0  0  0  0  0  0
  185.6150  178.9160  138.8910 N   0  0  0  0  0  1  0  0  0  0  0  0
  184.2150  178.5860  138.6830 C   0  0  0  0  0  2  0  0  0  0  0  0
  181.2140  178.8990  143.2400 C   0  0  1  0  0  3  0  0  0  0  0  0
  179.8800  177.5480  144.3830 C   0  0  0  0  0  1  0  0  0  0  0  0
  180.5880  178.7470  144.4810 O   0  0  0  0  0  0  0  0  0  0  0  0
  181.0120  180.2570  142.7460 N   0  0  0  0  0  2  0  0  0  0  0  0
  179.7460  180.2970  142.0300 C   0  0  1  0  0  3  0  0  0  0  0  0
  179.7080  180.6430  139.7730 N   0  0  0  0  0  0  0  0  0  0  0  0
  179.8210  181.2640  140.9920 O   0  0  0  0  0  0  0  0  0  0  0  0
  179.5650  179.3950  139.9400 N   0  0  0  0  0  0  0  0  0  0  0  0
  179.5760  179.1010  141.2810 O   0  0  0  0  0  0  0  0  0  0  0  0
  1 15  1  0  0  0  0
  1 24  1  1  0  0  0
  2  6  1  0  0  0  0
  3  4  1  0  0  0  0
  4  5  1  0  0  0  0
  5  1  1  1  0  0  0
  6  5  1  0  0  0  0
  7  3  1  1  0  0  0
  7  2  1  0  0  0  0
  9 14  1  0  0  0  0
  9  8  1  0  0  0  0
 10  8  1  6  0  0  0
 10  7  1  0  0  0  0
 11 10  1  0  0  0  0
 12  8  2  0  0  0  0
 13  9  1  0  0  0  0
 14 11  2  0  0  0  0
 15 21  1  1  0  0  0
 16 17  1  0  0  0  0
 16 18  1  1  0  0  0
 16 19  1  0  0  0  0
 17 20  1  6  0  0  0
 17 15  1  0  0  0  0
 17 19  1  0  0  0  0
 19 18  1  1  0  0  0
 21 23  2  0  0  0  0
 21 22  1  0  0  0  0
 25 24  1  0  0  0  0
 25 26  1  1  0  0  0
 27 28  1  0  0  0  0
 27 25  1  0  0  0  0
 29 30  1  6  0  0  0
 29 28  1  0  0  0  0
 31 32  1  6  0  0  0
 31 30  1  0  0  0  0
 33 31  1  0  0  0  0
 35 34  1  0  0  0  0
 35 33  1  0  0  0  0
 36 39  1  1  0  0  0
 36 29  1  0  0  0  0
 36 38  1  0  0  0  0
 37 38  1  0  0  0  0
 40 39  1  6  0  0  0
 41 43  2  0  0  0  0
 41 42  1  0  0  0  0
 42 40  1  0  0  0  0
 43 44  1  0  0  0  0
 44 40  1  0  0  0  0
M  END
>  <MODEL>
1

>  <REMARK>
 VINA RESULT:      -7.0      0.000      0.000
  Name = 
  18 active torsions:
  status: ('A' for Active; 'I' for Inactive)
    1  A    between atoms: C_2  and  C_27
    2  A    between atoms: C_3  and  N_16
    3  A    between atoms: C_4  and  O_7
    4  A    between atoms: C_4  and  C_27
    5  A    between atoms: C_4  and  C_28
    6  A    between atoms: C_5  and  C_26
    7  A    between atoms: C_5  and  C_35
    8  A    between atoms: O_7  and  C_25
    9  A    between atoms: C_12  and  C_42
   10  A    between atoms: C_14  and  C_25
   11  A    between atoms: C_14  and  C_38
   12  A    between atoms: N_16  and  C_19
   13  A    between atoms: C_19  and  C_32
   14  A    between atoms: C_19  and  O_44
   15  A    between atoms: C_21  and  C_27
   16  A    between atoms: C_23  and  C_26
   17  A    between atoms: C_32  and  C_35
   18  A    between atoms: C_32  and  C_38
                            x       y       z     vdW  Elec       q    Type
                         _______ _______ _______ _____ _____    ______ ____

>  <TORSDO>
F 18

$$$$
=
 OpenBabel11062415503D

 44 48  0  0  1  0  0  0  0  0999 V2000
  189.3860  177.3220  143.8260 C   0  0  2  0  0  3  0  0  0  0  0  0
  186.1770  177.3030  143.1240 C   0  0  0  0  0  2  0  0  0  0  0  0
  186.7140  178.7060  145.1320 C   0  0  0  0  0  2  0  0  0  0  0  0
  187.6080  177.5990  145.6840 C   0  0  0  0  0  2  0  0  0  0  0  0
  188.1780  176.7150  144.5650 C   0  0  1  0  0  3  0  0  0  0  0  0
  187.0840  176.1860  143.6330 C   0  0  0  0  0  2  0  0  0  0  0  0
  185.5920  178.1090  144.2890 C   0  0  1  0  0  3  0  0  0  0  0  0
  183.3470  179.1390  144.4640 C   0  0  0  0  0  0  0  0  0  0  0  0
  182.3730  178.9630  143.4840 N   0  0  0  0  0  0  0  0  0  0  0  0
  184.6490  179.2200  143.8150 C   0  0  2  0  0  3  0  0  0  0  0  0
  184.3450  179.0880  142.3760 N   0  0  0  0  0  0  0  0  0  0  0  0
  183.1160  179.2300  145.6990 O   0  0  0  0  0  0  0  0  0  0  0  0
  180.9520  178.8030  143.7280 C   0  0  0  0  0  1  0  0  0  0  0  0
  182.9410  178.9130  142.2060 N   0  0  0  0  0  0  0  0  0  0  0  0
  190.4250  177.8570  144.8360 C   0  0  1  0  0  3  0  0  0  0  0  0
  190.6520  176.1920  146.8290 C   0  0  2  0  0  3  0  0  0  0  0  0
  191.2000  176.7300  145.5310 C   0  0  2  0  0  0  0  0  0  0  0  0
  190.8920  177.1150  147.8650 O   0  0  0  0  0  0  0  0  0  0  0  0
  191.8620  177.0610  146.8460 C   0  0  1  0  0  3  0  0  0  0  0  0
  191.9210  175.7580  144.7270 N   0  0  0  0  0  1  0  0  0  0  0  0
  191.3790  178.8260  144.2090 C   0  0  0  0  0  0  0  0  0  0  0  0
  191.2040  180.1880  144.4080 O   0  0  0  0  0  1  0  0  0  0  0  0
  192.3460  178.4150  143.5130 O   0  0  0  0  0  0  0  0  0  0  0  0
  188.9620  178.3400  142.9510 O   0  0  0  0  0  0  0  0  0  0  0  0
  189.4510  178.0130  141.6770 C   0  0  1  0  0  3  0  0  0  0  0  0
  190.0120  176.6020  141.6660 C   0  0  0  0  0  1  0  0  0  0  0  0
  188.3080  178.0710  140.6790 C   0  0  0  0  0  2  0  0  0  0  0  0
  188.8070  178.4900  139.3070 C   0  0  0  0  0  2  0  0  0  0  0  0
  188.1680  177.6400  138.2050 C   0  0  2  0  0  3  0  0  0  0  0  0
  189.2050  177.0890  137.2250 C   0  0  0  0  0  2  0  0  0  0  0  0
  189.4260  175.5900  137.3620 C   0  0  2  0  0  3  0  0  0  0  0  0
  190.3850  175.3450  138.3460 O   0  0  0  0  0  1  0  0  0  0  0  0
  189.9030  175.0330  136.0330 C   0  0  0  0  0  2  0  0  0  0  0  0
  192.2250  175.7120  135.7490 N   0  0  0  0  0  1  0  0  0  0  0  0
  190.8570  176.0000  135.3520 C   0  0  0  0  0  2  0  0  0  0  0  0
  186.9860  178.3210  137.5010 C   0  0  1  0  0  3  0  0  0  0  0  0
  186.3750  177.6920  135.4650 C   0  0  0  0  0  1  0  0  0  0  0  0
  187.2810  178.5060  136.1460 O   0  0  0  0  0  0  0  0  0  0  0  0
  185.7660  177.5330  137.6390 N   0  0  0  0  0  2  0  0  0  0  0  0
  185.0810  177.9640  138.8490 C   0  0  1  0  0  3  0  0  0  0  0  0
  184.2240  180.0750  138.9990 N   0  0  0  0  0  0  0  0  0  0  0  0
  185.3740  179.3310  139.0960 O   0  0  0  0  0  0  0  0  0  0  0  0
  183.2460  179.3190  138.7250 N   0  0  0  0  0  0  0  0  0  0  0  0
  183.6800  178.0200  138.6170 O   0  0  0  0  0  0  0  0  0  0  0  0
  1 24  1  6  0  0  0
  1 15  1  0  0  0  0
  2  6  1  0  0  0  0
  3  4  1  0  0  0  0
  5  1  1  6  0  0  0
  5  4  1  0  0  0  0
  6  5  1  0  0  0  0
  7  2  1  6  0  0  0
  7  3  1  0  0  0  0
  8 12  2  0  0  0  0
  9 13  1  0  0  0  0
  9  8  1  0  0  0  0
 10 11  1  6  0  0  0
 10  7  1  0  0  0  0
 10  8  1  0  0  0  0
 14 11  2  0  0  0  0
 14  9  1  0  0  0  0
 15 21  1  6  0  0  0
 15 17  1  0  0  0  0
 16 19  1  0  0  0  0
 16 18  1  1  0  0  0
 17 20  1  6  0  0  0
 17 16  1  0  0  0  0
 17 19  1  0  0  0  0
 19 18  1  1  0  0  0
 21 22  1  0  0  0  0
 23 21  2  0  0  0  0
 25 26  1  1  0  0  0
 25 24  1  0  0  0  0
 27 25  1  0  0  0  0
 28 27  1  0  0  0  0
 29 30  1  6  0  0  0
 29 28  1  0  0  0  0
 30 31  1  0  0  0  0
 31 32  1  1  0  0  0
 33 31  1  0  0  0  0
 35 34  1  0  0  0  0
 35 33  1  0  0  0  0
 36 38  1  6  0  0  0
 36 39  1  0  0  0  0
 36 29  1  0  0  0  0
 37 38  1  0  0  0  0
 40 39  1  6  0  0  0
 40 42  1  0  0  0  0
 41 42  1  0  0  0  0
 43 41  2  0  0  0  0
 44 43  1  0  0  0  0
 44 40  1  0  0  0  0
M  END
>  <MODEL>
2

>  <REMARK>
 VINA RESULT:      -7.0      2.420      6.482
  Name = 
  18 active torsions:
  status: ('A' for Active; 'I' for Inactive)
    1  A    between atoms: C_2  and  C_27
    2  A    between atoms: C_3  and  N_16
    3  A    between atoms: C_4  and  O_7
    4  A    between atoms: C_4  and  C_27
    5  A    between atoms: C_4  and  C_28
    6  A    between atoms: C_5  and  C_26
    7  A    between atoms: C_5  and  C_35
    8  A    between atoms: O_7  and  C_25
    9  A    between atoms: C_12  and  C_42
   10  A    between atoms: C_14  and  C_25
   11  A    between atoms: C_14  and  C_38
   12  A    between atoms: N_16  and  C_19
   13  A    between atoms: C_19  and  C_32
   14  A    between atoms: C_19  and  O_44
   15  A    between atoms: C_21  and  C_27
   16  A    between atoms: C_23  and  C_26
   17  A    between atoms: C_32  and  C_35
   18  A    between atoms: C_32  and  C_38
                            x       y       z     vdW  Elec       q    Type
                         _______ _______ _______ _____ _____    ______ ____

>  <TORSDO>
F 18

$$$$
=
 OpenBabel11062415503D

 44 48  0  0  1  0  0  0  0  0999 V2000
  189.3560  177.3460  143.7340 C   0  0  2  0  0  3  0  0  0  0  0  0
  186.1450  177.2950  143.0390 C   0  0  0  0  0  2  0  0  0  0  0  0
  186.6760  178.7220  145.0320 C   0  0  0  0  0  2  0  0  0  0  0  0
  187.5800  177.6280  145.5940 C   0  0  0  0  0  2  0  0  0  0  0  0
  188.1540  176.7370  144.4820 C   0  0  1  0  0  3  0  0  0  0  0  0
  187.0620  176.1900  143.5580 C   0  0  0  0  0  2  0  0  0  0  0  0
  185.5570  178.1080  144.1970 C   0  0  1  0  0  3  0  0  0  0  0  0
  183.3090  179.1320  144.3780 C   0  0  0  0  0  0  0  0  0  0  0  0
  182.3270  178.9350  143.4110 N   0  0  0  0  0  0  0  0  0  0  0  0
  184.6040  179.2070  143.7140 C   0  0  2  0  0  3  0  0  0  0  0  0
  184.2860  179.0490  142.2810 N   0  0  0  0  0  0  0  0  0  0  0  0
  183.0910  179.2440  145.6140 O   0  0  0  0  0  0  0  0  0  0  0  0
  180.9080  178.7740  143.6730 C   0  0  0  0  0  1  0  0  0  0  0  0
  182.8810  178.8660  142.1280 N   0  0  0  0  0  0  0  0  0  0  0  0
  190.3990  177.8850  144.7370 C   0  0  1  0  0  3  0  0  0  0  0  0
  190.6320  176.2360  146.7420 C   0  0  2  0  0  3  0  0  0  0  0  0
  191.1750  176.7620  145.4360 C   0  0  2  0  0  0  0  0  0  0  0  0
  190.8820  177.1670  147.7690 O   0  0  0  0  0  0  0  0  0  0  0  0
  191.8460  177.1010  146.7450 C   0  0  1  0  0  3  0  0  0  0  0  0
  191.8870  175.7800  144.6360 N   0  0  0  0  0  1  0  0  0  0  0  0
  191.3540  178.8480  144.0990 C   0  0  0  0  0  0  0  0  0  0  0  0
  192.3080  178.3790  143.2060 O   0  0  0  0  0  0  0  0  0  0  0  0
  191.2890  180.0790  144.3560 O   0  0  0  0  0  1  0  0  0  0  0  0
  188.9230  178.3610  142.8600 O   0  0  0  0  0  0  0  0  0  0  0  0
  189.4460  178.0580  141.5940 C   0  0  1  0  0  3  0  0  0  0  0  0
  189.8510  176.5970  141.5180 C   0  0  0  0  0  1  0  0  0  0  0  0
  188.3750  178.3030  140.5450 C   0  0  0  0  0  2  0  0  0  0  0  0
  188.9980  178.6420  139.2020 C   0  0  0  0  0  2  0  0  0  0  0  0
  188.3230  177.8620  138.0700 C   0  0  2  0  0  3  0  0  0  0  0  0
  186.9070  177.4170  138.4380 C   0  0  0  0  0  2  0  0  0  0  0  0
  185.8240  178.3080  137.8480 C   0  0  2  0  0  3  0  0  0  0  0  0
  185.3610  179.1910  138.8230 O   0  0  0  0  0  1  0  0  0  0  0  0
  184.6770  177.4410  137.3580 C   0  0  0  0  0  2  0  0  0  0  0  0
  182.4020  178.3030  137.4670 N   0  0  0  0  0  1  0  0  0  0  0  0
  183.4450  177.6330  138.2250 C   0  0  0  0  0  2  0  0  0  0  0  0
  189.1790  176.7180  137.5080 C   0  0  1  0  0  3  0  0  0  0  0  0
  188.7760  177.1710  135.3760 C   0  0  0  0  0  1  0  0  0  0  0  0
  188.5820  176.1960  136.3560 O   0  0  0  0  0  0  0  0  0  0  0  0
  190.5320  177.1730  137.2030 N   0  0  0  0  0  2  0  0  0  0  0  0
  191.4690  176.1610  137.6680 C   0  0  1  0  0  3  0  0  0  0  0  0
  193.7190  176.4940  137.4680 N   0  0  0  0  0  0  0  0  0  0  0  0
  192.5850  176.1150  136.7920 O   0  0  0  0  0  0  0  0  0  0  0  0
  193.4290  176.7670  138.6700 N   0  0  0  0  0  0  0  0  0  0  0  0
  192.0820  176.5900  138.8760 O   0  0  0  0  0  0  0  0  0  0  0  0
  1 24  1  6  0  0  0
  1 15  1  0  0  0  0
  2  6  1  0  0  0  0
  3  4  1  0  0  0  0
  5  1  1  6  0  0  0
  5  4  1  0  0  0  0
  6  5  1  0  0  0  0
  7  2  1  6  0  0  0
  7  3  1  0  0  0  0
  8 12  2  0  0  0  0
  9 13  1  0  0  0  0
  9  8  1  0  0  0  0
 10 11  1  6  0  0  0
 10  7  1  0  0  0  0
 10  8  1  0  0  0  0
 14 11  2  0  0  0  0
 14  9  1  0  0  0  0
 15 21  1  6  0  0  0
 15 17  1  0  0  0  0
 16 19  1  0  0  0  0
 16 18  1  1  0  0  0
 17 20  1  6  0  0  0
 17 16  1  0  0  0  0
 17 19  1  0  0  0  0
 19 18  1  1  0  0  0
 21 23  1  0  0  0  0
 22 21  2  0  0  0  0
 25 26  1  1  0  0  0
 25 24  1  0  0  0  0
 27 25  1  0  0  0  0
 28 27  1  0  0  0  0
 29 30  1  1  0  0  0
 29 28  1  0  0  0  0
 31 30  1  0  0  0  0
 31 32  1  1  0  0  0
 33 31  1  0  0  0  0
 33 35  1  0  0  0  0
 34 35  1  0  0  0  0
 36 38  1  6  0  0  0
 36 29  1  0  0  0  0
 37 38  1  0  0  0  0
 39 36  1  0  0  0  0
 40 39  1  6  0  0  0
 40 44  1  0  0  0  0
 41 43  2  0  0  0  0
 42 41  1  0  0  0  0
 42 40  1  0  0  0  0
 43 44  1  0  0  0  0
M  END
>  <MODEL>
3

>  <REMARK>
 VINA RESULT:      -7.0      2.437      7.625
  Name = 
  18 active torsions:
  status: ('A' for Active; 'I' for Inactive)
    1  A    between atoms: C_2  and  C_27
    2  A    between atoms: C_3  and  N_16
    3  A    between atoms: C_4  and  O_7
    4  A    between atoms: C_4  and  C_27
    5  A    between atoms: C_4  and  C_28
    6  A    between atoms: C_5  and  C_26
    7  A    between atoms: C_5  and  C_35
    8  A    between atoms: O_7  and  C_25
    9  A    between atoms: C_12  and  C_42
   10  A    between atoms: C_14  and  C_25
   11  A    between atoms: C_14  and  C_38
   12  A    between atoms: N_16  and  C_19
   13  A    between atoms: C_19  and  C_32
   14  A    between atoms: C_19  and  O_44
   15  A    between atoms: C_21  and  C_27
   16  A    between atoms: C_23  and  C_26
   17  A    between atoms: C_32  and  C_35
   18  A    between atoms: C_32  and  C_38
                            x       y       z     vdW  Elec       q    Type
                         _______ _______ _______ _____ _____    ______ ____

>  <TORSDO>
F 18

$$$$
=
 OpenBabel11062415503D

 44 48  0  0  1  0  0  0  0  0999 V2000
  190.4240  176.6990  137.3490 C   0  0  2  0  0  3  0  0  0  0  0  0
  188.0270  178.7470  138.2740 C   0  0  0  0  0  2  0  0  0  0  0  0
  187.1500  176.6830  137.1520 C   0  0  0  0  0  2  0  0  0  0  0  0
  188.1930  176.8220  136.0470 C   0  0  0  0  0  2  0  0  0  0  0  0
  189.4450  177.5660  136.5350 C   0  0  1  0  0  3  0  0  0  0  0  0
  189.1010  178.9030  137.1990 C   0  0  0  0  0  2  0  0  0  0  0  0
  186.7830  178.0550  137.7100 C   0  0  1  0  0  3  0  0  0  0  0  0
  184.3530  178.1510  138.1800 C   0  0  0  0  0  0  0  0  0  0  0  0
  183.7700  179.2280  138.8430 N   0  0  0  0  0  0  0  0  0  0  0  0
  185.6700  177.9110  138.7550 C   0  0  2  0  0  3  0  0  0  0  0  0
  185.7950  178.9320  139.8140 N   0  0  0  0  0  0  0  0  0  0  0  0
  183.8070  177.4950  137.2530 O   0  0  0  0  0  0  0  0  0  0  0  0
  182.4700  179.8000  138.5390 C   0  0  0  0  0  1  0  0  0  0  0  0
  184.6190  179.7380  139.8310 N   0  0  0  0  0  0  0  0  0  0  0  0
  191.0460  175.6030  136.4570 C   0  0  1  0  0  3  0  0  0  0  0  0
  193.5150  176.4320  136.5670 C   0  0  2  0  0  3  0  0  0  0  0  0
  192.5150  175.3280  136.8040 C   0  0  2  0  0  0  0  0  0  0  0  0
  193.7730  176.5510  135.1880 O   0  0  0  0  0  0  0  0  0  0  0  0
  193.4910  175.2530  135.6560 C   0  0  1  0  0  3  0  0  0  0  0  0
  192.8330  174.4500  137.9170 N   0  0  0  0  0  1  0  0  0  0  0  0
  190.2620  174.3270  136.4950 C   0  0  0  0  0  0  0  0  0  0  0  0
  189.5700  173.9820  137.6480 O   0  0  0  0  0  1  0  0  0  0  0  0
  190.2150  173.5730  135.4880 O   0  0  0  0  0  0  0  0  0  0  0  0
  189.7680  176.1350  138.4590 O   0  0  0  0  0  0  0  0  0  0  0  0
  190.5360  176.4520  139.5910 C   0  0  1  0  0  3  0  0  0  0  0  0
  191.4240  177.6520  139.3140 C   0  0  0  0  0  1  0  0  0  0  0  0
  189.6040  176.8130  140.7350 C   0  0  0  0  0  2  0  0  0  0  0  0
  189.9530  176.0280  141.9870 C   0  0  0  0  0  2  0  0  0  0  0  0
  189.5870  176.8140  143.2500 C   0  0  2  0  0  3  0  0  0  0  0  0
  188.4660  177.8230  142.9970 C   0  0  0  0  0  2  0  0  0  0  0  0
  187.1140  177.3640  143.5210 C   0  0  2  0  0  3  0  0  0  0  0  0
  186.0970  177.9240  142.7470 O   0  0  0  0  0  1  0  0  0  0  0  0
  186.9610  177.8080  144.9650 C   0  0  0  0  0  2  0  0  0  0  0  0
  185.4910  178.9050  146.5670 N   0  0  0  0  0  1  0  0  0  0  0  0
  185.6510  178.5500  145.1670 C   0  0  0  0  0  2  0  0  0  0  0  0
  190.7950  177.4330  143.9680 C   0  0  1  0  0  3  0  0  0  0  0  0
  191.2250  179.6040  144.0880 C   0  0  0  0  0  1  0  0  0  0  0  0
  191.2920  178.5090  143.2260 O   0  0  0  0  0  0  0  0  0  0  0  0
  190.4360  177.8800  145.3100 N   0  0  0  0  0  2  0  0  0  0  0  0
  190.5100  176.7350  146.2060 C   0  0  1  0  0  3  0  0  0  0  0  0
  192.5020  176.1330  147.1460 N   0  0  0  0  0  0  0  0  0  0  0  0
  191.7420  176.0570  146.0050 O   0  0  0  0  0  0  0  0  0  0  0  0
  191.8750  176.7790  148.0370 N   0  0  0  0  0  0  0  0  0  0  0  0
  190.6560  177.1800  147.5480 O   0  0  0  0  0  0  0  0  0  0  0  0
  1 24  1  1  0  0  0
  4  5  1  0  0  0  0
  4  3  1  0  0  0  0
  5  6  1  0  0  0  0
  5  1  1  1  0  0  0
  6  2  1  0  0  0  0
  7  3  1  1  0  0  0
  7  2  1  0  0  0  0
  7 10  1  0  0  0  0
  8  9  1  0  0  0  0
  9 14  1  0  0  0  0
 10  8  1  6  0  0  0
 10 11  1  0  0  0  0
 11 14  2  0  0  0  0
 12  8  2  0  0  0  0
 13  9  1  0  0  0  0
 15 21  1  1  0  0  0
 15 17  1  0  0  0  0
 15  1  1  0  0  0  0
 16 18  1  6  0  0  0
 16 17  1  0  0  0  0
 17 20  1  1  0  0  0
 19 18  1  6  0  0  0
 19 16  1  0  0  0  0
 19 17  1  0  0  0  0
 21 22  1  0  0  0  0
 23 21  2  0  0  0  0
 24 25  1  0  0  0  0
 25 26  1  6  0  0  0
 25 27  1  0  0  0  0
 27 28  1  0  0  0  0
 29 28  1  6  0  0  0
 29 36  1  0  0  0  0
 30 29  1  0  0  0  0
 30 31  1  0  0  0  0
 31 32  1  6  0  0  0
 31 33  1  0  0  0  0
 33 35  1  0  0  0  0
 35 34  1  0  0  0  0
 36 38  1  6  0  0  0
 36 39  1  0  0  0  0
 38 37  1  0  0  0  0
 40 39  1  6  0  0  0
 40 44  1  0  0  0  0
 41 43  2  0  0  0  0
 42 40  1  0  0  0  0
 42 41  1  0  0  0  0
 44 43  1  0  0  0  0
M  END
>  <MODEL>
4

>  <REMARK>
 VINA RESULT:      -6.9      3.032      8.949
  Name = 
  18 active torsions:
  status: ('A' for Active; 'I' for Inactive)
    1  A    between atoms: C_2  and  C_27
    2  A    between atoms: C_3  and  N_16
    3  A    between atoms: C_4  and  O_7
    4  A    between atoms: C_4  and  C_27
    5  A    between atoms: C_4  and  C_28
    6  A    between atoms: C_5  and  C_26
    7  A    between atoms: C_5  and  C_35
    8  A    between atoms: O_7  and  C_25
    9  A    between atoms: C_12  and  C_42
   10  A    between atoms: C_14  and  C_25
   11  A    between atoms: C_14  and  C_38
   12  A    between atoms: N_16  and  C_19
   13  A    between atoms: C_19  and  C_32
   14  A    between atoms: C_19  and  O_44
   15  A    between atoms: C_21  and  C_27
   16  A    between atoms: C_23  and  C_26
   17  A    between atoms: C_32  and  C_35
   18  A    between atoms: C_32  and  C_38
                            x       y       z     vdW  Elec       q    Type
                         _______ _______ _______ _____ _____    ______ ____

>  <TORSDO>
F 18

$$$$
=
 OpenBabel11062415503D

 44 48  0  0  1  0  0  0  0  0999 V2000
  186.4130  177.9440  142.7740 C   0  0  2  0  0  3  0  0  0  0  0  0
  187.8240  177.8450  145.7390 C   0  0  0  0  0  2  0  0  0  0  0  0
  189.1790  176.6670  143.9900 C   0  0  0  0  0  2  0  0  0  0  0  0
  187.9270  175.9650  143.4700 C   0  0  0  0  0  2  0  0  0  0  0  0
  186.6570  176.7810  143.7550 C   0  0  1  0  0  3  0  0  0  0  0  0
  186.5460  177.1820  145.2300 C   0  0  0  0  0  2  0  0  0  0  0  0
  189.0440  176.9560  145.4810 C   0  0  1  0  0  3  0  0  0  0  0  0
  191.4040  176.5880  146.1370 C   0  0  0  0  0  0  0  0  0  0  0  0
  191.8010  176.5330  147.4700 N   0  0  0  0  0  0  0  0  0  0  0  0
  190.3420  177.5780  146.0100 C   0  0  2  0  0  3  0  0  0  0  0  0
  190.1660  178.0990  147.3810 N   0  0  0  0  0  0  0  0  0  0  0  0
  191.9060  175.9020  145.2070 O   0  0  0  0  0  0  0  0  0  0  0  0
  192.8130  175.6440  148.0110 C   0  0  0  0  0  1  0  0  0  0  0  0
  191.0640  177.4240  148.2580 N   0  0  0  0  0  0  0  0  0  0  0  0
  184.9000  178.1930  142.5960 C   0  0  1  0  0  3  0  0  0  0  0  0
  183.4460  178.8200  144.6670 C   0  0  2  0  0  3  0  0  0  0  0  0
  184.3650  179.2640  143.5550 C   0  0  2  0  0  0  0  0  0  0  0  0
  182.1730  178.5300  144.1430 O   0  0  0  0  0  0  0  0  0  0  0  0
  182.8860  179.5600  143.5010 C   0  0  1  0  0  3  0  0  0  0  0  0
  185.1930  180.4140  143.8750 N   0  0  0  0  0  1  0  0  0  0  0  0
  184.5450  178.5450  141.1840 C   0  0  0  0  0  0  0  0  0  0  0  0
  184.9930  179.7420  140.6420 O   0  0  0  0  0  1  0  0  0  0  0  0
  183.8550  177.7600  140.4810 O   0  0  0  0  0  0  0  0  0  0  0  0
  187.0300  177.6760  141.5380 O   0  0  0  0  0  0  0  0  0  0  0  0
  187.8040  178.8010  141.2160 C   0  0  1  0  0  3  0  0  0  0  0  0
  188.8990  179.0090  142.2470 C   0  0  0  0  0  1  0  0  0  0  0  0
  188.4650  178.5770  139.8670 C   0  0  0  0  0  2  0  0  0  0  0  0
  188.6600  177.0950  139.5970 C   0  0  0  0  0  2  0  0  0  0  0  0
  189.6780  176.8690  138.4750 C   0  0  2  0  0  3  0  0  0  0  0  0
  189.1500  175.9190  137.3990 C   0  0  0  0  0  2  0  0  0  0  0  0
  187.6320  175.9030  137.3030 C   0  0  2  0  0  3  0  0  0  0  0  0
  187.1950  174.6130  137.0000 O   0  0  0  0  0  1  0  0  0  0  0  0
  187.1910  176.8620  136.2100 C   0  0  0  0  0  2  0  0  0  0  0  0
  187.3360  179.2520  136.6540 N   0  0  0  0  0  1  0  0  0  0  0  0
  186.4960  178.0750  136.8040 C   0  0  0  0  0  2  0  0  0  0  0  0
  191.0770  176.4840  138.9750 C   0  0  1  0  0  3  0  0  0  0  0  0
  191.9220  177.4350  140.7900 C   0  0  0  0  0  1  0  0  0  0  0  0
  191.0800  176.4040  140.3710 O   0  0  0  0  0  0  0  0  0  0  0  0
  191.5080  175.2120  138.4050 N   0  0  0  0  0  2  0  0  0  0  0  0
  192.6770  175.4580  137.5730 C   0  0  1  0  0  3  0  0  0  0  0  0
  194.7760  175.3000  138.4570 N   0  0  0  0  0  0  0  0  0  0  0  0
  193.6740  176.1120  138.3430 O   0  0  0  0  0  0  0  0  0  0  0  0
  194.5740  174.2140  137.8370 N   0  0  0  0  0  0  0  0  0  0  0  0
  193.3220  174.2290  137.2710 O   0  0  0  0  0  0  0  0  0  0  0  0
  1 24  1  6  0  0  0
  4  5  1  0  0  0  0
  4  3  1  0  0  0  0
  5  1  1  6  0  0  0
  5  6  1  0  0  0  0
  6  2  1  0  0  0  0
  7  3  1  6  0  0  0
  7  2  1  0  0  0  0
  7 10  1  0  0  0  0
  8  9  1  0  0  0  0
  9 13  1  0  0  0  0
  9 14  1  0  0  0  0
 10  8  1  1  0  0  0
 10 11  1  0  0  0  0
 11 14  2  0  0  0  0
 12  8  2  0  0  0  0
 15 21  1  6  0  0  0
 15  1  1  0  0  0  0
 15 17  1  0  0  0  0
 16 18  1  6  0  0  0
 17 20  1  1  0  0  0
 17 16  1  0  0  0  0
 19 17  1  0  0  0  0
 19 18  1  6  0  0  0
 19 16  1  0  0  0  0
 22 21  1  0  0  0  0
 23 21  2  0  0  0  0
 25 24  1  0  0  0  0
 25 26  1  1  0  0  0
 27 25  1  0  0  0  0
 28 27  1  0  0  0  0
 29 30  1  6  0  0  0
 29 36  1  0  0  0  0
 29 28  1  0  0  0  0
 31 32  1  6  0  0  0
 31 30  1  0  0  0  0
 33 35  1  0  0  0  0
 33 31  1  0  0  0  0
 34 35  1  0  0  0  0
 36 39  1  6  0  0  0
 36 38  1  0  0  0  0
 38 37  1  0  0  0  0
 40 42  1  0  0  0  0
 40 39  1  1  0  0  0
 42 41  1  0  0  0  0
 43 41  2  0  0  0  0
 44 40  1  0  0  0  0
 44 43  1  0  0  0  0
M  END
>  <MODEL>
5

>  <REMARK>
 VINA RESULT:      -6.9      2.745      8.691
  Name = 
  18 active torsions:
  status: ('A' for Active; 'I' for Inactive)
    1  A    between atoms: C_2  and  C_27
    2  A    between atoms: C_3  and  N_16
    3  A    between atoms: C_4  and  O_7
    4  A    between atoms: C_4  and  C_27
    5  A    between atoms: C_4  and  C_28
    6  A    between atoms: C_5  and  C_26
    7  A    between atoms: C_5  and  C_35
    8  A    between atoms: O_7  and  C_25
    9  A    between atoms: C_12  and  C_42
   10  A    between atoms: C_14  and  C_25
   11  A    between atoms: C_14  and  C_38
   12  A    between atoms: N_16  and  C_19
   13  A    between atoms: C_19  and  C_32
   14  A    between atoms: C_19  and  O_44
   15  A    between atoms: C_21  and  C_27
   16  A    between atoms: C_23  and  C_26
   17  A    between atoms: C_32  and  C_35
   18  A    between atoms: C_32  and  C_38
                            x       y       z     vdW  Elec       q    Type
                         _______ _______ _______ _____ _____    ______ ____

>  <TORSDO>
F 18

$$$$
=
 OpenBabel11062415503D

 44 48  0  0  1  0  0  0  0  0999 V2000
  185.7750  178.0230  138.2920 C   0  0  2  0  0  3  0  0  0  0  0  0
  187.8730  176.1940  136.5470 C   0  0  0  0  0  2  0  0  0  0  0  0
  188.9370  178.2750  137.4540 C   0  0  0  0  0  2  0  0  0  0  0  0
  187.7390  179.1040  137.0000 C   0  0  0  0  0  2  0  0  0  0  0  0
  186.4560  178.2610  136.9300 C   0  0  1  0  0  3  0  0  0  0  0  0
  186.6460  176.9870  136.1020 C   0  0  0  0  0  2  0  0  0  0  0  0
  189.1280  177.0720  136.5360 C   0  0  1  0  0  3  0  0  0  0  0  0
  190.8930  175.4720  135.8580 C   0  0  0  0  0  0  0  0  0  0  0  0
  190.8830  174.1420  136.2710 N   0  0  0  0  0  0  0  0  0  0  0  0
  190.3860  176.2980  136.9460 C   0  0  2  0  0  3  0  0  0  0  0  0
  190.0940  175.3350  138.0270 N   0  0  0  0  0  0  0  0  0  0  0  0
  191.2950  175.8740  134.7340 O   0  0  0  0  0  0  0  0  0  0  0  0
  191.2810  173.0060  135.4590 C   0  0  0  0  0  1  0  0  0  0  0  0
  190.3930  174.0170  137.5750 N   0  0  0  0  0  0  0  0  0  0  0  0
  184.2490  178.2190  138.1750 C   0  0  1  0  0  3  0  0  0  0  0  0
  183.7060  175.6770  137.9900 C   0  0  2  0  0  3  0  0  0  0  0  0
  183.4610  177.0010  138.6710 C   0  0  2  0  0  0  0  0  0  0  0  0
  183.0880  175.6710  136.7260 O   0  0  0  0  0  0  0  0  0  0  0  0
  182.4370  176.4130  137.7300 C   0  0  1  0  0  3  0  0  0  0  0  0
  183.1060  176.9040  140.0770 N   0  0  0  0  0  1  0  0  0  0  0  0
  183.7800  179.4560  138.8800 C   0  0  0  0  0  0  0  0  0  0  0  0
  182.4610  179.5450  139.3030 O   0  0  0  0  0  1  0  0  0  0  0  0
  184.5740  180.4070  139.1030 O   0  0  0  0  0  0  0  0  0  0  0  0
  186.3220  178.8790  139.2660 O   0  0  0  0  0  0  0  0  0  0  0  0
  186.7670  178.0660  140.3200 C   0  0  1  0  0  3  0  0  0  0  0  0
  188.2110  178.3830  140.6660 C   0  0  0  0  0  1  0  0  0  0  0  0
  185.9180  178.3410  141.5500 C   0  0  0  0  0  2  0  0  0  0  0  0
  186.6350  177.9000  142.8140 C   0  0  0  0  0  2  0  0  0  0  0  0
  185.8270  178.2680  144.0620 C   0  0  2  0  0  3  0  0  0  0  0  0
  185.0780  179.5920  143.8960 C   0  0  0  0  0  2  0  0  0  0  0  0
  183.6040  179.4980  144.2580 C   0  0  2  0  0  3  0  0  0  0  0  0
  183.4720  179.1020  145.5890 O   0  0  0  0  0  1  0  0  0  0  0  0
  182.9320  178.4800  143.3530 C   0  0  0  0  0  2  0  0  0  0  0  0
  180.4970  178.4560  143.3180 N   0  0  0  0  0  1  0  0  0  0  0  0
  181.6770  179.0610  142.7240 C   0  0  0  0  0  2  0  0  0  0  0  0
  186.6330  178.1990  145.3660 C   0  0  1  0  0  3  0  0  0  0  0  0
  186.4750  178.3540  147.5720 C   0  0  0  0  0  1  0  0  0  0  0  0
  185.7790  177.9270  146.4400 O   0  0  0  0  0  0  0  0  0  0  0  0
  187.6730  177.1790  145.2890 N   0  0  0  0  0  2  0  0  0  0  0  0
  188.9650  177.8480  145.2560 C   0  0  1  0  0  3  0  0  0  0  0  0
  190.7060  177.0570  146.5030 N   0  0  0  0  0  0  0  0  0  0  0  0
  189.5530  177.8020  146.5470 O   0  0  0  0  0  0  0  0  0  0  0  0
  190.9010  176.6390  145.3240 N   0  0  0  0  0  0  0  0  0  0  0  0
  189.8900  177.0750  144.5030 O   0  0  0  0  0  0  0  0  0  0  0  0
  1 24  1  1  0  0  0
  4  3  1  0  0  0  0
  5  4  1  0  0  0  0
  5  1  1  1  0  0  0
  6  2  1  0  0  0  0
  6  5  1  0  0  0  0
  7  2  1  1  0  0  0
  7 10  1  0  0  0  0
  7  3  1  0  0  0  0
  8  9  1  0  0  0  0
  9 14  1  0  0  0  0
 10  8  1  6  0  0  0
 10 11  1  0  0  0  0
 12  8  2  0  0  0  0
 13  9  1  0  0  0  0
 14 11  2  0  0  0  0
 15  1  1  0  0  0  0
 15 17  1  0  0  0  0
 15 21  1  1  0  0  0
 16 18  1  6  0  0  0
 16 17  1  0  0  0  0
 17 20  1  1  0  0  0
 19 18  1  6  0  0  0
 19 16  1  0  0  0  0
 19 17  1  0  0  0  0
 21 23  2  0  0  0  0
 21 22  1  0  0  0  0
 24 25  1  0  0  0  0
 25 26  1  1  0  0  0
 25 27  1  0  0  0  0
 27 28  1  0  0  0  0
 29 28  1  6  0  0  0
 29 36  1  0  0  0  0
 30 29  1  0  0  0  0
 30 31  1  0  0  0  0
 31 32  1  1  0  0  0
 33 31  1  0  0  0  0
 35 34  1  0  0  0  0
 35 33  1  0  0  0  0
 36 39  1  6  0  0  0
 36 38  1  0  0  0  0
 38 37  1  0  0  0  0
 40 39  1  1  0  0  0
 40 42  1  0  0  0  0
 41 42  1  0  0  0  0
 43 41  2  0  0  0  0
 44 40  1  0  0  0  0
 44 43  1  0  0  0  0
M  END
>  <MODEL>
6

>  <REMARK>
 VINA RESULT:      -6.7      2.403      7.531
  Name = 
  18 active torsions:
  status: ('A' for Active; 'I' for Inactive)
    1  A    between atoms: C_2  and  C_27
    2  A    between atoms: C_3  and  N_16
    3  A    between atoms: C_4  and  O_7
    4  A    between atoms: C_4  and  C_27
    5  A    between atoms: C_4  and  C_28
    6  A    between atoms: C_5  and  C_26
    7  A    between atoms: C_5  and  C_35
    8  A    between atoms: O_7  and  C_25
    9  A    between atoms: C_12  and  C_42
   10  A    between atoms: C_14  and  C_25
   11  A    between atoms: C_14  and  C_38
   12  A    between atoms: N_16  and  C_19
   13  A    between atoms: C_19  and  C_32
   14  A    between atoms: C_19  and  O_44
   15  A    between atoms: C_21  and  C_27
   16  A    between atoms: C_23  and  C_26
   17  A    between atoms: C_32  and  C_35
   18  A    between atoms: C_32  and  C_38
                            x       y       z     vdW  Elec       q    Type
                         _______ _______ _______ _____ _____    ______ ____

>  <TORSDO>
F 18

$$$$
=
 OpenBabel11062415503D

 44 48  0  0  1  0  0  0  0  0999 V2000
  189.4040  177.0950  144.3050 C   0  0  2  0  0  3  0  0  0  0  0  0
  186.5600  177.2370  142.6650 C   0  0  0  0  0  2  0  0  0  0  0  0
  186.6980  178.9400  144.5000 C   0  0  0  0  0  2  0  0  0  0  0  0
  187.2290  177.8810  145.4630 C   0  0  0  0  0  2  0  0  0  0  0  0
  187.9610  176.7520  144.7220 C   0  0  1  0  0  3  0  0  0  0  0  0
  187.1140  176.1580  143.5930 C   0  0  0  0  0  2  0  0  0  0  0  0
  185.7900  178.2990  143.4560 C   0  0  1  0  0  3  0  0  0  0  0  0
  183.9040  178.9780  142.0000 C   0  0  0  0  0  0  0  0  0  0  0  0
  184.0010  178.9660  140.6110 N   0  0  0  0  0  0  0  0  0  0  0  0
  185.1920  179.3820  142.5500 C   0  0  2  0  0  3  0  0  0  0  0  0
  186.0370  179.6140  141.3620 N   0  0  0  0  0  0  0  0  0  0  0  0
  182.8630  178.7010  142.6530 O   0  0  0  0  0  0  0  0  0  0  0  0
  182.9400  178.5820  139.6970 C   0  0  0  0  0  1  0  0  0  0  0  0
  185.2830  179.3320  140.1870 N   0  0  0  0  0  0  0  0  0  0  0  0
  190.0730  177.9970  145.3640 C   0  0  1  0  0  3  0  0  0  0  0  0
  189.5620  176.7580  147.5990 C   0  0  2  0  0  3  0  0  0  0  0  0
  190.5770  177.2040  146.5760 C   0  0  2  0  0  0  0  0  0  0  0  0
  189.1590  177.8590  148.3780 O   0  0  0  0  0  0  0  0  0  0  0  0
  190.4910  177.8780  147.9230 C   0  0  1  0  0  3  0  0  0  0  0  0
  191.7170  176.3150  146.4240 N   0  0  0  0  0  1  0  0  0  0  0  0
  191.1860  178.8180  144.7880 C   0  0  0  0  0  0  0  0  0  0  0  0
  190.9290  180.1060  144.3400 O   0  0  0  0  0  0  0  0  0  0  0  0
  192.3550  178.3530  144.7190 O   0  0  0  0  0  1  0  0  0  0  0  0
  189.4130  177.7090  143.0390 O   0  0  0  0  0  0  0  0  0  0  0  0
  190.3550  177.0220  142.2580 C   0  0  1  0  0  3  0  0  0  0  0  0
  190.6270  175.6460  142.8380 C   0  0  0  0  0  1  0  0  0  0  0  0
  189.7980  176.8400  140.8570 C   0  0  0  0  0  2  0  0  0  0  0  0
  190.7930  177.3110  139.8110 C   0  0  0  0  0  2  0  0  0  0  0  0
  190.5400  176.6300  138.4630 C   0  0  2  0  0  3  0  0  0  0  0  0
  189.0950  176.1490  138.3210 C   0  0  0  0  0  2  0  0  0  0  0  0
  188.4290  176.6180  137.0360 C   0  0  2  0  0  3  0  0  0  0  0  0
  188.5320  175.6220  136.0650 O   0  0  0  0  0  1  0  0  0  0  0  0
  189.1190  177.8800  136.5490 C   0  0  0  0  0  2  0  0  0  0  0  0
  187.3190  179.5150  136.6810 N   0  0  0  0  0  1  0  0  0  0  0  0
  188.5810  179.1040  137.2720 C   0  0  0  0  0  2  0  0  0  0  0  0
  191.5670  175.5430  138.1150 C   0  0  1  0  0  3  0  0  0  0  0  0
  191.4570  173.7630  136.7980 C   0  0  0  0  0  1  0  0  0  0  0  0
  190.9240  174.3100  137.9660 O   0  0  0  0  0  0  0  0  0  0  0  0
  192.2910  175.8750  136.8920 N   0  0  0  0  0  2  0  0  0  0  0  0
  193.5710  176.4590  137.2650 C   0  0  1  0  0  3  0  0  0  0  0  0
  195.3780  175.1210  137.6600 N   0  0  0  0  0  0  0  0  0  0  0  0
  194.2180  175.6150  138.2050 O   0  0  0  0  0  0  0  0  0  0  0  0
  195.5240  175.5710  136.4850 N   0  0  0  0  0  0  0  0  0  0  0  0
  194.4700  176.3930  136.1670 O   0  0  0  0  0  0  0  0  0  0  0  0
  1 24  1  6  0  0  0
  1 15  1  0  0  0  0
  2  6  1  0  0  0  0
  3  4  1  0  0  0  0
  5  1  1  6  0  0  0
  5  4  1  0  0  0  0
  6  5  1  0  0  0  0
  7  2  1  6  0  0  0
  7  3  1  0  0  0  0
  8 10  1  0  0  0  0
  8 12  2  0  0  0  0
  9  8  1  0  0  0  0
 10 11  1  6  0  0  0
 10  7  1  0  0  0  0
 13  9  1  0  0  0  0
 14  9  1  0  0  0  0
 14 11  2  0  0  0  0
 15 21  1  6  0  0  0
 15 17  1  0  0  0  0
 16 19  1  0  0  0  0
 16 18  1  6  0  0  0
 17 20  1  6  0  0  0
 17 16  1  0  0  0  0
 17 19  1  0  0  0  0
 19 18  1  6  0  0  0
 22 21  2  0  0  0  0
 23 21  1  0  0  0  0
 25 26  1  1  0  0  0
 25 24  1  0  0  0  0
 27 25  1  0  0  0  0
 28 27  1  0  0  0  0
 29 30  1  1  0  0  0
 29 28  1  0  0  0  0
 31 32  1  6  0  0  0
 31 30  1  0  0  0  0
 33 31  1  0  0  0  0
 33 35  1  0  0  0  0
 34 35  1  0  0  0  0
 36 39  1  6  0  0  0
 36 29  1  0  0  0  0
 37 38  1  0  0  0  0
 38 36  1  0  0  0  0
 40 39  1  6  0  0  0
 40 42  1  0  0  0  0
 41 42  1  0  0  0  0
 43 41  2  0  0  0  0
 44 43  1  0  0  0  0
 44 40  1  0  0  0  0
M  END
>  <MODEL>
7

>  <REMARK>
 VINA RESULT:      -6.7      2.798      8.261
  Name = 
  18 active torsions:
  status: ('A' for Active; 'I' for Inactive)
    1  A    between atoms: C_2  and  C_27
    2  A    between atoms: C_3  and  N_16
    3  A    between atoms: C_4  and  O_7
    4  A    between atoms: C_4  and  C_27
    5  A    between atoms: C_4  and  C_28
    6  A    between atoms: C_5  and  C_26
    7  A    between atoms: C_5  and  C_35
    8  A    between atoms: O_7  and  C_25
    9  A    between atoms: C_12  and  C_42
   10  A    between atoms: C_14  and  C_25
   11  A    between atoms: C_14  and  C_38
   12  A    between atoms: N_16  and  C_19
   13  A    between atoms: C_19  and  C_32
   14  A    between atoms: C_19  and  O_44
   15  A    between atoms: C_21  and  C_27
   16  A    between atoms: C_23  and  C_26
   17  A    between atoms: C_32  and  C_35
   18  A    between atoms: C_32  and  C_38
                            x       y       z     vdW  Elec       q    Type
                         _______ _______ _______ _____ _____    ______ ____

>  <TORSDO>
F 18

$$$$
=
 OpenBabel11062415503D

 44 48  0  0  1  0  0  0  0  0999 V2000
  186.0280  177.9510  138.1360 C   0  0  2  0  0  3  0  0  0  0  0  0
  187.3100  175.6540  136.1680 C   0  0  0  0  0  2  0  0  0  0  0  0
  188.8510  177.6030  136.5020 C   0  0  0  0  0  2  0  0  0  0  0  0
  187.6980  178.5750  136.2620 C   0  0  0  0  0  2  0  0  0  0  0  0
  186.3420  177.9520  136.6280 C   0  0  1  0  0  3  0  0  0  0  0  0
  186.1280  176.5960  135.9490 C   0  0  0  0  0  2  0  0  0  0  0  0
  188.6230  176.3090  135.7280 C   0  0  1  0  0  3  0  0  0  0  0  0
  190.4160  175.4970  137.2320 C   0  0  0  0  0  0  0  0  0  0  0  0
  191.7390  175.9090  137.0950 N   0  0  0  0  0  0  0  0  0  0  0  0
  189.8280  175.3780  135.9040 C   0  0  2  0  0  3  0  0  0  0  0  0
  190.9260  175.7440  134.9870 N   0  0  0  0  0  0  0  0  0  0  0  0
  189.8470  175.2550  138.3300 O   0  0  0  0  0  0  0  0  0  0  0  0
  192.6550  176.1770  138.1890 C   0  0  0  0  0  1  0  0  0  0  0  0
  192.0810  176.0830  135.7490 N   0  0  0  0  0  0  0  0  0  0  0  0
  184.5600  178.3620  138.3820 C   0  0  1  0  0  3  0  0  0  0  0  0
  183.8210  175.8620  138.3710 C   0  0  2  0  0  3  0  0  0  0  0  0
  183.7300  177.2300  139.0010 C   0  0  2  0  0  0  0  0  0  0  0  0
  183.1000  175.8480  137.1620 O   0  0  0  0  0  0  0  0  0  0  0  0
  182.5920  176.6820  138.1760 C   0  0  1  0  0  3  0  0  0  0  0  0
  183.4880  177.2230  140.4340 N   0  0  0  0  0  1  0  0  0  0  0  0
  184.4500  179.5970  139.2230 C   0  0  0  0  0  0  0  0  0  0  0  0
  184.8220  179.5530  140.5600 O   0  0  0  0  0  1  0  0  0  0  0  0
  184.0370  180.6780  138.7240 O   0  0  0  0  0  0  0  0  0  0  0  0
  186.9130  178.8050  138.8200 O   0  0  0  0  0  0  0  0  0  0  0  0
  187.6320  178.0080  139.7240 C   0  0  1  0  0  3  0  0  0  0  0  0
  189.1260  178.1900  139.5260 C   0  0  0  0  0  1  0  0  0  0  0  0
  187.2900  178.4370  141.1410 C   0  0  0  0  0  2  0  0  0  0  0  0
  187.5340  177.3060  142.1240 C   0  0  0  0  0  2  0  0  0  0  0  0
  188.2640  177.8100  143.3730 C   0  0  2  0  0  3  0  0  0  0  0  0
  189.5930  177.0880  143.5970 C   0  0  0  0  0  2  0  0  0  0  0  0
  190.8050  177.9880  143.4100 C   0  0  2  0  0  3  0  0  0  0  0  0
  191.5800  177.5160  142.3500 O   0  0  0  0  0  1  0  0  0  0  0  0
  191.6290  177.9860  144.6860 C   0  0  0  0  0  2  0  0  0  0  0  0
  191.9590  176.8160  146.7960 N   0  0  0  0  0  1  0  0  0  0  0  0
  191.4540  176.6790  145.4410 C   0  0  0  0  0  2  0  0  0  0  0  0
  187.3860  177.8470  144.6320 C   0  0  1  0  0  3  0  0  0  0  0  0
  187.9910  177.0800  146.6220 C   0  0  0  0  0  1  0  0  0  0  0  0
  188.1690  178.1550  145.7500 O   0  0  0  0  0  0  0  0  0  0  0  0
  186.3100  178.8230  144.4960 N   0  0  0  0  0  2  0  0  0  0  0  0
  185.0490  178.1530  144.7770 C   0  0  1  0  0  3  0  0  0  0  0  0
  183.1310  179.3640  145.0320 N   0  0  0  0  0  0  0  0  0  0  0  0
  184.2780  178.9500  145.6630 O   0  0  0  0  0  0  0  0  0  0  0  0
  183.1020  178.9060  143.8520 N   0  0  0  0  0  0  0  0  0  0  0  0
  184.2300  178.1590  143.6160 O   0  0  0  0  0  0  0  0  0  0  0  0
  1 15  1  0  0  0  0
  1 24  1  1  0  0  0
  4  3  1  0  0  0  0
  4  5  1  0  0  0  0
  5  1  1  1  0  0  0
  6  2  1  0  0  0  0
  6  5  1  0  0  0  0
  7 10  1  0  0  0  0
  7  2  1  1  0  0  0
  7  3  1  0  0  0  0
  8 12  2  0  0  0  0
  9  8  1  0  0  0  0
  9 13  1  0  0  0  0
 10 11  1  6  0  0  0
 10  8  1  0  0  0  0
 11 14  2  0  0  0  0
 14  9  1  0  0  0  0
 15 17  1  0  0  0  0
 15 21  1  1  0  0  0
 16 18  1  6  0  0  0
 16 17  1  0  0  0  0
 17 20  1  1  0  0  0
 19 18  1  6  0  0  0
 19 16  1  0  0  0  0
 19 17  1  0  0  0  0
 21 22  1  0  0  0  0
 23 21  2  0  0  0  0
 24 25  1  0  0  0  0
 25 26  1  6  0  0  0
 25 27  1  0  0  0  0
 27 28  1  0  0  0  0
 29 28  1  6  0  0  0
 29 30  1  0  0  0  0
 29 36  1  0  0  0  0
 31 32  1  6  0  0  0
 31 30  1  0  0  0  0
 31 33  1  0  0  0  0
 33 35  1  0  0  0  0
 35 34  1  0  0  0  0
 36 39  1  6  0  0  0
 36 38  1  0  0  0  0
 38 37  1  0  0  0  0
 40 39  1  6  0  0  0
 40 42  1  0  0  0  0
 41 42  1  0  0  0  0
 43 41  2  0  0  0  0
 44 43  1  0  0  0  0
 44 40  1  0  0  0  0
M  END
>  <MODEL>
8

>  <REMARK>
 VINA RESULT:      -6.5      2.738      7.350
  Name = 
  18 active torsions:
  status: ('A' for Active; 'I' for Inactive)
    1  A    between atoms: C_2  and  C_27
    2  A    between atoms: C_3  and  N_16
    3  A    between atoms: C_4  and  O_7
    4  A    between atoms: C_4  and  C_27
    5  A    between atoms: C_4  and  C_28
    6  A    between atoms: C_5  and  C_26
    7  A    between atoms: C_5  and  C_35
    8  A    between atoms: O_7  and  C_25
    9  A    between atoms: C_12  and  C_42
   10  A    between atoms: C_14  and  C_25
   11  A    between atoms: C_14  and  C_38
   12  A    between atoms: N_16  and  C_19
   13  A    between atoms: C_19  and  C_32
   14  A    between atoms: C_19  and  O_44
   15  A    between atoms: C_21  and  C_27
   16  A    between atoms: C_23  and  C_26
   17  A    between atoms: C_32  and  C_35
   18  A    between atoms: C_32  and  C_38
                            x       y       z     vdW  Elec       q    Type
                         _______ _______ _______ _____ _____    ______ ____

>  <TORSDO>
F 18

$$$$
=
 OpenBabel11062415503D

 44 48  0  0  1  0  0  0  0  0999 V2000
  188.5550  177.5200  144.2970 C   0  0  2  0  0  3  0  0  0  0  0  0
  191.4430  178.2330  142.9010 C   0  0  0  0  0  2  0  0  0  0  0  0
  190.2920  176.2990  141.7960 C   0  0  0  0  0  2  0  0  0  0  0  0
  189.9810  175.6860  143.1580 C   0  0  0  0  0  2  0  0  0  0  0  0
  189.8930  176.7550  144.2580 C   0  0  1  0  0  3  0  0  0  0  0  0
  191.1260  177.6620  144.2820 C   0  0  0  0  0  2  0  0  0  0  0  0
  191.5790  177.1150  141.8630 C   0  0  1  0  0  3  0  0  0  0  0  0
  191.2830  176.8820  139.4150 C   0  0  0  0  0  0  0  0  0  0  0  0
  192.2690  176.3320  138.6000 N   0  0  0  0  0  0  0  0  0  0  0  0
  191.9300  177.6510  140.4700 C   0  0  2  0  0  3  0  0  0  0  0  0
  193.3730  177.5090  140.1900 N   0  0  0  0  0  0  0  0  0  0  0  0
  190.0430  176.7410  139.2410 O   0  0  0  0  0  0  0  0  0  0  0  0
  192.0310  175.4690  137.4570 C   0  0  0  0  0  1  0  0  0  0  0  0
  193.5490  176.6780  139.0450 N   0  0  0  0  0  0  0  0  0  0  0  0
  187.8230  177.2600  145.6300 C   0  0  1  0  0  3  0  0  0  0  0  0
  189.2790  176.6940  147.7170 C   0  0  2  0  0  3  0  0  0  0  0  0
  188.6280  177.7390  146.8450 C   0  0  2  0  0  0  0  0  0  0  0  0
  188.3020  176.0580  148.5060 O   0  0  0  0  0  0  0  0  0  0  0  0
  188.0720  177.4150  148.2100 C   0  0  1  0  0  3  0  0  0  0  0  0
  189.3420  179.0020  146.7750 N   0  0  0  0  0  1  0  0  0  0  0  0
  186.4520  177.8650  145.6520 C   0  0  0  0  0  0  0  0  0  0  0  0
  186.3110  179.2410  145.7710 O   0  0  0  0  0  1  0  0  0  0  0  0
  185.4290  177.1380  145.5500 O   0  0  0  0  0  0  0  0  0  0  0  0
  187.7530  177.1550  143.2000 O   0  0  0  0  0  0  0  0  0  0  0  0
  187.3040  178.3460  142.6090 C   0  0  1  0  0  3  0  0  0  0  0  0
  188.0530  178.6180  141.3170 C   0  0  0  0  0  1  0  0  0  0  0  0
  185.8280  178.2070  142.2760 C   0  0  0  0  0  2  0  0  0  0  0  0
  185.3500  179.3760  141.4320 C   0  0  0  0  0  2  0  0  0  0  0  0
  184.0190  179.0520  140.7470 C   0  0  2  0  0  3  0  0  0  0  0  0
  183.1090  178.1950  141.6280 C   0  0  0  0  0  2  0  0  0  0  0  0
  182.2510  179.0130  142.5820 C   0  0  2  0  0  3  0  0  0  0  0  0
  182.6570  178.7770  143.8960 O   0  0  0  0  0  1  0  0  0  0  0  0
  180.7970  178.6100  142.4160 C   0  0  0  0  0  2  0  0  0  0  0  0
  179.3170  178.3140  144.3270 N   0  0  0  0  0  1  0  0  0  0  0  0
  179.9220  179.3000  143.4490 C   0  0  0  0  0  2  0  0  0  0  0  0
  184.1720  178.4910  139.3260 C   0  0  1  0  0  3  0  0  0  0  0  0
  182.7190  180.0490  138.7170 C   0  0  0  0  0  1  0  0  0  0  0  0
  182.9890  178.6840  138.6070 O   0  0  0  0  0  0  0  0  0  0  0  0
  185.2860  179.1230  138.6280 N   0  0  0  0  0  2  0  0  0  0  0  0
  186.1650  178.0760  138.1290 C   0  0  1  0  0  3  0  0  0  0  0  0
  186.7410  178.0080  135.9210 N   0  0  0  0  0  0  0  0  0  0  0  0
  185.7540  177.6970  136.8240 O   0  0  0  0  0  0  0  0  0  0  0  0
  187.7230  178.5330  136.5230 N   0  0  0  0  0  0  0  0  0  0  0  0
  187.4550  178.6110  137.8680 O   0  0  0  0  0  0  0  0  0  0  0  0
  1 24  1  6  0  0  0
  1 15  1  0  0  0  0
  2  6  1  0  0  0  0
  3  4  1  0  0  0  0
  4  5  1  0  0  0  0
  5  6  1  0  0  0  0
  5  1  1  6  0  0  0
  7  3  1  6  0  0  0
  7  2  1  0  0  0  0
  9 14  1  0  0  0  0
  9  8  1  0  0  0  0
 10  8  1  6  0  0  0
 10  7  1  0  0  0  0
 11 10  1  0  0  0  0
 12  8  2  0  0  0  0
 13  9  1  0  0  0  0
 14 11  2  0  0  0  0
 15 21  1  6  0  0  0
 15 17  1  0  0  0  0
 16 19  1  0  0  0  0
 16 18  1  6  0  0  0
 17 20  1  6  0  0  0
 17 16  1  0  0  0  0
 17 19  1  0  0  0  0
 19 18  1  6  0  0  0
 21 22  1  0  0  0  0
 23 21  2  0  0  0  0
 25 26  1  6  0  0  0
 25 24  1  0  0  0  0
 27 25  1  0  0  0  0
 28 27  1  0  0  0  0
 29 28  1  1  0  0  0
 29 30  1  0  0  0  0
 30 31  1  0  0  0  0
 31 32  1  1  0  0  0
 33 31  1  0  0  0  0
 33 35  1  0  0  0  0
 35 34  1  0  0  0  0
 36 38  1  6  0  0  0
 36 29  1  0  0  0  0
 38 37  1  0  0  0  0
 39 36  1  0  0  0  0
 40 39  1  6  0  0  0
 41 43  2  0  0  0  0
 41 42  1  0  0  0  0
 42 40  1  0  0  0  0
 43 44  1  0  0  0  0
 44 40  1  0  0  0  0
M  END
>  <MODEL>
9

>  <REMARK>
 VINA RESULT:      -6.4      2.214      4.580
  Name = 
  18 active torsions:
  status: ('A' for Active; 'I' for Inactive)
    1  A    between atoms: C_2  and  C_27
    2  A    between atoms: C_3  and  N_16
    3  A    between atoms: C_4  and  O_7
    4  A    between atoms: C_4  and  C_27
    5  A    between atoms: C_4  and  C_28
    6  A    between atoms: C_5  and  C_26
    7  A    between atoms: C_5  and  C_35
    8  A    between atoms: O_7  and  C_25
    9  A    between atoms: C_12  and  C_42
   10  A    between atoms: C_14  and  C_25
   11  A    between atoms: C_14  and  C_38
   12  A    between atoms: N_16  and  C_19
   13  A    between atoms: C_19  and  C_32
   14  A    between atoms: C_19  and  O_44
   15  A    between atoms: C_21  and  C_27
   16  A    between atoms: C_23  and  C_26
   17  A    between atoms: C_32  and  C_35
   18  A    between atoms: C_32  and  C_38
                            x       y       z     vdW  Elec       q    Type
                         _______ _______ _______ _____ _____    ______ ____

>  <TORSDO>
F 18

$$$$
