=
 OpenBabel11062413053D

 40 44  0  0  1  0  0  0  0  0999 V2000
  189.6310  176.2650  142.5910 O   0  0  0  0  0  0  0  0  0  0  0  0
  187.7560  178.2520  140.2630 C   0  0  2  0  0  3  0  0  0  0  0  0
  189.4780  177.0340  139.1740 N   0  0  0  0  0  2  0  0  0  0  0  0
  187.7070  178.5850  138.8270 N   0  0  1  0  0  0  0  0  0  0  0  0
  187.9360  179.4220  141.0060 O   0  0  0  0  0  1  0  0  0  0  0  0
  187.9200  176.6450  137.3650 C   0  0  0  0  0  2  0  0  0  0  0  0
  188.9290  177.3790  140.4170 C   0  0  0  0  0  0  0  0  0  0  0  0
  189.2870  176.8050  141.5330 C   0  0  0  0  0  0  0  0  0  0  0  0
  188.6830  177.6950  138.1560 C   0  0  2  0  0  3  0  0  0  0  0  0
  186.4660  176.8410  137.7190 C   0  0  1  0  0  3  0  0  0  0  0  0
  186.3970  178.2710  138.2280 C   0  0  1  0  0  3  0  0  0  0  0  0
  183.3700  177.6260  140.6220 C   0  0  2  0  0  3  0  0  0  0  0  0
  183.0280  179.7990  139.3690 C   0  0  0  0  0  2  0  0  0  0  0  0
  184.1510  179.4130  138.4120 C   0  0  0  0  0  2  0  0  0  0  0  0
  185.1920  178.5680  139.1450 C   0  0  1  0  0  3  0  0  0  0  0  0
  184.5240  177.2910  139.6650 C   0  0  0  0  0  2  0  0  0  0  0  0
  182.3550  178.5450  139.9270 C   0  0  0  0  0  2  0  0  0  0  0  0
  184.5060  179.1750  144.4610 C   0  0  0  0  0  3  0  0  0  0  0  0
  182.9890  179.0420  142.6220 N   0  0  0  0  0  0  0  0  0  0  0  0
  183.3100  179.5450  143.8430 C   0  0  0  0  0  3  0  0  0  0  0  0
  185.3670  178.2810  143.8160 C   0  0  0  0  0  0  0  0  0  0  0  0
  183.8080  178.1770  141.9590 C   0  0  0  0  0  0  0  0  0  0  0  0
  185.0120  177.7760  142.5610 C   0  0  0  0  0  3  0  0  0  0  0  0
  186.6330  177.8840  144.4530 C   0  0  0  0  0  0  0  0  0  0  0  0
  187.7360  178.1870  143.9170 O   0  0  0  0  0  0  0  0  0  0  0  0
  187.1720  177.6740  146.8500 C   0  0  0  0  0  1  0  0  0  0  0  0
  186.6060  177.1630  145.6510 O   0  0  0  0  0  0  0  0  0  0  0  0
  185.6060  176.6230  136.5090 C   0  0  0  0  0  0  0  0  0  0  0  0
  185.0500  175.3350  136.2290 N   0  0  0  0  0  2  0  0  0  0  0  0
  185.3590  177.5810  135.7290 O   0  0  0  0  0  0  0  0  0  0  0  0
  185.2830  174.1630  137.0720 C   0  0  1  0  0  3  0  0  0  0  0  0
  183.7280  172.3030  137.2800 O   0  0  0  0  0  0  0  0  0  0  0  0
  182.8140  174.5170  137.2810 C   0  0  2  0  0  3  0  0  0  0  0  0
  182.5860  172.3230  136.4620 C   0  0  0  0  0  2  0  0  0  0  0  0
  181.2400  174.0630  135.5790 O   0  0  0  0  0  1  0  0  0  0  0  0
  183.9780  173.6330  137.6730 C   0  0  2  0  0  3  0  0  0  0  0  0
  182.3190  175.1610  138.4000 F   0  0  0  0  0  0  0  0  0  0  0  0
  181.7900  173.5650  136.7580 C   0  0  2  0  0  3  0  0  0  0  0  0
  186.0600  173.0770  136.3260 C   0  0  0  0  0  2  0  0  0  0  0  0
  187.4300  172.8170  136.9300 C   0  0  0  0  0  1  0  0  0  0  0  0
  2  7  1  0  0  0  0
  2  5  1  1  0  0  0
  3  7  1  0  0  0  0
  4  2  1  0  0  0  0
  6 10  1  0  0  0  0
  6  9  1  0  0  0  0
  7  8  2  0  0  0  0
  8  1  2  0  0  0  0
  9  4  1  0  0  0  0
  9  3  1  0  0  0  0
 10 11  1  0  0  0  0
 11  4  1  0  0  0  0
 11 15  1  0  0  0  0
 12 22  1  0  0  0  0
 13 17  1  0  0  0  0
 14 15  1  0  0  0  0
 14 13  1  0  0  0  0
 15 16  1  0  0  0  0
 16 12  1  0  0  0  0
 17 12  1  0  0  0  0
 19 20  2  0  0  0  0
 20 18  1  0  0  0  0
 21 24  1  0  0  0  0
 21 18  2  0  0  0  0
 22 23  2  0  0  0  0
 22 19  1  0  0  0  0
 23 21  1  0  0  0  0
 24 27  1  0  0  0  0
 25 24  2  0  0  0  0
 27 26  1  0  0  0  0
 28 10  1  0  0  0  0
 29 28  1  0  0  0  0
 29 31  1  0  0  0  0
 30 28  2  0  0  0  0
 31 36  1  0  0  0  0
 32 36  1  0  0  0  0
 33 36  1  0  0  0  0
 33 37  1  0  0  0  0
 34 38  1  0  0  0  0
 34 32  1  0  0  0  0
 35 38  1  0  0  0  0
 38 33  1  0  0  0  0
 39 40  1  0  0  0  0
 39 31  1  0  0  0  0
M  END
>  <MODEL>
1

>  <REMARK>
 VINA RESULT:      -6.3      0.000      0.000
  Name = 
  8 active torsions:
  status: ('A' for Active; 'I' for Inactive)
    1  A    between atoms: C_2  and  C_19
    2  A    between atoms: C_4  and  C_35
    3  A    between atoms: C_12  and  C_28
    4  A    between atoms: O_13  and  C_28
    5  A    between atoms: C_14  and  C_18
    6  A    between atoms: C_14  and  C_29
    7  A    between atoms: C_14  and  N_30
    8  A    between atoms: C_27  and  C_38
                            x       y       z     vdW  Elec       q    Type
                         _______ _______ _______ _____ _____    ______ ____

>  <TORSDO>
F 8

$$$$
=
 OpenBabel11062413053D

 40 44  0  0  1  0  0  0  0  0999 V2000
  182.4940  174.5940  137.8660 O   0  0  0  0  0  0  0  0  0  0  0  0
  185.2180  176.7480  136.9610 C   0  0  2  0  0  3  0  0  0  0  0  0
  183.8260  177.7520  138.6000 N   0  0  0  0  0  2  0  0  0  0  0  0
  185.7660  178.0840  137.2620 N   0  0  1  0  0  0  0  0  0  0  0  0
  184.9310  176.6590  135.5970 O   0  0  0  0  0  1  0  0  0  0  0  0
  185.8370  178.5990  139.6450 C   0  0  0  0  0  2  0  0  0  0  0  0
  183.9750  176.6550  137.7400 C   0  0  0  0  0  0  0  0  0  0  0  0
  183.2160  175.5960  137.8060 C   0  0  0  0  0  0  0  0  0  0  0  0
  184.9730  178.6170  138.3950 C   0  0  2  0  0  3  0  0  0  0  0  0
  187.1090  177.8890  139.2540 C   0  0  1  0  0  3  0  0  0  0  0  0
  187.1590  178.0210  137.7410 C   0  0  1  0  0  3  0  0  0  0  0  0
  189.5950  174.9940  137.2810 C   0  0  2  0  0  3  0  0  0  0  0  0
  189.7790  176.5550  135.2980 C   0  0  0  0  0  2  0  0  0  0  0  0
  189.0190  177.6210  136.0780 C   0  0  0  0  0  2  0  0  0  0  0  0
  188.0250  176.9590  137.0320 C   0  0  1  0  0  3  0  0  0  0  0  0
  188.7940  176.0760  138.0210 C   0  0  0  0  0  2  0  0  0  0  0  0
  190.5390  175.6390  136.2570 C   0  0  0  0  0  2  0  0  0  0  0  0
  187.2800  171.8250  135.5400 C   0  0  0  0  0  3  0  0  0  0  0  0
  189.3250  173.0320  135.7890 N   0  0  0  0  0  0  0  0  0  0  0  0
  188.6280  172.0110  135.2260 C   0  0  0  0  0  3  0  0  0  0  0  0
  186.6570  172.6940  136.4420 C   0  0  0  0  0  0  0  0  0  0  0  0
  188.7490  173.9050  136.6630 C   0  0  0  0  0  0  0  0  0  0  0  0
  187.3990  173.7360  137.0090 C   0  0  0  0  0  3  0  0  0  0  0  0
  185.2360  172.5140  136.7810 C   0  0  0  0  0  0  0  0  0  0  0  0
  184.8600  172.5620  137.9860 O   0  0  0  0  0  0  0  0  0  0  0  0
  183.3130  171.2720  135.8650 C   0  0  0  0  0  1  0  0  0  0  0  0
  184.3080  172.2810  135.7620 O   0  0  0  0  0  0  0  0  0  0  0  0
  188.2880  178.5340  139.9220 C   0  0  0  0  0  0  0  0  0  0  0  0
  188.5290  178.3460  141.3200 N   0  0  0  0  0  2  0  0  0  0  0  0
  189.0830  179.2430  139.2510 O   0  0  0  0  0  0  0  0  0  0  0  0
  187.6610  177.5440  142.1800 C   0  0  1  0  0  3  0  0  0  0  0  0
  188.1670  176.6210  144.3740 O   0  0  0  0  0  0  0  0  0  0  0  0
  189.9470  176.7150  142.7740 C   0  0  2  0  0  3  0  0  0  0  0  0
  189.3300  177.0820  145.0140 C   0  0  0  0  0  2  0  0  0  0  0  0
  191.4420  177.8190  144.2310 O   0  0  0  0  0  1  0  0  0  0  0  0
  188.4620  176.5290  142.9990 C   0  0  2  0  0  3  0  0  0  0  0  0
  190.4590  175.6200  142.1040 F   0  0  0  0  0  0  0  0  0  0  0  0
  190.5230  176.7770  144.1490 C   0  0  2  0  0  3  0  0  0  0  0  0
  186.7700  178.4230  143.0610 C   0  0  0  0  0  2  0  0  0  0  0  0
  185.3060  178.0250  142.9960 C   0  0  0  0  0  1  0  0  0  0  0  0
  2  5  1  6  0  0  0
  2  4  1  0  0  0  0
  2  7  1  0  0  0  0
  4 11  1  0  0  0  0
  4  9  1  0  0  0  0
  7  8  2  0  0  0  0
  7  3  1  0  0  0  0
  8  1  2  0  0  0  0
  9  3  1  0  0  0  0
  9  6  1  0  0  0  0
 10  6  1  0  0  0  0
 10 28  1  0  0  0  0
 11 10  1  0  0  0  0
 12 16  1  0  0  0  0
 13 14  1  0  0  0  0
 13 17  1  0  0  0  0
 14 15  1  0  0  0  0
 15 11  1  0  0  0  0
 15 16  1  0  0  0  0
 17 12  1  0  0  0  0
 18 21  1  0  0  0  0
 19 22  2  0  0  0  0
 20 18  2  0  0  0  0
 20 19  1  0  0  0  0
 21 24  1  0  0  0  0
 21 23  2  0  0  0  0
 22 23  1  0  0  0  0
 22 12  1  0  0  0  0
 24 25  2  0  0  0  0
 27 26  1  0  0  0  0
 27 24  1  0  0  0  0
 28 29  1  0  0  0  0
 29 31  1  0  0  0  0
 30 28  2  0  0  0  0
 31 36  1  0  0  0  0
 31 39  1  0  0  0  0
 32 34  1  0  0  0  0
 33 36  1  0  0  0  0
 33 38  1  0  0  0  0
 36 32  1  0  0  0  0
 37 33  1  0  0  0  0
 38 35  1  0  0  0  0
 38 34  1  0  0  0  0
 40 39  1  0  0  0  0
M  END
>  <MODEL>
2

>  <REMARK>
 VINA RESULT:      -6.2      2.450      8.308
  Name = 
  8 active torsions:
  status: ('A' for Active; 'I' for Inactive)
    1  A    between atoms: C_2  and  C_19
    2  A    between atoms: C_4  and  C_35
    3  A    between atoms: C_12  and  C_28
    4  A    between atoms: O_13  and  C_28
    5  A    between atoms: C_14  and  C_18
    6  A    between atoms: C_14  and  C_29
    7  A    between atoms: C_14  and  N_30
    8  A    between atoms: C_27  and  C_38
                            x       y       z     vdW  Elec       q    Type
                         _______ _______ _______ _____ _____    ______ ____

>  <TORSDO>
F 8

$$$$
=
 OpenBabel11062413053D

 40 44  0  0  1  0  0  0  0  0999 V2000
  191.8660  174.5580  144.7060 O   0  0  0  0  0  0  0  0  0  0  0  0
  190.4400  177.5350  143.2960 C   0  0  2  0  0  3  0  0  0  0  0  0
  192.2850  176.7660  142.0140 N   0  0  0  0  0  2  0  0  0  0  0  0
  190.6310  178.4700  142.1700 N   0  0  1  0  0  0  0  0  0  0  0  0
  190.5270  178.2350  144.5020 O   0  0  0  0  0  1  0  0  0  0  0  0
  191.0280  177.3620  140.0340 C   0  0  0  0  0  2  0  0  0  0  0  0
  191.5510  176.5780  143.1950 C   0  0  0  0  0  0  0  0  0  0  0  0
  191.7110  175.5400  143.9690 C   0  0  0  0  0  0  0  0  0  0  0  0
  191.6800  177.8790  141.3070 C   0  0  2  0  0  3  0  0  0  0  0  0
  189.5420  177.5180  140.2420 C   0  0  1  0  0  3  0  0  0  0  0  0
  189.4270  178.5770  141.3260 C   0  0  1  0  0  3  0  0  0  0  0  0
  186.3830  177.1500  143.3270 C   0  0  2  0  0  3  0  0  0  0  0  0
  185.7070  179.2780  142.1330 C   0  0  0  0  0  2  0  0  0  0  0  0
  186.9790  179.2010  141.2970 C   0  0  0  0  0  2  0  0  0  0  0  0
  188.0980  178.5520  142.1100 C   0  0  1  0  0  3  0  0  0  0  0  0
  187.6750  177.1310  142.4970 C   0  0  0  0  0  2  0  0  0  0  0  0
  185.2700  177.8760  142.5580 C   0  0  0  0  0  2  0  0  0  0  0  0
  186.7430  178.6710  147.3260 C   0  0  0  0  0  3  0  0  0  0  0  0
  185.5730  178.4880  145.2520 N   0  0  0  0  0  0  0  0  0  0  0  0
  185.6480  178.9800  146.5170 C   0  0  0  0  0  3  0  0  0  0  0  0
  187.7590  177.8500  146.8260 C   0  0  0  0  0  0  0  0  0  0  0  0
  186.5490  177.6940  144.7270 C   0  0  0  0  0  0  0  0  0  0  0  0
  187.6560  177.3550  145.5210 C   0  0  0  0  0  3  0  0  0  0  0  0
  188.9210  177.5180  147.6650 C   0  0  0  0  0  0  0  0  0  0  0  0
  189.0590  178.0530  148.8000 O   0  0  0  0  0  0  0  0  0  0  0  0
  191.2580  176.7470  147.4960 C   0  0  0  0  0  1  0  0  0  0  0  0
  189.8760  176.6120  147.1930 O   0  0  0  0  0  0  0  0  0  0  0  0
  188.8830  177.9380  138.9610 C   0  0  0  0  0  0  0  0  0  0  0  0
  188.5640  176.9750  137.9530 N   0  0  0  0  0  2  0  0  0  0  0  0
  188.5950  179.1490  138.7670 O   0  0  0  0  0  0  0  0  0  0  0  0
  188.8620  175.5490  138.0860 C   0  0  1  0  0  3  0  0  0  0  0  0
  188.2880  173.8360  136.4560 O   0  0  0  0  0  0  0  0  0  0  0  0
  186.6700  175.5510  136.8780 C   0  0  2  0  0  3  0  0  0  0  0  0
  187.7520  174.2670  135.2310 C   0  0  0  0  0  2  0  0  0  0  0  0
  186.3900  176.1010  134.5980 O   0  0  0  0  0  1  0  0  0  0  0  0
  187.7680  174.6840  137.4550 C   0  0  2  0  0  3  0  0  0  0  0  0
  185.5050  175.3700  137.6000 F   0  0  0  0  0  0  0  0  0  0  0  0
  186.4850  175.0350  135.4900 C   0  0  2  0  0  3  0  0  0  0  0  0
  190.2520  175.2100  137.5450 C   0  0  0  0  0  2  0  0  0  0  0  0
  190.7460  176.2210  136.5240 C   0  0  0  0  0  1  0  0  0  0  0  0
  2  5  1  1  0  0  0
  3  7  1  0  0  0  0
  4  2  1  0  0  0  0
  6 10  1  0  0  0  0
  6  9  1  0  0  0  0
  7  2  1  0  0  0  0
  7  8  2  0  0  0  0
  8  1  2  0  0  0  0
  9  3  1  0  0  0  0
  9  4  1  0  0  0  0
 10 11  1  0  0  0  0
 11 15  1  0  0  0  0
 11  4  1  0  0  0  0
 12 22  1  0  0  0  0
 13 17  1  0  0  0  0
 14 15  1  0  0  0  0
 14 13  1  0  0  0  0
 15 16  1  0  0  0  0
 16 12  1  0  0  0  0
 17 12  1  0  0  0  0
 19 20  1  0  0  0  0
 20 18  2  0  0  0  0
 21 18  1  0  0  0  0
 21 24  1  0  0  0  0
 22 19  2  0  0  0  0
 22 23  1  0  0  0  0
 23 21  2  0  0  0  0
 24 25  2  0  0  0  0
 27 26  1  0  0  0  0
 27 24  1  0  0  0  0
 28 10  1  0  0  0  0
 29 31  1  0  0  0  0
 29 28  1  0  0  0  0
 30 28  2  0  0  0  0
 32 36  1  0  0  0  0
 33 36  1  0  0  0  0
 33 37  1  0  0  0  0
 34 38  1  0  0  0  0
 34 32  1  0  0  0  0
 35 38  1  0  0  0  0
 36 31  1  0  0  0  0
 38 33  1  0  0  0  0
 39 31  1  0  0  0  0
 40 39  1  0  0  0  0
M  END
>  <MODEL>
3

>  <REMARK>
 VINA RESULT:      -6.1      2.937      4.244
  Name = 
  8 active torsions:
  status: ('A' for Active; 'I' for Inactive)
    1  A    between atoms: C_2  and  C_19
    2  A    between atoms: C_4  and  C_35
    3  A    between atoms: C_12  and  C_28
    4  A    between atoms: O_13  and  C_28
    5  A    between atoms: C_14  and  C_18
    6  A    between atoms: C_14  and  C_29
    7  A    between atoms: C_14  and  N_30
    8  A    between atoms: C_27  and  C_38
                            x       y       z     vdW  Elec       q    Type
                         _______ _______ _______ _____ _____    ______ ____

>  <TORSDO>
F 8

$$$$
=
 OpenBabel11062413053D

 40 44  0  0  1  0  0  0  0  0999 V2000
  178.9480  174.9630  141.6220 O   0  0  0  0  0  0  0  0  0  0  0  0
  181.1180  177.0820  139.7030 C   0  0  2  0  0  3  0  0  0  0  0  0
  180.4360  178.1360  141.7180 N   0  0  0  0  0  2  0  0  0  0  0  0
  181.7290  178.4240  139.7400 N   0  0  1  0  0  0  0  0  0  0  0  0
  180.3390  176.9560  138.5490 O   0  0  0  0  0  1  0  0  0  0  0  0
  182.6870  179.0030  141.9070 C   0  0  0  0  0  2  0  0  0  0  0  0
  180.2580  177.0150  140.8940 C   0  0  0  0  0  0  0  0  0  0  0  0
  179.5880  175.9600  141.2690 C   0  0  0  0  0  0  0  0  0  0  0  0
  181.4160  178.9900  141.0730 C   0  0  2  0  0  3  0  0  0  0  0  0
  183.7240  178.2770  141.0860 C   0  0  1  0  0  3  0  0  0  0  0  0
  183.2000  178.3680  139.6620 C   0  0  1  0  0  3  0  0  0  0  0  0
  184.1680  176.5860  136.3150 C   0  0  2  0  0  3  0  0  0  0  0  0
  183.6970  174.8590  138.1050 C   0  0  0  0  0  2  0  0  0  0  0  0
  183.0620  175.9420  138.9700 C   0  0  0  0  0  2  0  0  0  0  0  0
  183.7430  177.2850  138.7080 C   0  0  1  0  0  3  0  0  0  0  0  0
  183.5600  177.6580  137.2320 C   0  0  0  0  0  2  0  0  0  0  0  0
  183.5530  175.2140  136.6250 C   0  0  0  0  0  2  0  0  0  0  0  0
  188.4570  176.4390  136.2160 C   0  0  0  0  0  3  0  0  0  0  0  0
  186.3170  175.5520  135.6360 N   0  0  0  0  0  0  0  0  0  0  0  0
  187.6730  175.4790  135.5740 C   0  0  0  0  0  3  0  0  0  0  0  0
  187.8370  177.4770  136.9190 C   0  0  0  0  0  0  0  0  0  0  0  0
  185.6780  176.5440  136.3210 C   0  0  0  0  0  0  0  0  0  0  0  0
  186.4400  177.5310  136.9650 C   0  0  0  0  0  3  0  0  0  0  0  0
  188.6500  178.4950  137.6040 C   0  0  0  0  0  0  0  0  0  0  0  0
  188.6930  179.6770  137.1610 O   0  0  0  0  0  0  0  0  0  0  0  0
  188.7500  177.8740  139.9880 C   0  0  0  0  0  1  0  0  0  0  0  0
  189.3800  178.1420  138.7430 O   0  0  0  0  0  0  0  0  0  0  0  0
  185.0630  178.9360  141.2450 C   0  0  0  0  0  0  0  0  0  0  0  0
  185.7780  178.8490  142.4800 N   0  0  0  0  0  2  0  0  0  0  0  0
  185.5730  179.5690  140.2820 O   0  0  0  0  0  0  0  0  0  0  0  0
  185.2660  178.1400  143.6520 C   0  0  1  0  0  3  0  0  0  0  0  0
  186.4420  177.2620  145.5930 O   0  0  0  0  0  0  0  0  0  0  0  0
  187.6270  177.3190  143.5120 C   0  0  2  0  0  3  0  0  0  0  0  0
  187.7450  177.7330  145.8250 C   0  0  0  0  0  2  0  0  0  0  0  0
  189.5000  178.4500  144.4010 O   0  0  0  0  0  1  0  0  0  0  0  0
  186.2890  177.1400  144.1970 C   0  0  2  0  0  3  0  0  0  0  0  0
  187.9070  176.2090  142.7380 F   0  0  0  0  0  0  0  0  0  0  0  0
  188.6060  177.4080  144.6340 C   0  0  2  0  0  3  0  0  0  0  0  0
  184.7760  179.1110  144.7280 C   0  0  0  0  0  2  0  0  0  0  0  0
  183.3100  178.9110  145.0740 C   0  0  0  0  0  1  0  0  0  0  0  0
  2  5  1  6  0  0  0
  2  4  1  0  0  0  0
  2  7  1  0  0  0  0
  4  9  1  0  0  0  0
  7  8  2  0  0  0  0
  7  3  1  0  0  0  0
  8  1  2  0  0  0  0
  9  3  1  0  0  0  0
  9  6  1  0  0  0  0
 10 28  1  0  0  0  0
 10  6  1  0  0  0  0
 11  4  1  0  0  0  0
 11 10  1  0  0  0  0
 12 22  1  0  0  0  0
 12 17  1  0  0  0  0
 12 16  1  0  0  0  0
 13 14  1  0  0  0  0
 15 14  1  0  0  0  0
 15 11  1  0  0  0  0
 16 15  1  0  0  0  0
 17 13  1  0  0  0  0
 18 21  1  0  0  0  0
 19 22  2  0  0  0  0
 20 19  1  0  0  0  0
 20 18  2  0  0  0  0
 21 23  2  0  0  0  0
 21 24  1  0  0  0  0
 22 23  1  0  0  0  0
 24 27  1  0  0  0  0
 25 24  2  0  0  0  0
 27 26  1  0  0  0  0
 28 29  1  0  0  0  0
 29 31  1  0  0  0  0
 30 28  2  0  0  0  0
 31 36  1  0  0  0  0
 31 39  1  0  0  0  0
 32 34  1  0  0  0  0
 33 36  1  0  0  0  0
 33 38  1  0  0  0  0
 35 38  1  0  0  0  0
 36 32  1  0  0  0  0
 37 33  1  0  0  0  0
 38 34  1  0  0  0  0
 39 40  1  0  0  0  0
M  END
>  <MODEL>
4

>  <REMARK>
 VINA RESULT:      -6.1      2.554      7.873
  Name = 
  8 active torsions:
  status: ('A' for Active; 'I' for Inactive)
    1  A    between atoms: C_2  and  C_19
    2  A    between atoms: C_4  and  C_35
    3  A    between atoms: C_12  and  C_28
    4  A    between atoms: O_13  and  C_28
    5  A    between atoms: C_14  and  C_18
    6  A    between atoms: C_14  and  C_29
    7  A    between atoms: C_14  and  N_30
    8  A    between atoms: C_27  and  C_38
                            x       y       z     vdW  Elec       q    Type
                         _______ _______ _______ _____ _____    ______ ____

>  <TORSDO>
F 8

$$$$
=
 OpenBabel11062413053D

 40 44  0  0  1  0  0  0  0  0999 V2000
  190.1100  174.3770  137.4910 O   0  0  0  0  0  0  0  0  0  0  0  0
  189.7860  177.1110  139.7940 C   0  0  2  0  0  3  0  0  0  0  0  0
  188.7160  177.5850  137.7290 N   0  0  0  0  0  2  0  0  0  0  0  0
  189.2120  178.4660  139.8840 N   0  0  1  0  0  0  0  0  0  0  0  0
  191.1620  177.1720  140.0280 O   0  0  0  0  0  1  0  0  0  0  0  0
  186.9430  178.6280  139.0030 C   0  0  0  0  0  2  0  0  0  0  0  0
  189.5340  176.6740  138.4130 C   0  0  0  0  0  0  0  0  0  0  0  0
  189.8270  175.4940  137.9410 C   0  0  0  0  0  0  0  0  0  0  0  0
  188.4200  178.6690  138.6470 C   0  0  2  0  0  3  0  0  0  0  0  0
  186.8820  178.2330  140.4580 C   0  0  1  0  0  3  0  0  0  0  0  0
  188.2560  178.5940  140.9990 C   0  0  1  0  0  3  0  0  0  0  0  0
  190.1240  177.7750  144.3380 C   0  0  2  0  0  3  0  0  0  0  0  0
  189.3900  175.6290  143.2140 C   0  0  0  0  0  2  0  0  0  0  0  0
  189.1080  176.4070  141.9330 C   0  0  0  0  0  2  0  0  0  0  0  0
  188.6640  177.8290  142.2740 C   0  0  1  0  0  3  0  0  0  0  0  0
  189.7880  178.5320  143.0440 C   0  0  0  0  0  2  0  0  0  0  0  0
  190.4910  176.3180  144.0190 C   0  0  0  0  0  2  0  0  0  0  0  0
  187.1820  178.1110  147.4460 C   0  0  0  0  0  3  0  0  0  0  0  0
  189.4330  177.7810  146.7190 N   0  0  0  0  0  0  0  0  0  0  0  0
  188.5320  177.8930  147.7300 C   0  0  0  0  0  3  0  0  0  0  0  0
  186.7670  178.2170  146.1140 C   0  0  0  0  0  0  0  0  0  0  0  0
  189.0640  177.8690  145.4090 C   0  0  0  0  0  0  0  0  0  0  0  0
  187.7160  178.1010  145.0920 C   0  0  0  0  0  3  0  0  0  0  0  0
  185.3480  178.4430  145.7980 C   0  0  0  0  0  0  0  0  0  0  0  0
  184.5120  178.6270  146.7270 O   0  0  0  0  0  0  0  0  0  0  0  0
  183.5690  178.6280  144.1000 C   0  0  0  0  0  1  0  0  0  0  0  0
  184.9310  178.4450  144.4630 O   0  0  0  0  0  0  0  0  0  0  0  0
  185.7810  178.9800  141.1500 C   0  0  0  0  0  0  0  0  0  0  0  0
  184.4150  178.7860  140.7720 N   0  0  0  0  0  2  0  0  0  0  0  0
  186.0520  179.7840  142.0820 O   0  0  0  0  0  0  0  0  0  0  0  0
  184.0030  177.8790  139.7020 C   0  0  1  0  0  3  0  0  0  0  0  0
  182.9850  175.6840  139.4420 O   0  0  0  0  0  0  0  0  0  0  0  0
  181.5650  177.4910  140.1160 C   0  0  2  0  0  3  0  0  0  0  0  0
  181.7840  175.6120  138.7170 C   0  0  0  0  0  2  0  0  0  0  0  0
  179.9590  177.0980  138.4280 O   0  0  0  0  0  1  0  0  0  0  0  0
  182.9480  176.8810  140.1860 C   0  0  2  0  0  3  0  0  0  0  0  0
  181.0640  177.6620  141.3930 F   0  0  0  0  0  0  0  0  0  0  0  0
  180.7500  176.4740  139.3900 C   0  0  2  0  0  3  0  0  0  0  0  0
  183.5480  178.6440  138.4580 C   0  0  0  0  0  2  0  0  0  0  0  0
  183.3650  180.1300  138.7180 C   0  0  0  0  0  1  0  0  0  0  0  0
  1  8  2  0  0  0  0
  2  4  1  0  0  0  0
  2  5  1  6  0  0  0
  3  7  1  0  0  0  0
  3  9  1  0  0  0  0
  4 11  1  0  0  0  0
  6 10  1  0  0  0  0
  7  2  1  0  0  0  0
  8  7  2  0  0  0  0
  9  6  1  0  0  0  0
  9  4  1  0  0  0  0
 10 11  1  0  0  0  0
 10 28  1  0  0  0  0
 11 15  1  0  0  0  0
 12 22  1  0  0  0  0
 13 17  1  0  0  0  0
 14 15  1  0  0  0  0
 14 13  1  0  0  0  0
 15 16  1  0  0  0  0
 16 12  1  0  0  0  0
 17 12  1  0  0  0  0
 18 20  1  0  0  0  0
 19 20  2  0  0  0  0
 21 18  2  0  0  0  0
 22 19  1  0  0  0  0
 23 22  2  0  0  0  0
 23 21  1  0  0  0  0
 24 21  1  0  0  0  0
 24 25  2  0  0  0  0
 26 27  1  0  0  0  0
 27 24  1  0  0  0  0
 28 30  2  0  0  0  0
 29 28  1  0  0  0  0
 31 36  1  0  0  0  0
 31 29  1  0  0  0  0
 32 36  1  0  0  0  0
 33 36  1  0  0  0  0
 33 37  1  0  0  0  0
 34 38  1  0  0  0  0
 34 32  1  0  0  0  0
 35 38  1  0  0  0  0
 38 33  1  0  0  0  0
 39 40  1  0  0  0  0
 39 31  1  0  0  0  0
M  END
>  <MODEL>
5

>  <REMARK>
 VINA RESULT:      -6.1      2.636      5.085
  Name = 
  8 active torsions:
  status: ('A' for Active; 'I' for Inactive)
    1  A    between atoms: C_2  and  C_19
    2  A    between atoms: C_4  and  C_35
    3  A    between atoms: C_12  and  C_28
    4  A    between atoms: O_13  and  C_28
    5  A    between atoms: C_14  and  C_18
    6  A    between atoms: C_14  and  C_29
    7  A    between atoms: C_14  and  N_30
    8  A    between atoms: C_27  and  C_38
                            x       y       z     vdW  Elec       q    Type
                         _______ _______ _______ _____ _____    ______ ____

>  <TORSDO>
F 8

$$$$
=
 OpenBabel11062413053D

 40 44  0  0  1  0  0  0  0  0999 V2000
  179.8850  173.5570  140.9370 O   0  0  0  0  0  0  0  0  0  0  0  0
  180.7910  176.2470  138.7400 C   0  0  2  0  0  3  0  0  0  0  0  0
  180.0270  177.0590  140.8350 N   0  0  0  0  0  2  0  0  0  0  0  0
  180.8340  177.7210  138.6960 N   0  0  1  0  0  0  0  0  0  0  0  0
  179.9770  175.7740  137.7070 O   0  0  0  0  0  1  0  0  0  0  0  0
  181.7700  178.7320  140.7080 C   0  0  0  0  0  2  0  0  0  0  0  0
  180.1900  175.9150  140.0400 C   0  0  0  0  0  0  0  0  0  0  0  0
  180.0360  174.7050  140.5010 C   0  0  0  0  0  0  0  0  0  0  0  0
  180.5050  178.1900  140.0630 C   0  0  2  0  0  3  0  0  0  0  0  0
  182.8880  178.4200  139.7450 C   0  0  1  0  0  3  0  0  0  0  0  0
  182.1870  178.2300  138.4100 C   0  0  1  0  0  3  0  0  0  0  0  0
  185.2340  176.5350  136.6350 C   0  0  2  0  0  3  0  0  0  0  0  0
  183.3870  176.9580  134.9570 C   0  0  0  0  0  2  0  0  0  0  0  0
  182.6970  177.8740  135.9610 C   0  0  0  0  0  2  0  0  0  0  0  0
  182.9770  177.3910  137.3840 C   0  0  1  0  0  3  0  0  0  0  0  0
  184.4880  177.4300  137.6360 C   0  0  0  0  0  2  0  0  0  0  0  0
  184.8960  176.9530  135.1970 C   0  0  0  0  0  2  0  0  0  0  0  0
  184.7330  172.3330  137.3580 C   0  0  0  0  0  3  0  0  0  0  0  0
  186.0810  174.3040  137.3090 N   0  0  0  0  0  0  0  0  0  0  0  0
  185.9570  172.9740  137.5590 C   0  0  0  0  0  3  0  0  0  0  0  0
  183.6360  173.0720  136.9020 C   0  0  0  0  0  0  0  0  0  0  0  0
  185.0370  175.0540  136.8540 C   0  0  0  0  0  0  0  0  0  0  0  0
  183.7890  174.4400  136.6560 C   0  0  0  0  0  3  0  0  0  0  0  0
  182.3400  172.4110  136.6820 C   0  0  0  0  0  0  0  0  0  0  0  0
  182.2350  171.4880  135.8260 O   0  0  0  0  0  0  0  0  0  0  0  0
  180.1520  171.9320  137.7130 C   0  0  0  0  0  1  0  0  0  0  0  0
  181.2250  172.8170  137.4210 O   0  0  0  0  0  0  0  0  0  0  0  0
  183.8760  179.5500  139.7170 C   0  0  0  0  0  0  0  0  0  0  0  0
  185.0200  179.5420  140.5740 N   0  0  0  0  0  2  0  0  0  0  0  0
  183.7070  180.5150  138.9250 O   0  0  0  0  0  0  0  0  0  0  0  0
  185.2990  178.4680  141.5270 C   0  0  1  0  0  3  0  0  0  0  0  0
  187.7110  178.5940  141.2360 O   0  0  0  0  0  0  0  0  0  0  0  0
  186.8880  177.5850  143.2470 C   0  0  2  0  0  3  0  0  0  0  0  0
  188.4540  177.4310  141.4970 C   0  0  0  0  0  2  0  0  0  0  0  0
  188.1790  175.6220  143.0050 O   0  0  0  0  0  1  0  0  0  0  0  0
  186.6700  178.6410  142.1850 C   0  0  2  0  0  3  0  0  0  0  0  0
  186.9250  178.1780  144.4950 F   0  0  0  0  0  0  0  0  0  0  0  0
  188.2280  177.0120  142.9250 C   0  0  2  0  0  3  0  0  0  0  0  0
  184.1760  178.3220  142.5570 C   0  0  0  0  0  2  0  0  0  0  0  0
  184.0870  179.5120  143.4980 C   0  0  0  0  0  1  0  0  0  0  0  0
  2  5  1  6  0  0  0
  2  7  1  0  0  0  0
  4  2  1  0  0  0  0
  4  9  1  0  0  0  0
  7  8  2  0  0  0  0
  7  3  1  0  0  0  0
  8  1  2  0  0  0  0
  9  6  1  0  0  0  0
  9  3  1  0  0  0  0
 10  6  1  0  0  0  0
 11  4  1  0  0  0  0
 11 10  1  0  0  0  0
 12 22  1  0  0  0  0
 12 16  1  0  0  0  0
 13 17  1  0  0  0  0
 13 14  1  0  0  0  0
 14 15  1  0  0  0  0
 15 16  1  0  0  0  0
 15 11  1  0  0  0  0
 17 12  1  0  0  0  0
 18 20  1  0  0  0  0
 19 20  2  0  0  0  0
 21 18  2  0  0  0  0
 22 19  1  0  0  0  0
 23 22  2  0  0  0  0
 23 21  1  0  0  0  0
 24 21  1  0  0  0  0
 24 27  1  0  0  0  0
 25 24  2  0  0  0  0
 27 26  1  0  0  0  0
 28 10  1  0  0  0  0
 28 29  1  0  0  0  0
 29 31  1  0  0  0  0
 30 28  2  0  0  0  0
 31 36  1  0  0  0  0
 31 39  1  0  0  0  0
 32 34  1  0  0  0  0
 32 36  1  0  0  0  0
 33 37  1  0  0  0  0
 34 38  1  0  0  0  0
 36 33  1  0  0  0  0
 38 35  1  0  0  0  0
 38 33  1  0  0  0  0
 39 40  1  0  0  0  0
M  END
>  <MODEL>
6

>  <REMARK>
 VINA RESULT:      -5.9      2.710      8.040
  Name = 
  8 active torsions:
  status: ('A' for Active; 'I' for Inactive)
    1  A    between atoms: C_2  and  C_19
    2  A    between atoms: C_4  and  C_35
    3  A    between atoms: C_12  and  C_28
    4  A    between atoms: O_13  and  C_28
    5  A    between atoms: C_14  and  C_18
    6  A    between atoms: C_14  and  C_29
    7  A    between atoms: C_14  and  N_30
    8  A    between atoms: C_27  and  C_38
                            x       y       z     vdW  Elec       q    Type
                         _______ _______ _______ _____ _____    ______ ____

>  <TORSDO>
F 8

$$$$
=
 OpenBabel11062413053D

 40 44  0  0  1  0  0  0  0  0999 V2000
  184.7360  176.8630  136.3750 O   0  0  0  0  0  0  0  0  0  0  0  0
  188.3200  176.9920  136.2230 C   0  0  2  0  0  3  0  0  0  0  0  0
  187.4340  178.8550  137.3970 N   0  0  0  0  0  2  0  0  0  0  0  0
  189.4510  177.8430  136.6420 N   0  0  1  0  0  0  0  0  0  0  0  0
  188.3390  176.8430  134.8340 O   0  0  0  0  0  1  0  0  0  0  0  0
  189.2820  178.6320  138.9430 C   0  0  0  0  0  2  0  0  0  0  0  0
  187.1130  177.7270  136.6290 C   0  0  0  0  0  0  0  0  0  0  0  0
  185.8930  177.2820  136.5010 C   0  0  0  0  0  0  0  0  0  0  0  0
  188.8800  178.9050  137.5020 C   0  0  2  0  0  3  0  0  0  0  0  0
  189.9690  177.2890  138.9300 C   0  0  1  0  0  3  0  0  0  0  0  0
  190.4130  177.1130  137.4870 C   0  0  1  0  0  3  0  0  0  0  0  0
  191.4520  174.0670  135.2620 C   0  0  2  0  0  3  0  0  0  0  0  0
  189.6370  173.3690  136.8820 C   0  0  0  0  0  2  0  0  0  0  0  0
  189.3580  174.8360  137.1870 C   0  0  0  0  0  2  0  0  0  0  0  0
  190.6470  175.6480  137.0620 C   0  0  1  0  0  3  0  0  0  0  0  0
  191.1730  175.5320  135.6270 C   0  0  0  0  0  2  0  0  0  0  0  0
  190.1880  173.2200  135.4640 C   0  0  0  0  0  2  0  0  0  0  0  0
  194.8770  172.2950  137.1500 C   0  0  0  0  0  3  0  0  0  0  0  0
  192.8570  172.1210  135.8890 N   0  0  0  0  0  0  0  0  0  0  0  0
  193.9340  171.5260  136.4650 C   0  0  0  0  0  3  0  0  0  0  0  0
  194.7060  173.6810  137.2340 C   0  0  0  0  0  0  0  0  0  0  0  0
  192.6510  173.4670  135.9590 C   0  0  0  0  0  0  0  0  0  0  0  0
  193.5890  174.2690  136.6290 C   0  0  0  0  0  3  0  0  0  0  0  0
  195.6890  174.5050  137.9550 C   0  0  0  0  0  0  0  0  0  0  0  0
  195.4110  174.9730  139.0950 O   0  0  0  0  0  0  0  0  0  0  0  0
  197.0410  175.2530  136.0340 C   0  0  0  0  0  1  0  0  0  0  0  0
  196.9280  174.7720  137.3660 O   0  0  0  0  0  0  0  0  0  0  0  0
  191.1240  177.2900  139.8870 C   0  0  0  0  0  0  0  0  0  0  0  0
  190.9100  177.1250  141.2920 N   0  0  0  0  0  2  0  0  0  0  0  0
  192.3000  177.4290  139.4570 O   0  0  0  0  0  0  0  0  0  0  0  0
  189.5840  176.9600  141.8840 C   0  0  1  0  0  3  0  0  0  0  0  0
  188.6820  176.5760  144.1120 O   0  0  0  0  0  0  0  0  0  0  0  0
  191.0260  176.2020  143.7850 C   0  0  2  0  0  3  0  0  0  0  0  0
  189.3860  177.1270  145.1960 C   0  0  0  0  0  2  0  0  0  0  0  0
  191.6810  177.5610  145.6030 O   0  0  0  0  0  1  0  0  0  0  0  0
  189.6420  176.1400  143.1750 C   0  0  2  0  0  3  0  0  0  0  0  0
  191.6210  174.9560  143.7210 F   0  0  0  0  0  0  0  0  0  0  0  0
  190.7840  176.5700  145.2100 C   0  0  2  0  0  3  0  0  0  0  0  0
  188.8840  178.3060  142.0850 C   0  0  0  0  0  2  0  0  0  0  0  0
  187.4050  178.2550  141.7410 C   0  0  0  0  0  1  0  0  0  0  0  0
  1  8  2  0  0  0  0
  2  5  1  6  0  0  0
  2  7  1  0  0  0  0
  2  4  1  0  0  0  0
  3  9  1  0  0  0  0
  4 11  1  0  0  0  0
  4  9  1  0  0  0  0
  7  3  1  0  0  0  0
  8  7  2  0  0  0  0
  9  6  1  0  0  0  0
 10  6  1  0  0  0  0
 10 28  1  0  0  0  0
 11 10  1  0  0  0  0
 12 17  1  0  0  0  0
 12 16  1  0  0  0  0
 12 22  1  0  0  0  0
 13 14  1  0  0  0  0
 15 14  1  0  0  0  0
 15 11  1  0  0  0  0
 16 15  1  0  0  0  0
 17 13  1  0  0  0  0
 18 21  1  0  0  0  0
 19 22  2  0  0  0  0
 19 20  1  0  0  0  0
 20 18  2  0  0  0  0
 21 24  1  0  0  0  0
 22 23  1  0  0  0  0
 23 21  2  0  0  0  0
 24 25  2  0  0  0  0
 26 27  1  0  0  0  0
 27 24  1  0  0  0  0
 28 29  1  0  0  0  0
 29 31  1  0  0  0  0
 30 28  2  0  0  0  0
 31 39  1  0  0  0  0
 31 36  1  0  0  0  0
 32 34  1  0  0  0  0
 33 38  1  0  0  0  0
 34 38  1  0  0  0  0
 36 33  1  0  0  0  0
 36 32  1  0  0  0  0
 37 33  1  0  0  0  0
 38 35  1  0  0  0  0
 40 39  1  0  0  0  0
M  END
>  <MODEL>
7

>  <REMARK>
 VINA RESULT:      -5.9      4.581      9.522
  Name = 
  8 active torsions:
  status: ('A' for Active; 'I' for Inactive)
    1  A    between atoms: C_2  and  C_19
    2  A    between atoms: C_4  and  C_35
    3  A    between atoms: C_12  and  C_28
    4  A    between atoms: O_13  and  C_28
    5  A    between atoms: C_14  and  C_18
    6  A    between atoms: C_14  and  C_29
    7  A    between atoms: C_14  and  N_30
    8  A    between atoms: C_27  and  C_38
                            x       y       z     vdW  Elec       q    Type
                         _______ _______ _______ _____ _____    ______ ____

>  <TORSDO>
F 8

$$$$
=
 OpenBabel11062413053D

 40 44  0  0  1  0  0  0  0  0999 V2000
  182.2710  177.3140  140.8680 O   0  0  0  0  0  0  0  0  0  0  0  0
  185.5250  178.7290  140.3270 C   0  0  2  0  0  3  0  0  0  0  0  0
  185.1240  178.3310  142.6330 N   0  0  0  0  0  2  0  0  0  0  0  0
  186.7170  179.1700  141.0760 N   0  0  1  0  0  0  0  0  0  0  0  0
  185.0170  179.8000  139.5880 O   0  0  0  0  0  1  0  0  0  0  0  0
  187.4240  177.6000  142.8030 C   0  0  0  0  0  2  0  0  0  0  0  0
  184.5520  178.3240  141.3520 C   0  0  0  0  0  0  0  0  0  0  0  0
  183.3820  177.8030  141.1030 C   0  0  0  0  0  0  0  0  0  0  0  0
  186.5010  178.7650  142.4850 C   0  0  2  0  0  3  0  0  0  0  0  0
  188.0750  177.2230  141.4950 C   0  0  1  0  0  3  0  0  0  0  0  0
  187.9390  178.4710  140.6390 C   0  0  1  0  0  3  0  0  0  0  0  0
  188.1670  176.5120  137.2600 C   0  0  2  0  0  3  0  0  0  0  0  0
  189.1740  178.8190  136.9870 C   0  0  0  0  0  2  0  0  0  0  0  0
  189.1880  178.9820  138.5030 C   0  0  0  0  0  2  0  0  0  0  0  0
  188.0160  178.2180  139.1190 C   0  0  1  0  0  3  0  0  0  0  0  0
  188.1560  176.7300  138.7800 C   0  0  0  0  0  2  0  0  0  0  0  0
  189.2870  177.3410  136.6140 C   0  0  0  0  0  2  0  0  0  0  0  0
  184.4180  177.1060  135.2550 C   0  0  0  0  0  3  0  0  0  0  0  0
  186.8050  177.0720  135.2640 N   0  0  0  0  0  0  0  0  0  0  0  0
  185.6380  177.2580  134.5940 C   0  0  0  0  0  3  0  0  0  0  0  0
  184.4070  176.7570  136.6090 C   0  0  0  0  0  0  0  0  0  0  0  0
  186.8340  176.7420  136.5870 C   0  0  0  0  0  0  0  0  0  0  0  0
  185.6230  176.5680  137.2750 C   0  0  0  0  0  3  0  0  0  0  0  0
  183.1290  176.5950  137.3210 C   0  0  0  0  0  0  0  0  0  0  0  0
  182.9480  175.6050  138.0830 O   0  0  0  0  0  0  0  0  0  0  0  0
  182.2100  178.8560  137.6730 C   0  0  0  0  0  1  0  0  0  0  0  0
  182.1160  177.5420  137.1420 O   0  0  0  0  0  0  0  0  0  0  0  0
  189.5070  176.8380  141.7230 C   0  0  0  0  0  0  0  0  0  0  0  0
  190.1550  177.1320  142.9630 N   0  0  0  0  0  2  0  0  0  0  0  0
  190.1520  176.2430  140.8190 O   0  0  0  0  0  0  0  0  0  0  0  0
  189.4910  177.8230  144.0680 C   0  0  1  0  0  3  0  0  0  0  0  0
  187.8470  176.8910  145.6010 O   0  0  0  0  0  0  0  0  0  0  0  0
  190.0690  177.2270  146.4300 C   0  0  2  0  0  3  0  0  0  0  0  0
  187.7720  177.4540  146.8860 C   0  0  0  0  0  2  0  0  0  0  0  0
  189.3700  178.4390  148.3330 O   0  0  0  0  0  1  0  0  0  0  0  0
  189.2080  176.8740  145.2360 C   0  0  2  0  0  3  0  0  0  0  0  0
  190.9810  176.2150  146.6640 F   0  0  0  0  0  0  0  0  0  0  0  0
  189.1060  177.3060  147.5670 C   0  0  2  0  0  3  0  0  0  0  0  0
  190.2690  179.0650  144.5070 C   0  0  0  0  0  2  0  0  0  0  0  0
  191.6460  179.1500  143.8680 C   0  0  0  0  0  1  0  0  0  0  0  0
  1  8  2  0  0  0  0
  2  5  1  1  0  0  0
  2  4  1  0  0  0  0
  2  7  1  0  0  0  0
  4  9  1  0  0  0  0
  7  3  1  0  0  0  0
  8  7  2  0  0  0  0
  9  3  1  0  0  0  0
  9  6  1  0  0  0  0
 10 28  1  0  0  0  0
 10  6  1  0  0  0  0
 11  4  1  0  0  0  0
 11 10  1  0  0  0  0
 12 16  1  0  0  0  0
 13 14  1  0  0  0  0
 14 15  1  0  0  0  0
 15 11  1  0  0  0  0
 16 15  1  0  0  0  0
 17 13  1  0  0  0  0
 17 12  1  0  0  0  0
 18 21  1  0  0  0  0
 19 22  2  0  0  0  0
 20 18  2  0  0  0  0
 20 19  1  0  0  0  0
 21 23  2  0  0  0  0
 21 24  1  0  0  0  0
 22 12  1  0  0  0  0
 22 23  1  0  0  0  0
 24 25  2  0  0  0  0
 27 24  1  0  0  0  0
 27 26  1  0  0  0  0
 28 29  1  0  0  0  0
 29 31  1  0  0  0  0
 30 28  2  0  0  0  0
 31 39  1  0  0  0  0
 31 36  1  0  0  0  0
 32 34  1  0  0  0  0
 33 37  1  0  0  0  0
 33 38  1  0  0  0  0
 34 38  1  0  0  0  0
 36 32  1  0  0  0  0
 36 33  1  0  0  0  0
 38 35  1  0  0  0  0
 40 39  1  0  0  0  0
M  END
>  <MODEL>
8

>  <REMARK>
 VINA RESULT:      -5.9      3.047      8.234
  Name = 
  8 active torsions:
  status: ('A' for Active; 'I' for Inactive)
    1  A    between atoms: C_2  and  C_19
    2  A    between atoms: C_4  and  C_35
    3  A    between atoms: C_12  and  C_28
    4  A    between atoms: O_13  and  C_28
    5  A    between atoms: C_14  and  C_18
    6  A    between atoms: C_14  and  C_29
    7  A    between atoms: C_14  and  N_30
    8  A    between atoms: C_27  and  C_38
                            x       y       z     vdW  Elec       q    Type
                         _______ _______ _______ _____ _____    ______ ____

>  <TORSDO>
F 8

$$$$
=
 OpenBabel11062413053D

 40 44  0  0  1  0  0  0  0  0999 V2000
  186.4430  177.9310  142.6570 O   0  0  0  0  0  0  0  0  0  0  0  0
  185.4860  178.5920  139.2610 C   0  0  2  0  0  3  0  0  0  0  0  0
  187.8310  178.2830  139.4570 N   0  0  0  0  0  2  0  0  0  0  0  0
  186.0770  178.7560  137.9200 N   0  0  1  0  0  0  0  0  0  0  0  0
  184.7890  179.7530  139.6080 O   0  0  0  0  0  1  0  0  0  0  0  0
  187.7420  177.0610  137.3710 C   0  0  0  0  0  2  0  0  0  0  0  0
  186.6280  178.4080  140.1670 C   0  0  0  0  0  0  0  0  0  0  0  0
  186.5320  178.1600  141.4450 C   0  0  0  0  0  0  0  0  0  0  0  0
  187.5100  178.4020  138.0470 C   0  0  2  0  0  3  0  0  0  0  0  0
  186.3740  176.5550  136.9830 C   0  0  1  0  0  3  0  0  0  0  0  0
  185.5120  177.8060  136.9430 C   0  0  1  0  0  3  0  0  0  0  0  0
  182.1930  176.1920  138.2410 C   0  0  2  0  0  3  0  0  0  0  0  0
  181.8370  177.1460  135.9240 C   0  0  0  0  0  2  0  0  0  0  0  0
  183.3470  177.2750  135.7550 C   0  0  0  0  0  2  0  0  0  0  0  0
  184.0010  177.5490  137.1090 C   0  0  1  0  0  3  0  0  0  0  0  0
  183.7060  176.3770  138.0530 C   0  0  0  0  0  2  0  0  0  0  0  0
  181.5090  176.0000  136.8800 C   0  0  0  0  0  2  0  0  0  0  0  0
  180.2020  179.2210  140.5410 C   0  0  0  0  0  3  0  0  0  0  0  0
  180.4110  177.8830  138.5740 N   0  0  0  0  0  0  0  0  0  0  0  0
  179.7480  178.8390  139.2770 C   0  0  0  0  0  3  0  0  0  0  0  0
  181.3400  178.6100  141.0780 C   0  0  0  0  0  0  0  0  0  0  0  0
  181.5290  177.2740  139.0600 C   0  0  0  0  0  0  0  0  0  0  0  0
  182.0020  177.6270  140.3340 C   0  0  0  0  0  3  0  0  0  0  0  0
  181.8330  179.0040  142.4070 C   0  0  0  0  0  0  0  0  0  0  0  0
  181.0750  179.6160  143.2100 O   0  0  0  0  0  0  0  0  0  0  0  0
  183.5560  178.6290  144.1310 C   0  0  0  0  0  1  0  0  0  0  0  0
  183.1490  178.7020  142.7720 O   0  0  0  0  0  0  0  0  0  0  0  0
  186.4380  175.8620  135.6540 C   0  0  0  0  0  0  0  0  0  0  0  0
  185.8070  174.5930  135.4600 N   0  0  0  0  0  2  0  0  0  0  0  0
  187.0430  176.4010  134.6900 O   0  0  0  0  0  0  0  0  0  0  0  0
  185.0850  173.8890  136.5180 C   0  0  1  0  0  3  0  0  0  0  0  0
  183.3190  173.2910  134.9550 O   0  0  0  0  0  0  0  0  0  0  0  0
  183.3790  172.1370  137.0530 C   0  0  2  0  0  3  0  0  0  0  0  0
  182.0120  173.2020  135.4610 C   0  0  0  0  0  2  0  0  0  0  0  0
  181.1150  172.5740  137.5640 O   0  0  0  0  0  1  0  0  0  0  0  0
  184.1830  172.7900  135.9500 C   0  0  2  0  0  3  0  0  0  0  0  0
  183.7900  170.8270  137.2170 F   0  0  0  0  0  0  0  0  0  0  0  0
  181.9750  172.1620  136.5490 C   0  0  2  0  0  3  0  0  0  0  0  0
  186.0360  173.3580  137.5940 C   0  0  0  0  0  2  0  0  0  0  0  0
  187.2180  172.6030  137.0090 C   0  0  0  0  0  1  0  0  0  0  0  0
  2  5  1  1  0  0  0
  2  7  1  0  0  0  0
  3  7  1  0  0  0  0
  4  9  1  0  0  0  0
  4  2  1  0  0  0  0
  6  9  1  0  0  0  0
  7  8  2  0  0  0  0
  8  1  2  0  0  0  0
  9  3  1  0  0  0  0
 10  6  1  0  0  0  0
 11 10  1  0  0  0  0
 11 15  1  0  0  0  0
 11  4  1  0  0  0  0
 12 22  1  0  0  0  0
 13 17  1  0  0  0  0
 14 13  1  0  0  0  0
 14 15  1  0  0  0  0
 15 16  1  0  0  0  0
 16 12  1  0  0  0  0
 17 12  1  0  0  0  0
 18 21  1  0  0  0  0
 19 22  2  0  0  0  0
 19 20  1  0  0  0  0
 20 18  2  0  0  0  0
 21 24  1  0  0  0  0
 22 23  1  0  0  0  0
 23 21  2  0  0  0  0
 24 27  1  0  0  0  0
 24 25  2  0  0  0  0
 27 26  1  0  0  0  0
 28 10  1  0  0  0  0
 29 28  1  0  0  0  0
 29 31  1  0  0  0  0
 30 28  2  0  0  0  0
 31 39  1  0  0  0  0
 32 34  1  0  0  0  0
 32 36  1  0  0  0  0
 33 37  1  0  0  0  0
 34 38  1  0  0  0  0
 36 31  1  0  0  0  0
 36 33  1  0  0  0  0
 38 33  1  0  0  0  0
 38 35  1  0  0  0  0
 40 39  1  0  0  0  0
M  END
>  <MODEL>
9

>  <REMARK>
 VINA RESULT:      -5.5      2.371      3.367
  Name = 
  8 active torsions:
  status: ('A' for Active; 'I' for Inactive)
    1  A    between atoms: C_2  and  C_19
    2  A    between atoms: C_4  and  C_35
    3  A    between atoms: C_12  and  C_28
    4  A    between atoms: O_13  and  C_28
    5  A    between atoms: C_14  and  C_18
    6  A    between atoms: C_14  and  C_29
    7  A    between atoms: C_14  and  N_30
    8  A    between atoms: C_27  and  C_38
                            x       y       z     vdW  Elec       q    Type
                         _______ _______ _______ _____ _____    ______ ____

>  <TORSDO>
F 8

$$$$
