=
 OpenBabel11062413143D

 42 47  0  0  1  0  0  0  0  0999 V2000
  189.4390  178.4710  139.6360 P   0  0  2  0  0  0  0  0  0  0  0  0
  188.5240  176.4820  134.9980 C   0  0  0  0  0  3  0  0  0  0  0  0
  188.2680  178.8040  140.8760 O   0  0  0  0  0  1  0  0  0  0  0  0
  190.6310  175.9690  135.9690 N   0  0  0  0  0  0  0  0  0  0  0  0
  188.9140  176.9160  137.3570 C   0  0  0  0  0  0  0  0  0  0  0  0
  192.4040  175.5760  137.9910 N   0  0  0  0  0  1  0  0  0  0  0  0
  191.2640  176.4220  138.3110 C   0  0  2  0  0  3  0  0  0  0  0  0
  190.7020  176.0030  139.5950 N   0  0  0  0  0  2  0  0  0  0  0  0
  189.8160  175.9880  134.8860 C   0  0  0  0  0  3  0  0  0  0  0  0
  191.8580  177.7530  140.8400 C   0  0  0  0  0  1  0  0  0  0  0  0
  190.2310  176.3950  137.2000 C   0  0  0  0  0  0  0  0  0  0  0  0
  188.0640  176.9650  136.2220 C   0  0  0  0  0  0  0  0  0  0  0  0
  188.3600  177.2670  138.7120 C   0  0  0  0  0  2  0  0  0  0  0  0
  190.4970  177.1540  140.4940 C   0  0  1  0  0  0  0  0  0  0  0  0
  189.0300  175.6780  141.6880 O   0  0  0  0  0  0  0  0  0  0  0  0
  189.3370  176.8270  144.2420 C   0  0  0  0  0  2  0  0  0  0  0  0
  190.6350  178.8710  144.7410 C   0  0  0  0  0  3  0  0  0  0  0  0
  189.7490  177.8050  145.2680 C   0  0  0  0  0  0  0  0  0  0  0  0
  190.7780  178.5210  143.2660 C   0  0  0  0  0  3  0  0  0  0  0  0
  189.8210  176.6590  141.7640 C   0  0  0  0  0  0  0  0  0  0  0  0
  190.0070  177.2980  143.0430 N   0  0  0  0  0  0  0  0  0  0  0  0
  189.4030  177.7360  146.4350 O   0  0  0  0  0  0  0  0  0  0  0  0
  186.7220  177.4760  136.2560 N   0  0  0  0  0  2  0  0  0  0  0  0
  185.5860  176.9030  135.5440 C   0  0  0  0  0  2  0  0  0  0  0  0
  182.2470  177.9950  140.6930 C   0  0  0  0  0  3  0  0  0  0  0  0
  183.3770  177.6680  138.5920 C   0  0  0  0  0  0  0  0  0  0  0  0
  182.1670  177.9130  137.9240 C   0  0  0  0  0  0  0  0  0  0  0  0
  182.1230  177.8760  136.4560 C   0  0  0  0  0  3  0  0  0  0  0  0
  183.4210  177.7180  139.9860 C   0  0  0  0  0  3  0  0  0  0  0  0
  181.0210  178.1960  138.6670 C   0  0  0  0  0  3  0  0  0  0  0  0
  184.6350  177.4600  137.7990 C   0  0  0  0  0  2  0  0  0  0  0  0
  181.0830  178.2280  140.0270 N   0  0  0  0  0  0  0  0  0  0  0  0
  184.3590  176.7580  136.4490 C   0  0  1  0  0  0  0  0  0  0  0  0
  183.1540  177.3820  135.7640 C   0  0  0  0  0  3  0  0  0  0  0  0
  183.8980  172.2380  136.3890 C   0  0  0  0  0  0  0  0  0  0  0  0
  182.8370  173.2250  135.8990 C   0  0  0  0  0  2  0  0  0  0  0  0
  184.0780  175.2560  136.6990 C   0  0  1  0  0  3  0  0  0  0  0  0
  183.1910  170.9790  136.8430 C   0  0  0  0  0  1  0  0  0  0  0  0
  184.8480  171.8620  135.2610 C   0  0  0  0  0  1  0  0  0  0  0  0
  183.4200  174.5760  135.4970 C   0  0  0  0  0  2  0  0  0  0  0  0
  185.5860  174.3300  137.1700 S   0  0  0  0  0  0  0  0  0  0  0  0
  184.6670  172.8080  137.5840 C   0  0  0  0  0  2  0  0  0  0  0  0
  1 14  1  0  0  0  0
  1  3  1  1  0  0  0
  2 12  1  0  0  0  0
  4 11  2  0  0  0  0
  5 13  1  0  0  0  0
  7  6  1  6  0  0  0
  7  8  1  0  0  0  0
  8 14  1  0  0  0  0
  9  2  2  0  0  0  0
  9  4  1  0  0  0  0
 11  5  1  0  0  0  0
 11  7  1  0  0  0  0
 12 23  1  0  0  0  0
 12  5  2  0  0  0  0
 13  1  1  0  0  0  0
 14 10  1  1  0  0  0
 14 20  1  0  0  0  0
 15 20  2  0  0  0  0
 16 18  1  0  0  0  0
 17 18  1  0  0  0  0
 18 22  2  0  0  0  0
 19 17  2  0  0  0  0
 20 21  1  0  0  0  0
 21 19  1  0  0  0  0
 21 16  1  0  0  0  0
 24 23  1  0  0  0  0
 26 29  1  0  0  0  0
 27 26  2  0  0  0  0
 27 30  1  0  0  0  0
 28 27  1  0  0  0  0
 29 25  2  0  0  0  0
 30 32  2  0  0  0  0
 31 26  1  0  0  0  0
 32 25  1  0  0  0  0
 33 24  1  6  0  0  0
 33 37  1  0  0  0  0
 33 31  1  0  0  0  0
 34 33  1  0  0  0  0
 34 28  2  0  0  0  0
 35 38  1  0  0  0  0
 35 42  1  0  0  0  0
 36 35  1  0  0  0  0
 37 40  1  6  0  0  0
 37 41  1  0  0  0  0
 39 35  1  0  0  0  0
 40 36  1  0  0  0  0
 41 42  1  0  0  0  0
M  END
>  <MODEL>
1

>  <REMARK>
 VINA RESULT:      -7.2      0.000      0.000
  Name = 
  5 active torsions:
  status: ('A' for Active; 'I' for Inactive)
    1  A    between atoms: N_7  and  C_37
    2  A    between atoms: N_7  and  C_38
    3  A    between atoms: C_16  and  C_30
    4  A    between atoms: C_26  and  C_41
    5  A    between atoms: C_30  and  C_37
                            x       y       z     vdW  Elec       q    Type
                         _______ _______ _______ _____ _____    ______ ____

>  <TORSDO>
F 5

$$$$
=
 OpenBabel11062413143D

 42 47  0  0  1  0  0  0  0  0999 V2000
  182.2310  179.4700  139.2130 P   0  0  2  0  0  0  0  0  0  0  0  0
  184.3860  178.5450  143.7740 C   0  0  0  0  0  3  0  0  0  0  0  0
  182.6170  178.7010  137.7040 O   0  0  0  0  0  1  0  0  0  0  0  0
  182.1060  179.2120  143.8010 N   0  0  0  0  0  0  0  0  0  0  0  0
  183.0920  178.5350  141.7170 C   0  0  0  0  0  0  0  0  0  0  0  0
  179.5940  179.5090  142.8070 N   0  0  0  0  0  1  0  0  0  0  0  0
  180.6490  179.3690  141.8150 C   0  0  2  0  0  3  0  0  0  0  0  0
  180.2300  178.3970  140.8050 N   0  0  0  0  0  2  0  0  0  0  0  0
  183.2670  178.9910  144.4630 C   0  0  0  0  0  3  0  0  0  0  0  0
  179.5110  180.1180  139.2330 C   0  0  0  0  0  1  0  0  0  0  0  0
  181.9660  178.9870  142.4640 C   0  0  0  0  0  0  0  0  0  0  0  0
  184.3190  178.3280  142.3990 C   0  0  0  0  0  0  0  0  0  0  0  0
  182.9700  178.1300  140.2720 C   0  0  0  0  0  2  0  0  0  0  0  0
  180.4320  178.9180  139.4400 C   0  0  1  0  0  0  0  0  0  0  0  0
  179.7820  178.1470  137.2630 O   0  0  0  0  0  0  0  0  0  0  0  0
  179.6390  175.4000  137.8640 C   0  0  0  0  0  2  0  0  0  0  0  0
  179.9430  174.4110  140.1100 C   0  0  0  0  0  3  0  0  0  0  0  0
  179.6190  174.1710  138.6820 C   0  0  0  0  0  0  0  0  0  0  0  0
  180.1780  175.9150  140.1750 C   0  0  0  0  0  3  0  0  0  0  0  0
  180.0730  177.8220  138.4470 C   0  0  0  0  0  0  0  0  0  0  0  0
  180.0040  176.4310  138.8180 N   0  0  0  0  0  0  0  0  0  0  0  0
  179.3720  173.0670  138.2270 O   0  0  0  0  0  0  0  0  0  0  0  0
  185.5220  177.8820  141.7510 N   0  0  0  0  0  2  0  0  0  0  0  0
  186.6360  178.7400  141.3680 C   0  0  0  0  0  2  0  0  0  0  0  0
  191.9690  178.6150  144.5920 C   0  0  0  0  0  3  0  0  0  0  0  0
  189.8570  178.4770  143.4450 C   0  0  0  0  0  0  0  0  0  0  0  0
  189.7750  177.1200  143.7950 C   0  0  0  0  0  0  0  0  0  0  0  0
  188.6110  176.3270  143.3790 C   0  0  0  0  0  3  0  0  0  0  0  0
  190.9560  179.2330  143.8520 C   0  0  0  0  0  3  0  0  0  0  0  0
  190.8030  176.5450  144.5430 C   0  0  0  0  0  3  0  0  0  0  0  0
  188.7100  179.1290  142.7250 C   0  0  0  0  0  2  0  0  0  0  0  0
  191.8730  177.2980  144.9210 N   0  0  0  0  0  0  0  0  0  0  0  0
  187.9850  178.1430  141.7800 C   0  0  1  0  0  0  0  0  0  0  0  0
  187.7520  176.8140  142.4780 C   0  0  0  0  0  3  0  0  0  0  0  0
  190.1070  176.6810  138.0370 C   0  0  0  0  0  0  0  0  0  0  0  0
  190.6170  176.4670  139.4640 C   0  0  0  0  0  2  0  0  0  0  0  0
  188.8520  177.9080  140.5190 C   0  0  1  0  0  3  0  0  0  0  0  0
  191.3040  176.6950  137.1110 C   0  0  0  0  0  1  0  0  0  0  0  0
  189.1960  175.5390  137.6120 C   0  0  0  0  0  1  0  0  0  0  0  0
  189.5060  176.5260  140.5080 C   0  0  0  0  0  2  0  0  0  0  0  0
  187.9090  178.1450  138.9660 S   0  0  0  0  0  0  0  0  0  0  0  0
  189.3920  178.0290  137.9080 C   0  0  0  0  0  2  0  0  0  0  0  0
  1  3  1  6  0  0  0
  1 14  1  0  0  0  0
  1 13  1  0  0  0  0
  2  9  1  0  0  0  0
  4  9  2  0  0  0  0
  5 12  1  0  0  0  0
  5 11  2  0  0  0  0
  7 11  1  0  0  0  0
  7  6  1  1  0  0  0
  8  7  1  0  0  0  0
 11  4  1  0  0  0  0
 12  2  2  0  0  0  0
 13  5  1  0  0  0  0
 14 10  1  6  0  0  0
 14  8  1  0  0  0  0
 15 20  2  0  0  0  0
 16 18  1  0  0  0  0
 16 21  1  0  0  0  0
 17 19  2  0  0  0  0
 18 17  1  0  0  0  0
 20 21  1  0  0  0  0
 20 14  1  0  0  0  0
 21 19  1  0  0  0  0
 22 18  2  0  0  0  0
 23 12  1  0  0  0  0
 24 23  1  0  0  0  0
 25 32  1  0  0  0  0
 26 27  2  0  0  0  0
 26 29  1  0  0  0  0
 27 30  1  0  0  0  0
 28 27  1  0  0  0  0
 29 25  2  0  0  0  0
 30 32  2  0  0  0  0
 31 26  1  0  0  0  0
 33 24  1  6  0  0  0
 33 34  1  0  0  0  0
 33 31  1  0  0  0  0
 34 28  2  0  0  0  0
 35 36  1  0  0  0  0
 36 40  1  0  0  0  0
 37 40  1  1  0  0  0
 37 33  1  0  0  0  0
 38 35  1  0  0  0  0
 39 35  1  0  0  0  0
 41 37  1  0  0  0  0
 42 35  1  0  0  0  0
 42 41  1  0  0  0  0
M  END
>  <MODEL>
2

>  <REMARK>
 VINA RESULT:      -7.2      4.355      9.699
  Name = 
  5 active torsions:
  status: ('A' for Active; 'I' for Inactive)
    1  A    between atoms: N_7  and  C_37
    2  A    between atoms: N_7  and  C_38
    3  A    between atoms: C_16  and  C_30
    4  A    between atoms: C_26  and  C_41
    5  A    between atoms: C_30  and  C_37
                            x       y       z     vdW  Elec       q    Type
                         _______ _______ _______ _____ _____    ______ ____

>  <TORSDO>
F 5

$$$$
=
 OpenBabel11062413143D

 42 47  0  0  1  0  0  0  0  0999 V2000
  187.1890  177.6780  136.2180 P   0  0  2  0  0  0  0  0  0  0  0  0
  182.5990  175.3910  136.1630 C   0  0  0  0  0  3  0  0  0  0  0  0
  187.6910  178.9820  137.2520 O   0  0  0  0  0  1  0  0  0  0  0  0
  184.4610  174.0340  135.5850 N   0  0  0  0  0  0  0  0  0  0  0  0
  184.8570  176.1660  136.6190 C   0  0  0  0  0  0  0  0  0  0  0  0
  187.0690  173.2680  135.5770 N   0  0  0  0  0  1  0  0  0  0  0  0
  186.8280  174.6730  135.8690 C   0  0  2  0  0  3  0  0  0  0  0  0
  187.6230  175.0630  137.0320 N   0  0  0  0  0  2  0  0  0  0  0  0
  183.1190  174.2200  135.6320 C   0  0  0  0  0  3  0  0  0  0  0  0
  189.3960  176.0480  135.6770 C   0  0  0  0  0  1  0  0  0  0  0  0
  185.3490  174.9460  136.0700 C   0  0  0  0  0  0  0  0  0  0  0  0
  183.4540  176.3810  136.6450 C   0  0  0  0  0  0  0  0  0  0  0  0
  185.7700  177.1500  137.3010 C   0  0  0  0  0  2  0  0  0  0  0  0
  188.3730  176.3080  136.7790 C   0  0  1  0  0  0  0  0  0  0  0  0
  188.4110  177.1310  139.0330 O   0  0  0  0  0  0  0  0  0  0  0  0
  191.2010  177.0680  139.4090 C   0  0  0  0  0  2  0  0  0  0  0  0
  192.8640  176.4900  137.6720 C   0  0  0  0  0  3  0  0  0  0  0  0
  192.6320  176.9410  139.0660 C   0  0  0  0  0  0  0  0  0  0  0  0
  191.4580  176.3290  137.1100 C   0  0  0  0  0  3  0  0  0  0  0  0
  189.0930  176.7060  138.0590 C   0  0  0  0  0  0  0  0  0  0  0  0
  190.5290  176.6650  138.1880 N   0  0  0  0  0  0  0  0  0  0  0  0
  193.5330  177.1750  139.8540 O   0  0  0  0  0  0  0  0  0  0  0  0
  182.8440  177.5730  137.1650 N   0  0  0  0  0  2  0  0  0  0  0  0
  181.4970  177.6540  137.7170 C   0  0  0  0  0  2  0  0  0  0  0  0
  179.9690  178.4970  143.7000 C   0  0  0  0  0  3  0  0  0  0  0  0
  180.7670  178.1780  141.4520 C   0  0  0  0  0  0  0  0  0  0  0  0
  182.0330  178.6270  141.8560 C   0  0  0  0  0  0  0  0  0  0  0  0
  183.1320  178.6930  140.8820 C   0  0  0  0  0  3  0  0  0  0  0  0
  179.7290  178.1030  142.3810 C   0  0  0  0  0  3  0  0  0  0  0  0
  182.2340  179.0010  143.1860 C   0  0  0  0  0  3  0  0  0  0  0  0
  180.5680  177.6820  140.0480 C   0  0  0  0  0  2  0  0  0  0  0  0
  181.2030  178.9310  144.0740 N   0  0  0  0  0  0  0  0  0  0  0  0
  181.4660  178.4320  139.0360 C   0  0  1  0  0  0  0  0  0  0  0  0
  182.8810  178.5580  139.5760 C   0  0  0  0  0  3  0  0  0  0  0  0
  180.1590  182.5100  137.5180 C   0  0  0  0  0  0  0  0  0  0  0  0
  181.4440  182.2480  138.3060 C   0  0  0  0  0  2  0  0  0  0  0  0
  180.8900  179.8470  138.7880 C   0  0  1  0  0  3  0  0  0  0  0  0
  179.7340  183.9390  137.7790 C   0  0  0  0  0  1  0  0  0  0  0  0
  180.4000  182.3570  136.0240 C   0  0  0  0  0  1  0  0  0  0  0  0
  181.9250  180.8040  138.1970 C   0  0  0  0  0  2  0  0  0  0  0  0
  179.4060  179.8210  137.7150 S   0  0  0  0  0  0  0  0  0  0  0  0
  179.0310  181.5870  137.9880 C   0  0  0  0  0  2  0  0  0  0  0  0
  1 14  1  0  0  0  0
  1  3  1  1  0  0  0
  1 13  1  0  0  0  0
  2 12  1  0  0  0  0
  4  9  1  0  0  0  0
  4 11  2  0  0  0  0
  5 12  2  0  0  0  0
  5 13  1  0  0  0  0
  7  6  1  1  0  0  0
  7 11  1  0  0  0  0
  7  8  1  0  0  0  0
  9  2  2  0  0  0  0
 11  5  1  0  0  0  0
 12 23  1  0  0  0  0
 14 10  1  6  0  0  0
 14  8  1  0  0  0  0
 14 20  1  0  0  0  0
 17 18  1  0  0  0  0
 18 16  1  0  0  0  0
 18 22  2  0  0  0  0
 19 17  2  0  0  0  0
 19 21  1  0  0  0  0
 20 21  1  0  0  0  0
 20 15  2  0  0  0  0
 21 16  1  0  0  0  0
 23 24  1  0  0  0  0
 25 32  1  0  0  0  0
 26 27  2  0  0  0  0
 26 29  1  0  0  0  0
 27 30  1  0  0  0  0
 28 27  1  0  0  0  0
 29 25  2  0  0  0  0
 30 32  2  0  0  0  0
 31 26  1  0  0  0  0
 33 24  1  6  0  0  0
 33 34  1  0  0  0  0
 33 31  1  0  0  0  0
 34 28  2  0  0  0  0
 35 38  1  0  0  0  0
 35 42  1  0  0  0  0
 35 36  1  0  0  0  0
 37 40  1  6  0  0  0
 37 33  1  0  0  0  0
 39 35  1  0  0  0  0
 40 36  1  0  0  0  0
 41 42  1  0  0  0  0
 41 37  1  0  0  0  0
M  END
>  <MODEL>
3

>  <REMARK>
 VINA RESULT:      -6.5      3.073      6.293
  Name = 
  5 active torsions:
  status: ('A' for Active; 'I' for Inactive)
    1  A    between atoms: N_7  and  C_37
    2  A    between atoms: N_7  and  C_38
    3  A    between atoms: C_16  and  C_30
    4  A    between atoms: C_26  and  C_41
    5  A    between atoms: C_30  and  C_37
                            x       y       z     vdW  Elec       q    Type
                         _______ _______ _______ _____ _____    ______ ____

>  <TORSDO>
F 5

$$$$
=
 OpenBabel11062413143D

 42 47  0  0  1  0  0  0  0  0999 V2000
  189.1760  177.2590  136.3050 P   0  0  2  0  0  0  0  0  0  0  0  0
  184.5500  175.1700  137.0360 C   0  0  0  0  0  3  0  0  0  0  0  0
  189.7780  178.7280  137.0110 O   0  0  0  0  0  1  0  0  0  0  0  0
  186.3370  173.6580  136.6250 N   0  0  0  0  0  0  0  0  0  0  0  0
  186.8510  175.9420  137.1670 C   0  0  0  0  0  0  0  0  0  0  0  0
  188.9210  172.8180  136.5980 N   0  0  0  0  0  1  0  0  0  0  0  0
  188.7300  174.2600  136.6090 C   0  0  2  0  0  3  0  0  0  0  0  0
  189.6170  174.8520  137.6100 N   0  0  0  0  0  2  0  0  0  0  0  0
  185.0060  173.8970  136.7240 C   0  0  0  0  0  3  0  0  0  0  0  0
  191.3040  175.4770  135.9630 C   0  0  0  0  0  1  0  0  0  0  0  0
  187.2760  174.6200  136.8500 C   0  0  0  0  0  0  0  0  0  0  0  0
  185.4580  176.2060  137.2440 C   0  0  0  0  0  0  0  0  0  0  0  0
  187.8300  177.0130  137.5670 C   0  0  0  0  0  2  0  0  0  0  0  0
  190.3700  175.9920  137.0550 C   0  0  1  0  0  0  0  0  0  0  0  0
  192.4120  176.8660  137.9660 O   0  0  0  0  0  0  0  0  0  0  0  0
  191.4450  177.4730  140.5410 C   0  0  0  0  0  2  0  0  0  0  0  0
  189.1770  176.9490  141.3760 C   0  0  0  0  0  3  0  0  0  0  0  0
  190.5170  177.5030  141.6890 C   0  0  0  0  0  0  0  0  0  0  0  0
  189.2920  176.5400  139.9130 C   0  0  0  0  0  3  0  0  0  0  0  0
  191.1910  176.6190  138.1740 C   0  0  0  0  0  0  0  0  0  0  0  0
  190.6420  176.8950  139.4780 N   0  0  0  0  0  0  0  0  0  0  0  0
  190.8190  177.9480  142.7830 O   0  0  0  0  0  0  0  0  0  0  0  0
  184.9110  177.5000  137.5470 N   0  0  0  0  0  2  0  0  0  0  0  0
  185.1630  178.2530  138.7690 C   0  0  0  0  0  2  0  0  0  0  0  0
  179.6260  180.9030  139.8500 C   0  0  0  0  0  3  0  0  0  0  0  0
  181.6600  179.6890  139.4230 C   0  0  0  0  0  0  0  0  0  0  0  0
  181.0030  178.4990  139.7700 C   0  0  0  0  0  0  0  0  0  0  0  0
  181.7280  177.2220  139.7240 C   0  0  0  0  0  3  0  0  0  0  0  0
  180.9660  180.8980  139.4540 C   0  0  0  0  0  3  0  0  0  0  0  0
  179.6610  178.5450  140.1510 C   0  0  0  0  0  3  0  0  0  0  0  0
  183.0750  179.6360  138.9190 C   0  0  0  0  0  2  0  0  0  0  0  0
  179.0050  179.7380  140.1850 N   0  0  0  0  0  0  0  0  0  0  0  0
  183.8790  178.4880  139.5710 C   0  0  1  0  0  0  0  0  0  0  0  0
  183.0580  177.2090  139.5870 C   0  0  0  0  0  3  0  0  0  0  0  0
  185.1820  178.7790  143.9130 C   0  0  0  0  0  0  0  0  0  0  0  0
  183.7560  178.4680  143.4540 C   0  0  0  0  0  2  0  0  0  0  0  0
  184.2420  178.8750  141.0240 C   0  0  1  0  0  3  0  0  0  0  0  0
  185.1010  179.4420  145.2720 C   0  0  0  0  0  1  0  0  0  0  0  0
  185.9930  177.5000  144.0620 C   0  0  0  0  0  1  0  0  0  0  0  0
  183.6990  177.8780  142.0490 C   0  0  0  0  0  2  0  0  0  0  0  0
  186.0470  179.0710  141.2670 S   0  0  0  0  0  0  0  0  0  0  0  0
  185.8670  179.7530  142.9510 C   0  0  0  0  0  2  0  0  0  0  0  0
  1  3  1  1  0  0  0
  1 14  1  0  0  0  0
  1 13  1  0  0  0  0
  2 12  1  0  0  0  0
  4  9  1  0  0  0  0
  4 11  2  0  0  0  0
  5 12  2  0  0  0  0
  5 13  1  0  0  0  0
  7  6  1  1  0  0  0
  7 11  1  0  0  0  0
  7  8  1  0  0  0  0
  9  2  2  0  0  0  0
 11  5  1  0  0  0  0
 12 23  1  0  0  0  0
 14 10  1  6  0  0  0
 14  8  1  0  0  0  0
 14 20  1  0  0  0  0
 15 20  2  0  0  0  0
 16 18  1  0  0  0  0
 17 18  1  0  0  0  0
 18 22  2  0  0  0  0
 19 17  2  0  0  0  0
 20 21  1  0  0  0  0
 21 19  1  0  0  0  0
 21 16  1  0  0  0  0
 23 24  1  0  0  0  0
 25 32  1  0  0  0  0
 26 29  1  0  0  0  0
 26 27  2  0  0  0  0
 27 30  1  0  0  0  0
 28 27  1  0  0  0  0
 29 25  2  0  0  0  0
 30 32  2  0  0  0  0
 31 26  1  0  0  0  0
 31 33  1  0  0  0  0
 33 24  1  6  0  0  0
 33 34  1  0  0  0  0
 33 37  1  0  0  0  0
 34 28  2  0  0  0  0
 35 39  1  0  0  0  0
 35 38  1  0  0  0  0
 36 35  1  0  0  0  0
 37 41  1  0  0  0  0
 37 40  1  1  0  0  0
 40 36  1  0  0  0  0
 41 42  1  0  0  0  0
 42 35  1  0  0  0  0
M  END
>  <MODEL>
4

>  <REMARK>
 VINA RESULT:      -6.5      2.718      5.171
  Name = 
  5 active torsions:
  status: ('A' for Active; 'I' for Inactive)
    1  A    between atoms: N_7  and  C_37
    2  A    between atoms: N_7  and  C_38
    3  A    between atoms: C_16  and  C_30
    4  A    between atoms: C_26  and  C_41
    5  A    between atoms: C_30  and  C_37
                            x       y       z     vdW  Elec       q    Type
                         _______ _______ _______ _____ _____    ______ ____

>  <TORSDO>
F 5

$$$$
=
 OpenBabel11062413143D

 42 47  0  0  1  0  0  0  0  0999 V2000
  189.2290  178.3880  139.8180 P   0  0  2  0  0  0  0  0  0  0  0  0
  187.5830  176.4180  135.3780 C   0  0  0  0  0  3  0  0  0  0  0  0
  188.2910  178.6290  141.2610 O   0  0  0  0  0  1  0  0  0  0  0  0
  189.8600  176.0200  135.9290 N   0  0  0  0  0  0  0  0  0  0  0  0
  188.3790  176.8390  137.6350 C   0  0  0  0  0  0  0  0  0  0  0  0
  191.9970  175.7060  137.5790 N   0  0  0  0  0  1  0  0  0  0  0  0
  190.8900  176.4750  138.1260 C   0  0  2  0  0  3  0  0  0  0  0  0
  190.6020  176.0030  139.4790 N   0  0  0  0  0  2  0  0  0  0  0  0
  188.8580  176.0050  135.0160 C   0  0  0  0  0  3  0  0  0  0  0  0
  191.8670  177.8010  140.5360 C   0  0  0  0  0  1  0  0  0  0  0  0
  189.6720  176.4020  137.2240 C   0  0  0  0  0  0  0  0  0  0  0  0
  187.3320  176.8530  136.6780 C   0  0  0  0  0  0  0  0  0  0  0  0
  188.0680  177.1350  139.0780 C   0  0  0  0  0  2  0  0  0  0  0  0
  190.5020  177.1250  140.4310 C   0  0  1  0  0  0  0  0  0  0  0  0
  189.2640  175.6270  141.8390 O   0  0  0  0  0  0  0  0  0  0  0  0
  190.1970  176.5850  144.3190 C   0  0  0  0  0  2  0  0  0  0  0  0
  191.6810  178.5390  144.6290 C   0  0  0  0  0  3  0  0  0  0  0  0
  190.8800  177.4730  145.2800 C   0  0  0  0  0  0  0  0  0  0  0  0
  191.4690  178.2860  143.1410 C   0  0  0  0  0  3  0  0  0  0  0  0
  190.1020  176.5700  141.7910 C   0  0  0  0  0  0  0  0  0  0  0  0
  190.6050  177.1120  143.0290 N   0  0  0  0  0  0  0  0  0  0  0  0
  190.8020  177.3380  146.4890 O   0  0  0  0  0  0  0  0  0  0  0  0
  185.9920  177.2810  136.9730 N   0  0  0  0  0  2  0  0  0  0  0  0
  184.8270  177.0340  136.1320 C   0  0  0  0  0  2  0  0  0  0  0  0
  181.6120  171.7620  135.2840 C   0  0  0  0  0  3  0  0  0  0  0  0
  182.9990  173.6810  135.7230 C   0  0  0  0  0  0  0  0  0  0  0  0
  183.6460  172.9590  136.7380 C   0  0  0  0  0  0  0  0  0  0  0  0
  184.7280  173.5880  137.5070 C   0  0  0  0  0  3  0  0  0  0  0  0
  181.9810  173.0770  134.9840 C   0  0  0  0  0  3  0  0  0  0  0  0
  183.2540  171.6450  136.9980 C   0  0  0  0  0  3  0  0  0  0  0  0
  183.4790  175.0600  135.3710 C   0  0  0  0  0  2  0  0  0  0  0  0
  182.2510  171.0780  136.2730 N   0  0  0  0  0  0  0  0  0  0  0  0
  184.0320  175.8130  136.6030 C   0  0  1  0  0  0  0  0  0  0  0  0
  184.9410  174.9050  137.4140 C   0  0  0  0  0  3  0  0  0  0  0  0
  181.1660  177.7240  139.5660 C   0  0  0  0  0  0  0  0  0  0  0  0
  181.9870  176.4630  139.8420 C   0  0  0  0  0  2  0  0  0  0  0  0
  182.8530  176.2760  137.4930 C   0  0  1  0  0  3  0  0  0  0  0  0
  179.9160  177.6630  140.4170 C   0  0  0  0  0  1  0  0  0  0  0  0
  181.9420  178.9720  139.9600 C   0  0  0  0  0  1  0  0  0  0  0  0
  183.2350  176.3630  138.9720 C   0  0  0  0  0  2  0  0  0  0  0  0
  182.1570  177.8820  136.9530 S   0  0  0  0  0  0  0  0  0  0  0  0
  180.7370  177.7880  138.0970 C   0  0  0  0  0  2  0  0  0  0  0  0
  1 14  1  0  0  0  0
  1  3  1  1  0  0  0
  2 12  1  0  0  0  0
  4 11  2  0  0  0  0
  5 13  1  0  0  0  0
  7  6  1  6  0  0  0
  7  8  1  0  0  0  0
  8 14  1  0  0  0  0
  9  2  2  0  0  0  0
  9  4  1  0  0  0  0
 11  5  1  0  0  0  0
 11  7  1  0  0  0  0
 12 23  1  0  0  0  0
 12  5  2  0  0  0  0
 13  1  1  0  0  0  0
 14 10  1  1  0  0  0
 14 20  1  0  0  0  0
 16 18  1  0  0  0  0
 17 18  1  0  0  0  0
 18 22  2  0  0  0  0
 19 17  2  0  0  0  0
 20 15  2  0  0  0  0
 20 21  1  0  0  0  0
 21 19  1  0  0  0  0
 21 16  1  0  0  0  0
 24 23  1  0  0  0  0
 25 32  1  0  0  0  0
 26 27  2  0  0  0  0
 27 30  1  0  0  0  0
 27 28  1  0  0  0  0
 29 25  2  0  0  0  0
 29 26  1  0  0  0  0
 31 26  1  0  0  0  0
 31 33  1  0  0  0  0
 32 30  2  0  0  0  0
 33 24  1  6  0  0  0
 33 34  1  0  0  0  0
 33 37  1  0  0  0  0
 34 28  2  0  0  0  0
 35 36  1  0  0  0  0
 35 39  1  0  0  0  0
 35 38  1  0  0  0  0
 37 40  1  1  0  0  0
 40 36  1  0  0  0  0
 41 37  1  0  0  0  0
 41 42  1  0  0  0  0
 42 35  1  0  0  0  0
M  END
>  <MODEL>
5

>  <REMARK>
 VINA RESULT:      -6.4      1.716      3.964
  Name = 
  5 active torsions:
  status: ('A' for Active; 'I' for Inactive)
    1  A    between atoms: N_7  and  C_37
    2  A    between atoms: N_7  and  C_38
    3  A    between atoms: C_16  and  C_30
    4  A    between atoms: C_26  and  C_41
    5  A    between atoms: C_30  and  C_37
                            x       y       z     vdW  Elec       q    Type
                         _______ _______ _______ _____ _____    ______ ____

>  <TORSDO>
F 5

$$$$
=
 OpenBabel11062413143D

 42 47  0  0  1  0  0  0  0  0999 V2000
  187.6780  176.1200  135.5880 P   0  0  2  0  0  0  0  0  0  0  0  0
  183.1450  174.5360  137.3910 C   0  0  0  0  0  3  0  0  0  0  0  0
  188.6370  177.4370  136.1950 O   0  0  0  0  0  1  0  0  0  0  0  0
  184.5430  172.8680  136.4360 N   0  0  0  0  0  0  0  0  0  0  0  0
  185.4880  175.0150  136.9550 C   0  0  0  0  0  0  0  0  0  0  0  0
  186.8930  171.7330  135.6780 N   0  0  0  0  0  1  0  0  0  0  0  0
  186.9130  173.1810  135.8240 C   0  0  2  0  0  3  0  0  0  0  0  0
  188.0980  173.5690  136.5880 N   0  0  0  0  0  2  0  0  0  0  0  0
  183.3270  173.2520  136.8960 C   0  0  0  0  0  3  0  0  0  0  0  0
  189.3810  174.1390  134.5940 C   0  0  0  0  0  1  0  0  0  0  0  0
  185.6320  173.6860  136.4600 C   0  0  0  0  0  0  0  0  0  0  0  0
  184.2110  175.4340  137.4120 C   0  0  0  0  0  0  0  0  0  0  0  0
  186.6760  175.9200  137.1450 C   0  0  0  0  0  2  0  0  0  0  0  0
  188.8360  174.6580  135.9220 C   0  0  1  0  0  0  0  0  0  0  0  0
  189.8130  175.1020  138.0680 O   0  0  0  0  0  0  0  0  0  0  0  0
  192.3550  175.9100  137.1640 C   0  0  0  0  0  2  0  0  0  0  0  0
  193.0100  176.1800  134.7940 C   0  0  0  0  0  3  0  0  0  0  0  0
  193.4110  176.3160  136.2160 C   0  0  0  0  0  0  0  0  0  0  0  0
  191.5840  175.6490  134.8760 C   0  0  0  0  0  3  0  0  0  0  0  0
  189.9920  175.0760  136.8180 C   0  0  0  0  0  0  0  0  0  0  0  0
  191.2690  175.4930  136.2950 N   0  0  0  0  0  0  0  0  0  0  0  0
  194.5090  176.7140  136.5670 O   0  0  0  0  0  0  0  0  0  0  0  0
  183.9430  176.7500  137.9230 N   0  0  0  0  0  2  0  0  0  0  0  0
  182.7640  177.1280  138.6920 C   0  0  0  0  0  2  0  0  0  0  0  0
  183.5570  179.1150  144.5470 C   0  0  0  0  0  3  0  0  0  0  0  0
  183.4600  178.3950  142.2520 C   0  0  0  0  0  0  0  0  0  0  0  0
  184.6610  179.0780  142.0050 C   0  0  0  0  0  0  0  0  0  0  0  0
  185.2520  179.0560  140.6590 C   0  0  0  0  0  3  0  0  0  0  0  0
  182.9080  178.4050  143.5330 C   0  0  0  0  0  3  0  0  0  0  0  0
  185.2820  179.7670  143.0470 C   0  0  0  0  0  3  0  0  0  0  0  0
  182.8370  177.5700  141.1610 C   0  0  0  0  0  2  0  0  0  0  0  0
  184.7200  179.7740  144.2870 N   0  0  0  0  0  0  0  0  0  0  0  0
  183.0910  178.1750  139.7610 C   0  0  1  0  0  0  0  0  0  0  0  0
  184.5450  178.5970  139.6220 C   0  0  0  0  0  3  0  0  0  0  0  0
  180.3380  181.5080  138.3600 C   0  0  0  0  0  0  0  0  0  0  0  0
  181.8660  181.5640  138.3070 C   0  0  0  0  0  2  0  0  0  0  0  0
  182.1830  179.4140  139.5640 C   0  0  1  0  0  3  0  0  0  0  0  0
  179.8220  182.9260  138.4740 C   0  0  0  0  0  1  0  0  0  0  0  0
  179.7760  180.9040  137.0810 C   0  0  0  0  0  1  0  0  0  0  0  0
  182.5130  180.1830  138.2840 C   0  0  0  0  0  2  0  0  0  0  0  0
  180.4020  178.9850  139.5720 S   0  0  0  0  0  0  0  0  0  0  0  0
  179.8610  180.7290  139.5880 C   0  0  0  0  0  2  0  0  0  0  0  0
  1 14  1  0  0  0  0
  1  3  1  1  0  0  0
  1 13  1  0  0  0  0
  2 12  1  0  0  0  0
  4 11  2  0  0  0  0
  4  9  1  0  0  0  0
  5 13  1  0  0  0  0
  5 12  2  0  0  0  0
  7  6  1  1  0  0  0
  7 11  1  0  0  0  0
  7  8  1  0  0  0  0
  9  2  2  0  0  0  0
 11  5  1  0  0  0  0
 12 23  1  0  0  0  0
 14 10  1  6  0  0  0
 14  8  1  0  0  0  0
 14 20  1  0  0  0  0
 17 19  2  0  0  0  0
 17 18  1  0  0  0  0
 18 22  2  0  0  0  0
 18 16  1  0  0  0  0
 19 21  1  0  0  0  0
 20 15  2  0  0  0  0
 21 20  1  0  0  0  0
 21 16  1  0  0  0  0
 23 24  1  0  0  0  0
 26 29  1  0  0  0  0
 27 26  2  0  0  0  0
 27 30  1  0  0  0  0
 28 27  1  0  0  0  0
 29 25  2  0  0  0  0
 30 32  2  0  0  0  0
 31 26  1  0  0  0  0
 32 25  1  0  0  0  0
 33 24  1  6  0  0  0
 33 31  1  0  0  0  0
 34 33  1  0  0  0  0
 34 28  2  0  0  0  0
 35 38  1  0  0  0  0
 35 42  1  0  0  0  0
 36 35  1  0  0  0  0
 37 40  1  6  0  0  0
 37 41  1  0  0  0  0
 37 33  1  0  0  0  0
 39 35  1  0  0  0  0
 40 36  1  0  0  0  0
 41 42  1  0  0  0  0
M  END
>  <MODEL>
6

>  <REMARK>
 VINA RESULT:      -6.4      3.560      6.773
  Name = 
  5 active torsions:
  status: ('A' for Active; 'I' for Inactive)
    1  A    between atoms: N_7  and  C_37
    2  A    between atoms: N_7  and  C_38
    3  A    between atoms: C_16  and  C_30
    4  A    between atoms: C_26  and  C_41
    5  A    between atoms: C_30  and  C_37
                            x       y       z     vdW  Elec       q    Type
                         _______ _______ _______ _____ _____    ______ ____

>  <TORSDO>
F 5

$$$$
=
 OpenBabel11062413143D

 42 47  0  0  1  0  0  0  0  0999 V2000
  188.6260  177.3780  136.2480 P   0  0  2  0  0  0  0  0  0  0  0  0
  184.1750  175.0420  137.2660 C   0  0  0  0  0  3  0  0  0  0  0  0
  189.2490  178.8100  137.0110 O   0  0  0  0  0  1  0  0  0  0  0  0
  185.9590  173.6470  136.5480 N   0  0  0  0  0  0  0  0  0  0  0  0
  186.4500  175.8990  137.2270 C   0  0  0  0  0  0  0  0  0  0  0  0
  188.5530  172.9210  136.1860 N   0  0  0  0  0  1  0  0  0  0  0  0
  188.3160  174.3490  136.3390 C   0  0  2  0  0  3  0  0  0  0  0  0
  189.2830  174.8950  137.2910 N   0  0  0  0  0  2  0  0  0  0  0  0
  184.6390  173.8200  136.8020 C   0  0  0  0  0  3  0  0  0  0  0  0
  190.7650  175.7220  135.5400 C   0  0  0  0  0  1  0  0  0  0  0  0
  186.8840  174.6260  136.7570 C   0  0  0  0  0  0  0  0  0  0  0  0
  185.0650  176.0960  137.4680 C   0  0  0  0  0  0  0  0  0  0  0  0
  187.4290  176.9740  137.6150 C   0  0  0  0  0  2  0  0  0  0  0  0
  189.9350  176.1070  136.7610 C   0  0  1  0  0  0  0  0  0  0  0  0
  192.0620  176.8780  137.5620 O   0  0  0  0  0  0  0  0  0  0  0  0
  191.2800  177.4640  140.2030 C   0  0  0  0  0  2  0  0  0  0  0  0
  189.0480  177.0090  141.1660 C   0  0  0  0  0  3  0  0  0  0  0  0
  190.4250  177.5030  141.4070 C   0  0  0  0  0  0  0  0  0  0  0  0
  189.0560  176.6310  139.6910 C   0  0  0  0  0  3  0  0  0  0  0  0
  190.8470  176.6740  137.8400 C   0  0  0  0  0  0  0  0  0  0  0  0
  190.3910  176.9420  139.1810 N   0  0  0  0  0  0  0  0  0  0  0  0
  190.8120  177.9110  142.4890 O   0  0  0  0  0  0  0  0  0  0  0  0
  184.5100  177.3370  137.9340 N   0  0  0  0  0  2  0  0  0  0  0  0
  183.2670  177.4710  138.6850 C   0  0  0  0  0  2  0  0  0  0  0  0
  183.4290  178.9050  144.7480 C   0  0  0  0  0  3  0  0  0  0  0  0
  183.5730  178.4170  142.3950 C   0  0  0  0  0  0  0  0  0  0  0  0
  184.7250  179.2150  142.3180 C   0  0  0  0  0  0  0  0  0  0  0  0
  185.4180  179.3780  141.0320 C   0  0  0  0  0  3  0  0  0  0  0  0
  182.9250  178.2530  143.6190 C   0  0  0  0  0  3  0  0  0  0  0  0
  185.2020  179.8410  143.4710 C   0  0  0  0  0  3  0  0  0  0  0  0
  183.1100  177.6630  141.1810 C   0  0  0  0  0  2  0  0  0  0  0  0
  184.5470  179.6760  144.6540 N   0  0  0  0  0  0  0  0  0  0  0  0
  183.4180  178.4260  139.8730 C   0  0  1  0  0  0  0  0  0  0  0  0
  184.8360  178.9730  139.8990 C   0  0  0  0  0  3  0  0  0  0  0  0
  180.2310  181.4450  138.7010 C   0  0  0  0  0  0  0  0  0  0  0  0
  181.6950  181.5140  138.2620 C   0  0  0  0  0  2  0  0  0  0  0  0
  182.4240  179.6030  139.7180 C   0  0  1  0  0  3  0  0  0  0  0  0
  179.6820  182.8560  138.7190 C   0  0  0  0  0  1  0  0  0  0  0  0
  179.4080  180.6330  137.7120 C   0  0  0  0  0  1  0  0  0  0  0  0
  182.3900  180.1570  138.2930 C   0  0  0  0  0  2  0  0  0  0  0  0
  180.7240  179.1560  140.2350 S   0  0  0  0  0  0  0  0  0  0  0  0
  180.1090  180.8720  140.1150 C   0  0  0  0  0  2  0  0  0  0  0  0
  1 14  1  0  0  0  0
  1  3  1  1  0  0  0
  1 13  1  0  0  0  0
  2 12  1  0  0  0  0
  4 11  2  0  0  0  0
  4  9  1  0  0  0  0
  5 12  2  0  0  0  0
  5 13  1  0  0  0  0
  7  6  1  1  0  0  0
  7 11  1  0  0  0  0
  7  8  1  0  0  0  0
  9  2  2  0  0  0  0
 11  5  1  0  0  0  0
 12 23  1  0  0  0  0
 14 10  1  6  0  0  0
 14  8  1  0  0  0  0
 14 20  1  0  0  0  0
 15 20  2  0  0  0  0
 16 18  1  0  0  0  0
 17 18  1  0  0  0  0
 18 22  2  0  0  0  0
 19 17  2  0  0  0  0
 20 21  1  0  0  0  0
 21 19  1  0  0  0  0
 21 16  1  0  0  0  0
 23 24  1  0  0  0  0
 26 29  1  0  0  0  0
 27 26  2  0  0  0  0
 27 30  1  0  0  0  0
 28 27  1  0  0  0  0
 29 25  2  0  0  0  0
 30 32  2  0  0  0  0
 31 26  1  0  0  0  0
 32 25  1  0  0  0  0
 33 24  1  6  0  0  0
 33 34  1  0  0  0  0
 33 31  1  0  0  0  0
 34 28  2  0  0  0  0
 35 38  1  0  0  0  0
 35 42  1  0  0  0  0
 36 40  1  0  0  0  0
 36 35  1  0  0  0  0
 37 40  1  6  0  0  0
 37 33  1  0  0  0  0
 37 41  1  0  0  0  0
 39 35  1  0  0  0  0
 42 41  1  0  0  0  0
M  END
>  <MODEL>
7

>  <REMARK>
 VINA RESULT:      -6.4      3.011      5.636
  Name = 
  5 active torsions:
  status: ('A' for Active; 'I' for Inactive)
    1  A    between atoms: N_7  and  C_37
    2  A    between atoms: N_7  and  C_38
    3  A    between atoms: C_16  and  C_30
    4  A    between atoms: C_26  and  C_41
    5  A    between atoms: C_30  and  C_37
                            x       y       z     vdW  Elec       q    Type
                         _______ _______ _______ _____ _____    ______ ____

>  <TORSDO>
F 5

$$$$
=
 OpenBabel11062413143D

 42 47  0  0  1  0  0  0  0  0999 V2000
  186.5900  179.2480  141.7180 P   0  0  2  0  0  0  0  0  0  0  0  0
  190.3890  176.2440  143.4060 C   0  0  0  0  0  3  0  0  0  0  0  0
  185.7930  179.1520  140.1770 O   0  0  0  0  0  1  0  0  0  0  0  0
  188.9000  177.0890  145.0540 N   0  0  0  0  0  0  0  0  0  0  0  0
  188.2790  177.2510  142.7380 C   0  0  0  0  0  0  0  0  0  0  0  0
  186.5490  178.0570  146.0140 N   0  0  0  0  0  1  0  0  0  0  0  0
  186.7640  178.2330  144.5860 C   0  0  2  0  0  3  0  0  0  0  0  0
  185.5550  177.8340  143.8670 N   0  0  0  0  0  2  0  0  0  0  0  0
  190.0680  176.4790  144.7360 C   0  0  0  0  0  3  0  0  0  0  0  0
  184.7550  180.1270  143.6370 C   0  0  0  0  0  1  0  0  0  0  0  0
  187.9870  177.4680  144.1160 C   0  0  0  0  0  0  0  0  0  0  0  0
  189.5130  176.6390  142.3950 C   0  0  0  0  0  0  0  0  0  0  0  0
  187.2590  177.5110  141.6630 C   0  0  0  0  0  2  0  0  0  0  0  0
  185.1490  178.8570  142.8860 C   0  0  1  0  0  0  0  0  0  0  0  0
  184.1360  177.8580  140.9530 O   0  0  0  0  0  0  0  0  0  0  0  0
  181.4680  177.9140  141.8560 C   0  0  0  0  0  2  0  0  0  0  0  0
  180.6960  178.9430  143.9680 C   0  0  0  0  0  3  0  0  0  0  0  0
  180.3140  178.2510  142.7130 C   0  0  0  0  0  0  0  0  0  0  0  0
  182.2130  179.0420  143.8740 C   0  0  0  0  0  3  0  0  0  0  0  0
  183.9500  178.3320  142.1090 C   0  0  0  0  0  0  0  0  0  0  0  0
  182.6030  178.4000  142.6190 N   0  0  0  0  0  0  0  0  0  0  0  0
  179.1620  177.9790  142.4210 O   0  0  0  0  0  0  0  0  0  0  0  0
  189.9210  176.3770  141.0430 N   0  0  0  0  0  2  0  0  0  0  0  0
  190.5610  177.3420  140.1570 C   0  0  0  0  0  2  0  0  0  0  0  0
  186.4120  175.6760  135.8150 C   0  0  0  0  0  3  0  0  0  0  0  0
  187.9760  176.5260  137.4360 C   0  0  0  0  0  0  0  0  0  0  0  0
  187.9760  177.7580  136.7650 C   0  0  0  0  0  0  0  0  0  0  0  0
  188.7990  178.8660  137.2690 C   0  0  0  0  0  3  0  0  0  0  0  0
  187.1820  175.4800  136.9650 C   0  0  0  0  0  3  0  0  0  0  0  0
  187.1840  177.9160  135.6260 C   0  0  0  0  0  3  0  0  0  0  0  0
  188.7480  176.3780  138.7170 C   0  0  0  0  0  2  0  0  0  0  0  0
  186.4260  176.8780  135.1760 N   0  0  0  0  0  0  0  0  0  0  0  0
  190.0270  177.2470  138.7250 C   0  0  1  0  0  0  0  0  0  0  0  0
  189.7220  178.6440  138.2100 C   0  0  0  0  0  3  0  0  0  0  0  0
  193.5040  175.0310  136.8170 C   0  0  0  0  0  0  0  0  0  0  0  0
  193.5390  176.5010  137.2410 C   0  0  0  0  0  2  0  0  0  0  0  0
  191.0970  176.5940  137.8180 C   0  0  1  0  0  3  0  0  0  0  0  0
  194.4860  174.8500  135.6800 C   0  0  0  0  0  1  0  0  0  0  0  0
  193.9390  174.1280  137.9620 C   0  0  0  0  0  1  0  0  0  0  0  0
  192.5200  176.8320  138.3260 C   0  0  0  0  0  2  0  0  0  0  0  0
  190.8250  174.7960  137.5940 S   0  0  0  0  0  0  0  0  0  0  0  0
  192.1140  174.6400  136.3100 C   0  0  0  0  0  2  0  0  0  0  0  0
  1  3  1  6  0  0  0
  1 14  1  0  0  0  0
  2  9  1  0  0  0  0
  5 11  2  0  0  0  0
  7  6  1  1  0  0  0
  8  7  1  0  0  0  0
  9  4  2  0  0  0  0
 11  7  1  0  0  0  0
 11  4  1  0  0  0  0
 12  5  1  0  0  0  0
 12  2  2  0  0  0  0
 13  1  1  0  0  0  0
 13  5  1  0  0  0  0
 14 10  1  1  0  0  0
 14  8  1  0  0  0  0
 15 20  2  0  0  0  0
 16 21  1  0  0  0  0
 16 18  1  0  0  0  0
 18 17  1  0  0  0  0
 19 17  2  0  0  0  0
 20 21  1  0  0  0  0
 20 14  1  0  0  0  0
 21 19  1  0  0  0  0
 22 18  2  0  0  0  0
 23 12  1  0  0  0  0
 24 23  1  0  0  0  0
 25 29  1  0  0  0  0
 26 31  1  0  0  0  0
 27 28  1  0  0  0  0
 27 26  1  0  0  0  0
 28 34  2  0  0  0  0
 29 26  2  0  0  0  0
 30 27  2  0  0  0  0
 31 33  1  0  0  0  0
 32 30  1  0  0  0  0
 32 25  2  0  0  0  0
 33 24  1  1  0  0  0
 34 33  1  0  0  0  0
 35 36  1  0  0  0  0
 35 39  1  0  0  0  0
 36 40  1  0  0  0  0
 37 40  1  1  0  0  0
 37 33  1  0  0  0  0
 38 35  1  0  0  0  0
 41 37  1  0  0  0  0
 42 35  1  0  0  0  0
 42 41  1  0  0  0  0
M  END
>  <MODEL>
8

>  <REMARK>
 VINA RESULT:      -6.4      3.223      7.688
  Name = 
  5 active torsions:
  status: ('A' for Active; 'I' for Inactive)
    1  A    between atoms: N_7  and  C_37
    2  A    between atoms: N_7  and  C_38
    3  A    between atoms: C_16  and  C_30
    4  A    between atoms: C_26  and  C_41
    5  A    between atoms: C_30  and  C_37
                            x       y       z     vdW  Elec       q    Type
                         _______ _______ _______ _____ _____    ______ ____

>  <TORSDO>
F 5

$$$$
=
 OpenBabel11062413143D

 42 47  0  0  1  0  0  0  0  0999 V2000
  182.3790  177.5310  136.3510 P   0  0  2  0  0  0  0  0  0  0  0  0
  184.3450  178.7930  140.9170 C   0  0  0  0  0  3  0  0  0  0  0  0
  183.2520  176.9440  134.9680 O   0  0  0  0  0  1  0  0  0  0  0  0
  182.1320  177.9300  140.9240 N   0  0  0  0  0  0  0  0  0  0  0  0
  183.4620  177.6940  138.9370 C   0  0  0  0  0  0  0  0  0  0  0  0
  180.0270  176.4850  139.9910 N   0  0  0  0  0  1  0  0  0  0  0  0
  181.0140  176.8720  138.9940 C   0  0  2  0  0  3  0  0  0  0  0  0
  181.3380  175.7110  138.1660 N   0  0  0  0  0  2  0  0  0  0  0  0
  183.1420  178.5610  141.5690 C   0  0  0  0  0  3  0  0  0  0  0  0
  179.8290  176.3830  136.3710 C   0  0  0  0  0  1  0  0  0  0  0  0
  182.2460  177.4720  139.6450 C   0  0  0  0  0  0  0  0  0  0  0  0
  184.5150  178.3810  139.5960 C   0  0  0  0  0  0  0  0  0  0  0  0
  183.7070  177.0920  137.5800 C   0  0  0  0  0  2  0  0  0  0  0  0
  181.2730  176.0390  136.7300 C   0  0  1  0  0  0  0  0  0  0  0  0
  181.0580  174.4870  134.9130 O   0  0  0  0  0  0  0  0  0  0  0  0
  183.2350  172.8270  135.5760 C   0  0  0  0  0  2  0  0  0  0  0  0
  184.6300  173.0450  137.6060 C   0  0  0  0  0  3  0  0  0  0  0  0
  184.3430  172.2690  136.3760 C   0  0  0  0  0  0  0  0  0  0  0  0
  183.6100  174.1760  137.5620 C   0  0  0  0  0  3  0  0  0  0  0  0
  181.7190  174.8200  135.9360 C   0  0  0  0  0  0  0  0  0  0  0  0
  182.8360  174.0000  136.3330 N   0  0  0  0  0  0  0  0  0  0  0  0
  184.9670  171.2730  136.0510 O   0  0  0  0  0  0  0  0  0  0  0  0
  185.7810  178.6700  138.9820 N   0  0  0  0  0  2  0  0  0  0  0  0
  187.0460  178.8140  139.6920 C   0  0  0  0  0  2  0  0  0  0  0  0
  189.1070  174.0420  136.2530 C   0  0  0  0  0  3  0  0  0  0  0  0
  188.4350  176.0150  137.4580 C   0  0  0  0  0  0  0  0  0  0  0  0
  189.5300  176.7010  136.9110 C   0  0  0  0  0  0  0  0  0  0  0  0
  189.7540  178.1120  137.2540 C   0  0  0  0  0  3  0  0  0  0  0  0
  188.2160  174.6790  137.1210 C   0  0  0  0  0  3  0  0  0  0  0  0
  190.3910  176.0310  136.0400 C   0  0  0  0  0  3  0  0  0  0  0  0
  187.4490  176.7540  138.3180 C   0  0  0  0  0  2  0  0  0  0  0  0
  190.1650  174.7240  135.7340 N   0  0  0  0  0  0  0  0  0  0  0  0
  188.1240  177.8800  139.1350 C   0  0  1  0  0  0  0  0  0  0  0  0
  189.0730  178.6770  138.2560 C   0  0  0  0  0  3  0  0  0  0  0  0
  190.7000  176.8840  142.7430 C   0  0  0  0  0  0  0  0  0  0  0  0
  191.2020  176.9070  141.2980 C   0  0  0  0  0  2  0  0  0  0  0  0
  188.9220  177.2570  140.3060 C   0  0  1  0  0  3  0  0  0  0  0  0
  191.5590  175.9100  143.5210 C   0  0  0  0  0  1  0  0  0  0  0  0
  190.8450  178.2560  143.3870 C   0  0  0  0  0  1  0  0  0  0  0  0
  190.3540  177.7880  140.3870 C   0  0  0  0  0  2  0  0  0  0  0  0
  188.0950  177.4970  141.9240 S   0  0  0  0  0  0  0  0  0  0  0  0
  189.2500  176.3970  142.8120 C   0  0  0  0  0  2  0  0  0  0  0  0
  1  3  1  6  0  0  0
  1 14  1  0  0  0  0
  1 13  1  0  0  0  0
  2  9  1  0  0  0  0
  4  9  2  0  0  0  0
  5 12  1  0  0  0  0
  5 11  2  0  0  0  0
  7 11  1  0  0  0  0
  7  6  1  1  0  0  0
  8  7  1  0  0  0  0
 11  4  1  0  0  0  0
 12  2  2  0  0  0  0
 13  5  1  0  0  0  0
 14 10  1  6  0  0  0
 14  8  1  0  0  0  0
 15 20  2  0  0  0  0
 16 21  1  0  0  0  0
 16 18  1  0  0  0  0
 18 17  1  0  0  0  0
 19 17  2  0  0  0  0
 20 21  1  0  0  0  0
 20 14  1  0  0  0  0
 21 19  1  0  0  0  0
 22 18  2  0  0  0  0
 23 12  1  0  0  0  0
 23 24  1  0  0  0  0
 25 29  1  0  0  0  0
 26 31  1  0  0  0  0
 27 28  1  0  0  0  0
 27 26  1  0  0  0  0
 28 34  2  0  0  0  0
 29 26  2  0  0  0  0
 30 27  2  0  0  0  0
 31 33  1  0  0  0  0
 32 30  1  0  0  0  0
 32 25  2  0  0  0  0
 33 24  1  1  0  0  0
 33 37  1  0  0  0  0
 34 33  1  0  0  0  0
 35 42  1  0  0  0  0
 35 39  1  0  0  0  0
 35 38  1  0  0  0  0
 36 35  1  0  0  0  0
 37 40  1  1  0  0  0
 37 41  1  0  0  0  0
 40 36  1  0  0  0  0
 41 42  1  0  0  0  0
M  END
>  <MODEL>
9

>  <REMARK>
 VINA RESULT:      -6.4      3.597      9.060
  Name = 
  5 active torsions:
  status: ('A' for Active; 'I' for Inactive)
    1  A    between atoms: N_7  and  C_37
    2  A    between atoms: N_7  and  C_38
    3  A    between atoms: C_16  and  C_30
    4  A    between atoms: C_26  and  C_41
    5  A    between atoms: C_30  and  C_37
                            x       y       z     vdW  Elec       q    Type
                         _______ _______ _______ _____ _____    ______ ____

>  <TORSDO>
F 5

$$$$
