=
 OpenBabel11062413093D

 40 45  0  0  1  0  0  0  0  0999 V2000
  191.1310  176.9860  142.8000 S   0  0  0  0  0  0  0  0  0  0  0  0
  190.6970  176.8750  141.0800 C   0  0  2  0  0  3  0  0  0  0  0  0
  191.6070  176.7760  139.8940 C   0  0  1  0  0  3  0  0  0  0  0  0
  189.5750  177.4460  140.7460 C   0  0  2  0  0  3  0  0  0  0  0  0
  189.5850  177.7450  139.3240 C   0  0  0  0  0  0  0  0  0  0  0  0
  190.7590  177.3900  138.8120 C   0  0  0  0  0  3  0  0  0  0  0  0
  188.8200  178.1200  141.8300 C   0  0  2  0  0  3  0  0  0  0  0  0
  189.8170  178.2530  142.9860 C   0  0  0  0  0  2  0  0  0  0  0  0
  187.9420  175.5510  136.2930 N   0  0  0  0  0  0  0  0  0  0  0  0
  186.1540  177.2010  135.7410 C   0  0  0  0  0  2  0  0  0  0  0  0
  187.1320  178.0610  139.0030 C   0  0  0  0  0  2  0  0  0  0  0  0
  188.7710  173.9030  134.8540 O   0  0  0  0  0  0  0  0  0  0  0  0
  187.8760  176.0590  137.6680 C   0  0  0  0  0  2  0  0  0  0  0  0
  187.0570  176.0720  135.2410 C   0  0  0  0  0  2  0  0  0  0  0  0
  187.6710  177.5770  137.6800 C   0  0  1  0  0  0  0  0  0  0  0  0
  186.9760  178.2360  136.4970 C   0  0  0  0  0  2  0  0  0  0  0  0
  188.8310  174.4680  135.9800 C   0  0  0  0  0  0  0  0  0  0  0  0
  188.5260  178.4870  138.5600 C   0  0  2  0  0  3  0  0  0  0  0  0
  189.8590  174.0080  136.9630 C   0  0  0  0  0  2  0  0  0  0  0  0
  191.3880  175.6200  135.8580 O   0  0  0  0  0  0  0  0  0  0  0  0
  192.6570  175.8800  135.7830 N   0  0  0  0  0  0  0  0  0  0  0  0
  191.1970  174.5790  136.6310 C   0  0  0  0  0  0  0  0  0  0  0  0
  192.3570  174.0960  137.1140 N   0  0  0  0  0  0  0  0  0  0  0  0
  193.2420  174.9470  136.5580 C   0  0  0  0  0  0  0  0  0  0  0  0
  195.0220  173.8240  137.8290 C   0  0  0  0  0  1  0  0  0  0  0  0
  194.7150  174.8320  136.7400 C   0  0  0  0  0  2  0  0  0  0  0  0
  192.8590  177.5150  140.0840 N   0  0  0  0  0  2  0  0  0  0  0  0
  193.8410  176.9460  139.3370 O   0  0  0  0  0  1  0  0  0  0  0  0
  187.7530  177.3100  142.2260 O   0  0  0  0  0  0  0  0  0  0  0  0
  187.1980  177.9630  143.3280 C   0  0  0  0  0  2  0  0  0  0  0  0
  187.4630  177.1600  144.5840 C   0  0  1  0  0  3  0  0  0  0  0  0
  187.7620  178.1170  145.7240 C   0  0  1  0  0  3  0  0  0  0  0  0
  186.3960  177.4650  145.6100 C   0  0  0  0  0  2  0  0  0  0  0  0
  188.0670  177.1830  147.9690 C   0  0  0  0  0  2  0  0  0  0  0  0
  188.5920  177.4270  146.7670 C   0  0  0  0  0  0  0  0  0  0  0  0
  189.8680  176.7410  146.3810 C   0  0  0  0  0  2  0  0  0  0  0  0
  192.3130  175.2960  146.3950 N   0  0  0  0  0  1  0  0  0  0  0  0
  190.8350  176.8060  147.4710 N   0  0  0  0  0  0  0  0  0  0  0  0
  192.8420  176.2890  148.5800 N   0  0  0  0  0  1  0  0  0  0  0  0
  191.9580  176.1580  147.4720 C   0  0  0  0  0  0  0  0  0  0  0  0
  1  8  1  0  0  0  0
  2  1  1  1  0  0  0
  3 27  1  1  0  0  0
  3  2  1  0  0  0  0
  4  5  1  6  0  0  0
  4  2  1  0  0  0  0
  4  7  1  0  0  0  0
  6  5  2  0  0  0  0
  6  3  1  0  0  0  0
  7 29  1  1  0  0  0
  7  8  1  0  0  0  0
  9 13  1  0  0  0  0
 10 16  1  0  0  0  0
 12 17  2  0  0  0  0
 13 15  1  0  0  0  0
 14 10  1  0  0  0  0
 14  9  1  0  0  0  0
 15 16  1  6  0  0  0
 15 18  1  0  0  0  0
 15 11  1  0  0  0  0
 17  9  1  0  0  0  0
 17 19  1  0  0  0  0
 18 11  1  0  0  0  0
 18  5  1  1  0  0  0
 20 22  1  0  0  0  0
 21 20  1  0  0  0  0
 21 24  2  0  0  0  0
 22 19  1  0  0  0  0
 22 23  2  0  0  0  0
 24 26  1  0  0  0  0
 24 23  1  0  0  0  0
 26 25  1  0  0  0  0
 28 27  1  0  0  0  0
 29 30  1  0  0  0  0
 31 30  1  6  0  0  0
 31 33  1  0  0  0  0
 31 32  1  0  0  0  0
 32 35  1  1  0  0  0
 33 32  1  0  0  0  0
 35 34  2  0  0  0  0
 36 35  1  0  0  0  0
 36 38  1  0  0  0  0
 37 40  1  0  0  0  0
 38 40  2  0  0  0  0
 40 39  1  0  0  0  0
M  END
>  <MODEL>
1

>  <REMARK>
 VINA RESULT:      -8.1      0.000      0.000
  Name = 
  11 active torsions:
  status: ('A' for Active; 'I' for Inactive)
    1  A    between atoms: C_3  and  C_24
    2  A    between atoms: C_4  and  C_39
    3  A    between atoms: N_6  and  C_11
    4  A    between atoms: C_13  and  C_18
    5  A    between atoms: C_13  and  C_38
    6  A    between atoms: N_14  and  C_32
    7  A    between atoms: C_15  and  C_40
    8  A    between atoms: O_17  and  C_20
    9  A    between atoms: O_17  and  C_24
   10  A    between atoms: C_21  and  C_36
   11  A    between atoms: C_32  and  C_39
                            x       y       z     vdW  Elec       q    Type
                         _______ _______ _______ _____ _____    ______ ____

>  <TORSDO>
F 11

$$$$
=
 OpenBabel11062413093D

 40 45  0  0  1  0  0  0  0  0999 V2000
  182.7250  179.1130  141.4960 S   0  0  0  0  0  0  0  0  0  0  0  0
  184.4340  179.0800  141.0120 C   0  0  2  0  0  3  0  0  0  0  0  0
  185.0160  178.7760  139.6660 C   0  0  1  0  0  3  0  0  0  0  0  0
  185.2780  178.7670  141.9540 C   0  0  2  0  0  3  0  0  0  0  0  0
  186.5100  178.2730  141.3600 C   0  0  0  0  0  0  0  0  0  0  0  0
  186.3750  178.2450  140.0380 C   0  0  0  0  0  3  0  0  0  0  0  0
  184.7080  178.4680  143.2890 C   0  0  2  0  0  3  0  0  0  0  0  0
  183.2110  178.2570  143.0440 C   0  0  0  0  0  2  0  0  0  0  0  0
  189.8060  177.8100  138.9900 N   0  0  0  0  0  0  0  0  0  0  0  0
  191.3600  177.2160  140.8490 C   0  0  0  0  0  2  0  0  0  0  0  0
  188.6810  178.8240  142.4550 C   0  0  0  0  0  2  0  0  0  0  0  0
  190.1150  177.2830  136.7310 O   0  0  0  0  0  0  0  0  0  0  0  0
  189.0560  178.5970  139.9740 C   0  0  0  0  0  2  0  0  0  0  0  0
  191.0330  177.0890  139.3600 C   0  0  0  0  0  2  0  0  0  0  0  0
  189.0070  177.8770  141.3260 C   0  0  1  0  0  0  0  0  0  0  0  0
  190.1260  176.9100  141.6870 C   0  0  0  0  0  2  0  0  0  0  0  0
  189.3850  177.8030  137.6180 C   0  0  0  0  0  0  0  0  0  0  0  0
  187.6960  177.7190  142.0940 C   0  0  2  0  0  3  0  0  0  0  0  0
  188.0670  178.3840  137.2150 C   0  0  0  0  0  2  0  0  0  0  0  0
  186.1470  177.4260  135.9670 O   0  0  0  0  0  0  0  0  0  0  0  0
  185.4990  176.3060  135.8690 N   0  0  0  0  0  0  0  0  0  0  0  0
  187.1040  177.3030  136.8560 C   0  0  0  0  0  0  0  0  0  0  0  0
  187.1320  176.0690  137.3930 N   0  0  0  0  0  0  0  0  0  0  0  0
  186.1100  175.4800  136.7390 C   0  0  0  0  0  0  0  0  0  0  0  0
  184.2800  174.0800  137.5980 C   0  0  0  0  0  1  0  0  0  0  0  0
  185.6700  174.0800  136.9950 C   0  0  0  0  0  2  0  0  0  0  0  0
  184.2320  177.7810  138.9270 N   0  0  0  0  0  2  0  0  0  0  0  0
  183.4660  178.4070  137.9950 O   0  0  0  0  0  1  0  0  0  0  0  0
  184.8920  179.5680  144.1300 O   0  0  0  0  0  0  0  0  0  0  0  0
  185.0890  179.0200  145.3990 C   0  0  0  0  0  2  0  0  0  0  0  0
  186.5420  178.6200  145.5600 C   0  0  1  0  0  3  0  0  0  0  0  0
  186.6920  177.8300  146.8480 C   0  0  1  0  0  3  0  0  0  0  0  0
  186.6550  177.1130  145.5100 C   0  0  0  0  0  2  0  0  0  0  0  0
  188.3200  178.1770  148.6460 C   0  0  0  0  0  2  0  0  0  0  0  0
  188.1010  177.9360  147.3520 C   0  0  0  0  0  0  0  0  0  0  0  0
  189.2430  177.4720  146.4980 C   0  0  0  0  0  2  0  0  0  0  0  0
  191.6820  176.4670  145.4440 N   0  0  0  0  0  1  0  0  0  0  0  0
  190.3180  176.9370  147.3270 N   0  0  0  0  0  0  0  0  0  0  0  0
  192.4310  175.9930  147.7360 N   0  0  0  0  0  1  0  0  0  0  0  0
  191.4380  176.4910  146.8480 C   0  0  0  0  0  0  0  0  0  0  0  0
  1  8  1  0  0  0  0
  2  1  1  1  0  0  0
  2  4  1  0  0  0  0
  3 27  1  1  0  0  0
  3  6  1  0  0  0  0
  3  2  1  0  0  0  0
  4  5  1  6  0  0  0
  4  7  1  0  0  0  0
  6  5  2  0  0  0  0
  7 29  1  1  0  0  0
  8  7  1  0  0  0  0
  9 14  1  0  0  0  0
  9 13  1  0  0  0  0
 10 16  1  0  0  0  0
 12 17  2  0  0  0  0
 14 10  1  0  0  0  0
 15 13  1  6  0  0  0
 15 16  1  0  0  0  0
 15 18  1  0  0  0  0
 15 11  1  0  0  0  0
 17  9  1  0  0  0  0
 18  5  1  6  0  0  0
 18 11  1  0  0  0  0
 19 17  1  0  0  0  0
 20 22  1  0  0  0  0
 21 20  1  0  0  0  0
 21 24  2  0  0  0  0
 22 19  1  0  0  0  0
 22 23  2  0  0  0  0
 24 26  1  0  0  0  0
 24 23  1  0  0  0  0
 26 25  1  0  0  0  0
 28 27  1  0  0  0  0
 29 30  1  0  0  0  0
 31 30  1  1  0  0  0
 31 32  1  0  0  0  0
 32 35  1  6  0  0  0
 33 31  1  0  0  0  0
 33 32  1  0  0  0  0
 35 34  2  0  0  0  0
 36 38  1  0  0  0  0
 36 35  1  0  0  0  0
 37 40  1  0  0  0  0
 40 38  2  0  0  0  0
 40 39  1  0  0  0  0
M  END
>  <MODEL>
2

>  <REMARK>
 VINA RESULT:      -7.8      2.904      5.375
  Name = 
  11 active torsions:
  status: ('A' for Active; 'I' for Inactive)
    1  A    between atoms: C_3  and  C_24
    2  A    between atoms: C_4  and  C_39
    3  A    between atoms: N_6  and  C_11
    4  A    between atoms: C_13  and  C_18
    5  A    between atoms: C_13  and  C_38
    6  A    between atoms: N_14  and  C_32
    7  A    between atoms: C_15  and  C_40
    8  A    between atoms: O_17  and  C_20
    9  A    between atoms: O_17  and  C_24
   10  A    between atoms: C_21  and  C_36
   11  A    between atoms: C_32  and  C_39
                            x       y       z     vdW  Elec       q    Type
                         _______ _______ _______ _____ _____    ______ ____

>  <TORSDO>
F 11

$$$$
=
 OpenBabel11062413093D

 40 45  0  0  1  0  0  0  0  0999 V2000
  191.0780  176.9930  143.3230 S   0  0  0  0  0  0  0  0  0  0  0  0
  190.7610  176.8990  141.5770 C   0  0  2  0  0  3  0  0  0  0  0  0
  191.7460  176.7840  140.4560 C   0  0  1  0  0  3  0  0  0  0  0  0
  189.6760  177.4950  141.1710 C   0  0  2  0  0  3  0  0  0  0  0  0
  189.7900  177.7990  139.7540 C   0  0  0  0  0  0  0  0  0  0  0  0
  190.9870  177.4210  139.3220 C   0  0  0  0  0  3  0  0  0  0  0  0
  188.8640  178.1810  142.2040 C   0  0  2  0  0  3  0  0  0  0  0  0
  189.7820  178.2870  143.4260 C   0  0  0  0  0  2  0  0  0  0  0  0
  189.1100  176.1240  136.0900 N   0  0  0  0  0  0  0  0  0  0  0  0
  187.2400  177.6530  135.4660 C   0  0  0  0  0  2  0  0  0  0  0  0
  187.4270  177.9120  138.9650 C   0  0  0  0  0  2  0  0  0  0  0  0
  190.4380  174.9100  134.5940 O   0  0  0  0  0  0  0  0  0  0  0  0
  188.7040  176.3240  137.4850 C   0  0  0  0  0  2  0  0  0  0  0  0
  188.3790  176.7560  134.9810 C   0  0  0  0  0  2  0  0  0  0  0  0
  188.2790  177.7750  137.7270 C   0  0  1  0  0  0  0  0  0  0  0  0
  187.7370  178.5890  136.5590 C   0  0  0  0  0  2  0  0  0  0  0  0
  190.1930  175.2310  135.7880 C   0  0  0  0  0  0  0  0  0  0  0  0
  188.8020  178.5680  138.9240 C   0  0  2  0  0  3  0  0  0  0  0  0
  191.0680  174.6880  136.8730 C   0  0  0  0  0  2  0  0  0  0  0  0
  192.8640  176.3680  136.5410 O   0  0  0  0  0  0  0  0  0  0  0  0
  194.1540  176.4150  136.4070 N   0  0  0  0  0  0  0  0  0  0  0  0
  192.4810  175.1210  136.6750 C   0  0  0  0  0  0  0  0  0  0  0  0
  193.5250  174.2720  136.6400 N   0  0  0  0  0  0  0  0  0  0  0  0
  194.5510  175.1310  136.4740 C   0  0  0  0  0  0  0  0  0  0  0  0
  196.7570  175.7610  135.5880 C   0  0  0  0  0  1  0  0  0  0  0  0
  195.9680  174.6980  136.3260 C   0  0  0  0  0  2  0  0  0  0  0  0
  192.9980  177.4940  140.7340 N   0  0  0  0  0  2  0  0  0  0  0  0
  193.9100  177.2050  139.7690 O   0  0  0  0  0  1  0  0  0  0  0  0
  187.7550  177.3930  142.5220 O   0  0  0  0  0  0  0  0  0  0  0  0
  186.6670  178.2660  142.4660 C   0  0  0  0  0  2  0  0  0  0  0  0
  185.7190  177.9720  143.6110 C   0  0  1  0  0  3  0  0  0  0  0  0
  185.5990  179.2120  144.4790 C   0  0  1  0  0  3  0  0  0  0  0  0
  184.5000  178.8590  143.4920 C   0  0  0  0  0  2  0  0  0  0  0  0
  184.0010  178.2850  146.0880 C   0  0  0  0  0  2  0  0  0  0  0  0
  185.2030  178.8240  145.8730 C   0  0  0  0  0  0  0  0  0  0  0  0
  186.2380  178.7420  146.9540 C   0  0  0  0  0  2  0  0  0  0  0  0
  188.5020  178.2100  148.5850 N   0  0  0  0  0  1  0  0  0  0  0  0
  187.3700  177.9320  146.5190 N   0  0  0  0  0  0  0  0  0  0  0  0
  189.4540  176.8700  146.7580 N   0  0  0  0  0  1  0  0  0  0  0  0
  188.3980  177.6760  147.2680 C   0  0  0  0  0  0  0  0  0  0  0  0
  1  8  1  0  0  0  0
  2  1  1  1  0  0  0
  3 27  1  1  0  0  0
  3  2  1  0  0  0  0
  4  5  1  6  0  0  0
  4  2  1  0  0  0  0
  4  7  1  0  0  0  0
  6  5  2  0  0  0  0
  6  3  1  0  0  0  0
  7 29  1  1  0  0  0
  7  8  1  0  0  0  0
  9 13  1  0  0  0  0
 10 16  1  0  0  0  0
 12 17  2  0  0  0  0
 13 15  1  0  0  0  0
 14 10  1  0  0  0  0
 14  9  1  0  0  0  0
 15 16  1  6  0  0  0
 15 18  1  0  0  0  0
 15 11  1  0  0  0  0
 17  9  1  0  0  0  0
 17 19  1  0  0  0  0
 18 11  1  0  0  0  0
 18  5  1  1  0  0  0
 20 22  1  0  0  0  0
 21 24  2  0  0  0  0
 21 20  1  0  0  0  0
 22 19  1  0  0  0  0
 23 22  2  0  0  0  0
 24 23  1  0  0  0  0
 25 26  1  0  0  0  0
 26 24  1  0  0  0  0
 28 27  1  0  0  0  0
 30 29  1  0  0  0  0
 31 30  1  6  0  0  0
 31 32  1  0  0  0  0
 32 35  1  1  0  0  0
 33 31  1  0  0  0  0
 33 32  1  0  0  0  0
 35 34  2  0  0  0  0
 35 36  1  0  0  0  0
 38 36  1  0  0  0  0
 38 40  2  0  0  0  0
 39 40  1  0  0  0  0
 40 37  1  0  0  0  0
M  END
>  <MODEL>
3

>  <REMARK>
 VINA RESULT:      -7.8      1.512      2.191
  Name = 
  11 active torsions:
  status: ('A' for Active; 'I' for Inactive)
    1  A    between atoms: C_3  and  C_24
    2  A    between atoms: C_4  and  C_39
    3  A    between atoms: N_6  and  C_11
    4  A    between atoms: C_13  and  C_18
    5  A    between atoms: C_13  and  C_38
    6  A    between atoms: N_14  and  C_32
    7  A    between atoms: C_15  and  C_40
    8  A    between atoms: O_17  and  C_20
    9  A    between atoms: O_17  and  C_24
   10  A    between atoms: C_21  and  C_36
   11  A    between atoms: C_32  and  C_39
                            x       y       z     vdW  Elec       q    Type
                         _______ _______ _______ _____ _____    ______ ____

>  <TORSDO>
F 11

$$$$
=
 OpenBabel11062413093D

 40 45  0  0  1  0  0  0  0  0999 V2000
  190.1880  176.8960  138.6800 S   0  0  0  0  0  0  0  0  0  0  0  0
  188.5690  177.2870  139.2990 C   0  0  2  0  0  3  0  0  0  0  0  0
  187.4410  177.9710  138.5900 C   0  0  1  0  0  3  0  0  0  0  0  0
  188.4940  177.4950  140.5820 C   0  0  2  0  0  3  0  0  0  0  0  0
  187.3100  178.2860  140.8780 C   0  0  0  0  0  0  0  0  0  0  0  0
  186.6970  178.5950  139.7410 C   0  0  0  0  0  3  0  0  0  0  0  0
  189.7570  177.3960  141.3500 C   0  0  2  0  0  3  0  0  0  0  0  0
  190.8680  177.4370  140.2960 C   0  0  0  0  0  2  0  0  0  0  0  0
  183.2620  178.4800  141.3990 N   0  0  0  0  0  0  0  0  0  0  0  0
  183.3560  179.1000  143.8130 C   0  0  0  0  0  2  0  0  0  0  0  0
  186.5110  177.6970  143.1660 C   0  0  0  0  0  2  0  0  0  0  0  0
  181.4610  178.8760  139.9570 O   0  0  0  0  0  0  0  0  0  0  0  0
  184.5320  177.7790  141.6100 C   0  0  0  0  0  2  0  0  0  0  0  0
  182.5710  179.1650  142.5020 C   0  0  0  0  0  2  0  0  0  0  0  0
  185.4400  178.5680  142.5570 C   0  0  1  0  0  0  0  0  0  0  0  0
  184.8060  179.5030  143.5790 C   0  0  0  0  0  2  0  0  0  0  0  0
  182.6330  178.4340  140.1090 C   0  0  0  0  0  0  0  0  0  0  0  0
  186.9090  178.8250  142.2220 C   0  0  2  0  0  3  0  0  0  0  0  0
  183.3580  177.8920  138.9180 C   0  0  0  0  0  2  0  0  0  0  0  0
  182.0960  176.9620  136.9950 O   0  0  0  0  0  0  0  0  0  0  0  0
  181.4300  175.8940  136.6790 N   0  0  0  0  0  0  0  0  0  0  0  0
  182.5340  176.8590  138.2260 C   0  0  0  0  0  0  0  0  0  0  0  0
  182.1710  175.6920  138.7900 N   0  0  0  0  0  0  0  0  0  0  0  0
  181.4850  175.1200  137.7790 C   0  0  0  0  0  0  0  0  0  0  0  0
  181.3300  172.8640  136.8130 C   0  0  0  0  0  1  0  0  0  0  0  0
  180.8130  173.7960  137.8910 C   0  0  0  0  0  2  0  0  0  0  0  0
  187.9080  178.9830  137.6370 N   0  0  0  0  0  2  0  0  0  0  0  0
  187.5590  178.6170  136.3770 O   0  0  0  0  0  1  0  0  0  0  0  0
  189.7980  176.1710  142.0210 O   0  0  0  0  0  0  0  0  0  0  0  0
  190.4750  176.4380  143.2130 C   0  0  0  0  0  2  0  0  0  0  0  0
  189.5330  177.1070  144.1950 C   0  0  1  0  0  3  0  0  0  0  0  0
  190.1850  177.1240  145.5650 C   0  0  1  0  0  3  0  0  0  0  0  0
  190.1660  178.3790  144.7100 C   0  0  0  0  0  2  0  0  0  0  0  0
  189.1950  176.3630  147.6730 C   0  0  0  0  0  2  0  0  0  0  0  0
  189.1330  177.1950  146.6320 C   0  0  0  0  0  0  0  0  0  0  0  0
  188.2100  178.3750  146.7020 C   0  0  0  0  0  2  0  0  0  0  0  0
  186.0400  180.0600  147.4240 N   0  0  0  0  0  1  0  0  0  0  0  0
  186.8180  177.9370  146.7080 N   0  0  0  0  0  0  0  0  0  0  0  0
  184.5000  178.1940  146.9960 N   0  0  0  0  0  1  0  0  0  0  0  0
  185.8250  178.7100  147.0240 C   0  0  0  0  0  0  0  0  0  0  0  0
  1  8  1  0  0  0  0
  2  1  1  6  0  0  0
  2  4  1  0  0  0  0
  3 27  1  6  0  0  0
  3  2  1  0  0  0  0
  3  6  1  0  0  0  0
  4  5  1  6  0  0  0
  4  7  1  0  0  0  0
  6  5  2  0  0  0  0
  7 29  1  6  0  0  0
  8  7  1  0  0  0  0
  9 13  1  0  0  0  0
  9 14  1  0  0  0  0
 12 17  2  0  0  0  0
 14 10  1  0  0  0  0
 15 13  1  6  0  0  0
 15 11  1  0  0  0  0
 15 16  1  0  0  0  0
 16 10  1  0  0  0  0
 17  9  1  0  0  0  0
 18  5  1  6  0  0  0
 18 15  1  0  0  0  0
 18 11  1  0  0  0  0
 19 17  1  0  0  0  0
 20 22  1  0  0  0  0
 21 20  1  0  0  0  0
 21 24  2  0  0  0  0
 22 23  2  0  0  0  0
 22 19  1  0  0  0  0
 24 26  1  0  0  0  0
 24 23  1  0  0  0  0
 25 26  1  0  0  0  0
 28 27  1  0  0  0  0
 29 30  1  0  0  0  0
 31 30  1  6  0  0  0
 31 33  1  0  0  0  0
 31 32  1  0  0  0  0
 32 35  1  1  0  0  0
 33 32  1  0  0  0  0
 35 36  1  0  0  0  0
 35 34  2  0  0  0  0
 36 38  1  0  0  0  0
 38 40  2  0  0  0  0
 39 40  1  0  0  0  0
 40 37  1  0  0  0  0
M  END
>  <MODEL>
4

>  <REMARK>
 VINA RESULT:      -7.7      4.070      6.997
  Name = 
  11 active torsions:
  status: ('A' for Active; 'I' for Inactive)
    1  A    between atoms: C_3  and  C_24
    2  A    between atoms: C_4  and  C_39
    3  A    between atoms: N_6  and  C_11
    4  A    between atoms: C_13  and  C_18
    5  A    between atoms: C_13  and  C_38
    6  A    between atoms: N_14  and  C_32
    7  A    between atoms: C_15  and  C_40
    8  A    between atoms: O_17  and  C_20
    9  A    between atoms: O_17  and  C_24
   10  A    between atoms: C_21  and  C_36
   11  A    between atoms: C_32  and  C_39
                            x       y       z     vdW  Elec       q    Type
                         _______ _______ _______ _____ _____    ______ ____

>  <TORSDO>
F 11

$$$$
=
 OpenBabel11062413093D

 40 45  0  0  1  0  0  0  0  0999 V2000
  188.8010  176.2180  136.8840 S   0  0  0  0  0  0  0  0  0  0  0  0
  188.8640  176.6600  138.6040 C   0  0  2  0  0  3  0  0  0  0  0  0
  187.9310  177.5440  139.3740 C   0  0  1  0  0  3  0  0  0  0  0  0
  190.0520  176.6790  139.1350 C   0  0  2  0  0  3  0  0  0  0  0  0
  190.0420  177.5220  140.3200 C   0  0  0  0  0  0  0  0  0  0  0  0
  188.8340  178.0540  140.4660 C   0  0  0  0  0  3  0  0  0  0  0  0
  191.1890  176.3500  138.2430 C   0  0  2  0  0  3  0  0  0  0  0  0
  190.6200  176.4450  136.8230 C   0  0  0  0  0  2  0  0  0  0  0  0
  189.3410  177.1580  144.3290 N   0  0  0  0  0  0  0  0  0  0  0  0
  191.6990  177.5750  145.0270 C   0  0  0  0  0  2  0  0  0  0  0  0
  191.9590  176.6420  141.6500 C   0  0  0  0  0  2  0  0  0  0  0  0
  187.4480  177.4460  145.6740 O   0  0  0  0  0  0  0  0  0  0  0  0
  189.8890  176.6080  143.0850 C   0  0  0  0  0  2  0  0  0  0  0  0
  190.2180  177.6520  145.4010 C   0  0  0  0  0  2  0  0  0  0  0  0
  191.0990  177.4210  142.6150 C   0  0  1  0  0  0  0  0  0  0  0  0
  191.9260  178.1750  143.6470 C   0  0  0  0  0  2  0  0  0  0  0  0
  187.9210  177.1450  144.5450 C   0  0  0  0  0  0  0  0  0  0  0  0
  191.2280  177.8880  141.1660 C   0  0  2  0  0  3  0  0  0  0  0  0
  186.9780  176.8040  143.4360 C   0  0  0  0  0  2  0  0  0  0  0  0
  186.0160  178.7960  142.3120 O   0  0  0  0  0  0  0  0  0  0  0  0
  184.9840  179.5780  142.4090 N   0  0  0  0  0  0  0  0  0  0  0  0
  185.9670  177.8860  143.2540 C   0  0  0  0  0  0  0  0  0  0  0  0
  184.8760  178.0270  144.0300 N   0  0  0  0  0  0  0  0  0  0  0  0
  184.2890  179.0980  143.4570 C   0  0  0  0  0  0  0  0  0  0  0  0
  181.9190  178.6900  143.9690 C   0  0  0  0  0  1  0  0  0  0  0  0
  183.0350  179.7160  143.9680 C   0  0  0  0  0  2  0  0  0  0  0  0
  187.3970  178.6400  138.5590 N   0  0  0  0  0  2  0  0  0  0  0  0
  186.0450  178.6870  138.6890 O   0  0  0  0  0  1  0  0  0  0  0  0
  191.6080  175.0400  138.4890 O   0  0  0  0  0  0  0  0  0  0  0  0
  192.2500  174.6430  137.3140 C   0  0  0  0  0  2  0  0  0  0  0  0
  193.7200  174.4010  137.5940 C   0  0  1  0  0  3  0  0  0  0  0  0
  194.1320  173.0900  136.9490 C   0  0  1  0  0  3  0  0  0  0  0  0
  194.4870  174.4120  136.2920 C   0  0  0  0  0  2  0  0  0  0  0  0
  195.3740  171.2100  137.9100 C   0  0  0  0  0  2  0  0  0  0  0  0
  195.3210  172.5200  137.6650 C   0  0  0  0  0  0  0  0  0  0  0  0
  196.5680  173.3380  137.8230 C   0  0  0  0  0  2  0  0  0  0  0  0
  198.1010  175.6170  138.5460 N   0  0  0  0  0  1  0  0  0  0  0  0
  196.6920  173.8220  139.1930 N   0  0  0  0  0  0  0  0  0  0  0  0
  197.4380  175.2710  140.8870 N   0  0  0  0  0  1  0  0  0  0  0  0
  197.3800  174.8710  139.5230 C   0  0  0  0  0  0  0  0  0  0  0  0
  2  1  1  6  0  0  0
  2  4  1  0  0  0  0
  2  3  1  0  0  0  0
  3 27  1  6  0  0  0
  3  6  1  0  0  0  0
  4  5  1  6  0  0  0
  5  6  2  0  0  0  0
  7 29  1  1  0  0  0
  7  4  1  0  0  0  0
  8  1  1  0  0  0  0
  8  7  1  0  0  0  0
  9 17  1  0  0  0  0
  9 14  1  0  0  0  0
 10 14  1  0  0  0  0
 13  9  1  0  0  0  0
 15 11  1  6  0  0  0
 15 13  1  0  0  0  0
 15 16  1  0  0  0  0
 16 10  1  0  0  0  0
 17 12  2  0  0  0  0
 18  5  1  6  0  0  0
 18 11  1  0  0  0  0
 18 15  1  0  0  0  0
 19 17  1  0  0  0  0
 20 21  1  0  0  0  0
 20 22  1  0  0  0  0
 21 24  2  0  0  0  0
 22 19  1  0  0  0  0
 22 23  2  0  0  0  0
 24 26  1  0  0  0  0
 24 23  1  0  0  0  0
 26 25  1  0  0  0  0
 27 28  1  0  0  0  0
 30 29  1  0  0  0  0
 31 30  1  6  0  0  0
 32 31  1  0  0  0  0
 32 35  1  1  0  0  0
 33 32  1  0  0  0  0
 33 31  1  0  0  0  0
 35 36  1  0  0  0  0
 35 34  2  0  0  0  0
 36 38  1  0  0  0  0
 37 40  1  0  0  0  0
 38 40  2  0  0  0  0
 40 39  1  0  0  0  0
M  END
>  <MODEL>
5

>  <REMARK>
 VINA RESULT:      -7.6      3.240      9.156
  Name = 
  11 active torsions:
  status: ('A' for Active; 'I' for Inactive)
    1  A    between atoms: C_3  and  C_24
    2  A    between atoms: C_4  and  C_39
    3  A    between atoms: N_6  and  C_11
    4  A    between atoms: C_13  and  C_18
    5  A    between atoms: C_13  and  C_38
    6  A    between atoms: N_14  and  C_32
    7  A    between atoms: C_15  and  C_40
    8  A    between atoms: O_17  and  C_20
    9  A    between atoms: O_17  and  C_24
   10  A    between atoms: C_21  and  C_36
   11  A    between atoms: C_32  and  C_39
                            x       y       z     vdW  Elec       q    Type
                         _______ _______ _______ _____ _____    ______ ____

>  <TORSDO>
F 11

$$$$
=
 OpenBabel11062413093D

 40 45  0  0  1  0  0  0  0  0999 V2000
  189.1450  177.9600  140.1060 S   0  0  0  0  0  0  0  0  0  0  0  0
  187.4740  177.8910  139.5050 C   0  0  2  0  0  3  0  0  0  0  0  0
  186.9780  178.0900  138.1060 C   0  0  1  0  0  3  0  0  0  0  0  0
  186.5540  178.2220  140.3650 C   0  0  2  0  0  3  0  0  0  0  0  0
  185.3500  178.6260  139.6590 C   0  0  0  0  0  0  0  0  0  0  0  0
  185.5760  178.5830  138.3510 C   0  0  0  0  0  3  0  0  0  0  0  0
  187.0160  178.6240  141.7150 C   0  0  2  0  0  3  0  0  0  0  0  0
  188.5180  178.8840  141.5610 C   0  0  0  0  0  2  0  0  0  0  0  0
  181.9550  176.8180  138.2800 N   0  0  0  0  0  0  0  0  0  0  0  0
  180.4130  177.9310  139.8940 C   0  0  0  0  0  2  0  0  0  0  0  0
  183.5810  178.2520  141.3770 C   0  0  0  0  0  2  0  0  0  0  0  0
  181.3380  175.8850  136.2240 O   0  0  0  0  0  0  0  0  0  0  0  0
  182.9940  176.9430  139.3070 C   0  0  0  0  0  2  0  0  0  0  0  0
  180.5800  177.2790  138.5200 C   0  0  0  0  0  2  0  0  0  0  0  0
  182.8740  178.2800  140.0440 C   0  0  1  0  0  0  0  0  0  0  0  0
  181.5130  178.9570  140.1260 C   0  0  0  0  0  2  0  0  0  0  0  0
  182.2590  176.1600  137.0400 C   0  0  0  0  0  0  0  0  0  0  0  0
  184.0930  179.1720  140.2750 C   0  0  2  0  0  3  0  0  0  0  0  0
  183.6690  175.8140  136.6790 C   0  0  0  0  0  2  0  0  0  0  0  0
  184.9790  173.9180  137.5990 O   0  0  0  0  0  0  0  0  0  0  0  0
  184.9160  172.6240  137.6750 N   0  0  0  0  0  0  0  0  0  0  0  0
  183.9400  174.3710  136.9410 C   0  0  0  0  0  0  0  0  0  0  0  0
  183.1250  173.3740  136.5470 N   0  0  0  0  0  0  0  0  0  0  0  0
  183.7770  172.2990  137.0350 C   0  0  0  0  0  0  0  0  0  0  0  0
  183.9300  170.3260  135.5760 C   0  0  0  0  0  1  0  0  0  0  0  0
  183.3130  170.8990  136.8360 C   0  0  0  0  0  2  0  0  0  0  0  0
  187.7730  179.0720  137.3620 N   0  0  0  0  0  2  0  0  0  0  0  0
  188.9230  178.4920  136.9300 O   0  0  0  0  0  1  0  0  0  0  0  0
  186.8160  177.5680  142.6080 O   0  0  0  0  0  0  0  0  0  0  0  0
  186.3020  178.1660  143.7610 C   0  0  0  0  0  2  0  0  0  0  0  0
  186.8120  177.4320  144.9850 C   0  0  1  0  0  3  0  0  0  0  0  0
  187.3290  178.4500  145.9860 C   0  0  1  0  0  3  0  0  0  0  0  0
  185.9680  177.8080  146.1820 C   0  0  0  0  0  2  0  0  0  0  0  0
  188.1010  177.7090  148.1890 C   0  0  0  0  0  2  0  0  0  0  0  0
  188.3490  177.8130  146.8830 C   0  0  0  0  0  0  0  0  0  0  0  0
  189.4800  177.0230  146.2940 C   0  0  0  0  0  2  0  0  0  0  0  0
  192.0530  175.9770  145.6970 N   0  0  0  0  0  1  0  0  0  0  0  0
  190.4900  176.7410  147.3090 N   0  0  0  0  0  0  0  0  0  0  0  0
  192.5900  176.0370  148.0940 N   0  0  0  0  0  1  0  0  0  0  0  0
  191.6700  176.2760  147.0360 C   0  0  0  0  0  0  0  0  0  0  0  0
  1  8  1  0  0  0  0
  2  1  1  1  0  0  0
  2  4  1  0  0  0  0
  3 27  1  1  0  0  0
  3  6  1  0  0  0  0
  3  2  1  0  0  0  0
  4  5  1  6  0  0  0
  4  7  1  0  0  0  0
  6  5  2  0  0  0  0
  7 29  1  1  0  0  0
  8  7  1  0  0  0  0
  9 14  1  0  0  0  0
  9 13  1  0  0  0  0
 10 16  1  0  0  0  0
 12 17  2  0  0  0  0
 14 10  1  0  0  0  0
 15 13  1  6  0  0  0
 15 16  1  0  0  0  0
 15 18  1  0  0  0  0
 15 11  1  0  0  0  0
 17  9  1  0  0  0  0
 18  5  1  6  0  0  0
 18 11  1  0  0  0  0
 19 22  1  0  0  0  0
 19 17  1  0  0  0  0
 20 21  1  0  0  0  0
 22 20  1  0  0  0  0
 23 22  2  0  0  0  0
 23 24  1  0  0  0  0
 24 21  2  0  0  0  0
 25 26  1  0  0  0  0
 26 24  1  0  0  0  0
 28 27  1  0  0  0  0
 29 30  1  0  0  0  0
 31 30  1  6  0  0  0
 31 32  1  0  0  0  0
 31 33  1  0  0  0  0
 32 33  1  0  0  0  0
 32 35  1  1  0  0  0
 35 34  2  0  0  0  0
 36 35  1  0  0  0  0
 36 38  1  0  0  0  0
 37 40  1  0  0  0  0
 40 38  2  0  0  0  0
 40 39  1  0  0  0  0
M  END
>  <MODEL>
6

>  <REMARK>
 VINA RESULT:      -7.4      3.795      5.639
  Name = 
  11 active torsions:
  status: ('A' for Active; 'I' for Inactive)
    1  A    between atoms: C_3  and  C_24
    2  A    between atoms: C_4  and  C_39
    3  A    between atoms: N_6  and  C_11
    4  A    between atoms: C_13  and  C_18
    5  A    between atoms: C_13  and  C_38
    6  A    between atoms: N_14  and  C_32
    7  A    between atoms: C_15  and  C_40
    8  A    between atoms: O_17  and  C_20
    9  A    between atoms: O_17  and  C_24
   10  A    between atoms: C_21  and  C_36
   11  A    between atoms: C_32  and  C_39
                            x       y       z     vdW  Elec       q    Type
                         _______ _______ _______ _____ _____    ______ ____

>  <TORSDO>
F 11

$$$$
=
 OpenBabel11062413093D

 40 45  0  0  1  0  0  0  0  0999 V2000
  189.3510  177.0800  137.8350 S   0  0  0  0  0  0  0  0  0  0  0  0
  187.8980  177.4100  138.8040 C   0  0  2  0  0  3  0  0  0  0  0  0
  186.5970  178.0050  138.3600 C   0  0  1  0  0  3  0  0  0  0  0  0
  188.1100  177.6660  140.0630 C   0  0  2  0  0  3  0  0  0  0  0  0
  186.9820  178.4040  140.6060 C   0  0  0  0  0  0  0  0  0  0  0  0
  186.1040  178.6340  139.6360 C   0  0  0  0  0  3  0  0  0  0  0  0
  189.5210  177.6650  140.5170 C   0  0  2  0  0  3  0  0  0  0  0  0
  190.3530  177.7220  139.2310 C   0  0  0  0  0  2  0  0  0  0  0  0
  183.1410  178.5380  141.9970 N   0  0  0  0  0  0  0  0  0  0  0  0
  183.7460  179.2310  144.3150 C   0  0  0  0  0  2  0  0  0  0  0  0
  186.7170  177.8680  143.0280 C   0  0  0  0  0  2  0  0  0  0  0  0
  181.0600  178.8570  140.9760 O   0  0  0  0  0  0  0  0  0  0  0  0
  184.4440  177.8670  141.9410 C   0  0  0  0  0  2  0  0  0  0  0  0
  182.6920  179.2420  143.2070 C   0  0  0  0  0  2  0  0  0  0  0  0
  185.5180  178.7020  142.6470 C   0  0  1  0  0  0  0  0  0  0  0  0
  185.0990  179.6530  143.7590 C   0  0  0  0  0  2  0  0  0  0  0  0
  182.2470  178.4420  140.8770 C   0  0  0  0  0  0  0  0  0  0  0  0
  186.8710  178.9750  141.9910 C   0  0  2  0  0  3  0  0  0  0  0  0
  182.7080  177.8790  139.5710 C   0  0  0  0  0  2  0  0  0  0  0  0
  180.9000  177.6540  137.8850 O   0  0  0  0  0  0  0  0  0  0  0  0
  180.3170  178.3630  136.9670 N   0  0  0  0  0  0  0  0  0  0  0  0
  181.8430  178.3640  138.4560 C   0  0  0  0  0  0  0  0  0  0  0  0
  181.9250  179.6010  137.9300 N   0  0  0  0  0  0  0  0  0  0  0  0
  180.9460  179.5530  137.0040 C   0  0  0  0  0  0  0  0  0  0  0  0
  180.8330  180.2420  134.6470 C   0  0  0  0  0  1  0  0  0  0  0  0
  180.6320  180.6800  136.0840 C   0  0  0  0  0  2  0  0  0  0  0  0
  186.7690  179.0000  137.2980 N   0  0  0  0  0  2  0  0  0  0  0  0
  186.4520  178.4460  136.0990 O   0  0  0  0  0  1  0  0  0  0  0  0
  189.7910  176.4720  141.1930 O   0  0  0  0  0  0  0  0  0  0  0  0
  190.9000  176.7560  141.9920 C   0  0  0  0  0  2  0  0  0  0  0  0
  190.4380  177.2180  143.3600 C   0  0  1  0  0  3  0  0  0  0  0  0
  191.5110  176.8790  144.3790 C   0  0  1  0  0  3  0  0  0  0  0  0
  191.3660  178.2990  143.8640 C   0  0  0  0  0  2  0  0  0  0  0  0
  191.6880  176.6100  146.8080 C   0  0  0  0  0  2  0  0  0  0  0  0
  190.8970  176.7450  145.7420 C   0  0  0  0  0  0  0  0  0  0  0  0
  189.4490  177.0730  145.9500 C   0  0  0  0  0  2  0  0  0  0  0  0
  187.0140  178.1580  146.9310 N   0  0  0  0  0  1  0  0  0  0  0  0
  189.1660  177.2610  147.3690 N   0  0  0  0  0  0  0  0  0  0  0  0
  187.8610  177.8860  149.2220 N   0  0  0  0  0  1  0  0  0  0  0  0
  188.0480  177.7440  147.8190 C   0  0  0  0  0  0  0  0  0  0  0  0
  1  8  1  0  0  0  0
  2  1  1  6  0  0  0
  2  4  1  0  0  0  0
  3 27  1  6  0  0  0
  3  2  1  0  0  0  0
  3  6  1  0  0  0  0
  4  7  1  0  0  0  0
  4  5  1  6  0  0  0
  6  5  2  0  0  0  0
  7 29  1  6  0  0  0
  8  7  1  0  0  0  0
  9 14  1  0  0  0  0
 13  9  1  0  0  0  0
 14 10  1  0  0  0  0
 15 13  1  6  0  0  0
 15 11  1  0  0  0  0
 15 16  1  0  0  0  0
 16 10  1  0  0  0  0
 17 12  2  0  0  0  0
 17  9  1  0  0  0  0
 18  5  1  6  0  0  0
 18 15  1  0  0  0  0
 18 11  1  0  0  0  0
 19 17  1  0  0  0  0
 20 22  1  0  0  0  0
 21 24  2  0  0  0  0
 21 20  1  0  0  0  0
 22 19  1  0  0  0  0
 23 22  2  0  0  0  0
 24 23  1  0  0  0  0
 25 26  1  0  0  0  0
 26 24  1  0  0  0  0
 28 27  1  0  0  0  0
 29 30  1  0  0  0  0
 31 30  1  6  0  0  0
 31 33  1  0  0  0  0
 31 32  1  0  0  0  0
 32 35  1  1  0  0  0
 33 32  1  0  0  0  0
 35 36  1  0  0  0  0
 35 34  2  0  0  0  0
 36 38  1  0  0  0  0
 37 40  1  0  0  0  0
 38 40  2  0  0  0  0
 40 39  1  0  0  0  0
M  END
>  <MODEL>
7

>  <REMARK>
 VINA RESULT:      -7.4      4.129      7.543
  Name = 
  11 active torsions:
  status: ('A' for Active; 'I' for Inactive)
    1  A    between atoms: C_3  and  C_24
    2  A    between atoms: C_4  and  C_39
    3  A    between atoms: N_6  and  C_11
    4  A    between atoms: C_13  and  C_18
    5  A    between atoms: C_13  and  C_38
    6  A    between atoms: N_14  and  C_32
    7  A    between atoms: C_15  and  C_40
    8  A    between atoms: O_17  and  C_20
    9  A    between atoms: O_17  and  C_24
   10  A    between atoms: C_21  and  C_36
   11  A    between atoms: C_32  and  C_39
                            x       y       z     vdW  Elec       q    Type
                         _______ _______ _______ _____ _____    ______ ____

>  <TORSDO>
F 11

$$$$
=
 OpenBabel11062413093D

 40 45  0  0  1  0  0  0  0  0999 V2000
  191.2350  177.2340  140.3730 S   0  0  0  0  0  0  0  0  0  0  0  0
  189.4760  177.3990  140.5640 C   0  0  2  0  0  3  0  0  0  0  0  0
  188.4840  177.9730  139.6000 C   0  0  1  0  0  3  0  0  0  0  0  0
  189.0550  177.5400  141.7880 C   0  0  2  0  0  3  0  0  0  0  0  0
  187.7440  178.1670  141.7830 C   0  0  0  0  0  0  0  0  0  0  0  0
  187.4010  178.4500  140.5310 C   0  0  0  0  0  3  0  0  0  0  0  0
  190.0880  177.5600  142.8510 C   0  0  2  0  0  3  0  0  0  0  0  0
  191.4130  177.7810  142.1150 C   0  0  0  0  0  2  0  0  0  0  0  0
  183.7650  178.6760  141.0040 N   0  0  0  0  0  0  0  0  0  0  0  0
  183.0940  179.0220  143.3820 C   0  0  0  0  0  2  0  0  0  0  0  0
  186.2090  177.4120  143.5980 C   0  0  0  0  0  2  0  0  0  0  0  0
  182.5610  179.3890  139.1280 O   0  0  0  0  0  0  0  0  0  0  0  0
  184.8580  177.8420  141.5160 C   0  0  0  0  0  2  0  0  0  0  0  0
  182.7870  179.2990  141.9090 C   0  0  0  0  0  2  0  0  0  0  0  0
  185.4440  178.4390  142.7990 C   0  0  1  0  0  0  0  0  0  0  0  0
  184.5590  179.3120  143.6780 C   0  0  0  0  0  2  0  0  0  0  0  0
  183.5930  178.8280  139.5870 C   0  0  0  0  0  0  0  0  0  0  0  0
  186.9530  178.5930  142.9860 C   0  0  2  0  0  3  0  0  0  0  0  0
  184.6400  178.3520  138.6300 C   0  0  0  0  0  2  0  0  0  0  0  0
  183.2120  176.3330  138.4180 O   0  0  0  0  0  0  0  0  0  0  0  0
  183.2150  175.1860  137.8110 N   0  0  0  0  0  0  0  0  0  0  0  0
  184.3110  176.9860  138.1270 C   0  0  0  0  0  0  0  0  0  0  0  0
  185.1050  176.2850  137.2960 N   0  0  0  0  0  0  0  0  0  0  0  0
  184.3720  175.1660  137.1240 C   0  0  0  0  0  0  0  0  0  0  0  0
  186.3380  173.9500  136.2850 C   0  0  0  0  0  1  0  0  0  0  0  0
  184.8240  174.0090  136.3030 C   0  0  0  0  0  2  0  0  0  0  0  0
  189.0420  179.0750  138.8100 N   0  0  0  0  0  2  0  0  0  0  0  0
  189.2370  178.6650  137.5300 O   0  0  0  0  0  1  0  0  0  0  0  0
  190.1150  176.3200  143.4960 O   0  0  0  0  0  0  0  0  0  0  0  0
  191.2090  176.3900  144.3610 C   0  0  0  0  0  2  0  0  0  0  0  0
  190.8880  177.3190  145.5140 C   0  0  1  0  0  3  0  0  0  0  0  0
  189.9090  176.6230  146.4440 C   0  0  1  0  0  3  0  0  0  0  0  0
  191.3820  176.7050  146.8040 C   0  0  0  0  0  2  0  0  0  0  0  0
  189.4390  177.9020  148.4800 C   0  0  0  0  0  2  0  0  0  0  0  0
  189.1200  177.6430  147.2110 C   0  0  0  0  0  0  0  0  0  0  0  0
  188.2010  178.5820  146.4890 C   0  0  0  0  0  2  0  0  0  0  0  0
  186.0260  180.1240  147.4700 N   0  0  0  0  0  1  0  0  0  0  0  0
  186.8270  178.0950  146.5390 N   0  0  0  0  0  0  0  0  0  0  0  0
  184.5230  178.2420  146.9800 N   0  0  0  0  0  1  0  0  0  0  0  0
  185.8310  178.8020  146.9740 C   0  0  0  0  0  0  0  0  0  0  0  0
  1  8  1  0  0  0  0
  2  1  1  1  0  0  0
  2  4  1  0  0  0  0
  3 27  1  1  0  0  0
  3  6  1  0  0  0  0
  3  2  1  0  0  0  0
  4  5  1  6  0  0  0
  4  7  1  0  0  0  0
  6  5  2  0  0  0  0
  7 29  1  6  0  0  0
  8  7  1  0  0  0  0
  9 13  1  0  0  0  0
  9 14  1  0  0  0  0
 10 16  1  0  0  0  0
 12 17  2  0  0  0  0
 14 10  1  0  0  0  0
 15 13  1  6  0  0  0
 15 18  1  0  0  0  0
 15 11  1  0  0  0  0
 15 16  1  0  0  0  0
 17  9  1  0  0  0  0
 18  5  1  6  0  0  0
 18 11  1  0  0  0  0
 19 17  1  0  0  0  0
 21 20  1  0  0  0  0
 22 20  1  0  0  0  0
 22 19  1  0  0  0  0
 23 22  2  0  0  0  0
 24 23  1  0  0  0  0
 24 21  2  0  0  0  0
 25 26  1  0  0  0  0
 26 24  1  0  0  0  0
 28 27  1  0  0  0  0
 29 30  1  0  0  0  0
 31 30  1  6  0  0  0
 31 32  1  0  0  0  0
 31 33  1  0  0  0  0
 32 33  1  0  0  0  0
 32 35  1  1  0  0  0
 35 34  2  0  0  0  0
 36 38  1  0  0  0  0
 36 35  1  0  0  0  0
 38 40  2  0  0  0  0
 40 39  1  0  0  0  0
 40 37  1  0  0  0  0
M  END
>  <MODEL>
8

>  <REMARK>
 VINA RESULT:      -7.1      3.641      6.066
  Name = 
  11 active torsions:
  status: ('A' for Active; 'I' for Inactive)
    1  A    between atoms: C_3  and  C_24
    2  A    between atoms: C_4  and  C_39
    3  A    between atoms: N_6  and  C_11
    4  A    between atoms: C_13  and  C_18
    5  A    between atoms: C_13  and  C_38
    6  A    between atoms: N_14  and  C_32
    7  A    between atoms: C_15  and  C_40
    8  A    between atoms: O_17  and  C_20
    9  A    between atoms: O_17  and  C_24
   10  A    between atoms: C_21  and  C_36
   11  A    between atoms: C_32  and  C_39
                            x       y       z     vdW  Elec       q    Type
                         _______ _______ _______ _____ _____    ______ ____

>  <TORSDO>
F 11

$$$$
=
 OpenBabel11062413093D

 40 45  0  0  1  0  0  0  0  0999 V2000
  188.0550  178.3410  141.0960 S   0  0  0  0  0  0  0  0  0  0  0  0
  189.1480  178.2200  139.6990 C   0  0  2  0  0  3  0  0  0  0  0  0
  188.8120  178.3140  138.2430 C   0  0  1  0  0  3  0  0  0  0  0  0
  190.2050  177.4810  139.8760 C   0  0  2  0  0  3  0  0  0  0  0  0
  190.7140  177.0430  138.5870 C   0  0  0  0  0  0  0  0  0  0  0  0
  189.9120  177.4910  137.6270 C   0  0  0  0  0  3  0  0  0  0  0  0
  190.3520  176.8300  141.1990 C   0  0  2  0  0  3  0  0  0  0  0  0
  188.9710  176.9430  141.8530 C   0  0  0  0  0  2  0  0  0  0  0  0
  189.8340  174.0660  135.9300 N   0  0  0  0  0  0  0  0  0  0  0  0
  192.1560  173.1650  135.7960 C   0  0  0  0  0  2  0  0  0  0  0  0
  192.5730  176.4220  137.0450 C   0  0  0  0  0  2  0  0  0  0  0  0
  187.8800  172.8890  135.4060 O   0  0  0  0  0  0  0  0  0  0  0  0
  190.4400  175.3710  136.2130 C   0  0  0  0  0  2  0  0  0  0  0  0
  190.6590  172.8770  135.6700 C   0  0  0  0  0  2  0  0  0  0  0  0
  191.6660  175.2180  137.1180 C   0  0  1  0  0  0  0  0  0  0  0  0
  192.4420  173.9080  137.0940 C   0  0  0  0  0  2  0  0  0  0  0  0
  188.4060  173.9570  135.8230 C   0  0  0  0  0  0  0  0  0  0  0  0
  191.8580  176.0990  138.3520 C   0  0  2  0  0  3  0  0  0  0  0  0
  187.5150  175.0880  136.2290 C   0  0  0  0  0  2  0  0  0  0  0  0
  186.1270  173.5420  137.5870 O   0  0  0  0  0  0  0  0  0  0  0  0
  184.8820  173.3610  137.9050 N   0  0  0  0  0  0  0  0  0  0  0  0
  186.2290  174.5720  136.7810 C   0  0  0  0  0  0  0  0  0  0  0  0
  185.0300  175.1300  136.5290 N   0  0  0  0  0  0  0  0  0  0  0  0
  184.2180  174.3380  137.2590 C   0  0  0  0  0  0  0  0  0  0  0  0
  182.3460  175.3510  138.4880 C   0  0  0  0  0  1  0  0  0  0  0  0
  182.7390  174.4960  137.3000 C   0  0  0  0  0  2  0  0  0  0  0  0
  187.4880  177.7630  137.9360 N   0  0  0  0  0  2  0  0  0  0  0  0
  186.6740  178.7560  137.4920 O   0  0  0  0  0  1  0  0  0  0  0  0
  191.2860  177.5340  141.9630 O   0  0  0  0  0  0  0  0  0  0  0  0
  191.4510  176.7710  143.1210 C   0  0  0  0  0  2  0  0  0  0  0  0
  190.8990  177.5280  144.3120 C   0  0  1  0  0  3  0  0  0  0  0  0
  190.1340  176.5590  145.1960 C   0  0  1  0  0  3  0  0  0  0  0  0
  191.5350  177.0010  145.5780 C   0  0  0  0  0  2  0  0  0  0  0  0
  189.3610  177.6020  147.2730 C   0  0  0  0  0  2  0  0  0  0  0  0
  189.1070  177.3010  145.9990 C   0  0  0  0  0  0  0  0  0  0  0  0
  187.9560  177.9730  145.3120 C   0  0  0  0  0  2  0  0  0  0  0  0
  185.2960  178.5060  144.4680 N   0  0  0  0  0  1  0  0  0  0  0  0
  186.8380  178.1430  146.2330 N   0  0  0  0  0  0  0  0  0  0  0  0
  184.5940  178.5190  146.8230 N   0  0  0  0  0  1  0  0  0  0  0  0
  185.6200  178.3730  145.8490 C   0  0  0  0  0  0  0  0  0  0  0  0
  1  8  1  0  0  0  0
  2  4  1  0  0  0  0
  2  1  1  1  0  0  0
  3 27  1  1  0  0  0
  3  2  1  0  0  0  0
  4  5  1  6  0  0  0
  4  7  1  0  0  0  0
  6  3  1  0  0  0  0
  6  5  2  0  0  0  0
  7  8  1  0  0  0  0
  7 29  1  1  0  0  0
  9 13  1  0  0  0  0
 10 16  1  0  0  0  0
 11 15  1  0  0  0  0
 11 18  1  0  0  0  0
 12 17  2  0  0  0  0
 14 10  1  0  0  0  0
 14  9  1  0  0  0  0
 15 13  1  6  0  0  0
 15 18  1  0  0  0  0
 16 15  1  0  0  0  0
 17  9  1  0  0  0  0
 17 19  1  0  0  0  0
 18  5  1  6  0  0  0
 19 22  1  0  0  0  0
 20 21  1  0  0  0  0
 22 20  1  0  0  0  0
 23 22  2  0  0  0  0
 23 24  1  0  0  0  0
 24 26  1  0  0  0  0
 24 21  2  0  0  0  0
 26 25  1  0  0  0  0
 28 27  1  0  0  0  0
 29 30  1  0  0  0  0
 31 30  1  6  0  0  0
 31 32  1  0  0  0  0
 31 33  1  0  0  0  0
 32 33  1  0  0  0  0
 32 35  1  1  0  0  0
 35 34  2  0  0  0  0
 36 35  1  0  0  0  0
 36 38  1  0  0  0  0
 37 40  1  0  0  0  0
 40 38  2  0  0  0  0
 40 39  1  0  0  0  0
M  END
>  <MODEL>
9

>  <REMARK>
 VINA RESULT:      -7.0      2.832      5.553
  Name = 
  11 active torsions:
  status: ('A' for Active; 'I' for Inactive)
    1  A    between atoms: C_3  and  C_24
    2  A    between atoms: C_4  and  C_39
    3  A    between atoms: N_6  and  C_11
    4  A    between atoms: C_13  and  C_18
    5  A    between atoms: C_13  and  C_38
    6  A    between atoms: N_14  and  C_32
    7  A    between atoms: C_15  and  C_40
    8  A    between atoms: O_17  and  C_20
    9  A    between atoms: O_17  and  C_24
   10  A    between atoms: C_21  and  C_36
   11  A    between atoms: C_32  and  C_39
                            x       y       z     vdW  Elec       q    Type
                         _______ _______ _______ _____ _____    ______ ____

>  <TORSDO>
F 11

$$$$
