=
 OpenBabel11062418123D

 70 78  0  0  1  0  0  0  0  0999 V2000
  187.1560  178.2380  138.0260 C   0  0  0  0  0  2  0  0  0  0  0  0
  188.0830  178.4560  136.8540 C   0  0  2  0  0  3  0  0  0  0  0  0
  187.4630  177.6620  135.7430 C   0  0  0  0  0  2  0  0  0  0  0  0
  185.9870  177.7160  136.0630 C   0  0  2  0  0  3  0  0  0  0  0  0
  185.8460  177.8550  137.5090 N   0  0  0  0  0  2  0  0  0  0  0  0
  185.2810  176.4550  135.5950 C   0  0  0  0  0  2  0  0  0  0  0  0
  181.9480  176.8430  139.2230 C   0  0  0  0  0  3  0  0  0  0  0  0
  183.8730  176.4750  135.9810 N   0  0  0  0  0  0  0  0  0  0  0  0
  184.0920  175.8320  139.6670 C   0  0  0  0  0  3  0  0  0  0  0  0
  181.8080  178.3930  135.8260 C   0  0  0  0  0  2  0  0  0  0  0  0
  182.9120  176.2780  134.8920 C   0  0  2  0  0  3  0  0  0  0  0  0
  184.4020  175.9100  138.3110 C   0  0  0  0  0  3  0  0  0  0  0  0
  181.1960  177.5440  136.9260 C   0  0  1  0  0  3  0  0  0  0  0  0
  182.8600  176.2930  140.1230 C   0  0  0  0  0  3  0  0  0  0  0  0
  182.2480  176.9580  137.8530 C   0  0  0  0  0  0  0  0  0  0  0  0
  183.4960  176.4530  137.3820 C   0  0  0  0  0  0  0  0  0  0  0  0
  182.0910  177.5410  134.5940 C   0  0  0  0  0  2  0  0  0  0  0  0
  182.0720  172.5770  135.1740 C   0  0  0  0  0  3  0  0  0  0  0  0
  180.7210  175.0230  135.2400 C   0  0  0  0  0  3  0  0  0  0  0  0
  182.7820  173.7720  135.0230 C   0  0  0  0  0  3  0  0  0  0  0  0
  182.1140  175.0050  135.0600 C   0  0  0  0  0  0  0  0  0  0  0  0
  180.6790  172.5970  135.3470 C   0  0  0  0  0  0  0  0  0  0  0  0
  180.0110  173.8290  135.3910 C   0  0  0  0  0  3  0  0  0  0  0  0
  180.7870  170.2500  135.4830 F   0  0  0  0  0  0  0  0  0  0  0  0
  179.3130  171.3290  136.8060 F   0  0  0  0  0  0  0  0  0  0  0  0
  179.9160  171.3220  135.5590 C   0  0  0  0  0  0  0  0  0  0  0  0
  178.9340  171.1720  134.5960 F   0  0  0  0  0  0  0  0  0  0  0  0
  180.1370  178.3680  137.6500 C   0  0  0  0  0  2  0  0  0  0  0  0
  180.6780  179.7610  137.9340 C   0  0  2  0  0  3  0  0  0  0  0  0
  180.4720  180.9460  140.0920 C   0  0  1  0  0  3  0  0  0  0  0  0
  181.2260  179.8270  139.3610 C   0  0  2  0  0  3  0  0  0  0  0  0
  178.9340  181.1390  136.8510 C   0  0  0  0  0  2  0  0  0  0  0  0
  179.5790  180.7520  137.9430 C   0  0  0  0  0  0  0  0  0  0  0  0
  179.4840  181.4620  139.1610 N   0  0  0  0  0  2  0  0  0  0  0  0
  180.0360  180.9670  142.4350 O   0  0  0  0  0  0  0  0  0  0  0  0
  178.9800  179.2570  141.2730 N   0  0  0  0  0  1  0  0  0  0  0  0
  179.8160  180.4110  141.3270 C   0  0  0  0  0  0  0  0  0  0  0  0
  183.7890  180.3800  139.3050 N   0  0  0  0  0  0  0  0  0  0  0  0
  182.6580  180.1360  139.3310 C   0  0  0  0  0  0  0  0  0  0  0  0
  189.4790  177.9490  137.1750 C   0  0  0  0  0  2  0  0  0  0  0  0
  189.4230  176.7500  138.1130 C   0  0  0  0  0  2  0  0  0  0  0  0
  190.5540  176.7860  139.0930 C   0  0  0  0  0  0  0  0  0  0  0  0
  191.8140  176.4610  138.7690 C   0  0  0  0  0  3  0  0  0  0  0  0
  190.2970  177.2770  140.4040 N   0  0  0  0  0  0  0  0  0  0  0  0
  188.7920  177.1580  142.4920 C   0  0  2  0  0  3  0  0  0  0  0  0
  189.4640  177.9070  141.3550 C   0  0  2  0  0  0  0  0  0  0  0  0
  188.2930  177.0900  141.2330 O   0  0  0  0  0  0  0  0  0  0  0  0
  191.6470  177.4640  142.7440 N   0  0  0  0  0  2  0  0  0  0  0  0
  190.7350  177.5150  141.8280 C   0  0  0  0  0  0  0  0  0  0  0  0
  187.9860  178.0740  143.2800 N   0  0  0  0  0  2  0  0  0  0  0  0
  187.1080  177.8450  145.5430 C   0  0  1  0  0  0  0  0  0  0  0  0
  187.6650  176.6360  145.0970 O   0  0  0  0  0  0  0  0  0  0  0  0
  188.3130  177.8180  144.6750 C   0  0  1  0  0  3  0  0  0  0  0  0
  185.7310  178.1030  144.9440 C   0  0  0  0  0  1  0  0  0  0  0  0
  187.3510  178.0880  147.0270 C   0  0  0  0  0  2  0  0  0  0  0  0
  188.3190  177.0710  147.6130 C   0  0  0  0  0  2  0  0  0  0  0  0
  189.5740  177.6530  147.7950 O   0  0  0  0  0  0  0  0  0  0  0  0
  190.3880  177.0360  146.8460 C   0  0  0  0  0  1  0  0  0  0  0  0
  192.2600  175.9490  137.5380 O   0  0  0  0  0  0  0  0  0  0  0  0
  193.0380  174.7660  137.3640 C   0  0  0  0  0  2  0  0  0  0  0  0
  194.5100  175.0380  137.6470 C   0  0  0  0  0  2  0  0  0  0  0  0
  195.2850  174.7680  136.5180 O   0  0  0  0  0  0  0  0  0  0  0  0
  196.9450  173.2200  135.8250 C   0  0  1  0  0  3  0  0  0  0  0  0
  197.7610  172.2500  136.4160 O   0  0  0  0  0  1  0  0  0  0  0  0
  195.5750  172.6740  135.4040 C   0  0  2  0  0  3  0  0  0  0  0  0
  195.7280  173.4540  136.7000 C   0  0  2  0  0  3  0  0  0  0  0  0
  196.5220  170.4210  135.4450 F   0  0  0  0  0  0  0  0  0  0  0  0
  194.9220  170.9690  136.9410 O   0  0  0  0  0  1  0  0  0  0  0  0
  195.3630  171.1620  135.6320 C   0  0  0  0  0  0  0  0  0  0  0  0
  194.3880  170.7030  134.7640 F   0  0  0  0  0  0  0  0  0  0  0  0
  2 40  1  1  0  0  0
  2  1  1  0  0  0  0
  3  4  1  0  0  0  0
  3  2  1  0  0  0  0
  4  6  1  1  0  0  0
  4  5  1  0  0  0  0
  5  1  1  0  0  0  0
  6  8  1  0  0  0  0
  7 14  1  0  0  0  0
  8 16  1  0  0  0  0
  9 14  2  0  0  0  0
 10 13  1  0  0  0  0
 11 21  1  1  0  0  0
 11  8  1  0  0  0  0
 12  9  1  0  0  0  0
 13 28  1  1  0  0  0
 13 15  1  0  0  0  0
 15  7  2  0  0  0  0
 16 15  1  0  0  0  0
 16 12  2  0  0  0  0
 17 11  1  0  0  0  0
 17 10  1  0  0  0  0
 18 22  1  0  0  0  0
 19 23  1  0  0  0  0
 20 21  1  0  0  0  0
 20 18  2  0  0  0  0
 21 19  2  0  0  0  0
 22 23  2  0  0  0  0
 22 26  1  0  0  0  0
 24 26  1  0  0  0  0
 26 25  1  0  0  0  0
 27 26  1  0  0  0  0
 29 28  1  1  0  0  0
 29 33  1  0  0  0  0
 29 31  1  0  0  0  0
 30 37  1  1  0  0  0
 31 39  1  6  0  0  0
 31 30  1  0  0  0  0
 32 33  2  0  0  0  0
 33 34  1  0  0  0  0
 34 30  1  0  0  0  0
 36 37  1  0  0  0  0
 37 35  2  0  0  0  0
 38 39  3  0  0  0  0
 40 41  1  0  0  0  0
 41 42  1  0  0  0  0
 42 44  1  0  0  0  0
 43 42  2  0  0  0  0
 44 46  1  0  0  0  0
 44 49  1  0  0  0  0
 45 50  1  1  0  0  0
 46 47  1  6  0  0  0
 46 49  1  0  0  0  0
 46 45  1  0  0  0  0
 47 45  1  0  0  0  0
 49 48  2  0  0  0  0
 51 54  1  6  0  0  0
 51 55  1  0  0  0  0
 52 51  1  0  0  0  0
 53 50  1  6  0  0  0
 53 52  1  0  0  0  0
 53 51  1  0  0  0  0
 55 56  1  0  0  0  0
 56 57  1  0  0  0  0
 58 57  1  0  0  0  0
 59 43  1  0  0  0  0
 60 59  1  0  0  0  0
 60 61  1  0  0  0  0
 62 61  1  0  0  0  0
 63 64  1  1  0  0  0
 63 66  1  0  0  0  0
 65 69  1  1  0  0  0
 65 63  1  0  0  0  0
 65 66  1  0  0  0  0
 66 62  1  6  0  0  0
 67 69  1  0  0  0  0
 69 68  1  0  0  0  0
 70 69  1  0  0  0  0
M  END
>  <MODEL>
1

>  <REMARK>
 VINA RESULT:      -4.5      0.000      0.000
  Name = 
  23 active torsions:
  status: ('A' for Active; 'I' for Inactive)
    1  A    between atoms: O_1  and  C_37
    2  A    between atoms: O_1  and  C_40
    3  A    between atoms: C_2  and  C_8
    4  A    between atoms: C_3  and  C_50
    5  A    between atoms: N_4  and  C_7
    6  A    between atoms: C_6  and  C_19
    7  A    between atoms: C_6  and  C_36
    8  A    between atoms: C_7  and  C_19
    9  A    between atoms: C_8  and  C_14
   10  A    between atoms: O_9  and  C_14
   11  A    between atoms: C_10  and  N_20
   12  A    between atoms: C_10  and  C_41
   13  A    between atoms: C_16  and  N_48
   14  A    between atoms: C_24  and  C_68
   15  A    between atoms: C_27  and  C_63
   16  A    between atoms: C_28  and  C_59
   17  A    between atoms: C_31  and  C_60
   18  A    between atoms: C_32  and  C_58
   19  A    between atoms: C_33  and  O_39
   20  A    between atoms: O_39  and  C_49
   21  A    between atoms: C_40  and  C_49
   22  A    between atoms: C_47  and  N_48
   23  A    between atoms: C_50  and  C_51
                            x       y       z     vdW  Elec       q    Type
                         _______ _______ _______ _____ _____    ______ ____

>  <TORSDO>
F 23

$$$$
=
 OpenBabel11062418123D

 70 78  0  0  1  0  0  0  0  0999 V2000
  187.1460  178.2680  138.0470 C   0  0  0  0  0  2  0  0  0  0  0  0
  188.0670  178.4110  136.8590 C   0  0  2  0  0  3  0  0  0  0  0  0
  187.4380  177.5520  135.8020 C   0  0  0  0  0  2  0  0  0  0  0  0
  185.9650  177.6310  136.1260 C   0  0  2  0  0  3  0  0  0  0  0  0
  185.8320  177.8590  137.5610 N   0  0  0  0  0  2  0  0  0  0  0  0
  185.2520  176.3460  135.7400 C   0  0  0  0  0  2  0  0  0  0  0  0
  181.8640  177.0600  139.2650 C   0  0  0  0  0  3  0  0  0  0  0  0
  183.8380  176.4090  136.0980 N   0  0  0  0  0  0  0  0  0  0  0  0
  183.9900  176.0730  139.8280 C   0  0  0  0  0  3  0  0  0  0  0  0
  181.7940  178.3240  135.7490 C   0  0  0  0  0  2  0  0  0  0  0  0
  182.8930  176.1310  135.0130 C   0  0  2  0  0  3  0  0  0  0  0  0
  184.3230  176.0360  138.4750 C   0  0  0  0  0  3  0  0  0  0  0  0
  181.1560  177.5750  136.9050 C   0  0  1  0  0  3  0  0  0  0  0  0
  182.7550  176.5800  140.2230 C   0  0  0  0  0  3  0  0  0  0  0  0
  182.1870  177.0590  137.8950 C   0  0  0  0  0  0  0  0  0  0  0  0
  183.4380  176.5070  137.4890 C   0  0  0  0  0  0  0  0  0  0  0  0
  182.0890  177.3710  134.5970 C   0  0  0  0  0  2  0  0  0  0  0  0
  181.9420  172.4550  135.2730 C   0  0  0  0  0  3  0  0  0  0  0  0
  180.7510  174.9450  135.7220 C   0  0  0  0  0  3  0  0  0  0  0  0
  182.6670  173.6280  135.0450 C   0  0  0  0  0  3  0  0  0  0  0  0
  182.0810  174.8820  135.2710 C   0  0  0  0  0  0  0  0  0  0  0  0
  180.6110  172.5200  135.7170 C   0  0  0  0  0  0  0  0  0  0  0  0
  180.0260  173.7720  135.9510 C   0  0  0  0  0  3  0  0  0  0  0  0
  179.1480  170.8760  134.8800 F   0  0  0  0  0  0  0  0  0  0  0  0
  180.7070  170.2510  136.3850 F   0  0  0  0  0  0  0  0  0  0  0  0
  179.8410  171.2650  136.0130 C   0  0  0  0  0  0  0  0  0  0  0  0
  178.9400  171.4740  137.0410 F   0  0  0  0  0  0  0  0  0  0  0  0
  180.0920  178.4640  137.5400 C   0  0  0  0  0  2  0  0  0  0  0  0
  180.7050  179.8050  137.9170 C   0  0  2  0  0  3  0  0  0  0  0  0
  180.7030  180.7720  140.1900 C   0  0  1  0  0  3  0  0  0  0  0  0
  181.3590  179.7100  139.2960 C   0  0  2  0  0  3  0  0  0  0  0  0
  178.9390  181.3360  137.1110 C   0  0  0  0  0  2  0  0  0  0  0  0
  179.6480  180.8220  138.1070 C   0  0  0  0  0  0  0  0  0  0  0  0
  179.6690  181.4090  139.3930 N   0  0  0  0  0  2  0  0  0  0  0  0
  180.5130  180.5080  142.5500 O   0  0  0  0  0  0  0  0  0  0  0  0
  179.1610  179.0860  141.3080 N   0  0  0  0  0  1  0  0  0  0  0  0
  180.1210  180.1360  141.4130 C   0  0  0  0  0  0  0  0  0  0  0  0
  183.9300  180.1920  139.0990 N   0  0  0  0  0  0  0  0  0  0  0  0
  182.7950  179.9780  139.1860 C   0  0  0  0  0  0  0  0  0  0  0  0
  189.4630  177.9190  137.2030 C   0  0  0  0  0  2  0  0  0  0  0  0
  189.4130  176.8270  138.2650 C   0  0  0  0  0  2  0  0  0  0  0  0
  190.7170  176.7280  138.9910 C   0  0  0  0  0  0  0  0  0  0  0  0
  191.8800  176.4680  138.3760 C   0  0  0  0  0  3  0  0  0  0  0  0
  190.7380  177.0160  140.3850 N   0  0  0  0  0  0  0  0  0  0  0  0
  189.9270  176.3420  142.7360 C   0  0  2  0  0  3  0  0  0  0  0  0
  190.0900  177.3350  141.5990 C   0  0  2  0  0  0  0  0  0  0  0  0
  189.1230  176.2780  141.6450 O   0  0  0  0  0  0  0  0  0  0  0  0
  192.6150  177.2940  142.3180 N   0  0  0  0  0  2  0  0  0  0  0  0
  191.4950  177.2140  141.6750 C   0  0  0  0  0  0  0  0  0  0  0  0
  189.2010  176.9600  143.8310 N   0  0  0  0  0  2  0  0  0  0  0  0
  187.0350  177.9690  144.3220 C   0  0  1  0  0  0  0  0  0  0  0  0
  187.8330  178.8390  143.5610 O   0  0  0  0  0  0  0  0  0  0  0  0
  187.9540  177.4610  143.2710 C   0  0  1  0  0  3  0  0  0  0  0  0
  187.4500  177.9390  145.7890 C   0  0  0  0  0  1  0  0  0  0  0  0
  185.5610  178.0500  143.9480 C   0  0  0  0  0  2  0  0  0  0  0  0
  184.7760  178.9020  144.9350 C   0  0  0  0  0  2  0  0  0  0  0  0
  183.6900  179.5000  144.2940 O   0  0  0  0  0  0  0  0  0  0  0  0
  183.9650  179.3600  142.9350 C   0  0  0  0  0  1  0  0  0  0  0  0
  192.0600  176.1490  137.0180 O   0  0  0  0  0  0  0  0  0  0  0  0
  193.2850  175.7310  136.4200 C   0  0  0  0  0  2  0  0  0  0  0  0
  193.0610  174.5310  135.5080 C   0  0  0  0  0  2  0  0  0  0  0  0
  193.3970  173.3460  136.1650 O   0  0  0  0  0  0  0  0  0  0  0  0
  195.2680  172.1090  136.9400 C   0  0  1  0  0  3  0  0  0  0  0  0
  196.5270  171.7350  136.4600 O   0  0  0  0  0  1  0  0  0  0  0  0
  195.2750  173.4750  137.6370 C   0  0  2  0  0  3  0  0  0  0  0  0
  194.7950  173.3460  136.2000 C   0  0  2  0  0  3  0  0  0  0  0  0
  197.1190  174.6440  136.5370 F   0  0  0  0  0  0  0  0  0  0  0  0
  196.5510  175.2220  138.6450 O   0  0  0  0  0  1  0  0  0  0  0  0
  196.6550  174.1560  137.7520 C   0  0  0  0  0  0  0  0  0  0  0  0
  197.5710  173.2460  138.2520 F   0  0  0  0  0  0  0  0  0  0  0  0
  2 40  1  1  0  0  0
  2  1  1  0  0  0  0
  3  4  1  0  0  0  0
  3  2  1  0  0  0  0
  4  6  1  1  0  0  0
  4  5  1  0  0  0  0
  5  1  1  0  0  0  0
  6  8  1  0  0  0  0
  7 14  1  0  0  0  0
  8 16  1  0  0  0  0
  9 14  2  0  0  0  0
 10 13  1  0  0  0  0
 11 21  1  1  0  0  0
 11  8  1  0  0  0  0
 12  9  1  0  0  0  0
 13 28  1  1  0  0  0
 13 15  1  0  0  0  0
 15  7  2  0  0  0  0
 16 15  1  0  0  0  0
 16 12  2  0  0  0  0
 17 11  1  0  0  0  0
 17 10  1  0  0  0  0
 18 22  1  0  0  0  0
 19 23  1  0  0  0  0
 20 21  1  0  0  0  0
 20 18  2  0  0  0  0
 21 19  2  0  0  0  0
 22 23  2  0  0  0  0
 22 26  1  0  0  0  0
 24 26  1  0  0  0  0
 26 25  1  0  0  0  0
 26 27  1  0  0  0  0
 29 28  1  1  0  0  0
 29 33  1  0  0  0  0
 29 31  1  0  0  0  0
 30 37  1  1  0  0  0
 31 39  1  6  0  0  0
 31 30  1  0  0  0  0
 32 33  2  0  0  0  0
 33 34  1  0  0  0  0
 34 30  1  0  0  0  0
 36 37  1  0  0  0  0
 37 35  2  0  0  0  0
 38 39  3  0  0  0  0
 40 41  1  0  0  0  0
 41 42  1  0  0  0  0
 42 44  1  0  0  0  0
 43 42  2  0  0  0  0
 44 46  1  0  0  0  0
 44 49  1  0  0  0  0
 45 50  1  1  0  0  0
 46 47  1  1  0  0  0
 46 49  1  0  0  0  0
 46 45  1  0  0  0  0
 47 45  1  0  0  0  0
 49 48  2  0  0  0  0
 51 54  1  1  0  0  0
 52 51  1  0  0  0  0
 53 52  1  0  0  0  0
 53 50  1  1  0  0  0
 53 51  1  0  0  0  0
 55 51  1  0  0  0  0
 55 56  1  0  0  0  0
 57 56  1  0  0  0  0
 58 57  1  0  0  0  0
 59 43  1  0  0  0  0
 60 59  1  0  0  0  0
 61 62  1  0  0  0  0
 61 60  1  0  0  0  0
 63 64  1  6  0  0  0
 63 65  1  0  0  0  0
 65 69  1  6  0  0  0
 66 62  1  1  0  0  0
 66 63  1  0  0  0  0
 66 65  1  0  0  0  0
 67 69  1  0  0  0  0
 69 70  1  0  0  0  0
 69 68  1  0  0  0  0
M  END
>  <MODEL>
2

>  <REMARK>
 VINA RESULT:      -3.7      1.372      2.083
  Name = 
  23 active torsions:
  status: ('A' for Active; 'I' for Inactive)
    1  A    between atoms: O_1  and  C_37
    2  A    between atoms: O_1  and  C_40
    3  A    between atoms: C_2  and  C_8
    4  A    between atoms: C_3  and  C_50
    5  A    between atoms: N_4  and  C_7
    6  A    between atoms: C_6  and  C_19
    7  A    between atoms: C_6  and  C_36
    8  A    between atoms: C_7  and  C_19
    9  A    between atoms: C_8  and  C_14
   10  A    between atoms: O_9  and  C_14
   11  A    between atoms: C_10  and  N_20
   12  A    between atoms: C_10  and  C_41
   13  A    between atoms: C_16  and  N_48
   14  A    between atoms: C_24  and  C_68
   15  A    between atoms: C_27  and  C_63
   16  A    between atoms: C_28  and  C_59
   17  A    between atoms: C_31  and  C_60
   18  A    between atoms: C_32  and  C_58
   19  A    between atoms: C_33  and  O_39
   20  A    between atoms: O_39  and  C_49
   21  A    between atoms: C_40  and  C_49
   22  A    between atoms: C_47  and  N_48
   23  A    between atoms: C_50  and  C_51
                            x       y       z     vdW  Elec       q    Type
                         _______ _______ _______ _____ _____    ______ ____

>  <TORSDO>
F 23

$$$$
=
 OpenBabel11062418123D

 70 78  0  0  1  0  0  0  0  0999 V2000
  188.4740  178.0340  142.7040 C   0  0  0  0  0  2  0  0  0  0  0  0
  188.5570  178.1130  141.1980 C   0  0  2  0  0  3  0  0  0  0  0  0
  187.1390  177.9360  140.7420 C   0  0  0  0  0  2  0  0  0  0  0  0
  186.3360  178.5250  141.8780 C   0  0  2  0  0  3  0  0  0  0  0  0
  187.1110  178.3660  143.1040 N   0  0  0  0  0  2  0  0  0  0  0  0
  184.9970  177.8210  142.0200 C   0  0  0  0  0  2  0  0  0  0  0  0
  180.8670  180.2950  140.9030 C   0  0  0  0  0  3  0  0  0  0  0  0
  184.0650  178.2660  140.9880 N   0  0  0  0  0  0  0  0  0  0  0  0
  181.0530  179.1690  143.0260 C   0  0  0  0  0  3  0  0  0  0  0  0
  184.1040  180.3050  139.0360 C   0  0  0  0  0  2  0  0  0  0  0  0
  184.3700  177.8260  139.6230 C   0  0  2  0  0  3  0  0  0  0  0  0
  182.2690  178.6210  142.6220 C   0  0  0  0  0  3  0  0  0  0  0  0
  182.5980  180.1180  139.0840 C   0  0  1  0  0  3  0  0  0  0  0  0
  180.3470  180.0010  142.1630 C   0  0  0  0  0  3  0  0  0  0  0  0
  182.1060  179.7760  140.4810 C   0  0  0  0  0  0  0  0  0  0  0  0
  182.8100  178.8950  141.3530 C   0  0  0  0  0  0  0  0  0  0  0  0
  184.7920  178.9850  138.7090 C   0  0  0  0  0  2  0  0  0  0  0  0
  181.6100  175.2100  139.4610 C   0  0  0  0  0  3  0  0  0  0  0  0
  182.9970  176.8770  137.6960 C   0  0  0  0  0  3  0  0  0  0  0  0
  182.6030  176.0680  139.9440 C   0  0  0  0  0  3  0  0  0  0  0  0
  183.3020  176.9120  139.0670 C   0  0  0  0  0  0  0  0  0  0  0  0
  181.3120  175.1730  138.0890 C   0  0  0  0  0  0  0  0  0  0  0  0
  182.0040  176.0210  137.2140 C   0  0  0  0  0  3  0  0  0  0  0  0
  180.1090  173.1690  138.3710 F   0  0  0  0  0  0  0  0  0  0  0  0
  179.0080  174.9730  137.5840 F   0  0  0  0  0  0  0  0  0  0  0  0
  180.2130  174.2910  137.5690 C   0  0  0  0  0  0  0  0  0  0  0  0
  180.4780  173.8940  136.2710 F   0  0  0  0  0  0  0  0  0  0  0  0
  181.9300  181.3510  138.4870 C   0  0  0  0  0  2  0  0  0  0  0  0
  180.6800  180.9380  137.7250 C   0  0  2  0  0  3  0  0  0  0  0  0
  179.7080  182.1770  135.8220 C   0  0  1  0  0  3  0  0  0  0  0  0
  180.8520  181.2410  136.2360 C   0  0  2  0  0  3  0  0  0  0  0  0
  178.9330  181.7040  139.2990 C   0  0  0  0  0  1  0  0  0  0  0  0
  179.5310  181.7830  138.1170 C   0  0  0  0  0  0  0  0  0  0  0  0
  178.9440  182.4620  137.0250 N   0  0  0  0  0  0  0  0  0  0  0  0
  181.4870  183.6770  135.3090 O   0  0  0  0  0  0  0  0  0  0  0  0
  179.3930  184.3820  134.5950 N   0  0  0  0  0  1  0  0  0  0  0  0
  180.2540  183.4350  135.2230 C   0  0  0  0  0  0  0  0  0  0  0  0
  180.7150  179.0180  134.8510 N   0  0  0  0  0  0  0  0  0  0  0  0
  180.7770  179.9990  135.4620 C   0  0  0  0  0  0  0  0  0  0  0  0
  189.4490  177.0100  140.6540 C   0  0  0  0  0  2  0  0  0  0  0  0
  190.8390  177.5410  140.3250 C   0  0  0  0  0  2  0  0  0  0  0  0
  191.4600  176.7570  139.2120 C   0  0  0  0  0  0  0  0  0  0  0  0
  190.8150  176.4630  138.0750 C   0  0  0  0  0  3  0  0  0  0  0  0
  192.8310  176.3880  139.3290 N   0  0  0  0  0  0  0  0  0  0  0  0
  194.9960  175.7300  138.0980 C   0  0  2  0  0  3  0  0  0  0  0  0
  193.8990  175.4870  139.1190 C   0  0  2  0  0  0  0  0  0  0  0  0
  193.7750  175.2880  137.7050 O   0  0  0  0  0  0  0  0  0  0  0  0
  195.0760  177.4450  140.4130 N   0  0  0  0  0  2  0  0  0  0  0  0
  194.2370  176.6840  139.7880 C   0  0  0  0  0  0  0  0  0  0  0  0
  195.9290  174.6170  138.1030 N   0  0  0  0  0  2  0  0  0  0  0  0
  196.3820  172.6780  136.6950 C   0  0  1  0  0  0  0  0  0  0  0  0
  195.6170  172.3160  137.8150 O   0  0  0  0  0  0  0  0  0  0  0  0
  195.3490  173.5860  137.2560 C   0  0  1  0  0  3  0  0  0  0  0  0
  197.8540  172.8780  137.0400 C   0  0  0  0  0  1  0  0  0  0  0  0
  195.9920  171.9010  135.4450 C   0  0  0  0  0  2  0  0  0  0  0  0
  194.5270  171.4910  135.4710 C   0  0  0  0  0  2  0  0  0  0  0  0
  194.4100  170.1170  135.2610 O   0  0  0  0  0  0  0  0  0  0  0  0
  193.0360  169.8790  135.2600 C   0  0  0  0  0  1  0  0  0  0  0  0
  189.4670  176.7320  137.7790 O   0  0  0  0  0  0  0  0  0  0  0  0
  188.9840  177.3280  136.5770 C   0  0  0  0  0  2  0  0  0  0  0  0
  188.1340  176.3410  135.7850 C   0  0  0  0  0  2  0  0  0  0  0  0
  188.7460  175.0870  135.7480 O   0  0  0  0  0  0  0  0  0  0  0  0
  187.8740  172.9020  136.0600 C   0  0  1  0  0  3  0  0  0  0  0  0
  187.7410  171.9850  137.1070 O   0  0  0  0  0  1  0  0  0  0  0  0
  186.6960  173.8790  135.9680 C   0  0  2  0  0  3  0  0  0  0  0  0
  187.9960  174.3020  136.6310 C   0  0  2  0  0  3  0  0  0  0  0  0
  185.1330  174.8090  137.6010 F   0  0  0  0  0  0  0  0  0  0  0  0
  184.4690  173.0870  136.3000 O   0  0  0  0  0  1  0  0  0  0  0  0
  185.5540  173.6420  136.9780 C   0  0  0  0  0  0  0  0  0  0  0  0
  185.9790  172.7440  137.9420 F   0  0  0  0  0  0  0  0  0  0  0  0
  1  5  1  0  0  0  0
  2 40  1  6  0  0  0
  2  1  1  0  0  0  0
  3  2  1  0  0  0  0
  3  4  1  0  0  0  0
  4  6  1  1  0  0  0
  4  5  1  0  0  0  0
  7 14  1  0  0  0  0
  8 16  1  0  0  0  0
  8  6  1  0  0  0  0
 10 13  1  0  0  0  0
 11 21  1  6  0  0  0
 11  8  1  0  0  0  0
 12  9  1  0  0  0  0
 13 28  1  1  0  0  0
 13 15  1  0  0  0  0
 14  9  2  0  0  0  0
 15  7  2  0  0  0  0
 15 16  1  0  0  0  0
 16 12  2  0  0  0  0
 17 10  1  0  0  0  0
 17 11  1  0  0  0  0
 18 20  1  0  0  0  0
 19 21  1  0  0  0  0
 21 20  2  0  0  0  0
 22 18  2  0  0  0  0
 23 19  2  0  0  0  0
 23 22  1  0  0  0  0
 26 25  1  0  0  0  0
 26 22  1  0  0  0  0
 26 24  1  0  0  0  0
 27 26  1  0  0  0  0
 29 33  1  0  0  0  0
 29 28  1  1  0  0  0
 30 37  1  1  0  0  0
 30 31  1  0  0  0  0
 30 34  1  0  0  0  0
 31 39  1  6  0  0  0
 31 29  1  0  0  0  0
 33 32  1  0  0  0  0
 34 33  2  0  0  0  0
 36 37  1  0  0  0  0
 37 35  2  0  0  0  0
 38 39  3  0  0  0  0
 41 40  1  0  0  0  0
 42 44  1  0  0  0  0
 42 41  1  0  0  0  0
 43 42  2  0  0  0  0
 44 49  1  0  0  0  0
 45 50  1  1  0  0  0
 45 46  1  0  0  0  0
 46 47  1  1  0  0  0
 46 44  1  0  0  0  0
 46 49  1  0  0  0  0
 47 45  1  0  0  0  0
 49 48  2  0  0  0  0
 51 54  1  1  0  0  0
 51 53  1  0  0  0  0
 51 52  1  0  0  0  0
 53 52  1  0  0  0  0
 53 50  1  1  0  0  0
 55 56  1  0  0  0  0
 55 51  1  0  0  0  0
 57 56  1  0  0  0  0
 58 57  1  0  0  0  0
 59 43  1  0  0  0  0
 60 59  1  0  0  0  0
 61 60  1  0  0  0  0
 62 61  1  0  0  0  0
 63 66  1  0  0  0  0
 63 64  1  1  0  0  0
 65 63  1  0  0  0  0
 65 66  1  0  0  0  0
 65 69  1  1  0  0  0
 66 62  1  6  0  0  0
 68 69  1  0  0  0  0
 69 67  1  0  0  0  0
 69 70  1  0  0  0  0
M  END
>  <MODEL>
3

>  <REMARK>
 VINA RESULT:      -3.5      3.431      7.250
  Name = 
  23 active torsions:
  status: ('A' for Active; 'I' for Inactive)
    1  A    between atoms: O_1  and  C_37
    2  A    between atoms: O_1  and  C_40
    3  A    between atoms: C_2  and  C_8
    4  A    between atoms: C_3  and  C_50
    5  A    between atoms: N_4  and  C_7
    6  A    between atoms: C_6  and  C_19
    7  A    between atoms: C_6  and  C_36
    8  A    between atoms: C_7  and  C_19
    9  A    between atoms: C_8  and  C_14
   10  A    between atoms: O_9  and  C_14
   11  A    between atoms: C_10  and  N_20
   12  A    between atoms: C_10  and  C_41
   13  A    between atoms: C_16  and  N_48
   14  A    between atoms: C_24  and  C_68
   15  A    between atoms: C_27  and  C_63
   16  A    between atoms: C_28  and  C_59
   17  A    between atoms: C_31  and  C_60
   18  A    between atoms: C_32  and  C_58
   19  A    between atoms: C_33  and  O_39
   20  A    between atoms: O_39  and  C_49
   21  A    between atoms: C_40  and  C_49
   22  A    between atoms: C_47  and  N_48
   23  A    between atoms: C_50  and  C_51
                            x       y       z     vdW  Elec       q    Type
                         _______ _______ _______ _____ _____    ______ ____

>  <TORSDO>
F 23

$$$$
=
 OpenBabel11062418123D

 70 78  0  0  1  0  0  0  0  0999 V2000
  186.4670  177.5520  144.4950 C   0  0  0  0  0  2  0  0  0  0  0  0
  186.6430  178.3490  143.2240 C   0  0  2  0  0  3  0  0  0  0  0  0
  185.2410  178.6530  142.7850 C   0  0  0  0  0  2  0  0  0  0  0  0
  184.4800  178.7260  144.0880 C   0  0  2  0  0  3  0  0  0  0  0  0
  185.1540  177.8600  145.0500 N   0  0  0  0  0  2  0  0  0  0  0  0
  183.0420  178.2730  143.9060 C   0  0  0  0  0  2  0  0  0  0  0  0
  179.8960  180.5870  140.8770 C   0  0  0  0  0  3  0  0  0  0  0  0
  182.5940  178.5080  142.5360 N   0  0  0  0  0  0  0  0  0  0  0  0
  179.1860  179.9640  143.0950 C   0  0  0  0  0  3  0  0  0  0  0  0
  183.5600  180.0500  140.3770 C   0  0  0  0  0  2  0  0  0  0  0  0
  183.3060  177.7590  141.4960 C   0  0  2  0  0  3  0  0  0  0  0  0
  180.3920  179.2930  143.2860 C   0  0  0  0  0  3  0  0  0  0  0  0
  182.1230  179.9370  139.9010 C   0  0  1  0  0  3  0  0  0  0  0  0
  178.9350  180.6060  141.8860 C   0  0  0  0  0  3  0  0  0  0  0  0
  181.1330  179.9390  141.0540 C   0  0  0  0  0  0  0  0  0  0  0  0
  181.3740  179.2510  142.2800 C   0  0  0  0  0  0  0  0  0  0  0  0
  184.1580  178.6650  140.5940 C   0  0  0  0  0  2  0  0  0  0  0  0
  180.3230  175.5240  140.7250 C   0  0  0  0  0  3  0  0  0  0  0  0
  182.7550  176.2250  139.5370 C   0  0  0  0  0  3  0  0  0  0  0  0
  181.1820  176.4230  141.3660 C   0  0  0  0  0  3  0  0  0  0  0  0
  182.4020  176.7850  140.7760 C   0  0  0  0  0  0  0  0  0  0  0  0
  180.6820  174.9600  139.4900 C   0  0  0  0  0  0  0  0  0  0  0  0
  181.8970  175.3270  138.8960 C   0  0  0  0  0  3  0  0  0  0  0  0
  178.9460  173.3830  139.6970 F   0  0  0  0  0  0  0  0  0  0  0  0
  178.9400  174.7470  137.9020 F   0  0  0  0  0  0  0  0  0  0  0  0
  179.7450  174.0320  138.7720 C   0  0  0  0  0  0  0  0  0  0  0  0
  180.4500  173.0890  138.0470 F   0  0  0  0  0  0  0  0  0  0  0  0
  181.8600  181.0280  138.8690 C   0  0  0  0  0  2  0  0  0  0  0  0
  182.1350  180.4890  137.4730 C   0  0  2  0  0  3  0  0  0  0  0  0
  180.7940  178.7530  136.3370 C   0  0  1  0  0  3  0  0  0  0  0  0
  180.8150  180.2330  136.7430 C   0  0  2  0  0  3  0  0  0  0  0  0
  183.9940  178.9330  137.9610 C   0  0  0  0  0  1  0  0  0  0  0  0
  182.7520  179.1460  137.5480 C   0  0  0  0  0  0  0  0  0  0  0  0
  182.0090  178.1570  136.8640 N   0  0  0  0  0  0  0  0  0  0  0  0
  178.9390  177.2650  136.1780 O   0  0  0  0  0  0  0  0  0  0  0  0
  179.1160  178.3730  138.2110 N   0  0  0  0  0  1  0  0  0  0  0  0
  179.5800  178.0770  136.8950 C   0  0  0  0  0  0  0  0  0  0  0  0
  180.6750  181.7360  134.5980 N   0  0  0  0  0  0  0  0  0  0  0  0
  180.7360  181.0740  135.5460 C   0  0  0  0  0  0  0  0  0  0  0  0
  187.3780  177.5290  142.1770 C   0  0  0  0  0  2  0  0  0  0  0  0
  187.5750  178.3290  140.8940 C   0  0  0  0  0  2  0  0  0  0  0  0
  188.8990  178.0190  140.2700 C   0  0  0  0  0  0  0  0  0  0  0  0
  189.1130  178.0640  138.9470 C   0  0  0  0  0  3  0  0  0  0  0  0
  190.0050  177.7540  141.1270 N   0  0  0  0  0  0  0  0  0  0  0  0
  191.0980  176.1170  142.7880 C   0  0  2  0  0  3  0  0  0  0  0  0
  190.5550  177.4800  142.3990 C   0  0  2  0  0  0  0  0  0  0  0  0
  189.7610  176.3460  142.7690 O   0  0  0  0  0  0  0  0  0  0  0  0
  192.6960  177.5730  140.8810 N   0  0  0  0  0  2  0  0  0  0  0  0
  191.4860  177.5650  141.3400 C   0  0  0  0  0  0  0  0  0  0  0  0
  191.5690  176.1480  144.1620 N   0  0  0  0  0  2  0  0  0  0  0  0
  190.7290  176.5920  146.4080 C   0  0  1  0  0  0  0  0  0  0  0  0
  191.0680  177.7870  145.7540 O   0  0  0  0  0  0  0  0  0  0  0  0
  190.5130  176.7680  144.9480 C   0  0  1  0  0  3  0  0  0  0  0  0
  191.9550  175.8460  146.9220 C   0  0  0  0  0  1  0  0  0  0  0  0
  189.4990  176.7390  147.2940 C   0  0  0  0  0  2  0  0  0  0  0  0
  189.5810  177.9810  148.1690 C   0  0  0  0  0  2  0  0  0  0  0  0
  188.3240  178.5790  148.2710 O   0  0  0  0  0  0  0  0  0  0  0  0
  187.4230  177.5220  148.1530 C   0  0  0  0  0  1  0  0  0  0  0  0
  188.1530  178.2950  137.9470 O   0  0  0  0  0  0  0  0  0  0  0  0
  186.9660  177.5320  137.7430 C   0  0  0  0  0  2  0  0  0  0  0  0
  186.8050  177.1610  136.2740 C   0  0  0  0  0  2  0  0  0  0  0  0
  188.0390  176.8230  135.7150 O   0  0  0  0  0  0  0  0  0  0  0  0
  188.1450  174.6590  134.7470 C   0  0  1  0  0  3  0  0  0  0  0  0
  188.9140  173.5010  134.8930 O   0  0  0  0  0  1  0  0  0  0  0  0
  186.9410  174.7010  135.6960 C   0  0  2  0  0  3  0  0  0  0  0  0
  188.2090  175.4710  136.0270 C   0  0  2  0  0  3  0  0  0  0  0  0
  187.9300  173.0100  137.1580 F   0  0  0  0  0  0  0  0  0  0  0  0
  185.8470  173.7630  137.5990 O   0  0  0  0  0  1  0  0  0  0  0  0
  186.7470  173.4510  136.5800 C   0  0  0  0  0  0  0  0  0  0  0  0
  186.2110  172.4300  135.8130 F   0  0  0  0  0  0  0  0  0  0  0  0
  1  5  1  0  0  0  0
  2 40  1  6  0  0  0
  2  1  1  0  0  0  0
  3  2  1  0  0  0  0
  3  4  1  0  0  0  0
  4  6  1  6  0  0  0
  4  5  1  0  0  0  0
  7 15  2  0  0  0  0
  7 14  1  0  0  0  0
  8  6  1  0  0  0  0
  9 12  1  0  0  0  0
 10 17  1  0  0  0  0
 11 21  1  6  0  0  0
 11  8  1  0  0  0  0
 13 28  1  6  0  0  0
 13 10  1  0  0  0  0
 13 15  1  0  0  0  0
 14  9  2  0  0  0  0
 15 16  1  0  0  0  0
 16  8  1  0  0  0  0
 16 12  2  0  0  0  0
 17 11  1  0  0  0  0
 18 20  1  0  0  0  0
 19 21  1  0  0  0  0
 21 20  2  0  0  0  0
 22 18  2  0  0  0  0
 23 22  1  0  0  0  0
 23 19  2  0  0  0  0
 25 26  1  0  0  0  0
 26 22  1  0  0  0  0
 26 24  1  0  0  0  0
 27 26  1  0  0  0  0
 29 33  1  0  0  0  0
 29 28  1  1  0  0  0
 30 31  1  0  0  0  0
 30 34  1  0  0  0  0
 30 37  1  1  0  0  0
 31 39  1  6  0  0  0
 31 29  1  0  0  0  0
 33 32  1  0  0  0  0
 34 33  2  0  0  0  0
 35 37  2  0  0  0  0
 37 36  1  0  0  0  0
 38 39  3  0  0  0  0
 41 40  1  0  0  0  0
 42 41  1  0  0  0  0
 42 44  1  0  0  0  0
 43 42  2  0  0  0  0
 44 49  1  0  0  0  0
 44 46  1  0  0  0  0
 45 50  1  1  0  0  0
 46 49  1  1  0  0  0
 46 47  1  0  0  0  0
 46 45  1  0  0  0  0
 47 45  1  0  0  0  0
 48 49  2  0  0  0  0
 51 54  1  1  0  0  0
 51 55  1  0  0  0  0
 52 51  1  0  0  0  0
 53 50  1  6  0  0  0
 53 52  1  0  0  0  0
 53 51  1  0  0  0  0
 55 56  1  0  0  0  0
 56 57  1  0  0  0  0
 58 57  1  0  0  0  0
 59 43  1  0  0  0  0
 60 59  1  0  0  0  0
 61 60  1  0  0  0  0
 62 61  1  0  0  0  0
 63 64  1  1  0  0  0
 63 65  1  0  0  0  0
 63 66  1  0  0  0  0
 65 66  1  0  0  0  0
 65 69  1  1  0  0  0
 66 62  1  6  0  0  0
 69 67  1  0  0  0  0
 69 68  1  0  0  0  0
 70 69  1  0  0  0  0
M  END
>  <MODEL>
4

>  <REMARK>
 VINA RESULT:      -3.3      3.837      5.712
  Name = 
  23 active torsions:
  status: ('A' for Active; 'I' for Inactive)
    1  A    between atoms: O_1  and  C_37
    2  A    between atoms: O_1  and  C_40
    3  A    between atoms: C_2  and  C_8
    4  A    between atoms: C_3  and  C_50
    5  A    between atoms: N_4  and  C_7
    6  A    between atoms: C_6  and  C_19
    7  A    between atoms: C_6  and  C_36
    8  A    between atoms: C_7  and  C_19
    9  A    between atoms: C_8  and  C_14
   10  A    between atoms: O_9  and  C_14
   11  A    between atoms: C_10  and  N_20
   12  A    between atoms: C_10  and  C_41
   13  A    between atoms: C_16  and  N_48
   14  A    between atoms: C_24  and  C_68
   15  A    between atoms: C_27  and  C_63
   16  A    between atoms: C_28  and  C_59
   17  A    between atoms: C_31  and  C_60
   18  A    between atoms: C_32  and  C_58
   19  A    between atoms: C_33  and  O_39
   20  A    between atoms: O_39  and  C_49
   21  A    between atoms: C_40  and  C_49
   22  A    between atoms: C_47  and  N_48
   23  A    between atoms: C_50  and  C_51
                            x       y       z     vdW  Elec       q    Type
                         _______ _______ _______ _____ _____    ______ ____

>  <TORSDO>
F 23

$$$$
=
 OpenBabel11062418123D

 70 78  0  0  1  0  0  0  0  0999 V2000
  186.4780  177.6540  144.6040 C   0  0  0  0  0  2  0  0  0  0  0  0
  186.6740  178.3490  143.2780 C   0  0  2  0  0  3  0  0  0  0  0  0
  185.2800  178.6100  142.7900 C   0  0  0  0  0  2  0  0  0  0  0  0
  184.4940  178.7820  144.0690 C   0  0  2  0  0  3  0  0  0  0  0  0
  185.1520  177.9980  145.1090 N   0  0  0  0  0  2  0  0  0  0  0  0
  183.0610  178.3080  143.8960 C   0  0  0  0  0  2  0  0  0  0  0  0
  179.8670  180.7330  141.0080 C   0  0  0  0  0  3  0  0  0  0  0  0
  182.5830  178.5850  142.5440 N   0  0  0  0  0  0  0  0  0  0  0  0
  179.2040  180.0560  143.2250 C   0  0  0  0  0  3  0  0  0  0  0  0
  183.5120  180.1750  140.4050 C   0  0  0  0  0  2  0  0  0  0  0  0
  183.2620  177.8580  141.4680 C   0  0  2  0  0  3  0  0  0  0  0  0
  180.4080  179.3690  143.3680 C   0  0  0  0  0  3  0  0  0  0  0  0
  182.0640  180.0890  139.9610 C   0  0  1  0  0  3  0  0  0  0  0  0
  178.9310  180.7330  142.0400 C   0  0  0  0  0  3  0  0  0  0  0  0
  181.1010  180.0690  141.1370 C   0  0  0  0  0  0  0  0  0  0  0  0
  181.3650  179.3460  142.3380 C   0  0  0  0  0  0  0  0  0  0  0  0
  184.1020  178.7790  140.5710 C   0  0  0  0  0  2  0  0  0  0  0  0
  182.0370  175.0860  139.1650 C   0  0  0  0  0  3  0  0  0  0  0  0
  180.9400  176.9550  140.9310 C   0  0  0  0  0  3  0  0  0  0  0  0
  182.8720  175.9740  139.8510 C   0  0  0  0  0  3  0  0  0  0  0  0
  182.3320  176.9120  140.7430 C   0  0  0  0  0  0  0  0  0  0  0  0
  180.6460  175.1350  139.3500 C   0  0  0  0  0  0  0  0  0  0  0  0
  180.1060  176.0670  140.2460 C   0  0  0  0  0  3  0  0  0  0  0  0
  178.9600  173.5110  139.5930 F   0  0  0  0  0  0  0  0  0  0  0  0
  178.9310  174.8120  137.7520 F   0  0  0  0  0  0  0  0  0  0  0  0
  179.7480  174.1530  138.6550 C   0  0  0  0  0  0  0  0  0  0  0  0
  180.4910  173.2090  137.9690 F   0  0  0  0  0  0  0  0  0  0  0  0
  181.7870  181.2100  138.9660 C   0  0  0  0  0  2  0  0  0  0  0  0
  182.1500  180.7480  137.5620 C   0  0  2  0  0  3  0  0  0  0  0  0
  181.0700  178.8760  136.3650 C   0  0  1  0  0  3  0  0  0  0  0  0
  180.8850  180.3350  136.8060 C   0  0  2  0  0  3  0  0  0  0  0  0
  184.1970  179.4480  138.0410 C   0  0  0  0  0  1  0  0  0  0  0  0
  182.9420  179.5010  137.6140 C   0  0  0  0  0  0  0  0  0  0  0  0
  182.3490  178.4370  136.8960 N   0  0  0  0  0  0  0  0  0  0  0  0
  179.8620  176.8280  136.5190 O   0  0  0  0  0  0  0  0  0  0  0  0
  178.9680  178.5720  137.7650 N   0  0  0  0  0  1  0  0  0  0  0  0
  179.9530  178.0280  136.8890 C   0  0  0  0  0  0  0  0  0  0  0  0
  180.5630  181.8610  134.6980 N   0  0  0  0  0  0  0  0  0  0  0  0
  180.7070  181.1870  135.6280 C   0  0  0  0  0  0  0  0  0  0  0  0
  187.4330  177.4530  142.3130 C   0  0  0  0  0  2  0  0  0  0  0  0
  187.3860  178.0110  140.8960 C   0  0  0  0  0  2  0  0  0  0  0  0
  188.7520  178.0260  140.2830 C   0  0  0  0  0  0  0  0  0  0  0  0
  188.9770  178.3570  139.0040 C   0  0  0  0  0  3  0  0  0  0  0  0
  189.8720  177.7670  141.1230 N   0  0  0  0  0  0  0  0  0  0  0  0
  191.0490  176.0930  142.6870 C   0  0  2  0  0  3  0  0  0  0  0  0
  190.4390  177.4480  142.3770 C   0  0  2  0  0  0  0  0  0  0  0  0
  189.7030  176.2560  142.6810 O   0  0  0  0  0  0  0  0  0  0  0  0
  192.5680  177.7320  140.8670 N   0  0  0  0  0  2  0  0  0  0  0  0
  191.3610  177.6380  141.3250 C   0  0  0  0  0  0  0  0  0  0  0  0
  191.5230  176.0670  144.0600 N   0  0  0  0  0  2  0  0  0  0  0  0
  190.5800  176.8610  146.1650 C   0  0  1  0  0  0  0  0  0  0  0  0
  191.7000  177.6230  145.7980 O   0  0  0  0  0  0  0  0  0  0  0  0
  190.8730  177.1760  144.7430 C   0  0  1  0  0  3  0  0  0  0  0  0
  190.9690  175.5080  146.7510 C   0  0  0  0  0  1  0  0  0  0  0  0
  189.4960  177.6970  146.8320 C   0  0  0  0  0  2  0  0  0  0  0  0
  188.4410  176.8250  147.4970 C   0  0  0  0  0  2  0  0  0  0  0  0
  187.7630  177.5530  148.4750 O   0  0  0  0  0  0  0  0  0  0  0  0
  187.0420  178.5090  147.7620 C   0  0  0  0  0  1  0  0  0  0  0  0
  188.0080  178.6330  138.0230 O   0  0  0  0  0  0  0  0  0  0  0  0
  187.5080  177.7020  137.0650 C   0  0  0  0  0  2  0  0  0  0  0  0
  188.6430  177.1080  136.2410 C   0  0  0  0  0  2  0  0  0  0  0  0
  188.5350  175.7180  136.1870 O   0  0  0  0  0  0  0  0  0  0  0  0
  190.2250  176.0210  137.8250 C   0  0  1  0  0  3  0  0  0  0  0  0
  191.0610  175.2170  138.6040 O   0  0  0  0  0  1  0  0  0  0  0  0
  190.8220  176.3540  136.4520 C   0  0  2  0  0  3  0  0  0  0  0  0
  189.7880  175.2500  136.5940 C   0  0  2  0  0  3  0  0  0  0  0  0
  192.8470  176.3840  135.0830 F   0  0  0  0  0  0  0  0  0  0  0  0
  193.0330  176.0980  137.3160 O   0  0  0  0  0  1  0  0  0  0  0  0
  192.2460  175.8160  136.1990 C   0  0  0  0  0  0  0  0  0  0  0  0
  192.1910  174.4430  136.0320 F   0  0  0  0  0  0  0  0  0  0  0  0
  1  5  1  0  0  0  0
  2 40  1  6  0  0  0
  2  1  1  0  0  0  0
  3  2  1  0  0  0  0
  3  4  1  0  0  0  0
  4  6  1  6  0  0  0
  4  5  1  0  0  0  0
  7 15  2  0  0  0  0
  7 14  1  0  0  0  0
  8  6  1  0  0  0  0
  9 12  1  0  0  0  0
 10 17  1  0  0  0  0
 11 21  1  6  0  0  0
 11  8  1  0  0  0  0
 13 28  1  6  0  0  0
 13 10  1  0  0  0  0
 13 15  1  0  0  0  0
 14  9  2  0  0  0  0
 15 16  1  0  0  0  0
 16  8  1  0  0  0  0
 16 12  2  0  0  0  0
 17 11  1  0  0  0  0
 18 22  2  0  0  0  0
 18 20  1  0  0  0  0
 20 21  2  0  0  0  0
 21 19  1  0  0  0  0
 22 23  1  0  0  0  0
 23 19  2  0  0  0  0
 25 26  1  0  0  0  0
 26 22  1  0  0  0  0
 26 24  1  0  0  0  0
 27 26  1  0  0  0  0
 29 33  1  0  0  0  0
 29 28  1  1  0  0  0
 30 31  1  0  0  0  0
 30 37  1  1  0  0  0
 30 34  1  0  0  0  0
 31 39  1  6  0  0  0
 31 29  1  0  0  0  0
 33 32  1  0  0  0  0
 34 33  2  0  0  0  0
 35 37  2  0  0  0  0
 37 36  1  0  0  0  0
 38 39  3  0  0  0  0
 41 40  1  0  0  0  0
 42 41  1  0  0  0  0
 42 44  1  0  0  0  0
 43 42  2  0  0  0  0
 44 49  1  0  0  0  0
 44 46  1  0  0  0  0
 45 50  1  1  0  0  0
 46 49  1  1  0  0  0
 46 47  1  0  0  0  0
 46 45  1  0  0  0  0
 47 45  1  0  0  0  0
 48 49  2  0  0  0  0
 51 54  1  1  0  0  0
 51 55  1  0  0  0  0
 52 51  1  0  0  0  0
 53 50  1  6  0  0  0
 53 52  1  0  0  0  0
 53 51  1  0  0  0  0
 55 56  1  0  0  0  0
 56 57  1  0  0  0  0
 58 57  1  0  0  0  0
 59 43  1  0  0  0  0
 60 59  1  0  0  0  0
 61 60  1  0  0  0  0
 62 61  1  0  0  0  0
 63 64  1  1  0  0  0
 65 69  1  1  0  0  0
 65 66  1  0  0  0  0
 65 63  1  0  0  0  0
 66 62  1  6  0  0  0
 66 63  1  0  0  0  0
 67 69  1  0  0  0  0
 69 68  1  0  0  0  0
 70 69  1  0  0  0  0
M  END
>  <MODEL>
5

>  <REMARK>
 VINA RESULT:      -1.6      2.985      5.251
  Name = 
  23 active torsions:
  status: ('A' for Active; 'I' for Inactive)
    1  A    between atoms: O_1  and  C_37
    2  A    between atoms: O_1  and  C_40
    3  A    between atoms: C_2  and  C_8
    4  A    between atoms: C_3  and  C_50
    5  A    between atoms: N_4  and  C_7
    6  A    between atoms: C_6  and  C_19
    7  A    between atoms: C_6  and  C_36
    8  A    between atoms: C_7  and  C_19
    9  A    between atoms: C_8  and  C_14
   10  A    between atoms: O_9  and  C_14
   11  A    between atoms: C_10  and  N_20
   12  A    between atoms: C_10  and  C_41
   13  A    between atoms: C_16  and  N_48
   14  A    between atoms: C_24  and  C_68
   15  A    between atoms: C_27  and  C_63
   16  A    between atoms: C_28  and  C_59
   17  A    between atoms: C_31  and  C_60
   18  A    between atoms: C_32  and  C_58
   19  A    between atoms: C_33  and  O_39
   20  A    between atoms: O_39  and  C_49
   21  A    between atoms: C_40  and  C_49
   22  A    between atoms: C_47  and  N_48
   23  A    between atoms: C_50  and  C_51
                            x       y       z     vdW  Elec       q    Type
                         _______ _______ _______ _____ _____    ______ ____

>  <TORSDO>
F 23

$$$$
