=
 OpenBabel11062414193D

 45 49  0  0  1  0  0  0  0  0999 V2000
  181.3870  176.5960  140.1580 C   0  0  0  0  0  3  0  0  0  0  0  0
  182.5580  178.3720  139.4920 C   0  0  0  0  0  0  0  0  0  0  0  0
  182.7950  177.2930  138.6560 C   0  0  0  0  0  0  0  0  0  0  0  0
  182.0850  176.2170  139.0650 N   0  0  0  0  0  0  0  0  0  0  0  0
  181.6600  177.9200  140.4380 C   0  0  1  0  0  3  0  0  0  0  0  0
  185.0620  176.9270  137.6250 N   0  0  0  0  0  2  0  0  0  0  0  0
  183.1830  177.4630  136.3010 N   0  0  0  0  0  2  0  0  0  0  0  0
  183.6820  177.2640  137.4780 C   0  0  0  0  0  0  0  0  0  0  0  0
  186.7050  175.8010  136.2580 C   0  0  0  0  0  0  0  0  0  0  0  0
  185.9700  176.8860  136.5230 C   0  0  0  0  0  3  0  0  0  0  0  0
  186.5990  174.5790  137.1100 C   0  0  0  0  0  2  0  0  0  0  0  0
  186.4640  173.4060  136.2690 N   0  0  0  0  0  1  0  0  0  0  0  0
  187.5940  175.7830  135.1810 O   0  0  0  0  0  0  0  0  0  0  0  0
  188.9260  175.4700  135.3490 N   0  0  0  0  0  2  0  0  0  0  0  0
  189.5810  176.6600  135.7040 N   0  0  0  0  0  2  0  0  0  0  0  0
  188.8930  178.9690  137.1350 C   0  0  0  0  0  2  0  0  0  0  0  0
  189.3630  177.9270  137.8270 C   0  0  0  0  0  0  0  0  0  0  0  0
  189.7600  176.6290  137.1510 C   0  0  2  0  0  3  0  0  0  0  0  0
  188.3560  178.1690  140.0900 C   0  0  0  0  0  1  0  0  0  0  0  0
  191.6680  176.6550  138.8940 C   0  0  0  0  0  2  0  0  0  0  0  0
  190.4930  176.9320  139.8340 C   0  0  0  0  0  2  0  0  0  0  0  0
  189.6500  178.0910  139.3000 C   0  0  1  0  0  3  0  0  0  0  0  0
  191.2070  176.2300  137.4900 C   0  0  0  0  0  2  0  0  0  0  0  0
  183.0900  179.7650  139.3690 C   0  0  0  0  0  2  0  0  0  0  0  0
  182.1650  180.6030  138.5040 C   0  0  0  0  0  1  0  0  0  0  0  0
  181.0630  178.7060  141.5580 C   0  0  0  0  0  2  0  0  0  0  0  0
  181.6980  178.3020  142.8780 C   0  0  0  0  0  2  0  0  0  0  0  0
  182.3200  179.5060  143.5710 C   0  0  0  0  0  2  0  0  0  0  0  0
  183.5480  178.9830  145.6260 N   0  0  0  0  0  0  0  0  0  0  0  0
  184.8670  178.8900  143.8080 C   0  0  0  0  0  0  0  0  0  0  0  0
  184.8400  178.6630  146.0700 N   0  0  0  0  0  2  0  0  0  0  0  0
  185.7750  178.5970  144.9490 C   0  0  1  0  0  3  0  0  0  0  0  0
  185.1960  178.9660  142.5940 O   0  0  0  0  0  0  0  0  0  0  0  0
  183.5370  179.1090  144.3440 C   0  0  0  0  0  0  0  0  0  0  0  0
  186.3390  177.1840  144.8330 C   0  0  1  0  0  3  0  0  0  0  0  0
  187.6100  177.1990  143.9970 C   0  0  0  0  0  2  0  0  0  0  0  0
  187.7090  176.9510  145.4940 C   0  0  1  0  0  3  0  0  0  0  0  0
  188.3570  178.1250  146.2670 C   0  0  1  0  0  3  0  0  0  0  0  0
  188.0060  177.4350  148.3480 C   0  0  0  0  0  1  0  0  0  0  0  0
  187.6910  178.4630  147.4540 O   0  0  0  0  0  0  0  0  0  0  0  0
  189.7580  177.8370  146.5410 N   0  0  0  0  0  2  0  0  0  0  0  0
  191.6310  176.7000  145.6580 C   0  0  0  0  0  2  0  0  0  0  0  0
  190.2690  177.0690  145.4200 C   0  0  2  0  0  3  0  0  0  0  0  0
  191.3610  177.8820  144.7280 C   0  0  0  0  0  0  0  0  0  0  0  0
  191.7330  178.7930  144.0090 O   0  0  0  0  0  0  0  0  0  0  0  0
  1  5  1  0  0  0  0
  2  5  1  0  0  0  0
  3  4  1  0  0  0  0
  3  2  2  0  0  0  0
  4  1  2  0  0  0  0
  5 26  1  6  0  0  0
  7  8  2  0  0  0  0
  8  6  1  0  0  0  0
  8  3  1  0  0  0  0
  9 10  2  0  0  0  0
  9 11  1  0  0  0  0
 10  6  1  0  0  0  0
 12 11  1  0  0  0  0
 13 14  1  0  0  0  0
 13  9  1  0  0  0  0
 14 15  1  0  0  0  0
 16 17  2  0  0  0  0
 17 22  1  0  0  0  0
 18 15  1  6  0  0  0
 18 23  1  0  0  0  0
 18 17  1  0  0  0  0
 20 21  1  0  0  0  0
 22 21  1  0  0  0  0
 22 19  1  1  0  0  0
 23 20  1  0  0  0  0
 24  2  1  0  0  0  0
 25 24  1  0  0  0  0
 26 27  1  0  0  0  0
 27 28  1  0  0  0  0
 28 34  1  0  0  0  0
 29 31  1  0  0  0  0
 30 34  1  0  0  0  0
 32 30  1  6  0  0  0
 32 31  1  0  0  0  0
 33 30  2  0  0  0  0
 34 29  2  0  0  0  0
 35 36  1  6  0  0  0
 35 32  1  0  0  0  0
 35 37  1  0  0  0  0
 36 37  1  0  0  0  0
 37 38  1  1  0  0  0
 38 41  1  1  0  0  0
 38 40  1  0  0  0  0
 40 39  1  0  0  0  0
 43 42  1  0  0  0  0
 43 41  1  1  0  0  0
 44 43  1  0  0  0  0
 44 42  1  0  0  0  0
 45 44  2  0  0  0  0
M  END
>  <MODEL>
1

>  <REMARK>
 VINA RESULT:      -7.2      0.000      0.000
  Name = 
  17 active torsions:
  status: ('A' for Active; 'I' for Inactive)
    1  A    between atoms: C_2  and  C_34
    2  A    between atoms: C_7  and  C_12
    3  A    between atoms: C_7  and  O_29
    4  A    between atoms: N_8  and  O_29
    5  A    between atoms: N_8  and  N_33
    6  A    between atoms: C_10  and  N_39
    7  A    between atoms: N_11  and  C_19
    8  A    between atoms: C_13  and  O_18
    9  A    between atoms: C_13  and  N_39
   10  A    between atoms: C_13  and  C_45
   11  A    between atoms: C_14  and  C_16
   12  A    between atoms: C_17  and  N_33
   13  A    between atoms: C_22  and  C_25
   14  A    between atoms: C_27  and  C_36
   15  A    between atoms: C_27  and  C_37
   16  A    between atoms: C_36  and  C_44
   17  A    between atoms: C_37  and  C_38
                            x       y       z     vdW  Elec       q    Type
                         _______ _______ _______ _____ _____    ______ ____

>  <TORSDO>
F 17

$$$$
=
 OpenBabel11062414193D

 45 49  0  0  1  0  0  0  0  0999 V2000
  184.9060  179.1830  143.0040 C   0  0  0  0  0  3  0  0  0  0  0  0
  182.7570  178.6070  143.1240 C   0  0  0  0  0  0  0  0  0  0  0  0
  183.1730  178.6570  141.8040 C   0  0  0  0  0  0  0  0  0  0  0  0
  184.4770  179.0100  141.7350 N   0  0  0  0  0  0  0  0  0  0  0  0
  183.8660  178.9360  143.8780 C   0  0  1  0  0  3  0  0  0  0  0  0
  182.2190  177.0440  140.1230 N   0  0  0  0  0  2  0  0  0  0  0  0
  181.6960  179.3450  140.0500 N   0  0  0  0  0  2  0  0  0  0  0  0
  182.3560  178.3800  140.6070 C   0  0  0  0  0  0  0  0  0  0  0  0
  180.3420  175.9640  139.0530 C   0  0  0  0  0  0  0  0  0  0  0  0
  181.4450  176.7150  138.9690 C   0  0  0  0  0  3  0  0  0  0  0  0
  179.8710  175.4410  140.3700 C   0  0  0  0  0  2  0  0  0  0  0  0
  179.1400  176.4760  141.0750 N   0  0  0  0  0  1  0  0  0  0  0  0
  179.6030  175.6450  137.9110 O   0  0  0  0  0  0  0  0  0  0  0  0
  179.5030  174.3480  137.4540 N   0  0  0  0  0  2  0  0  0  0  0  0
  180.3830  174.2330  136.3670 N   0  0  0  0  0  2  0  0  0  0  0  0
  183.0780  174.8370  135.8910 C   0  0  0  0  0  2  0  0  0  0  0  0
  182.7950  173.6460  136.4250 C   0  0  0  0  0  0  0  0  0  0  0  0
  181.3700  173.2220  136.7270 C   0  0  2  0  0  3  0  0  0  0  0  0
  184.8260  173.0410  137.7280 C   0  0  0  0  0  1  0  0  0  0  0  0
  182.2050  170.9150  135.9120 C   0  0  0  0  0  2  0  0  0  0  0  0
  183.3400  171.2400  136.8840 C   0  0  0  0  0  2  0  0  0  0  0  0
  183.9000  172.6340  136.5960 C   0  0  1  0  0  3  0  0  0  0  0  0
  181.0190  171.8840  136.0500 C   0  0  0  0  0  2  0  0  0  0  0  0
  181.4160  178.2030  143.6520 C   0  0  0  0  0  2  0  0  0  0  0  0
  180.4280  179.3470  143.4990 C   0  0  0  0  0  1  0  0  0  0  0  0
  183.9550  179.0010  145.3660 C   0  0  0  0  0  2  0  0  0  0  0  0
  185.3960  179.2210  145.7950 C   0  0  0  0  0  2  0  0  0  0  0  0
  186.0780  177.8950  146.1020 C   0  0  0  0  0  2  0  0  0  0  0  0
  188.4870  178.3240  146.2490 N   0  0  0  0  0  0  0  0  0  0  0  0
  187.9020  177.4610  144.2570 C   0  0  0  0  0  0  0  0  0  0  0  0
  189.6560  178.2360  145.4790 N   0  0  0  0  0  2  0  0  0  0  0  0
  189.3670  177.6970  144.1510 C   0  0  1  0  0  3  0  0  0  0  0  0
  187.1540  177.0040  143.3520 O   0  0  0  0  0  0  0  0  0  0  0  0
  187.4790  177.8810  145.5790 C   0  0  0  0  0  0  0  0  0  0  0  0
  190.1080  176.3770  143.9610 C   0  0  1  0  0  3  0  0  0  0  0  0
  189.4560  175.5710  142.8470 C   0  0  0  0  0  2  0  0  0  0  0  0
  190.8220  176.1960  142.6090 C   0  0  1  0  0  3  0  0  0  0  0  0
  190.7890  177.3710  141.6020 C   0  0  1  0  0  3  0  0  0  0  0  0
  192.4580  177.1600  140.1530 C   0  0  0  0  0  1  0  0  0  0  0  0
  192.0550  177.8820  141.2810 O   0  0  0  0  0  0  0  0  0  0  0  0
  190.0830  176.9790  140.3910 N   0  0  0  0  0  2  0  0  0  0  0  0
  188.0980  178.2610  140.4040 C   0  0  0  0  0  2  0  0  0  0  0  0
  189.4240  178.1630  139.8710 C   0  0  2  0  0  3  0  0  0  0  0  0
  188.2610  177.7250  138.9820 C   0  0  0  0  0  0  0  0  0  0  0  0
  187.8120  177.2700  137.9450 O   0  0  0  0  0  0  0  0  0  0  0  0
  1  5  1  0  0  0  0
  2 24  1  0  0  0  0
  2  5  1  0  0  0  0
  3  2  2  0  0  0  0
  4  3  1  0  0  0  0
  4  1  2  0  0  0  0
  5 26  1  1  0  0  0
  6  8  1  0  0  0  0
  7  8  2  0  0  0  0
  8  3  1  0  0  0  0
  9 11  1  0  0  0  0
 10  9  2  0  0  0  0
 10  6  1  0  0  0  0
 11 12  1  0  0  0  0
 13  9  1  0  0  0  0
 14 13  1  0  0  0  0
 15 14  1  0  0  0  0
 16 17  2  0  0  0  0
 17 22  1  0  0  0  0
 17 18  1  0  0  0  0
 18 15  1  6  0  0  0
 20 23  1  0  0  0  0
 20 21  1  0  0  0  0
 22 21  1  0  0  0  0
 22 19  1  1  0  0  0
 23 18  1  0  0  0  0
 25 24  1  0  0  0  0
 26 27  1  0  0  0  0
 27 28  1  0  0  0  0
 30 34  1  0  0  0  0
 31 29  1  0  0  0  0
 32 30  1  1  0  0  0
 32 31  1  0  0  0  0
 33 30  2  0  0  0  0
 34 28  1  0  0  0  0
 34 29  2  0  0  0  0
 35 36  1  6  0  0  0
 35 32  1  0  0  0  0
 37 38  1  6  0  0  0
 37 36  1  0  0  0  0
 37 35  1  0  0  0  0
 38 41  1  6  0  0  0
 39 40  1  0  0  0  0
 40 38  1  0  0  0  0
 43 41  1  1  0  0  0
 43 42  1  0  0  0  0
 44 43  1  0  0  0  0
 44 42  1  0  0  0  0
 45 44  2  0  0  0  0
M  END
>  <MODEL>
2

>  <REMARK>
 VINA RESULT:      -6.9      2.959      6.536
  Name = 
  17 active torsions:
  status: ('A' for Active; 'I' for Inactive)
    1  A    between atoms: C_2  and  C_34
    2  A    between atoms: C_7  and  C_12
    3  A    between atoms: C_7  and  O_29
    4  A    between atoms: N_8  and  O_29
    5  A    between atoms: N_8  and  N_33
    6  A    between atoms: C_10  and  N_39
    7  A    between atoms: N_11  and  C_19
    8  A    between atoms: C_13  and  O_18
    9  A    between atoms: C_13  and  N_39
   10  A    between atoms: C_13  and  C_45
   11  A    between atoms: C_14  and  C_16
   12  A    between atoms: C_17  and  N_33
   13  A    between atoms: C_22  and  C_25
   14  A    between atoms: C_27  and  C_36
   15  A    between atoms: C_27  and  C_37
   16  A    between atoms: C_36  and  C_44
   17  A    between atoms: C_37  and  C_38
                            x       y       z     vdW  Elec       q    Type
                         _______ _______ _______ _____ _____    ______ ____

>  <TORSDO>
F 17

$$$$
=
 OpenBabel11062414193D

 45 49  0  0  1  0  0  0  0  0999 V2000
  187.2760  177.0470  144.1650 C   0  0  0  0  0  3  0  0  0  0  0  0
  186.1920  177.9630  145.8830 C   0  0  0  0  0  0  0  0  0  0  0  0
  185.4280  178.0420  144.7290 C   0  0  0  0  0  0  0  0  0  0  0  0
  186.0910  177.4870  143.6880 N   0  0  0  0  0  0  0  0  0  0  0  0
  187.3590  177.3250  145.5150 C   0  0  1  0  0  3  0  0  0  0  0  0
  183.4560  178.7130  143.3160 N   0  0  0  0  0  2  0  0  0  0  0  0
  183.4440  179.0050  145.6580 N   0  0  0  0  0  2  0  0  0  0  0  0
  184.0840  178.6350  144.5960 C   0  0  0  0  0  0  0  0  0  0  0  0
  181.4630  179.0780  142.0010 C   0  0  0  0  0  0  0  0  0  0  0  0
  182.1580  179.2790  143.1250 C   0  0  0  0  0  3  0  0  0  0  0  0
  182.0200  178.2420  140.8960 C   0  0  0  0  0  2  0  0  0  0  0  0
  181.0880  177.1810  140.5670 N   0  0  0  0  0  1  0  0  0  0  0  0
  180.1990  179.6480  141.8290 O   0  0  0  0  0  0  0  0  0  0  0  0
  179.7030  179.9420  140.5760 N   0  0  0  0  0  2  0  0  0  0  0  0
  180.0920  181.2600  140.2860 N   0  0  0  0  0  2  0  0  0  0  0  0
  182.1030  181.2070  138.3360 C   0  0  0  0  0  2  0  0  0  0  0  0
  180.8580  181.4760  137.9340 C   0  0  0  0  0  0  0  0  0  0  0  0
  179.6960  181.5230  138.9070 C   0  0  2  0  0  3  0  0  0  0  0  0
  180.7780  180.7040  135.5700 C   0  0  0  0  0  1  0  0  0  0  0  0
  178.9310  183.5010  137.4290 C   0  0  0  0  0  2  0  0  0  0  0  0
  179.2210  182.4850  136.3230 C   0  0  0  0  0  2  0  0  0  0  0  0
  180.6180  181.8910  136.5040 C   0  0  1  0  0  3  0  0  0  0  0  0
  178.9410  182.8630  138.8280 C   0  0  0  0  0  2  0  0  0  0  0  0
  185.8170  178.3980  147.2650 C   0  0  0  0  0  2  0  0  0  0  0  0
  186.5640  179.6680  147.6340 C   0  0  0  0  0  1  0  0  0  0  0  0
  188.5080  176.9720  146.3990 C   0  0  0  0  0  2  0  0  0  0  0  0
  189.6240  177.9920  146.2400 C   0  0  0  0  0  2  0  0  0  0  0  0
  190.8540  177.3540  145.6110 C   0  0  0  0  0  2  0  0  0  0  0  0
  190.7050  175.8460  143.6850 N   0  0  0  0  0  0  0  0  0  0  0  0
  190.3340  177.9880  143.1120 C   0  0  0  0  0  0  0  0  0  0  0  0
  190.4880  175.8700  142.2990 N   0  0  0  0  0  2  0  0  0  0  0  0
  190.2520  177.2350  141.8320 C   0  0  1  0  0  3  0  0  0  0  0  0
  190.2120  179.2340  143.2510 O   0  0  0  0  0  0  0  0  0  0  0  0
  190.6140  177.0360  144.1700 C   0  0  0  0  0  0  0  0  0  0  0  0
  188.8500  177.3400  141.2390 C   0  0  1  0  0  3  0  0  0  0  0  0
  188.7210  178.6270  140.4380 C   0  0  0  0  0  2  0  0  0  0  0  0
  188.7650  177.2970  139.7020 C   0  0  1  0  0  3  0  0  0  0  0  0
  190.0740  177.0840  138.9040 C   0  0  1  0  0  3  0  0  0  0  0  0
  191.7300  175.7750  138.2140 C   0  0  0  0  0  1  0  0  0  0  0  0
  190.4460  175.7380  138.7660 O   0  0  0  0  0  0  0  0  0  0  0  0
  189.9750  177.7150  137.5950 N   0  0  0  0  0  2  0  0  0  0  0  0
  188.8240  177.4250  135.5530 C   0  0  0  0  0  2  0  0  0  0  0  0
  188.7620  177.2220  136.9680 C   0  0  2  0  0  3  0  0  0  0  0  0
  187.9990  178.4080  136.3820 C   0  0  0  0  0  0  0  0  0  0  0  0
  187.2950  179.3970  136.4940 O   0  0  0  0  0  0  0  0  0  0  0  0
  1  5  1  0  0  0  0
  2 24  1  0  0  0  0
  3  2  2  0  0  0  0
  4  1  2  0  0  0  0
  4  3  1  0  0  0  0
  5  2  1  0  0  0  0
  5 26  1  1  0  0  0
  6  8  1  0  0  0  0
  8  3  1  0  0  0  0
  8  7  2  0  0  0  0
  9 10  2  0  0  0  0
 10  6  1  0  0  0  0
 11  9  1  0  0  0  0
 12 11  1  0  0  0  0
 13  9  1  0  0  0  0
 14 13  1  0  0  0  0
 15 14  1  0  0  0  0
 17 16  2  0  0  0  0
 17 18  1  0  0  0  0
 18 15  1  1  0  0  0
 20 23  1  0  0  0  0
 21 22  1  0  0  0  0
 21 20  1  0  0  0  0
 22 19  1  6  0  0  0
 22 17  1  0  0  0  0
 23 18  1  0  0  0  0
 24 25  1  0  0  0  0
 27 26  1  0  0  0  0
 28 27  1  0  0  0  0
 29 34  2  0  0  0  0
 30 33  2  0  0  0  0
 30 34  1  0  0  0  0
 31 29  1  0  0  0  0
 32 31  1  1  0  0  0
 32 30  1  0  0  0  0
 34 28  1  0  0  0  0
 35 36  1  6  0  0  0
 35 32  1  0  0  0  0
 37 38  1  6  0  0  0
 37 36  1  0  0  0  0
 37 35  1  0  0  0  0
 38 41  1  6  0  0  0
 39 40  1  0  0  0  0
 40 38  1  0  0  0  0
 42 44  1  0  0  0  0
 42 43  1  0  0  0  0
 43 41  1  1  0  0  0
 44 45  2  0  0  0  0
 44 43  1  0  0  0  0
M  END
>  <MODEL>
3

>  <REMARK>
 VINA RESULT:      -6.9      2.584      8.842
  Name = 
  17 active torsions:
  status: ('A' for Active; 'I' for Inactive)
    1  A    between atoms: C_2  and  C_34
    2  A    between atoms: C_7  and  C_12
    3  A    between atoms: C_7  and  O_29
    4  A    between atoms: N_8  and  O_29
    5  A    between atoms: N_8  and  N_33
    6  A    between atoms: C_10  and  N_39
    7  A    between atoms: N_11  and  C_19
    8  A    between atoms: C_13  and  O_18
    9  A    between atoms: C_13  and  N_39
   10  A    between atoms: C_13  and  C_45
   11  A    between atoms: C_14  and  C_16
   12  A    between atoms: C_17  and  N_33
   13  A    between atoms: C_22  and  C_25
   14  A    between atoms: C_27  and  C_36
   15  A    between atoms: C_27  and  C_37
   16  A    between atoms: C_36  and  C_44
   17  A    between atoms: C_37  and  C_38
                            x       y       z     vdW  Elec       q    Type
                         _______ _______ _______ _____ _____    ______ ____

>  <TORSDO>
F 17

$$$$
=
 OpenBabel11062414193D

 45 49  0  0  1  0  0  0  0  0999 V2000
  187.2580  176.8600  143.7100 C   0  0  0  0  0  3  0  0  0  0  0  0
  186.3720  178.2710  145.1900 C   0  0  0  0  0  0  0  0  0  0  0  0
  185.7060  178.3580  143.9780 C   0  0  0  0  0  0  0  0  0  0  0  0
  186.2480  177.5030  143.0820 N   0  0  0  0  0  0  0  0  0  0  0  0
  187.3500  177.3140  145.0110 C   0  0  1  0  0  3  0  0  0  0  0  0
  183.4030  178.7060  143.0230 N   0  0  0  0  0  2  0  0  0  0  0  0
  184.5980  180.4790  144.0250 N   0  0  0  0  0  2  0  0  0  0  0  0
  184.5680  179.2390  143.6550 C   0  0  0  0  0  0  0  0  0  0  0  0
  181.0670  179.2890  143.2180 C   0  0  0  0  0  0  0  0  0  0  0  0
  182.2720  179.5100  142.6830 C   0  0  0  0  0  3  0  0  0  0  0  0
  180.8580  178.1870  144.2040 C   0  0  0  0  0  2  0  0  0  0  0  0
  179.4440  177.8880  144.3110 N   0  0  0  0  0  1  0  0  0  0  0  0
  179.9710  180.0800  142.8650 O   0  0  0  0  0  0  0  0  0  0  0  0
  179.8130  180.5670  141.5850 N   0  0  0  0  0  2  0  0  0  0  0  0
  179.1170  179.5860  140.8610 N   0  0  0  0  0  2  0  0  0  0  0  0
  180.4360  177.1540  140.4120 C   0  0  0  0  0  2  0  0  0  0  0  0
  180.4940  178.0780  139.4490 C   0  0  0  0  0  0  0  0  0  0  0  0
  179.8120  179.4250  139.5890 C   0  0  2  0  0  3  0  0  0  0  0  0
  180.7890  176.7810  137.3470 C   0  0  0  0  0  1  0  0  0  0  0  0
  181.9320  180.2870  138.3880 C   0  0  0  0  0  2  0  0  0  0  0  0
  181.5920  179.1270  137.4510 C   0  0  0  0  0  2  0  0  0  0  0  0
  181.3850  177.8420  138.2540 C   0  0  1  0  0  3  0  0  0  0  0  0
  180.7990  180.5890  139.3830 C   0  0  0  0  0  2  0  0  0  0  0  0
  186.0620  178.9930  146.4640 C   0  0  0  0  0  2  0  0  0  0  0  0
  184.9070  178.3160  147.1810 C   0  0  0  0  0  1  0  0  0  0  0  0
  188.3290  176.8270  146.0260 C   0  0  0  0  0  2  0  0  0  0  0  0
  189.5070  177.7840  146.1190 C   0  0  0  0  0  2  0  0  0  0  0  0
  190.7670  177.1470  145.5500 C   0  0  0  0  0  2  0  0  0  0  0  0
  190.7410  175.7030  143.5700 N   0  0  0  0  0  0  0  0  0  0  0  0
  190.3960  177.8610  143.0460 C   0  0  0  0  0  0  0  0  0  0  0  0
  190.6080  175.7720  142.1750 N   0  0  0  0  0  2  0  0  0  0  0  0
  190.3960  177.1510  141.7390 C   0  0  1  0  0  3  0  0  0  0  0  0
  190.2600  179.1020  143.2190 O   0  0  0  0  0  0  0  0  0  0  0  0
  190.6160  176.8760  144.0870 C   0  0  0  0  0  0  0  0  0  0  0  0
  189.0320  177.2720  141.0660 C   0  0  1  0  0  3  0  0  0  0  0  0
  188.9870  178.5280  140.2080 C   0  0  0  0  0  2  0  0  0  0  0  0
  189.0280  177.1670  139.5300 C   0  0  1  0  0  3  0  0  0  0  0  0
  190.3710  176.8820  138.8140 C   0  0  1  0  0  3  0  0  0  0  0  0
  191.8670  175.4690  137.9780 C   0  0  0  0  0  1  0  0  0  0  0  0
  190.7240  175.5250  138.7830 O   0  0  0  0  0  0  0  0  0  0  0  0
  190.3490  177.4270  137.4640 N   0  0  0  0  0  2  0  0  0  0  0  0
  189.0210  177.4900  135.5110 C   0  0  0  0  0  2  0  0  0  0  0  0
  189.0530  177.1090  136.8910 C   0  0  2  0  0  3  0  0  0  0  0  0
  188.3470  178.4140  136.5260 C   0  0  0  0  0  0  0  0  0  0  0  0
  187.7390  179.4280  136.8210 O   0  0  0  0  0  0  0  0  0  0  0  0
  1  5  1  0  0  0  0
  2 24  1  0  0  0  0
  3  2  2  0  0  0  0
  4  1  2  0  0  0  0
  4  3  1  0  0  0  0
  5  2  1  0  0  0  0
  5 26  1  1  0  0  0
  6  8  1  0  0  0  0
  8  3  1  0  0  0  0
  8  7  2  0  0  0  0
  9 11  1  0  0  0  0
 10  6  1  0  0  0  0
 10  9  2  0  0  0  0
 11 12  1  0  0  0  0
 13  9  1  0  0  0  0
 14 13  1  0  0  0  0
 15 14  1  0  0  0  0
 17 18  1  0  0  0  0
 17 16  2  0  0  0  0
 18 15  1  1  0  0  0
 20 23  1  0  0  0  0
 21 22  1  0  0  0  0
 21 20  1  0  0  0  0
 22 19  1  6  0  0  0
 22 17  1  0  0  0  0
 23 18  1  0  0  0  0
 24 25  1  0  0  0  0
 26 27  1  0  0  0  0
 28 27  1  0  0  0  0
 29 34  2  0  0  0  0
 30 33  2  0  0  0  0
 30 34  1  0  0  0  0
 31 29  1  0  0  0  0
 32 31  1  1  0  0  0
 32 30  1  0  0  0  0
 34 28  1  0  0  0  0
 35 36  1  6  0  0  0
 35 32  1  0  0  0  0
 37 38  1  6  0  0  0
 37 36  1  0  0  0  0
 37 35  1  0  0  0  0
 38 41  1  6  0  0  0
 39 40  1  0  0  0  0
 40 38  1  0  0  0  0
 42 44  1  0  0  0  0
 42 43  1  0  0  0  0
 43 41  1  1  0  0  0
 44 45  2  0  0  0  0
 44 43  1  0  0  0  0
M  END
>  <MODEL>
4

>  <REMARK>
 VINA RESULT:      -6.9      2.639      8.616
  Name = 
  17 active torsions:
  status: ('A' for Active; 'I' for Inactive)
    1  A    between atoms: C_2  and  C_34
    2  A    between atoms: C_7  and  C_12
    3  A    between atoms: C_7  and  O_29
    4  A    between atoms: N_8  and  O_29
    5  A    between atoms: N_8  and  N_33
    6  A    between atoms: C_10  and  N_39
    7  A    between atoms: N_11  and  C_19
    8  A    between atoms: C_13  and  O_18
    9  A    between atoms: C_13  and  N_39
   10  A    between atoms: C_13  and  C_45
   11  A    between atoms: C_14  and  C_16
   12  A    between atoms: C_17  and  N_33
   13  A    between atoms: C_22  and  C_25
   14  A    between atoms: C_27  and  C_36
   15  A    between atoms: C_27  and  C_37
   16  A    between atoms: C_36  and  C_44
   17  A    between atoms: C_37  and  C_38
                            x       y       z     vdW  Elec       q    Type
                         _______ _______ _______ _____ _____    ______ ____

>  <TORSDO>
F 17

$$$$
=
 OpenBabel11062414193D

 45 49  0  0  1  0  0  0  0  0999 V2000
  185.5620  178.6880  145.6240 C   0  0  0  0  0  3  0  0  0  0  0  0
  185.2980  178.3200  143.4420 C   0  0  0  0  0  0  0  0  0  0  0  0
  186.5270  177.8430  143.8690 C   0  0  0  0  0  0  0  0  0  0  0  0
  186.6840  178.0710  145.1930 N   0  0  0  0  0  2  0  0  0  0  0  0
  184.6920  178.8490  144.5640 C   0  0  0  0  0  0  0  0  0  0  0  0
  188.2810  177.9190  142.0640 N   0  0  0  0  0  2  0  0  0  0  0  0
  187.8500  175.9390  143.2760 N   0  0  0  0  0  2  0  0  0  0  0  0
  187.5530  177.1780  143.0450 C   0  0  0  0  0  0  0  0  0  0  0  0
  190.5790  177.3720  141.5610 C   0  0  0  0  0  0  0  0  0  0  0  0
  189.2830  177.3290  141.2360 C   0  0  0  0  0  3  0  0  0  0  0  0
  191.0290  178.0400  142.8190 C   0  0  0  0  0  2  0  0  0  0  0  0
  191.4970  177.0430  143.7620 N   0  0  0  0  0  1  0  0  0  0  0  0
  191.5450  176.7970  140.7330 O   0  0  0  0  0  0  0  0  0  0  0  0
  191.4730  176.9000  139.3600 N   0  0  0  0  0  2  0  0  0  0  0  0
  191.0450  175.6510  138.8820 N   0  0  0  0  0  2  0  0  0  0  0  0
  190.5460  173.7770  136.8590 C   0  0  0  0  0  2  0  0  0  0  0  0
  189.7300  174.8320  136.9420 C   0  0  0  0  0  0  0  0  0  0  0  0
  189.9090  175.9010  138.0030 C   0  0  2  0  0  3  0  0  0  0  0  0
  187.5720  174.0360  135.9930 C   0  0  0  0  0  1  0  0  0  0  0  0
  189.2240  177.4920  136.0840 C   0  0  0  0  0  2  0  0  0  0  0  0
  188.1060  176.4600  135.9360 C   0  0  0  0  0  2  0  0  0  0  0  0
  188.6950  175.0500  135.8660 C   0  0  1  0  0  3  0  0  0  0  0  0
  190.0280  177.3050  137.3820 C   0  0  0  0  0  2  0  0  0  0  0  0
  184.6980  178.2220  142.0740 C   0  0  0  0  0  2  0  0  0  0  0  0
  185.2640  179.3090  141.1760 C   0  0  0  0  0  1  0  0  0  0  0  0
  183.3380  179.4690  144.6460 C   0  0  0  0  0  2  0  0  0  0  0  0
  182.2860  178.5020  144.1250 C   0  0  0  0  0  2  0  0  0  0  0  0
  181.2120  179.2420  143.3410 C   0  0  0  0  0  2  0  0  0  0  0  0
  179.5990  177.5390  142.6290 N   0  0  0  0  0  0  0  0  0  0  0  0
  180.9600  178.1670  140.9530 C   0  0  0  0  0  0  0  0  0  0  0  0
  179.2450  176.7800  141.5040 N   0  0  0  0  0  2  0  0  0  0  0  0
  180.0940  177.1120  140.3620 C   0  0  1  0  0  3  0  0  0  0  0  0
  181.8900  178.7820  140.3670 O   0  0  0  0  0  0  0  0  0  0  0  0
  180.5660  178.3400  142.3380 C   0  0  0  0  0  0  0  0  0  0  0  0
  179.2400  177.6910  139.2370 C   0  0  1  0  0  3  0  0  0  0  0  0
  180.1300  178.1400  138.0880 C   0  0  0  0  0  2  0  0  0  0  0  0
  179.2550  176.9090  137.9110 C   0  0  1  0  0  3  0  0  0  0  0  0
  180.0620  175.5900  137.8500 C   0  0  1  0  0  3  0  0  0  0  0  0
  179.1110  173.8140  138.7840 C   0  0  0  0  0  1  0  0  0  0  0  0
  179.2860  174.4590  137.5560 O   0  0  0  0  0  0  0  0  0  0  0  0
  181.1560  175.7110  136.8960 N   0  0  0  0  0  2  0  0  0  0  0  0
  182.7810  175.5510  138.6040 C   0  0  0  0  0  2  0  0  0  0  0  0
  182.2700  174.9380  137.4150 C   0  0  2  0  0  3  0  0  0  0  0  0
  183.5420  175.7770  137.2980 C   0  0  0  0  0  0  0  0  0  0  0  0
  184.4500  176.2700  136.6530 O   0  0  0  0  0  0  0  0  0  0  0  0
  2  3  2  0  0  0  0
  2  5  1  0  0  0  0
  3  4  1  0  0  0  0
  4  1  1  0  0  0  0
  5 26  1  0  0  0  0
  5  1  2  0  0  0  0
  6  8  1  0  0  0  0
  8  7  2  0  0  0  0
  8  3  1  0  0  0  0
  9 11  1  0  0  0  0
 10  9  2  0  0  0  0
 10  6  1  0  0  0  0
 11 12  1  0  0  0  0
 13  9  1  0  0  0  0
 14 13  1  0  0  0  0
 15 14  1  0  0  0  0
 16 17  2  0  0  0  0
 17 18  1  0  0  0  0
 18 15  1  6  0  0  0
 20 23  1  0  0  0  0
 21 20  1  0  0  0  0
 22 21  1  0  0  0  0
 22 19  1  1  0  0  0
 22 17  1  0  0  0  0
 23 18  1  0  0  0  0
 24  2  1  0  0  0  0
 25 24  1  0  0  0  0
 27 26  1  0  0  0  0
 28 27  1  0  0  0  0
 30 34  1  0  0  0  0
 31 29  1  0  0  0  0
 32 30  1  1  0  0  0
 32 31  1  0  0  0  0
 33 30  2  0  0  0  0
 34 29  2  0  0  0  0
 34 28  1  0  0  0  0
 35 36  1  6  0  0  0
 35 32  1  0  0  0  0
 37 38  1  1  0  0  0
 37 36  1  0  0  0  0
 37 35  1  0  0  0  0
 38 41  1  6  0  0  0
 40 38  1  0  0  0  0
 40 39  1  0  0  0  0
 43 41  1  6  0  0  0
 43 42  1  0  0  0  0
 44 43  1  0  0  0  0
 44 42  1  0  0  0  0
 45 44  2  0  0  0  0
M  END
>  <MODEL>
5

>  <REMARK>
 VINA RESULT:      -6.9      2.834      7.513
  Name = 
  17 active torsions:
  status: ('A' for Active; 'I' for Inactive)
    1  A    between atoms: C_2  and  C_34
    2  A    between atoms: C_7  and  C_12
    3  A    between atoms: C_7  and  O_29
    4  A    between atoms: N_8  and  O_29
    5  A    between atoms: N_8  and  N_33
    6  A    between atoms: C_10  and  N_39
    7  A    between atoms: N_11  and  C_19
    8  A    between atoms: C_13  and  O_18
    9  A    between atoms: C_13  and  N_39
   10  A    between atoms: C_13  and  C_45
   11  A    between atoms: C_14  and  C_16
   12  A    between atoms: C_17  and  N_33
   13  A    between atoms: C_22  and  C_25
   14  A    between atoms: C_27  and  C_36
   15  A    between atoms: C_27  and  C_37
   16  A    between atoms: C_36  and  C_44
   17  A    between atoms: C_37  and  C_38
                            x       y       z     vdW  Elec       q    Type
                         _______ _______ _______ _____ _____    ______ ____

>  <TORSDO>
F 17

$$$$
=
 OpenBabel11062414193D

 45 49  0  0  1  0  0  0  0  0999 V2000
  182.9760  179.1610  144.7700 C   0  0  0  0  0  3  0  0  0  0  0  0
  184.2190  178.5020  143.0420 C   0  0  0  0  0  0  0  0  0  0  0  0
  182.8910  178.6270  142.6660 C   0  0  0  0  0  0  0  0  0  0  0  0
  182.1390  179.0240  143.7180 N   0  0  0  0  0  0  0  0  0  0  0  0
  184.2620  178.8500  144.3780 C   0  0  1  0  0  3  0  0  0  0  0  0
  182.9400  177.4310  140.4500 N   0  0  0  0  0  2  0  0  0  0  0  0
  181.2140  178.9480  140.9890 N   0  0  0  0  0  2  0  0  0  0  0  0
  182.3230  178.3740  141.3280 C   0  0  0  0  0  0  0  0  0  0  0  0
  183.0190  177.6400  138.0450 C   0  0  0  0  0  0  0  0  0  0  0  0
  182.4380  177.1470  139.1440 C   0  0  0  0  0  3  0  0  0  0  0  0
  184.2290  178.5090  138.1450 C   0  0  0  0  0  2  0  0  0  0  0  0
  185.4220  177.7100  137.9470 N   0  0  0  0  0  1  0  0  0  0  0  0
  182.5070  177.3590  136.7770 O   0  0  0  0  0  0  0  0  0  0  0  0
  183.0110  176.3350  136.0040 N   0  0  0  0  0  2  0  0  0  0  0  0
  182.2510  175.1920  136.3010 N   0  0  0  0  0  2  0  0  0  0  0  0
  181.2100  172.6820  136.9880 C   0  0  0  0  0  2  0  0  0  0  0  0
  182.5020  172.7480  136.6540 C   0  0  0  0  0  0  0  0  0  0  0  0
  183.1630  174.0550  136.2610 C   0  0  2  0  0  3  0  0  0  0  0  0
  183.0340  170.4910  135.7500 C   0  0  0  0  0  1  0  0  0  0  0  0
  185.1620  173.0940  137.5890 C   0  0  0  0  0  2  0  0  0  0  0  0
  184.8530  171.8730  136.7220 C   0  0  0  0  0  2  0  0  0  0  0  0
  183.3670  171.5220  136.8140 C   0  0  1  0  0  3  0  0  0  0  0  0
  184.4020  174.3490  137.1270 C   0  0  0  0  0  2  0  0  0  0  0  0
  185.3900  178.1470  142.1810 C   0  0  0  0  0  2  0  0  0  0  0  0
  185.8970  179.3800  141.4530 C   0  0  0  0  0  1  0  0  0  0  0  0
  185.4690  178.9040  145.2540 C   0  0  0  0  0  2  0  0  0  0  0  0
  185.7820  177.5200  145.8000 C   0  0  0  0  0  2  0  0  0  0  0  0
  187.0260  177.5540  146.6770 C   0  0  0  0  0  2  0  0  0  0  0  0
  189.2700  178.4180  146.2040 N   0  0  0  0  0  0  0  0  0  0  0  0
  188.4830  177.1480  144.5240 C   0  0  0  0  0  0  0  0  0  0  0  0
  190.2480  178.4120  145.1990 N   0  0  0  0  0  2  0  0  0  0  0  0
  189.8120  177.6180  144.0510 C   0  0  1  0  0  3  0  0  0  0  0  0
  187.6760  176.4240  143.8810 O   0  0  0  0  0  0  0  0  0  0  0  0
  188.2610  177.7000  145.8470 C   0  0  0  0  0  0  0  0  0  0  0  0
  190.7570  176.4360  143.8550 C   0  0  1  0  0  3  0  0  0  0  0  0
  190.1720  175.4670  142.8390 C   0  0  0  0  0  2  0  0  0  0  0  0
  191.3840  176.3020  142.4560 C   0  0  1  0  0  3  0  0  0  0  0  0
  191.0660  177.3930  141.4050 C   0  0  1  0  0  3  0  0  0  0  0  0
  192.8180  177.4290  140.0410 C   0  0  0  0  0  1  0  0  0  0  0  0
  192.1740  178.1700  141.0370 O   0  0  0  0  0  0  0  0  0  0  0  0
  190.4570  176.7950  140.2250 N   0  0  0  0  0  2  0  0  0  0  0  0
  188.4550  176.7960  138.9700 C   0  0  0  0  0  2  0  0  0  0  0  0
  189.0710  177.2260  140.1880 C   0  0  2  0  0  3  0  0  0  0  0  0
  188.9090  178.2520  139.0680 C   0  0  0  0  0  0  0  0  0  0  0  0
  189.0550  179.3680  138.6010 O   0  0  0  0  0  0  0  0  0  0  0  0
  2  5  1  0  0  0  0
  3  2  2  0  0  0  0
  3  4  1  0  0  0  0
  4  1  2  0  0  0  0
  5  1  1  0  0  0  0
  5 26  1  6  0  0  0
  6  8  1  0  0  0  0
  7  8  2  0  0  0  0
  8  3  1  0  0  0  0
  9 11  1  0  0  0  0
  9 10  2  0  0  0  0
 10  6  1  0  0  0  0
 12 11  1  0  0  0  0
 13  9  1  0  0  0  0
 14 15  1  0  0  0  0
 14 13  1  0  0  0  0
 17 22  1  0  0  0  0
 17 16  2  0  0  0  0
 18 15  1  1  0  0  0
 18 17  1  0  0  0  0
 18 23  1  0  0  0  0
 21 22  1  0  0  0  0
 21 20  1  0  0  0  0
 22 19  1  6  0  0  0
 23 20  1  0  0  0  0
 24  2  1  0  0  0  0
 25 24  1  0  0  0  0
 26 27  1  0  0  0  0
 27 28  1  0  0  0  0
 30 34  1  0  0  0  0
 31 29  1  0  0  0  0
 32 30  1  1  0  0  0
 32 31  1  0  0  0  0
 33 30  2  0  0  0  0
 34 29  2  0  0  0  0
 34 28  1  0  0  0  0
 35 36  1  6  0  0  0
 35 32  1  0  0  0  0
 37 38  1  6  0  0  0
 37 36  1  0  0  0  0
 37 35  1  0  0  0  0
 38 41  1  6  0  0  0
 39 40  1  0  0  0  0
 40 38  1  0  0  0  0
 42 44  1  0  0  0  0
 42 43  1  0  0  0  0
 43 41  1  6  0  0  0
 44 43  1  0  0  0  0
 45 44  2  0  0  0  0
M  END
>  <MODEL>
6

>  <REMARK>
 VINA RESULT:      -6.8      2.676      6.128
  Name = 
  17 active torsions:
  status: ('A' for Active; 'I' for Inactive)
    1  A    between atoms: C_2  and  C_34
    2  A    between atoms: C_7  and  C_12
    3  A    between atoms: C_7  and  O_29
    4  A    between atoms: N_8  and  O_29
    5  A    between atoms: N_8  and  N_33
    6  A    between atoms: C_10  and  N_39
    7  A    between atoms: N_11  and  C_19
    8  A    between atoms: C_13  and  O_18
    9  A    between atoms: C_13  and  N_39
   10  A    between atoms: C_13  and  C_45
   11  A    between atoms: C_14  and  C_16
   12  A    between atoms: C_17  and  N_33
   13  A    between atoms: C_22  and  C_25
   14  A    between atoms: C_27  and  C_36
   15  A    between atoms: C_27  and  C_37
   16  A    between atoms: C_36  and  C_44
   17  A    between atoms: C_37  and  C_38
                            x       y       z     vdW  Elec       q    Type
                         _______ _______ _______ _____ _____    ______ ____

>  <TORSDO>
F 17

$$$$
=
 OpenBabel11062414193D

 45 49  0  0  1  0  0  0  0  0999 V2000
  185.5420  177.7050  136.6800 C   0  0  0  0  0  3  0  0  0  0  0  0
  187.5310  176.7500  136.9970 C   0  0  0  0  0  0  0  0  0  0  0  0
  187.3110  177.7380  137.9430 C   0  0  0  0  0  0  0  0  0  0  0  0
  186.1040  178.3170  137.7460 N   0  0  0  0  0  2  0  0  0  0  0  0
  186.4010  176.7340  136.2040 C   0  0  0  0  0  0  0  0  0  0  0  0
  188.3740  177.3220  140.1880 N   0  0  0  0  0  2  0  0  0  0  0  0
  188.9510  179.2050  138.8850 N   0  0  0  0  0  2  0  0  0  0  0  0
  188.2230  178.1430  139.0290 C   0  0  0  0  0  0  0  0  0  0  0  0
  190.5140  177.2620  141.3060 C   0  0  0  0  0  0  0  0  0  0  0  0
  189.2390  177.6640  141.2710 C   0  0  0  0  0  3  0  0  0  0  0  0
  191.0860  176.4370  140.2010 C   0  0  0  0  0  2  0  0  0  0  0  0
  191.7670  177.2950  139.2520 N   0  0  0  0  0  1  0  0  0  0  0  0
  191.3420  177.5990  142.3790 O   0  0  0  0  0  0  0  0  0  0  0  0
  190.9080  178.4220  143.3960 N   0  0  0  0  0  2  0  0  0  0  0  0
  190.9430  177.6610  144.5760 N   0  0  0  0  0  2  0  0  0  0  0  0
  190.6960  176.6240  147.1670 C   0  0  0  0  0  2  0  0  0  0  0  0
  189.6650  177.3180  146.6770 C   0  0  0  0  0  0  0  0  0  0  0  0
  189.6980  177.9250  145.2880 C   0  0  2  0  0  3  0  0  0  0  0  0
  188.5320  178.2630  148.6790 C   0  0  0  0  0  1  0  0  0  0  0  0
  187.2180  177.2000  145.2400 C   0  0  0  0  0  2  0  0  0  0  0  0
  187.2260  177.9010  146.5990 C   0  0  0  0  0  2  0  0  0  0  0  0
  188.3760  177.3740  147.4580 C   0  0  1  0  0  3  0  0  0  0  0  0
  188.5010  177.4640  144.4360 C   0  0  0  0  0  2  0  0  0  0  0  0
  188.7040  175.8280  136.8860 C   0  0  0  0  0  2  0  0  0  0  0  0
  189.8850  176.5550  136.2650 C   0  0  0  0  0  1  0  0  0  0  0  0
  186.1250  175.8290  135.0500 C   0  0  0  0  0  2  0  0  0  0  0  0
  185.4980  174.5340  135.5380 C   0  0  0  0  0  2  0  0  0  0  0  0
  184.0760  174.3910  135.0150 C   0  0  0  0  0  2  0  0  0  0  0  0
  182.5140  176.2720  135.1780 N   0  0  0  0  0  0  0  0  0  0  0  0
  182.8690  175.2950  137.1710 C   0  0  0  0  0  0  0  0  0  0  0  0
  181.7650  176.9850  136.1270 N   0  0  0  0  0  2  0  0  0  0  0  0
  181.9490  176.4260  137.4650 C   0  0  1  0  0  3  0  0  0  0  0  0
  183.3500  174.4890  138.0120 O   0  0  0  0  0  0  0  0  0  0  0  0
  183.1430  175.3020  135.7470 C   0  0  0  0  0  0  0  0  0  0  0  0
  180.6150  175.9060  137.9920 C   0  0  1  0  0  3  0  0  0  0  0  0
  180.7230  175.6200  139.4820 C   0  0  0  0  0  2  0  0  0  0  0  0
  179.8990  176.8080  139.0130 C   0  0  1  0  0  3  0  0  0  0  0  0
  180.5420  178.1730  139.3610 C   0  0  1  0  0  3  0  0  0  0  0  0
  180.3060  180.2750  138.6840 C   0  0  0  0  0  1  0  0  0  0  0  0
  179.6390  179.2460  139.3590 O   0  0  0  0  0  0  0  0  0  0  0  0
  181.2280  178.0950  140.6430 N   0  0  0  0  0  2  0  0  0  0  0  0
  183.5320  177.5730  140.6660 C   0  0  0  0  0  2  0  0  0  0  0  0
  182.5720  178.6110  140.4460 C   0  0  2  0  0  3  0  0  0  0  0  0
  183.3040  178.5860  141.7870 C   0  0  0  0  0  0  0  0  0  0  0  0
  183.5210  179.0230  142.9040 O   0  0  0  0  0  0  0  0  0  0  0  0
  1  4  1  0  0  0  0
  2  3  2  0  0  0  0
  3  8  1  0  0  0  0
  4  3  1  0  0  0  0
  5  1  2  0  0  0  0
  5  2  1  0  0  0  0
  6 10  1  0  0  0  0
  7  8  2  0  0  0  0
  8  6  1  0  0  0  0
  9 13  1  0  0  0  0
 10  9  2  0  0  0  0
 11  9  1  0  0  0  0
 12 11  1  0  0  0  0
 13 14  1  0  0  0  0
 14 15  1  0  0  0  0
 17 16  2  0  0  0  0
 17 22  1  0  0  0  0
 18 15  1  6  0  0  0
 18 17  1  0  0  0  0
 20 21  1  0  0  0  0
 21 22  1  0  0  0  0
 22 19  1  1  0  0  0
 23 20  1  0  0  0  0
 23 18  1  0  0  0  0
 24  2  1  0  0  0  0
 25 24  1  0  0  0  0
 26 27  1  0  0  0  0
 26  5  1  0  0  0  0
 28 27  1  0  0  0  0
 28 34  1  0  0  0  0
 29 34  2  0  0  0  0
 29 31  1  0  0  0  0
 30 32  1  0  0  0  0
 30 33  2  0  0  0  0
 32 31  1  6  0  0  0
 32 35  1  0  0  0  0
 34 30  1  0  0  0  0
 35 37  1  0  0  0  0
 35 36  1  1  0  0  0
 37 38  1  1  0  0  0
 37 36  1  0  0  0  0
 38 40  1  1  0  0  0
 38 41  1  0  0  0  0
 39 40  1  0  0  0  0
 42 44  1  0  0  0  0
 43 41  1  1  0  0  0
 43 42  1  0  0  0  0
 43 44  1  0  0  0  0
 44 45  2  0  0  0  0
M  END
>  <MODEL>
7

>  <REMARK>
 VINA RESULT:      -6.7      2.615      8.397
  Name = 
  17 active torsions:
  status: ('A' for Active; 'I' for Inactive)
    1  A    between atoms: C_2  and  C_34
    2  A    between atoms: C_7  and  C_12
    3  A    between atoms: C_7  and  O_29
    4  A    between atoms: N_8  and  O_29
    5  A    between atoms: N_8  and  N_33
    6  A    between atoms: C_10  and  N_39
    7  A    between atoms: N_11  and  C_19
    8  A    between atoms: C_13  and  O_18
    9  A    between atoms: C_13  and  N_39
   10  A    between atoms: C_13  and  C_45
   11  A    between atoms: C_14  and  C_16
   12  A    between atoms: C_17  and  N_33
   13  A    between atoms: C_22  and  C_25
   14  A    between atoms: C_27  and  C_36
   15  A    between atoms: C_27  and  C_37
   16  A    between atoms: C_36  and  C_44
   17  A    between atoms: C_37  and  C_38
                            x       y       z     vdW  Elec       q    Type
                         _______ _______ _______ _____ _____    ______ ____

>  <TORSDO>
F 17

$$$$
=
 OpenBabel11062414193D

 45 49  0  0  1  0  0  0  0  0999 V2000
  188.0180  176.7630  144.1030 C   0  0  0  0  0  3  0  0  0  0  0  0
  187.4920  178.1080  142.4060 C   0  0  0  0  0  0  0  0  0  0  0  0
  186.3910  177.9050  143.2230 C   0  0  0  0  0  0  0  0  0  0  0  0
  186.7140  177.0850  144.2500 N   0  0  0  0  0  2  0  0  0  0  0  0
  188.5190  177.3840  142.9770 C   0  0  0  0  0  0  0  0  0  0  0  0
  184.2500  178.1070  141.9150 N   0  0  0  0  0  2  0  0  0  0  0  0
  184.5450  179.2330  143.9680 N   0  0  0  0  0  2  0  0  0  0  0  0
  185.0410  178.4710  143.0470 C   0  0  0  0  0  0  0  0  0  0  0  0
  182.5300  178.9970  140.4720 C   0  0  0  0  0  0  0  0  0  0  0  0
  182.9380  178.6240  141.6890 C   0  0  0  0  0  3  0  0  0  0  0  0
  183.4370  178.8800  139.2920 C   0  0  0  0  0  2  0  0  0  0  0  0
  184.1680  180.1180  139.1110 N   0  0  0  0  0  1  0  0  0  0  0  0
  181.2460  179.5110  140.2730 O   0  0  0  0  0  0  0  0  0  0  0  0
  180.7980  179.8710  139.0200 N   0  0  0  0  0  2  0  0  0  0  0  0
  180.5260  181.2480  139.0680 N   0  0  0  0  0  2  0  0  0  0  0  0
  179.3510  183.6780  138.3160 C   0  0  0  0  0  2  0  0  0  0  0  0
  180.2020  183.1090  137.4570 C   0  0  0  0  0  0  0  0  0  0  0  0
  180.8950  181.7970  137.7680 C   0  0  2  0  0  3  0  0  0  0  0  0
  181.1420  185.0070  136.1510 C   0  0  0  0  0  1  0  0  0  0  0  0
  180.4940  181.3370  135.2560 C   0  0  0  0  0  2  0  0  0  0  0  0
  181.0920  182.7400  135.1400 C   0  0  0  0  0  2  0  0  0  0  0  0
  180.3660  183.7030  136.0800 C   0  0  1  0  0  3  0  0  0  0  0  0
  180.6480  180.7480  136.6680 C   0  0  0  0  0  2  0  0  0  0  0  0
  187.5920  178.9890  141.2000 C   0  0  0  0  0  2  0  0  0  0  0  0
  187.1460  178.2310  139.9610 C   0  0  0  0  0  1  0  0  0  0  0  0
  189.9280  177.2890  142.4940 C   0  0  0  0  0  2  0  0  0  0  0  0
  189.9760  176.5670  141.1570 C   0  0  0  0  0  2  0  0  0  0  0  0
  190.8990  177.2880  140.1850 C   0  0  0  0  0  2  0  0  0  0  0  0
  190.5770  175.4290  138.6210 N   0  0  0  0  0  0  0  0  0  0  0  0
  192.6070  176.3700  138.4080 C   0  0  0  0  0  0  0  0  0  0  0  0
  191.2600  174.7130  137.6260 N   0  0  0  0  0  2  0  0  0  0  0  0
  192.6060  175.2490  137.4300 C   0  0  1  0  0  3  0  0  0  0  0  0
  193.5660  177.1550  138.6400 O   0  0  0  0  0  0  0  0  0  0  0  0
  191.3190  176.3800  139.0730 C   0  0  0  0  0  0  0  0  0  0  0  0
  192.7450  175.7810  136.0070 C   0  0  1  0  0  3  0  0  0  0  0  0
  194.1090  176.4290  135.8260 C   0  0  0  0  0  2  0  0  0  0  0  0
  193.8200  175.1040  135.1380 C   0  0  1  0  0  3  0  0  0  0  0  0
  194.6080  173.9170  135.7430 C   0  0  1  0  0  3  0  0  0  0  0  0
  193.3680  172.4600  134.6150 C   0  0  0  0  0  1  0  0  0  0  0  0
  194.6950  172.8010  134.8970 O   0  0  0  0  0  0  0  0  0  0  0  0
  195.9380  174.3470  136.1470 N   0  0  0  0  0  2  0  0  0  0  0  0
  195.8520  174.3640  138.5080 C   0  0  0  0  0  2  0  0  0  0  0  0
  196.2780  173.6240  137.3590 C   0  0  2  0  0  3  0  0  0  0  0  0
  197.3310  174.4220  138.1260 C   0  0  0  0  0  0  0  0  0  0  0  0
  198.4700  174.8220  138.2900 O   0  0  0  0  0  0  0  0  0  0  0  0
  1  4  1  0  0  0  0
  2  5  1  0  0  0  0
  2  3  2  0  0  0  0
  3  4  1  0  0  0  0
  5  1  2  0  0  0  0
  6  8  1  0  0  0  0
  8  3  1  0  0  0  0
  8  7  2  0  0  0  0
  9 10  2  0  0  0  0
 10  6  1  0  0  0  0
 11  9  1  0  0  0  0
 12 11  1  0  0  0  0
 13  9  1  0  0  0  0
 14 15  1  0  0  0  0
 14 13  1  0  0  0  0
 17 18  1  0  0  0  0
 17 16  2  0  0  0  0
 18 15  1  1  0  0  0
 20 23  1  0  0  0  0
 21 20  1  0  0  0  0
 21 22  1  0  0  0  0
 22 19  1  1  0  0  0
 22 17  1  0  0  0  0
 23 18  1  0  0  0  0
 24  2  1  0  0  0  0
 25 24  1  0  0  0  0
 26  5  1  0  0  0  0
 27 26  1  0  0  0  0
 28 27  1  0  0  0  0
 29 34  2  0  0  0  0
 30 33  2  0  0  0  0
 30 34  1  0  0  0  0
 31 29  1  0  0  0  0
 32 31  1  6  0  0  0
 32 30  1  0  0  0  0
 34 28  1  0  0  0  0
 35 36  1  1  0  0  0
 35 32  1  0  0  0  0
 37 38  1  1  0  0  0
 37 36  1  0  0  0  0
 37 35  1  0  0  0  0
 38 40  1  6  0  0  0
 38 41  1  0  0  0  0
 39 40  1  0  0  0  0
 43 41  1  6  0  0  0
 43 44  1  0  0  0  0
 43 42  1  0  0  0  0
 44 45  2  0  0  0  0
 44 42  1  0  0  0  0
M  END
>  <MODEL>
8

>  <REMARK>
 VINA RESULT:      -6.7      3.878      9.800
  Name = 
  17 active torsions:
  status: ('A' for Active; 'I' for Inactive)
    1  A    between atoms: C_2  and  C_34
    2  A    between atoms: C_7  and  C_12
    3  A    between atoms: C_7  and  O_29
    4  A    between atoms: N_8  and  O_29
    5  A    between atoms: N_8  and  N_33
    6  A    between atoms: C_10  and  N_39
    7  A    between atoms: N_11  and  C_19
    8  A    between atoms: C_13  and  O_18
    9  A    between atoms: C_13  and  N_39
   10  A    between atoms: C_13  and  C_45
   11  A    between atoms: C_14  and  C_16
   12  A    between atoms: C_17  and  N_33
   13  A    between atoms: C_22  and  C_25
   14  A    between atoms: C_27  and  C_36
   15  A    between atoms: C_27  and  C_37
   16  A    between atoms: C_36  and  C_44
   17  A    between atoms: C_37  and  C_38
                            x       y       z     vdW  Elec       q    Type
                         _______ _______ _______ _____ _____    ______ ____

>  <TORSDO>
F 17

$$$$
=
 OpenBabel11062414193D

 45 49  0  0  1  0  0  0  0  0999 V2000
  186.8170  176.9400  144.2540 C   0  0  0  0  0  3  0  0  0  0  0  0
  185.2890  178.5610  144.1750 C   0  0  0  0  0  0  0  0  0  0  0  0
  185.5200  178.0490  142.9080 C   0  0  0  0  0  0  0  0  0  0  0  0
  186.4490  177.0670  142.9600 N   0  0  0  0  0  0  0  0  0  0  0  0
  186.1130  177.8460  145.0220 C   0  0  1  0  0  3  0  0  0  0  0  0
  183.6090  177.9360  141.2730 N   0  0  0  0  0  2  0  0  0  0  0  0
  185.4280  179.4020  140.9370 N   0  0  0  0  0  2  0  0  0  0  0  0
  184.8760  178.4740  141.6510 C   0  0  0  0  0  0  0  0  0  0  0  0
  181.6130  178.4620  140.0180 C   0  0  0  0  0  0  0  0  0  0  0  0
  182.9400  178.3080  140.0670 C   0  0  0  0  0  3  0  0  0  0  0  0
  180.7740  178.2540  141.2360 C   0  0  0  0  0  2  0  0  0  0  0  0
  179.9810  179.4400  141.4920 N   0  0  0  0  0  1  0  0  0  0  0  0
  180.9760  178.8160  138.8270 O   0  0  0  0  0  0  0  0  0  0  0  0
  181.3470  179.9350  138.1140 N   0  0  0  0  0  2  0  0  0  0  0  0
  180.1930  180.4040  137.4660 N   0  0  0  0  0  2  0  0  0  0  0  0
  179.6710  182.9100  138.6070 C   0  0  0  0  0  2  0  0  0  0  0  0
  180.2550  182.8860  137.4060 C   0  0  0  0  0  0  0  0  0  0  0  0
  180.5850  181.5830  136.7030 C   0  0  2  0  0  3  0  0  0  0  0  0
  181.5640  184.9990  137.2980 C   0  0  0  0  0  1  0  0  0  0  0  0
  179.8570  182.8880  134.5940 C   0  0  0  0  0  2  0  0  0  0  0  0
  180.8060  183.9280  135.1910 C   0  0  0  0  0  2  0  0  0  0  0  0
  180.4570  184.1800  136.6580 C   0  0  1  0  0  3  0  0  0  0  0  0
  179.9650  181.5240  135.2940 C   0  0  0  0  0  2  0  0  0  0  0  0
  184.3020  179.6110  144.5770 C   0  0  0  0  0  2  0  0  0  0  0  0
  182.8850  179.1050  144.3650 C   0  0  0  0  0  1  0  0  0  0  0  0
  186.2260  177.9940  146.5020 C   0  0  0  0  0  2  0  0  0  0  0  0
  187.5310  177.3860  146.9910 C   0  0  0  0  0  2  0  0  0  0  0  0
  188.6960  178.3320  146.7440 C   0  0  0  0  0  2  0  0  0  0  0  0
  190.7390  176.9780  146.7360 N   0  0  0  0  0  0  0  0  0  0  0  0
  190.1340  177.6060  144.6640 C   0  0  0  0  0  0  0  0  0  0  0  0
  191.7040  176.4700  145.8530 N   0  0  0  0  0  2  0  0  0  0  0  0
  191.3980  176.8460  144.4740 C   0  0  1  0  0  3  0  0  0  0  0  0
  189.4590  178.1650  143.7590 O   0  0  0  0  0  0  0  0  0  0  0  0
  189.8330  177.6200  146.0830 C   0  0  0  0  0  0  0  0  0  0  0  0
  191.1470  175.5910  143.6430 C   0  0  1  0  0  3  0  0  0  0  0  0
  189.8220  175.7130  142.9070 C   0  0  0  0  0  2  0  0  0  0  0  0
  191.1190  175.7900  142.1170 C   0  0  1  0  0  3  0  0  0  0  0  0
  191.4110  177.2040  141.5590 C   0  0  1  0  0  3  0  0  0  0  0  0
  193.1250  177.1440  140.1480 C   0  0  0  0  0  1  0  0  0  0  0  0
  192.7770  177.5040  141.4550 O   0  0  0  0  0  0  0  0  0  0  0  0
  190.7570  177.3830  140.2710 N   0  0  0  0  0  2  0  0  0  0  0  0
  188.4320  177.2410  139.8730 C   0  0  0  0  0  2  0  0  0  0  0  0
  189.4630  177.9910  140.5240 C   0  0  2  0  0  3  0  0  0  0  0  0
  188.9100  178.5290  139.2050 C   0  0  0  0  0  0  0  0  0  0  0  0
  188.8880  179.3460  138.3010 O   0  0  0  0  0  0  0  0  0  0  0  0
  1  5  1  0  0  0  0
  2 24  1  0  0  0  0
  2  5  1  0  0  0  0
  3  4  1  0  0  0  0
  3  2  2  0  0  0  0
  4  1  2  0  0  0  0
  5 26  1  1  0  0  0
  6  8  1  0  0  0  0
  7  8  2  0  0  0  0
  8  3  1  0  0  0  0
  9 10  2  0  0  0  0
  9 11  1  0  0  0  0
 10  6  1  0  0  0  0
 11 12  1  0  0  0  0
 13  9  1  0  0  0  0
 14 13  1  0  0  0  0
 15 14  1  0  0  0  0
 17 16  2  0  0  0  0
 18 17  1  0  0  0  0
 18 15  1  1  0  0  0
 20 21  1  0  0  0  0
 20 23  1  0  0  0  0
 21 22  1  0  0  0  0
 22 19  1  1  0  0  0
 22 17  1  0  0  0  0
 23 18  1  0  0  0  0
 25 24  1  0  0  0  0
 26 27  1  0  0  0  0
 28 27  1  0  0  0  0
 30 34  1  0  0  0  0
 31 29  1  0  0  0  0
 32 30  1  1  0  0  0
 32 31  1  0  0  0  0
 33 30  2  0  0  0  0
 34 29  2  0  0  0  0
 34 28  1  0  0  0  0
 35 36  1  1  0  0  0
 35 32  1  0  0  0  0
 37 38  1  1  0  0  0
 37 36  1  0  0  0  0
 37 35  1  0  0  0  0
 38 41  1  6  0  0  0
 39 40  1  0  0  0  0
 40 38  1  0  0  0  0
 42 43  1  0  0  0  0
 43 41  1  6  0  0  0
 44 42  1  0  0  0  0
 44 43  1  0  0  0  0
 45 44  2  0  0  0  0
M  END
>  <MODEL>
9

>  <REMARK>
 VINA RESULT:      -6.4      2.911      7.757
  Name = 
  17 active torsions:
  status: ('A' for Active; 'I' for Inactive)
    1  A    between atoms: C_2  and  C_34
    2  A    between atoms: C_7  and  C_12
    3  A    between atoms: C_7  and  O_29
    4  A    between atoms: N_8  and  O_29
    5  A    between atoms: N_8  and  N_33
    6  A    between atoms: C_10  and  N_39
    7  A    between atoms: N_11  and  C_19
    8  A    between atoms: C_13  and  O_18
    9  A    between atoms: C_13  and  N_39
   10  A    between atoms: C_13  and  C_45
   11  A    between atoms: C_14  and  C_16
   12  A    between atoms: C_17  and  N_33
   13  A    between atoms: C_22  and  C_25
   14  A    between atoms: C_27  and  C_36
   15  A    between atoms: C_27  and  C_37
   16  A    between atoms: C_36  and  C_44
   17  A    between atoms: C_37  and  C_38
                            x       y       z     vdW  Elec       q    Type
                         _______ _______ _______ _____ _____    ______ ____

>  <TORSDO>
F 17

$$$$
