=
 OpenBabel11062418103D

 25 26  0  0  1  0  0  0  0  0999 V2000
  189.7340  177.9940  145.8210 N   0  0  0  0  0  2  0  0  0  0  0  0
  188.5660  177.1860  146.1510 C   0  0  2  0  0  3  0  0  0  0  0  0
  187.3620  177.6170  145.3670 C   0  0  0  0  0  0  0  0  0  0  0  0
  186.2070  177.9430  143.2260 C   0  0  0  0  0  3  0  0  0  0  0  0
  185.1410  178.5170  145.3070 C   0  0  0  0  0  0  0  0  0  0  0  0
  183.9170  178.9030  143.4770 O   0  0  0  0  0  0  0  0  0  0  0  0
  183.1230  179.3060  144.6020 C   0  0  0  0  0  2  0  0  0  0  0  0
  185.1240  178.4340  143.9510 C   0  0  0  0  0  0  0  0  0  0  0  0
  183.9420  179.0390  145.7500 O   0  0  0  0  0  0  0  0  0  0  0  0
  186.2430  178.1200  146.0580 C   0  0  0  0  0  3  0  0  0  0  0  0
  187.3390  177.5320  143.9520 C   0  0  0  0  0  3  0  0  0  0  0  0
  188.3080  177.1650  147.6590 C   0  0  0  0  0  2  0  0  0  0  0  0
  189.0550  178.2680  148.3940 C   0  0  0  0  0  1  0  0  0  0  0  0
  190.7080  177.1070  145.2040 C   0  0  0  0  0  2  0  0  0  0  0  0
  191.5280  177.8660  144.1750 C   0  0  2  0  0  3  0  0  0  0  0  0
  190.8570  179.0360  143.8100 O   0  0  0  0  0  1  0  0  0  0  0  0
  191.7270  176.9850  142.9560 C   0  0  0  0  0  2  0  0  0  0  0  0
  190.4440  176.2380  142.6270 C   0  0  0  0  0  2  0  0  0  0  0  0
  189.7790  176.8330  141.3960 C   0  0  0  0  0  2  0  0  0  0  0  0
  190.8120  177.3080  140.3850 C   0  0  0  0  0  2  0  0  0  0  0  0
  190.3570  177.0820  139.0850 O   0  0  0  0  0  0  0  0  0  0  0  0
  188.9720  176.9740  139.2120 C   0  0  0  0  0  2  0  0  0  0  0  0
  188.3030  177.5430  137.9750 C   0  0  0  0  0  2  0  0  0  0  0  0
  188.9600  179.8240  137.7150 O   0  0  0  0  0  1  0  0  0  0  0  0
  189.2300  178.5250  137.2820 C   0  0  0  0  0  2  0  0  0  0  0  0
  1  2  1  0  0  0  0
  2 12  1  1  0  0  0
  3 10  1  0  0  0  0
  3  2  1  0  0  0  0
  4  8  2  0  0  0  0
  4 11  1  0  0  0  0
  5  9  1  0  0  0  0
  5 10  2  0  0  0  0
  6  8  1  0  0  0  0
  6  7  1  0  0  0  0
  7  9  1  0  0  0  0
  8  5  1  0  0  0  0
 11  3  2  0  0  0  0
 12 13  1  0  0  0  0
 14  1  1  0  0  0  0
 15 16  1  6  0  0  0
 15 14  1  0  0  0  0
 17 15  1  0  0  0  0
 18 17  1  0  0  0  0
 19 18  1  0  0  0  0
 20 19  1  0  0  0  0
 21 22  1  0  0  0  0
 21 20  1  0  0  0  0
 23 22  1  0  0  0  0
 25 24  1  0  0  0  0
 25 23  1  0  0  0  0
M  END
>  <MODEL>
1

>  <REMARK>
 VINA RESULT:      -6.9      0.000      0.000
  Name = 
  13 active torsions:
  status: ('A' for Active; 'I' for Inactive)
    1  A    between atoms: C_1  and  C_12
    2  A    between atoms: C_2  and  C_10
    3  A    between atoms: C_2  and  O_16
    4  A    between atoms: C_4  and  C_13
    5  A    between atoms: C_4  and  C_18
    6  A    between atoms: C_5  and  C_12
    7  A    between atoms: C_7  and  C_11
    8  A    between atoms: C_7  and  O_16
    9  A    between atoms: C_8  and  C_10
   10  A    between atoms: C_8  and  C_13
   11  A    between atoms: C_11  and  C_25
   12  A    between atoms: C_12  and  N_19
   13  A    between atoms: C_18  and  N_19
                            x       y       z     vdW  Elec       q    Type
                         _______ _______ _______ _____ _____    ______ ____

>  <TORSDO>
F 13

$$$$
=
 OpenBabel11062418103D

 25 26  0  0  1  0  0  0  0  0999 V2000
  189.8400  177.8760  144.9650 N   0  0  0  0  0  2  0  0  0  0  0  0
  189.0200  177.1890  145.9570 C   0  0  2  0  0  3  0  0  0  0  0  0
  187.6120  177.7080  145.9570 C   0  0  0  0  0  0  0  0  0  0  0  0
  185.6820  178.6560  147.1400 C   0  0  0  0  0  3  0  0  0  0  0  0
  185.5840  178.2010  144.7780 C   0  0  0  0  0  0  0  0  0  0  0  0
  183.7140  179.0530  145.6570 O   0  0  0  0  0  0  0  0  0  0  0  0
  183.4630  178.8500  144.2590 C   0  0  0  0  0  2  0  0  0  0  0  0
  185.0050  178.6480  145.9230 C   0  0  0  0  0  0  0  0  0  0  0  0
  184.6840  178.3080  143.7360 O   0  0  0  0  0  0  0  0  0  0  0  0
  186.8890  177.7190  144.7490 C   0  0  0  0  0  3  0  0  0  0  0  0
  187.0040  178.1760  147.1490 C   0  0  0  0  0  3  0  0  0  0  0  0
  189.6640  177.2360  147.3440 C   0  0  0  0  0  2  0  0  0  0  0  0
  190.9750  176.4670  147.4050 C   0  0  0  0  0  1  0  0  0  0  0  0
  190.3540  176.8610  144.0590 C   0  0  0  0  0  2  0  0  0  0  0  0
  191.4020  177.4640  143.1400 C   0  0  2  0  0  3  0  0  0  0  0  0
  191.6280  178.7960  143.4950 O   0  0  0  0  0  1  0  0  0  0  0  0
  190.9040  177.3900  141.7090 C   0  0  0  0  0  2  0  0  0  0  0  0
  189.4200  177.0580  141.6820 C   0  0  0  0  0  2  0  0  0  0  0  0
  188.5960  178.3090  141.4170 C   0  0  0  0  0  2  0  0  0  0  0  0
  187.9860  178.2840  140.0230 C   0  0  0  0  0  2  0  0  0  0  0  0
  188.8630  178.8590  139.1010 O   0  0  0  0  0  0  0  0  0  0  0  0
  188.7140  178.0890  137.9480 C   0  0  0  0  0  2  0  0  0  0  0  0
  190.0400  177.4460  137.5910 C   0  0  0  0  0  2  0  0  0  0  0  0
  190.6650  175.4680  138.7720 O   0  0  0  0  0  1  0  0  0  0  0  0
  189.9310  175.9340  137.6810 C   0  0  0  0  0  2  0  0  0  0  0  0
  1  2  1  0  0  0  0
  2  3  1  0  0  0  0
  2 12  1  1  0  0  0
  3 11  1  0  0  0  0
  4 11  2  0  0  0  0
  5  8  2  0  0  0  0
  6  8  1  0  0  0  0
  7  6  1  0  0  0  0
  8  4  1  0  0  0  0
  9  7  1  0  0  0  0
  9  5  1  0  0  0  0
 10  5  1  0  0  0  0
 10  3  2  0  0  0  0
 12 13  1  0  0  0  0
 14  1  1  0  0  0  0
 15 16  1  1  0  0  0
 15 14  1  0  0  0  0
 17 15  1  0  0  0  0
 18 17  1  0  0  0  0
 19 18  1  0  0  0  0
 20 19  1  0  0  0  0
 21 20  1  0  0  0  0
 22 21  1  0  0  0  0
 23 25  1  0  0  0  0
 23 22  1  0  0  0  0
 25 24  1  0  0  0  0
M  END
>  <MODEL>
2

>  <REMARK>
 VINA RESULT:      -6.8      1.252      2.175
  Name = 
  13 active torsions:
  status: ('A' for Active; 'I' for Inactive)
    1  A    between atoms: C_1  and  C_12
    2  A    between atoms: C_2  and  C_10
    3  A    between atoms: C_2  and  O_16
    4  A    between atoms: C_4  and  C_13
    5  A    between atoms: C_4  and  C_18
    6  A    between atoms: C_5  and  C_12
    7  A    between atoms: C_7  and  C_11
    8  A    between atoms: C_7  and  O_16
    9  A    between atoms: C_8  and  C_10
   10  A    between atoms: C_8  and  C_13
   11  A    between atoms: C_11  and  C_25
   12  A    between atoms: C_12  and  N_19
   13  A    between atoms: C_18  and  N_19
                            x       y       z     vdW  Elec       q    Type
                         _______ _______ _______ _____ _____    ______ ____

>  <TORSDO>
F 13

$$$$
=
 OpenBabel11062418103D

 25 26  0  0  1  0  0  0  0  0999 V2000
  189.5730  178.1150  145.6690 N   0  0  0  0  0  2  0  0  0  0  0  0
  188.4860  177.2260  146.0660 C   0  0  2  0  0  3  0  0  0  0  0  0
  187.1640  177.7160  145.5540 C   0  0  0  0  0  0  0  0  0  0  0  0
  184.9470  178.6930  145.9460 C   0  0  0  0  0  3  0  0  0  0  0  0
  185.6620  178.1010  143.7260 C   0  0  0  0  0  0  0  0  0  0  0  0
  183.6050  178.9650  143.8600 O   0  0  0  0  0  0  0  0  0  0  0  0
  183.8470  178.6770  142.4750 C   0  0  0  0  0  2  0  0  0  0  0  0
  184.7280  178.6010  144.5750 C   0  0  0  0  0  0  0  0  0  0  0  0
  185.1730  178.1290  142.4350 O   0  0  0  0  0  0  0  0  0  0  0  0
  186.8980  177.6430  144.1730 C   0  0  0  0  0  3  0  0  0  0  0  0
  186.1860  178.2410  146.4360 C   0  0  0  0  0  3  0  0  0  0  0  0
  188.4800  176.9900  147.5780 C   0  0  0  0  0  2  0  0  0  0  0  0
  189.0260  178.1780  148.3560 C   0  0  0  0  0  1  0  0  0  0  0  0
  190.6740  177.2730  145.2280 C   0  0  0  0  0  2  0  0  0  0  0  0
  191.4950  177.9960  144.1740 C   0  0  2  0  0  3  0  0  0  0  0  0
  190.9210  179.2410  143.9040 O   0  0  0  0  0  1  0  0  0  0  0  0
  191.5230  177.1580  142.9110 C   0  0  0  0  0  2  0  0  0  0  0  0
  190.4330  176.0970  142.9540 C   0  0  0  0  0  2  0  0  0  0  0  0
  189.3100  176.4430  141.9900 C   0  0  0  0  0  2  0  0  0  0  0  0
  189.7700  177.4490  140.9440 C   0  0  0  0  0  2  0  0  0  0  0  0
  188.6680  178.0660  140.3490 O   0  0  0  0  0  0  0  0  0  0  0  0
  188.5040  177.3970  139.1360 C   0  0  0  0  0  2  0  0  0  0  0  0
  189.5670  177.8550  138.1550 C   0  0  0  0  0  2  0  0  0  0  0  0
  187.6440  179.0160  137.3470 O   0  0  0  0  0  1  0  0  0  0  0  0
  189.0380  178.9960  137.3040 C   0  0  0  0  0  2  0  0  0  0  0  0
  1  2  1  0  0  0  0
  2 12  1  1  0  0  0
  3  2  1  0  0  0  0
  3 11  1  0  0  0  0
  4 11  2  0  0  0  0
  5 10  1  0  0  0  0
  5  8  2  0  0  0  0
  6  8  1  0  0  0  0
  7  6  1  0  0  0  0
  8  4  1  0  0  0  0
  9  7  1  0  0  0  0
  9  5  1  0  0  0  0
 10  3  2  0  0  0  0
 12 13  1  0  0  0  0
 14  1  1  0  0  0  0
 15 16  1  6  0  0  0
 15 14  1  0  0  0  0
 17 18  1  0  0  0  0
 17 15  1  0  0  0  0
 19 18  1  0  0  0  0
 20 19  1  0  0  0  0
 21 20  1  0  0  0  0
 22 21  1  0  0  0  0
 23 22  1  0  0  0  0
 25 24  1  0  0  0  0
 25 23  1  0  0  0  0
M  END
>  <MODEL>
3

>  <REMARK>
 VINA RESULT:      -6.7      0.927      1.514
  Name = 
  13 active torsions:
  status: ('A' for Active; 'I' for Inactive)
    1  A    between atoms: C_1  and  C_12
    2  A    between atoms: C_2  and  C_10
    3  A    between atoms: C_2  and  O_16
    4  A    between atoms: C_4  and  C_13
    5  A    between atoms: C_4  and  C_18
    6  A    between atoms: C_5  and  C_12
    7  A    between atoms: C_7  and  C_11
    8  A    between atoms: C_7  and  O_16
    9  A    between atoms: C_8  and  C_10
   10  A    between atoms: C_8  and  C_13
   11  A    between atoms: C_11  and  C_25
   12  A    between atoms: C_12  and  N_19
   13  A    between atoms: C_18  and  N_19
                            x       y       z     vdW  Elec       q    Type
                         _______ _______ _______ _____ _____    ______ ____

>  <TORSDO>
F 13

$$$$
=
 OpenBabel11062418103D

 25 26  0  0  1  0  0  0  0  0999 V2000
  186.9720  177.6350  145.7280 N   0  0  0  0  0  2  0  0  0  0  0  0
  188.3520  177.9790  146.0520 C   0  0  2  0  0  3  0  0  0  0  0  0
  189.2520  177.8100  144.8640 C   0  0  0  0  0  0  0  0  0  0  0  0
  191.4980  177.6510  143.8870 C   0  0  0  0  0  3  0  0  0  0  0  0
  189.5340  177.5100  142.5030 C   0  0  0  0  0  0  0  0  0  0  0  0
  191.4780  177.3530  141.4100 O   0  0  0  0  0  0  0  0  0  0  0  0
  190.4370  177.2510  140.4270 C   0  0  0  0  0  2  0  0  0  0  0  0
  190.8850  177.5080  142.6460 C   0  0  0  0  0  0  0  0  0  0  0  0
  189.2130  177.3540  141.1690 O   0  0  0  0  0  0  0  0  0  0  0  0
  188.6760  177.6610  143.5880 C   0  0  0  0  0  3  0  0  0  0  0  0
  190.6620  177.8050  145.0090 C   0  0  0  0  0  3  0  0  0  0  0  0
  188.8460  177.2080  147.2780 C   0  0  0  0  0  2  0  0  0  0  0  0
  189.0540  178.1070  148.4880 C   0  0  0  0  0  1  0  0  0  0  0  0
  186.1230  178.6350  146.3560 C   0  0  0  0  0  2  0  0  0  0  0  0
  185.0880  179.1390  145.3650 C   0  0  2  0  0  3  0  0  0  0  0  0
  183.8070  178.9560  145.8900 O   0  0  0  0  0  1  0  0  0  0  0  0
  185.2280  178.3640  144.0690 C   0  0  0  0  0  2  0  0  0  0  0  0
  184.0420  178.6400  143.1560 C   0  0  0  0  0  2  0  0  0  0  0  0
  184.4410  178.4780  141.6970 C   0  0  0  0  0  2  0  0  0  0  0  0
  185.8800  178.9160  141.4650 C   0  0  0  0  0  2  0  0  0  0  0  0
  186.1980  178.8320  140.1090 O   0  0  0  0  0  0  0  0  0  0  0  0
  184.9650  178.7560  139.4630 C   0  0  0  0  0  2  0  0  0  0  0  0
  185.1230  178.0120  138.1510 C   0  0  0  0  0  2  0  0  0  0  0  0
  186.8240  178.3590  136.5130 O   0  0  0  0  0  1  0  0  0  0  0  0
  186.5940  177.8740  137.8000 C   0  0  0  0  0  2  0  0  0  0  0  0
  1  2  1  0  0  0  0
  1 14  1  0  0  0  0
  2 12  1  1  0  0  0
  3 11  1  0  0  0  0
  3  2  1  0  0  0  0
  4 11  2  0  0  0  0
  5  8  2  0  0  0  0
  5 10  1  0  0  0  0
  6  8  1  0  0  0  0
  7  9  1  0  0  0  0
  7  6  1  0  0  0  0
  8  4  1  0  0  0  0
  9  5  1  0  0  0  0
 10  3  2  0  0  0  0
 12 13  1  0  0  0  0
 15 16  1  1  0  0  0
 15 14  1  0  0  0  0
 17 15  1  0  0  0  0
 18 17  1  0  0  0  0
 19 18  1  0  0  0  0
 20 19  1  0  0  0  0
 21 20  1  0  0  0  0
 22 21  1  0  0  0  0
 23 22  1  0  0  0  0
 24 25  1  0  0  0  0
 25 23  1  0  0  0  0
M  END
>  <MODEL>
4

>  <REMARK>
 VINA RESULT:      -6.7      1.924      5.147
  Name = 
  13 active torsions:
  status: ('A' for Active; 'I' for Inactive)
    1  A    between atoms: C_1  and  C_12
    2  A    between atoms: C_2  and  C_10
    3  A    between atoms: C_2  and  O_16
    4  A    between atoms: C_4  and  C_13
    5  A    between atoms: C_4  and  C_18
    6  A    between atoms: C_5  and  C_12
    7  A    between atoms: C_7  and  C_11
    8  A    between atoms: C_7  and  O_16
    9  A    between atoms: C_8  and  C_10
   10  A    between atoms: C_8  and  C_13
   11  A    between atoms: C_11  and  C_25
   12  A    between atoms: C_12  and  N_19
   13  A    between atoms: C_18  and  N_19
                            x       y       z     vdW  Elec       q    Type
                         _______ _______ _______ _____ _____    ______ ____

>  <TORSDO>
F 13

$$$$
=
 OpenBabel11062418103D

 25 26  0  0  1  0  0  0  0  0999 V2000
  186.8240  177.5050  145.7450 N   0  0  0  0  0  2  0  0  0  0  0  0
  188.1870  177.8880  146.0970 C   0  0  2  0  0  3  0  0  0  0  0  0
  189.1170  177.7400  144.9290 C   0  0  0  0  0  0  0  0  0  0  0  0
  191.3830  177.7150  143.9880 C   0  0  0  0  0  3  0  0  0  0  0  0
  189.4590  177.3640  142.5870 C   0  0  0  0  0  0  0  0  0  0  0  0
  191.4260  177.3120  141.5260 O   0  0  0  0  0  0  0  0  0  0  0  0
  190.4120  177.0880  140.5360 C   0  0  0  0  0  2  0  0  0  0  0  0
  190.8030  177.4720  142.7470 C   0  0  0  0  0  0  0  0  0  0  0  0
  189.1720  177.1270  141.2570 O   0  0  0  0  0  0  0  0  0  0  0  0
  188.5740  177.4930  143.6530 C   0  0  0  0  0  3  0  0  0  0  0  0
  190.5210  177.8510  145.0910 C   0  0  0  0  0  3  0  0  0  0  0  0
  188.6770  177.1360  147.3370 C   0  0  0  0  0  2  0  0  0  0  0  0
  188.8100  178.0410  148.5530 C   0  0  0  0  0  1  0  0  0  0  0  0
  185.9360  178.4860  146.3470 C   0  0  0  0  0  2  0  0  0  0  0  0
  185.0520  179.1140  145.2830 C   0  0  2  0  0  3  0  0  0  0  0  0
  183.7250  179.1180  145.7170 O   0  0  0  0  0  1  0  0  0  0  0  0
  185.1720  178.3080  144.0040 C   0  0  0  0  0  2  0  0  0  0  0  0
  184.6510  179.1100  142.8210 C   0  0  0  0  0  2  0  0  0  0  0  0
  185.6670  179.1190  141.6900 C   0  0  0  0  0  2  0  0  0  0  0  0
  185.0150  178.7820  140.3570 C   0  0  0  0  0  2  0  0  0  0  0  0
  184.6560  179.9510  139.6850 O   0  0  0  0  0  0  0  0  0  0  0  0
  183.4780  179.6230  139.0140 C   0  0  0  0  0  2  0  0  0  0  0  0
  182.7410  178.5420  139.7820 C   0  0  0  0  0  2  0  0  0  0  0  0
  180.7350  178.0730  140.9870 O   0  0  0  0  0  1  0  0  0  0  0  0
  181.4030  179.0670  140.2720 C   0  0  0  0  0  2  0  0  0  0  0  0
  1  2  1  0  0  0  0
  1 14  1  0  0  0  0
  2 12  1  1  0  0  0
  3 11  1  0  0  0  0
  3  2  1  0  0  0  0
  4 11  2  0  0  0  0
  5  8  2  0  0  0  0
  5 10  1  0  0  0  0
  6  8  1  0  0  0  0
  7  9  1  0  0  0  0
  7  6  1  0  0  0  0
  8  4  1  0  0  0  0
  9  5  1  0  0  0  0
 10  3  2  0  0  0  0
 12 13  1  0  0  0  0
 15 16  1  1  0  0  0
 15 14  1  0  0  0  0
 17 15  1  0  0  0  0
 18 17  1  0  0  0  0
 19 18  1  0  0  0  0
 20 19  1  0  0  0  0
 21 20  1  0  0  0  0
 22 21  1  0  0  0  0
 22 23  1  0  0  0  0
 23 25  1  0  0  0  0
 25 24  1  0  0  0  0
M  END
>  <MODEL>
5

>  <REMARK>
 VINA RESULT:      -6.6      2.478      5.832
  Name = 
  13 active torsions:
  status: ('A' for Active; 'I' for Inactive)
    1  A    between atoms: C_1  and  C_12
    2  A    between atoms: C_2  and  C_10
    3  A    between atoms: C_2  and  O_16
    4  A    between atoms: C_4  and  C_13
    5  A    between atoms: C_4  and  C_18
    6  A    between atoms: C_5  and  C_12
    7  A    between atoms: C_7  and  C_11
    8  A    between atoms: C_7  and  O_16
    9  A    between atoms: C_8  and  C_10
   10  A    between atoms: C_8  and  C_13
   11  A    between atoms: C_11  and  C_25
   12  A    between atoms: C_12  and  N_19
   13  A    between atoms: C_18  and  N_19
                            x       y       z     vdW  Elec       q    Type
                         _______ _______ _______ _____ _____    ______ ____

>  <TORSDO>
F 13

$$$$
=
 OpenBabel11062418103D

 25 26  0  0  1  0  0  0  0  0999 V2000
  189.6110  177.8200  144.6550 N   0  0  0  0  0  2  0  0  0  0  0  0
  188.8550  177.2330  145.7560 C   0  0  2  0  0  3  0  0  0  0  0  0
  187.4440  177.7400  145.7840 C   0  0  0  0  0  0  0  0  0  0  0  0
  185.5120  178.6260  147.0110 C   0  0  0  0  0  3  0  0  0  0  0  0
  185.4060  178.2620  144.6350 C   0  0  0  0  0  0  0  0  0  0  0  0
  183.5330  179.0650  145.5550 O   0  0  0  0  0  0  0  0  0  0  0  0
  183.2770  178.9140  144.1510 C   0  0  0  0  0  2  0  0  0  0  0  0
  184.8300  178.6600  145.7980 C   0  0  0  0  0  0  0  0  0  0  0  0
  184.5000  178.4020  143.6020 O   0  0  0  0  0  0  0  0  0  0  0  0
  186.7150  177.7920  144.5800 C   0  0  0  0  0  3  0  0  0  0  0  0
  186.8380  178.1570  146.9960 C   0  0  0  0  0  3  0  0  0  0  0  0
  189.5750  177.4250  147.0930 C   0  0  0  0  0  2  0  0  0  0  0  0
  190.7980  176.5310  147.2310 C   0  0  0  0  0  1  0  0  0  0  0  0
  190.1570  176.7200  143.8770 C   0  0  0  0  0  2  0  0  0  0  0  0
  191.5130  177.1040  143.3100 C   0  0  2  0  0  3  0  0  0  0  0  0
  191.9950  178.2360  143.9710 O   0  0  0  0  0  1  0  0  0  0  0  0
  191.3630  177.3980  141.8300 C   0  0  0  0  0  2  0  0  0  0  0  0
  190.1250  176.7090  141.2750 C   0  0  0  0  0  2  0  0  0  0  0  0
  189.1930  177.7210  140.6280 C   0  0  0  0  0  2  0  0  0  0  0  0
  189.6330  178.0480  139.2080 C   0  0  0  0  0  2  0  0  0  0  0  0
  188.7560  178.9650  138.6280 O   0  0  0  0  0  0  0  0  0  0  0  0
  188.9000  178.7700  137.2550 C   0  0  0  0  0  2  0  0  0  0  0  0
  187.5370  178.8030  136.5910 C   0  0  0  0  0  2  0  0  0  0  0  0
  186.6700  176.7220  137.3770 O   0  0  0  0  0  1  0  0  0  0  0  0
  186.5110  178.1050  137.4650 C   0  0  0  0  0  2  0  0  0  0  0  0
  1  2  1  0  0  0  0
  2  3  1  0  0  0  0
  2 12  1  1  0  0  0
  3 11  1  0  0  0  0
  5  8  2  0  0  0  0
  6  8  1  0  0  0  0
  7  6  1  0  0  0  0
  8  4  1  0  0  0  0
  9  7  1  0  0  0  0
  9  5  1  0  0  0  0
 10  5  1  0  0  0  0
 10  3  2  0  0  0  0
 11  4  2  0  0  0  0
 12 13  1  0  0  0  0
 14  1  1  0  0  0  0
 15 14  1  0  0  0  0
 15 16  1  1  0  0  0
 17 15  1  0  0  0  0
 18 17  1  0  0  0  0
 19 18  1  0  0  0  0
 20 19  1  0  0  0  0
 21 20  1  0  0  0  0
 22 21  1  0  0  0  0
 23 22  1  0  0  0  0
 23 25  1  0  0  0  0
 24 25  1  0  0  0  0
M  END
>  <MODEL>
6

>  <REMARK>
 VINA RESULT:      -6.6      1.374      2.075
  Name = 
  13 active torsions:
  status: ('A' for Active; 'I' for Inactive)
    1  A    between atoms: C_1  and  C_12
    2  A    between atoms: C_2  and  C_10
    3  A    between atoms: C_2  and  O_16
    4  A    between atoms: C_4  and  C_13
    5  A    between atoms: C_4  and  C_18
    6  A    between atoms: C_5  and  C_12
    7  A    between atoms: C_7  and  C_11
    8  A    between atoms: C_7  and  O_16
    9  A    between atoms: C_8  and  C_10
   10  A    between atoms: C_8  and  C_13
   11  A    between atoms: C_11  and  C_25
   12  A    between atoms: C_12  and  N_19
   13  A    between atoms: C_18  and  N_19
                            x       y       z     vdW  Elec       q    Type
                         _______ _______ _______ _____ _____    ______ ____

>  <TORSDO>
F 13

$$$$
=
 OpenBabel11062418103D

 25 26  0  0  1  0  0  0  0  0999 V2000
  186.3660  177.5950  146.0570 N   0  0  0  0  0  2  0  0  0  0  0  0
  187.7980  177.8410  146.1870 C   0  0  2  0  0  3  0  0  0  0  0  0
  188.5290  177.5010  144.9220 C   0  0  0  0  0  0  0  0  0  0  0  0
  188.6520  176.3260  142.7710 C   0  0  0  0  0  3  0  0  0  0  0  0
  190.4690  177.7100  143.5300 C   0  0  0  0  0  0  0  0  0  0  0  0
  190.7910  176.7240  141.5490 O   0  0  0  0  0  0  0  0  0  0  0  0
  191.9700  177.4950  141.8290 C   0  0  0  0  0  2  0  0  0  0  0  0
  189.9150  176.8860  142.6030 C   0  0  0  0  0  0  0  0  0  0  0  0
  191.7200  178.1090  143.1010 O   0  0  0  0  0  0  0  0  0  0  0  0
  189.8110  178.0450  144.7090 C   0  0  0  0  0  3  0  0  0  0  0  0
  187.9550  176.6420  143.9510 C   0  0  0  0  0  3  0  0  0  0  0  0
  188.3790  177.1300  147.4110 C   0  0  0  0  0  2  0  0  0  0  0  0
  188.6810  178.0870  148.5540 C   0  0  0  0  0  1  0  0  0  0  0  0
  185.6840  178.8100  146.4700 C   0  0  0  0  0  2  0  0  0  0  0  0
  184.7240  179.2660  145.3840 C   0  0  2  0  0  3  0  0  0  0  0  0
  183.4100  179.0060  145.7800 O   0  0  0  0  0  1  0  0  0  0  0  0
  185.0340  178.5130  144.1040 C   0  0  0  0  0  2  0  0  0  0  0  0
  184.8180  179.4110  142.8960 C   0  0  0  0  0  2  0  0  0  0  0  0
  185.6820  178.9560  141.7290 C   0  0  0  0  0  2  0  0  0  0  0  0
  184.8330  178.6240  140.5100 C   0  0  0  0  0  2  0  0  0  0  0  0
  185.3000  179.3170  139.3920 O   0  0  0  0  0  0  0  0  0  0  0  0
  185.2250  178.3930  138.3500 C   0  0  0  0  0  2  0  0  0  0  0  0
  186.6160  178.1230  137.8090 C   0  0  0  0  0  2  0  0  0  0  0  0
  186.5720  177.6290  135.4740 O   0  0  0  0  0  1  0  0  0  0  0  0
  186.5620  177.0450  136.7410 C   0  0  0  0  0  2  0  0  0  0  0  0
  1  2  1  0  0  0  0
  1 14  1  0  0  0  0
  2 12  1  1  0  0  0
  3  2  1  0  0  0  0
  4 11  1  0  0  0  0
  5 10  2  0  0  0  0
  6  7  1  0  0  0  0
  6  8  1  0  0  0  0
  7  9  1  0  0  0  0
  8  4  2  0  0  0  0
  8  5  1  0  0  0  0
  9  5  1  0  0  0  0
 10  3  1  0  0  0  0
 11  3  2  0  0  0  0
 12 13  1  0  0  0  0
 15 16  1  1  0  0  0
 15 14  1  0  0  0  0
 17 15  1  0  0  0  0
 18 17  1  0  0  0  0
 19 18  1  0  0  0  0
 20 19  1  0  0  0  0
 21 20  1  0  0  0  0
 22 21  1  0  0  0  0
 23 22  1  0  0  0  0
 24 25  1  0  0  0  0
 25 23  1  0  0  0  0
M  END
>  <MODEL>
7

>  <REMARK>
 VINA RESULT:      -6.5      2.008      5.198
  Name = 
  13 active torsions:
  status: ('A' for Active; 'I' for Inactive)
    1  A    between atoms: C_1  and  C_12
    2  A    between atoms: C_2  and  C_10
    3  A    between atoms: C_2  and  O_16
    4  A    between atoms: C_4  and  C_13
    5  A    between atoms: C_4  and  C_18
    6  A    between atoms: C_5  and  C_12
    7  A    between atoms: C_7  and  C_11
    8  A    between atoms: C_7  and  O_16
    9  A    between atoms: C_8  and  C_10
   10  A    between atoms: C_8  and  C_13
   11  A    between atoms: C_11  and  C_25
   12  A    between atoms: C_12  and  N_19
   13  A    between atoms: C_18  and  N_19
                            x       y       z     vdW  Elec       q    Type
                         _______ _______ _______ _____ _____    ______ ____

>  <TORSDO>
F 13

$$$$
=
 OpenBabel11062418103D

 25 26  0  0  1  0  0  0  0  0999 V2000
  188.7680  176.4070  142.9680 N   0  0  0  0  0  2  0  0  0  0  0  0
  188.7340  176.7770  144.3790 C   0  0  2  0  0  3  0  0  0  0  0  0
  187.4250  177.4110  144.7480 C   0  0  0  0  0  0  0  0  0  0  0  0
  185.9050  178.3620  146.4230 C   0  0  0  0  0  3  0  0  0  0  0  0
  185.2640  178.2260  144.1080 C   0  0  0  0  0  0  0  0  0  0  0  0
  183.7280  179.1170  145.4660 O   0  0  0  0  0  0  0  0  0  0  0  0
  183.1680  179.1180  144.1450 C   0  0  0  0  0  2  0  0  0  0  0  0
  184.9930  178.5700  145.3930 C   0  0  0  0  0  0  0  0  0  0  0  0
  184.1830  178.5440  143.3090 O   0  0  0  0  0  0  0  0  0  0  0  0
  186.4710  177.6410  143.7380 C   0  0  0  0  0  3  0  0  0  0  0  0
  187.1380  177.7720  146.0880 C   0  0  0  0  0  3  0  0  0  0  0  0
  189.9350  177.6450  144.7590 C   0  0  0  0  0  2  0  0  0  0  0  0
  190.6860  177.1070  145.9680 C   0  0  0  0  0  1  0  0  0  0  0  0
  190.1320  176.6060  142.5070 C   0  0  0  0  0  2  0  0  0  0  0  0
  190.1660  176.6760  140.9900 C   0  0  2  0  0  3  0  0  0  0  0  0
  191.4170  177.1330  140.5690 O   0  0  0  0  0  1  0  0  0  0  0  0
  189.0850  177.6270  140.5160 C   0  0  0  0  0  2  0  0  0  0  0  0
  189.4880  178.2730  139.1990 C   0  0  0  0  0  2  0  0  0  0  0  0
  188.3880  178.1060  138.1610 C   0  0  0  0  0  2  0  0  0  0  0  0
  188.0080  176.6420  137.9900 C   0  0  0  0  0  2  0  0  0  0  0  0
  186.7480  176.5350  137.4000 O   0  0  0  0  0  0  0  0  0  0  0  0
  186.2610  177.8420  137.3730 C   0  0  0  0  0  2  0  0  0  0  0  0
  184.8470  177.8690  137.9190 C   0  0  0  0  0  2  0  0  0  0  0  0
  184.4960  179.9250  139.0800 O   0  0  0  0  0  1  0  0  0  0  0  0
  184.8160  178.5790  139.2600 C   0  0  0  0  0  2  0  0  0  0  0  0
  1  2  1  0  0  0  0
  2  3  1  0  0  0  0
  2 12  1  6  0  0  0
  3 11  1  0  0  0  0
  5  8  2  0  0  0  0
  7  6  1  0  0  0  0
  8  6  1  0  0  0  0
  8  4  1  0  0  0  0
  9  5  1  0  0  0  0
  9  7  1  0  0  0  0
 10  5  1  0  0  0  0
 10  3  2  0  0  0  0
 11  4  2  0  0  0  0
 12 13  1  0  0  0  0
 14  1  1  0  0  0  0
 15 16  1  1  0  0  0
 15 14  1  0  0  0  0
 17 15  1  0  0  0  0
 18 17  1  0  0  0  0
 19 18  1  0  0  0  0
 20 19  1  0  0  0  0
 21 20  1  0  0  0  0
 22 21  1  0  0  0  0
 22 23  1  0  0  0  0
 23 25  1  0  0  0  0
 24 25  1  0  0  0  0
M  END
>  <MODEL>
8

>  <REMARK>
 VINA RESULT:      -6.4      1.955      3.165
  Name = 
  13 active torsions:
  status: ('A' for Active; 'I' for Inactive)
    1  A    between atoms: C_1  and  C_12
    2  A    between atoms: C_2  and  C_10
    3  A    between atoms: C_2  and  O_16
    4  A    between atoms: C_4  and  C_13
    5  A    between atoms: C_4  and  C_18
    6  A    between atoms: C_5  and  C_12
    7  A    between atoms: C_7  and  C_11
    8  A    between atoms: C_7  and  O_16
    9  A    between atoms: C_8  and  C_10
   10  A    between atoms: C_8  and  C_13
   11  A    between atoms: C_11  and  C_25
   12  A    between atoms: C_12  and  N_19
   13  A    between atoms: C_18  and  N_19
                            x       y       z     vdW  Elec       q    Type
                         _______ _______ _______ _____ _____    ______ ____

>  <TORSDO>
F 13

$$$$
=
 OpenBabel11062418103D

 25 26  0  0  1  0  0  0  0  0999 V2000
  189.5490  176.7270  146.8990 N   0  0  0  0  0  2  0  0  0  0  0  0
  190.6840  176.9560  146.0120 C   0  0  2  0  0  3  0  0  0  0  0  0
  190.2590  176.9780  144.5730 C   0  0  0  0  0  0  0  0  0  0  0  0
  188.5360  176.7100  142.8470 C   0  0  0  0  0  3  0  0  0  0  0  0
  190.7960  177.2910  142.2580 C   0  0  0  0  0  0  0  0  0  0  0  0
  189.3900  177.0870  140.5320 O   0  0  0  0  0  0  0  0  0  0  0  0
  190.6730  177.4300  139.9870 C   0  0  0  0  0  2  0  0  0  0  0  0
  189.5140  177.0150  141.9050 C   0  0  0  0  0  0  0  0  0  0  0  0
  191.5400  177.5530  141.1240 O   0  0  0  0  0  0  0  0  0  0  0  0
  191.2160  177.2820  143.5850 C   0  0  0  0  0  3  0  0  0  0  0  0
  188.9220  176.6920  144.1990 C   0  0  0  0  0  3  0  0  0  0  0  0
  191.8120  175.9570  146.2760 C   0  0  0  0  0  2  0  0  0  0  0  0
  192.2220  175.9130  147.7410 C   0  0  0  0  0  1  0  0  0  0  0  0
  189.3530  177.9460  147.6670 C   0  0  0  0  0  2  0  0  0  0  0  0
  187.9120  178.0410  148.1380 C   0  0  2  0  0  3  0  0  0  0  0  0
  187.6190  176.9580  148.9710 O   0  0  0  0  0  1  0  0  0  0  0  0
  186.9960  178.0230  146.9290 C   0  0  0  0  0  2  0  0  0  0  0  0
  185.9990  179.1700  147.0040 C   0  0  0  0  0  2  0  0  0  0  0  0
  185.3940  179.4430  145.6350 C   0  0  0  0  0  2  0  0  0  0  0  0
  184.1030  178.6620  145.4370 C   0  0  0  0  0  2  0  0  0  0  0  0
  183.8610  178.4650  144.0760 O   0  0  0  0  0  0  0  0  0  0  0  0
  184.8700  179.1820  143.4330 C   0  0  0  0  0  2  0  0  0  0  0  0
  185.4280  178.3580  142.2880 C   0  0  0  0  0  2  0  0  0  0  0  0
  183.5550  178.9070  140.9150 O   0  0  0  0  0  1  0  0  0  0  0  0
  184.9490  178.9140  140.9600 C   0  0  0  0  0  2  0  0  0  0  0  0
  1 14  1  0  0  0  0
  2 12  1  6  0  0  0
  2  1  1  0  0  0  0
  3  2  1  0  0  0  0
  4 11  2  0  0  0  0
  5 10  1  0  0  0  0
  6  8  1  0  0  0  0
  7  6  1  0  0  0  0
  7  9  1  0  0  0  0
  8  5  2  0  0  0  0
  8  4  1  0  0  0  0
  9  5  1  0  0  0  0
 10  3  2  0  0  0  0
 11  3  1  0  0  0  0
 12 13  1  0  0  0  0
 14 15  1  0  0  0  0
 15 16  1  1  0  0  0
 17 18  1  0  0  0  0
 17 15  1  0  0  0  0
 19 18  1  0  0  0  0
 20 19  1  0  0  0  0
 21 20  1  0  0  0  0
 22 21  1  0  0  0  0
 23 22  1  0  0  0  0
 24 25  1  0  0  0  0
 25 23  1  0  0  0  0
M  END
>  <MODEL>
9

>  <REMARK>
 VINA RESULT:      -6.2      1.888      5.845
  Name = 
  13 active torsions:
  status: ('A' for Active; 'I' for Inactive)
    1  A    between atoms: C_1  and  C_12
    2  A    between atoms: C_2  and  C_10
    3  A    between atoms: C_2  and  O_16
    4  A    between atoms: C_4  and  C_13
    5  A    between atoms: C_4  and  C_18
    6  A    between atoms: C_5  and  C_12
    7  A    between atoms: C_7  and  C_11
    8  A    between atoms: C_7  and  O_16
    9  A    between atoms: C_8  and  C_10
   10  A    between atoms: C_8  and  C_13
   11  A    between atoms: C_11  and  C_25
   12  A    between atoms: C_12  and  N_19
   13  A    between atoms: C_18  and  N_19
                            x       y       z     vdW  Elec       q    Type
                         _______ _______ _______ _____ _____    ______ ____

>  <TORSDO>
F 13

$$$$
