=
 OpenBabel11062412593D

 38 40  0  0  1  0  0  0  0  0999 V2000
  184.5510  179.8520  138.8600 O   0  0  0  0  0  0  0  0  0  0  0  0
  182.4290  175.8260  139.7040 O   0  0  0  0  0  0  0  0  0  0  0  0
  184.0270  178.8930  139.4880 C   0  0  0  0  0  0  0  0  0  0  0  0
  183.5510  177.7150  138.8550 N   0  0  0  0  0  0  0  0  0  0  0  0
  182.8770  176.9910  139.8710 C   0  0  0  0  0  0  0  0  0  0  0  0
  183.8050  178.8970  140.9650 C   0  0  1  0  0  3  0  0  0  0  0  0
  182.8190  177.7240  141.1720 C   0  0  0  0  0  2  0  0  0  0  0  0
  187.4500  177.8900  143.0000 N   0  0  0  0  0  0  0  0  0  0  0  0
  185.1200  178.6620  141.6720 C   0  0  0  0  0  0  0  0  0  0  0  0
  185.1110  178.4170  143.1290 C   0  0  0  0  0  3  0  0  0  0  0  0
  187.6120  178.5610  141.7110 C   0  0  0  0  0  2  0  0  0  0  0  0
  186.2880  178.7270  141.0130 C   0  0  0  0  0  3  0  0  0  0  0  0
  186.2330  178.0500  143.7520 C   0  0  0  0  0  3  0  0  0  0  0  0
  188.5780  177.1150  143.5120 C   0  0  1  0  0  3  0  0  0  0  0  0
  189.6880  176.5520  142.1980 S   0  0  0  0  0  3  0  0  0  0  0  0
  190.3190  175.3030  142.7950 O   0  0  0  0  0  1  0  0  0  0  0  0
  190.9570  177.6900  142.2510 O   0  0  0  0  0  1  0  0  0  0  0  0
  189.3240  177.8390  144.6370 C   0  0  0  0  0  2  0  0  0  0  0  0
  189.4920  176.9930  145.8880 C   0  0  2  0  0  3  0  0  0  0  0  0
  188.7080  177.6270  147.0190 C   0  0  0  0  0  1  0  0  0  0  0  0
  192.5800  176.0710  147.6600 N   0  0  0  0  0  2  0  0  0  0  0  0
  191.3260  176.1640  147.3720 C   0  0  0  0  0  3  0  0  0  0  0  0
  190.9030  176.9230  146.2400 N   0  0  0  0  0  2  0  0  0  0  0  0
  184.0060  177.1360  137.5890 C   0  0  1  0  0  3  0  0  0  0  0  0
  183.0650  177.4590  136.4360 C   0  0  0  0  0  1  0  0  0  0  0  0
  185.4940  177.4340  137.3280 C   0  0  0  0  0  2  0  0  0  0  0  0
  186.3150  176.2370  137.1650 N   0  0  0  0  0  0  0  0  0  0  0  0
  188.1310  177.6400  137.9800 C   0  0  0  0  0  3  0  0  0  0  0  0
  190.7700  174.8220  135.2450 Cl  0  0  0  0  0  0  0  0  0  0  0  0
  189.9120  175.5720  136.5690 C   0  0  0  0  0  0  0  0  0  0  0  0
  190.4310  176.9520  138.6040 C   0  0  0  0  0  3  0  0  0  0  0  0
  189.5370  179.1830  138.9490 F   0  0  0  0  0  0  0  0  0  0  0  0
  188.5940  175.7380  136.4450 C   0  0  0  0  0  3  0  0  0  0  0  0
  190.6810  175.9290  137.7780 C   0  0  0  0  0  3  0  0  0  0  0  0
  187.7260  176.2640  137.5440 C   0  0  2  0  0  3  0  0  0  0  0  0
  189.3310  177.9300  138.4810 C   0  0  0  0  0  0  0  0  0  0  0  0
  185.6720  175.0270  136.8510 C   0  0  0  0  0  0  0  0  0  0  0  0
  185.1440  174.0280  136.5900 N   0  0  0  0  0  0  0  0  0  0  0  0
  1  3  2  0  0  0  0
  2  5  2  0  0  0  0
  3  6  1  0  0  0  0
  4  3  1  0  0  0  0
  4  5  1  0  0  0  0
  5  7  1  0  0  0  0
  6  7  1  0  0  0  0
  6  9  1  1  0  0  0
  8 14  1  0  0  0  0
  8 13  1  0  0  0  0
  9 10  1  0  0  0  0
 10 13  2  0  0  0  0
 11  8  1  0  0  0  0
 12  9  2  0  0  0  0
 12 11  1  0  0  0  0
 14 18  1  1  0  0  0
 15 17  1  0  0  0  0
 15 16  1  0  0  0  0
 15 14  1  0  0  0  0
 18 19  1  0  0  0  0
 19 23  1  0  0  0  0
 19 20  1  1  0  0  0
 22 21  2  0  0  0  0
 23 22  1  0  0  0  0
 24 25  1  6  0  0  0
 24  4  1  0  0  0  0
 26 24  1  0  0  0  0
 27 26  1  0  0  0  0
 28 36  2  0  0  0  0
 29 30  1  0  0  0  0
 30 34  1  0  0  0  0
 33 30  2  0  0  0  0
 33 35  1  0  0  0  0
 34 31  2  0  0  0  0
 35 27  1  6  0  0  0
 35 28  1  0  0  0  0
 36 31  1  0  0  0  0
 36 32  1  0  0  0  0
 37 27  1  0  0  0  0
 38 37  3  0  0  0  0
M  END
>  <MODEL>
1

>  <REMARK>
 VINA RESULT:      -7.8      0.000      0.000
  Name = 
  11 active torsions:
  status: ('A' for Active; 'I' for Inactive)
    1  A    between atoms: C_1  and  C_15
    2  A    between atoms: C_1  and  C_19
    3  A    between atoms: N_3  and  C_15
    4  A    between atoms: S_4  and  C_15
    5  A    between atoms: C_6  and  C_37
    6  A    between atoms: N_11  and  C_14
    7  A    between atoms: N_11  and  C_22
    8  A    between atoms: N_11  and  C_31
    9  A    between atoms: C_12  and  N_29
   10  A    between atoms: C_12  and  C_31
   11  A    between atoms: C_19  and  N_32
                            x       y       z     vdW  Elec       q    Type
                         _______ _______ _______ _____ _____    ______ ____

>  <TORSDO>
F 11

$$$$
=
 OpenBabel11062412593D

 38 40  0  0  1  0  0  0  0  0999 V2000
  188.7980  179.1120  138.6890 O   0  0  0  0  0  0  0  0  0  0  0  0
  191.4310  175.3320  138.2440 O   0  0  0  0  0  0  0  0  0  0  0  0
  189.3260  178.0840  138.1870 C   0  0  0  0  0  0  0  0  0  0  0  0
  190.2020  177.2280  138.9070 N   0  0  0  0  0  0  0  0  0  0  0  0
  190.7120  176.3210  137.9440 C   0  0  0  0  0  0  0  0  0  0  0  0
  189.1280  177.6630  136.7680 C   0  0  1  0  0  3  0  0  0  0  0  0
  190.2500  176.6200  136.5550 C   0  0  0  0  0  2  0  0  0  0  0  0
  185.1940  175.9450  136.6720 N   0  0  0  0  0  0  0  0  0  0  0  0
  187.7540  177.0540  136.6110 C   0  0  0  0  0  0  0  0  0  0  0  0
  187.5520  175.6430  137.0010 C   0  0  0  0  0  3  0  0  0  0  0  0
  185.3810  177.1390  135.8490 C   0  0  0  0  0  2  0  0  0  0  0  0
  186.7380  177.7490  136.0760 C   0  0  0  0  0  3  0  0  0  0  0  0
  186.3230  175.1250  137.0250 C   0  0  0  0  0  3  0  0  0  0  0  0
  183.8310  175.5910  137.0610 C   0  0  1  0  0  3  0  0  0  0  0  0
  183.5600  173.8010  137.0930 S   0  0  0  0  0  3  0  0  0  0  0  0
  183.6570  173.4140  135.6250 O   0  0  0  0  0  1  0  0  0  0  0  0
  181.8900  173.6700  137.4170 O   0  0  0  0  0  1  0  0  0  0  0  0
  183.3980  176.2710  138.3630 C   0  0  0  0  0  2  0  0  0  0  0  0
  182.3270  177.3290  138.1610 C   0  0  2  0  0  3  0  0  0  0  0  0
  181.6780  177.1190  136.8070 C   0  0  0  0  0  1  0  0  0  0  0  0
  184.5430  180.0820  139.1760 N   0  0  0  0  0  2  0  0  0  0  0  0
  183.9810  178.9210  139.1500 C   0  0  0  0  0  3  0  0  0  0  0  0
  182.9330  178.6510  138.2210 N   0  0  0  0  0  2  0  0  0  0  0  0
  190.2480  177.0110  140.3550 C   0  0  1  0  0  3  0  0  0  0  0  0
  191.4290  177.7200  141.0060 C   0  0  0  0  0  1  0  0  0  0  0  0
  188.8810  177.2690  141.0140 C   0  0  0  0  0  2  0  0  0  0  0  0
  188.7940  176.7960  142.3930 N   0  0  0  0  0  0  0  0  0  0  0  0
  186.8540  178.2580  142.5650 C   0  0  0  0  0  3  0  0  0  0  0  0
  187.8610  178.1000  147.1850 Cl  0  0  0  0  0  0  0  0  0  0  0  0
  187.2160  177.8250  145.5850 C   0  0  0  0  0  0  0  0  0  0  0  0
  185.0940  178.2620  144.3130 C   0  0  0  0  0  3  0  0  0  0  0  0
  185.0160  179.6180  142.3000 F   0  0  0  0  0  0  0  0  0  0  0  0
  188.0750  177.5340  144.6070 C   0  0  0  0  0  3  0  0  0  0  0  0
  185.7510  177.8720  145.4120 C   0  0  0  0  0  3  0  0  0  0  0  0
  187.6480  177.1690  143.2210 C   0  0  2  0  0  3  0  0  0  0  0  0
  185.6980  178.7170  143.0440 C   0  0  0  0  0  0  0  0  0  0  0  0
  189.7070  175.8150  142.8190 C   0  0  0  0  0  0  0  0  0  0  0  0
  190.4600  175.0050  143.1670 N   0  0  0  0  0  0  0  0  0  0  0  0
  3  1  2  0  0  0  0
  3  4  1  0  0  0  0
  4 24  1  0  0  0  0
  5  2  2  0  0  0  0
  5  4  1  0  0  0  0
  6  9  1  1  0  0  0
  6  3  1  0  0  0  0
  7  6  1  0  0  0  0
  7  5  1  0  0  0  0
  8 13  1  0  0  0  0
  8 14  1  0  0  0  0
  9 10  1  0  0  0  0
 10 13  2  0  0  0  0
 11 12  1  0  0  0  0
 11  8  1  0  0  0  0
 12  9  2  0  0  0  0
 14 15  1  0  0  0  0
 14 18  1  1  0  0  0
 15 17  1  0  0  0  0
 16 15  1  0  0  0  0
 19 20  1  6  0  0  0
 19 23  1  0  0  0  0
 19 18  1  0  0  0  0
 22 21  2  0  0  0  0
 23 22  1  0  0  0  0
 24 25  1  1  0  0  0
 24 26  1  0  0  0  0
 26 27  1  0  0  0  0
 27 37  1  0  0  0  0
 28 36  2  0  0  0  0
 28 35  1  0  0  0  0
 30 29  1  0  0  0  0
 31 34  2  0  0  0  0
 32 36  1  0  0  0  0
 33 30  2  0  0  0  0
 34 30  1  0  0  0  0
 35 27  1  6  0  0  0
 35 33  1  0  0  0  0
 36 31  1  0  0  0  0
 37 38  3  0  0  0  0
M  END
>  <MODEL>
2

>  <REMARK>
 VINA RESULT:      -7.4      3.440      8.360
  Name = 
  11 active torsions:
  status: ('A' for Active; 'I' for Inactive)
    1  A    between atoms: C_1  and  C_15
    2  A    between atoms: C_1  and  C_19
    3  A    between atoms: N_3  and  C_15
    4  A    between atoms: S_4  and  C_15
    5  A    between atoms: C_6  and  C_37
    6  A    between atoms: N_11  and  C_14
    7  A    between atoms: N_11  and  C_22
    8  A    between atoms: N_11  and  C_31
    9  A    between atoms: C_12  and  N_29
   10  A    between atoms: C_12  and  C_31
   11  A    between atoms: C_19  and  N_32
                            x       y       z     vdW  Elec       q    Type
                         _______ _______ _______ _____ _____    ______ ____

>  <TORSDO>
F 11

$$$$
=
 OpenBabel11062412593D

 38 40  0  0  1  0  0  0  0  0999 V2000
  187.6930  175.6310  137.5890 O   0  0  0  0  0  0  0  0  0  0  0  0
  187.1930  180.1030  136.5030 O   0  0  0  0  0  0  0  0  0  0  0  0
  187.9590  176.8530  137.4330 C   0  0  0  0  0  0  0  0  0  0  0  0
  187.0000  177.8100  137.0050 N   0  0  0  0  0  0  0  0  0  0  0  0
  187.7360  179.0000  136.7760 C   0  0  0  0  0  0  0  0  0  0  0  0
  189.3190  177.4360  137.6360 C   0  0  1  0  0  3  0  0  0  0  0  0
  189.2080  178.8230  136.9620 C   0  0  0  0  0  2  0  0  0  0  0  0
  189.8830  177.5030  141.8930 N   0  0  0  0  0  0  0  0  0  0  0  0
  189.6010  177.5480  139.1160 C   0  0  0  0  0  0  0  0  0  0  0  0
  188.5900  178.1830  139.9870 C   0  0  0  0  0  3  0  0  0  0  0  0
  191.0940  177.3030  141.0990 C   0  0  0  0  0  2  0  0  0  0  0  0
  190.7680  177.1370  139.6390 C   0  0  0  0  0  3  0  0  0  0  0  0
  188.7370  178.1550  141.3130 C   0  0  0  0  0  3  0  0  0  0  0  0
  189.9040  177.0790  143.2900 C   0  0  1  0  0  3  0  0  0  0  0  0
  191.5850  176.8250  143.9140 S   0  0  0  0  0  3  0  0  0  0  0  0
  191.7250  175.3100  143.9130 O   0  0  0  0  0  1  0  0  0  0  0  0
  191.4410  177.2000  145.5720 O   0  0  0  0  0  1  0  0  0  0  0  0
  189.0780  177.9980  144.1950 C   0  0  0  0  0  2  0  0  0  0  0  0
  187.9580  177.2740  144.9240 C   0  0  2  0  0  3  0  0  0  0  0  0
  186.9140  176.8410  143.9150 C   0  0  0  0  0  1  0  0  0  0  0  0
  185.4300  178.9070  147.0360 N   0  0  0  0  0  2  0  0  0  0  0  0
  185.9530  178.1410  146.1410 C   0  0  0  0  0  3  0  0  0  0  0  0
  187.3600  178.1690  145.9050 N   0  0  0  0  0  2  0  0  0  0  0  0
  185.5470  177.7560  137.1790 C   0  0  1  0  0  3  0  0  0  0  0  0
  184.8730  176.8810  136.1300 C   0  0  0  0  0  1  0  0  0  0  0  0
  185.1570  177.4520  138.6370 C   0  0  0  0  0  2  0  0  0  0  0  0
  184.4230  178.5340  139.2890 N   0  0  0  0  0  0  0  0  0  0  0  0
  182.9140  180.3960  138.8560 C   0  0  0  0  0  3  0  0  0  0  0  0
  179.6040  177.2570  140.1100 Cl  0  0  0  0  0  0  0  0  0  0  0  0
  180.7270  178.2730  139.2400 C   0  0  0  0  0  0  0  0  0  0  0  0
  180.6710  180.3300  137.7980 C   0  0  0  0  0  3  0  0  0  0  0  0
  181.8470  182.3770  138.3730 F   0  0  0  0  0  0  0  0  0  0  0  0
  182.0210  178.1800  139.5470 C   0  0  0  0  0  3  0  0  0  0  0  0
  180.1910  179.1380  138.1700 C   0  0  0  0  0  3  0  0  0  0  0  0
  183.0960  178.9090  138.8050 C   0  0  2  0  0  3  0  0  0  0  0  0
  181.8410  181.0230  138.3750 C   0  0  0  0  0  0  0  0  0  0  0  0
  184.9240  179.0410  140.5010 C   0  0  0  0  0  0  0  0  0  0  0  0
  185.3390  179.4570  141.5000 N   0  0  0  0  0  0  0  0  0  0  0  0
  2  5  2  0  0  0  0
  3  1  2  0  0  0  0
  3  6  1  0  0  0  0
  4 24  1  0  0  0  0
  4  3  1  0  0  0  0
  5  7  1  0  0  0  0
  5  4  1  0  0  0  0
  6  9  1  1  0  0  0
  7  6  1  0  0  0  0
  8 14  1  0  0  0  0
  9 12  2  0  0  0  0
  9 10  1  0  0  0  0
 10 13  2  0  0  0  0
 11  8  1  0  0  0  0
 12 11  1  0  0  0  0
 13  8  1  0  0  0  0
 14 15  1  0  0  0  0
 14 18  1  1  0  0  0
 15 17  1  0  0  0  0
 16 15  1  0  0  0  0
 18 19  1  0  0  0  0
 19 20  1  6  0  0  0
 19 23  1  0  0  0  0
 22 21  2  0  0  0  0
 23 22  1  0  0  0  0
 24 25  1  6  0  0  0
 24 26  1  0  0  0  0
 26 27  1  0  0  0  0
 27 37  1  0  0  0  0
 30 33  2  0  0  0  0
 30 29  1  0  0  0  0
 31 34  2  0  0  0  0
 31 36  1  0  0  0  0
 32 36  1  0  0  0  0
 34 30  1  0  0  0  0
 35 28  1  0  0  0  0
 35 27  1  1  0  0  0
 35 33  1  0  0  0  0
 36 28  2  0  0  0  0
 37 38  3  0  0  0  0
M  END
>  <MODEL>
3

>  <REMARK>
 VINA RESULT:      -7.3      3.415      5.988
  Name = 
  11 active torsions:
  status: ('A' for Active; 'I' for Inactive)
    1  A    between atoms: C_1  and  C_15
    2  A    between atoms: C_1  and  C_19
    3  A    between atoms: N_3  and  C_15
    4  A    between atoms: S_4  and  C_15
    5  A    between atoms: C_6  and  C_37
    6  A    between atoms: N_11  and  C_14
    7  A    between atoms: N_11  and  C_22
    8  A    between atoms: N_11  and  C_31
    9  A    between atoms: C_12  and  N_29
   10  A    between atoms: C_12  and  C_31
   11  A    between atoms: C_19  and  N_32
                            x       y       z     vdW  Elec       q    Type
                         _______ _______ _______ _____ _____    ______ ____

>  <TORSDO>
F 11

$$$$
=
 OpenBabel11062412593D

 38 40  0  0  1  0  0  0  0  0999 V2000
  188.2350  175.5520  143.0040 O   0  0  0  0  0  0  0  0  0  0  0  0
  190.7140  179.2480  144.2770 O   0  0  0  0  0  0  0  0  0  0  0  0
  188.5750  176.6040  143.6090 C   0  0  0  0  0  0  0  0  0  0  0  0
  189.7420  177.3460  143.2840 N   0  0  0  0  0  0  0  0  0  0  0  0
  189.8580  178.3240  144.3040 C   0  0  0  0  0  0  0  0  0  0  0  0
  187.8190  177.1730  144.7640 C   0  0  1  0  0  3  0  0  0  0  0  0
  188.8190  178.1860  145.3690 C   0  0  0  0  0  2  0  0  0  0  0  0
  184.1810  178.8000  143.1620 N   0  0  0  0  0  0  0  0  0  0  0  0
  186.5660  177.8510  144.2590 C   0  0  0  0  0  0  0  0  0  0  0  0
  186.4950  178.2480  142.8380 C   0  0  0  0  0  3  0  0  0  0  0  0
  184.3220  178.8800  144.6150 C   0  0  0  0  0  2  0  0  0  0  0  0
  185.5490  178.1460  145.0850 C   0  0  0  0  0  3  0  0  0  0  0  0
  185.3500  178.7010  142.3260 C   0  0  0  0  0  3  0  0  0  0  0  0
  182.8350  178.8840  142.6010 C   0  0  1  0  0  3  0  0  0  0  0  0
  182.7180  178.1310  140.9590 S   0  0  0  0  0  3  0  0  0  0  0  0
  182.7540  179.3330  140.0270 O   0  0  0  0  0  1  0  0  0  0  0  0
  181.0890  177.6300  140.8800 O   0  0  0  0  0  1  0  0  0  0  0  0
  181.7650  178.3590  143.5630 C   0  0  0  0  0  2  0  0  0  0  0  0
  180.7010  179.3890  143.8970 C   0  0  2  0  0  3  0  0  0  0  0  0
  179.4010  178.6710  144.2040 C   0  0  0  0  0  1  0  0  0  0  0  0
  179.0490  181.3430  141.2560 N   0  0  0  0  0  2  0  0  0  0  0  0
  179.2140  180.5210  142.2360 C   0  0  0  0  0  3  0  0  0  0  0  0
  180.5180  180.2840  142.7640 N   0  0  0  0  0  2  0  0  0  0  0  0
  190.4260  177.4130  141.9910 C   0  0  1  0  0  3  0  0  0  0  0  0
  191.9060  177.0690  142.1030 C   0  0  0  0  0  1  0  0  0  0  0  0
  189.6550  176.6530  140.8970 C   0  0  0  0  0  2  0  0  0  0  0  0
  190.0520  177.0110  139.5380 N   0  0  0  0  0  0  0  0  0  0  0  0
  191.9540  176.7700  138.0350 C   0  0  0  0  0  3  0  0  0  0  0  0
  189.2220  173.4620  136.0390 Cl  0  0  0  0  0  0  0  0  0  0  0  0
  190.3930  174.3350  136.9970 C   0  0  0  0  0  0  0  0  0  0  0  0
  192.8800  174.6810  137.0680 C   0  0  0  0  0  3  0  0  0  0  0  0
  193.9160  176.8660  136.8370 F   0  0  0  0  0  0  0  0  0  0  0  0
  189.9490  175.3180  137.7820 C   0  0  0  0  0  3  0  0  0  0  0  0
  191.8020  173.9000  136.9320 C   0  0  0  0  0  3  0  0  0  0  0  0
  190.8260  176.0690  138.7330 C   0  0  2  0  0  3  0  0  0  0  0  0
  192.8830  176.1370  137.3200 C   0  0  0  0  0  0  0  0  0  0  0  0
  189.4940  178.1670  138.9650 C   0  0  0  0  0  0  0  0  0  0  0  0
  189.0370  179.1210  138.4910 N   0  0  0  0  0  0  0  0  0  0  0  0
  1  3  2  0  0  0  0
  2  5  2  0  0  0  0
  3  6  1  0  0  0  0
  4  3  1  0  0  0  0
  4  5  1  0  0  0  0
  5  7  1  0  0  0  0
  6  9  1  6  0  0  0
  6  7  1  0  0  0  0
  8 11  1  0  0  0  0
  9 12  2  0  0  0  0
 10  9  1  0  0  0  0
 11 12  1  0  0  0  0
 13 10  2  0  0  0  0
 13  8  1  0  0  0  0
 14  8  1  0  0  0  0
 14 18  1  1  0  0  0
 15 14  1  0  0  0  0
 16 15  1  0  0  0  0
 17 15  1  0  0  0  0
 18 19  1  0  0  0  0
 19 20  1  6  0  0  0
 21 22  2  0  0  0  0
 22 23  1  0  0  0  0
 23 19  1  0  0  0  0
 24 25  1  1  0  0  0
 24  4  1  0  0  0  0
 26 24  1  0  0  0  0
 27 26  1  0  0  0  0
 28 35  1  0  0  0  0
 29 30  1  0  0  0  0
 30 33  2  0  0  0  0
 31 36  1  0  0  0  0
 32 36  1  0  0  0  0
 33 35  1  0  0  0  0
 34 30  1  0  0  0  0
 34 31  2  0  0  0  0
 35 27  1  6  0  0  0
 36 28  2  0  0  0  0
 37 27  1  0  0  0  0
 38 37  3  0  0  0  0
M  END
>  <MODEL>
4

>  <REMARK>
 VINA RESULT:      -7.3      3.284      7.176
  Name = 
  11 active torsions:
  status: ('A' for Active; 'I' for Inactive)
    1  A    between atoms: C_1  and  C_15
    2  A    between atoms: C_1  and  C_19
    3  A    between atoms: N_3  and  C_15
    4  A    between atoms: S_4  and  C_15
    5  A    between atoms: C_6  and  C_37
    6  A    between atoms: N_11  and  C_14
    7  A    between atoms: N_11  and  C_22
    8  A    between atoms: N_11  and  C_31
    9  A    between atoms: C_12  and  N_29
   10  A    between atoms: C_12  and  C_31
   11  A    between atoms: C_19  and  N_32
                            x       y       z     vdW  Elec       q    Type
                         _______ _______ _______ _____ _____    ______ ____

>  <TORSDO>
F 11

$$$$
=
 OpenBabel11062412593D

 38 40  0  0  1  0  0  0  0  0999 V2000
  189.0560  179.4600  138.5590 O   0  0  0  0  0  0  0  0  0  0  0  0
  190.2150  174.9980  138.1460 O   0  0  0  0  0  0  0  0  0  0  0  0
  189.1200  178.2860  138.1060 C   0  0  0  0  0  0  0  0  0  0  0  0
  189.8050  177.2320  138.7680 N   0  0  0  0  0  0  0  0  0  0  0  0
  189.8010  176.1500  137.8520 C   0  0  0  0  0  0  0  0  0  0  0  0
  188.5230  177.8700  136.8020 C   0  0  1  0  0  3  0  0  0  0  0  0
  189.1920  176.5020  136.5330 C   0  0  0  0  0  2  0  0  0  0  0  0
  184.3080  177.1690  137.2330 N   0  0  0  0  0  0  0  0  0  0  0  0
  187.0240  177.7460  136.9530 C   0  0  0  0  0  0  0  0  0  0  0  0
  186.2280  177.2840  135.7970 C   0  0  0  0  0  3  0  0  0  0  0  0
  184.9070  178.0470  138.2380 C   0  0  0  0  0  2  0  0  0  0  0  0
  186.4040  178.0990  138.0910 C   0  0  0  0  0  3  0  0  0  0  0  0
  184.9300  177.0130  135.9450 C   0  0  0  0  0  3  0  0  0  0  0  0
  183.0420  176.5190  137.5640 C   0  0  1  0  0  3  0  0  0  0  0  0
  182.9810  174.7960  137.0120 S   0  0  0  0  0  3  0  0  0  0  0  0
  181.7680  174.2440  137.7450 O   0  0  0  0  0  1  0  0  0  0  0  0
  184.2910  174.0800  137.8390 O   0  0  0  0  0  1  0  0  0  0  0  0
  182.6720  176.6730  139.0420 C   0  0  0  0  0  2  0  0  0  0  0  0
  181.2550  177.1760  139.2570 C   0  0  2  0  0  3  0  0  0  0  0  0
  180.9790  178.3010  138.2800 C   0  0  0  0  0  1  0  0  0  0  0  0
  180.5890  179.4310  142.0840 N   0  0  0  0  0  2  0  0  0  0  0  0
  180.7510  179.0150  140.8740 C   0  0  0  0  0  3  0  0  0  0  0  0
  181.1130  177.6580  140.6240 N   0  0  0  0  0  2  0  0  0  0  0  0
  190.0660  177.1010  140.2030 C   0  0  1  0  0  3  0  0  0  0  0  0
  191.4770  177.5410  140.5750 C   0  0  0  0  0  1  0  0  0  0  0  0
  188.9390  177.7220  141.0480 C   0  0  0  0  0  2  0  0  0  0  0  0
  188.9130  177.2530  142.4310 N   0  0  0  0  0  0  0  0  0  0  0  0
  188.0150  177.0990  144.6900 C   0  0  0  0  0  3  0  0  0  0  0  0
  183.9680  178.2860  142.5450 Cl  0  0  0  0  0  0  0  0  0  0  0  0
  185.4890  178.2850  143.4040 C   0  0  0  0  0  0  0  0  0  0  0  0
  186.3170  178.5560  145.7610 C   0  0  0  0  0  3  0  0  0  0  0  0
  187.5610  176.8290  146.9300 F   0  0  0  0  0  0  0  0  0  0  0  0
  186.5520  177.7640  142.7910 C   0  0  0  0  0  3  0  0  0  0  0  0
  185.5300  178.9140  144.7390 C   0  0  0  0  0  3  0  0  0  0  0  0
  187.9320  177.8000  143.3670 C   0  0  2  0  0  3  0  0  0  0  0  0
  187.3120  177.4650  145.7610 C   0  0  0  0  0  0  0  0  0  0  0  0
  189.6910  176.1320  142.7680 C   0  0  0  0  0  0  0  0  0  0  0  0
  190.3290  175.2060  143.0470 N   0  0  0  0  0  0  0  0  0  0  0  0
  3  1  2  0  0  0  0
  3  4  1  0  0  0  0
  4 24  1  0  0  0  0
  5  2  2  0  0  0  0
  5  4  1  0  0  0  0
  6  9  1  1  0  0  0
  6  3  1  0  0  0  0
  7  6  1  0  0  0  0
  7  5  1  0  0  0  0
  8 14  1  0  0  0  0
  8 11  1  0  0  0  0
  9 12  2  0  0  0  0
 10 13  2  0  0  0  0
 10  9  1  0  0  0  0
 12 11  1  0  0  0  0
 13  8  1  0  0  0  0
 14 18  1  1  0  0  0
 15 14  1  0  0  0  0
 15 16  1  0  0  0  0
 15 17  1  0  0  0  0
 18 19  1  0  0  0  0
 19 20  1  6  0  0  0
 19 23  1  0  0  0  0
 22 21  2  0  0  0  0
 23 22  1  0  0  0  0
 24 25  1  6  0  0  0
 24 26  1  0  0  0  0
 26 27  1  0  0  0  0
 27 37  1  0  0  0  0
 28 36  2  0  0  0  0
 29 30  1  0  0  0  0
 30 34  1  0  0  0  0
 31 36  1  0  0  0  0
 33 35  1  0  0  0  0
 33 30  2  0  0  0  0
 34 31  2  0  0  0  0
 35 27  1  6  0  0  0
 35 28  1  0  0  0  0
 36 32  1  0  0  0  0
 37 38  3  0  0  0  0
M  END
>  <MODEL>
5

>  <REMARK>
 VINA RESULT:      -7.2      3.521      8.213
  Name = 
  11 active torsions:
  status: ('A' for Active; 'I' for Inactive)
    1  A    between atoms: C_1  and  C_15
    2  A    between atoms: C_1  and  C_19
    3  A    between atoms: N_3  and  C_15
    4  A    between atoms: S_4  and  C_15
    5  A    between atoms: C_6  and  C_37
    6  A    between atoms: N_11  and  C_14
    7  A    between atoms: N_11  and  C_22
    8  A    between atoms: N_11  and  C_31
    9  A    between atoms: C_12  and  N_29
   10  A    between atoms: C_12  and  C_31
   11  A    between atoms: C_19  and  N_32
                            x       y       z     vdW  Elec       q    Type
                         _______ _______ _______ _____ _____    ______ ____

>  <TORSDO>
F 11

$$$$
=
 OpenBabel11062412593D

 38 40  0  0  1  0  0  0  0  0999 V2000
  189.7230  175.7700  136.7670 O   0  0  0  0  0  0  0  0  0  0  0  0
  186.8530  179.3840  136.4130 O   0  0  0  0  0  0  0  0  0  0  0  0
  189.2150  176.9080  136.9580 C   0  0  0  0  0  0  0  0  0  0  0  0
  187.9930  177.3240  136.3640 N   0  0  0  0  0  0  0  0  0  0  0  0
  187.8790  178.7040  136.6730 C   0  0  0  0  0  0  0  0  0  0  0  0
  189.8530  177.9680  137.7950 C   0  0  1  0  0  3  0  0  0  0  0  0
  189.0700  179.2410  137.4000 C   0  0  0  0  0  2  0  0  0  0  0  0
  189.6430  177.1890  142.0130 N   0  0  0  0  0  0  0  0  0  0  0  0
  189.6770  177.6270  139.2570 C   0  0  0  0  0  0  0  0  0  0  0  0
  190.6030  176.6570  139.8770 C   0  0  0  0  0  3  0  0  0  0  0  0
  188.4380  177.7650  141.4170 C   0  0  0  0  0  2  0  0  0  0  0  0
  188.6700  178.1440  139.9790 C   0  0  0  0  0  3  0  0  0  0  0  0
  190.5750  176.4560  141.1960 C   0  0  0  0  0  3  0  0  0  0  0  0
  189.8270  177.3320  143.4550 C   0  0  1  0  0  3  0  0  0  0  0  0
  191.4310  178.0520  143.8830 S   0  0  0  0  0  3  0  0  0  0  0  0
  191.6670  177.5480  145.2990 O   0  0  0  0  0  1  0  0  0  0  0  0
  191.0630  179.7020  144.1170 O   0  0  0  0  0  1  0  0  0  0  0  0
  188.6600  178.0640  144.1240 C   0  0  0  0  0  2  0  0  0  0  0  0
  187.9430  177.2240  145.1670 C   0  0  2  0  0  3  0  0  0  0  0  0
  186.4740  177.6010  145.1770 C   0  0  0  0  0  1  0  0  0  0  0  0
  188.2100  177.9490  148.7620 N   0  0  0  0  0  2  0  0  0  0  0  0
  187.6930  177.7670  147.5950 C   0  0  0  0  0  3  0  0  0  0  0  0
  188.5280  177.4720  146.4770 N   0  0  0  0  0  2  0  0  0  0  0  0
  186.8810  176.4800  135.9260 C   0  0  1  0  0  3  0  0  0  0  0  0
  187.3180  175.4320  134.9100 C   0  0  0  0  0  1  0  0  0  0  0  0
  186.0680  175.9410  137.1170 C   0  0  0  0  0  2  0  0  0  0  0  0
  184.6320  176.1810  137.0080 N   0  0  0  0  0  0  0  0  0  0  0  0
  184.8110  177.8660  138.7570 C   0  0  0  0  0  3  0  0  0  0  0  0
  180.0970  177.9530  138.3610 Cl  0  0  0  0  0  0  0  0  0  0  0  0
  181.8120  178.2570  138.2200 C   0  0  0  0  0  0  0  0  0  0  0  0
  183.4910  179.9510  139.0110 C   0  0  0  0  0  3  0  0  0  0  0  0
  185.3980  179.3700  140.3970 F   0  0  0  0  0  0  0  0  0  0  0  0
  182.5920  177.2560  137.8120 C   0  0  0  0  0  3  0  0  0  0  0  0
  182.2970  179.6230  138.5030 C   0  0  0  0  0  3  0  0  0  0  0  0
  184.0560  177.4120  137.5440 C   0  0  2  0  0  3  0  0  0  0  0  0
  184.5710  179.0160  139.3860 C   0  0  0  0  0  0  0  0  0  0  0  0
  183.8740  175.3190  136.1960 C   0  0  0  0  0  0  0  0  0  0  0  0
  183.2510  174.6080  135.5250 N   0  0  0  0  0  0  0  0  0  0  0  0
  1  3  2  0  0  0  0
  2  5  2  0  0  0  0
  3  6  1  0  0  0  0
  4  5  1  0  0  0  0
  4  3  1  0  0  0  0
  5  7  1  0  0  0  0
  6  9  1  1  0  0  0
  7  6  1  0  0  0  0
  8 14  1  0  0  0  0
  9 10  1  0  0  0  0
  9 12  2  0  0  0  0
 10 13  2  0  0  0  0
 11  8  1  0  0  0  0
 12 11  1  0  0  0  0
 13  8  1  0  0  0  0
 14 15  1  0  0  0  0
 14 18  1  6  0  0  0
 15 17  1  0  0  0  0
 15 16  1  0  0  0  0
 18 19  1  0  0  0  0
 19 20  1  1  0  0  0
 19 23  1  0  0  0  0
 22 21  2  0  0  0  0
 23 22  1  0  0  0  0
 24 25  1  1  0  0  0
 24  4  1  0  0  0  0
 24 26  1  0  0  0  0
 27 26  1  0  0  0  0
 28 36  2  0  0  0  0
 30 29  1  0  0  0  0
 30 34  1  0  0  0  0
 31 36  1  0  0  0  0
 33 30  2  0  0  0  0
 34 31  2  0  0  0  0
 35 27  1  1  0  0  0
 35 33  1  0  0  0  0
 35 28  1  0  0  0  0
 36 32  1  0  0  0  0
 37 27  1  0  0  0  0
 38 37  3  0  0  0  0
M  END
>  <MODEL>
6

>  <REMARK>
 VINA RESULT:      -7.1      3.096      5.154
  Name = 
  11 active torsions:
  status: ('A' for Active; 'I' for Inactive)
    1  A    between atoms: C_1  and  C_15
    2  A    between atoms: C_1  and  C_19
    3  A    between atoms: N_3  and  C_15
    4  A    between atoms: S_4  and  C_15
    5  A    between atoms: C_6  and  C_37
    6  A    between atoms: N_11  and  C_14
    7  A    between atoms: N_11  and  C_22
    8  A    between atoms: N_11  and  C_31
    9  A    between atoms: C_12  and  N_29
   10  A    between atoms: C_12  and  C_31
   11  A    between atoms: C_19  and  N_32
                            x       y       z     vdW  Elec       q    Type
                         _______ _______ _______ _____ _____    ______ ____

>  <TORSDO>
F 11

$$$$
=
 OpenBabel11062412593D

 38 40  0  0  1  0  0  0  0  0999 V2000
  188.1990  175.3880  143.2140 O   0  0  0  0  0  0  0  0  0  0  0  0
  190.3740  179.0200  145.0850 O   0  0  0  0  0  0  0  0  0  0  0  0
  188.3920  176.4630  143.8450 C   0  0  0  0  0  0  0  0  0  0  0  0
  189.6560  177.1080  143.9140 N   0  0  0  0  0  0  0  0  0  0  0  0
  189.4900  178.1540  144.8570 C   0  0  0  0  0  0  0  0  0  0  0  0
  187.3310  177.1630  144.6270 C   0  0  1  0  0  3  0  0  0  0  0  0
  188.1370  178.1590  145.4930 C   0  0  0  0  0  2  0  0  0  0  0  0
  184.6360  178.8740  141.7530 N   0  0  0  0  0  0  0  0  0  0  0  0
  186.3920  177.8720  143.6780 C   0  0  0  0  0  0  0  0  0  0  0  0
  186.8720  178.2090  142.3220 C   0  0  0  0  0  3  0  0  0  0  0  0
  184.2360  179.0120  143.1530 C   0  0  0  0  0  2  0  0  0  0  0  0
  185.1610  178.2470  144.0620 C   0  0  0  0  0  3  0  0  0  0  0  0
  186.0220  178.6880  141.4120 C   0  0  0  0  0  3  0  0  0  0  0  0
  183.5980  178.9920  140.7330 C   0  0  1  0  0  3  0  0  0  0  0  0
  184.2580  179.5060  139.1270 S   0  0  0  0  0  3  0  0  0  0  0  0
  183.3240  180.6360  138.7190 O   0  0  0  0  0  1  0  0  0  0  0  0
  183.7950  178.2290  138.0940 O   0  0  0  0  0  1  0  0  0  0  0  0
  182.7290  177.7350  140.6320 C   0  0  0  0  0  2  0  0  0  0  0  0
  181.2430  178.0210  140.7650 C   0  0  2  0  0  3  0  0  0  0  0  0
  180.5990  177.9230  139.3960 C   0  0  0  0  0  1  0  0  0  0  0  0
  179.6740  180.8770  142.4690 N   0  0  0  0  0  2  0  0  0  0  0  0
  179.8270  179.7050  141.9540 C   0  0  0  0  0  3  0  0  0  0  0  0
  181.0520  179.3580  141.3090 N   0  0  0  0  0  2  0  0  0  0  0  0
  190.7500  177.0340  142.9440 C   0  0  1  0  0  3  0  0  0  0  0  0
  191.3540  175.6380  142.8620 C   0  0  0  0  0  1  0  0  0  0  0  0
  190.3600  177.6620  141.5940 C   0  0  0  0  0  2  0  0  0  0  0  0
  191.0470  177.0720  140.4480 N   0  0  0  0  0  0  0  0  0  0  0  0
  191.1820  175.8510  138.3450 C   0  0  0  0  0  3  0  0  0  0  0  0
  187.2270  178.2520  137.3590 Cl  0  0  0  0  0  0  0  0  0  0  0  0
  188.3990  177.0560  137.8550 C   0  0  0  0  0  0  0  0  0  0  0  0
  189.3240  174.8730  137.0240 C   0  0  0  0  0  3  0  0  0  0  0  0
  191.6760  174.5440  136.5170 F   0  0  0  0  0  0  0  0  0  0  0  0
  189.2890  177.4030  138.7860 C   0  0  0  0  0  3  0  0  0  0  0  0
  188.3050  175.7070  137.2620 C   0  0  0  0  0  3  0  0  0  0  0  0
  190.2730  176.4450  139.3790 C   0  0  2  0  0  3  0  0  0  0  0  0
  190.7500  175.1240  137.3150 C   0  0  0  0  0  0  0  0  0  0  0  0
  192.4240  177.3140  140.3010 C   0  0  0  0  0  0  0  0  0  0  0  0
  193.5580  177.5130  140.1760 N   0  0  0  0  0  0  0  0  0  0  0  0
  1  3  2  0  0  0  0
  3  4  1  0  0  0  0
  3  6  1  0  0  0  0
  4  5  1  0  0  0  0
  5  2  2  0  0  0  0
  5  7  1  0  0  0  0
  6  9  1  6  0  0  0
  6  7  1  0  0  0  0
  8 11  1  0  0  0  0
  9 12  2  0  0  0  0
 10  9  1  0  0  0  0
 11 12  1  0  0  0  0
 13  8  1  0  0  0  0
 13 10  2  0  0  0  0
 14 18  1  6  0  0  0
 14  8  1  0  0  0  0
 15 14  1  0  0  0  0
 16 15  1  0  0  0  0
 17 15  1  0  0  0  0
 18 19  1  0  0  0  0
 19 20  1  6  0  0  0
 19 23  1  0  0  0  0
 22 21  2  0  0  0  0
 23 22  1  0  0  0  0
 24 25  1  6  0  0  0
 24  4  1  0  0  0  0
 26 24  1  0  0  0  0
 27 26  1  0  0  0  0
 28 35  1  0  0  0  0
 29 30  1  0  0  0  0
 30 33  2  0  0  0  0
 31 34  2  0  0  0  0
 31 36  1  0  0  0  0
 32 36  1  0  0  0  0
 33 35  1  0  0  0  0
 34 30  1  0  0  0  0
 35 27  1  1  0  0  0
 36 28  2  0  0  0  0
 37 27  1  0  0  0  0
 38 37  3  0  0  0  0
M  END
>  <MODEL>
7

>  <REMARK>
 VINA RESULT:      -7.1      2.984      7.340
  Name = 
  11 active torsions:
  status: ('A' for Active; 'I' for Inactive)
    1  A    between atoms: C_1  and  C_15
    2  A    between atoms: C_1  and  C_19
    3  A    between atoms: N_3  and  C_15
    4  A    between atoms: S_4  and  C_15
    5  A    between atoms: C_6  and  C_37
    6  A    between atoms: N_11  and  C_14
    7  A    between atoms: N_11  and  C_22
    8  A    between atoms: N_11  and  C_31
    9  A    between atoms: C_12  and  N_29
   10  A    between atoms: C_12  and  C_31
   11  A    between atoms: C_19  and  N_32
                            x       y       z     vdW  Elec       q    Type
                         _______ _______ _______ _____ _____    ______ ____

>  <TORSDO>
F 11

$$$$
=
 OpenBabel11062412593D

 38 40  0  0  1  0  0  0  0  0999 V2000
  187.5430  175.5850  137.5810 O   0  0  0  0  0  0  0  0  0  0  0  0
  187.1220  180.0630  136.4890 O   0  0  0  0  0  0  0  0  0  0  0  0
  187.8340  176.7990  137.4110 C   0  0  0  0  0  0  0  0  0  0  0  0
  186.8870  177.7780  137.0070 N   0  0  0  0  0  0  0  0  0  0  0  0
  187.6450  178.9480  136.7510 C   0  0  0  0  0  0  0  0  0  0  0  0
  189.2140  177.3480  137.5720 C   0  0  1  0  0  3  0  0  0  0  0  0
  189.1180  178.7350  136.8950 C   0  0  0  0  0  2  0  0  0  0  0  0
  189.9120  177.4090  141.8090 N   0  0  0  0  0  0  0  0  0  0  0  0
  189.5410  177.4600  139.0430 C   0  0  0  0  0  0  0  0  0  0  0  0
  188.5490  178.0760  139.9480 C   0  0  0  0  0  3  0  0  0  0  0  0
  191.1010  177.2300  140.9760 C   0  0  0  0  0  2  0  0  0  0  0  0
  190.7300  177.0650  139.5260 C   0  0  0  0  0  3  0  0  0  0  0  0
  188.7390  178.0450  141.2690 C   0  0  0  0  0  3  0  0  0  0  0  0
  189.9850  176.9800  143.2030 C   0  0  1  0  0  3  0  0  0  0  0  0
  191.6880  176.7350  143.7670 S   0  0  0  0  0  3  0  0  0  0  0  0
  191.7520  175.2370  144.0240 O   0  0  0  0  0  1  0  0  0  0  0  0
  191.6720  177.3970  145.3400 O   0  0  0  0  0  1  0  0  0  0  0  0
  189.1840  177.8900  144.1390 C   0  0  0  0  0  2  0  0  0  0  0  0
  188.1580  177.1410  144.9720 C   0  0  2  0  0  3  0  0  0  0  0  0
  186.7950  177.7650  144.7500 C   0  0  0  0  0  1  0  0  0  0  0  0
  187.9340  177.8690  148.5700 N   0  0  0  0  0  2  0  0  0  0  0  0
  187.6290  177.8290  147.3180 C   0  0  0  0  0  3  0  0  0  0  0  0
  188.5200  177.2260  146.3800 N   0  0  0  0  0  2  0  0  0  0  0  0
  185.4390  177.7600  137.2230 C   0  0  1  0  0  3  0  0  0  0  0  0
  184.6890  177.1390  136.0520 C   0  0  0  0  0  1  0  0  0  0  0  0
  185.0750  177.1980  138.6090 C   0  0  0  0  0  2  0  0  0  0  0  0
  184.2750  178.1090  139.4230 N   0  0  0  0  0  0  0  0  0  0  0  0
  182.3360  178.2670  140.8890 C   0  0  0  0  0  3  0  0  0  0  0  0
  180.8480  174.5470  138.3730 Cl  0  0  0  0  0  0  0  0  0  0  0  0
  181.1590  176.1460  139.0040 C   0  0  0  0  0  0  0  0  0  0  0  0
  179.9490  177.9200  140.3080 C   0  0  0  0  0  3  0  0  0  0  0  0
  180.7220  178.7320  142.4630 F   0  0  0  0  0  0  0  0  0  0  0  0
  182.4290  176.5440  139.0970 C   0  0  0  0  0  3  0  0  0  0  0  0
  179.9990  176.9930  139.3440 C   0  0  0  0  0  3  0  0  0  0  0  0
  182.8280  177.9240  139.5150 C   0  0  2  0  0  3  0  0  0  0  0  0
  181.0470  178.2930  141.2240 C   0  0  0  0  0  0  0  0  0  0  0  0
  184.9460  179.0090  140.2690 C   0  0  0  0  0  0  0  0  0  0  0  0
  185.5020  179.7500  140.9660 N   0  0  0  0  0  0  0  0  0  0  0  0
  2  5  2  0  0  0  0
  3  6  1  0  0  0  0
  3  1  2  0  0  0  0
  4 24  1  0  0  0  0
  4  3  1  0  0  0  0
  5  7  1  0  0  0  0
  5  4  1  0  0  0  0
  6  9  1  1  0  0  0
  7  6  1  0  0  0  0
  8 14  1  0  0  0  0
  9 12  2  0  0  0  0
  9 10  1  0  0  0  0
 10 13  2  0  0  0  0
 11  8  1  0  0  0  0
 12 11  1  0  0  0  0
 13  8  1  0  0  0  0
 14 15  1  0  0  0  0
 14 18  1  1  0  0  0
 15 16  1  0  0  0  0
 15 17  1  0  0  0  0
 18 19  1  0  0  0  0
 19 20  1  1  0  0  0
 19 23  1  0  0  0  0
 22 21  2  0  0  0  0
 23 22  1  0  0  0  0
 24 25  1  6  0  0  0
 24 26  1  0  0  0  0
 26 27  1  0  0  0  0
 27 37  1  0  0  0  0
 28 36  2  0  0  0  0
 29 30  1  0  0  0  0
 30 33  2  0  0  0  0
 30 34  1  0  0  0  0
 31 36  1  0  0  0  0
 33 35  1  0  0  0  0
 34 31  2  0  0  0  0
 35 27  1  1  0  0  0
 35 28  1  0  0  0  0
 36 32  1  0  0  0  0
 37 38  3  0  0  0  0
M  END
>  <MODEL>
8

>  <REMARK>
 VINA RESULT:      -7.0      3.169      5.746
  Name = 
  11 active torsions:
  status: ('A' for Active; 'I' for Inactive)
    1  A    between atoms: C_1  and  C_15
    2  A    between atoms: C_1  and  C_19
    3  A    between atoms: N_3  and  C_15
    4  A    between atoms: S_4  and  C_15
    5  A    between atoms: C_6  and  C_37
    6  A    between atoms: N_11  and  C_14
    7  A    between atoms: N_11  and  C_22
    8  A    between atoms: N_11  and  C_31
    9  A    between atoms: C_12  and  N_29
   10  A    between atoms: C_12  and  C_31
   11  A    between atoms: C_19  and  N_32
                            x       y       z     vdW  Elec       q    Type
                         _______ _______ _______ _____ _____    ______ ____

>  <TORSDO>
F 11

$$$$
=
 OpenBabel11062412593D

 38 40  0  0  1  0  0  0  0  0999 V2000
  188.3030  175.5430  142.9840 O   0  0  0  0  0  0  0  0  0  0  0  0
  190.6320  179.3740  144.1330 O   0  0  0  0  0  0  0  0  0  0  0  0
  188.6060  176.6220  143.5610 C   0  0  0  0  0  0  0  0  0  0  0  0
  189.7310  177.4090  143.1980 N   0  0  0  0  0  0  0  0  0  0  0  0
  189.8210  178.4130  144.1960 C   0  0  0  0  0  0  0  0  0  0  0  0
  187.8460  177.1800  144.7200 C   0  0  1  0  0  3  0  0  0  0  0  0
  188.8100  178.2490  145.2850 C   0  0  0  0  0  2  0  0  0  0  0  0
  184.1220  178.6160  143.1350 N   0  0  0  0  0  0  0  0  0  0  0  0
  186.5540  177.7890  144.2270 C   0  0  0  0  0  0  0  0  0  0  0  0
  186.4750  178.2550  142.8270 C   0  0  0  0  0  3  0  0  0  0  0  0
  184.2340  178.6280  144.5930 C   0  0  0  0  0  2  0  0  0  0  0  0
  185.5060  177.9630  145.0470 C   0  0  0  0  0  3  0  0  0  0  0  0
  185.3070  178.6490  142.3180 C   0  0  0  0  0  3  0  0  0  0  0  0
  182.7820  178.6300  142.5530 C   0  0  1  0  0  3  0  0  0  0  0  0
  181.5300  179.2450  143.7070 S   0  0  0  0  0  3  0  0  0  0  0  0
  180.6720  178.0160  143.9690 O   0  0  0  0  0  1  0  0  0  0  0  0
  180.5320  180.2090  142.7150 O   0  0  0  0  0  1  0  0  0  0  0  0
  182.7370  179.3510  141.2030 C   0  0  0  0  0  2  0  0  0  0  0  0
  182.3440  178.4430  140.0500 C   0  0  2  0  0  3  0  0  0  0  0  0
  181.6310  177.2250  140.6040 C   0  0  0  0  0  1  0  0  0  0  0  0
  185.6060  178.6230  138.3630 N   0  0  0  0  0  2  0  0  0  0  0  0
  184.5310  178.9940  138.9710 C   0  0  0  0  0  3  0  0  0  0  0  0
  183.5380  178.0330  139.3260 N   0  0  0  0  0  2  0  0  0  0  0  0
  190.3850  177.4810  141.8910 C   0  0  1  0  0  3  0  0  0  0  0  0
  191.8570  177.0920  141.9610 C   0  0  0  0  0  1  0  0  0  0  0  0
  189.5670  176.7630  140.8020 C   0  0  0  0  0  2  0  0  0  0  0  0
  189.9870  177.0850  139.4410 N   0  0  0  0  0  0  0  0  0  0  0  0
  191.9490  176.7210  138.0440 C   0  0  0  0  0  3  0  0  0  0  0  0
  189.0840  173.6960  135.8030 Cl  0  0  0  0  0  0  0  0  0  0  0  0
  190.2620  174.4480  136.8510 C   0  0  0  0  0  0  0  0  0  0  0  0
  192.7610  174.5860  137.0760 C   0  0  0  0  0  3  0  0  0  0  0  0
  193.9810  176.6830  136.9650 F   0  0  0  0  0  0  0  0  0  0  0  0
  189.8530  175.4460  137.6350 C   0  0  0  0  0  3  0  0  0  0  0  0
  191.6330  173.9000  136.8560 C   0  0  0  0  0  3  0  0  0  0  0  0
  190.7290  176.1000  138.6560 C   0  0  2  0  0  3  0  0  0  0  0  0
  192.8660  176.0310  137.3670 C   0  0  0  0  0  0  0  0  0  0  0  0
  189.4780  178.2520  138.8450 C   0  0  0  0  0  0  0  0  0  0  0  0
  189.0550  179.2130  138.3540 N   0  0  0  0  0  0  0  0  0  0  0  0
  1  3  2  0  0  0  0
  2  5  2  0  0  0  0
  3  6  1  0  0  0  0
  4  3  1  0  0  0  0
  4  5  1  0  0  0  0
  5  7  1  0  0  0  0
  6  9  1  6  0  0  0
  6  7  1  0  0  0  0
  8 11  1  0  0  0  0
  9 12  2  0  0  0  0
 10  9  1  0  0  0  0
 11 12  1  0  0  0  0
 13 10  2  0  0  0  0
 13  8  1  0  0  0  0
 14 18  1  6  0  0  0
 14  8  1  0  0  0  0
 14 15  1  0  0  0  0
 15 16  1  0  0  0  0
 17 15  1  0  0  0  0
 19 20  1  1  0  0  0
 19 18  1  0  0  0  0
 21 22  2  0  0  0  0
 22 23  1  0  0  0  0
 23 19  1  0  0  0  0
 24 25  1  1  0  0  0
 24  4  1  0  0  0  0
 26 24  1  0  0  0  0
 27 26  1  0  0  0  0
 28 35  1  0  0  0  0
 29 30  1  0  0  0  0
 30 34  1  0  0  0  0
 30 33  2  0  0  0  0
 31 36  1  0  0  0  0
 32 36  1  0  0  0  0
 33 35  1  0  0  0  0
 34 31  2  0  0  0  0
 35 27  1  6  0  0  0
 36 28  2  0  0  0  0
 37 27  1  0  0  0  0
 38 37  3  0  0  0  0
M  END
>  <MODEL>
9

>  <REMARK>
 VINA RESULT:      -7.0      3.021      6.872
  Name = 
  11 active torsions:
  status: ('A' for Active; 'I' for Inactive)
    1  A    between atoms: C_1  and  C_15
    2  A    between atoms: C_1  and  C_19
    3  A    between atoms: N_3  and  C_15
    4  A    between atoms: S_4  and  C_15
    5  A    between atoms: C_6  and  C_37
    6  A    between atoms: N_11  and  C_14
    7  A    between atoms: N_11  and  C_22
    8  A    between atoms: N_11  and  C_31
    9  A    between atoms: C_12  and  N_29
   10  A    between atoms: C_12  and  C_31
   11  A    between atoms: C_19  and  N_32
                            x       y       z     vdW  Elec       q    Type
                         _______ _______ _______ _____ _____    ______ ____

>  <TORSDO>
F 11

$$$$
