=
 OpenBabel11062413053D

 40 45  0  0  1  0  0  0  0  0999 V2000
  188.3210  177.2600  145.0790 C   0  0  0  0  0  0  0  0  0  0  0  0
  190.6980  178.0070  142.7350 C   0  0  0  0  0  0  0  0  0  0  0  0
  191.3690  179.1750  143.2450 N   0  0  0  0  0  0  0  0  0  0  0  0
  191.1390  179.3060  144.4930 N   0  0  0  0  0  2  0  0  0  0  0  0
  190.3280  178.2100  144.8770 C   0  0  1  0  0  3  0  0  0  0  0  0
  189.2560  178.2520  145.6570 C   0  0  0  0  0  3  0  0  0  0  0  0
  190.1140  177.3770  143.7520 C   0  0  1  0  0  3  0  0  0  0  0  0
  188.1040  175.8300  143.0140 C   0  0  0  0  0  1  0  0  0  0  0  0
  188.7970  176.7880  143.9230 C   0  0  1  0  0  3  0  0  0  0  0  0
  188.3880  178.8370  141.2840 F   0  0  0  0  0  0  0  0  0  0  0  0
  190.2270  177.2150  138.5510 C   0  0  0  0  0  3  0  0  0  0  0  0
  189.2080  177.9060  139.2260 C   0  0  0  0  0  0  0  0  0  0  0  0
  190.5090  177.7300  141.2940 C   0  0  0  0  0  0  0  0  0  0  0  0
  189.3570  178.1700  140.6070 C   0  0  0  0  0  0  0  0  0  0  0  0
  191.5110  177.0510  140.5870 C   0  0  0  0  0  3  0  0  0  0  0  0
  192.4420  176.0690  138.4920 C   0  0  0  0  0  1  0  0  0  0  0  0
  191.3710  176.7920  139.2250 C   0  0  0  0  0  0  0  0  0  0  0  0
  186.7070  177.8840  138.8200 N   0  0  0  0  0  2  0  0  0  0  0  0
  188.0150  178.3380  138.4590 C   0  0  0  0  0  0  0  0  0  0  0  0
  188.1530  179.1150  137.4750 O   0  0  0  0  0  0  0  0  0  0  0  0
  185.4960  178.3370  138.1480 C   0  0  0  0  0  2  0  0  0  0  0  0
  184.2660  178.0820  139.0150 C   0  0  0  0  0  2  0  0  0  0  0  0
  182.2820  179.4720  138.5140 C   0  0  0  0  0  1  0  0  0  0  0  0
  183.5460  179.3810  139.3410 C   0  0  2  0  0  3  0  0  0  0  0  0
  184.3660  180.4690  139.0490 O   0  0  0  0  0  1  0  0  0  0  0  0
  186.9870  176.9240  145.6590 C   0  0  0  0  0  2  0  0  0  0  0  0
  185.9560  177.8790  145.1620 C   0  0  0  0  0  0  0  0  0  0  0  0
  184.3030  179.2980  145.0380 N   0  0  0  0  0  0  0  0  0  0  0  0
  184.4460  180.4000  144.0450 C   0  0  0  0  0  2  0  0  0  0  0  0
  184.5550  179.1110  143.6020 C   0  0  1  0  0  0  0  0  0  0  0  0
  185.7700  178.2010  143.8420 C   0  0  0  0  0  3  0  0  0  0  0  0
  184.9660  178.5580  145.9940 C   0  0  0  0  0  0  0  0  0  0  0  0
  184.6340  178.3810  147.1950 O   0  0  0  0  0  0  0  0  0  0  0  0
  183.3260  178.4660  142.9840 C   0  0  0  0  0  2  0  0  0  0  0  0
  182.1400  178.9860  143.5760 O   0  0  0  0  0  0  0  0  0  0  0  0
  179.2360  180.5910  142.0970 C   0  0  0  0  0  2  0  0  0  0  0  0
  181.0000  179.3030  142.8350 C   0  0  0  0  0  0  0  0  0  0  0  0
  180.3740  180.4220  142.9780 N   0  0  0  0  0  0  0  0  0  0  0  0
  180.3650  178.1950  141.5980 S   0  0  0  0  0  0  0  0  0  0  0  0
  179.4060  179.6010  140.9540 C   0  0  0  0  0  2  0  0  0  0  0  0
  1  6  2  0  0  0  0
  1 26  1  0  0  0  0
  2  3  2  0  0  0  0
  3  4  1  0  0  0  0
  4  5  1  0  0  0  0
  5  6  1  6  0  0  0
  7  2  1  6  0  0  0
  7  9  1  0  0  0  0
  7  5  1  0  0  0  0
  9  8  1  1  0  0  0
  9  1  1  0  0  0  0
 11 17  2  0  0  0  0
 11 12  1  0  0  0  0
 12 14  2  0  0  0  0
 13  2  1  0  0  0  0
 14 10  1  0  0  0  0
 14 13  1  0  0  0  0
 15 13  2  0  0  0  0
 16 17  1  0  0  0  0
 17 15  1  0  0  0  0
 19 18  1  0  0  0  0
 19 12  1  0  0  0  0
 20 19  2  0  0  0  0
 21 18  1  0  0  0  0
 21 22  1  0  0  0  0
 22 24  1  0  0  0  0
 24 23  1  6  0  0  0
 25 24  1  0  0  0  0
 27 26  1  0  0  0  0
 27 32  1  0  0  0  0
 28 32  1  0  0  0  0
 29 28  1  0  0  0  0
 30 34  1  6  0  0  0
 30 31  1  0  0  0  0
 30 29  1  0  0  0  0
 30 28  1  0  0  0  0
 31 27  2  0  0  0  0
 32 33  2  0  0  0  0
 34 35  1  0  0  0  0
 36 38  1  0  0  0  0
 37 38  2  0  0  0  0
 37 35  1  0  0  0  0
 39 37  1  0  0  0  0
 40 39  1  0  0  0  0
 40 36  1  0  0  0  0
M  END
>  <MODEL>
1

>  <REMARK>
 VINA RESULT:      -8.5      0.000      0.000
  Name = 
  10 active torsions:
  status: ('A' for Active; 'I' for Inactive)
    1  A    between atoms: C_1  and  C_17
    2  A    between atoms: C_2  and  C_17
    3  A    between atoms: C_6  and  C_15
    4  A    between atoms: C_7  and  C_18
    5  A    between atoms: C_11  and  C_15
    6  A    between atoms: C_11  and  N_22
    7  A    between atoms: O_14  and  C_21
    8  A    between atoms: O_14  and  C_35
    9  A    between atoms: C_16  and  C_36
   10  A    between atoms: C_19  and  C_35
                            x       y       z     vdW  Elec       q    Type
                         _______ _______ _______ _____ _____    ______ ____

>  <TORSDO>
F 10

$$$$
=
 OpenBabel11062413053D

 40 45  0  0  1  0  0  0  0  0999 V2000
  184.5660  178.9280  143.8420 C   0  0  0  0  0  0  0  0  0  0  0  0
  183.7270  178.8500  140.5260 C   0  0  0  0  0  0  0  0  0  0  0  0
  184.8960  179.3290  139.8360 N   0  0  0  0  0  0  0  0  0  0  0  0
  185.9180  179.2590  140.5970 N   0  0  0  0  0  2  0  0  0  0  0  0
  185.4780  178.6970  141.8210 C   0  0  1  0  0  3  0  0  0  0  0  0
  185.7980  179.1080  143.0410 C   0  0  0  0  0  3  0  0  0  0  0  0
  184.0970  178.3980  141.7230 C   0  0  1  0  0  3  0  0  0  0  0  0
  182.1330  178.3680  143.4880 C   0  0  0  0  0  1  0  0  0  0  0  0
  183.5460  178.5690  143.0560 C   0  0  1  0  0  3  0  0  0  0  0  0
  183.0080  180.9660  138.7560 F   0  0  0  0  0  0  0  0  0  0  0  0
  179.7080  179.4030  139.1460 C   0  0  0  0  0  3  0  0  0  0  0  0
  180.7000  180.2950  138.7100 C   0  0  0  0  0  0  0  0  0  0  0  0
  182.3430  179.0680  140.0500 C   0  0  0  0  0  0  0  0  0  0  0  0
  182.0280  180.1190  139.1620 C   0  0  0  0  0  0  0  0  0  0  0  0
  181.3300  178.1890  140.4580 C   0  0  0  0  0  3  0  0  0  0  0  0
  178.9580  177.4170  140.4570 C   0  0  0  0  0  1  0  0  0  0  0  0
  180.0200  178.3560  140.0110 C   0  0  0  0  0  0  0  0  0  0  0  0
  179.5230  182.4890  138.2390 N   0  0  0  0  0  2  0  0  0  0  0  0
  180.3160  181.3880  137.7850 C   0  0  0  0  0  0  0  0  0  0  0  0
  180.6910  181.3470  136.5810 O   0  0  0  0  0  0  0  0  0  0  0  0
  179.1810  183.6240  137.3910 C   0  0  0  0  0  2  0  0  0  0  0  0
  179.9240  184.8790  137.8380 C   0  0  0  0  0  2  0  0  0  0  0  0
  180.8770  184.6450  135.5680 C   0  0  0  0  0  1  0  0  0  0  0  0
  181.1500  185.1300  136.9750 C   0  0  2  0  0  3  0  0  0  0  0  0
  182.2470  184.4460  137.4930 O   0  0  0  0  0  1  0  0  0  0  0  0
  184.4630  179.2150  145.3030 C   0  0  0  0  0  2  0  0  0  0  0  0
  185.6640  178.6930  146.0150 C   0  0  0  0  0  0  0  0  0  0  0  0
  187.2890  178.3960  147.4420 N   0  0  0  0  0  0  0  0  0  0  0  0
  187.6610  176.9850  147.7410 C   0  0  0  0  0  2  0  0  0  0  0  0
  187.6780  177.3960  146.4370 C   0  0  1  0  0  0  0  0  0  0  0  0
  186.4270  177.6400  145.5790 C   0  0  0  0  0  3  0  0  0  0  0  0
  186.2310  179.2560  147.2370 C   0  0  0  0  0  0  0  0  0  0  0  0
  185.9940  180.3380  147.8360 O   0  0  0  0  0  0  0  0  0  0  0  0
  189.0120  177.8150  145.8420 C   0  0  0  0  0  2  0  0  0  0  0  0
  188.8490  178.2080  144.4840 O   0  0  0  0  0  0  0  0  0  0  0  0
  190.1900  177.0170  141.3250 C   0  0  0  0  0  2  0  0  0  0  0  0
  189.6580  177.7260  143.4530 C   0  0  0  0  0  0  0  0  0  0  0  0
  189.1960  177.4730  142.2750 N   0  0  0  0  0  0  0  0  0  0  0  0
  191.4040  177.4790  143.6870 S   0  0  0  0  0  0  0  0  0  0  0  0
  191.5510  177.4210  141.8740 C   0  0  0  0  0  2  0  0  0  0  0  0
  1 26  1  0  0  0  0
  3  2  2  0  0  0  0
  3  4  1  0  0  0  0
  4  5  1  0  0  0  0
  5  6  1  1  0  0  0
  6  1  2  0  0  0  0
  7  2  1  6  0  0  0
  7  5  1  0  0  0  0
  7  9  1  0  0  0  0
  9  8  1  1  0  0  0
  9  1  1  0  0  0  0
 10 14  1  0  0  0  0
 11 17  1  0  0  0  0
 12 11  2  0  0  0  0
 12 14  1  0  0  0  0
 13 15  1  0  0  0  0
 13  2  1  0  0  0  0
 14 13  2  0  0  0  0
 17 16  1  0  0  0  0
 17 15  2  0  0  0  0
 19 18  1  0  0  0  0
 19 12  1  0  0  0  0
 20 19  2  0  0  0  0
 21 22  1  0  0  0  0
 21 18  1  0  0  0  0
 24 23  1  6  0  0  0
 24 25  1  0  0  0  0
 24 22  1  0  0  0  0
 26 27  1  0  0  0  0
 27 32  1  0  0  0  0
 28 29  1  0  0  0  0
 30 34  1  6  0  0  0
 30 28  1  0  0  0  0
 30 29  1  0  0  0  0
 31 27  2  0  0  0  0
 31 30  1  0  0  0  0
 32 28  1  0  0  0  0
 32 33  2  0  0  0  0
 35 34  1  0  0  0  0
 36 40  1  0  0  0  0
 36 38  1  0  0  0  0
 37 39  1  0  0  0  0
 37 35  1  0  0  0  0
 38 37  2  0  0  0  0
 40 39  1  0  0  0  0
M  END
>  <MODEL>
2

>  <REMARK>
 VINA RESULT:      -8.3      3.531      7.635
  Name = 
  10 active torsions:
  status: ('A' for Active; 'I' for Inactive)
    1  A    between atoms: C_1  and  C_17
    2  A    between atoms: C_2  and  C_17
    3  A    between atoms: C_6  and  C_15
    4  A    between atoms: C_7  and  C_18
    5  A    between atoms: C_11  and  C_15
    6  A    between atoms: C_11  and  N_22
    7  A    between atoms: O_14  and  C_21
    8  A    between atoms: O_14  and  C_35
    9  A    between atoms: C_16  and  C_36
   10  A    between atoms: C_19  and  C_35
                            x       y       z     vdW  Elec       q    Type
                         _______ _______ _______ _____ _____    ______ ____

>  <TORSDO>
F 10

$$$$
=
 OpenBabel11062413053D

 40 45  0  0  1  0  0  0  0  0999 V2000
  188.5120  177.3130  145.1940 C   0  0  0  0  0  0  0  0  0  0  0  0
  190.7000  177.8360  142.6160 C   0  0  0  0  0  0  0  0  0  0  0  0
  191.4550  179.0000  143.0000 N   0  0  0  0  0  0  0  0  0  0  0  0
  191.3400  179.2070  144.2540 N   0  0  0  0  0  2  0  0  0  0  0  0
  190.5270  178.1660  144.7670 C   0  0  1  0  0  3  0  0  0  0  0  0
  189.5300  178.2940  145.6330 C   0  0  0  0  0  3  0  0  0  0  0  0
  190.1840  177.2850  143.7130 C   0  0  1  0  0  3  0  0  0  0  0  0
  188.0610  175.7870  143.2370 C   0  0  0  0  0  1  0  0  0  0  0  0
  188.8670  176.7620  144.0290 C   0  0  1  0  0  3  0  0  0  0  0  0
  188.2020  178.4760  141.3990 F   0  0  0  0  0  0  0  0  0  0  0  0
  189.8310  176.8530  138.5370 C   0  0  0  0  0  3  0  0  0  0  0  0
  188.8510  177.5120  139.2960 C   0  0  0  0  0  0  0  0  0  0  0  0
  190.3740  177.4920  141.2140 C   0  0  0  0  0  0  0  0  0  0  0  0
  189.1310  177.8390  140.6420 C   0  0  0  0  0  0  0  0  0  0  0  0
  191.3340  176.8430  140.4250 C   0  0  0  0  0  3  0  0  0  0  0  0
  192.0930  175.8320  138.2750 C   0  0  0  0  0  1  0  0  0  0  0  0
  191.0650  176.5230  139.0960 C   0  0  0  0  0  0  0  0  0  0  0  0
  187.1780  177.2380  137.4120 N   0  0  0  0  0  2  0  0  0  0  0  0
  187.5580  177.8450  138.6500 C   0  0  0  0  0  0  0  0  0  0  0  0
  186.7830  178.6760  139.1980 O   0  0  0  0  0  0  0  0  0  0  0  0
  185.8890  177.4740  136.7750 C   0  0  0  0  0  2  0  0  0  0  0  0
  185.3720  176.2030  136.1080 C   0  0  0  0  0  2  0  0  0  0  0  0
  185.8790  173.9380  136.9610 C   0  0  0  0  0  1  0  0  0  0  0  0
  184.9960  175.1530  137.1410 C   0  0  2  0  0  3  0  0  0  0  0  0
  183.6620  174.7820  136.9810 O   0  0  0  0  0  1  0  0  0  0  0  0
  187.2230  177.0640  145.9040 C   0  0  0  0  0  2  0  0  0  0  0  0
  186.1540  177.9450  145.3520 C   0  0  0  0  0  0  0  0  0  0  0  0
  184.4000  179.2240  145.1350 N   0  0  0  0  0  0  0  0  0  0  0  0
  184.5230  180.3640  144.1840 C   0  0  0  0  0  2  0  0  0  0  0  0
  184.7740  179.1030  143.7190 C   0  0  1  0  0  0  0  0  0  0  0  0
  186.0410  178.2910  144.0300 C   0  0  0  0  0  3  0  0  0  0  0  0
  185.0500  178.5130  146.1210 C   0  0  0  0  0  0  0  0  0  0  0  0
  184.6450  178.2720  147.2880 O   0  0  0  0  0  0  0  0  0  0  0  0
  183.6540  178.3770  142.9920 C   0  0  0  0  0  2  0  0  0  0  0  0
  184.1130  177.8830  141.7390 O   0  0  0  0  0  0  0  0  0  0  0  0
  182.8240  179.3330  138.6670 C   0  0  0  0  0  2  0  0  0  0  0  0
  183.4510  178.1370  140.5350 C   0  0  0  0  0  0  0  0  0  0  0  0
  183.5500  179.2660  139.9190 N   0  0  0  0  0  0  0  0  0  0  0  0
  182.4630  176.8880  139.7430 S   0  0  0  0  0  0  0  0  0  0  0  0
  182.5500  177.9000  138.2330 C   0  0  0  0  0  2  0  0  0  0  0  0
  1  6  2  0  0  0  0
  1 26  1  0  0  0  0
  2  3  2  0  0  0  0
  3  4  1  0  0  0  0
  4  5  1  0  0  0  0
  5  6  1  6  0  0  0
  7  2  1  6  0  0  0
  7  9  1  0  0  0  0
  7  5  1  0  0  0  0
  9  8  1  1  0  0  0
  9  1  1  0  0  0  0
 11 17  2  0  0  0  0
 11 12  1  0  0  0  0
 12 14  2  0  0  0  0
 13  2  1  0  0  0  0
 14 13  1  0  0  0  0
 14 10  1  0  0  0  0
 15 13  2  0  0  0  0
 16 17  1  0  0  0  0
 17 15  1  0  0  0  0
 18 19  1  0  0  0  0
 19 20  2  0  0  0  0
 19 12  1  0  0  0  0
 21 18  1  0  0  0  0
 22 21  1  0  0  0  0
 22 24  1  0  0  0  0
 24 23  1  6  0  0  0
 25 24  1  0  0  0  0
 27 26  1  0  0  0  0
 27 32  1  0  0  0  0
 28 32  1  0  0  0  0
 29 28  1  0  0  0  0
 30 34  1  6  0  0  0
 30 31  1  0  0  0  0
 30 29  1  0  0  0  0
 30 28  1  0  0  0  0
 31 27  2  0  0  0  0
 32 33  2  0  0  0  0
 35 34  1  0  0  0  0
 36 38  1  0  0  0  0
 37 35  1  0  0  0  0
 38 37  2  0  0  0  0
 39 37  1  0  0  0  0
 40 36  1  0  0  0  0
 40 39  1  0  0  0  0
M  END
>  <MODEL>
3

>  <REMARK>
 VINA RESULT:      -7.9      1.794      2.411
  Name = 
  10 active torsions:
  status: ('A' for Active; 'I' for Inactive)
    1  A    between atoms: C_1  and  C_17
    2  A    between atoms: C_2  and  C_17
    3  A    between atoms: C_6  and  C_15
    4  A    between atoms: C_7  and  C_18
    5  A    between atoms: C_11  and  C_15
    6  A    between atoms: C_11  and  N_22
    7  A    between atoms: O_14  and  C_21
    8  A    between atoms: O_14  and  C_35
    9  A    between atoms: C_16  and  C_36
   10  A    between atoms: C_19  and  C_35
                            x       y       z     vdW  Elec       q    Type
                         _______ _______ _______ _____ _____    ______ ____

>  <TORSDO>
F 10

$$$$
=
 OpenBabel11062413053D

 40 45  0  0  1  0  0  0  0  0999 V2000
  183.4550  176.2600  138.1380 C   0  0  0  0  0  0  0  0  0  0  0  0
  183.7950  178.8760  140.3150 C   0  0  0  0  0  0  0  0  0  0  0  0
  184.9800  179.5690  139.8800 N   0  0  0  0  0  0  0  0  0  0  0  0
  185.2710  179.2380  138.6830 N   0  0  0  0  0  2  0  0  0  0  0  0
  184.2700  178.3310  138.2550 C   0  0  1  0  0  3  0  0  0  0  0  0
  184.4600  177.1980  137.5910 C   0  0  0  0  0  3  0  0  0  0  0  0
  183.3210  178.1670  139.2940 C   0  0  1  0  0  3  0  0  0  0  0  0
  181.8010  176.1390  140.0380 C   0  0  0  0  0  1  0  0  0  0  0  0
  182.8250  176.8060  139.1820 C   0  0  1  0  0  3  0  0  0  0  0  0
  185.6150  178.5890  142.4920 F   0  0  0  0  0  0  0  0  0  0  0  0
  182.4720  178.7040  144.3870 C   0  0  0  0  0  3  0  0  0  0  0  0
  183.8480  178.6160  144.1200 C   0  0  0  0  0  0  0  0  0  0  0  0
  183.3580  178.7990  141.7270 C   0  0  0  0  0  0  0  0  0  0  0  0
  184.2910  178.6710  142.7790 C   0  0  0  0  0  0  0  0  0  0  0  0
  181.9930  178.8940  142.0300 C   0  0  0  0  0  3  0  0  0  0  0  0
  180.0990  178.9430  143.6530 C   0  0  0  0  0  1  0  0  0  0  0  0
  181.5510  178.8440  143.3500 C   0  0  0  0  0  0  0  0  0  0  0  0
  186.1350  178.0500  145.0510 N   0  0  0  0  0  2  0  0  0  0  0  0
  184.7850  178.4730  145.2600 C   0  0  0  0  0  0  0  0  0  0  0  0
  184.3860  178.7250  146.4300 O   0  0  0  0  0  0  0  0  0  0  0  0
  187.1160  177.9660  146.1260 C   0  0  0  0  0  2  0  0  0  0  0  0
  188.4340  177.3920  145.6160 C   0  0  0  0  0  2  0  0  0  0  0  0
  188.5310  176.2870  143.4050 C   0  0  0  0  0  1  0  0  0  0  0  0
  188.5900  177.6190  144.1200 C   0  0  2  0  0  3  0  0  0  0  0  0
  189.8140  178.2310  143.8550 O   0  0  0  0  0  1  0  0  0  0  0  0
  183.2580  174.8610  137.6530 C   0  0  0  0  0  2  0  0  0  0  0  0
  184.4580  174.4080  136.8920 C   0  0  0  0  0  0  0  0  0  0  0  0
  186.2530  173.3460  136.2530 N   0  0  0  0  0  0  0  0  0  0  0  0
  186.4020  173.1160  134.7890 C   0  0  0  0  0  2  0  0  0  0  0  0
  186.2300  174.3990  135.2270 C   0  0  1  0  0  0  0  0  0  0  0  0
  184.9000  174.9820  135.7280 C   0  0  0  0  0  3  0  0  0  0  0  0
  185.3600  173.3360  137.3030 C   0  0  0  0  0  0  0  0  0  0  0  0
  185.4620  172.7120  138.3910 O   0  0  0  0  0  0  0  0  0  0  0  0
  187.4680  175.2620  135.4040 C   0  0  0  0  0  2  0  0  0  0  0  0
  187.6150  175.6480  136.7660 O   0  0  0  0  0  0  0  0  0  0  0  0
  188.8100  179.0530  137.1900 C   0  0  0  0  0  2  0  0  0  0  0  0
  188.2900  176.8070  137.1560 C   0  0  0  0  0  0  0  0  0  0  0  0
  188.0390  177.9590  136.6330 N   0  0  0  0  0  0  0  0  0  0  0  0
  189.5100  176.7750  138.4490 S   0  0  0  0  0  0  0  0  0  0  0  0
  189.3390  178.5840  138.5380 C   0  0  0  0  0  2  0  0  0  0  0  0
  1  9  1  0  0  0  0
  2 13  1  0  0  0  0
  3  2  2  0  0  0  0
  4  3  1  0  0  0  0
  5  6  1  1  0  0  0
  5  4  1  0  0  0  0
  5  7  1  0  0  0  0
  6  1  2  0  0  0  0
  7  2  1  1  0  0  0
  9  7  1  0  0  0  0
  9  8  1  6  0  0  0
 10 14  1  0  0  0  0
 12 11  1  0  0  0  0
 12 19  1  0  0  0  0
 13 15  2  0  0  0  0
 13 14  1  0  0  0  0
 14 12  2  0  0  0  0
 15 17  1  0  0  0  0
 17 16  1  0  0  0  0
 17 11  2  0  0  0  0
 18 19  1  0  0  0  0
 18 21  1  0  0  0  0
 19 20  2  0  0  0  0
 22 21  1  0  0  0  0
 24 23  1  6  0  0  0
 24 22  1  0  0  0  0
 25 24  1  0  0  0  0
 26  1  1  0  0  0  0
 27 32  1  0  0  0  0
 27 26  1  0  0  0  0
 28 32  1  0  0  0  0
 29 30  1  0  0  0  0
 29 28  1  0  0  0  0
 30 34  1  6  0  0  0
 30 31  1  0  0  0  0
 30 28  1  0  0  0  0
 31 27  2  0  0  0  0
 32 33  2  0  0  0  0
 34 35  1  0  0  0  0
 35 37  1  0  0  0  0
 36 40  1  0  0  0  0
 37 39  1  0  0  0  0
 38 37  2  0  0  0  0
 38 36  1  0  0  0  0
 39 40  1  0  0  0  0
M  END
>  <MODEL>
4

>  <REMARK>
 VINA RESULT:      -7.7      3.390      8.989
  Name = 
  10 active torsions:
  status: ('A' for Active; 'I' for Inactive)
    1  A    between atoms: C_1  and  C_17
    2  A    between atoms: C_2  and  C_17
    3  A    between atoms: C_6  and  C_15
    4  A    between atoms: C_7  and  C_18
    5  A    between atoms: C_11  and  C_15
    6  A    between atoms: C_11  and  N_22
    7  A    between atoms: O_14  and  C_21
    8  A    between atoms: O_14  and  C_35
    9  A    between atoms: C_16  and  C_36
   10  A    between atoms: C_19  and  C_35
                            x       y       z     vdW  Elec       q    Type
                         _______ _______ _______ _____ _____    ______ ____

>  <TORSDO>
F 10

$$$$
=
 OpenBabel11062413053D

 40 45  0  0  1  0  0  0  0  0999 V2000
  185.0370  178.6270  144.0330 C   0  0  0  0  0  0  0  0  0  0  0  0
  187.3760  177.8880  146.4170 C   0  0  0  0  0  0  0  0  0  0  0  0
  187.0290  178.7120  147.5460 N   0  0  0  0  0  0  0  0  0  0  0  0
  185.8270  179.1250  147.4380 N   0  0  0  0  0  2  0  0  0  0  0  0
  185.3080  178.5650  146.2450 C   0  0  1  0  0  3  0  0  0  0  0  0
  184.5860  179.1920  145.3240 C   0  0  0  0  0  3  0  0  0  0  0  0
  186.2970  177.7430  145.6520 C   0  0  1  0  0  3  0  0  0  0  0  0
  186.8620  177.1290  143.1450 C   0  0  0  0  0  1  0  0  0  0  0  0
  186.0860  177.8200  144.2160 C   0  0  1  0  0  3  0  0  0  0  0  0
  188.6300  178.5950  143.9560 F   0  0  0  0  0  0  0  0  0  0  0  0
  191.4110  176.7680  145.5090 C   0  0  0  0  0  3  0  0  0  0  0  0
  190.6860  177.5080  144.5610 C   0  0  0  0  0  0  0  0  0  0  0  0
  188.7630  177.4980  146.0780 C   0  0  0  0  0  0  0  0  0  0  0  0
  189.3540  177.8800  144.8540 C   0  0  0  0  0  0  0  0  0  0  0  0
  189.5190  176.7690  147.0060 C   0  0  0  0  0  3  0  0  0  0  0  0
  191.6190  175.6270  147.7180 C   0  0  0  0  0  1  0  0  0  0  0  0
  190.8330  176.4030  146.7230 C   0  0  0  0  0  0  0  0  0  0  0  0
  191.2070  177.0580  142.1220 N   0  0  0  0  0  2  0  0  0  0  0  0
  191.3510  177.8750  143.2870 C   0  0  0  0  0  0  0  0  0  0  0  0
  192.0540  178.9210  143.2300 O   0  0  0  0  0  0  0  0  0  0  0  0
  191.7770  177.4130  140.8290 C   0  0  0  0  0  2  0  0  0  0  0  0
  190.6890  177.5030  139.7630 C   0  0  0  0  0  2  0  0  0  0  0  0
  190.1780  177.1550  137.3680 C   0  0  0  0  0  1  0  0  0  0  0  0
  191.0860  176.7440  138.5070 C   0  0  2  0  0  3  0  0  0  0  0  0
  190.9650  175.3720  138.7200 O   0  0  0  0  0  1  0  0  0  0  0  0
  184.4640  179.0000  142.7050 C   0  0  0  0  0  2  0  0  0  0  0  0
  182.9840  178.8220  142.7170 C   0  0  0  0  0  0  0  0  0  0  0  0
  180.9400  178.2500  142.2100 N   0  0  0  0  0  0  0  0  0  0  0  0
  180.0470  177.8970  143.3500 C   0  0  0  0  0  2  0  0  0  0  0  0
  180.6580  179.1200  143.3610 C   0  0  1  0  0  0  0  0  0  0  0  0
  182.1460  179.3530  143.6640 C   0  0  0  0  0  3  0  0  0  0  0  0
  182.2130  178.1120  141.7000 C   0  0  0  0  0  0  0  0  0  0  0  0
  182.5420  177.6800  140.5650 O   0  0  0  0  0  0  0  0  0  0  0  0
  179.8620  180.3170  142.8690 C   0  0  0  0  0  2  0  0  0  0  0  0
  179.0130  179.9390  141.7900 O   0  0  0  0  0  0  0  0  0  0  0  0
  179.6360  182.0080  138.8690 C   0  0  0  0  0  2  0  0  0  0  0  0
  179.1610  180.4470  140.4970 C   0  0  0  0  0  0  0  0  0  0  0  0
  179.4930  181.6720  140.2710 N   0  0  0  0  0  0  0  0  0  0  0  0
  178.9510  179.4090  139.0680 S   0  0  0  0  0  0  0  0  0  0  0  0
  179.8080  180.6990  138.1120 C   0  0  0  0  0  2  0  0  0  0  0  0
  1  9  1  0  0  0  0
  1  6  2  0  0  0  0
  2  3  2  0  0  0  0
  4  3  1  0  0  0  0
  5  6  1  6  0  0  0
  5  4  1  0  0  0  0
  7  5  1  0  0  0  0
  7  2  1  6  0  0  0
  9  8  1  1  0  0  0
  9  7  1  0  0  0  0
 10 14  1  0  0  0  0
 11 17  1  0  0  0  0
 12 14  1  0  0  0  0
 12 11  2  0  0  0  0
 13  2  1  0  0  0  0
 13 15  1  0  0  0  0
 14 13  2  0  0  0  0
 17 15  2  0  0  0  0
 17 16  1  0  0  0  0
 18 19  1  0  0  0  0
 19 12  1  0  0  0  0
 20 19  2  0  0  0  0
 21 18  1  0  0  0  0
 22 21  1  0  0  0  0
 24 23  1  6  0  0  0
 24 25  1  0  0  0  0
 24 22  1  0  0  0  0
 26 27  1  0  0  0  0
 26  1  1  0  0  0  0
 27 31  2  0  0  0  0
 28 29  1  0  0  0  0
 28 30  1  0  0  0  0
 29 30  1  0  0  0  0
 30 34  1  6  0  0  0
 30 31  1  0  0  0  0
 32 28  1  0  0  0  0
 32 27  1  0  0  0  0
 33 32  2  0  0  0  0
 35 34  1  0  0  0  0
 36 38  1  0  0  0  0
 37 35  1  0  0  0  0
 38 37  2  0  0  0  0
 39 37  1  0  0  0  0
 40 36  1  0  0  0  0
 40 39  1  0  0  0  0
M  END
>  <MODEL>
5

>  <REMARK>
 VINA RESULT:      -7.4      2.568      5.450
  Name = 
  10 active torsions:
  status: ('A' for Active; 'I' for Inactive)
    1  A    between atoms: C_1  and  C_17
    2  A    between atoms: C_2  and  C_17
    3  A    between atoms: C_6  and  C_15
    4  A    between atoms: C_7  and  C_18
    5  A    between atoms: C_11  and  C_15
    6  A    between atoms: C_11  and  N_22
    7  A    between atoms: O_14  and  C_21
    8  A    between atoms: O_14  and  C_35
    9  A    between atoms: C_16  and  C_36
   10  A    between atoms: C_19  and  C_35
                            x       y       z     vdW  Elec       q    Type
                         _______ _______ _______ _____ _____    ______ ____

>  <TORSDO>
F 10

$$$$
=
 OpenBabel11062413053D

 40 45  0  0  1  0  0  0  0  0999 V2000
  188.5340  177.2740  145.1840 C   0  0  0  0  0  0  0  0  0  0  0  0
  190.9000  177.9710  142.8130 C   0  0  0  0  0  0  0  0  0  0  0  0
  191.5730  179.1490  143.2950 N   0  0  0  0  0  0  0  0  0  0  0  0
  191.3490  179.3070  144.5410 N   0  0  0  0  0  2  0  0  0  0  0  0
  190.5400  178.2190  144.9520 C   0  0  1  0  0  3  0  0  0  0  0  0
  189.4710  178.2780  145.7360 C   0  0  0  0  0  3  0  0  0  0  0  0
  190.3210  177.3620  143.8450 C   0  0  1  0  0  3  0  0  0  0  0  0
  188.3070  175.8010  143.1490 C   0  0  0  0  0  1  0  0  0  0  0  0
  189.0040  176.7780  144.0360 C   0  0  1  0  0  3  0  0  0  0  0  0
  192.9660  176.9190  141.1540 F   0  0  0  0  0  0  0  0  0  0  0  0
  190.2600  177.0570  138.6760 C   0  0  0  0  0  3  0  0  0  0  0  0
  191.5300  176.8290  139.2290 C   0  0  0  0  0  0  0  0  0  0  0  0
  190.7040  177.6640  141.3790 C   0  0  0  0  0  0  0  0  0  0  0  0
  191.7480  177.1300  140.5930 C   0  0  0  0  0  0  0  0  0  0  0  0
  189.4460  177.8690  140.7970 C   0  0  0  0  0  3  0  0  0  0  0  0
  187.8840  177.7980  138.8540 C   0  0  0  0  0  1  0  0  0  0  0  0
  189.2240  177.5710  139.4540 C   0  0  0  0  0  0  0  0  0  0  0  0
  192.5540  174.9130  137.9250 N   0  0  0  0  0  2  0  0  0  0  0  0
  192.5950  176.2760  138.3580 C   0  0  0  0  0  0  0  0  0  0  0  0
  193.5520  177.0140  137.9960 O   0  0  0  0  0  0  0  0  0  0  0  0
  193.5330  174.3410  137.0100 C   0  0  0  0  0  2  0  0  0  0  0  0
  194.5930  173.5520  137.7720 C   0  0  0  0  0  2  0  0  0  0  0  0
  196.0430  174.8770  136.2690 C   0  0  0  0  0  1  0  0  0  0  0  0
  195.9680  174.1780  137.6090 C   0  0  2  0  0  3  0  0  0  0  0  0
  196.9520  173.1930  137.6700 O   0  0  0  0  0  1  0  0  0  0  0  0
  187.2030  176.9510  145.7770 C   0  0  0  0  0  2  0  0  0  0  0  0
  186.1670  177.8880  145.2560 C   0  0  0  0  0  0  0  0  0  0  0  0
  184.5300  179.3220  145.1000 N   0  0  0  0  0  0  0  0  0  0  0  0
  184.6520  180.3560  144.0340 C   0  0  0  0  0  2  0  0  0  0  0  0
  184.7280  179.0400  143.6710 C   0  0  1  0  0  0  0  0  0  0  0  0
  185.9380  178.1290  143.9260 C   0  0  0  0  0  3  0  0  0  0  0  0
  185.2160  178.6340  146.0770 C   0  0  0  0  0  0  0  0  0  0  0  0
  184.9250  178.5380  147.2970 O   0  0  0  0  0  0  0  0  0  0  0  0
  183.4690  178.3770  143.1380 C   0  0  0  0  0  2  0  0  0  0  0  0
  183.5720  178.1690  141.7330 O   0  0  0  0  0  0  0  0  0  0  0  0
  180.4860  179.0700  140.0430 C   0  0  0  0  0  2  0  0  0  0  0  0
  182.4770  178.2560  140.8720 C   0  0  0  0  0  0  0  0  0  0  0  0
  181.5170  179.0970  141.0600 N   0  0  0  0  0  0  0  0  0  0  0  0
  182.3630  177.2400  139.4170 S   0  0  0  0  0  0  0  0  0  0  0  0
  181.0830  178.3880  138.8200 C   0  0  0  0  0  2  0  0  0  0  0  0
  1  6  2  0  0  0  0
  1 26  1  0  0  0  0
  2  3  2  0  0  0  0
  3  4  1  0  0  0  0
  4  5  1  0  0  0  0
  5  6  1  6  0  0  0
  7  2  1  6  0  0  0
  7  9  1  0  0  0  0
  7  5  1  0  0  0  0
  9  8  1  1  0  0  0
  9  1  1  0  0  0  0
 11 12  2  0  0  0  0
 11 17  1  0  0  0  0
 12 14  1  0  0  0  0
 13  2  1  0  0  0  0
 14 10  1  0  0  0  0
 14 13  2  0  0  0  0
 15 13  1  0  0  0  0
 16 17  1  0  0  0  0
 17 15  2  0  0  0  0
 18 19  1  0  0  0  0
 19 12  1  0  0  0  0
 20 19  2  0  0  0  0
 21 22  1  0  0  0  0
 21 18  1  0  0  0  0
 24 23  1  6  0  0  0
 24 25  1  0  0  0  0
 24 22  1  0  0  0  0
 27 26  1  0  0  0  0
 27 32  1  0  0  0  0
 28 32  1  0  0  0  0
 29 28  1  0  0  0  0
 30 34  1  6  0  0  0
 30 31  1  0  0  0  0
 30 29  1  0  0  0  0
 30 28  1  0  0  0  0
 31 27  2  0  0  0  0
 32 33  2  0  0  0  0
 35 34  1  0  0  0  0
 36 38  1  0  0  0  0
 37 38  2  0  0  0  0
 37 35  1  0  0  0  0
 39 37  1  0  0  0  0
 40 39  1  0  0  0  0
 40 36  1  0  0  0  0
M  END
>  <MODEL>
6

>  <REMARK>
 VINA RESULT:      -7.3      2.753      5.115
  Name = 
  10 active torsions:
  status: ('A' for Active; 'I' for Inactive)
    1  A    between atoms: C_1  and  C_17
    2  A    between atoms: C_2  and  C_17
    3  A    between atoms: C_6  and  C_15
    4  A    between atoms: C_7  and  C_18
    5  A    between atoms: C_11  and  C_15
    6  A    between atoms: C_11  and  N_22
    7  A    between atoms: O_14  and  C_21
    8  A    between atoms: O_14  and  C_35
    9  A    between atoms: C_16  and  C_36
   10  A    between atoms: C_19  and  C_35
                            x       y       z     vdW  Elec       q    Type
                         _______ _______ _______ _____ _____    ______ ____

>  <TORSDO>
F 10

$$$$
=
 OpenBabel11062413053D

 40 45  0  0  1  0  0  0  0  0999 V2000
  186.6250  177.6260  136.9660 C   0  0  0  0  0  0  0  0  0  0  0  0
  183.2690  177.0020  137.2010 C   0  0  0  0  0  0  0  0  0  0  0  0
  182.9230  176.3620  135.9590 N   0  0  0  0  0  0  0  0  0  0  0  0
  183.9710  175.9160  135.3850 N   0  0  0  0  0  2  0  0  0  0  0  0
  185.0630  176.2120  136.2390 C   0  0  1  0  0  3  0  0  0  0  0  0
  186.2410  176.7010  135.8760 C   0  0  0  0  0  3  0  0  0  0  0  0
  184.5760  176.8510  137.4050 C   0  0  1  0  0  3  0  0  0  0  0  0
  185.6040  178.6680  139.0230 C   0  0  0  0  0  1  0  0  0  0  0  0
  185.6210  177.7640  137.8370 C   0  0  1  0  0  3  0  0  0  0  0  0
  182.8630  176.7580  140.0130 F   0  0  0  0  0  0  0  0  0  0  0  0
  180.6240  179.5940  139.3570 C   0  0  0  0  0  3  0  0  0  0  0  0
  181.3120  178.5930  140.0620 C   0  0  0  0  0  0  0  0  0  0  0  0
  182.3490  177.8770  137.9610 C   0  0  0  0  0  0  0  0  0  0  0  0
  182.1850  177.7340  139.3560 C   0  0  0  0  0  0  0  0  0  0  0  0
  181.6550  178.8930  137.2910 C   0  0  0  0  0  3  0  0  0  0  0  0
  180.0660  180.8150  137.2540 C   0  0  0  0  0  1  0  0  0  0  0  0
  180.7960  179.7450  137.9820 C   0  0  0  0  0  0  0  0  0  0  0  0
  182.0830  178.9500  142.4490 N   0  0  0  0  0  2  0  0  0  0  0  0
  181.0980  178.4800  141.5250 C   0  0  0  0  0  0  0  0  0  0  0  0
  180.0340  177.9610  141.9610 O   0  0  0  0  0  0  0  0  0  0  0  0
  181.8900  178.9300  143.8930 C   0  0  0  0  0  2  0  0  0  0  0  0
  183.2030  178.6420  144.6140 C   0  0  0  0  0  2  0  0  0  0  0  0
  185.5660  178.0960  144.1300 C   0  0  0  0  0  1  0  0  0  0  0  0
  184.3980  178.9700  143.7320 C   0  0  2  0  0  3  0  0  0  0  0  0
  184.7510  180.3090  143.8860 O   0  0  0  0  0  1  0  0  0  0  0  0
  187.9140  178.3780  137.0170 C   0  0  0  0  0  2  0  0  0  0  0  0
  188.7820  177.8370  138.1010 C   0  0  0  0  0  0  0  0  0  0  0  0
  190.0750  176.5570  139.3060 N   0  0  0  0  0  0  0  0  0  0  0  0
  191.1650  177.2370  140.0610 C   0  0  0  0  0  2  0  0  0  0  0  0
  189.8790  177.6550  140.2630 C   0  0  1  0  0  0  0  0  0  0  0  0
  189.0650  178.4970  139.2700 C   0  0  0  0  0  3  0  0  0  0  0  0
  189.4030  176.5160  138.1030 C   0  0  0  0  0  0  0  0  0  0  0  0
  189.2260  175.5180  137.3570 O   0  0  0  0  0  0  0  0  0  0  0  0
  189.1360  177.1060  141.4700 C   0  0  0  0  0  2  0  0  0  0  0  0
  189.1250  178.0620  142.5240 O   0  0  0  0  0  0  0  0  0  0  0  0
  189.9740  177.1560  145.9380 C   0  0  0  0  0  2  0  0  0  0  0  0
  189.7600  177.8460  143.7490 C   0  0  0  0  0  0  0  0  0  0  0  0
  189.1440  177.3430  144.7650 N   0  0  0  0  0  0  0  0  0  0  0  0
  191.4870  178.2040  143.9700 S   0  0  0  0  0  0  0  0  0  0  0  0
  191.4220  177.1740  145.4690 C   0  0  0  0  0  2  0  0  0  0  0  0
  1 26  1  0  0  0  0
  1  9  1  0  0  0  0
  2 13  1  0  0  0  0
  3  2  2  0  0  0  0
  4  3  1  0  0  0  0
  4  5  1  0  0  0  0
  5  6  1  6  0  0  0
  5  7  1  0  0  0  0
  6  1  2  0  0  0  0
  7  2  1  6  0  0  0
  7  9  1  0  0  0  0
  9  8  1  1  0  0  0
 11 12  1  0  0  0  0
 12 19  1  0  0  0  0
 13 14  1  0  0  0  0
 14 10  1  0  0  0  0
 14 12  2  0  0  0  0
 15 13  2  0  0  0  0
 15 17  1  0  0  0  0
 16 17  1  0  0  0  0
 17 11  2  0  0  0  0
 18 21  1  0  0  0  0
 19 20  2  0  0  0  0
 19 18  1  0  0  0  0
 21 22  1  0  0  0  0
 24 25  1  0  0  0  0
 24 23  1  1  0  0  0
 24 22  1  0  0  0  0
 26 27  1  0  0  0  0
 27 32  1  0  0  0  0
 27 31  2  0  0  0  0
 28 29  1  0  0  0  0
 28 30  1  0  0  0  0
 29 30  1  0  0  0  0
 30 34  1  1  0  0  0
 31 30  1  0  0  0  0
 32 28  1  0  0  0  0
 33 32  2  0  0  0  0
 34 35  1  0  0  0  0
 35 37  1  0  0  0  0
 37 39  1  0  0  0  0
 37 38  2  0  0  0  0
 38 36  1  0  0  0  0
 39 40  1  0  0  0  0
 40 36  1  0  0  0  0
M  END
>  <MODEL>
7

>  <REMARK>
 VINA RESULT:      -7.3      3.067      8.874
  Name = 
  10 active torsions:
  status: ('A' for Active; 'I' for Inactive)
    1  A    between atoms: C_1  and  C_17
    2  A    between atoms: C_2  and  C_17
    3  A    between atoms: C_6  and  C_15
    4  A    between atoms: C_7  and  C_18
    5  A    between atoms: C_11  and  C_15
    6  A    between atoms: C_11  and  N_22
    7  A    between atoms: O_14  and  C_21
    8  A    between atoms: O_14  and  C_35
    9  A    between atoms: C_16  and  C_36
   10  A    between atoms: C_19  and  C_35
                            x       y       z     vdW  Elec       q    Type
                         _______ _______ _______ _____ _____    ______ ____

>  <TORSDO>
F 10

$$$$
=
 OpenBabel11062413053D

 40 45  0  0  1  0  0  0  0  0999 V2000
  186.0030  177.7310  145.3790 C   0  0  0  0  0  0  0  0  0  0  0  0
  184.0980  179.0270  142.8510 C   0  0  0  0  0  0  0  0  0  0  0  0
  182.9440  179.5870  143.5040 N   0  0  0  0  0  0  0  0  0  0  0  0
  183.1770  179.7520  144.7470 N   0  0  0  0  0  2  0  0  0  0  0  0
  184.5140  179.3400  144.9710 C   0  0  1  0  0  3  0  0  0  0  0  0
  184.9550  178.5910  145.9740 C   0  0  0  0  0  3  0  0  0  0  0  0
  185.0860  178.9380  143.7380 C   0  0  1  0  0  3  0  0  0  0  0  0
  186.9110  177.1380  143.1030 C   0  0  0  0  0  1  0  0  0  0  0  0
  186.0400  177.8890  144.0530 C   0  0  1  0  0  3  0  0  0  0  0  0
  186.1920  179.4030  140.9520 F   0  0  0  0  0  0  0  0  0  0  0  0
  183.9850  177.2590  138.9490 C   0  0  0  0  0  3  0  0  0  0  0  0
  185.0910  178.0490  139.3000 C   0  0  0  0  0  0  0  0  0  0  0  0
  184.0710  178.4380  141.4930 C   0  0  0  0  0  0  0  0  0  0  0  0
  185.1340  178.6360  140.5860 C   0  0  0  0  0  0  0  0  0  0  0  0
  182.9870  177.6360  141.1130 C   0  0  0  0  0  3  0  0  0  0  0  0
  181.7820  176.2060  139.4620 C   0  0  0  0  0  1  0  0  0  0  0  0
  182.9420  177.0510  139.8490 C   0  0  0  0  0  0  0  0  0  0  0  0
  185.9560  177.9640  136.9200 N   0  0  0  0  0  2  0  0  0  0  0  0
  186.1770  178.2320  138.3080 C   0  0  0  0  0  0  0  0  0  0  0  0
  187.3130  178.6280  138.6900 O   0  0  0  0  0  0  0  0  0  0  0  0
  186.9650  178.1990  135.8950 C   0  0  0  0  0  2  0  0  0  0  0  0
  187.4680  176.8810  135.3150 C   0  0  0  0  0  2  0  0  0  0  0  0
  188.6980  175.5350  136.9860 C   0  0  0  0  0  1  0  0  0  0  0  0
  188.8450  176.5320  135.8570 C   0  0  2  0  0  3  0  0  0  0  0  0
  189.4750  177.6790  136.3340 O   0  0  0  0  0  1  0  0  0  0  0  0
  186.8220  176.7490  146.1500 C   0  0  0  0  0  2  0  0  0  0  0  0
  188.2690  177.0940  146.0470 C   0  0  0  0  0  0  0  0  0  0  0  0
  190.2670  177.8770  146.4380 N   0  0  0  0  0  0  0  0  0  0  0  0
  191.4110  177.0120  146.0310 C   0  0  0  0  0  2  0  0  0  0  0  0
  190.4860  177.3520  145.0830 C   0  0  1  0  0  0  0  0  0  0  0  0
  189.0720  176.7600  144.9870 C   0  0  0  0  0  3  0  0  0  0  0  0
  189.0190  177.8810  147.0220 C   0  0  0  0  0  0  0  0  0  0  0  0
  188.6330  178.5670  148.0040 O   0  0  0  0  0  0  0  0  0  0  0  0
  190.8050  178.5210  144.1660 C   0  0  0  0  0  2  0  0  0  0  0  0
  191.7190  178.1220  143.1510 O   0  0  0  0  0  0  0  0  0  0  0  0
  189.8400  176.7900  140.3430 C   0  0  0  0  0  2  0  0  0  0  0  0
  191.3070  177.6180  141.9160 C   0  0  0  0  0  0  0  0  0  0  0  0
  190.0910  177.2500  141.6930 N   0  0  0  0  0  0  0  0  0  0  0  0
  192.4310  177.5030  140.5430 S   0  0  0  0  0  0  0  0  0  0  0  0
  190.9700  177.3210  139.4730 C   0  0  0  0  0  2  0  0  0  0  0  0
  1  6  2  0  0  0  0
  1 26  1  0  0  0  0
  2  3  2  0  0  0  0
  3  4  1  0  0  0  0
  4  5  1  0  0  0  0
  5  6  1  1  0  0  0
  7  2  1  6  0  0  0
  7  9  1  0  0  0  0
  7  5  1  0  0  0  0
  9  8  1  1  0  0  0
  9  1  1  0  0  0  0
 11 12  2  0  0  0  0
 11 17  1  0  0  0  0
 12 14  1  0  0  0  0
 13  2  1  0  0  0  0
 14 10  1  0  0  0  0
 14 13  2  0  0  0  0
 15 13  1  0  0  0  0
 16 17  1  0  0  0  0
 17 15  2  0  0  0  0
 18 19  1  0  0  0  0
 19 20  2  0  0  0  0
 19 12  1  0  0  0  0
 21 18  1  0  0  0  0
 22 24  1  0  0  0  0
 22 21  1  0  0  0  0
 24 25  1  0  0  0  0
 24 23  1  1  0  0  0
 27 26  1  0  0  0  0
 27 32  1  0  0  0  0
 28 32  1  0  0  0  0
 29 28  1  0  0  0  0
 30 34  1  6  0  0  0
 30 29  1  0  0  0  0
 30 28  1  0  0  0  0
 31 30  1  0  0  0  0
 31 27  2  0  0  0  0
 32 33  2  0  0  0  0
 35 34  1  0  0  0  0
 36 38  1  0  0  0  0
 37 35  1  0  0  0  0
 38 37  2  0  0  0  0
 39 37  1  0  0  0  0
 40 36  1  0  0  0  0
 40 39  1  0  0  0  0
M  END
>  <MODEL>
8

>  <REMARK>
 VINA RESULT:      -7.1      2.994      6.773
  Name = 
  10 active torsions:
  status: ('A' for Active; 'I' for Inactive)
    1  A    between atoms: C_1  and  C_17
    2  A    between atoms: C_2  and  C_17
    3  A    between atoms: C_6  and  C_15
    4  A    between atoms: C_7  and  C_18
    5  A    between atoms: C_11  and  C_15
    6  A    between atoms: C_11  and  N_22
    7  A    between atoms: O_14  and  C_21
    8  A    between atoms: O_14  and  C_35
    9  A    between atoms: C_16  and  C_36
   10  A    between atoms: C_19  and  C_35
                            x       y       z     vdW  Elec       q    Type
                         _______ _______ _______ _____ _____    ______ ____

>  <TORSDO>
F 10

$$$$
=
 OpenBabel11062413053D

 40 45  0  0  1  0  0  0  0  0999 V2000
  187.1360  178.2580  141.1420 C   0  0  0  0  0  0  0  0  0  0  0  0
  183.7460  178.6800  141.3290 C   0  0  0  0  0  0  0  0  0  0  0  0
  183.4420  178.6250  142.7350 N   0  0  0  0  0  0  0  0  0  0  0  0
  184.4990  178.8160  143.4230 N   0  0  0  0  0  2  0  0  0  0  0  0
  185.5520  179.0400  142.5020 C   0  0  1  0  0  3  0  0  0  0  0  0
  186.7720  178.5220  142.5520 C   0  0  0  0  0  3  0  0  0  0  0  0
  185.0300  179.0020  141.1860 C   0  0  1  0  0  3  0  0  0  0  0  0
  186.0480  178.2530  138.8670 C   0  0  0  0  0  1  0  0  0  0  0  0
  186.0900  178.4810  140.3400 C   0  0  1  0  0  3  0  0  0  0  0  0
  183.0890  180.2460  139.0390 F   0  0  0  0  0  0  0  0  0  0  0  0
  181.1110  177.2500  138.2680 C   0  0  0  0  0  3  0  0  0  0  0  0
  181.6670  178.5330  138.1350 C   0  0  0  0  0  0  0  0  0  0  0  0
  182.8260  178.2110  140.2690 C   0  0  0  0  0  0  0  0  0  0  0  0
  182.5370  179.0110  139.1420 C   0  0  0  0  0  0  0  0  0  0  0  0
  182.2620  176.9320  140.3650 C   0  0  0  0  0  3  0  0  0  0  0  0
  180.8150  175.0960  139.4920 C   0  0  0  0  0  1  0  0  0  0  0  0
  181.4070  176.4540  139.3720 C   0  0  0  0  0  0  0  0  0  0  0  0
  180.7100  180.6220  137.0660 N   0  0  0  0  0  2  0  0  0  0  0  0
  181.3230  179.3350  136.9370 C   0  0  0  0  0  0  0  0  0  0  0  0
  181.5720  178.8790  135.7870 O   0  0  0  0  0  0  0  0  0  0  0  0
  180.4220  181.4810  135.9260 C   0  0  0  0  0  2  0  0  0  0  0  0
  179.9520  182.8570  136.3880 C   0  0  0  0  0  2  0  0  0  0  0  0
  181.1880  184.8930  137.0550 C   0  0  0  0  0  1  0  0  0  0  0  0
  180.8950  183.9490  135.9090 C   0  0  2  0  0  3  0  0  0  0  0  0
  180.3110  184.6610  134.8640 O   0  0  0  0  0  1  0  0  0  0  0  0
  188.4550  177.7140  140.7010 C   0  0  0  0  0  2  0  0  0  0  0  0
  189.3120  177.4220  141.8850 C   0  0  0  0  0  0  0  0  0  0  0  0
  190.2010  176.4950  143.6480 N   0  0  0  0  0  0  0  0  0  0  0  0
  191.6800  176.6140  143.7870 C   0  0  0  0  0  2  0  0  0  0  0  0
  190.9480  177.7610  143.6510 C   0  0  1  0  0  0  0  0  0  0  0  0
  190.3120  178.2440  142.3390 C   0  0  0  0  0  3  0  0  0  0  0  0
  189.1750  176.2600  142.7580 C   0  0  0  0  0  0  0  0  0  0  0  0
  188.2660  175.3940  142.8450 O   0  0  0  0  0  0  0  0  0  0  0  0
  190.5840  178.5250  144.9140 C   0  0  0  0  0  2  0  0  0  0  0  0
  190.3570  177.6230  145.9920 O   0  0  0  0  0  0  0  0  0  0  0  0
  188.0210  177.9520  148.7540 C   0  0  0  0  0  2  0  0  0  0  0  0
  189.2240  177.6870  146.8060 C   0  0  0  0  0  0  0  0  0  0  0  0
  189.3010  177.8760  148.0800 N   0  0  0  0  0  0  0  0  0  0  0  0
  187.5870  177.5630  146.1230 S   0  0  0  0  0  0  0  0  0  0  0  0
  186.9730  178.2510  147.6920 C   0  0  0  0  0  2  0  0  0  0  0  0
  1  6  2  0  0  0  0
  2  3  2  0  0  0  0
  3  4  1  0  0  0  0
  5  6  1  6  0  0  0
  5  4  1  0  0  0  0
  7  2  1  1  0  0  0
  7  5  1  0  0  0  0
  9  8  1  6  0  0  0
  9  1  1  0  0  0  0
  9  7  1  0  0  0  0
 10 14  1  0  0  0  0
 11 17  1  0  0  0  0
 12 11  2  0  0  0  0
 12 14  1  0  0  0  0
 13 15  1  0  0  0  0
 13  2  1  0  0  0  0
 14 13  2  0  0  0  0
 17 16  1  0  0  0  0
 17 15  2  0  0  0  0
 19 18  1  0  0  0  0
 19 12  1  0  0  0  0
 20 19  2  0  0  0  0
 21 22  1  0  0  0  0
 21 18  1  0  0  0  0
 24 22  1  0  0  0  0
 24 23  1  1  0  0  0
 25 24  1  0  0  0  0
 26  1  1  0  0  0  0
 26 27  1  0  0  0  0
 27 31  2  0  0  0  0
 27 32  1  0  0  0  0
 28 30  1  0  0  0  0
 28 29  1  0  0  0  0
 30 29  1  0  0  0  0
 30 34  1  1  0  0  0
 31 30  1  0  0  0  0
 32 33  2  0  0  0  0
 32 28  1  0  0  0  0
 34 35  1  0  0  0  0
 35 37  1  0  0  0  0
 37 38  2  0  0  0  0
 38 36  1  0  0  0  0
 39 37  1  0  0  0  0
 39 40  1  0  0  0  0
 40 36  1  0  0  0  0
M  END
>  <MODEL>
9

>  <REMARK>
 VINA RESULT:      -7.0      3.643      7.428
  Name = 
  10 active torsions:
  status: ('A' for Active; 'I' for Inactive)
    1  A    between atoms: C_1  and  C_17
    2  A    between atoms: C_2  and  C_17
    3  A    between atoms: C_6  and  C_15
    4  A    between atoms: C_7  and  C_18
    5  A    between atoms: C_11  and  C_15
    6  A    between atoms: C_11  and  N_22
    7  A    between atoms: O_14  and  C_21
    8  A    between atoms: O_14  and  C_35
    9  A    between atoms: C_16  and  C_36
   10  A    between atoms: C_19  and  C_35
                            x       y       z     vdW  Elec       q    Type
                         _______ _______ _______ _____ _____    ______ ____

>  <TORSDO>
F 10

$$$$
