=
 OpenBabel11062415243D

 48 54  0  0  1  0  0  0  0  0999 V2000
  183.2220  178.7270  141.2930 C   0  0  2  0  0  3  0  0  0  0  0  0
  180.8140  178.7490  141.6330 C   0  0  0  0  0  0  0  0  0  0  0  0
  182.9750  176.7080  139.3070 S   0  0  0  0  0  0  0  0  0  0  0  0
  181.7130  177.9250  138.8030 C   0  0  1  0  0  3  0  0  0  0  0  0
  182.0370  178.0900  141.7450 O   0  0  0  0  0  0  0  0  0  0  0  0
  179.2470  176.2440  137.8150 O   0  0  0  0  0  1  0  0  0  0  0  0
  179.1880  177.4570  138.4980 C   0  0  2  0  0  3  0  0  0  0  0  0
  181.6220  177.9450  137.2840 C   0  0  0  0  0  2  0  0  0  0  0  0
  179.1630  178.6190  137.4990 C   0  0  0  0  0  2  0  0  0  0  0  0
  180.3690  177.5660  139.4770 C   0  0  2  0  0  3  0  0  0  0  0  0
  184.0050  177.8570  140.2950 C   0  0  1  0  0  3  0  0  0  0  0  0
  180.0300  178.5340  140.5720 C   0  0  0  0  0  3  0  0  0  0  0  0
  180.5230  178.9040  136.8320 C   0  0  0  0  0  2  0  0  0  0  0  0
  180.3920  179.7500  142.6640 C   0  0  0  0  0  3  0  0  0  0  0  0
  180.2250  179.0890  144.0180 C   0  0  0  0  0  2  0  0  0  0  0  0
  179.0090  179.3990  143.1790 C   0  0  0  0  0  2  0  0  0  0  0  0
  184.7280  180.0230  139.4120 O   0  0  0  0  0  1  0  0  0  0  0  0
  184.9650  178.6440  139.3830 C   0  0  1  0  0  3  0  0  0  0  0  0
  188.6270  177.6100  139.0050 C   0  0  0  0  0  3  0  0  0  0  0  0
  188.2940  178.5060  141.2260 C   0  0  0  0  0  3  0  0  0  0  0  0
  186.4130  178.3590  139.6870 C   0  0  0  0  0  0  0  0  0  0  0  0
  186.9420  178.7120  140.9370 C   0  0  0  0  0  3  0  0  0  0  0  0
  187.2710  177.8130  138.7040 C   0  0  0  0  0  0  0  0  0  0  0  0
  189.1370  177.9520  140.2600 C   0  0  0  0  0  3  0  0  0  0  0  0
  186.6920  177.3840  137.0930 S   0  0  0  0  0  0  0  0  0  0  0  0
  185.3070  177.9470  136.9040 O   0  0  0  0  0  0  0  0  0  0  0  0
  187.5980  177.9930  136.0570 O   0  0  0  0  0  0  0  0  0  0  0  0
  185.3820  175.2540  136.9900 O   0  0  0  0  0  1  0  0  0  0  0  0
  186.6760  175.6470  136.9550 N   0  0  0  0  0  0  0  0  0  0  0  0
  187.2890  173.7320  135.5550 C   0  0  0  0  0  0  0  0  0  0  0  0
  186.7820  172.6270  135.4740 O   0  0  0  0  0  0  0  0  0  0  0  0
  187.1990  175.2580  135.6480 C   0  0  2  0  0  3  0  0  0  0  0  0
  188.5070  174.6510  135.6840 C   0  0  1  0  0  3  0  0  0  0  0  0
  189.1140  174.4570  137.0690 C   0  0  0  0  0  2  0  0  0  0  0  0
  190.4570  175.0800  137.1260 C   0  0  0  0  0  0  0  0  0  0  0  0
  191.4060  174.5960  138.0170 O   0  0  0  0  0  1  0  0  0  0  0  0
  190.7280  176.0540  136.3820 O   0  0  0  0  0  0  0  0  0  0  0  0
  184.0920  179.1520  142.4690 C   0  0  0  0  0  2  0  0  0  0  0  0
  183.6590  178.4840  143.7670 C   0  0  0  0  0  2  0  0  0  0  0  0
  186.9530  178.0730  146.4500 C   0  0  0  0  0  0  0  0  0  0  0  0
  184.8180  178.3530  144.6930 C   0  0  0  0  0  0  0  0  0  0  0  0
  188.1020  177.8710  147.2470 N   0  0  0  0  0  0  0  0  0  0  0  0
  185.7410  178.5700  146.9370 C   0  0  0  0  0  3  0  0  0  0  0  0
  189.2250  177.3260  146.4960 C   0  0  0  0  0  3  0  0  0  0  0  0
  188.7190  177.0930  144.7370 S   0  0  0  0  0  0  0  0  0  0  0  0
  187.1070  177.7330  145.1330 C   0  0  0  0  0  0  0  0  0  0  0  0
  184.6670  178.7070  146.0460 C   0  0  0  0  0  3  0  0  0  0  0  0
  186.0500  177.8610  144.2310 C   0  0  0  0  0  3  0  0  0  0  0  0
  1  5  1  0  0  0  0
  1 38  1  1  0  0  0
  2  5  1  0  0  0  0
  2 14  1  0  0  0  0
  3 11  1  0  0  0  0
  4  8  1  6  0  0  0
  4  3  1  0  0  0  0
  4 10  1  0  0  0  0
  7  6  1  6  0  0  0
  7 10  1  0  0  0  0
  9  7  1  0  0  0  0
 10 12  1  1  0  0  0
 11 18  1  6  0  0  0
 11  1  1  0  0  0  0
 12  2  2  0  0  0  0
 13  8  1  0  0  0  0
 13  9  1  0  0  0  0
 14 16  1  0  0  0  0
 14 15  1  0  0  0  0
 16 15  1  0  0  0  0
 18 17  1  1  0  0  0
 18 21  1  0  0  0  0
 19 24  1  0  0  0  0
 21 22  2  0  0  0  0
 22 20  1  0  0  0  0
 23 19  2  0  0  0  0
 23 21  1  0  0  0  0
 24 20  2  0  0  0  0
 25 23  1  0  0  0  0
 26 25  2  0  0  0  0
 27 25  2  0  0  0  0
 29 28  1  0  0  0  0
 29 25  1  0  0  0  0
 30 32  1  0  0  0  0
 30 33  1  0  0  0  0
 31 30  2  0  0  0  0
 32 33  1  0  0  0  0
 32 29  1  1  0  0  0
 33 34  1  1  0  0  0
 34 35  1  0  0  0  0
 35 36  1  0  0  0  0
 37 35  2  0  0  0  0
 38 39  1  0  0  0  0
 39 41  1  0  0  0  0
 40 43  1  0  0  0  0
 40 42  1  0  0  0  0
 41 47  1  0  0  0  0
 44 42  2  0  0  0  0
 45 46  1  0  0  0  0
 45 44  1  0  0  0  0
 46 40  2  0  0  0  0
 47 43  2  0  0  0  0
 48 41  2  0  0  0  0
 48 46  1  0  0  0  0
M  END
>  <MODEL>
1

>  <REMARK>
 VINA RESULT:      -8.4      0.000      0.000
  Name = 
  11 active torsions:
  status: ('A' for Active; 'I' for Inactive)
    1  A    between atoms: C_3  and  C_6
    2  A    between atoms: C_4  and  C_12
    3  A    between atoms: C_5  and  C_10
    4  A    between atoms: S_8  and  N_37
    5  A    between atoms: S_8  and  C_43
    6  A    between atoms: C_10  and  C_33
    7  A    between atoms: C_12  and  C_42
    8  A    between atoms: C_18  and  C_33
    9  A    between atoms: C_29  and  C_35
   10  A    between atoms: C_30  and  N_37
   11  A    between atoms: C_35  and  C_41
                            x       y       z     vdW  Elec       q    Type
                         _______ _______ _______ _____ _____    ______ ____

>  <TORSDO>
F 11

$$$$
=
 OpenBabel11062415243D

 48 54  0  0  1  0  0  0  0  0999 V2000
  184.8310  178.6660  141.5710 C   0  0  2  0  0  3  0  0  0  0  0  0
  183.9290  178.9420  143.8120 C   0  0  0  0  0  0  0  0  0  0  0  0
  182.4910  177.2790  140.7440 S   0  0  0  0  0  0  0  0  0  0  0  0
  181.8130  178.7510  141.5810 C   0  0  1  0  0  3  0  0  0  0  0  0
  184.4310  178.1090  142.8140 O   0  0  0  0  0  0  0  0  0  0  0  0
  179.2950  177.7480  143.1740 O   0  0  0  0  0  1  0  0  0  0  0  0
  180.1810  178.7410  143.5860 C   0  0  2  0  0  3  0  0  0  0  0  0
  180.5300  179.1730  140.8800 C   0  0  0  0  0  2  0  0  0  0  0  0
  179.6900  180.1110  143.1070 C   0  0  0  0  0  2  0  0  0  0  0  0
  181.5970  178.4260  143.0770 C   0  0  2  0  0  3  0  0  0  0  0  0
  184.1450  177.9790  140.3780 C   0  0  1  0  0  3  0  0  0  0  0  0
  182.6110  179.1200  143.9390 C   0  0  0  0  0  3  0  0  0  0  0  0
  179.8980  180.3610  141.6010 C   0  0  0  0  0  2  0  0  0  0  0  0
  184.8590  179.6960  144.7130 C   0  0  0  0  0  3  0  0  0  0  0  0
  185.9950  178.8060  145.1780 C   0  0  0  0  0  2  0  0  0  0  0  0
  184.8330  179.0820  146.1000 C   0  0  0  0  0  2  0  0  0  0  0  0
  184.5220  180.1460  139.3040 O   0  0  0  0  0  1  0  0  0  0  0  0
  184.1010  178.8280  139.0940 C   0  0  1  0  0  3  0  0  0  0  0  0
  184.9890  177.1410  135.7790 C   0  0  0  0  0  3  0  0  0  0  0  0
  187.0340  177.7180  136.9330 C   0  0  0  0  0  3  0  0  0  0  0  0
  184.8830  178.2080  137.9640 C   0  0  0  0  0  0  0  0  0  0  0  0
  186.2860  178.2390  137.9930 C   0  0  0  0  0  3  0  0  0  0  0  0
  184.2270  177.6630  136.8370 C   0  0  0  0  0  0  0  0  0  0  0  0
  186.3850  177.1660  135.8270 C   0  0  0  0  0  3  0  0  0  0  0  0
  182.4680  177.6260  136.7070 S   0  0  0  0  0  0  0  0  0  0  0  0
  181.8980  178.8140  137.4380 O   0  0  0  0  0  0  0  0  0  0  0  0
  182.0710  177.7250  135.2580 O   0  0  0  0  0  0  0  0  0  0  0  0
  180.6480  176.3730  137.8810 O   0  0  0  0  0  1  0  0  0  0  0  0
  181.8920  176.1380  137.4040 N   0  0  0  0  0  0  0  0  0  0  0  0
  181.3710  173.7820  136.9740 C   0  0  0  0  0  0  0  0  0  0  0  0
  180.5790  173.0420  137.5300 O   0  0  0  0  0  0  0  0  0  0  0  0
  181.7580  175.1290  136.3570 C   0  0  2  0  0  3  0  0  0  0  0  0
  182.7550  174.0870  136.3970 C   0  0  1  0  0  3  0  0  0  0  0  0
  183.7530  174.1640  137.5470 C   0  0  0  0  0  2  0  0  0  0  0  0
  184.5980  172.9470  137.5680 C   0  0  0  0  0  0  0  0  0  0  0  0
  185.9230  173.0330  137.9730 O   0  0  0  0  0  1  0  0  0  0  0  0
  184.1190  171.8450  137.2030 O   0  0  0  0  0  0  0  0  0  0  0  0
  186.3480  178.6480  141.4320 C   0  0  0  0  0  2  0  0  0  0  0  0
  186.9950  177.6480  142.3820 C   0  0  0  0  0  2  0  0  0  0  0  0
  191.2020  177.3980  141.7120 C   0  0  0  0  0  0  0  0  0  0  0  0
  188.4620  177.5770  142.1380 C   0  0  0  0  0  0  0  0  0  0  0  0
  192.5680  177.2760  141.3730 N   0  0  0  0  0  0  0  0  0  0  0  0
  190.7340  177.5890  143.0150 C   0  0  0  0  0  3  0  0  0  0  0  0
  192.7830  177.0640  139.9480 C   0  0  0  0  0  3  0  0  0  0  0  0
  191.1490  177.0320  139.0900 S   0  0  0  0  0  0  0  0  0  0  0  0
  190.3410  177.3060  140.6510 C   0  0  0  0  0  0  0  0  0  0  0  0
  189.3500  177.6760  143.2240 C   0  0  0  0  0  3  0  0  0  0  0  0
  188.9610  177.3900  140.8380 C   0  0  0  0  0  3  0  0  0  0  0  0
  1 38  1  6  0  0  0
  1  5  1  0  0  0  0
  2 12  2  0  0  0  0
  2 14  1  0  0  0  0
  3  4  1  0  0  0  0
  4  8  1  6  0  0  0
  4 10  1  0  0  0  0
  5  2  1  0  0  0  0
  7  6  1  6  0  0  0
  8 13  1  0  0  0  0
  9  7  1  0  0  0  0
 10  7  1  0  0  0  0
 10 12  1  1  0  0  0
 11 18  1  6  0  0  0
 11  3  1  0  0  0  0
 11  1  1  0  0  0  0
 13  9  1  0  0  0  0
 14 15  1  0  0  0  0
 14 16  1  0  0  0  0
 15 16  1  0  0  0  0
 18 17  1  1  0  0  0
 19 24  2  0  0  0  0
 19 23  1  0  0  0  0
 20 22  2  0  0  0  0
 21 22  1  0  0  0  0
 21 18  1  0  0  0  0
 23 21  2  0  0  0  0
 24 20  1  0  0  0  0
 25 23  1  0  0  0  0
 25 29  1  0  0  0  0
 25 26  2  0  0  0  0
 27 25  2  0  0  0  0
 29 28  1  0  0  0  0
 30 31  2  0  0  0  0
 32 33  1  0  0  0  0
 32 30  1  0  0  0  0
 32 29  1  1  0  0  0
 33 30  1  0  0  0  0
 33 34  1  1  0  0  0
 34 35  1  0  0  0  0
 35 36  1  0  0  0  0
 37 35  2  0  0  0  0
 38 39  1  0  0  0  0
 40 43  1  0  0  0  0
 41 39  1  0  0  0  0
 41 47  1  0  0  0  0
 42 40  1  0  0  0  0
 43 47  2  0  0  0  0
 44 42  2  0  0  0  0
 45 44  1  0  0  0  0
 45 46  1  0  0  0  0
 46 48  1  0  0  0  0
 46 40  2  0  0  0  0
 48 41  2  0  0  0  0
M  END
>  <MODEL>
2

>  <REMARK>
 VINA RESULT:      -8.4      2.959      4.946
  Name = 
  11 active torsions:
  status: ('A' for Active; 'I' for Inactive)
    1  A    between atoms: C_3  and  C_6
    2  A    between atoms: C_4  and  C_12
    3  A    between atoms: C_5  and  C_10
    4  A    between atoms: S_8  and  N_37
    5  A    between atoms: S_8  and  C_43
    6  A    between atoms: C_10  and  C_33
    7  A    between atoms: C_12  and  C_42
    8  A    between atoms: C_18  and  C_33
    9  A    between atoms: C_29  and  C_35
   10  A    between atoms: C_30  and  N_37
   11  A    between atoms: C_35  and  C_41
                            x       y       z     vdW  Elec       q    Type
                         _______ _______ _______ _____ _____    ______ ____

>  <TORSDO>
F 11

$$$$
=
 OpenBabel11062415243D

 48 54  0  0  1  0  0  0  0  0999 V2000
  185.3130  178.8030  141.1950 C   0  0  2  0  0  3  0  0  0  0  0  0
  187.6670  178.5700  140.6290 C   0  0  0  0  0  0  0  0  0  0  0  0
  184.6590  179.3360  138.4800 S   0  0  0  0  0  0  0  0  0  0  0  0
  185.7130  177.8520  138.3570 C   0  0  1  0  0  3  0  0  0  0  0  0
  186.5370  179.3760  140.7630 O   0  0  0  0  0  0  0  0  0  0  0  0
  187.5080  178.2830  135.8130 O   0  0  0  0  0  1  0  0  0  0  0  0
  187.8990  177.6500  136.9910 C   0  0  2  0  0  3  0  0  0  0  0  0
  185.2240  176.9910  137.2020 C   0  0  0  0  0  2  0  0  0  0  0  0
  187.6190  176.1460  136.8940 C   0  0  0  0  0  2  0  0  0  0  0  0
  187.1860  178.2910  138.1930 C   0  0  2  0  0  3  0  0  0  0  0  0
  184.1560  179.1020  140.2270 C   0  0  1  0  0  3  0  0  0  0  0  0
  187.9750  178.0380  139.4440 C   0  0  0  0  0  3  0  0  0  0  0  0
  186.1300  175.7740  137.0270 C   0  0  0  0  0  2  0  0  0  0  0  0
  188.5110  178.2410  141.8220 C   0  0  0  0  0  3  0  0  0  0  0  0
  189.7060  177.3990  141.4190 C   0  0  0  0  0  2  0  0  0  0  0  0
  188.5040  176.7410  142.0520 C   0  0  0  0  0  2  0  0  0  0  0  0
  183.2790  176.9840  141.0860 O   0  0  0  0  0  1  0  0  0  0  0  0
  182.9760  178.1180  140.3230 C   0  0  1  0  0  3  0  0  0  0  0  0
  179.3900  179.4240  140.5720 C   0  0  0  0  0  3  0  0  0  0  0  0
  180.5040  179.7950  142.6860 C   0  0  0  0  0  3  0  0  0  0  0  0
  181.7200  178.7710  140.8410 C   0  0  0  0  0  0  0  0  0  0  0  0
  181.6740  179.2330  142.1650 C   0  0  0  0  0  3  0  0  0  0  0  0
  180.5590  178.8570  140.0390 C   0  0  0  0  0  0  0  0  0  0  0  0
  179.3630  179.8930  141.8880 C   0  0  0  0  0  3  0  0  0  0  0  0
  180.5240  178.2600  138.3790 S   0  0  0  0  0  0  0  0  0  0  0  0
  181.3800  177.0230  138.2850 O   0  0  0  0  0  0  0  0  0  0  0  0
  179.1120  177.8890  138.0100 O   0  0  0  0  0  0  0  0  0  0  0  0
  181.8190  178.9020  136.3370 O   0  0  0  0  0  1  0  0  0  0  0  0
  181.1290  179.5100  137.3280 N   0  0  0  0  0  0  0  0  0  0  0  0
  180.5260  181.2010  135.6600 C   0  0  0  0  0  0  0  0  0  0  0  0
  181.0500  181.4710  134.5940 O   0  0  0  0  0  0  0  0  0  0  0  0
  180.0070  180.2010  136.6960 C   0  0  2  0  0  3  0  0  0  0  0  0
  179.9200  181.6070  137.0050 C   0  0  1  0  0  3  0  0  0  0  0  0
  181.0310  182.1670  137.8870 C   0  0  0  0  0  2  0  0  0  0  0  0
  181.2030  183.6150  137.6300 C   0  0  0  0  0  0  0  0  0  0  0  0
  180.0890  184.4150  137.4110 O   0  0  0  0  0  0  0  0  0  0  0  0
  182.3550  184.1140  137.5950 O   0  0  0  0  0  1  0  0  0  0  0  0
  184.9820  179.2410  142.6170 C   0  0  0  0  0  2  0  0  0  0  0  0
  184.7230  178.0520  143.5320 C   0  0  0  0  0  2  0  0  0  0  0  0
  186.9700  178.3850  147.1450 C   0  0  0  0  0  0  0  0  0  0  0  0
  185.5190  178.1790  144.7840 C   0  0  0  0  0  0  0  0  0  0  0  0
  187.7980  178.4170  148.2890 N   0  0  0  0  0  0  0  0  0  0  0  0
  185.6670  178.8890  147.1090 C   0  0  0  0  0  3  0  0  0  0  0  0
  189.1030  177.8090  148.0630 C   0  0  0  0  0  3  0  0  0  0  0  0
  189.1920  177.2040  146.3220 S   0  0  0  0  0  0  0  0  0  0  0  0
  187.5410  177.8050  146.0440 C   0  0  0  0  0  0  0  0  0  0  0  0
  184.9400  178.7800  145.9150 C   0  0  0  0  0  3  0  0  0  0  0  0
  186.8330  177.6860  144.8480 C   0  0  0  0  0  3  0  0  0  0  0  0
  1 38  1  1  0  0  0
  2  5  1  0  0  0  0
  2 14  1  0  0  0  0
  3 11  1  0  0  0  0
  4  8  1  6  0  0  0
  4  3  1  0  0  0  0
  5  1  1  0  0  0  0
  7  6  1  6  0  0  0
  7 10  1  0  0  0  0
  9  7  1  0  0  0  0
  9 13  1  0  0  0  0
 10  4  1  0  0  0  0
 10 12  1  1  0  0  0
 11 18  1  6  0  0  0
 11  1  1  0  0  0  0
 12  2  2  0  0  0  0
 13  8  1  0  0  0  0
 14 16  1  0  0  0  0
 15 14  1  0  0  0  0
 15 16  1  0  0  0  0
 18 21  1  0  0  0  0
 18 17  1  1  0  0  0
 19 24  1  0  0  0  0
 21 22  2  0  0  0  0
 22 20  1  0  0  0  0
 23 19  2  0  0  0  0
 23 21  1  0  0  0  0
 24 20  2  0  0  0  0
 25 23  1  0  0  0  0
 26 25  2  0  0  0  0
 27 25  2  0  0  0  0
 28 29  1  0  0  0  0
 29 25  1  0  0  0  0
 30 32  1  0  0  0  0
 30 33  1  0  0  0  0
 31 30  2  0  0  0  0
 32 33  1  0  0  0  0
 32 29  1  1  0  0  0
 33 34  1  1  0  0  0
 35 34  1  0  0  0  0
 36 35  2  0  0  0  0
 37 35  1  0  0  0  0
 38 39  1  0  0  0  0
 39 41  1  0  0  0  0
 40 42  1  0  0  0  0
 41 48  2  0  0  0  0
 41 47  1  0  0  0  0
 43 40  1  0  0  0  0
 44 42  2  0  0  0  0
 45 44  1  0  0  0  0
 46 45  1  0  0  0  0
 46 40  2  0  0  0  0
 47 43  2  0  0  0  0
 48 46  1  0  0  0  0
M  END
>  <MODEL>
3

>  <REMARK>
 VINA RESULT:      -8.4      2.513      7.113
  Name = 
  11 active torsions:
  status: ('A' for Active; 'I' for Inactive)
    1  A    between atoms: C_3  and  C_6
    2  A    between atoms: C_4  and  C_12
    3  A    between atoms: C_5  and  C_10
    4  A    between atoms: S_8  and  N_37
    5  A    between atoms: S_8  and  C_43
    6  A    between atoms: C_10  and  C_33
    7  A    between atoms: C_12  and  C_42
    8  A    between atoms: C_18  and  C_33
    9  A    between atoms: C_29  and  C_35
   10  A    between atoms: C_30  and  N_37
   11  A    between atoms: C_35  and  C_41
                            x       y       z     vdW  Elec       q    Type
                         _______ _______ _______ _____ _____    ______ ____

>  <TORSDO>
F 11

$$$$
=
 OpenBabel11062415243D

 48 54  0  0  1  0  0  0  0  0999 V2000
  186.0740  178.2970  139.7450 C   0  0  2  0  0  3  0  0  0  0  0  0
  188.3750  177.5980  140.1130 C   0  0  0  0  0  0  0  0  0  0  0  0
  186.5280  178.4940  136.9460 S   0  0  0  0  0  0  0  0  0  0  0  0
  187.2240  176.8580  137.3530 C   0  0  1  0  0  3  0  0  0  0  0  0
  187.4630  178.5890  139.7480 O   0  0  0  0  0  0  0  0  0  0  0  0
  189.8370  176.5840  135.6260 O   0  0  0  0  0  1  0  0  0  0  0  0
  189.6540  176.0900  136.9160 C   0  0  2  0  0  3  0  0  0  0  0  0
  186.9970  175.9160  136.1790 C   0  0  0  0  0  2  0  0  0  0  0  0
  189.1180  174.6560  136.8550 C   0  0  0  0  0  2  0  0  0  0  0  0
  188.7200  177.0200  137.7070 C   0  0  2  0  0  3  0  0  0  0  0  0
  185.4140  178.6240  138.3950 C   0  0  1  0  0  3  0  0  0  0  0  0
  188.9560  176.8420  139.1780 C   0  0  0  0  0  3  0  0  0  0  0  0
  187.6320  174.5560  136.4600 C   0  0  0  0  0  2  0  0  0  0  0  0
  188.6650  177.3290  141.5580 C   0  0  0  0  0  3  0  0  0  0  0  0
  189.1880  178.5760  142.2430 C   0  0  0  0  0  2  0  0  0  0  0  0
  190.1500  177.4940  141.8190 C   0  0  0  0  0  2  0  0  0  0  0  0
  183.8130  176.9190  139.1190 O   0  0  0  0  0  1  0  0  0  0  0  0
  184.0960  177.8720  138.1340 C   0  0  1  0  0  3  0  0  0  0  0  0
  180.7850  179.3760  136.9490 C   0  0  0  0  0  3  0  0  0  0  0  0
  181.7120  180.7920  138.6750 C   0  0  0  0  0  3  0  0  0  0  0  0
  182.9230  178.8040  137.9620 C   0  0  0  0  0  0  0  0  0  0  0  0
  182.8150  179.9400  138.7780 C   0  0  0  0  0  3  0  0  0  0  0  0
  181.8880  178.5120  137.0440 C   0  0  0  0  0  0  0  0  0  0  0  0
  180.6980  180.5120  137.7570 C   0  0  0  0  0  3  0  0  0  0  0  0
  181.9290  177.0800  136.0140 S   0  0  0  0  0  0  0  0  0  0  0  0
  180.9080  177.2370  134.9170 O   0  0  0  0  0  0  0  0  0  0  0  0
  183.2890  176.9580  135.3830 O   0  0  0  0  0  0  0  0  0  0  0  0
  180.3700  175.8960  137.5720 O   0  0  0  0  0  1  0  0  0  0  0  0
  181.5740  175.6840  136.9930 N   0  0  0  0  0  0  0  0  0  0  0  0
  181.2890  173.2500  136.9900 C   0  0  0  0  0  0  0  0  0  0  0  0
  180.6710  172.5340  137.7580 O   0  0  0  0  0  0  0  0  0  0  0  0
  181.4280  174.5120  136.1340 C   0  0  2  0  0  3  0  0  0  0  0  0
  182.5400  173.5940  136.1790 C   0  0  1  0  0  3  0  0  0  0  0  0
  183.6610  173.9520  137.1480 C   0  0  0  0  0  2  0  0  0  0  0  0
  184.5420  172.7810  137.3610 C   0  0  0  0  0  0  0  0  0  0  0  0
  184.4000  171.6540  136.5620 O   0  0  0  0  0  0  0  0  0  0  0  0
  185.4030  172.8020  138.2760 O   0  0  0  0  0  1  0  0  0  0  0  0
  185.3710  179.0020  140.8990 C   0  0  0  0  0  2  0  0  0  0  0  0
  184.5390  178.0360  141.7320 C   0  0  0  0  0  2  0  0  0  0  0  0
  185.1810  178.6670  145.9040 C   0  0  0  0  0  0  0  0  0  0  0  0
  184.7760  178.2690  143.1840 C   0  0  0  0  0  0  0  0  0  0  0  0
  185.5000  178.8080  147.2730 N   0  0  0  0  0  0  0  0  0  0  0  0
  183.9390  178.9930  145.3530 C   0  0  0  0  0  3  0  0  0  0  0  0
  186.8560  178.3780  147.5870 C   0  0  0  0  0  3  0  0  0  0  0  0
  187.6760  177.7900  146.0420 S   0  0  0  0  0  0  0  0  0  0  0  0
  186.1950  178.1660  145.1320 C   0  0  0  0  0  0  0  0  0  0  0  0
  183.7400  178.7890  143.9800 C   0  0  0  0  0  3  0  0  0  0  0  0
  186.0160  177.9540  143.7640 C   0  0  0  0  0  3  0  0  0  0  0  0
  1  5  1  0  0  0  0
  1 38  1  1  0  0  0
  2 14  1  0  0  0  0
  3  4  1  0  0  0  0
  3 11  1  0  0  0  0
  4  8  1  6  0  0  0
  4 10  1  0  0  0  0
  5  2  1  0  0  0  0
  7  6  1  6  0  0  0
  7 10  1  0  0  0  0
  8 13  1  0  0  0  0
  9  7  1  0  0  0  0
 10 12  1  1  0  0  0
 11 18  1  6  0  0  0
 11  1  1  0  0  0  0
 12  2  2  0  0  0  0
 13  9  1  0  0  0  0
 14 16  1  0  0  0  0
 14 15  1  0  0  0  0
 16 15  1  0  0  0  0
 18 17  1  1  0  0  0
 19 23  2  0  0  0  0
 19 24  1  0  0  0  0
 20 22  1  0  0  0  0
 21 18  1  0  0  0  0
 21 22  2  0  0  0  0
 23 21  1  0  0  0  0
 24 20  2  0  0  0  0
 25 29  1  0  0  0  0
 25 23  1  0  0  0  0
 26 25  2  0  0  0  0
 27 25  2  0  0  0  0
 29 28  1  0  0  0  0
 30 31  2  0  0  0  0
 32 33  1  0  0  0  0
 32 30  1  0  0  0  0
 32 29  1  1  0  0  0
 33 30  1  0  0  0  0
 33 34  1  1  0  0  0
 34 35  1  0  0  0  0
 35 37  1  0  0  0  0
 36 35  2  0  0  0  0
 38 39  1  0  0  0  0
 39 41  1  0  0  0  0
 40 42  1  0  0  0  0
 41 48  2  0  0  0  0
 41 47  1  0  0  0  0
 42 44  2  0  0  0  0
 43 40  1  0  0  0  0
 45 44  1  0  0  0  0
 46 40  2  0  0  0  0
 46 45  1  0  0  0  0
 47 43  2  0  0  0  0
 48 46  1  0  0  0  0
M  END
>  <MODEL>
4

>  <REMARK>
 VINA RESULT:      -8.3      2.319      6.201
  Name = 
  11 active torsions:
  status: ('A' for Active; 'I' for Inactive)
    1  A    between atoms: C_3  and  C_6
    2  A    between atoms: C_4  and  C_12
    3  A    between atoms: C_5  and  C_10
    4  A    between atoms: S_8  and  N_37
    5  A    between atoms: S_8  and  C_43
    6  A    between atoms: C_10  and  C_33
    7  A    between atoms: C_12  and  C_42
    8  A    between atoms: C_18  and  C_33
    9  A    between atoms: C_29  and  C_35
   10  A    between atoms: C_30  and  N_37
   11  A    between atoms: C_35  and  C_41
                            x       y       z     vdW  Elec       q    Type
                         _______ _______ _______ _____ _____    ______ ____

>  <TORSDO>
F 11

$$$$
=
 OpenBabel11062415243D

 48 54  0  0  1  0  0  0  0  0999 V2000
  185.4420  178.7070  141.2940 C   0  0  2  0  0  3  0  0  0  0  0  0
  187.7890  178.6110  140.6630 C   0  0  0  0  0  0  0  0  0  0  0  0
  184.7010  179.3780  138.6330 S   0  0  0  0  0  0  0  0  0  0  0  0
  185.8120  177.9510  138.3950 C   0  0  1  0  0  3  0  0  0  0  0  0
  186.6300  179.3580  140.8720 O   0  0  0  0  0  0  0  0  0  0  0  0
  187.5250  178.6140  135.8430 O   0  0  0  0  0  1  0  0  0  0  0  0
  187.9700  177.9270  136.9710 C   0  0  2  0  0  3  0  0  0  0  0  0
  185.3310  177.1420  137.1980 C   0  0  0  0  0  2  0  0  0  0  0  0
  187.7510  176.4220  136.7860 C   0  0  0  0  0  2  0  0  0  0  0  0
  187.2610  178.4620  138.2260 C   0  0  2  0  0  3  0  0  0  0  0  0
  184.2500  179.0160  140.3720 C   0  0  1  0  0  3  0  0  0  0  0  0
  188.0910  178.1660  139.4410 C   0  0  0  0  0  3  0  0  0  0  0  0
  186.2820  175.9780  136.9280 C   0  0  0  0  0  2  0  0  0  0  0  0
  188.6750  178.2450  141.8150 C   0  0  0  0  0  3  0  0  0  0  0  0
  189.7840  177.3140  141.3650 C   0  0  0  0  0  2  0  0  0  0  0  0
  188.5780  176.7550  142.0790 C   0  0  0  0  0  2  0  0  0  0  0  0
  183.5280  176.7560  140.9760 O   0  0  0  0  0  1  0  0  0  0  0  0
  183.1150  177.9770  140.4320 C   0  0  1  0  0  3  0  0  0  0  0  0
  179.4980  178.8260  141.3390 C   0  0  0  0  0  3  0  0  0  0  0  0
  180.9300  179.4380  143.1880 C   0  0  0  0  0  3  0  0  0  0  0  0
  181.9030  178.4890  141.1680 C   0  0  0  0  0  0  0  0  0  0  0  0
  182.0450  179.0050  142.4650 C   0  0  0  0  0  3  0  0  0  0  0  0
  180.6100  178.3870  140.6030 C   0  0  0  0  0  0  0  0  0  0  0  0
  179.6560  179.3510  142.6240 C   0  0  0  0  0  3  0  0  0  0  0  0
  180.3440  177.7100  138.9950 S   0  0  0  0  0  0  0  0  0  0  0  0
  178.9340  178.0200  138.5610 O   0  0  0  0  0  0  0  0  0  0  0  0
  181.2930  178.3510  138.0200 O   0  0  0  0  0  0  0  0  0  0  0  0
  179.9250  175.5280  140.1460 O   0  0  0  0  0  1  0  0  0  0  0  0
  180.6020  175.9890  139.0700 N   0  0  0  0  0  0  0  0  0  0  0  0
  180.2880  173.8510  137.9150 C   0  0  0  0  0  0  0  0  0  0  0  0
  180.1250  172.7330  138.3700 O   0  0  0  0  0  0  0  0  0  0  0  0
  180.0090  175.3570  137.8950 C   0  0  2  0  0  3  0  0  0  0  0  0
  180.9640  174.8300  136.9510 C   0  0  1  0  0  3  0  0  0  0  0  0
  182.4320  174.9600  137.3460 C   0  0  0  0  0  2  0  0  0  0  0  0
  183.1920  173.7810  136.8690 C   0  0  0  0  0  0  0  0  0  0  0  0
  182.8930  173.2190  135.6350 O   0  0  0  0  0  0  0  0  0  0  0  0
  184.0930  173.2840  137.5890 O   0  0  0  0  0  1  0  0  0  0  0  0
  185.1280  179.0420  142.7470 C   0  0  0  0  0  2  0  0  0  0  0  0
  185.0960  177.7970  143.6240 C   0  0  0  0  0  2  0  0  0  0  0  0
  187.1760  178.4630  147.2900 C   0  0  0  0  0  0  0  0  0  0  0  0
  185.8350  178.0390  144.8930 C   0  0  0  0  0  0  0  0  0  0  0  0
  187.9480  178.5970  148.4650 N   0  0  0  0  0  0  0  0  0  0  0  0
  185.8950  178.9990  147.1310 C   0  0  0  0  0  3  0  0  0  0  0  0
  189.2400  177.9280  148.3760 C   0  0  0  0  0  3  0  0  0  0  0  0
  189.3920  177.1310  146.7190 S   0  0  0  0  0  0  0  0  0  0  0  0
  187.7780  177.7460  146.2910 C   0  0  0  0  0  0  0  0  0  0  0  0
  185.2230  178.7800  145.9200 C   0  0  0  0  0  3  0  0  0  0  0  0
  187.1250  177.5170  145.0800 C   0  0  0  0  0  3  0  0  0  0  0  0
  1 38  1  1  0  0  0
  2  5  1  0  0  0  0
  2 14  1  0  0  0  0
  3 11  1  0  0  0  0
  4  8  1  6  0  0  0
  4  3  1  0  0  0  0
  5  1  1  0  0  0  0
  7  6  1  6  0  0  0
  7 10  1  0  0  0  0
  9 13  1  0  0  0  0
  9  7  1  0  0  0  0
 10  4  1  0  0  0  0
 10 12  1  1  0  0  0
 11 18  1  6  0  0  0
 11  1  1  0  0  0  0
 12  2  2  0  0  0  0
 13  8  1  0  0  0  0
 14 16  1  0  0  0  0
 15 14  1  0  0  0  0
 15 16  1  0  0  0  0
 18 17  1  1  0  0  0
 18 21  1  0  0  0  0
 19 24  1  0  0  0  0
 21 22  2  0  0  0  0
 22 20  1  0  0  0  0
 23 21  1  0  0  0  0
 23 19  2  0  0  0  0
 24 20  2  0  0  0  0
 25 29  1  0  0  0  0
 25 23  1  0  0  0  0
 26 25  2  0  0  0  0
 27 25  2  0  0  0  0
 29 28  1  0  0  0  0
 30 31  2  0  0  0  0
 32 30  1  0  0  0  0
 32 29  1  1  0  0  0
 33 34  1  1  0  0  0
 33 32  1  0  0  0  0
 33 30  1  0  0  0  0
 35 34  1  0  0  0  0
 35 37  1  0  0  0  0
 36 35  2  0  0  0  0
 38 39  1  0  0  0  0
 39 41  1  0  0  0  0
 40 42  1  0  0  0  0
 41 48  2  0  0  0  0
 41 47  1  0  0  0  0
 43 40  1  0  0  0  0
 44 42  2  0  0  0  0
 45 44  1  0  0  0  0
 46 45  1  0  0  0  0
 46 40  2  0  0  0  0
 47 43  2  0  0  0  0
 48 46  1  0  0  0  0
M  END
>  <MODEL>
5

>  <REMARK>
 VINA RESULT:      -8.1      2.331      6.193
  Name = 
  11 active torsions:
  status: ('A' for Active; 'I' for Inactive)
    1  A    between atoms: C_3  and  C_6
    2  A    between atoms: C_4  and  C_12
    3  A    between atoms: C_5  and  C_10
    4  A    between atoms: S_8  and  N_37
    5  A    between atoms: S_8  and  C_43
    6  A    between atoms: C_10  and  C_33
    7  A    between atoms: C_12  and  C_42
    8  A    between atoms: C_18  and  C_33
    9  A    between atoms: C_29  and  C_35
   10  A    between atoms: C_30  and  N_37
   11  A    between atoms: C_35  and  C_41
                            x       y       z     vdW  Elec       q    Type
                         _______ _______ _______ _____ _____    ______ ____

>  <TORSDO>
F 11

$$$$
=
 OpenBabel11062415243D

 48 54  0  0  1  0  0  0  0  0999 V2000
  186.3750  178.3830  140.7520 C   0  0  2  0  0  3  0  0  0  0  0  0
  188.6920  177.6660  140.5690 C   0  0  0  0  0  0  0  0  0  0  0  0
  186.2940  179.0040  137.9800 S   0  0  0  0  0  0  0  0  0  0  0  0
  187.0280  177.3340  137.9970 C   0  0  1  0  0  3  0  0  0  0  0  0
  187.7450  178.6880  140.5350 O   0  0  0  0  0  0  0  0  0  0  0  0
  189.2620  177.3560  135.7860 O   0  0  0  0  0  1  0  0  0  0  0  0
  189.3190  176.6710  136.9970 C   0  0  2  0  0  3  0  0  0  0  0  0
  186.5680  176.5770  136.7600 C   0  0  0  0  0  2  0  0  0  0  0  0
  188.7580  175.2560  136.8250 C   0  0  0  0  0  2  0  0  0  0  0  0
  188.5670  177.4600  138.0820 C   0  0  2  0  0  3  0  0  0  0  0  0
  185.4770  178.9000  139.6170 C   0  0  1  0  0  3  0  0  0  0  0  0
  189.0740  177.0660  139.4380 C   0  0  0  0  0  3  0  0  0  0  0  0
  187.2220  175.1980  136.7080 C   0  0  0  0  0  2  0  0  0  0  0  0
  189.2460  177.1850  141.8750 C   0  0  0  0  0  3  0  0  0  0  0  0
  189.7410  178.3500  142.7100 C   0  0  0  0  0  2  0  0  0  0  0  0
  190.7280  177.5010  141.9470 C   0  0  0  0  0  2  0  0  0  0  0  0
  183.5860  177.8310  140.7460 O   0  0  0  0  0  1  0  0  0  0  0  0
  184.1210  178.1800  139.5010 C   0  0  1  0  0  3  0  0  0  0  0  0
  181.3790  179.1130  137.0030 C   0  0  0  0  0  3  0  0  0  0  0  0
  181.9060  181.0540  138.3450 C   0  0  0  0  0  3  0  0  0  0  0  0
  183.1130  178.9710  138.7060 C   0  0  0  0  0  0  0  0  0  0  0  0
  182.8730  180.3140  139.0320 C   0  0  0  0  0  3  0  0  0  0  0  0
  182.3460  178.3600  137.6870 C   0  0  0  0  0  0  0  0  0  0  0  0
  181.1610  180.4550  137.3280 C   0  0  0  0  0  3  0  0  0  0  0  0
  182.5580  176.6640  137.2480 S   0  0  0  0  0  0  0  0  0  0  0  0
  182.8680  176.5740  135.7760 O   0  0  0  0  0  0  0  0  0  0  0  0
  183.7190  176.0900  138.0140 O   0  0  0  0  0  0  0  0  0  0  0  0
  180.9130  174.8720  136.6620 O   0  0  0  0  0  1  0  0  0  0  0  0
  181.0880  175.8080  137.6230 N   0  0  0  0  0  0  0  0  0  0  0  0
  179.9010  174.5330  139.3460 C   0  0  0  0  0  0  0  0  0  0  0  0
  178.9630  173.7610  139.2420 O   0  0  0  0  0  0  0  0  0  0  0  0
  181.2500  175.0900  138.8840 C   0  0  2  0  0  3  0  0  0  0  0  0
  180.6070  175.7140  140.0150 C   0  0  1  0  0  3  0  0  0  0  0  0
  179.8160  176.9830  139.7150 C   0  0  0  0  0  2  0  0  0  0  0  0
  179.8680  177.9000  140.8770 C   0  0  0  0  0  0  0  0  0  0  0  0
  179.6630  177.4060  142.1580 O   0  0  0  0  0  1  0  0  0  0  0  0
  180.0790  179.1260  140.7000 O   0  0  0  0  0  0  0  0  0  0  0  0
  185.9150  178.8970  142.1110 C   0  0  0  0  0  2  0  0  0  0  0  0
  185.5090  177.7620  143.0410 C   0  0  0  0  0  2  0  0  0  0  0  0
  186.9160  178.4610  147.0090 C   0  0  0  0  0  0  0  0  0  0  0  0
  186.0140  178.0150  144.4180 C   0  0  0  0  0  0  0  0  0  0  0  0
  187.4710  178.6050  148.3000 N   0  0  0  0  0  0  0  0  0  0  0  0
  185.6820  178.9920  146.6240 C   0  0  0  0  0  3  0  0  0  0  0  0
  188.7590  177.9390  148.4430 C   0  0  0  0  0  3  0  0  0  0  0  0
  189.1990  177.1290  146.8440 S   0  0  0  0  0  0  0  0  0  0  0  0
  187.6840  177.7380  146.1360 C   0  0  0  0  0  0  0  0  0  0  0  0
  185.2320  178.7630  145.3170 C   0  0  0  0  0  3  0  0  0  0  0  0
  187.2530  177.4970  144.8310 C   0  0  0  0  0  3  0  0  0  0  0  0
  1 38  1  1  0  0  0
  2 14  1  0  0  0  0
  3  4  1  0  0  0  0
  3 11  1  0  0  0  0
  4  8  1  6  0  0  0
  4 10  1  0  0  0  0
  5  2  1  0  0  0  0
  5  1  1  0  0  0  0
  7  6  1  6  0  0  0
  7 10  1  0  0  0  0
  9  7  1  0  0  0  0
 10 12  1  1  0  0  0
 11 18  1  6  0  0  0
 11  1  1  0  0  0  0
 12  2  2  0  0  0  0
 13  8  1  0  0  0  0
 13  9  1  0  0  0  0
 14 16  1  0  0  0  0
 14 15  1  0  0  0  0
 16 15  1  0  0  0  0
 18 17  1  1  0  0  0
 19 24  2  0  0  0  0
 19 23  1  0  0  0  0
 20 22  2  0  0  0  0
 21 22  1  0  0  0  0
 21 18  1  0  0  0  0
 23 21  2  0  0  0  0
 24 20  1  0  0  0  0
 25 29  1  0  0  0  0
 25 23  1  0  0  0  0
 25 27  2  0  0  0  0
 26 25  2  0  0  0  0
 28 29  1  0  0  0  0
 30 33  1  0  0  0  0
 31 30  2  0  0  0  0
 32 29  1  6  0  0  0
 32 30  1  0  0  0  0
 32 33  1  0  0  0  0
 33 34  1  6  0  0  0
 34 35  1  0  0  0  0
 35 36  1  0  0  0  0
 37 35  2  0  0  0  0
 38 39  1  0  0  0  0
 39 41  1  0  0  0  0
 40 42  1  0  0  0  0
 41 48  2  0  0  0  0
 41 47  1  0  0  0  0
 42 44  2  0  0  0  0
 43 40  1  0  0  0  0
 45 44  1  0  0  0  0
 46 45  1  0  0  0  0
 46 40  2  0  0  0  0
 47 43  2  0  0  0  0
 48 46  1  0  0  0  0
M  END
>  <MODEL>
6

>  <REMARK>
 VINA RESULT:      -8.1      2.054      6.827
  Name = 
  11 active torsions:
  status: ('A' for Active; 'I' for Inactive)
    1  A    between atoms: C_3  and  C_6
    2  A    between atoms: C_4  and  C_12
    3  A    between atoms: C_5  and  C_10
    4  A    between atoms: S_8  and  N_37
    5  A    between atoms: S_8  and  C_43
    6  A    between atoms: C_10  and  C_33
    7  A    between atoms: C_12  and  C_42
    8  A    between atoms: C_18  and  C_33
    9  A    between atoms: C_29  and  C_35
   10  A    between atoms: C_30  and  N_37
   11  A    between atoms: C_35  and  C_41
                            x       y       z     vdW  Elec       q    Type
                         _______ _______ _______ _____ _____    ______ ____

>  <TORSDO>
F 11

$$$$
=
 OpenBabel11062415243D

 48 54  0  0  1  0  0  0  0  0999 V2000
  183.3030  178.6310  141.1000 C   0  0  2  0  0  3  0  0  0  0  0  0
  180.9110  178.6230  141.5420 C   0  0  0  0  0  0  0  0  0  0  0  0
  182.9910  176.6440  139.0910 S   0  0  0  0  0  0  0  0  0  0  0  0
  181.6970  177.8570  138.6630 C   0  0  1  0  0  3  0  0  0  0  0  0
  182.1450  177.9750  141.5910 O   0  0  0  0  0  0  0  0  0  0  0  0
  179.2080  176.1690  137.7510 O   0  0  0  0  0  1  0  0  0  0  0  0
  179.1660  177.3690  138.4560 C   0  0  2  0  0  3  0  0  0  0  0  0
  181.5420  177.9020  137.1500 C   0  0  0  0  0  2  0  0  0  0  0  0
  179.0880  178.5470  137.4800 C   0  0  0  0  0  2  0  0  0  0  0  0
  180.3860  177.4730  139.3870 C   0  0  2  0  0  3  0  0  0  0  0  0
  184.0510  177.7870  140.0550 C   0  0  1  0  0  3  0  0  0  0  0  0
  180.0860  178.4190  140.5120 C   0  0  0  0  0  3  0  0  0  0  0  0
  180.4150  178.8570  136.7620 C   0  0  0  0  0  2  0  0  0  0  0  0
  180.5240  179.6030  142.6080 C   0  0  0  0  0  3  0  0  0  0  0  0
  180.5270  178.9410  143.9720 C   0  0  0  0  0  2  0  0  0  0  0  0
  179.2210  179.1680  143.2500 C   0  0  0  0  0  2  0  0  0  0  0  0
  184.7510  179.9790  139.2180 O   0  0  0  0  0  1  0  0  0  0  0  0
  184.9640  178.5990  139.1170 C   0  0  1  0  0  3  0  0  0  0  0  0
  188.6000  177.6250  138.4460 C   0  0  0  0  0  3  0  0  0  0  0  0
  188.3760  178.2490  140.7710 C   0  0  0  0  0  3  0  0  0  0  0  0
  186.4240  178.2830  139.3160 C   0  0  0  0  0  0  0  0  0  0  0  0
  187.0120  178.4850  140.5740 C   0  0  0  0  0  3  0  0  0  0  0  0
  187.2330  177.8600  138.2360 C   0  0  0  0  0  0  0  0  0  0  0  0
  189.1700  177.8160  139.7080 C   0  0  0  0  0  3  0  0  0  0  0  0
  186.5770  177.6250  136.6140 S   0  0  0  0  0  0  0  0  0  0  0  0
  185.0880  177.8560  136.6500 O   0  0  0  0  0  0  0  0  0  0  0  0
  187.1910  178.6280  135.6770 O   0  0  0  0  0  0  0  0  0  0  0  0
  188.2520  175.9590  135.7900 O   0  0  0  0  0  1  0  0  0  0  0  0
  186.9370  175.9990  136.1020 N   0  0  0  0  0  0  0  0  0  0  0  0
  186.8030  173.6340  136.7270 C   0  0  0  0  0  0  0  0  0  0  0  0
  187.4080  172.6720  136.2860 O   0  0  0  0  0  0  0  0  0  0  0  0
  186.7410  175.0810  137.2210 C   0  0  2  0  0  3  0  0  0  0  0  0
  185.5120  174.3270  137.1700 C   0  0  1  0  0  3  0  0  0  0  0  0
  184.6410  174.5560  135.9400 C   0  0  0  0  0  2  0  0  0  0  0  0
  183.2330  174.2120  136.2440 C   0  0  0  0  0  0  0  0  0  0  0  0
  182.2070  174.7590  135.4850 O   0  0  0  0  0  0  0  0  0  0  0  0
  182.9690  173.4390  137.1980 O   0  0  0  0  0  1  0  0  0  0  0  0
  184.2180  179.0450  142.2460 C   0  0  0  0  0  2  0  0  0  0  0  0
  183.8330  178.3680  143.5550 C   0  0  0  0  0  2  0  0  0  0  0  0
  187.1970  178.0510  146.1610 C   0  0  0  0  0  0  0  0  0  0  0  0
  185.0160  178.2700  144.4540 C   0  0  0  0  0  0  0  0  0  0  0  0
  188.3690  177.8800  146.9320 N   0  0  0  0  0  0  0  0  0  0  0  0
  185.9850  178.5220  146.6740 C   0  0  0  0  0  3  0  0  0  0  0  0
  189.4870  177.3570  146.1590 C   0  0  0  0  0  3  0  0  0  0  0  0
  188.9460  177.1020  144.4140 S   0  0  0  0  0  0  0  0  0  0  0  0
  187.3290  177.7060  144.8430 C   0  0  0  0  0  0  0  0  0  0  0  0
  184.8880  178.6280  145.8080 C   0  0  0  0  0  3  0  0  0  0  0  0
  186.2480  177.8040  143.9650 C   0  0  0  0  0  3  0  0  0  0  0  0
  1  5  1  0  0  0  0
  1 38  1  1  0  0  0
  2  5  1  0  0  0  0
  2 14  1  0  0  0  0
  3 11  1  0  0  0  0
  4  8  1  6  0  0  0
  4  3  1  0  0  0  0
  4 10  1  0  0  0  0
  7  6  1  6  0  0  0
  7 10  1  0  0  0  0
  9  7  1  0  0  0  0
 10 12  1  1  0  0  0
 11 18  1  6  0  0  0
 11  1  1  0  0  0  0
 12  2  2  0  0  0  0
 13  8  1  0  0  0  0
 13  9  1  0  0  0  0
 14 16  1  0  0  0  0
 14 15  1  0  0  0  0
 16 15  1  0  0  0  0
 18 17  1  1  0  0  0
 18 21  1  0  0  0  0
 19 24  1  0  0  0  0
 21 22  2  0  0  0  0
 22 20  1  0  0  0  0
 23 19  2  0  0  0  0
 23 21  1  0  0  0  0
 24 20  2  0  0  0  0
 25 26  2  0  0  0  0
 25 23  1  0  0  0  0
 27 25  2  0  0  0  0
 28 29  1  0  0  0  0
 29 25  1  0  0  0  0
 30 33  1  0  0  0  0
 30 32  1  0  0  0  0
 31 30  2  0  0  0  0
 32 29  1  6  0  0  0
 33 34  1  6  0  0  0
 33 32  1  0  0  0  0
 34 35  1  0  0  0  0
 35 37  1  0  0  0  0
 36 35  2  0  0  0  0
 38 39  1  0  0  0  0
 39 41  1  0  0  0  0
 40 43  1  0  0  0  0
 40 42  1  0  0  0  0
 41 47  1  0  0  0  0
 44 42  2  0  0  0  0
 45 46  1  0  0  0  0
 45 44  1  0  0  0  0
 46 40  2  0  0  0  0
 47 43  2  0  0  0  0
 48 41  2  0  0  0  0
 48 46  1  0  0  0  0
M  END
>  <MODEL>
7

>  <REMARK>
 VINA RESULT:      -8.0      1.188      2.356
  Name = 
  11 active torsions:
  status: ('A' for Active; 'I' for Inactive)
    1  A    between atoms: C_3  and  C_6
    2  A    between atoms: C_4  and  C_12
    3  A    between atoms: C_5  and  C_10
    4  A    between atoms: S_8  and  N_37
    5  A    between atoms: S_8  and  C_43
    6  A    between atoms: C_10  and  C_33
    7  A    between atoms: C_12  and  C_42
    8  A    between atoms: C_18  and  C_33
    9  A    between atoms: C_29  and  C_35
   10  A    between atoms: C_30  and  N_37
   11  A    between atoms: C_35  and  C_41
                            x       y       z     vdW  Elec       q    Type
                         _______ _______ _______ _____ _____    ______ ____

>  <TORSDO>
F 11

$$$$
=
 OpenBabel11062415243D

 48 54  0  0  1  0  0  0  0  0999 V2000
  185.8600  178.2970  140.9340 C   0  0  2  0  0  3  0  0  0  0  0  0
  187.9790  177.8420  139.8310 C   0  0  0  0  0  0  0  0  0  0  0  0
  184.8080  179.4440  138.5560 S   0  0  0  0  0  0  0  0  0  0  0  0
  185.5290  177.8770  137.9630 C   0  0  1  0  0  3  0  0  0  0  0  0
  187.0630  178.7610  140.3410 O   0  0  0  0  0  0  0  0  0  0  0  0
  186.8520  178.5370  135.1890 O   0  0  0  0  0  1  0  0  0  0  0  0
  187.3380  177.6340  136.1310 C   0  0  2  0  0  3  0  0  0  0  0  0
  184.6790  177.3410  136.8200 C   0  0  0  0  0  2  0  0  0  0  0  0
  186.7750  176.2360  135.8550 C   0  0  0  0  0  2  0  0  0  0  0  0
  186.9990  178.1220  137.5500 C   0  0  2  0  0  3  0  0  0  0  0  0
  184.6140  178.9450  140.3080 C   0  0  1  0  0  3  0  0  0  0  0  0
  187.9530  177.5150  138.5360 C   0  0  0  0  0  3  0  0  0  0  0  0
  185.2970  176.0650  136.2530 C   0  0  0  0  0  2  0  0  0  0  0  0
  188.9610  177.1650  140.7370 C   0  0  0  0  0  3  0  0  0  0  0  0
  189.5720  178.1590  141.7060 C   0  0  0  0  0  2  0  0  0  0  0  0
  190.3510  177.7220  140.4890 C   0  0  0  0  0  2  0  0  0  0  0  0
  183.5380  176.7630  140.5770 O   0  0  0  0  0  1  0  0  0  0  0  0
  183.3140  178.1420  140.5020 C   0  0  1  0  0  3  0  0  0  0  0  0
  180.4260  179.2790  142.7360 C   0  0  0  0  0  3  0  0  0  0  0  0
  182.4150  179.0470  144.0910 C   0  0  0  0  0  3  0  0  0  0  0  0
  182.5220  178.6060  141.6990 C   0  0  0  0  0  0  0  0  0  0  0  0
  183.1400  178.6710  142.9570 C   0  0  0  0  0  3  0  0  0  0  0  0
  181.1440  178.9020  141.5910 C   0  0  0  0  0  0  0  0  0  0  0  0
  181.0580  179.3540  143.9800 C   0  0  0  0  0  3  0  0  0  0  0  0
  180.2840  178.8010  140.0530 S   0  0  0  0  0  0  0  0  0  0  0  0
  181.0650  177.9190  139.1120 O   0  0  0  0  0  0  0  0  0  0  0  0
  178.9330  178.1780  140.2750 O   0  0  0  0  0  0  0  0  0  0  0  0
  179.9230  181.2450  140.4450 O   0  0  0  0  0  1  0  0  0  0  0  0
  180.1250  180.4080  139.4010 N   0  0  0  0  0  0  0  0  0  0  0  0
  181.1790  182.0870  137.9600 C   0  0  0  0  0  0  0  0  0  0  0  0
  180.9680  183.2840  137.8700 O   0  0  0  0  0  0  0  0  0  0  0  0
  181.3830  180.8090  138.7780 C   0  0  2  0  0  3  0  0  0  0  0  0
  181.3980  180.7050  137.3390 C   0  0  1  0  0  3  0  0  0  0  0  0
  180.0940  180.2550  136.6900 C   0  0  0  0  0  2  0  0  0  0  0  0
  180.3810  179.3770  135.5320 C   0  0  0  0  0  0  0  0  0  0  0  0
  179.3880  179.1190  134.5970 O   0  0  0  0  0  0  0  0  0  0  0  0
  181.5160  178.8540  135.4070 O   0  0  0  0  0  1  0  0  0  0  0  0
  185.8930  178.4880  142.4460 C   0  0  0  0  0  2  0  0  0  0  0  0
  186.3860  177.2410  143.1670 C   0  0  0  0  0  2  0  0  0  0  0  0
  187.4330  178.1480  147.2030 C   0  0  0  0  0  0  0  0  0  0  0  0
  186.7650  177.5690  144.5690 C   0  0  0  0  0  0  0  0  0  0  0  0
  187.8810  178.3750  148.5230 N   0  0  0  0  0  0  0  0  0  0  0  0
  186.1670  178.5100  146.7340 C   0  0  0  0  0  3  0  0  0  0  0  0
  189.2340  177.8840  148.7570 C   0  0  0  0  0  3  0  0  0  0  0  0
  189.8770  177.1280  147.2010 S   0  0  0  0  0  0  0  0  0  0  0  0
  188.3440  177.5260  146.3920 C   0  0  0  0  0  0  0  0  0  0  0  0
  185.8350  178.2130  145.4050 C   0  0  0  0  0  3  0  0  0  0  0  0
  188.0320  177.2210  145.0660 C   0  0  0  0  0  3  0  0  0  0  0  0
  1 38  1  1  0  0  0
  2  5  1  0  0  0  0
  2 14  1  0  0  0  0
  3 11  1  0  0  0  0
  4  8  1  6  0  0  0
  4  3  1  0  0  0  0
  5  1  1  0  0  0  0
  7  6  1  6  0  0  0
  7 10  1  0  0  0  0
  9  7  1  0  0  0  0
  9 13  1  0  0  0  0
 10  4  1  0  0  0  0
 10 12  1  1  0  0  0
 11 18  1  6  0  0  0
 11  1  1  0  0  0  0
 12  2  2  0  0  0  0
 13  8  1  0  0  0  0
 14 15  1  0  0  0  0
 16 14  1  0  0  0  0
 16 15  1  0  0  0  0
 18 17  1  1  0  0  0
 18 21  1  0  0  0  0
 19 24  1  0  0  0  0
 21 22  2  0  0  0  0
 22 20  1  0  0  0  0
 23 21  1  0  0  0  0
 23 19  2  0  0  0  0
 24 20  2  0  0  0  0
 25 27  2  0  0  0  0
 25 23  1  0  0  0  0
 26 25  2  0  0  0  0
 29 25  1  0  0  0  0
 29 28  1  0  0  0  0
 30 32  1  0  0  0  0
 31 30  2  0  0  0  0
 32 29  1  1  0  0  0
 33 34  1  1  0  0  0
 33 30  1  0  0  0  0
 33 32  1  0  0  0  0
 35 34  1  0  0  0  0
 36 35  2  0  0  0  0
 37 35  1  0  0  0  0
 38 39  1  0  0  0  0
 39 41  1  0  0  0  0
 40 42  1  0  0  0  0
 41 48  2  0  0  0  0
 41 47  1  0  0  0  0
 42 44  2  0  0  0  0
 43 40  1  0  0  0  0
 45 44  1  0  0  0  0
 46 45  1  0  0  0  0
 46 40  2  0  0  0  0
 47 43  2  0  0  0  0
 48 46  1  0  0  0  0
M  END
>  <MODEL>
8

>  <REMARK>
 VINA RESULT:      -7.4      2.681      7.085
  Name = 
  11 active torsions:
  status: ('A' for Active; 'I' for Inactive)
    1  A    between atoms: C_3  and  C_6
    2  A    between atoms: C_4  and  C_12
    3  A    between atoms: C_5  and  C_10
    4  A    between atoms: S_8  and  N_37
    5  A    between atoms: S_8  and  C_43
    6  A    between atoms: C_10  and  C_33
    7  A    between atoms: C_12  and  C_42
    8  A    between atoms: C_18  and  C_33
    9  A    between atoms: C_29  and  C_35
   10  A    between atoms: C_30  and  N_37
   11  A    between atoms: C_35  and  C_41
                            x       y       z     vdW  Elec       q    Type
                         _______ _______ _______ _____ _____    ______ ____

>  <TORSDO>
F 11

$$$$
=
 OpenBabel11062415243D

 48 54  0  0  1  0  0  0  0  0999 V2000
  188.3420  177.5970  138.9590 C   0  0  2  0  0  3  0  0  0  0  0  0
  190.6980  177.0360  139.1880 C   0  0  0  0  0  0  0  0  0  0  0  0
  188.6470  177.9600  136.1570 S   0  0  0  0  0  0  0  0  0  0  0  0
  189.4670  176.3560  136.4470 C   0  0  1  0  0  3  0  0  0  0  0  0
  189.7080  177.9800  138.9150 O   0  0  0  0  0  0  0  0  0  0  0  0
  192.0060  176.3420  134.5940 O   0  0  0  0  0  1  0  0  0  0  0  0
  191.9180  175.7740  135.8630 C   0  0  2  0  0  3  0  0  0  0  0  0
  189.2450  175.4600  135.2370 C   0  0  0  0  0  2  0  0  0  0  0  0
  191.4730  174.3120  135.7520 C   0  0  0  0  0  2  0  0  0  0  0  0
  190.9640  176.6000  136.7420 C   0  0  2  0  0  3  0  0  0  0  0  0
  187.5980  177.9440  137.6590 C   0  0  1  0  0  3  0  0  0  0  0  0
  191.2810  176.3670  138.1900 C   0  0  0  0  0  3  0  0  0  0  0  0
  189.9790  174.1330  135.4190 C   0  0  0  0  0  2  0  0  0  0  0  0
  191.0740  176.7160  140.6030 C   0  0  0  0  0  3  0  0  0  0  0  0
  191.1370  177.9780  141.4400 C   0  0  0  0  0  2  0  0  0  0  0  0
  192.4110  177.3520  140.9310 C   0  0  0  0  0  2  0  0  0  0  0  0
  186.3430  175.8840  138.0750 O   0  0  0  0  0  1  0  0  0  0  0  0
  186.3200  177.1190  137.4180 C   0  0  1  0  0  3  0  0  0  0  0  0
  182.6720  178.2540  137.5760 C   0  0  0  0  0  3  0  0  0  0  0  0
  183.9570  179.5340  139.1750 C   0  0  0  0  0  3  0  0  0  0  0  0
  185.0680  177.8770  137.7800 C   0  0  0  0  0  0  0  0  0  0  0  0
  185.1140  178.8540  138.7850 C   0  0  0  0  0  3  0  0  0  0  0  0
  183.8270  177.5640  137.1770 C   0  0  0  0  0  0  0  0  0  0  0  0
  182.7350  179.2360  138.5690 C   0  0  0  0  0  3  0  0  0  0  0  0
  183.6790  176.3180  135.9370 S   0  0  0  0  0  0  0  0  0  0  0  0
  182.3250  176.4350  135.2850 O   0  0  0  0  0  0  0  0  0  0  0  0
  184.7330  176.5310  134.8850 O   0  0  0  0  0  0  0  0  0  0  0  0
  182.9610  174.6890  137.6950 O   0  0  0  0  0  1  0  0  0  0  0  0
  183.8660  174.7600  136.6930 N   0  0  0  0  0  0  0  0  0  0  0  0
  183.8700  172.3380  136.3210 C   0  0  0  0  0  0  0  0  0  0  0  0
  183.6860  171.4250  137.1070 O   0  0  0  0  0  0  0  0  0  0  0  0
  183.5210  173.7100  135.7380 C   0  0  2  0  0  3  0  0  0  0  0  0
  184.6530  173.0050  135.1880 C   0  0  1  0  0  3  0  0  0  0  0  0
  186.0200  173.4170  135.7240 C   0  0  0  0  0  2  0  0  0  0  0  0
  186.8310  172.2150  136.0260 C   0  0  0  0  0  0  0  0  0  0  0  0
  186.8530  171.1530  135.1330 O   0  0  0  0  0  0  0  0  0  0  0  0
  187.4820  172.1520  137.0990 O   0  0  0  0  0  1  0  0  0  0  0  0
  187.6510  178.1950  140.1780 C   0  0  0  0  0  2  0  0  0  0  0  0
  187.9540  177.4100  141.4470 C   0  0  0  0  0  2  0  0  0  0  0  0
  185.3230  178.6000  144.5890 C   0  0  0  0  0  0  0  0  0  0  0  0
  187.0490  177.8380  142.5490 C   0  0  0  0  0  0  0  0  0  0  0  0
  184.5250  178.9280  145.7080 N   0  0  0  0  0  0  0  0  0  0  0  0
  184.9410  178.8270  143.2640 C   0  0  0  0  0  3  0  0  0  0  0  0
  185.1490  178.5690  146.9750 C   0  0  0  0  0  3  0  0  0  0  0  0
  186.7910  177.7970  146.6410 S   0  0  0  0  0  0  0  0  0  0  0  0
  186.5240  178.0210  144.8960 C   0  0  0  0  0  0  0  0  0  0  0  0
  185.8160  178.4390  142.2390 C   0  0  0  0  0  3  0  0  0  0  0  0
  187.4080  177.6260  143.8910 C   0  0  0  0  0  3  0  0  0  0  0  0
  1 38  1  1  0  0  0
  2 14  1  0  0  0  0
  3  4  1  0  0  0  0
  3 11  1  0  0  0  0
  4  8  1  6  0  0  0
  4 10  1  0  0  0  0
  5  1  1  0  0  0  0
  5  2  1  0  0  0  0
  7  6  1  6  0  0  0
  7 10  1  0  0  0  0
  8 13  1  0  0  0  0
  9  7  1  0  0  0  0
 10 12  1  1  0  0  0
 11 18  1  6  0  0  0
 11  1  1  0  0  0  0
 12  2  2  0  0  0  0
 13  9  1  0  0  0  0
 14 16  1  0  0  0  0
 14 15  1  0  0  0  0
 16 15  1  0  0  0  0
 18 21  1  0  0  0  0
 18 17  1  1  0  0  0
 19 24  1  0  0  0  0
 21 22  2  0  0  0  0
 22 20  1  0  0  0  0
 23 19  2  0  0  0  0
 23 21  1  0  0  0  0
 24 20  2  0  0  0  0
 25 29  1  0  0  0  0
 25 23  1  0  0  0  0
 26 25  2  0  0  0  0
 27 25  2  0  0  0  0
 29 28  1  0  0  0  0
 30 31  2  0  0  0  0
 32 30  1  0  0  0  0
 32 29  1  1  0  0  0
 33 34  1  1  0  0  0
 33 32  1  0  0  0  0
 33 30  1  0  0  0  0
 34 35  1  0  0  0  0
 35 37  1  0  0  0  0
 36 35  2  0  0  0  0
 38 39  1  0  0  0  0
 39 41  1  0  0  0  0
 40 46  1  0  0  0  0
 40 42  1  0  0  0  0
 41 48  1  0  0  0  0
 42 44  2  0  0  0  0
 43 40  2  0  0  0  0
 45 44  1  0  0  0  0
 46 45  1  0  0  0  0
 47 41  2  0  0  0  0
 47 43  1  0  0  0  0
 48 46  2  0  0  0  0
M  END
>  <MODEL>
9

>  <REMARK>
 VINA RESULT:      -6.9      2.733      6.856
  Name = 
  11 active torsions:
  status: ('A' for Active; 'I' for Inactive)
    1  A    between atoms: C_3  and  C_6
    2  A    between atoms: C_4  and  C_12
    3  A    between atoms: C_5  and  C_10
    4  A    between atoms: S_8  and  N_37
    5  A    between atoms: S_8  and  C_43
    6  A    between atoms: C_10  and  C_33
    7  A    between atoms: C_12  and  C_42
    8  A    between atoms: C_18  and  C_33
    9  A    between atoms: C_29  and  C_35
   10  A    between atoms: C_30  and  N_37
   11  A    between atoms: C_35  and  C_41
                            x       y       z     vdW  Elec       q    Type
                         _______ _______ _______ _____ _____    ______ ____

>  <TORSDO>
F 11

$$$$
