=
 OpenBabel11062412343D

 51 56  0  0  1  0  0  0  0  0999 V2000
  188.9730  177.6800  142.7750 C   0  0  2  0  0  3  0  0  0  0  0  0
  188.7460  177.0480  144.1440 C   0  0  1  0  0  3  0  0  0  0  0  0
  190.0840  176.8070  144.8200 C   0  0  0  0  0  2  0  0  0  0  0  0
  189.2310  177.9820  145.2420 C   0  0  2  0  0  3  0  0  0  0  0  0
  188.5810  177.6710  146.4350 O   0  0  0  0  0  0  0  0  0  0  0  0
  189.5570  177.8470  147.4220 C   0  0  0  0  0  1  0  0  0  0  0  0
  187.7230  178.2160  142.2490 N   0  0  0  0  0  2  0  0  0  0  0  0
  186.6240  177.5580  142.9420 C   0  0  0  0  0  2  0  0  0  0  0  0
  185.5970  178.4980  143.2390 O   0  0  0  0  0  0  0  0  0  0  0  0
  183.5920  179.3250  144.9590 C   0  0  0  0  0  1  0  0  0  0  0  0
  183.2770  178.7330  143.6240 C   0  0  0  0  0  0  0  0  0  0  0  0
  184.2710  178.3410  142.8150 C   0  0  0  0  0  0  0  0  0  0  0  0
  183.7170  178.0990  139.0530 C   0  0  0  0  0  0  0  0  0  0  0  0
  184.1760  178.9820  138.1510 N   0  0  0  0  0  0  0  0  0  0  0  0
  184.8360  179.8750  138.8420 O   0  0  0  0  0  0  0  0  0  0  0  0
  183.9610  177.8120  141.5160 N   0  0  0  0  0  2  0  0  0  0  0  0
  184.8570  179.6410  140.1260 N   0  0  0  0  0  0  0  0  0  0  0  0
  184.1400  178.5160  140.2840 C   0  0  0  0  0  0  0  0  0  0  0  0
  182.9740  176.8430  138.7280 C   0  0  0  0  0  2  0  0  0  0  0  0
  183.6970  176.0440  137.6490 C   0  0  2  0  0  3  0  0  0  0  0  0
  182.5600  173.8580  137.2060 C   0  0  1  0  0  3  0  0  0  0  0  0
  181.7710  174.8850  136.4150 C   0  0  0  0  0  2  0  0  0  0  0  0
  184.9780  173.9090  137.5420 C   0  0  0  0  0  2  0  0  0  0  0  0
  184.5960  172.6190  136.8490 C   0  0  0  0  0  2  0  0  0  0  0  0
  183.2240  172.8680  136.2660 C   0  0  0  0  0  2  0  0  0  0  0  0
  182.8580  176.2950  136.0580 S   0  0  0  0  0  0  0  0  0  0  0  0
  183.6740  174.5540  137.9760 C   0  0  1  0  0  3  0  0  0  0  0  0
  181.4680  179.5340  142.2350 F   0  0  0  0  0  0  0  0  0  0  0  0
  181.8330  178.6030  143.1980 C   0  0  2  0  0  3  0  0  0  0  0  0
  180.9400  178.5810  144.2910 O   0  0  0  0  0  0  0  0  0  0  0  0
  179.6770  178.9910  143.8400 C   0  0  0  0  0  1  0  0  0  0  0  0
  189.5030  176.6350  141.7980 C   0  0  0  0  0  2  0  0  0  0  0  0
  188.9300  177.1780  139.4130 C   0  0  0  0  0  2  0  0  0  0  0  0
  191.1590  176.6020  140.0360 O   0  0  0  0  0  0  0  0  0  0  0  0
  191.1460  176.7260  138.6380 C   0  0  2  0  0  3  0  0  0  0  0  0
  189.7080  176.8550  138.1720 C   0  0  2  0  0  3  0  0  0  0  0  0
  189.9930  177.2420  140.4870 C   0  0  2  0  0  3  0  0  0  0  0  0
  189.0360  179.2070  137.7000 C   0  0  0  0  0  1  0  0  0  0  0  0
  189.5060  177.9100  137.0680 C   0  0  2  0  0  3  0  0  0  0  0  0
  188.5390  177.4780  135.9540 C   0  0  0  0  0  3  0  0  0  0  0  0
  188.2180  176.1260  136.0890 O   0  0  0  0  0  1  0  0  0  0  0  0
  187.3620  178.2320  136.0050 O   0  0  0  0  0  1  0  0  0  0  0  0
  191.7800  175.4970  138.0100 C   0  0  0  0  0  2  0  0  0  0  0  0
  193.2120  175.6990  137.8500 N   0  0  0  0  0  2  0  0  0  0  0  0
  194.0800  174.6820  137.3430 C   0  0  0  0  0  0  0  0  0  0  0  0
  193.6210  173.5450  137.0520 O   0  0  0  0  0  0  0  0  0  0  0  0
  196.4030  174.9520  138.1970 N   0  0  0  0  0  0  0  0  0  0  0  0
  195.5150  174.9530  137.1890 C   0  0  0  0  0  0  0  0  0  0  0  0
  196.1590  175.2960  136.0210 C   0  0  0  0  0  3  0  0  0  0  0  0
  197.5640  175.2810  137.6610 N   0  0  0  0  0  2  0  0  0  0  0  0
  197.4480  175.4910  136.3580 N   0  0  0  0  0  0  0  0  0  0  0  0
  1 32  1  6  0  0  0
  2  1  1  6  0  0  0
  2  3  1  0  0  0  0
  2  4  1  0  0  0  0
  3  4  1  0  0  0  0
  4  5  1  1  0  0  0
  5  6  1  0  0  0  0
  7  1  1  0  0  0  0
  7  8  1  0  0  0  0
  8  9  1  0  0  0  0
 11 10  1  0  0  0  0
 12  9  1  0  0  0  0
 12 11  2  0  0  0  0
 13 18  1  0  0  0  0
 14 15  1  0  0  0  0
 14 13  2  0  0  0  0
 15 17  1  0  0  0  0
 16 12  1  0  0  0  0
 17 18  2  0  0  0  0
 18 16  1  0  0  0  0
 19 13  1  0  0  0  0
 20 27  1  0  0  0  0
 20 19  1  1  0  0  0
 21 25  1  6  0  0  0
 21 27  1  0  0  0  0
 22 21  1  0  0  0  0
 24 23  1  0  0  0  0
 25 24  1  0  0  0  0
 26 22  1  0  0  0  0
 26 20  1  0  0  0  0
 27 23  1  6  0  0  0
 29 28  1  6  0  0  0
 29 11  1  0  0  0  0
 29 30  1  0  0  0  0
 31 30  1  0  0  0  0
 33 37  1  0  0  0  0
 34 37  1  0  0  0  0
 35 43  1  6  0  0  0
 35 34  1  0  0  0  0
 36 39  1  6  0  0  0
 36 35  1  0  0  0  0
 36 33  1  0  0  0  0
 37 32  1  1  0  0  0
 39 38  1  1  0  0  0
 40 42  1  0  0  0  0
 40 41  1  0  0  0  0
 40 39  1  0  0  0  0
 44 43  1  0  0  0  0
 45 44  1  0  0  0  0
 46 45  2  0  0  0  0
 48 45  1  0  0  0  0
 48 47  2  0  0  0  0
 49 51  2  0  0  0  0
 49 48  1  0  0  0  0
 50 47  1  0  0  0  0
 51 50  1  0  0  0  0
M  END
>  <MODEL>
1

>  <REMARK>
 VINA RESULT:      -7.8      0.000      0.000
  Name = 
  18 active torsions:
  status: ('A' for Active; 'I' for Inactive)
    1  A    between atoms: C_1  and  C_12
    2  A    between atoms: C_2  and  N_11
    3  A    between atoms: C_2  and  C_31
    4  A    between atoms: C_4  and  C_12
    5  A    between atoms: C_5  and  C_40
    6  A    between atoms: C_7  and  C_40
    7  A    between atoms: C_7  and  C_45
    8  A    between atoms: C_8  and  C_39
    9  A    between atoms: O_10  and  C_49
   10  A    between atoms: O_10  and  C_50
   11  A    between atoms: C_13  and  C_28
   12  A    between atoms: O_14  and  C_47
   13  A    between atoms: N_18  and  C_40
   14  A    between atoms: N_18  and  C_50
   15  A    between atoms: N_22  and  C_49
   16  A    between atoms: O_26  and  C_36
   17  A    between atoms: C_27  and  C_47
   18  A    between atoms: C_39  and  C_41
                            x       y       z     vdW  Elec       q    Type
                         _______ _______ _______ _____ _____    ______ ____

>  <TORSDO>
F 18

$$$$
=
 OpenBabel11062412343D

 51 56  0  0  1  0  0  0  0  0999 V2000
  189.5930  176.9640  141.7590 C   0  0  2  0  0  3  0  0  0  0  0  0
  190.7640  177.3140  142.6690 C   0  0  1  0  0  3  0  0  0  0  0  0
  190.2490  178.0250  143.9080 C   0  0  0  0  0  2  0  0  0  0  0  0
  190.6460  176.5680  143.9890 C   0  0  2  0  0  3  0  0  0  0  0  0
  191.9040  176.4680  144.5800 O   0  0  0  0  0  0  0  0  0  0  0  0
  191.6620  176.6240  145.9490 C   0  0  0  0  0  1  0  0  0  0  0  0
  190.0760  176.4230  140.4940 N   0  0  0  0  0  2  0  0  0  0  0  0
  191.3600  177.0450  140.1990 C   0  0  0  0  0  2  0  0  0  0  0  0
  191.4230  177.4160  138.8270 O   0  0  0  0  0  0  0  0  0  0  0  0
  193.5780  175.7890  138.2140 C   0  0  0  0  0  1  0  0  0  0  0  0
  192.2930  175.6960  137.4590 C   0  0  0  0  0  0  0  0  0  0  0  0
  191.2680  176.4980  137.7790 C   0  0  0  0  0  0  0  0  0  0  0  0
  187.6670  177.0830  136.6810 C   0  0  0  0  0  0  0  0  0  0  0  0
  186.9520  178.1880  136.9500 N   0  0  0  0  0  0  0  0  0  0  0  0
  187.7570  178.9690  137.6210 O   0  0  0  0  0  0  0  0  0  0  0  0
  190.0220  176.3720  137.0760 N   0  0  0  0  0  2  0  0  0  0  0  0
  188.9500  178.4700  137.8040 N   0  0  0  0  0  0  0  0  0  0  0  0
  188.9110  177.2610  137.2190 C   0  0  0  0  0  0  0  0  0  0  0  0
  187.1960  175.9320  135.8510 C   0  0  0  0  0  2  0  0  0  0  0  0
  186.7920  174.7530  136.7310 C   0  0  2  0  0  3  0  0  0  0  0  0
  185.5240  173.0280  135.4330 C   0  0  1  0  0  3  0  0  0  0  0  0
  186.9870  172.7580  135.1310 C   0  0  0  0  0  2  0  0  0  0  0  0
  184.6580  173.7900  137.5850 C   0  0  0  0  0  2  0  0  0  0  0  0
  184.0150  172.4680  137.2270 C   0  0  0  0  0  2  0  0  0  0  0  0
  184.9170  171.8550  136.1800 C   0  0  0  0  0  2  0  0  0  0  0  0
  187.9860  173.4030  136.5040 S   0  0  0  0  0  0  0  0  0  0  0  0
  185.4070  174.2430  136.3450 C   0  0  1  0  0  3  0  0  0  0  0  0
  191.4840  173.5320  136.7470 F   0  0  0  0  0  0  0  0  0  0  0  0
  192.1620  174.6760  136.3500 C   0  0  2  0  0  3  0  0  0  0  0  0
  193.3950  174.3830  135.7290 O   0  0  0  0  0  0  0  0  0  0  0  0
  193.6110  172.9990  135.8050 C   0  0  0  0  0  1  0  0  0  0  0  0
  188.7640  178.2120  141.4690 C   0  0  0  0  0  2  0  0  0  0  0  0
  186.5010  179.1050  140.8390 C   0  0  0  0  0  2  0  0  0  0  0  0
  186.7580  177.6040  142.6740 O   0  0  0  0  0  0  0  0  0  0  0  0
  185.4130  178.0060  142.6620 C   0  0  2  0  0  3  0  0  0  0  0  0
  185.2510  179.1390  141.6660 C   0  0  2  0  0  3  0  0  0  0  0  0
  187.2660  177.9290  141.4060 C   0  0  2  0  0  3  0  0  0  0  0  0
  183.4330  177.6180  140.9010 C   0  0  0  0  0  1  0  0  0  0  0  0
  183.9810  179.0300  140.8030 C   0  0  2  0  0  3  0  0  0  0  0  0
  184.1830  179.4220  139.3310 C   0  0  0  0  0  3  0  0  0  0  0  0
  183.8890  178.3410  138.4970 O   0  0  0  0  0  1  0  0  0  0  0  0
  183.3540  180.4970  138.9900 O   0  0  0  0  0  1  0  0  0  0  0  0
  185.0070  178.4780  144.0470 C   0  0  0  0  0  2  0  0  0  0  0  0
  186.1070  178.2910  144.9820 N   0  0  0  0  0  2  0  0  0  0  0  0
  185.9250  178.3210  146.3990 C   0  0  0  0  0  0  0  0  0  0  0  0
  184.7850  178.5560  146.8870 O   0  0  0  0  0  0  0  0  0  0  0  0
  187.2070  178.6700  148.5040 N   0  0  0  0  0  0  0  0  0  0  0  0
  187.0710  178.1070  147.2910 C   0  0  0  0  0  0  0  0  0  0  0  0
  188.1910  177.3550  147.0140 C   0  0  0  0  0  3  0  0  0  0  0  0
  188.3790  178.2690  148.9620 N   0  0  0  0  0  2  0  0  0  0  0  0
  188.9900  177.4780  148.0910 N   0  0  0  0  0  0  0  0  0  0  0  0
  1 32  1  6  0  0  0
  2  1  1  6  0  0  0
  2  3  1  0  0  0  0
  2  4  1  0  0  0  0
  3  4  1  0  0  0  0
  4  5  1  1  0  0  0
  5  6  1  0  0  0  0
  7  1  1  0  0  0  0
  8  7  1  0  0  0  0
  9  8  1  0  0  0  0
 11 12  2  0  0  0  0
 11 10  1  0  0  0  0
 12  9  1  0  0  0  0
 13 14  2  0  0  0  0
 13 18  1  0  0  0  0
 14 15  1  0  0  0  0
 15 17  1  0  0  0  0
 16 18  1  0  0  0  0
 16 12  1  0  0  0  0
 18 17  2  0  0  0  0
 19 13  1  0  0  0  0
 20 19  1  6  0  0  0
 21 22  1  1  0  0  0
 21 25  1  0  0  0  0
 21 27  1  0  0  0  0
 22 26  1  0  0  0  0
 24 23  1  0  0  0  0
 25 24  1  0  0  0  0
 26 20  1  0  0  0  0
 27 20  1  0  0  0  0
 27 23  1  1  0  0  0
 29 28  1  1  0  0  0
 29 11  1  0  0  0  0
 30 31  1  0  0  0  0
 30 29  1  0  0  0  0
 33 37  1  0  0  0  0
 33 36  1  0  0  0  0
 35 34  1  0  0  0  0
 35 43  1  1  0  0  0
 36 39  1  6  0  0  0
 36 35  1  0  0  0  0
 37 32  1  1  0  0  0
 37 34  1  0  0  0  0
 39 38  1  6  0  0  0
 40 39  1  0  0  0  0
 41 40  1  0  0  0  0
 42 40  1  0  0  0  0
 43 44  1  0  0  0  0
 44 45  1  0  0  0  0
 45 46  2  0  0  0  0
 45 48  1  0  0  0  0
 47 50  1  0  0  0  0
 48 47  2  0  0  0  0
 49 48  1  0  0  0  0
 49 51  2  0  0  0  0
 51 50  1  0  0  0  0
M  END
>  <MODEL>
2

>  <REMARK>
 VINA RESULT:      -7.7      3.455      8.355
  Name = 
  18 active torsions:
  status: ('A' for Active; 'I' for Inactive)
    1  A    between atoms: C_1  and  C_12
    2  A    between atoms: C_2  and  N_11
    3  A    between atoms: C_2  and  C_31
    4  A    between atoms: C_4  and  C_12
    5  A    between atoms: C_5  and  C_40
    6  A    between atoms: C_7  and  C_40
    7  A    between atoms: C_7  and  C_45
    8  A    between atoms: C_8  and  C_39
    9  A    between atoms: O_10  and  C_49
   10  A    between atoms: O_10  and  C_50
   11  A    between atoms: C_13  and  C_28
   12  A    between atoms: O_14  and  C_47
   13  A    between atoms: N_18  and  C_40
   14  A    between atoms: N_18  and  C_50
   15  A    between atoms: N_22  and  C_49
   16  A    between atoms: O_26  and  C_36
   17  A    between atoms: C_27  and  C_47
   18  A    between atoms: C_39  and  C_41
                            x       y       z     vdW  Elec       q    Type
                         _______ _______ _______ _____ _____    ______ ____

>  <TORSDO>
F 18

$$$$
=
 OpenBabel11062412343D

 51 56  0  0  1  0  0  0  0  0999 V2000
  189.9460  176.3900  138.3920 C   0  0  2  0  0  3  0  0  0  0  0  0
  190.9300  176.1570  137.2510 C   0  0  1  0  0  3  0  0  0  0  0  0
  192.3360  176.4820  137.7190 C   0  0  0  0  0  2  0  0  0  0  0  0
  191.8960  175.0390  137.6100 C   0  0  2  0  0  3  0  0  0  0  0  0
  192.4210  174.4870  136.4430 O   0  0  0  0  0  0  0  0  0  0  0  0
  193.1210  173.3550  136.8740 C   0  0  0  0  0  1  0  0  0  0  0  0
  188.5810  176.1360  137.9460 N   0  0  0  0  0  2  0  0  0  0  0  0
  188.1040  177.3260  137.2550 C   0  0  0  0  0  2  0  0  0  0  0  0
  186.9860  177.0030  136.4360 O   0  0  0  0  0  0  0  0  0  0  0  0
  185.9560  174.4340  136.4530 C   0  0  0  0  0  1  0  0  0  0  0  0
  185.1650  175.5930  136.9660 C   0  0  0  0  0  0  0  0  0  0  0  0
  185.6920  176.8250  136.9430 C   0  0  0  0  0  0  0  0  0  0  0  0
  184.3180  179.4140  139.3770 C   0  0  0  0  0  0  0  0  0  0  0  0
  184.8780  179.7340  140.5550 N   0  0  0  0  0  0  0  0  0  0  0  0
  185.9540  178.9960  140.6410 O   0  0  0  0  0  0  0  0  0  0  0  0
  184.9430  177.9270  137.4780 N   0  0  0  0  0  2  0  0  0  0  0  0
  186.1530  178.2250  139.6060 N   0  0  0  0  0  0  0  0  0  0  0  0
  185.1140  178.4700  138.7900 C   0  0  0  0  0  0  0  0  0  0  0  0
  183.1060  180.0670  138.7940 C   0  0  0  0  0  2  0  0  0  0  0  0
  181.9180  179.1080  138.7900 C   0  0  2  0  0  3  0  0  0  0  0  0
  180.5450  179.3380  140.8710 C   0  0  1  0  0  3  0  0  0  0  0  0
  180.0890  180.4670  139.9650 C   0  0  0  0  0  2  0  0  0  0  0  0
  181.2080  177.1150  140.1070 C   0  0  0  0  0  2  0  0  0  0  0  0
  180.0410  176.9890  141.0620 C   0  0  0  0  0  2  0  0  0  0  0  0
  179.4080  178.3600  141.1040 C   0  0  0  0  0  2  0  0  0  0  0  0
  180.4340  180.0000  138.2450 S   0  0  0  0  0  0  0  0  0  0  0  0
  181.6650  178.5600  140.1910 C   0  0  1  0  0  3  0  0  0  0  0  0
  183.7280  174.2610  138.3820 F   0  0  0  0  0  0  0  0  0  0  0  0
  183.7820  175.3520  137.5260 C   0  0  2  0  0  3  0  0  0  0  0  0
  182.7890  175.2980  136.5230 O   0  0  0  0  0  0  0  0  0  0  0  0
  181.6070  174.8080  137.0970 C   0  0  0  0  0  1  0  0  0  0  0  0
  190.0390  177.8340  138.8750 C   0  0  0  0  0  2  0  0  0  0  0  0
  191.2560  176.9180  140.8730 C   0  0  0  0  0  2  0  0  0  0  0  0
  189.0500  177.8010  141.0820 O   0  0  0  0  0  0  0  0  0  0  0  0
  189.3940  177.2670  142.3330 C   0  0  2  0  0  3  0  0  0  0  0  0
  190.6870  176.4840  142.1910 C   0  0  2  0  0  3  0  0  0  0  0  0
  190.2590  177.9440  140.3810 C   0  0  2  0  0  3  0  0  0  0  0  0
  191.8360  175.4030  144.1200 C   0  0  0  0  0  1  0  0  0  0  0  0
  191.6750  176.7020  143.3510 C   0  0  2  0  0  3  0  0  0  0  0  0
  191.2830  177.8410  144.3060 C   0  0  0  0  0  3  0  0  0  0  0  0
  191.6620  177.5290  145.6130 O   0  0  0  0  0  1  0  0  0  0  0  0
  191.9040  179.0370  143.9270 O   0  0  0  0  0  1  0  0  0  0  0  0
  188.2880  176.3470  142.8180 C   0  0  0  0  0  2  0  0  0  0  0  0
  187.2870  177.1100  143.5490 N   0  0  0  0  0  2  0  0  0  0  0  0
  187.3480  177.3010  144.9650 C   0  0  0  0  0  0  0  0  0  0  0  0
  188.2710  176.7670  145.6370 O   0  0  0  0  0  0  0  0  0  0  0  0
  186.4600  178.6520  146.8570 N   0  0  0  0  0  0  0  0  0  0  0  0
  186.3160  178.0960  145.6420 C   0  0  0  0  0  0  0  0  0  0  0  0
  185.0460  178.3530  145.1760 C   0  0  0  0  0  3  0  0  0  0  0  0
  185.3080  179.2380  147.1280 N   0  0  0  0  0  2  0  0  0  0  0  0
  184.4430  179.0770  146.1370 N   0  0  0  0  0  0  0  0  0  0  0  0
  1 32  1  6  0  0  0
  2  4  1  0  0  0  0
  2  3  1  0  0  0  0
  2  1  1  1  0  0  0
  4  5  1  6  0  0  0
  4  3  1  0  0  0  0
  5  6  1  0  0  0  0
  7  1  1  0  0  0  0
  8  7  1  0  0  0  0
  9 12  1  0  0  0  0
  9  8  1  0  0  0  0
 10 11  1  0  0  0  0
 11 29  1  0  0  0  0
 12 11  2  0  0  0  0
 12 16  1  0  0  0  0
 13 14  2  0  0  0  0
 14 15  1  0  0  0  0
 16 18  1  0  0  0  0
 17 15  1  0  0  0  0
 18 13  1  0  0  0  0
 18 17  2  0  0  0  0
 19 13  1  0  0  0  0
 20 19  1  1  0  0  0
 20 27  1  0  0  0  0
 21 22  1  6  0  0  0
 21 25  1  0  0  0  0
 23 24  1  0  0  0  0
 24 25  1  0  0  0  0
 26 20  1  0  0  0  0
 26 22  1  0  0  0  0
 27 23  1  6  0  0  0
 27 21  1  0  0  0  0
 29 28  1  6  0  0  0
 30 31  1  0  0  0  0
 30 29  1  0  0  0  0
 33 36  1  0  0  0  0
 34 35  1  0  0  0  0
 35 43  1  6  0  0  0
 36 35  1  0  0  0  0
 36 39  1  1  0  0  0
 37 32  1  6  0  0  0
 37 33  1  0  0  0  0
 37 34  1  0  0  0  0
 39 38  1  1  0  0  0
 39 40  1  0  0  0  0
 40 41  1  0  0  0  0
 42 40  1  0  0  0  0
 43 44  1  0  0  0  0
 44 45  1  0  0  0  0
 45 46  2  0  0  0  0
 45 48  1  0  0  0  0
 47 50  1  0  0  0  0
 48 47  2  0  0  0  0
 49 48  1  0  0  0  0
 49 51  2  0  0  0  0
 51 50  1  0  0  0  0
M  END
>  <MODEL>
3

>  <REMARK>
 VINA RESULT:      -7.6      3.188      7.978
  Name = 
  18 active torsions:
  status: ('A' for Active; 'I' for Inactive)
    1  A    between atoms: C_1  and  C_12
    2  A    between atoms: C_2  and  N_11
    3  A    between atoms: C_2  and  C_31
    4  A    between atoms: C_4  and  C_12
    5  A    between atoms: C_5  and  C_40
    6  A    between atoms: C_7  and  C_40
    7  A    between atoms: C_7  and  C_45
    8  A    between atoms: C_8  and  C_39
    9  A    between atoms: O_10  and  C_49
   10  A    between atoms: O_10  and  C_50
   11  A    between atoms: C_13  and  C_28
   12  A    between atoms: O_14  and  C_47
   13  A    between atoms: N_18  and  C_40
   14  A    between atoms: N_18  and  C_50
   15  A    between atoms: N_22  and  C_49
   16  A    between atoms: O_26  and  C_36
   17  A    between atoms: C_27  and  C_47
   18  A    between atoms: C_39  and  C_41
                            x       y       z     vdW  Elec       q    Type
                         _______ _______ _______ _____ _____    ______ ____

>  <TORSDO>
F 18

$$$$
=
 OpenBabel11062412343D

 51 56  0  0  1  0  0  0  0  0999 V2000
  184.4510  176.8490  137.1270 C   0  0  2  0  0  3  0  0  0  0  0  0
  184.7500  175.3670  137.3200 C   0  0  1  0  0  3  0  0  0  0  0  0
  183.4780  174.6400  137.7160 C   0  0  0  0  0  2  0  0  0  0  0  0
  183.9890  174.5390  136.2960 C   0  0  2  0  0  3  0  0  0  0  0  0
  184.6260  173.3110  136.1260 O   0  0  0  0  0  0  0  0  0  0  0  0
  183.9950  172.7390  135.0160 C   0  0  0  0  0  1  0  0  0  0  0  0
  185.6630  177.5670  136.7510 N   0  0  0  0  0  2  0  0  0  0  0  0
  186.7910  176.6590  136.9030 C   0  0  0  0  0  2  0  0  0  0  0  0
  188.0020  177.3950  137.0320 O   0  0  0  0  0  0  0  0  0  0  0  0
  190.1900  176.4610  135.6160 C   0  0  0  0  0  1  0  0  0  0  0  0
  190.1780  176.4760  137.1090 C   0  0  0  0  0  0  0  0  0  0  0  0
  189.1030  176.9340  137.7660 C   0  0  0  0  0  0  0  0  0  0  0  0
  188.3780  178.0130  141.3470 C   0  0  0  0  0  0  0  0  0  0  0  0
  187.3510  178.7930  141.7210 N   0  0  0  0  0  0  0  0  0  0  0  0
  186.6940  179.0540  140.6220 O   0  0  0  0  0  0  0  0  0  0  0  0
  189.1160  176.9850  139.2010 N   0  0  0  0  0  2  0  0  0  0  0  0
  187.2010  178.4960  139.5550 N   0  0  0  0  0  0  0  0  0  0  0  0
  188.2830  177.8340  139.9950 C   0  0  0  0  0  0  0  0  0  0  0  0
  189.3660  177.3830  142.2770 C   0  0  0  0  0  2  0  0  0  0  0  0
  189.3090  178.0340  143.6560 C   0  0  2  0  0  3  0  0  0  0  0  0
  190.4800  176.6440  145.3780 C   0  0  1  0  0  3  0  0  0  0  0  0
  191.5800  177.4130  144.6700 C   0  0  0  0  0  2  0  0  0  0  0  0
  188.2480  177.5140  145.8510 C   0  0  0  0  0  2  0  0  0  0  0  0
  188.9210  177.1290  147.1500 C   0  0  0  0  0  2  0  0  0  0  0  0
  190.3970  177.0650  146.8330 C   0  0  0  0  0  2  0  0  0  0  0  0
  190.8630  178.9230  143.9610 S   0  0  0  0  0  0  0  0  0  0  0  0
  189.1360  176.9770  144.7430 C   0  0  1  0  0  3  0  0  0  0  0  0
  192.4190  176.9280  137.8960 F   0  0  0  0  0  0  0  0  0  0  0  0
  191.3970  175.9900  137.8610 C   0  0  2  0  0  3  0  0  0  0  0  0
  191.8410  174.7250  137.4210 O   0  0  0  0  0  0  0  0  0  0  0  0
  193.2350  174.7730  137.2700 C   0  0  0  0  0  1  0  0  0  0  0  0
  183.9140  177.4470  138.4230 C   0  0  0  0  0  2  0  0  0  0  0  0
  182.3770  179.3930  138.0160 C   0  0  0  0  0  2  0  0  0  0  0  0
  181.7430  177.6170  139.4760 O   0  0  0  0  0  0  0  0  0  0  0  0
  180.7360  178.5910  139.5590 C   0  0  2  0  0  3  0  0  0  0  0  0
  181.2050  179.8400  138.8370 C   0  0  2  0  0  3  0  0  0  0  0  0
  182.4650  177.9110  138.3080 C   0  0  2  0  0  3  0  0  0  0  0  0
  180.5450  180.4860  136.5220 C   0  0  0  0  0  1  0  0  0  0  0  0
  180.1140  180.5060  137.9770 C   0  0  2  0  0  3  0  0  0  0  0  0
  179.7580  181.9380  138.4090 C   0  0  0  0  0  3  0  0  0  0  0  0
  179.6090  182.0020  139.7950 O   0  0  0  0  0  1  0  0  0  0  0  0
  180.7590  182.8330  138.0170 O   0  0  0  0  0  1  0  0  0  0  0  0
  180.4560  178.9150  141.0160 C   0  0  0  0  0  2  0  0  0  0  0  0
  181.6940  178.8910  141.7810 N   0  0  0  0  0  2  0  0  0  0  0  0
  181.7150  178.8610  143.2100 C   0  0  0  0  0  0  0  0  0  0  0  0
  180.6350  178.8960  143.8600 O   0  0  0  0  0  0  0  0  0  0  0  0
  183.1600  179.1580  145.2140 N   0  0  0  0  0  0  0  0  0  0  0  0
  182.9970  178.8190  143.9240 C   0  0  0  0  0  0  0  0  0  0  0  0
  184.2200  178.4850  143.3870 C   0  0  0  0  0  3  0  0  0  0  0  0
  184.4500  179.0290  145.4640 N   0  0  0  0  0  2  0  0  0  0  0  0
  185.1100  178.6260  144.3870 N   0  0  0  0  0  0  0  0  0  0  0  0
  1 32  1  1  0  0  0
  2  1  1  6  0  0  0
  2  3  1  0  0  0  0
  4  5  1  1  0  0  0
  4  2  1  0  0  0  0
  4  3  1  0  0  0  0
  6  5  1  0  0  0  0
  7  8  1  0  0  0  0
  7  1  1  0  0  0  0
  8  9  1  0  0  0  0
  9 12  1  0  0  0  0
 10 11  1  0  0  0  0
 11 12  2  0  0  0  0
 11 29  1  0  0  0  0
 12 16  1  0  0  0  0
 13 14  2  0  0  0  0
 13 19  1  0  0  0  0
 15 14  1  0  0  0  0
 16 18  1  0  0  0  0
 17 18  2  0  0  0  0
 17 15  1  0  0  0  0
 18 13  1  0  0  0  0
 20 19  1  6  0  0  0
 20 26  1  0  0  0  0
 20 27  1  0  0  0  0
 21 22  1  6  0  0  0
 21 25  1  0  0  0  0
 23 24  1  0  0  0  0
 25 24  1  0  0  0  0
 26 22  1  0  0  0  0
 27 21  1  0  0  0  0
 27 23  1  1  0  0  0
 29 28  1  6  0  0  0
 30 29  1  0  0  0  0
 31 30  1  0  0  0  0
 33 37  1  0  0  0  0
 33 36  1  0  0  0  0
 34 35  1  0  0  0  0
 35 43  1  1  0  0  0
 36 39  1  6  0  0  0
 36 35  1  0  0  0  0
 37 32  1  1  0  0  0
 37 34  1  0  0  0  0
 39 38  1  6  0  0  0
 39 40  1  0  0  0  0
 40 41  1  0  0  0  0
 42 40  1  0  0  0  0
 43 44  1  0  0  0  0
 44 45  1  0  0  0  0
 45 46  2  0  0  0  0
 45 48  1  0  0  0  0
 47 50  1  0  0  0  0
 48 47  2  0  0  0  0
 49 48  1  0  0  0  0
 49 51  2  0  0  0  0
 51 50  1  0  0  0  0
M  END
>  <MODEL>
4

>  <REMARK>
 VINA RESULT:      -7.6      3.662     10.637
  Name = 
  18 active torsions:
  status: ('A' for Active; 'I' for Inactive)
    1  A    between atoms: C_1  and  C_12
    2  A    between atoms: C_2  and  N_11
    3  A    between atoms: C_2  and  C_31
    4  A    between atoms: C_4  and  C_12
    5  A    between atoms: C_5  and  C_40
    6  A    between atoms: C_7  and  C_40
    7  A    between atoms: C_7  and  C_45
    8  A    between atoms: C_8  and  C_39
    9  A    between atoms: O_10  and  C_49
   10  A    between atoms: O_10  and  C_50
   11  A    between atoms: C_13  and  C_28
   12  A    between atoms: O_14  and  C_47
   13  A    between atoms: N_18  and  C_40
   14  A    between atoms: N_18  and  C_50
   15  A    between atoms: N_22  and  C_49
   16  A    between atoms: O_26  and  C_36
   17  A    between atoms: C_27  and  C_47
   18  A    between atoms: C_39  and  C_41
                            x       y       z     vdW  Elec       q    Type
                         _______ _______ _______ _____ _____    ______ ____

>  <TORSDO>
F 18

$$$$
=
 OpenBabel11062412343D

 51 56  0  0  1  0  0  0  0  0999 V2000
  190.0400  177.2920  142.9960 C   0  0  2  0  0  3  0  0  0  0  0  0
  191.2880  177.1610  143.8610 C   0  0  1  0  0  3  0  0  0  0  0  0
  191.6890  178.5280  144.3850 C   0  0  0  0  0  2  0  0  0  0  0  0
  190.9770  177.5530  145.2970 C   0  0  2  0  0  3  0  0  0  0  0  0
  191.9070  176.9630  146.1510 O   0  0  0  0  0  0  0  0  0  0  0  0
  191.1990  176.7360  147.3360 C   0  0  0  0  0  1  0  0  0  0  0  0
  189.4130  175.9890  142.8070 N   0  0  0  0  0  2  0  0  0  0  0  0
  188.0640  176.0550  143.3490 C   0  0  0  0  0  2  0  0  0  0  0  0
  187.7270  177.3990  143.6690 O   0  0  0  0  0  0  0  0  0  0  0  0
  187.3590  178.1760  146.3010 C   0  0  0  0  0  1  0  0  0  0  0  0
  186.2290  178.1770  145.3240 C   0  0  0  0  0  0  0  0  0  0  0  0
  186.4400  177.7940  144.0570 C   0  0  0  0  0  0  0  0  0  0  0  0
  184.3120  178.7530  141.0450 C   0  0  0  0  0  0  0  0  0  0  0  0
  184.7670  179.3960  139.9570 N   0  0  0  0  0  0  0  0  0  0  0  0
  186.0440  179.5790  140.1690 O   0  0  0  0  0  0  0  0  0  0  0  0
  185.3580  177.8380  143.1130 N   0  0  0  0  0  2  0  0  0  0  0  0
  186.4680  179.0950  141.3060 N   0  0  0  0  0  0  0  0  0  0  0  0
  185.3750  178.5710  141.8860 C   0  0  0  0  0  0  0  0  0  0  0  0
  182.9170  178.2470  141.2260 C   0  0  0  0  0  2  0  0  0  0  0  0
  182.2690  177.9360  139.8800 C   0  0  2  0  0  3  0  0  0  0  0  0
  180.5890  176.0900  140.0730 C   0  0  1  0  0  3  0  0  0  0  0  0
  179.8630  177.3410  140.5330 C   0  0  0  0  0  2  0  0  0  0  0  0
  182.2550  176.0190  138.2880 C   0  0  0  0  0  2  0  0  0  0  0  0
  181.1050  175.1000  137.9370 C   0  0  0  0  0  2  0  0  0  0  0  0
  179.9530  175.5500  138.8050 C   0  0  0  0  0  2  0  0  0  0  0  0
  180.6670  178.7840  139.7800 S   0  0  0  0  0  0  0  0  0  0  0  0
  182.0330  176.4370  139.7310 C   0  0  1  0  0  3  0  0  0  0  0  0
  184.6270  178.3770  147.1230 F   0  0  0  0  0  0  0  0  0  0  0  0
  184.8610  178.6310  145.7790 C   0  0  2  0  0  3  0  0  0  0  0  0
  183.8230  178.1510  144.9520 O   0  0  0  0  0  0  0  0  0  0  0  0
  182.8870  179.1810  144.7740 C   0  0  0  0  0  1  0  0  0  0  0  0
  190.4090  177.8570  141.6280 C   0  0  0  0  0  2  0  0  0  0  0  0
  191.0200  176.9620  139.3610 C   0  0  0  0  0  2  0  0  0  0  0  0
  188.7390  177.2980  139.9700 O   0  0  0  0  0  0  0  0  0  0  0  0
  188.7470  176.9130  138.6210 C   0  0  2  0  0  3  0  0  0  0  0  0
  190.1790  176.9190  138.1200 C   0  0  2  0  0  3  0  0  0  0  0  0
  190.0000  176.9420  140.4770 C   0  0  2  0  0  3  0  0  0  0  0  0
  190.9640  176.2210  135.8600 C   0  0  0  0  0  1  0  0  0  0  0  0
  190.5280  175.7160  137.2230 C   0  0  2  0  0  3  0  0  0  0  0  0
  189.3910  174.6920  137.0730 C   0  0  0  0  0  3  0  0  0  0  0  0
  188.9010  174.7010  135.7660 O   0  0  0  0  0  1  0  0  0  0  0  0
  189.8450  173.4050  137.3790 O   0  0  0  0  0  1  0  0  0  0  0  0
  187.9150  177.8870  137.8060 C   0  0  0  0  0  2  0  0  0  0  0  0
  186.6980  177.2380  137.3400 N   0  0  0  0  0  2  0  0  0  0  0  0
  186.3200  177.2110  135.9620 C   0  0  0  0  0  0  0  0  0  0  0  0
  187.0290  177.7970  135.0990 O   0  0  0  0  0  0  0  0  0  0  0  0
  184.9200  175.1910  135.5700 N   0  0  0  0  0  0  0  0  0  0  0  0
  185.0890  176.5240  135.5520 C   0  0  2  0  0  3  0  0  0  0  0  0
  183.9540  177.1170  135.0460 C   0  0  0  0  0  3  0  0  0  0  0  0
  183.7090  174.9720  135.0910 N   0  0  0  0  0  0  0  0  0  0  0  0
  183.1060  176.1080  134.7700 N   0  0  0  0  0  0  0  0  0  0  0  0
  1 32  1  6  0  0  0
  2  1  1  6  0  0  0
  2  3  1  0  0  0  0
  2  4  1  0  0  0  0
  3  4  1  0  0  0  0
  4  5  1  1  0  0  0
  5  6  1  0  0  0  0
  7  1  1  0  0  0  0
  7  8  1  0  0  0  0
  8  9  1  0  0  0  0
  9 12  1  0  0  0  0
 11 29  1  0  0  0  0
 11 10  1  0  0  0  0
 12 11  2  0  0  0  0
 13 19  1  0  0  0  0
 13 18  1  0  0  0  0
 14 15  1  0  0  0  0
 14 13  2  0  0  0  0
 15 17  1  0  0  0  0
 16 12  1  0  0  0  0
 17 18  2  0  0  0  0
 18 16  1  0  0  0  0
 20 19  1  1  0  0  0
 21 25  1  6  0  0  0
 21 22  1  0  0  0  0
 24 23  1  0  0  0  0
 24 25  1  0  0  0  0
 26 20  1  0  0  0  0
 26 22  1  0  0  0  0
 27 23  1  6  0  0  0
 27 20  1  0  0  0  0
 27 21  1  0  0  0  0
 29 28  1  1  0  0  0
 30 29  1  0  0  0  0
 31 30  1  0  0  0  0
 33 37  1  0  0  0  0
 34 37  1  0  0  0  0
 35 43  1  6  0  0  0
 35 34  1  0  0  0  0
 36 39  1  1  0  0  0
 36 35  1  0  0  0  0
 36 33  1  0  0  0  0
 37 32  1  1  0  0  0
 39 38  1  6  0  0  0
 40 39  1  0  0  0  0
 40 42  1  0  0  0  0
 41 40  1  0  0  0  0
 44 43  1  0  0  0  0
 45 44  1  0  0  0  0
 46 45  2  0  0  0  0
 48 47  1  0  0  0  0
 48 45  1  6  0  0  0
 49 48  1  0  0  0  0
 50 47  2  0  0  0  0
 51 49  2  0  0  0  0
 51 50  1  0  0  0  0
M  END
>  <MODEL>
5

>  <REMARK>
 VINA RESULT:      -7.6      3.447      5.301
  Name = 
  18 active torsions:
  status: ('A' for Active; 'I' for Inactive)
    1  A    between atoms: C_1  and  C_12
    2  A    between atoms: C_2  and  N_11
    3  A    between atoms: C_2  and  C_31
    4  A    between atoms: C_4  and  C_12
    5  A    between atoms: C_5  and  C_40
    6  A    between atoms: C_7  and  C_40
    7  A    between atoms: C_7  and  C_45
    8  A    between atoms: C_8  and  C_39
    9  A    between atoms: O_10  and  C_49
   10  A    between atoms: O_10  and  C_50
   11  A    between atoms: C_13  and  C_28
   12  A    between atoms: O_14  and  C_47
   13  A    between atoms: N_18  and  C_40
   14  A    between atoms: N_18  and  C_50
   15  A    between atoms: N_22  and  C_49
   16  A    between atoms: O_26  and  C_36
   17  A    between atoms: C_27  and  C_47
   18  A    between atoms: C_39  and  C_41
                            x       y       z     vdW  Elec       q    Type
                         _______ _______ _______ _____ _____    ______ ____

>  <TORSDO>
F 18

$$$$
=
 OpenBabel11062412343D

 51 56  0  0  1  0  0  0  0  0999 V2000
  182.2490  178.0810  139.4300 C   0  0  2  0  0  3  0  0  0  0  0  0
  181.5200  179.2260  140.1230 C   0  0  1  0  0  3  0  0  0  0  0  0
  180.0390  179.1540  139.8000 C   0  0  0  0  0  2  0  0  0  0  0  0
  180.5380  178.6810  141.1480 C   0  0  2  0  0  3  0  0  0  0  0  0
  180.2730  179.6590  142.1040 O   0  0  0  0  0  0  0  0  0  0  0  0
  179.5220  179.0000  143.0820 C   0  0  0  0  0  1  0  0  0  0  0  0
  183.6510  178.0530  139.8320 N   0  0  0  0  0  2  0  0  0  0  0  0
  183.7110  177.6470  141.2280 C   0  0  0  0  0  2  0  0  0  0  0  0
  184.2310  178.7040  142.0260 O   0  0  0  0  0  0  0  0  0  0  0  0
  183.1730  179.0220  144.5650 C   0  0  0  0  0  1  0  0  0  0  0  0
  184.6010  178.6350  144.3600 C   0  0  0  0  0  0  0  0  0  0  0  0
  185.0840  178.4900  143.1180 C   0  0  0  0  0  0  0  0  0  0  0  0
  188.4250  177.7120  141.4600 C   0  0  0  0  0  0  0  0  0  0  0  0
  188.8140  178.1750  140.2610 N   0  0  0  0  0  0  0  0  0  0  0  0
  187.8300  178.9270  139.8420 O   0  0  0  0  0  0  0  0  0  0  0  0
  186.4460  178.0750  142.9290 N   0  0  0  0  0  2  0  0  0  0  0  0
  186.8290  179.0050  140.6780 N   0  0  0  0  0  0  0  0  0  0  0  0
  187.1850  178.2290  141.7150 C   0  0  0  0  0  0  0  0  0  0  0  0
  189.2630  176.8750  142.3730 C   0  0  0  0  0  2  0  0  0  0  0  0
  189.6390  177.6490  143.6330 C   0  0  2  0  0  3  0  0  0  0  0  0
  190.8010  176.1850  145.2990 C   0  0  1  0  0  3  0  0  0  0  0  0
  191.8740  176.5870  144.3050 C   0  0  0  0  0  2  0  0  0  0  0  0
  188.9670  177.6220  146.0330 C   0  0  0  0  0  2  0  0  0  0  0  0
  189.7910  177.2090  147.2330 C   0  0  0  0  0  2  0  0  0  0  0  0
  191.1170  176.7530  146.6710 C   0  0  0  0  0  2  0  0  0  0  0  0
  191.3810  178.1520  143.5260 S   0  0  0  0  0  0  0  0  0  0  0  0
  189.4640  176.7780  144.8730 C   0  0  1  0  0  3  0  0  0  0  0  0
  185.8210  177.0550  145.7250 F   0  0  0  0  0  0  0  0  0  0  0  0
  185.4800  178.3910  145.5660 C   0  0  2  0  0  3  0  0  0  0  0  0
  184.9540  178.9570  146.7480 O   0  0  0  0  0  0  0  0  0  0  0  0
  186.0230  179.3900  147.5450 C   0  0  0  0  0  1  0  0  0  0  0  0
  182.1810  178.2590  137.9160 C   0  0  0  0  0  2  0  0  0  0  0  0
  181.2060  175.9550  138.1560 C   0  0  0  0  0  2  0  0  0  0  0  0
  182.1670  176.6690  136.0940 O   0  0  0  0  0  0  0  0  0  0  0  0
  181.8310  175.3160  135.9380 C   0  0  2  0  0  3  0  0  0  0  0  0
  181.4370  174.7520  137.2920 C   0  0  2  0  0  3  0  0  0  0  0  0
  181.4520  177.1150  137.2160 C   0  0  2  0  0  3  0  0  0  0  0  0
  179.1300  174.3820  138.1550 C   0  0  0  0  0  1  0  0  0  0  0  0
  180.2080  173.8250  137.2440 C   0  0  2  0  0  3  0  0  0  0  0  0
  180.5090  172.3610  137.6050 C   0  0  0  0  0  3  0  0  0  0  0  0
  179.4260  171.5480  137.2650 O   0  0  0  0  0  1  0  0  0  0  0  0
  181.6460  171.9110  136.9260 O   0  0  0  0  0  1  0  0  0  0  0  0
  183.0230  174.5510  135.3920 C   0  0  0  0  0  2  0  0  0  0  0  0
  184.2510  175.2900  135.6450 N   0  0  0  0  0  2  0  0  0  0  0  0
  185.2100  174.8760  136.6200 C   0  0  0  0  0  0  0  0  0  0  0  0
  184.9930  173.8560  137.3300 O   0  0  0  0  0  0  0  0  0  0  0  0
  187.6190  175.1320  137.1920 N   0  0  0  0  0  0  0  0  0  0  0  0
  186.4390  175.6550  136.8170 C   0  0  0  0  0  0  0  0  0  0  0  0
  186.5660  177.0210  136.7030 C   0  0  0  0  0  3  0  0  0  0  0  0
  188.4510  176.1520  137.3000 N   0  0  0  0  0  2  0  0  0  0  0  0
  187.8470  177.2970  137.0110 N   0  0  0  0  0  0  0  0  0  0  0  0
  1 32  1  6  0  0  0
  1  7  1  0  0  0  0
  2  1  1  6  0  0  0
  2  4  1  0  0  0  0
  3  2  1  0  0  0  0
  3  4  1  0  0  0  0
  4  5  1  1  0  0  0
  5  6  1  0  0  0  0
  7  8  1  0  0  0  0
  8  9  1  0  0  0  0
  9 12  1  0  0  0  0
 11 10  1  0  0  0  0
 11 29  1  0  0  0  0
 12 11  2  0  0  0  0
 13 18  1  0  0  0  0
 13 19  1  0  0  0  0
 14 13  2  0  0  0  0
 15 14  1  0  0  0  0
 15 17  1  0  0  0  0
 16 12  1  0  0  0  0
 17 18  2  0  0  0  0
 18 16  1  0  0  0  0
 20 19  1  6  0  0  0
 20 27  1  0  0  0  0
 21 22  1  6  0  0  0
 21 25  1  0  0  0  0
 23 24  1  0  0  0  0
 25 24  1  0  0  0  0
 26 20  1  0  0  0  0
 26 22  1  0  0  0  0
 27 21  1  0  0  0  0
 27 23  1  1  0  0  0
 29 28  1  1  0  0  0
 29 30  1  0  0  0  0
 30 31  1  0  0  0  0
 34 37  1  0  0  0  0
 35 43  1  1  0  0  0
 35 34  1  0  0  0  0
 35 36  1  0  0  0  0
 36 39  1  6  0  0  0
 36 33  1  0  0  0  0
 37 32  1  1  0  0  0
 37 33  1  0  0  0  0
 39 40  1  0  0  0  0
 39 38  1  1  0  0  0
 41 40  1  0  0  0  0
 42 40  1  0  0  0  0
 43 44  1  0  0  0  0
 44 45  1  0  0  0  0
 45 48  1  0  0  0  0
 45 46  2  0  0  0  0
 47 50  1  0  0  0  0
 48 47  2  0  0  0  0
 49 48  1  0  0  0  0
 49 51  2  0  0  0  0
 51 50  1  0  0  0  0
M  END
>  <MODEL>
6

>  <REMARK>
 VINA RESULT:      -7.3      4.277      8.470
  Name = 
  18 active torsions:
  status: ('A' for Active; 'I' for Inactive)
    1  A    between atoms: C_1  and  C_12
    2  A    between atoms: C_2  and  N_11
    3  A    between atoms: C_2  and  C_31
    4  A    between atoms: C_4  and  C_12
    5  A    between atoms: C_5  and  C_40
    6  A    between atoms: C_7  and  C_40
    7  A    between atoms: C_7  and  C_45
    8  A    between atoms: C_8  and  C_39
    9  A    between atoms: O_10  and  C_49
   10  A    between atoms: O_10  and  C_50
   11  A    between atoms: C_13  and  C_28
   12  A    between atoms: O_14  and  C_47
   13  A    between atoms: N_18  and  C_40
   14  A    between atoms: N_18  and  C_50
   15  A    between atoms: N_22  and  C_49
   16  A    between atoms: O_26  and  C_36
   17  A    between atoms: C_27  and  C_47
   18  A    between atoms: C_39  and  C_41
                            x       y       z     vdW  Elec       q    Type
                         _______ _______ _______ _____ _____    ______ ____

>  <TORSDO>
F 18

$$$$
=
 OpenBabel11062412343D

 51 56  0  0  1  0  0  0  0  0999 V2000
  190.0820  177.0850  142.9100 C   0  0  2  0  0  3  0  0  0  0  0  0
  190.2750  177.6220  144.3230 C   0  0  1  0  0  3  0  0  0  0  0  0
  189.7090  176.6310  145.3240 C   0  0  0  0  0  2  0  0  0  0  0  0
  191.2040  176.7110  145.1100 C   0  0  2  0  0  3  0  0  0  0  0  0
  191.7800  177.4280  146.1570 O   0  0  0  0  0  0  0  0  0  0  0  0
  191.6490  176.5890  147.2690 C   0  0  0  0  0  1  0  0  0  0  0  0
  190.4770  178.0870  141.9270 N   0  0  0  0  0  2  0  0  0  0  0  0
  191.2180  177.4140  140.8690 C   0  0  0  0  0  2  0  0  0  0  0  0
  190.4230  176.3850  140.2900 O   0  0  0  0  0  0  0  0  0  0  0  0
  188.5650  177.8200  138.8230 C   0  0  0  0  0  1  0  0  0  0  0  0
  189.4750  176.8310  138.1710 C   0  0  0  0  0  0  0  0  0  0  0  0
  190.3640  176.1510  138.9100 C   0  0  0  0  0  0  0  0  0  0  0  0
  193.3280  174.7750  136.9510 C   0  0  0  0  0  0  0  0  0  0  0  0
  194.4610  175.4510  136.6980 N   0  0  0  0  0  0  0  0  0  0  0  0
  194.3080  176.6150  137.2720 O   0  0  0  0  0  0  0  0  0  0  0  0
  191.2640  175.2330  138.2700 N   0  0  0  0  0  2  0  0  0  0  0  0
  193.1690  176.7540  137.8950 N   0  0  0  0  0  0  0  0  0  0  0  0
  192.5230  175.5930  137.6950 C   0  0  0  0  0  0  0  0  0  0  0  0
  193.0690  173.3530  136.5690 C   0  0  0  0  0  2  0  0  0  0  0  0
  194.3400  172.6850  136.0540 C   0  0  2  0  0  3  0  0  0  0  0  0
  194.7220  170.4660  137.1490 C   0  0  1  0  0  3  0  0  0  0  0  0
  193.7130  170.1990  136.0470 C   0  0  0  0  0  2  0  0  0  0  0  0
  196.5610  172.0660  137.0020 C   0  0  0  0  0  2  0  0  0  0  0  0
  197.1190  170.6830  137.2570 C   0  0  0  0  0  2  0  0  0  0  0  0
  196.0170  169.7270  136.8660 C   0  0  0  0  0  2  0  0  0  0  0  0
  193.9020  171.4770  134.7710 S   0  0  0  0  0  0  0  0  0  0  0  0
  195.0580  171.9520  137.1830 C   0  0  1  0  0  3  0  0  0  0  0  0
  189.4420  177.8160  135.9640 F   0  0  0  0  0  0  0  0  0  0  0  0
  189.3920  176.6260  136.6760 C   0  0  2  0  0  3  0  0  0  0  0  0
  188.3000  175.8160  136.2950 O   0  0  0  0  0  0  0  0  0  0  0  0
  187.4990  176.5450  135.4040 C   0  0  0  0  0  1  0  0  0  0  0  0
  188.6150  176.7320  142.6810 C   0  0  0  0  0  2  0  0  0  0  0  0
  186.5500  177.3770  143.9600 C   0  0  0  0  0  2  0  0  0  0  0  0
  187.1180  178.4710  141.9180 O   0  0  0  0  0  0  0  0  0  0  0  0
  185.8660  178.9680  142.3120 C   0  0  2  0  0  3  0  0  0  0  0  0
  185.3530  178.1350  143.4720 C   0  0  2  0  0  3  0  0  0  0  0  0
  187.6650  177.8640  143.0600 C   0  0  2  0  0  3  0  0  0  0  0  0
  184.8700  180.4420  144.2800 C   0  0  0  0  0  1  0  0  0  0  0  0
  184.6960  178.9660  144.5890 C   0  0  2  0  0  3  0  0  0  0  0  0
  185.2210  178.6520  146.0000 C   0  0  0  0  0  3  0  0  0  0  0  0
  185.8420  179.7760  146.5460 O   0  0  0  0  0  1  0  0  0  0  0  0
  184.1720  178.2600  146.8390 O   0  0  0  0  0  1  0  0  0  0  0  0
  184.8930  178.8840  141.1500 C   0  0  0  0  0  2  0  0  0  0  0  0
  183.5920  178.4290  141.6180 N   0  0  0  0  0  2  0  0  0  0  0  0
  182.3820  178.6990  140.9070 C   0  0  0  0  0  0  0  0  0  0  0  0
  182.4070  179.3880  139.8510 O   0  0  0  0  0  0  0  0  0  0  0  0
  180.3340  177.2880  140.7990 N   0  0  0  0  0  0  0  0  0  0  0  0
  181.1010  178.1980  141.4220 C   0  0  0  0  0  0  0  0  0  0  0  0
  180.4690  178.6080  142.5740 C   0  0  0  0  0  3  0  0  0  0  0  0
  179.2600  177.1390  141.5520 N   0  0  0  0  0  2  0  0  0  0  0  0
  179.3140  177.9170  142.6240 N   0  0  0  0  0  0  0  0  0  0  0  0
  1 32  1  6  0  0  0
  2  1  1  6  0  0  0
  2  4  1  0  0  0  0
  2  3  1  0  0  0  0
  4  3  1  0  0  0  0
  4  5  1  1  0  0  0
  5  6  1  0  0  0  0
  7  1  1  0  0  0  0
  8  7  1  0  0  0  0
  9  8  1  0  0  0  0
 11 10  1  0  0  0  0
 11 12  2  0  0  0  0
 12  9  1  0  0  0  0
 13 18  1  0  0  0  0
 14 13  2  0  0  0  0
 14 15  1  0  0  0  0
 15 17  1  0  0  0  0
 16 12  1  0  0  0  0
 18 17  2  0  0  0  0
 18 16  1  0  0  0  0
 19 13  1  0  0  0  0
 20 19  1  1  0  0  0
 20 27  1  0  0  0  0
 21 22  1  6  0  0  0
 21 27  1  0  0  0  0
 23 24  1  0  0  0  0
 25 21  1  0  0  0  0
 25 24  1  0  0  0  0
 26 22  1  0  0  0  0
 26 20  1  0  0  0  0
 27 23  1  6  0  0  0
 29 28  1  6  0  0  0
 29 11  1  0  0  0  0
 30 29  1  0  0  0  0
 31 30  1  0  0  0  0
 34 35  1  0  0  0  0
 34 37  1  0  0  0  0
 35 43  1  6  0  0  0
 35 36  1  0  0  0  0
 36 33  1  0  0  0  0
 36 39  1  1  0  0  0
 37 32  1  6  0  0  0
 37 33  1  0  0  0  0
 39 38  1  6  0  0  0
 39 40  1  0  0  0  0
 40 41  1  0  0  0  0
 40 42  1  0  0  0  0
 43 44  1  0  0  0  0
 45 48  1  0  0  0  0
 45 44  1  0  0  0  0
 46 45  2  0  0  0  0
 47 48  2  0  0  0  0
 47 50  1  0  0  0  0
 48 49  1  0  0  0  0
 49 51  2  0  0  0  0
 50 51  1  0  0  0  0
M  END
>  <MODEL>
7

>  <REMARK>
 VINA RESULT:      -7.2      3.486     10.271
  Name = 
  18 active torsions:
  status: ('A' for Active; 'I' for Inactive)
    1  A    between atoms: C_1  and  C_12
    2  A    between atoms: C_2  and  N_11
    3  A    between atoms: C_2  and  C_31
    4  A    between atoms: C_4  and  C_12
    5  A    between atoms: C_5  and  C_40
    6  A    between atoms: C_7  and  C_40
    7  A    between atoms: C_7  and  C_45
    8  A    between atoms: C_8  and  C_39
    9  A    between atoms: O_10  and  C_49
   10  A    between atoms: O_10  and  C_50
   11  A    between atoms: C_13  and  C_28
   12  A    between atoms: O_14  and  C_47
   13  A    between atoms: N_18  and  C_40
   14  A    between atoms: N_18  and  C_50
   15  A    between atoms: N_22  and  C_49
   16  A    between atoms: O_26  and  C_36
   17  A    between atoms: C_27  and  C_47
   18  A    between atoms: C_39  and  C_41
                            x       y       z     vdW  Elec       q    Type
                         _______ _______ _______ _____ _____    ______ ____

>  <TORSDO>
F 18

$$$$
=
 OpenBabel11062412343D

 51 56  0  0  1  0  0  0  0  0999 V2000
  190.6290  177.3840  142.7230 C   0  0  2  0  0  3  0  0  0  0  0  0
  191.4460  177.8230  143.9320 C   0  0  1  0  0  3  0  0  0  0  0  0
  190.5280  178.4520  144.9640 C   0  0  0  0  0  2  0  0  0  0  0  0
  191.0260  177.0380  145.1650 C   0  0  2  0  0  3  0  0  0  0  0  0
  192.0630  177.0460  146.0960 O   0  0  0  0  0  0  0  0  0  0  0  0
  191.4420  176.7560  147.3150 C   0  0  0  0  0  1  0  0  0  0  0  0
  189.6100  176.4190  143.1210 N   0  0  0  0  0  2  0  0  0  0  0  0
  188.3170  176.9180  142.6730 C   0  0  0  0  0  2  0  0  0  0  0  0
  187.3140  176.6190  143.6370 O   0  0  0  0  0  0  0  0  0  0  0  0
  187.5180  177.9460  146.0580 C   0  0  0  0  0  1  0  0  0  0  0  0
  186.3610  178.1720  145.1420 C   0  0  0  0  0  0  0  0  0  0  0  0
  186.2900  177.5130  143.9770 C   0  0  0  0  0  0  0  0  0  0  0  0
  184.2520  178.8850  141.0650 C   0  0  0  0  0  0  0  0  0  0  0  0
  184.7710  179.4440  139.9600 N   0  0  0  0  0  0  0  0  0  0  0  0
  186.0680  179.3840  140.1150 O   0  0  0  0  0  0  0  0  0  0  0  0
  185.1960  177.7690  143.0820 N   0  0  0  0  0  2  0  0  0  0  0  0
  186.4430  178.8170  141.2310 N   0  0  0  0  0  0  0  0  0  0  0  0
  185.2970  178.4990  141.8570 C   0  0  0  0  0  0  0  0  0  0  0  0
  182.7960  178.6460  141.3070 C   0  0  0  0  0  2  0  0  0  0  0  0
  182.0520  178.4330  139.9920 C   0  0  2  0  0  3  0  0  0  0  0  0
  181.0920  176.1250  139.8420 C   0  0  1  0  0  3  0  0  0  0  0  0
  180.1040  176.9140  140.6820 C   0  0  0  0  0  2  0  0  0  0  0  0
  182.3560  177.0260  137.9570 C   0  0  0  0  0  2  0  0  0  0  0  0
  181.5080  175.8670  137.4820 C   0  0  0  0  0  2  0  0  0  0  0  0
  180.4440  175.6890  138.5410 C   0  0  0  0  0  2  0  0  0  0  0  0
  180.2730  178.6740  140.2670 S   0  0  0  0  0  0  0  0  0  0  0  0
  182.2720  177.0150  139.4730 C   0  0  1  0  0  3  0  0  0  0  0  0
  185.7310  180.0910  146.4710 F   0  0  0  0  0  0  0  0  0  0  0  0
  185.2900  179.1630  145.5380 C   0  0  2  0  0  3  0  0  0  0  0  0
  184.0860  178.5380  145.9290 O   0  0  0  0  0  0  0  0  0  0  0  0
  183.0580  178.9980  145.0930 C   0  0  0  0  0  1  0  0  0  0  0  0
  191.5380  176.7310  141.6870 C   0  0  0  0  0  2  0  0  0  0  0  0
  189.9350  177.0910  139.7850 C   0  0  0  0  0  2  0  0  0  0  0  0
  192.2580  176.7360  139.3780 O   0  0  0  0  0  0  0  0  0  0  0  0
  191.6280  176.7790  138.1250 C   0  0  2  0  0  3  0  0  0  0  0  0
  190.1250  176.7640  138.3340 C   0  0  2  0  0  3  0  0  0  0  0  0
  191.3480  177.3020  140.2850 C   0  0  2  0  0  3  0  0  0  0  0  0
  189.0410  179.0030  138.1870 C   0  0  0  0  0  1  0  0  0  0  0  0
  189.3610  177.7360  137.4150 C   0  0  2  0  0  3  0  0  0  0  0  0
  188.0800  177.1470  136.8020 C   0  0  0  0  0  3  0  0  0  0  0  0
  187.8480  175.8650  137.3040 O   0  0  0  0  0  1  0  0  0  0  0  0
  186.9770  177.9570  137.0950 O   0  0  0  0  0  1  0  0  0  0  0  0
  192.0430  175.5740  137.3010 C   0  0  0  0  0  2  0  0  0  0  0  0
  193.4930  175.4500  137.2900 N   0  0  0  0  0  2  0  0  0  0  0  0
  194.2830  175.7550  136.1390 C   0  0  0  0  0  0  0  0  0  0  0  0
  193.7260  176.1110  135.0650 O   0  0  0  0  0  0  0  0  0  0  0  0
  196.4260  175.1670  137.2590 N   0  0  0  0  0  0  0  0  0  0  0  0
  195.7440  175.6270  136.1970 C   0  0  0  0  0  0  0  0  0  0  0  0
  196.6350  175.9980  135.2150 C   0  0  0  0  0  3  0  0  0  0  0  0
  197.7040  175.2480  136.9350 N   0  0  0  0  0  2  0  0  0  0  0  0
  197.8590  175.7410  135.7150 N   0  0  0  0  0  0  0  0  0  0  0  0
  1 32  1  6  0  0  0
  1  7  1  0  0  0  0
  2  1  1  6  0  0  0
  2  3  1  0  0  0  0
  2  4  1  0  0  0  0
  3  4  1  0  0  0  0
  4  5  1  1  0  0  0
  5  6  1  0  0  0  0
  8  7  1  0  0  0  0
  8  9  1  0  0  0  0
  9 12  1  0  0  0  0
 11 29  1  0  0  0  0
 11 10  1  0  0  0  0
 12 11  2  0  0  0  0
 13 19  1  0  0  0  0
 13 18  1  0  0  0  0
 14 15  1  0  0  0  0
 14 13  2  0  0  0  0
 15 17  1  0  0  0  0
 16 12  1  0  0  0  0
 17 18  2  0  0  0  0
 18 16  1  0  0  0  0
 20 26  1  0  0  0  0
 20 19  1  1  0  0  0
 21 25  1  6  0  0  0
 21 22  1  0  0  0  0
 24 23  1  0  0  0  0
 24 25  1  0  0  0  0
 26 22  1  0  0  0  0
 27 23  1  6  0  0  0
 27 21  1  0  0  0  0
 27 20  1  0  0  0  0
 29 30  1  0  0  0  0
 29 28  1  1  0  0  0
 31 30  1  0  0  0  0
 33 37  1  0  0  0  0
 34 37  1  0  0  0  0
 35 43  1  6  0  0  0
 35 36  1  0  0  0  0
 35 34  1  0  0  0  0
 36 39  1  6  0  0  0
 36 33  1  0  0  0  0
 37 32  1  1  0  0  0
 39 38  1  1  0  0  0
 40 42  1  0  0  0  0
 40 41  1  0  0  0  0
 40 39  1  0  0  0  0
 44 43  1  0  0  0  0
 45 48  1  0  0  0  0
 45 44  1  0  0  0  0
 46 45  2  0  0  0  0
 48 47  2  0  0  0  0
 49 51  2  0  0  0  0
 49 48  1  0  0  0  0
 50 47  1  0  0  0  0
 51 50  1  0  0  0  0
M  END
>  <MODEL>
8

>  <REMARK>
 VINA RESULT:      -7.2      2.195      2.760
  Name = 
  18 active torsions:
  status: ('A' for Active; 'I' for Inactive)
    1  A    between atoms: C_1  and  C_12
    2  A    between atoms: C_2  and  N_11
    3  A    between atoms: C_2  and  C_31
    4  A    between atoms: C_4  and  C_12
    5  A    between atoms: C_5  and  C_40
    6  A    between atoms: C_7  and  C_40
    7  A    between atoms: C_7  and  C_45
    8  A    between atoms: C_8  and  C_39
    9  A    between atoms: O_10  and  C_49
   10  A    between atoms: O_10  and  C_50
   11  A    between atoms: C_13  and  C_28
   12  A    between atoms: O_14  and  C_47
   13  A    between atoms: N_18  and  C_40
   14  A    between atoms: N_18  and  C_50
   15  A    between atoms: N_22  and  C_49
   16  A    between atoms: O_26  and  C_36
   17  A    between atoms: C_27  and  C_47
   18  A    between atoms: C_39  and  C_41
                            x       y       z     vdW  Elec       q    Type
                         _______ _______ _______ _____ _____    ______ ____

>  <TORSDO>
F 18

$$$$
=
 OpenBabel11062412343D

 51 56  0  0  1  0  0  0  0  0999 V2000
  184.6540  178.4670  142.5510 C   0  0  2  0  0  3  0  0  0  0  0  0
  184.4240  179.3540  143.7690 C   0  0  1  0  0  3  0  0  0  0  0  0
  183.0520  179.0710  144.3520 C   0  0  0  0  0  2  0  0  0  0  0  0
  184.2840  178.5030  145.0210 C   0  0  2  0  0  3  0  0  0  0  0  0
  184.5910  179.2730  146.1420 O   0  0  0  0  0  0  0  0  0  0  0  0
  185.4710  178.4770  146.8830 C   0  0  0  0  0  1  0  0  0  0  0  0
  185.9840  177.8710  142.6000 N   0  0  0  0  0  2  0  0  0  0  0  0
  186.7030  178.2730  141.4000 C   0  0  0  0  0  2  0  0  0  0  0  0
  188.0190  178.6990  141.7340 O   0  0  0  0  0  0  0  0  0  0  0  0
  189.7850  178.2490  143.8170 C   0  0  0  0  0  1  0  0  0  0  0  0
  190.0350  177.6970  142.4520 C   0  0  0  0  0  0  0  0  0  0  0  0
  189.1610  177.9330  141.4640 C   0  0  0  0  0  0  0  0  0  0  0  0
  189.2530  177.4900  137.6810 C   0  0  0  0  0  0  0  0  0  0  0  0
  189.1250  178.4850  136.7880 N   0  0  0  0  0  0  0  0  0  0  0  0
  188.9910  179.5750  137.4970 O   0  0  0  0  0  0  0  0  0  0  0  0
  189.3870  177.3630  140.1660 N   0  0  0  0  0  2  0  0  0  0  0  0
  189.0330  179.3770  138.7880 N   0  0  0  0  0  0  0  0  0  0  0  0
  189.1910  178.0500  138.9270 C   0  0  0  0  0  0  0  0  0  0  0  0
  189.5200  176.0580  137.3430 C   0  0  0  0  0  2  0  0  0  0  0  0
  190.8200  175.9160  136.5580 C   0  0  2  0  0  3  0  0  0  0  0  0
  192.0680  173.8470  137.2130 C   0  0  1  0  0  3  0  0  0  0  0  0
  191.0100  173.3800  136.2300 C   0  0  0  0  0  2  0  0  0  0  0  0
  193.2570  175.9760  137.0800 C   0  0  0  0  0  2  0  0  0  0  0  0
  194.2560  174.8420  137.0270 C   0  0  0  0  0  2  0  0  0  0  0  0
  193.4550  173.6200  136.6380 C   0  0  0  0  0  2  0  0  0  0  0  0
  190.5550  174.7800  135.1660 S   0  0  0  0  0  0  0  0  0  0  0  0
  191.9240  175.3460  137.4430 C   0  0  1  0  0  3  0  0  0  0  0  0
  191.5340  175.9750  143.2500 F   0  0  0  0  0  0  0  0  0  0  0  0
  191.2690  176.8570  142.2110 C   0  0  2  0  0  3  0  0  0  0  0  0
  192.3970  177.6310  141.8620 O   0  0  0  0  0  0  0  0  0  0  0  0
  192.6930  177.3970  140.5110 C   0  0  0  0  0  1  0  0  0  0  0  0
  184.5380  179.2920  141.2730 C   0  0  0  0  0  2  0  0  0  0  0  0
  182.5310  177.8220  140.9170 C   0  0  0  0  0  2  0  0  0  0  0  0
  183.2840  179.3010  139.2050 O   0  0  0  0  0  0  0  0  0  0  0  0
  182.2370  178.5450  138.6580 C   0  0  2  0  0  3  0  0  0  0  0  0
  181.8830  177.4290  139.6230 C   0  0  2  0  0  3  0  0  0  0  0  0
  183.1770  179.1520  140.5980 C   0  0  2  0  0  3  0  0  0  0  0  0
  179.9620  177.5090  141.2070 C   0  0  0  0  0  1  0  0  0  0  0  0
  180.3690  177.2000  139.7780 C   0  0  2  0  0  3  0  0  0  0  0  0
  179.9020  175.7890  139.3850 C   0  0  0  0  0  3  0  0  0  0  0  0
  180.9990  174.9360  139.2520 O   0  0  0  0  0  1  0  0  0  0  0  0
  179.0370  175.2690  140.3540 O   0  0  0  0  0  1  0  0  0  0  0  0
  182.6730  177.9540  137.3290 C   0  0  0  0  0  2  0  0  0  0  0  0
  183.6820  176.9280  137.5440 N   0  0  0  0  0  2  0  0  0  0  0  0
  183.6210  175.6460  136.9150 C   0  0  0  0  0  0  0  0  0  0  0  0
  182.6470  175.3510  136.1700 O   0  0  0  0  0  0  0  0  0  0  0  0
  184.5560  173.5950  137.9710 N   0  0  0  0  0  0  0  0  0  0  0  0
  184.6800  174.6580  137.1590 C   0  0  0  0  0  0  0  0  0  0  0  0
  185.9590  174.6890  136.6480 C   0  0  0  0  0  3  0  0  0  0  0  0
  185.7280  172.9860  137.9550 N   0  0  0  0  0  2  0  0  0  0  0  0
  186.5870  173.6190  137.1690 N   0  0  0  0  0  0  0  0  0  0  0  0
  1 32  1  6  0  0  0
  1  7  1  0  0  0  0
  2  1  1  6  0  0  0
  2  3  1  0  0  0  0
  2  4  1  0  0  0  0
  3  4  1  0  0  0  0
  4  5  1  1  0  0  0
  5  6  1  0  0  0  0
  8  9  1  0  0  0  0
  8  7  1  0  0  0  0
 11 10  1  0  0  0  0
 12  9  1  0  0  0  0
 12 11  2  0  0  0  0
 13 18  1  0  0  0  0
 14 15  1  0  0  0  0
 14 13  2  0  0  0  0
 15 17  1  0  0  0  0
 16 12  1  0  0  0  0
 17 18  2  0  0  0  0
 18 16  1  0  0  0  0
 19 13  1  0  0  0  0
 20 19  1  1  0  0  0
 20 27  1  0  0  0  0
 21 22  1  6  0  0  0
 21 27  1  0  0  0  0
 24 23  1  0  0  0  0
 25 24  1  0  0  0  0
 25 21  1  0  0  0  0
 26 22  1  0  0  0  0
 26 20  1  0  0  0  0
 27 23  1  6  0  0  0
 29 11  1  0  0  0  0
 29 28  1  1  0  0  0
 30 29  1  0  0  0  0
 31 30  1  0  0  0  0
 34 37  1  0  0  0  0
 35 43  1  6  0  0  0
 35 34  1  0  0  0  0
 35 36  1  0  0  0  0
 36 39  1  1  0  0  0
 36 33  1  0  0  0  0
 37 33  1  0  0  0  0
 37 32  1  1  0  0  0
 39 38  1  1  0  0  0
 40 39  1  0  0  0  0
 40 42  1  0  0  0  0
 41 40  1  0  0  0  0
 43 44  1  0  0  0  0
 45 48  1  0  0  0  0
 45 44  1  0  0  0  0
 46 45  2  0  0  0  0
 48 47  2  0  0  0  0
 49 48  1  0  0  0  0
 49 51  2  0  0  0  0
 50 47  1  0  0  0  0
 51 50  1  0  0  0  0
M  END
>  <MODEL>
9

>  <REMARK>
 VINA RESULT:      -7.2      3.559      8.269
  Name = 
  18 active torsions:
  status: ('A' for Active; 'I' for Inactive)
    1  A    between atoms: C_1  and  C_12
    2  A    between atoms: C_2  and  N_11
    3  A    between atoms: C_2  and  C_31
    4  A    between atoms: C_4  and  C_12
    5  A    between atoms: C_5  and  C_40
    6  A    between atoms: C_7  and  C_40
    7  A    between atoms: C_7  and  C_45
    8  A    between atoms: C_8  and  C_39
    9  A    between atoms: O_10  and  C_49
   10  A    between atoms: O_10  and  C_50
   11  A    between atoms: C_13  and  C_28
   12  A    between atoms: O_14  and  C_47
   13  A    between atoms: N_18  and  C_40
   14  A    between atoms: N_18  and  C_50
   15  A    between atoms: N_22  and  C_49
   16  A    between atoms: O_26  and  C_36
   17  A    between atoms: C_27  and  C_47
   18  A    between atoms: C_39  and  C_41
                            x       y       z     vdW  Elec       q    Type
                         _______ _______ _______ _____ _____    ______ ____

>  <TORSDO>
F 18

$$$$
