=
 OpenBabel11062415473D

 44 49  0  0  1  0  0  0  0  0999 V2000
  189.5330  177.9820  137.8630 C   0  0  1  0  0  3  0  0  0  0  0  0
  187.6700  176.7630  136.9670 C   0  0  1  0  0  3  0  0  0  0  0  0
  188.3920  177.8030  138.8400 C   0  0  1  0  0  3  0  0  0  0  0  0
  188.9760  177.4360  136.5830 C   0  0  1  0  0  0  0  0  0  0  0  0
  187.4860  176.8390  138.3580 O   0  0  0  0  0  0  0  0  0  0  0  0
  189.1180  178.9370  136.7580 C   0  0  0  0  0  2  0  0  0  0  0  0
  188.8780  177.4420  142.8930 C   0  0  1  0  0  3  0  0  0  0  0  0
  188.4300  178.0790  144.1800 C   0  0  2  0  0  3  0  0  0  0  0  0
  188.0720  178.3620  141.5380 S   0  0  0  0  0  0  0  0  0  0  0  0
  191.9990  177.0210  146.1170 O   0  0  0  0  0  0  0  0  0  0  0  0
  186.3080  176.8460  144.2100 O   0  0  0  0  0  1  0  0  0  0  0  0
  190.4050  177.6840  140.3030 C   0  0  0  0  0  2  0  0  0  0  0  0
  190.9770  177.1490  145.3930 C   0  0  0  0  0  0  0  0  0  0  0  0
  189.6470  177.4690  146.0510 C   0  0  1  0  0  3  0  0  0  0  0  0
  190.9890  177.0120  141.5350 C   0  0  1  0  0  3  0  0  0  0  0  0
  188.5610  176.9240  145.1600 C   0  0  1  0  0  3  0  0  0  0  0  0
  188.9130  177.4240  140.2240 C   0  0  2  0  0  3  0  0  0  0  0  0
  191.1170  176.9360  143.9700 N   0  0  0  0  0  2  0  0  0  0  0  0
  192.3770  177.1630  141.5140 O   0  0  0  0  0  1  0  0  0  0  0  0
  189.5350  176.8110  147.4160 C   0  0  0  0  0  1  0  0  0  0  0  0
  190.4210  177.5880  142.8390 C   0  0  2  0  0  3  0  0  0  0  0  0
  187.2240  177.6000  144.9460 C   0  0  1  0  0  0  0  0  0  0  0  0
  186.6960  178.4780  146.0730 C   0  0  0  0  0  2  0  0  0  0  0  0
  185.1140  179.6620  144.7420 O   0  0  0  0  0  0  0  0  0  0  0  0
  185.3170  178.9590  145.7650 C   0  0  0  0  0  0  0  0  0  0  0  0
  184.2570  178.6240  146.5960 O   0  0  0  0  0  1  0  0  0  0  0  0
  189.5670  175.3940  135.4470 F   0  0  0  0  0  0  0  0  0  0  0  0
  190.0150  176.6660  135.7650 C   0  0  0  0  0  0  0  0  0  0  0  0
  190.2860  177.3520  134.5940 F   0  0  0  0  0  0  0  0  0  0  0  0
  191.1800  176.5560  136.5020 F   0  0  0  0  0  0  0  0  0  0  0  0
  186.2610  177.5110  136.1170 S   0  0  1  0  0  0  0  0  0  0  0  0
  186.7330  177.6840  134.6820 O   0  0  0  0  0  0  0  0  0  0  0  0
  185.1090  176.1930  136.0070 N   0  0  0  0  0  2  0  0  0  0  0  0
  183.2700  174.8370  136.9390 C   0  0  0  0  0  3  0  0  0  0  0  0
  182.2630  174.6590  137.8910 C   0  0  0  0  0  3  0  0  0  0  0  0
  183.8800  176.9340  137.9780 C   0  0  0  0  0  3  0  0  0  0  0  0
  182.8710  176.7660  138.9360 C   0  0  0  0  0  0  0  0  0  0  0  0
  182.0640  175.6210  138.8870 C   0  0  0  0  0  3  0  0  0  0  0  0
  184.0830  175.9780  136.9790 C   0  0  0  0  0  0  0  0  0  0  0  0
  182.6610  177.7860  139.9740 C   0  0  0  0  0  0  0  0  0  0  0  0
  181.7040  178.6020  139.8720 O   0  0  0  0  0  0  0  0  0  0  0  0
  183.5330  177.8490  141.0650 O   0  0  0  0  0  0  0  0  0  0  0  0
  184.5030  178.8410  141.1760 C   0  0  0  0  0  3  0  0  0  0  0  0
  184.8400  179.5330  140.1410 N   0  0  0  0  0  2  0  0  0  0  0  0
  1  6  1  6  0  0  0
  1  3  1  0  0  0  0
  2 31  1  6  0  0  0
  2  5  1  0  0  0  0
  3  5  1  6  0  0  0
  3 17  1  0  0  0  0
  4 28  1  6  0  0  0
  4  6  1  0  0  0  0
  4  2  1  0  0  0  0
  4  1  1  0  0  0  0
  7  9  1  6  0  0  0
  7  8  1  0  0  0  0
  8 22  1  0  0  0  0
  8 16  1  0  0  0  0
 11 22  1  0  0  0  0
 12 15  1  0  0  0  0
 13 14  1  0  0  0  0
 13 10  2  0  0  0  0
 14 20  1  0  0  0  0
 15 21  1  0  0  0  0
 16 14  1  0  0  0  0
 17 12  1  0  0  0  0
 17  9  1  0  0  0  0
 18 13  1  0  0  0  0
 19 15  1  0  0  0  0
 21  7  1  0  0  0  0
 21 18  1  0  0  0  0
 22 16  1  0  0  0  0
 22 23  1  0  0  0  0
 24 25  2  0  0  0  0
 25 23  1  0  0  0  0
 25 26  1  0  0  0  0
 27 28  1  0  0  0  0
 28 30  1  0  0  0  0
 29 28  1  0  0  0  0
 32 31  2  0  0  0  0
 33 31  1  0  0  0  0
 33 39  1  0  0  0  0
 34 39  2  0  0  0  0
 34 35  1  0  0  0  0
 35 38  2  0  0  0  0
 36 37  2  0  0  0  0
 37 40  1  0  0  0  0
 38 37  1  0  0  0  0
 39 36  1  0  0  0  0
 40 42  1  0  0  0  0
 41 40  2  0  0  0  0
 42 43  1  0  0  0  0
 44 43  2  0  0  0  0
M  END
>  <MODEL>
1

>  <REMARK>
 VINA RESULT:      -8.9      0.000      0.000
  Name = 
  10 active torsions:
  status: ('A' for Active; 'I' for Inactive)
    1  A    between atoms: C_2  and  S_28
    2  A    between atoms: O_4  and  C_11
    3  A    between atoms: O_4  and  C_19
    4  A    between atoms: C_11  and  C_32
    5  A    between atoms: C_13  and  C_26
    6  A    between atoms: C_15  and  C_25
    7  A    between atoms: S_28  and  N_35
    8  A    between atoms: C_29  and  C_30
    9  A    between atoms: C_29  and  C_44
   10  A    between atoms: N_35  and  C_39
                            x       y       z     vdW  Elec       q    Type
                         _______ _______ _______ _____ _____    ______ ____

>  <TORSDO>
F 10

$$$$
=
 OpenBabel11062415473D

 44 49  0  0  1  0  0  0  0  0999 V2000
  190.5950  176.0980  138.5400 C   0  0  1  0  0  3  0  0  0  0  0  0
  188.5770  176.0670  137.2400 C   0  0  1  0  0  3  0  0  0  0  0  0
  189.4960  176.9760  139.0960 C   0  0  1  0  0  3  0  0  0  0  0  0
  190.0330  175.6350  137.2290 C   0  0  1  0  0  0  0  0  0  0  0  0
  188.2710  176.6770  138.4680 O   0  0  0  0  0  0  0  0  0  0  0  0
  191.1220  176.6930  137.2460 C   0  0  0  0  0  2  0  0  0  0  0  0
  188.3870  177.3930  143.0180 C   0  0  1  0  0  3  0  0  0  0  0  0
  187.6400  178.3340  143.9220 C   0  0  2  0  0  3  0  0  0  0  0  0
  188.3340  178.1140  141.3430 S   0  0  0  0  0  0  0  0  0  0  0  0
  189.9650  177.2310  147.2380 O   0  0  0  0  0  0  0  0  0  0  0  0
  185.4510  177.4270  143.2820 O   0  0  0  0  0  1  0  0  0  0  0  0
  190.7680  176.8930  141.2360 C   0  0  0  0  0  2  0  0  0  0  0  0
  189.3250  177.3420  146.1590 C   0  0  0  0  0  0  0  0  0  0  0  0
  187.9400  177.9650  146.1860 C   0  0  1  0  0  3  0  0  0  0  0  0
  190.7140  176.4170  142.6780 C   0  0  1  0  0  3  0  0  0  0  0  0
  187.1680  177.3980  145.0240 C   0  0  1  0  0  3  0  0  0  0  0  0
  189.3890  176.8230  140.6100 C   0  0  2  0  0  3  0  0  0  0  0  0
  189.9280  176.8250  144.9500 N   0  0  0  0  0  2  0  0  0  0  0  0
  192.0150  176.3740  143.1860 O   0  0  0  0  0  1  0  0  0  0  0  0
  187.2090  177.6220  147.4740 C   0  0  0  0  0  1  0  0  0  0  0  0
  189.8390  177.3180  143.5590 C   0  0  2  0  0  3  0  0  0  0  0  0
  186.1670  178.1880  144.2090 C   0  0  1  0  0  0  0  0  0  0  0  0
  185.4540  179.3410  144.9020 C   0  0  0  0  0  2  0  0  0  0  0  0
  183.1020  178.9710  144.8540 O   0  0  0  0  0  0  0  0  0  0  0  0
  184.1710  178.8800  145.5090 C   0  0  0  0  0  0  0  0  0  0  0  0
  184.1560  178.3410  146.7880 O   0  0  0  0  0  1  0  0  0  0  0  0
  191.5800  173.8100  137.5190 F   0  0  0  0  0  0  0  0  0  0  0  0
  190.3920  174.1820  136.9110 C   0  0  0  0  0  0  0  0  0  0  0  0
  189.3820  173.3450  137.3500 F   0  0  0  0  0  0  0  0  0  0  0  0
  190.5310  174.0390  135.5420 F   0  0  0  0  0  0  0  0  0  0  0  0
  188.2100  177.2000  135.8800 S   0  0  1  0  0  0  0  0  0  0  0  0
  188.8490  176.5490  134.6630 O   0  0  0  0  0  0  0  0  0  0  0  0
  186.4930  176.9620  135.6100 N   0  0  0  0  0  2  0  0  0  0  0  0
  184.6690  175.9230  136.9080 C   0  0  0  0  0  3  0  0  0  0  0  0
  183.7260  175.9960  137.9360 C   0  0  0  0  0  3  0  0  0  0  0  0
  185.4380  178.1500  137.4590 C   0  0  0  0  0  3  0  0  0  0  0  0
  184.4930  178.2330  138.4900 C   0  0  0  0  0  0  0  0  0  0  0  0
  183.6380  177.1470  138.7250 C   0  0  0  0  0  3  0  0  0  0  0  0
  185.5300  177.0030  136.6650 C   0  0  0  0  0  0  0  0  0  0  0  0
  184.3990  179.4500  139.3100 C   0  0  0  0  0  0  0  0  0  0  0  0
  185.0440  179.5330  140.3910 O   0  0  0  0  0  0  0  0  0  0  0  0
  183.5840  180.5040  138.8880 O   0  0  0  0  0  0  0  0  0  0  0  0
  182.1970  180.3940  138.8500 C   0  0  0  0  0  3  0  0  0  0  0  0
  181.5820  180.3760  137.7160 N   0  0  0  0  0  2  0  0  0  0  0  0
  1  6  1  6  0  0  0
  1  3  1  0  0  0  0
  2 31  1  6  0  0  0
  2  5  1  0  0  0  0
  3  5  1  6  0  0  0
  3 17  1  0  0  0  0
  4 28  1  6  0  0  0
  4  2  1  0  0  0  0
  4  6  1  0  0  0  0
  4  1  1  0  0  0  0
  7  9  1  6  0  0  0
  7 21  1  0  0  0  0
  7  8  1  0  0  0  0
  8 22  1  0  0  0  0
  8 16  1  0  0  0  0
 11 22  1  0  0  0  0
 12 15  1  0  0  0  0
 13 14  1  0  0  0  0
 13 10  2  0  0  0  0
 14 20  1  0  0  0  0
 15 19  1  0  0  0  0
 15 21  1  0  0  0  0
 16 14  1  0  0  0  0
 17 12  1  0  0  0  0
 17  9  1  0  0  0  0
 18 13  1  0  0  0  0
 21 18  1  0  0  0  0
 22 23  1  0  0  0  0
 22 16  1  0  0  0  0
 23 25  1  0  0  0  0
 24 25  2  0  0  0  0
 25 26  1  0  0  0  0
 28 29  1  0  0  0  0
 28 27  1  0  0  0  0
 30 28  1  0  0  0  0
 32 31  2  0  0  0  0
 33 31  1  0  0  0  0
 33 39  1  0  0  0  0
 34 35  1  0  0  0  0
 35 38  2  0  0  0  0
 36 37  2  0  0  0  0
 37 38  1  0  0  0  0
 37 40  1  0  0  0  0
 39 34  2  0  0  0  0
 39 36  1  0  0  0  0
 40 41  2  0  0  0  0
 42 40  1  0  0  0  0
 43 42  1  0  0  0  0
 44 43  2  0  0  0  0
M  END
>  <MODEL>
2

>  <REMARK>
 VINA RESULT:      -8.7      1.793      2.222
  Name = 
  10 active torsions:
  status: ('A' for Active; 'I' for Inactive)
    1  A    between atoms: C_2  and  S_28
    2  A    between atoms: O_4  and  C_11
    3  A    between atoms: O_4  and  C_19
    4  A    between atoms: C_11  and  C_32
    5  A    between atoms: C_13  and  C_26
    6  A    between atoms: C_15  and  C_25
    7  A    between atoms: S_28  and  N_35
    8  A    between atoms: C_29  and  C_30
    9  A    between atoms: C_29  and  C_44
   10  A    between atoms: N_35  and  C_39
                            x       y       z     vdW  Elec       q    Type
                         _______ _______ _______ _____ _____    ______ ____

>  <TORSDO>
F 10

$$$$
=
 OpenBabel11062415473D

 44 49  0  0  1  0  0  0  0  0999 V2000
  189.4570  177.8860  137.7640 C   0  0  1  0  0  3  0  0  0  0  0  0
  187.5550  176.6860  136.9250 C   0  0  1  0  0  3  0  0  0  0  0  0
  188.3240  177.7630  138.7590 C   0  0  1  0  0  3  0  0  0  0  0  0
  188.8710  177.3170  136.5070 C   0  0  1  0  0  0  0  0  0  0  0  0
  187.3900  176.8070  138.3150 O   0  0  0  0  0  0  0  0  0  0  0  0
  189.0500  178.8190  136.6360 C   0  0  0  0  0  2  0  0  0  0  0  0
  188.8210  177.4650  142.8150 C   0  0  1  0  0  3  0  0  0  0  0  0
  188.3640  178.1110  144.0940 C   0  0  2  0  0  3  0  0  0  0  0  0
  187.9980  178.3520  141.4500 S   0  0  0  0  0  0  0  0  0  0  0  0
  191.9540  177.1400  146.0410 O   0  0  0  0  0  0  0  0  0  0  0  0
  186.2630  176.8430  144.1450 O   0  0  0  0  0  1  0  0  0  0  0  0
  190.3410  177.6970  140.2210 C   0  0  0  0  0  2  0  0  0  0  0  0
  190.9280  177.2410  145.3170 C   0  0  0  0  0  0  0  0  0  0  0  0
  189.5930  177.5470  145.9720 C   0  0  1  0  0  3  0  0  0  0  0  0
  190.9370  177.0520  141.4610 C   0  0  1  0  0  3  0  0  0  0  0  0
  188.5160  176.9720  145.0900 C   0  0  1  0  0  3  0  0  0  0  0  0
  188.8540  177.4110  140.1470 C   0  0  2  0  0  3  0  0  0  0  0  0
  191.0700  177.0110  143.8960 N   0  0  0  0  0  2  0  0  0  0  0  0
  192.3230  177.2260  141.4350 O   0  0  0  0  0  1  0  0  0  0  0  0
  189.4950  176.9060  147.3460 C   0  0  0  0  0  1  0  0  0  0  0  0
  190.3620  177.6350  142.7570 C   0  0  2  0  0  3  0  0  0  0  0  0
  187.1670  177.6220  144.8690 C   0  0  1  0  0  0  0  0  0  0  0  0
  186.6260  178.5070  145.9840 C   0  0  0  0  0  2  0  0  0  0  0  0
  184.3000  178.6280  146.4830 O   0  0  0  0  0  1  0  0  0  0  0  0
  185.2270  178.9320  145.6890 C   0  0  0  0  0  0  0  0  0  0  0  0
  184.9450  179.6730  144.5480 O   0  0  0  0  0  0  0  0  0  0  0  0
  190.9880  176.1660  136.4640 F   0  0  0  0  0  0  0  0  0  0  0  0
  189.8820  176.4990  135.6990 C   0  0  0  0  0  0  0  0  0  0  0  0
  189.2840  175.3380  135.2430 F   0  0  0  0  0  0  0  0  0  0  0  0
  190.3020  177.2450  134.6130 F   0  0  0  0  0  0  0  0  0  0  0  0
  186.1530  177.4430  136.0710 S   0  0  1  0  0  0  0  0  0  0  0  0
  186.4830  177.2890  134.5940 O   0  0  0  0  0  0  0  0  0  0  0  0
  184.8580  176.2870  136.3180 N   0  0  0  0  0  2  0  0  0  0  0  0
  183.2740  175.2220  137.8830 C   0  0  0  0  0  3  0  0  0  0  0  0
  182.3880  175.3220  138.9580 C   0  0  0  0  0  3  0  0  0  0  0  0
  183.7450  177.5890  138.0540 C   0  0  0  0  0  3  0  0  0  0  0  0
  182.8560  177.6990  139.1310 C   0  0  0  0  0  0  0  0  0  0  0  0
  182.1790  176.5570  139.5810 C   0  0  0  0  0  3  0  0  0  0  0  0
  183.9580  176.3580  137.4260 C   0  0  0  0  0  0  0  0  0  0  0  0
  182.6340  179.0030  139.7750 C   0  0  0  0  0  0  0  0  0  0  0  0
  182.2090  179.0560  140.9620 O   0  0  0  0  0  0  0  0  0  0  0  0
  182.8870  180.1770  139.0600 O   0  0  0  0  0  0  0  0  0  0  0  0
  181.8940  180.8220  138.3280 C   0  0  0  0  0  3  0  0  0  0  0  0
  180.8690  181.3240  138.9310 N   0  0  0  0  0  2  0  0  0  0  0  0
  1  6  1  6  0  0  0
  1  3  1  0  0  0  0
  2 31  1  6  0  0  0
  2  5  1  0  0  0  0
  3  5  1  6  0  0  0
  3 17  1  0  0  0  0
  4 28  1  6  0  0  0
  4  6  1  0  0  0  0
  4  2  1  0  0  0  0
  4  1  1  0  0  0  0
  7  9  1  6  0  0  0
  7  8  1  0  0  0  0
  8 22  1  0  0  0  0
  8 16  1  0  0  0  0
 11 22  1  0  0  0  0
 12 15  1  0  0  0  0
 13 14  1  0  0  0  0
 13 10  2  0  0  0  0
 14 20  1  0  0  0  0
 15 21  1  0  0  0  0
 16 14  1  0  0  0  0
 17 12  1  0  0  0  0
 17  9  1  0  0  0  0
 18 13  1  0  0  0  0
 19 15  1  0  0  0  0
 21  7  1  0  0  0  0
 21 18  1  0  0  0  0
 22 16  1  0  0  0  0
 22 23  1  0  0  0  0
 25 23  1  0  0  0  0
 25 24  1  0  0  0  0
 26 25  2  0  0  0  0
 28 27  1  0  0  0  0
 29 28  1  0  0  0  0
 30 28  1  0  0  0  0
 31 33  1  0  0  0  0
 32 31  2  0  0  0  0
 33 39  1  0  0  0  0
 34 35  1  0  0  0  0
 35 38  2  0  0  0  0
 36 37  2  0  0  0  0
 37 38  1  0  0  0  0
 37 40  1  0  0  0  0
 39 34  2  0  0  0  0
 39 36  1  0  0  0  0
 40 41  2  0  0  0  0
 42 40  1  0  0  0  0
 43 44  2  0  0  0  0
 43 42  1  0  0  0  0
M  END
>  <MODEL>
3

>  <REMARK>
 VINA RESULT:      -8.6      1.018      1.376
  Name = 
  10 active torsions:
  status: ('A' for Active; 'I' for Inactive)
    1  A    between atoms: C_2  and  S_28
    2  A    between atoms: O_4  and  C_11
    3  A    between atoms: O_4  and  C_19
    4  A    between atoms: C_11  and  C_32
    5  A    between atoms: C_13  and  C_26
    6  A    between atoms: C_15  and  C_25
    7  A    between atoms: S_28  and  N_35
    8  A    between atoms: C_29  and  C_30
    9  A    between atoms: C_29  and  C_44
   10  A    between atoms: N_35  and  C_39
                            x       y       z     vdW  Elec       q    Type
                         _______ _______ _______ _____ _____    ______ ____

>  <TORSDO>
F 10

$$$$
=
 OpenBabel11062415473D

 44 49  0  0  1  0  0  0  0  0999 V2000
  189.5370  177.9540  137.8950 C   0  0  1  0  0  3  0  0  0  0  0  0
  187.7340  176.6610  136.9790 C   0  0  1  0  0  3  0  0  0  0  0  0
  188.3880  177.7400  138.8550 C   0  0  1  0  0  3  0  0  0  0  0  0
  189.0200  177.3800  136.6100 C   0  0  1  0  0  0  0  0  0  0  0  0
  187.5260  176.7400  138.3660 O   0  0  0  0  0  0  0  0  0  0  0  0
  189.1030  178.8870  136.7760 C   0  0  0  0  0  2  0  0  0  0  0  0
  188.8420  177.4490  142.9170 C   0  0  1  0  0  3  0  0  0  0  0  0
  188.3740  178.0990  144.1900 C   0  0  2  0  0  3  0  0  0  0  0  0
  188.0360  178.3360  141.5410 S   0  0  0  0  0  0  0  0  0  0  0  0
  191.9390  177.1190  146.1760 O   0  0  0  0  0  0  0  0  0  0  0  0
  186.2680  176.8380  144.2210 O   0  0  0  0  0  1  0  0  0  0  0  0
  190.3890  177.6710  140.3380 C   0  0  0  0  0  2  0  0  0  0  0  0
  190.9210  177.2220  145.4410 C   0  0  0  0  0  0  0  0  0  0  0  0
  189.5810  177.5350  146.0810 C   0  0  1  0  0  3  0  0  0  0  0  0
  190.9700  177.0260  141.5860 C   0  0  1  0  0  3  0  0  0  0  0  0
  188.5110  176.9610  145.1890 C   0  0  1  0  0  3  0  0  0  0  0  0
  188.9020  177.3900  140.2490 C   0  0  2  0  0  3  0  0  0  0  0  0
  191.0770  176.9900  144.0220 N   0  0  0  0  0  2  0  0  0  0  0  0
  192.3570  177.1960  141.5740 O   0  0  0  0  0  1  0  0  0  0  0  0
  189.4660  176.8960  147.4560 C   0  0  0  0  0  1  0  0  0  0  0  0
  190.3830  177.6140  142.8750 C   0  0  2  0  0  3  0  0  0  0  0  0
  187.1670  177.6150  144.9530 C   0  0  1  0  0  0  0  0  0  0  0  0
  186.6170  178.5040  146.0610 C   0  0  0  0  0  2  0  0  0  0  0  0
  184.2810  178.5700  146.5200 O   0  0  0  0  0  1  0  0  0  0  0  0
  185.2170  178.9210  145.7570 C   0  0  0  0  0  0  0  0  0  0  0  0
  184.9450  179.7050  144.6440 O   0  0  0  0  0  0  0  0  0  0  0  0
  190.3370  177.2610  134.5950 F   0  0  0  0  0  0  0  0  0  0  0  0
  190.0990  176.6440  135.8130 C   0  0  0  0  0  0  0  0  0  0  0  0
  191.2760  176.6160  136.5390 F   0  0  0  0  0  0  0  0  0  0  0  0
  189.6830  175.3470  135.5790 F   0  0  0  0  0  0  0  0  0  0  0  0
  186.3110  177.3520  136.1030 S   0  0  1  0  0  0  0  0  0  0  0  0
  186.2640  176.5800  134.7920 O   0  0  0  0  0  0  0  0  0  0  0  0
  184.9410  176.7170  136.9950 N   0  0  0  0  0  2  0  0  0  0  0  0
  184.7380  178.6670  138.4940 C   0  0  0  0  0  3  0  0  0  0  0  0
  184.0000  179.4020  139.4240 C   0  0  0  0  0  3  0  0  0  0  0  0
  182.9260  177.0740  138.3200 C   0  0  0  0  0  3  0  0  0  0  0  0
  182.1800  177.8030  139.2550 C   0  0  0  0  0  0  0  0  0  0  0  0
  182.7250  178.9720  139.8040 C   0  0  0  0  0  3  0  0  0  0  0  0
  184.2020  177.4970  137.9370 C   0  0  0  0  0  0  0  0  0  0  0  0
  180.8430  177.3400  139.6570 C   0  0  0  0  0  0  0  0  0  0  0  0
  179.8370  178.0790  139.4710 O   0  0  0  0  0  0  0  0  0  0  0  0
  180.6990  176.0850  140.2540 O   0  0  0  0  0  0  0  0  0  0  0  0
  179.8550  175.1110  139.7280 C   0  0  0  0  0  3  0  0  0  0  0  0
  180.1150  174.5850  138.5780 N   0  0  0  0  0  2  0  0  0  0  0  0
  1  6  1  6  0  0  0
  1  3  1  0  0  0  0
  2 31  1  6  0  0  0
  2  5  1  0  0  0  0
  3  5  1  6  0  0  0
  3 17  1  0  0  0  0
  4 28  1  6  0  0  0
  4  6  1  0  0  0  0
  4  2  1  0  0  0  0
  4  1  1  0  0  0  0
  7  9  1  6  0  0  0
  7  8  1  0  0  0  0
  8 22  1  0  0  0  0
  8 16  1  0  0  0  0
 11 22  1  0  0  0  0
 12 15  1  0  0  0  0
 13 14  1  0  0  0  0
 13 10  2  0  0  0  0
 14 20  1  0  0  0  0
 15 21  1  0  0  0  0
 16 14  1  0  0  0  0
 17 12  1  0  0  0  0
 17  9  1  0  0  0  0
 18 13  1  0  0  0  0
 19 15  1  0  0  0  0
 21  7  1  0  0  0  0
 21 18  1  0  0  0  0
 22 16  1  0  0  0  0
 22 23  1  0  0  0  0
 25 23  1  0  0  0  0
 25 24  1  0  0  0  0
 26 25  2  0  0  0  0
 27 28  1  0  0  0  0
 28 29  1  0  0  0  0
 30 28  1  0  0  0  0
 31 33  1  0  0  0  0
 32 31  2  0  0  0  0
 33 39  1  0  0  0  0
 34 35  1  0  0  0  0
 35 38  2  0  0  0  0
 36 37  2  0  0  0  0
 37 40  1  0  0  0  0
 37 38  1  0  0  0  0
 39 36  1  0  0  0  0
 39 34  2  0  0  0  0
 40 42  1  0  0  0  0
 41 40  2  0  0  0  0
 43 42  1  0  0  0  0
 44 43  2  0  0  0  0
M  END
>  <MODEL>
4

>  <REMARK>
 VINA RESULT:      -8.6      1.250      2.131
  Name = 
  10 active torsions:
  status: ('A' for Active; 'I' for Inactive)
    1  A    between atoms: C_2  and  S_28
    2  A    between atoms: O_4  and  C_11
    3  A    between atoms: O_4  and  C_19
    4  A    between atoms: C_11  and  C_32
    5  A    between atoms: C_13  and  C_26
    6  A    between atoms: C_15  and  C_25
    7  A    between atoms: S_28  and  N_35
    8  A    between atoms: C_29  and  C_30
    9  A    between atoms: C_29  and  C_44
   10  A    between atoms: N_35  and  C_39
                            x       y       z     vdW  Elec       q    Type
                         _______ _______ _______ _____ _____    ______ ____

>  <TORSDO>
F 10

$$$$
=
 OpenBabel11062415473D

 44 49  0  0  1  0  0  0  0  0999 V2000
  188.3220  178.2540  145.3430 C   0  0  1  0  0  3  0  0  0  0  0  0
  189.4740  176.2880  144.5870 C   0  0  1  0  0  3  0  0  0  0  0  0
  187.8860  177.7780  143.9750 C   0  0  1  0  0  3  0  0  0  0  0  0
  189.4840  177.3610  145.6620 C   0  0  1  0  0  0  0  0  0  0  0  0
  188.3730  176.4790  143.7360 O   0  0  0  0  0  0  0  0  0  0  0  0
  189.7360  178.8060  145.2680 C   0  0  0  0  0  2  0  0  0  0  0  0
  184.0870  178.2620  142.5200 C   0  0  1  0  0  3  0  0  0  0  0  0
  183.3520  178.9000  141.3730 C   0  0  2  0  0  3  0  0  0  0  0  0
  185.8600  178.6140  142.2760 S   0  0  0  0  0  0  0  0  0  0  0  0
  179.9090  179.4750  143.7040 O   0  0  0  0  0  0  0  0  0  0  0  0
  183.8160  177.0270  139.8560 O   0  0  0  0  0  1  0  0  0  0  0  0
  185.7700  178.6030  144.9990 C   0  0  0  0  0  2  0  0  0  0  0  0
  180.9880  179.1210  143.1590 C   0  0  0  0  0  0  0  0  0  0  0  0
  181.0600  179.0590  141.6440 C   0  0  1  0  0  3  0  0  0  0  0  0
  184.2670  178.3820  145.0570 C   0  0  1  0  0  3  0  0  0  0  0  0
  182.1040  178.0360  141.2830 C   0  0  1  0  0  3  0  0  0  0  0  0
  186.3670  177.8310  143.8390 C   0  0  2  0  0  3  0  0  0  0  0  0
  182.0940  178.7460  144.0120 N   0  0  0  0  0  2  0  0  0  0  0  0
  183.7670  179.0020  146.2050 O   0  0  0  0  0  1  0  0  0  0  0  0
  179.7290  178.6310  141.0470 C   0  0  0  0  0  1  0  0  0  0  0  0
  183.5490  178.9250  143.8150 C   0  0  2  0  0  3  0  0  0  0  0  0
  183.0370  178.1600  140.0980 C   0  0  1  0  0  0  0  0  0  0  0  0
  182.5470  178.9680  138.9040 C   0  0  0  0  0  2  0  0  0  0  0  0
  184.5340  180.2760  138.7710 O   0  0  0  0  0  1  0  0  0  0  0  0
  183.2760  180.2660  138.8100 C   0  0  0  0  0  0  0  0  0  0  0  0
  182.5740  181.4620  138.7530 O   0  0  0  0  0  0  0  0  0  0  0  0
  190.5100  176.0010  147.3670 F   0  0  0  0  0  0  0  0  0  0  0  0
  189.5340  176.9570  147.1370 C   0  0  0  0  0  0  0  0  0  0  0  0
  189.8030  178.0700  147.9150 F   0  0  0  0  0  0  0  0  0  0  0  0
  188.3070  176.4360  147.5050 F   0  0  0  0  0  0  0  0  0  0  0  0
  191.0040  176.2960  143.6250 S   0  0  1  0  0  0  0  0  0  0  0  0
  190.9090  175.0530  142.7530 O   0  0  0  0  0  0  0  0  0  0  0  0
  190.7580  177.6080  142.4870 N   0  0  0  0  0  2  0  0  0  0  0  0
  191.6580  177.0480  140.2580 C   0  0  0  0  0  3  0  0  0  0  0  0
  191.4590  176.8600  138.8880 C   0  0  0  0  0  3  0  0  0  0  0  0
  189.3060  177.5450  140.5290 C   0  0  0  0  0  3  0  0  0  0  0  0
  189.0970  177.3610  139.1560 C   0  0  0  0  0  0  0  0  0  0  0  0
  190.1830  177.0150  138.3380 C   0  0  0  0  0  3  0  0  0  0  0  0
  190.5800  177.3930  141.0850 C   0  0  0  0  0  0  0  0  0  0  0  0
  187.7550  177.5350  138.5830 C   0  0  0  0  0  0  0  0  0  0  0  0
  186.9800  178.4170  139.0470 O   0  0  0  0  0  0  0  0  0  0  0  0
  187.3410  176.7130  137.5310 O   0  0  0  0  0  0  0  0  0  0  0  0
  187.0270  177.2250  136.2750 C   0  0  0  0  0  3  0  0  0  0  0  0
  187.7680  178.1400  135.7470 N   0  0  0  0  0  2  0  0  0  0  0  0
  1  6  1  6  0  0  0
  1  4  1  0  0  0  0
  2 31  1  6  0  0  0
  2  4  1  0  0  0  0
  3  5  1  1  0  0  0
  3  1  1  0  0  0  0
  4 28  1  1  0  0  0
  5  2  1  0  0  0  0
  6  4  1  0  0  0  0
  7  9  1  6  0  0  0
  7 21  1  0  0  0  0
  8  7  1  0  0  0  0
  9 17  1  0  0  0  0
 11 22  1  0  0  0  0
 12 15  1  0  0  0  0
 13 10  2  0  0  0  0
 13 18  1  0  0  0  0
 14 13  1  0  0  0  0
 15 19  1  0  0  0  0
 16  8  1  0  0  0  0
 16 14  1  0  0  0  0
 17  3  1  0  0  0  0
 17 12  1  0  0  0  0
 20 14  1  0  0  0  0
 21 18  1  0  0  0  0
 21 15  1  0  0  0  0
 22 16  1  0  0  0  0
 22  8  1  0  0  0  0
 23 22  1  0  0  0  0
 24 25  1  0  0  0  0
 25 23  1  0  0  0  0
 26 25  2  0  0  0  0
 28 27  1  0  0  0  0
 28 30  1  0  0  0  0
 28 29  1  0  0  0  0
 32 31  2  0  0  0  0
 33 31  1  0  0  0  0
 34 39  1  0  0  0  0
 35 34  2  0  0  0  0
 36 39  2  0  0  0  0
 37 36  1  0  0  0  0
 38 35  1  0  0  0  0
 38 37  2  0  0  0  0
 39 33  1  0  0  0  0
 40 41  2  0  0  0  0
 40 37  1  0  0  0  0
 42 40  1  0  0  0  0
 43 42  1  0  0  0  0
 44 43  2  0  0  0  0
M  END
>  <MODEL>
5

>  <REMARK>
 VINA RESULT:      -8.6      3.897      8.211
  Name = 
  10 active torsions:
  status: ('A' for Active; 'I' for Inactive)
    1  A    between atoms: C_2  and  S_28
    2  A    between atoms: O_4  and  C_11
    3  A    between atoms: O_4  and  C_19
    4  A    between atoms: C_11  and  C_32
    5  A    between atoms: C_13  and  C_26
    6  A    between atoms: C_15  and  C_25
    7  A    between atoms: S_28  and  N_35
    8  A    between atoms: C_29  and  C_30
    9  A    between atoms: C_29  and  C_44
   10  A    between atoms: N_35  and  C_39
                            x       y       z     vdW  Elec       q    Type
                         _______ _______ _______ _____ _____    ______ ____

>  <TORSDO>
F 10

$$$$
=
 OpenBabel11062415473D

 44 49  0  0  1  0  0  0  0  0999 V2000
  188.3270  178.2590  145.2880 C   0  0  1  0  0  3  0  0  0  0  0  0
  189.5110  176.3740  144.3900 C   0  0  1  0  0  3  0  0  0  0  0  0
  187.8740  177.8560  143.9020 C   0  0  1  0  0  3  0  0  0  0  0  0
  189.5170  177.3790  145.5280 C   0  0  1  0  0  0  0  0  0  0  0  0
  188.3880  176.5870  143.5740 O   0  0  0  0  0  0  0  0  0  0  0  0
  189.7250  178.8510  145.2190 C   0  0  0  0  0  2  0  0  0  0  0  0
  184.0350  178.2600  142.5290 C   0  0  1  0  0  3  0  0  0  0  0  0
  183.2620  178.8810  141.3980 C   0  0  2  0  0  3  0  0  0  0  0  0
  185.7950  178.6480  142.2460 S   0  0  0  0  0  0  0  0  0  0  0  0
  179.8600  179.3870  143.8030 O   0  0  0  0  0  0  0  0  0  0  0  0
  183.7320  177.0170  139.8730 O   0  0  0  0  0  1  0  0  0  0  0  0
  185.7640  178.6380  144.9710 C   0  0  0  0  0  2  0  0  0  0  0  0
  180.9340  179.0550  143.2350 C   0  0  0  0  0  0  0  0  0  0  0  0
  180.9740  178.9930  141.7190 C   0  0  1  0  0  3  0  0  0  0  0  0
  184.2680  178.3860  145.0620 C   0  0  1  0  0  3  0  0  0  0  0  0
  182.0310  177.9910  141.3360 C   0  0  1  0  0  3  0  0  0  0  0  0
  186.3520  177.8770  143.7980 C   0  0  2  0  0  3  0  0  0  0  0  0
  182.0650  178.7040  144.0640 N   0  0  0  0  0  2  0  0  0  0  0  0
  183.7800  178.9970  146.2200 O   0  0  0  0  0  1  0  0  0  0  0  0
  179.6400  178.5370  141.1510 C   0  0  0  0  0  1  0  0  0  0  0  0
  183.5120  178.9120  143.8360 C   0  0  2  0  0  3  0  0  0  0  0  0
  182.9350  178.1330  140.1310 C   0  0  1  0  0  0  0  0  0  0  0  0
  182.4030  178.9300  138.9470 C   0  0  0  0  0  2  0  0  0  0  0  0
  184.4050  180.2070  138.7660 O   0  0  0  0  0  1  0  0  0  0  0  0
  183.1470  180.2140  138.7970 C   0  0  0  0  0  0  0  0  0  0  0  0
  182.4590  181.4130  138.6790 O   0  0  0  0  0  0  0  0  0  0  0  0
  188.4170  176.3180  147.3910 F   0  0  0  0  0  0  0  0  0  0  0  0
  189.6080  176.8890  146.9750 C   0  0  0  0  0  0  0  0  0  0  0  0
  190.6190  175.9500  147.0850 F   0  0  0  0  0  0  0  0  0  0  0  0
  189.8980  177.9610  147.7990 F   0  0  0  0  0  0  0  0  0  0  0  0
  191.0200  176.4800  143.4010 S   0  0  1  0  0  0  0  0  0  0  0  0
  191.9200  175.3900  143.9660 O   0  0  0  0  0  0  0  0  0  0  0  0
  190.5300  175.8330  141.8460 N   0  0  0  0  0  2  0  0  0  0  0  0
  189.4020  177.8190  140.9130 C   0  0  0  0  0  3  0  0  0  0  0  0
  189.0570  178.6050  139.8110 C   0  0  0  0  0  3  0  0  0  0  0  0
  190.6000  176.3050  139.4550 C   0  0  0  0  0  3  0  0  0  0  0  0
  190.2560  177.0860  138.3440 C   0  0  0  0  0  0  0  0  0  0  0  0
  189.4830  178.2400  138.5300 C   0  0  0  0  0  3  0  0  0  0  0  0
  190.1760  176.6640  140.7380 C   0  0  0  0  0  0  0  0  0  0  0  0
  190.6990  176.6910  136.9990 C   0  0  0  0  0  0  0  0  0  0  0  0
  190.1730  177.2180  135.9810 O   0  0  0  0  0  0  0  0  0  0  0  0
  191.6970  175.7220  136.8580 O   0  0  0  0  0  0  0  0  0  0  0  0
  192.9860  176.0460  136.4420 C   0  0  0  0  0  3  0  0  0  0  0  0
  193.7540  176.7450  137.2080 N   0  0  0  0  0  2  0  0  0  0  0  0
  1  6  1  6  0  0  0
  1  4  1  0  0  0  0
  2 31  1  6  0  0  0
  2  4  1  0  0  0  0
  3  5  1  1  0  0  0
  3  1  1  0  0  0  0
  4 28  1  1  0  0  0
  5  2  1  0  0  0  0
  6  4  1  0  0  0  0
  7  9  1  6  0  0  0
  7 21  1  0  0  0  0
  8  7  1  0  0  0  0
  9 17  1  0  0  0  0
 11 22  1  0  0  0  0
 12 15  1  0  0  0  0
 13 10  2  0  0  0  0
 13 18  1  0  0  0  0
 14 13  1  0  0  0  0
 15 19  1  0  0  0  0
 16  8  1  0  0  0  0
 16 14  1  0  0  0  0
 17  3  1  0  0  0  0
 17 12  1  0  0  0  0
 20 14  1  0  0  0  0
 21 18  1  0  0  0  0
 21 15  1  0  0  0  0
 22 16  1  0  0  0  0
 22  8  1  0  0  0  0
 23 22  1  0  0  0  0
 24 25  1  0  0  0  0
 25 23  1  0  0  0  0
 26 25  2  0  0  0  0
 28 29  1  0  0  0  0
 28 27  1  0  0  0  0
 28 30  1  0  0  0  0
 31 32  2  0  0  0  0
 33 31  1  0  0  0  0
 35 34  2  0  0  0  0
 36 39  2  0  0  0  0
 37 38  2  0  0  0  0
 37 36  1  0  0  0  0
 38 35  1  0  0  0  0
 39 34  1  0  0  0  0
 39 33  1  0  0  0  0
 40 37  1  0  0  0  0
 41 40  2  0  0  0  0
 42 40  1  0  0  0  0
 43 42  1  0  0  0  0
 43 44  2  0  0  0  0
M  END
>  <MODEL>
6

>  <REMARK>
 VINA RESULT:      -8.5      4.049      8.558
  Name = 
  10 active torsions:
  status: ('A' for Active; 'I' for Inactive)
    1  A    between atoms: C_2  and  S_28
    2  A    between atoms: O_4  and  C_11
    3  A    between atoms: O_4  and  C_19
    4  A    between atoms: C_11  and  C_32
    5  A    between atoms: C_13  and  C_26
    6  A    between atoms: C_15  and  C_25
    7  A    between atoms: S_28  and  N_35
    8  A    between atoms: C_29  and  C_30
    9  A    between atoms: C_29  and  C_44
   10  A    between atoms: N_35  and  C_39
                            x       y       z     vdW  Elec       q    Type
                         _______ _______ _______ _____ _____    ______ ____

>  <TORSDO>
F 10

$$$$
=
 OpenBabel11062415473D

 44 49  0  0  1  0  0  0  0  0999 V2000
  189.2500  178.5510  139.3180 C   0  0  1  0  0  3  0  0  0  0  0  0
  188.2830  176.6530  138.2110 C   0  0  1  0  0  3  0  0  0  0  0  0
  187.7790  178.3560  139.6120 C   0  0  1  0  0  3  0  0  0  0  0  0
  189.5280  177.5210  138.2650 C   0  0  1  0  0  0  0  0  0  0  0  0
  187.3640  177.0800  139.1840 O   0  0  0  0  0  0  0  0  0  0  0  0
  189.4320  178.9850  137.8740 C   0  0  0  0  0  2  0  0  0  0  0  0
  187.8090  178.0630  143.6980 C   0  0  1  0  0  3  0  0  0  0  0  0
  188.2730  177.1450  144.7960 C   0  0  2  0  0  3  0  0  0  0  0  0
  188.2850  177.2830  142.1190 S   0  0  0  0  0  0  0  0  0  0  0  0
  185.1830  178.3920  147.3470 O   0  0  0  0  0  0  0  0  0  0  0  0
  190.5720  178.0020  144.7270 O   0  0  0  0  0  1  0  0  0  0  0  0
  185.9910  178.5300  141.3380 C   0  0  0  0  0  2  0  0  0  0  0  0
  186.0810  178.2350  146.4790 C   0  0  0  0  0  0  0  0  0  0  0  0
  187.3960  177.5970  146.8890 C   0  0  1  0  0  3  0  0  0  0  0  0
  185.6750  179.0550  142.7280 C   0  0  1  0  0  3  0  0  0  0  0  0
  188.4580  178.1130  145.9540 C   0  0  1  0  0  3  0  0  0  0  0  0
  187.4870  178.5610  141.0960 C   0  0  2  0  0  3  0  0  0  0  0  0
  185.8280  178.7170  145.1390 N   0  0  0  0  0  2  0  0  0  0  0  0
  184.2870  179.1320  142.8740 O   0  0  0  0  0  1  0  0  0  0  0  0
  187.7710  177.9760  148.3120 C   0  0  0  0  0  1  0  0  0  0  0  0
  186.2680  178.1750  143.8350 C   0  0  2  0  0  3  0  0  0  0  0  0
  189.6220  177.2840  145.4550 C   0  0  1  0  0  0  0  0  0  0  0  0
  190.1030  176.1470  146.3460 C   0  0  0  0  0  2  0  0  0  0  0  0
  191.2150  177.5100  147.9530 O   0  0  0  0  0  1  0  0  0  0  0  0
  191.3030  176.5620  147.1300 C   0  0  0  0  0  0  0  0  0  0  0  0
  192.5120  175.8990  146.9650 O   0  0  0  0  0  0  0  0  0  0  0  0
  191.5270  176.6990  137.1990 F   0  0  0  0  0  0  0  0  0  0  0  0
  190.9030  176.8670  138.4240 C   0  0  0  0  0  0  0  0  0  0  0  0
  191.7030  177.6560  139.2310 F   0  0  0  0  0  0  0  0  0  0  0  0
  190.7490  175.6280  139.0170 F   0  0  0  0  0  0  0  0  0  0  0  0
  187.5130  176.6950  136.5760 S   0  0  1  0  0  0  0  0  0  0  0  0
  188.2620  175.6380  135.7790 O   0  0  0  0  0  0  0  0  0  0  0  0
  185.9450  175.9590  136.8500 N   0  0  0  0  0  2  0  0  0  0  0  0
  183.7010  176.5180  135.9890 C   0  0  0  0  0  3  0  0  0  0  0  0
  182.5350  177.2840  136.0640 C   0  0  0  0  0  3  0  0  0  0  0  0
  184.5900  177.6870  137.9110 C   0  0  0  0  0  3  0  0  0  0  0  0
  183.4250  178.4610  137.9930 C   0  0  0  0  0  0  0  0  0  0  0  0
  182.3970  178.2520  137.0630 C   0  0  0  0  0  3  0  0  0  0  0  0
  184.7350  176.7170  136.9140 C   0  0  0  0  0  0  0  0  0  0  0  0
  183.2910  179.4850  139.0400 C   0  0  0  0  0  0  0  0  0  0  0  0
  184.1100  180.4430  139.0940 O   0  0  0  0  0  0  0  0  0  0  0  0
  182.2590  179.3820  139.9770 O   0  0  0  0  0  0  0  0  0  0  0  0
  181.8840  178.1600  140.5290 C   0  0  0  0  0  3  0  0  0  0  0  0
  180.9030  178.1040  141.3660 N   0  0  0  0  0  2  0  0  0  0  0  0
  1  6  1  6  0  0  0
  1  3  1  0  0  0  0
  2 31  1  6  0  0  0
  2  4  1  0  0  0  0
  2  5  1  0  0  0  0
  3  5  1  1  0  0  0
  3 17  1  0  0  0  0
  4 28  1  6  0  0  0
  4  1  1  0  0  0  0
  6  4  1  0  0  0  0
  7  9  1  6  0  0  0
  7 21  1  0  0  0  0
  7  8  1  0  0  0  0
  8 22  1  0  0  0  0
  8 16  1  0  0  0  0
 11 22  1  0  0  0  0
 12 15  1  0  0  0  0
 13 14  1  0  0  0  0
 13 10  2  0  0  0  0
 14 20  1  0  0  0  0
 15 19  1  0  0  0  0
 15 21  1  0  0  0  0
 16 14  1  0  0  0  0
 17 12  1  0  0  0  0
 17  9  1  0  0  0  0
 18 13  1  0  0  0  0
 21 18  1  0  0  0  0
 22 16  1  0  0  0  0
 22 23  1  0  0  0  0
 23 25  1  0  0  0  0
 25 24  1  0  0  0  0
 26 25  2  0  0  0  0
 27 28  1  0  0  0  0
 28 30  1  0  0  0  0
 28 29  1  0  0  0  0
 31 33  1  0  0  0  0
 32 31  2  0  0  0  0
 33 39  1  0  0  0  0
 34 35  2  0  0  0  0
 34 39  1  0  0  0  0
 35 38  1  0  0  0  0
 36 37  1  0  0  0  0
 37 40  1  0  0  0  0
 38 37  2  0  0  0  0
 39 36  2  0  0  0  0
 40 41  2  0  0  0  0
 40 42  1  0  0  0  0
 42 43  1  0  0  0  0
 43 44  2  0  0  0  0
M  END
>  <MODEL>
7

>  <REMARK>
 VINA RESULT:      -8.5      2.150      3.804
  Name = 
  10 active torsions:
  status: ('A' for Active; 'I' for Inactive)
    1  A    between atoms: C_2  and  S_28
    2  A    between atoms: O_4  and  C_11
    3  A    between atoms: O_4  and  C_19
    4  A    between atoms: C_11  and  C_32
    5  A    between atoms: C_13  and  C_26
    6  A    between atoms: C_15  and  C_25
    7  A    between atoms: S_28  and  N_35
    8  A    between atoms: C_29  and  C_30
    9  A    between atoms: C_29  and  C_44
   10  A    between atoms: N_35  and  C_39
                            x       y       z     vdW  Elec       q    Type
                         _______ _______ _______ _____ _____    ______ ____

>  <TORSDO>
F 10

$$$$
=
 OpenBabel11062415473D

 44 49  0  0  1  0  0  0  0  0999 V2000
  184.9330  179.3490  140.2130 C   0  0  1  0  0  3  0  0  0  0  0  0
  183.4300  177.5290  139.7780 C   0  0  1  0  0  3  0  0  0  0  0  0
  184.0420  178.9980  141.3840 C   0  0  1  0  0  3  0  0  0  0  0  0
  184.4030  178.4840  139.1090 C   0  0  1  0  0  0  0  0  0  0  0  0
  183.4190  177.7550  141.1640 O   0  0  0  0  0  0  0  0  0  0  0  0
  184.1010  179.9710  139.1040 C   0  0  0  0  0  2  0  0  0  0  0  0
  186.8890  178.3080  144.2490 C   0  0  1  0  0  3  0  0  0  0  0  0
  188.0430  177.3900  144.5460 C   0  0  2  0  0  3  0  0  0  0  0  0
  186.2060  177.7960  142.6370 S   0  0  0  0  0  0  0  0  0  0  0  0
  187.4660  177.7610  148.6870 O   0  0  0  0  0  0  0  0  0  0  0  0
  189.5990  178.6740  143.1480 O   0  0  0  0  0  1  0  0  0  0  0  0
  183.9200  178.6530  143.8480 C   0  0  0  0  0  2  0  0  0  0  0  0
  187.5320  177.8670  147.4330 C   0  0  0  0  0  0  0  0  0  0  0  0
  188.8110  177.4540  146.7270 C   0  0  1  0  0  3  0  0  0  0  0  0
  184.6070  178.9660  145.1670 C   0  0  1  0  0  3  0  0  0  0  0  0
  188.9020  178.2550  145.4550 C   0  0  1  0  0  3  0  0  0  0  0  0
  184.8350  178.9930  142.6880 C   0  0  2  0  0  3  0  0  0  0  0  0
  186.3950  178.4230  146.7340 N   0  0  0  0  0  2  0  0  0  0  0  0
  183.6970  178.7600  146.2070 O   0  0  0  0  0  1  0  0  0  0  0  0
  190.0320  177.7530  147.5820 C   0  0  0  0  0  1  0  0  0  0  0  0
  185.8590  178.1090  145.3920 C   0  0  2  0  0  3  0  0  0  0  0  0
  189.4620  177.7170  144.1560 C   0  0  1  0  0  0  0  0  0  0  0  0
  190.5030  176.6100  144.2470 C   0  0  0  0  0  2  0  0  0  0  0  0
  190.6670  175.6280  142.0830 O   0  0  0  0  0  0  0  0  0  0  0  0
  191.1750  176.4070  142.9300 C   0  0  0  0  0  0  0  0  0  0  0  0
  192.3500  177.0830  142.6320 O   0  0  0  0  0  1  0  0  0  0  0  0
  185.7450  178.7680  137.1270 F   0  0  0  0  0  0  0  0  0  0  0  0
  185.5090  177.9320  138.2060 C   0  0  0  0  0  0  0  0  0  0  0  0
  186.6790  177.7960  138.9330 F   0  0  0  0  0  0  0  0  0  0  0  0
  185.1280  176.6910  137.7310 F   0  0  0  0  0  0  0  0  0  0  0  0
  181.7590  177.7080  139.1120 S   0  0  1  0  0  0  0  0  0  0  0  0
  181.1340  176.3320  139.2840 O   0  0  0  0  0  0  0  0  0  0  0  0
  180.9430  178.6770  140.3250 N   0  0  0  0  0  2  0  0  0  0  0  0
  179.5060  180.5830  140.9500 C   0  0  0  0  0  3  0  0  0  0  0  0
  178.9340  181.8180  140.6350 C   0  0  0  0  0  3  0  0  0  0  0  0
  180.6290  180.5590  138.8070 C   0  0  0  0  0  3  0  0  0  0  0  0
  180.0570  181.7960  138.4810 C   0  0  0  0  0  0  0  0  0  0  0  0
  179.2080  182.4230  139.4050 C   0  0  0  0  0  3  0  0  0  0  0  0
  180.3570  179.9480  140.0350 C   0  0  0  0  0  0  0  0  0  0  0  0
  180.3430  182.4220  137.1820 C   0  0  0  0  0  0  0  0  0  0  0  0
  180.8530  181.7400  136.2510 O   0  0  0  0  0  0  0  0  0  0  0  0
  180.0550  183.7770  136.9910 O   0  0  0  0  0  0  0  0  0  0  0  0
  181.0560  184.7430  136.9450 C   0  0  0  0  0  3  0  0  0  0  0  0
  182.1630  184.5570  137.5810 N   0  0  0  0  0  2  0  0  0  0  0  0
  1  6  1  6  0  0  0
  1  3  1  0  0  0  0
  2 31  1  6  0  0  0
  2  5  1  0  0  0  0
  3  5  1  6  0  0  0
  3 17  1  0  0  0  0
  4 28  1  6  0  0  0
  4  2  1  0  0  0  0
  4  1  1  0  0  0  0
  6  4  1  0  0  0  0
  7  9  1  6  0  0  0
  7  8  1  0  0  0  0
  7 21  1  0  0  0  0
  8 16  1  0  0  0  0
  9 17  1  0  0  0  0
 11 22  1  0  0  0  0
 12 15  1  0  0  0  0
 13 10  2  0  0  0  0
 14 13  1  0  0  0  0
 14 20  1  0  0  0  0
 15 21  1  0  0  0  0
 15 19  1  0  0  0  0
 16 14  1  0  0  0  0
 17 12  1  0  0  0  0
 18 13  1  0  0  0  0
 21 18  1  0  0  0  0
 22 23  1  0  0  0  0
 22  8  1  0  0  0  0
 22 16  1  0  0  0  0
 24 25  2  0  0  0  0
 25 23  1  0  0  0  0
 26 25  1  0  0  0  0
 27 28  1  0  0  0  0
 28 29  1  0  0  0  0
 30 28  1  0  0  0  0
 31 32  2  0  0  0  0
 31 33  1  0  0  0  0
 35 34  1  0  0  0  0
 36 39  1  0  0  0  0
 37 36  2  0  0  0  0
 37 38  1  0  0  0  0
 38 35  2  0  0  0  0
 39 33  1  0  0  0  0
 39 34  2  0  0  0  0
 40 37  1  0  0  0  0
 41 40  2  0  0  0  0
 42 40  1  0  0  0  0
 43 42  1  0  0  0  0
 43 44  2  0  0  0  0
M  END
>  <MODEL>
8

>  <REMARK>
 VINA RESULT:      -8.3      3.604      5.874
  Name = 
  10 active torsions:
  status: ('A' for Active; 'I' for Inactive)
    1  A    between atoms: C_2  and  S_28
    2  A    between atoms: O_4  and  C_11
    3  A    between atoms: O_4  and  C_19
    4  A    between atoms: C_11  and  C_32
    5  A    between atoms: C_13  and  C_26
    6  A    between atoms: C_15  and  C_25
    7  A    between atoms: S_28  and  N_35
    8  A    between atoms: C_29  and  C_30
    9  A    between atoms: C_29  and  C_44
   10  A    between atoms: N_35  and  C_39
                            x       y       z     vdW  Elec       q    Type
                         _______ _______ _______ _____ _____    ______ ____

>  <TORSDO>
F 10

$$$$
=
 OpenBabel11062415473D

 44 49  0  0  1  0  0  0  0  0999 V2000
  184.9430  179.4570  142.5160 C   0  0  1  0  0  3  0  0  0  0  0  0
  185.3210  178.0510  144.4250 C   0  0  1  0  0  3  0  0  0  0  0  0
  186.2780  178.7450  142.4960 C   0  0  1  0  0  3  0  0  0  0  0  0
  184.3960  179.1200  143.8710 C   0  0  1  0  0  0  0  0  0  0  0  0
  186.2990  177.7280  143.4690 O   0  0  0  0  0  0  0  0  0  0  0  0
  184.9400  180.5120  143.6090 C   0  0  0  0  0  2  0  0  0  0  0  0
  188.1770  177.5290  139.0750 C   0  0  1  0  0  3  0  0  0  0  0  0
  189.4870  177.6840  138.3540 C   0  0  2  0  0  3  0  0  0  0  0  0
  188.2970  178.5100  140.6090 S   0  0  0  0  0  0  0  0  0  0  0  0
  187.6600  177.1590  134.6120 O   0  0  0  0  0  0  0  0  0  0  0  0
  190.5940  175.9670  139.7140 O   0  0  0  0  0  1  0  0  0  0  0  0
  185.6370  178.8020  140.0890 C   0  0  0  0  0  2  0  0  0  0  0  0
  188.0210  177.1880  135.8190 C   0  0  0  0  0  0  0  0  0  0  0  0
  189.4860  176.9720  136.1530 C   0  0  1  0  0  3  0  0  0  0  0  0
  185.6960  178.0240  138.7850 C   0  0  1  0  0  3  0  0  0  0  0  0
  189.5510  176.3990  137.5440 C   0  0  1  0  0  3  0  0  0  0  0  0
  186.5760  178.1860  141.1080 C   0  0  2  0  0  3  0  0  0  0  0  0
  187.0060  177.3810  136.8310 N   0  0  0  0  0  2  0  0  0  0  0  0
  184.7330  178.5370  137.9130 O   0  0  0  0  0  1  0  0  0  0  0  0
  190.1300  175.9900  135.1890 C   0  0  0  0  0  1  0  0  0  0  0  0
  187.0810  178.0860  138.1290 C   0  0  2  0  0  3  0  0  0  0  0  0
  190.6370  176.7280  138.5450 C   0  0  1  0  0  0  0  0  0  0  0  0
  191.9990  177.1280  137.9920 C   0  0  0  0  0  2  0  0  0  0  0  0
  194.0000  176.0620  138.7240 O   0  0  0  0  0  1  0  0  0  0  0  0
  192.9470  175.9760  138.0410 C   0  0  0  0  0  0  0  0  0  0  0  0
  192.6660  174.8080  137.3460 O   0  0  0  0  0  0  0  0  0  0  0  0
  182.4680  178.2070  144.9930 F   0  0  0  0  0  0  0  0  0  0  0  0
  182.8840  178.8820  143.8570 C   0  0  0  0  0  0  0  0  0  0  0  0
  182.2220  180.0950  143.7870 F   0  0  0  0  0  0  0  0  0  0  0  0
  182.5550  178.1260  142.7470 F   0  0  0  0  0  0  0  0  0  0  0  0
  186.1130  178.5870  145.9590 S   0  0  1  0  0  0  0  0  0  0  0  0
  184.9800  178.6280  146.9740 O   0  0  0  0  0  0  0  0  0  0  0  0
  187.0410  177.1800  146.4460 N   0  0  0  0  0  2  0  0  0  0  0  0
  189.1880  176.7490  147.5830 C   0  0  0  0  0  3  0  0  0  0  0  0
  190.5850  176.7530  147.5680 C   0  0  0  0  0  3  0  0  0  0  0  0
  189.1620  177.5730  145.3090 C   0  0  0  0  0  3  0  0  0  0  0  0
  190.5620  177.5840  145.2850 C   0  0  0  0  0  0  0  0  0  0  0  0
  191.2700  177.1690  146.4220 C   0  0  0  0  0  3  0  0  0  0  0  0
  188.4700  177.1590  146.4520 C   0  0  0  0  0  0  0  0  0  0  0  0
  191.2770  178.0310  144.0810 C   0  0  0  0  0  0  0  0  0  0  0  0
  191.6290  179.2380  143.9680 O   0  0  0  0  0  0  0  0  0  0  0  0
  191.5520  177.1150  143.0610 O   0  0  0  0  0  0  0  0  0  0  0  0
  191.3120  175.7520  143.2110 C   0  0  0  0  0  3  0  0  0  0  0  0
  190.1810  175.2520  142.8440 N   0  0  0  0  0  2  0  0  0  0  0  0
  1  6  1  1  0  0  0
  1  4  1  0  0  0  0
  2 31  1  1  0  0  0
  3  1  1  0  0  0  0
  3  5  1  1  0  0  0
  4 28  1  1  0  0  0
  4  2  1  0  0  0  0
  5  2  1  0  0  0  0
  6  4  1  0  0  0  0
  7  9  1  1  0  0  0
  8 22  1  0  0  0  0
  8  7  1  0  0  0  0
  9 17  1  0  0  0  0
 10 13  2  0  0  0  0
 12 17  1  0  0  0  0
 13 14  1  0  0  0  0
 13 18  1  0  0  0  0
 14 16  1  0  0  0  0
 15 12  1  0  0  0  0
 16  8  1  0  0  0  0
 16 22  1  0  0  0  0
 17  3  1  0  0  0  0
 18 21  1  0  0  0  0
 19 15  1  0  0  0  0
 20 14  1  0  0  0  0
 21 15  1  0  0  0  0
 21  7  1  0  0  0  0
 22 11  1  0  0  0  0
 23 25  1  0  0  0  0
 23 22  1  0  0  0  0
 25 24  1  0  0  0  0
 26 25  2  0  0  0  0
 28 27  1  0  0  0  0
 29 28  1  0  0  0  0
 30 28  1  0  0  0  0
 31 33  1  0  0  0  0
 31 32  2  0  0  0  0
 33 39  1  0  0  0  0
 35 34  1  0  0  0  0
 36 39  1  0  0  0  0
 37 36  2  0  0  0  0
 37 38  1  0  0  0  0
 38 35  2  0  0  0  0
 39 34  2  0  0  0  0
 40 37  1  0  0  0  0
 41 40  2  0  0  0  0
 42 43  1  0  0  0  0
 42 40  1  0  0  0  0
 44 43  2  0  0  0  0
M  END
>  <MODEL>
9

>  <REMARK>
 VINA RESULT:      -8.2      3.753      9.319
  Name = 
  10 active torsions:
  status: ('A' for Active; 'I' for Inactive)
    1  A    between atoms: C_2  and  S_28
    2  A    between atoms: O_4  and  C_11
    3  A    between atoms: O_4  and  C_19
    4  A    between atoms: C_11  and  C_32
    5  A    between atoms: C_13  and  C_26
    6  A    between atoms: C_15  and  C_25
    7  A    between atoms: S_28  and  N_35
    8  A    between atoms: C_29  and  C_30
    9  A    between atoms: C_29  and  C_44
   10  A    between atoms: N_35  and  C_39
                            x       y       z     vdW  Elec       q    Type
                         _______ _______ _______ _____ _____    ______ ____

>  <TORSDO>
F 10

$$$$
