=
 OpenBabel11062413303D

 28 30  0  0  1  0  0  0  0  0999 V2000
  186.3070  177.9930  142.2020 N   0  0  0  0  0  0  0  0  0  0  0  0
  186.6820  177.5810  144.5400 C   0  0  0  0  0  0  0  0  0  0  0  0
  183.4780  179.3490  144.3150 C   0  0  0  0  0  3  0  0  0  0  0  0
  184.7080  178.7290  143.7840 C   0  0  0  0  0  0  0  0  0  0  0  0
  187.4650  177.0550  145.6960 C   0  0  0  0  0  1  0  0  0  0  0  0
  185.6240  179.3920  146.8940 N   0  0  0  0  0  1  0  0  0  0  0  0
  185.1220  178.6130  142.4600 C   0  0  0  0  0  0  0  0  0  0  0  0
  183.5310  179.1600  145.7730 N   0  0  0  0  0  0  0  0  0  0  0  0
  185.4690  178.2370  144.7910 C   0  0  0  0  0  0  0  0  0  0  0  0
  184.8060  178.4980  146.0910 C   0  0  1  0  0  3  0  0  0  0  0  0
  187.1010  177.4540  143.1820 C   0  0  0  0  0  0  0  0  0  0  0  0
  191.1410  177.4060  140.3560 C   0  0  0  0  0  2  0  0  0  0  0  0
  188.5140  176.8120  141.2070 C   0  0  0  0  0  2  0  0  0  0  0  0
  190.5470  178.3820  142.7280 C   0  0  0  0  0  2  0  0  0  0  0  0
  189.6360  177.4180  143.4950 C   0  0  0  0  0  2  0  0  0  0  0  0
  189.9180  178.1620  139.7980 C   0  0  0  0  0  2  0  0  0  0  0  0
  192.4990  177.1710  142.2600 O   0  0  0  0  0  0  0  0  0  0  0  0
  188.3900  175.4720  143.1230 O   0  0  0  0  0  1  0  0  0  0  0  0
  188.7350  178.1470  140.6640 N   0  0  0  0  0  2  0  0  0  0  0  0
  188.4190  176.8160  142.7440 C   0  0  1  0  0  0  0  0  0  0  0  0
  191.4650  177.6370  141.8090 C   0  0  0  0  0  0  0  0  0  0  0  0
  184.3220  179.1900  141.3400 C   0  0  0  0  0  2  0  0  0  0  0  0
  183.8980  177.4440  139.7850 O   0  0  0  0  0  0  0  0  0  0  0  0
  185.4160  177.0570  137.4550 C   0  0  0  0  0  1  0  0  0  0  0  0
  186.0910  178.2660  138.0070 C   0  0  0  0  0  0  0  0  0  0  0  0
  185.6730  178.8790  139.2330 N   0  0  0  0  0  2  0  0  0  0  0  0
  184.5960  178.4510  140.0770 C   0  0  0  0  0  0  0  0  0  0  0  0
  187.0600  178.7600  137.3750 O   0  0  0  0  0  0  0  0  0  0  0  0
  1  7  2  0  0  0  0
  1 11  1  0  0  0  0
  2  9  1  0  0  0  0
  2  5  1  0  0  0  0
  3  8  2  0  0  0  0
  4  3  1  0  0  0  0
  4  9  2  0  0  0  0
  7  4  1  0  0  0  0
  8 10  1  0  0  0  0
  9 10  1  0  0  0  0
 10  6  1  1  0  0  0
 11  2  2  0  0  0  0
 12 21  1  0  0  0  0
 13 20  1  0  0  0  0
 14 15  1  0  0  0  0
 16 12  1  0  0  0  0
 16 19  1  0  0  0  0
 19 13  1  0  0  0  0
 20 18  1  1  0  0  0
 20 11  1  0  0  0  0
 20 15  1  0  0  0  0
 21 17  2  0  0  0  0
 21 14  1  0  0  0  0
 22  7  1  0  0  0  0
 23 27  2  0  0  0  0
 24 25  1  0  0  0  0
 25 26  1  0  0  0  0
 26 27  1  0  0  0  0
 27 22  1  0  0  0  0
 28 25  2  0  0  0  0
M  END
>  <MODEL>
1

>  <REMARK>
 VINA RESULT:      -8.4      0.000      0.000
  Name = 
  3 active torsions:
  status: ('A' for Active; 'I' for Inactive)
    1  A    between atoms: C_11  and  C_17
    2  A    between atoms: C_17  and  C_25
    3  A    between atoms: C_22  and  C_27
                            x       y       z     vdW  Elec       q    Type
                         _______ _______ _______ _____ _____    ______ ____

>  <TORSDO>
F 3

$$$$
=
 OpenBabel11062413303D

 28 30  0  0  1  0  0  0  0  0999 V2000
  188.7240  178.3980  142.2910 N   0  0  0  0  0  0  0  0  0  0  0  0
  190.7510  177.6030  141.2730 C   0  0  0  0  0  0  0  0  0  0  0  0
  188.2070  177.5880  138.6330 C   0  0  0  0  0  3  0  0  0  0  0  0
  188.7190  177.8030  140.0010 C   0  0  0  0  0  0  0  0  0  0  0  0
  192.1940  177.2240  141.2850 C   0  0  0  0  0  1  0  0  0  0  0  0
  190.8950  175.5930  138.8480 N   0  0  0  0  0  1  0  0  0  0  0  0
  188.0410  178.2770  141.1200 C   0  0  0  0  0  0  0  0  0  0  0  0
  189.3530  177.1120  137.8450 N   0  0  0  0  0  0  0  0  0  0  0  0
  190.0290  177.4680  140.0790 C   0  0  0  0  0  0  0  0  0  0  0  0
  190.5010  176.9890  138.7580 C   0  0  1  0  0  3  0  0  0  0  0  0
  190.0560  178.0980  142.4170 C   0  0  0  0  0  0  0  0  0  0  0  0
  190.1840  177.0520  147.2340 C   0  0  0  0  0  2  0  0  0  0  0  0
  189.5780  178.4540  144.8560 C   0  0  0  0  0  2  0  0  0  0  0  0
  191.2980  176.0240  145.0820 C   0  0  0  0  0  2  0  0  0  0  0  0
  191.7110  177.1310  144.1070 C   0  0  0  0  0  2  0  0  0  0  0  0
  188.8180  176.9050  146.5320 C   0  0  0  0  0  2  0  0  0  0  0  0
  192.4540  176.4690  147.0710 O   0  0  0  0  0  0  0  0  0  0  0  0
  191.4260  179.4350  143.8070 O   0  0  0  0  0  1  0  0  0  0  0  0
  188.8200  177.2320  145.1030 N   0  0  0  0  0  2  0  0  0  0  0  0
  190.6820  178.2530  143.8030 C   0  0  1  0  0  0  0  0  0  0  0  0
  191.3770  176.4990  146.4990 C   0  0  0  0  0  0  0  0  0  0  0  0
  186.5860  178.6080  141.0670 C   0  0  0  0  0  2  0  0  0  0  0  0
  186.3830  177.5590  143.1890 O   0  0  0  0  0  0  0  0  0  0  0  0
  184.5000  178.3430  145.1190 C   0  0  0  0  0  1  0  0  0  0  0  0
  184.1980  179.3320  144.0450 C   0  0  0  0  0  0  0  0  0  0  0  0
  184.9130  179.3490  142.8030 N   0  0  0  0  0  2  0  0  0  0  0  0
  185.9760  178.4680  142.4180 C   0  0  0  0  0  0  0  0  0  0  0  0
  183.2850  180.1740  144.2370 O   0  0  0  0  0  0  0  0  0  0  0  0
  1 11  1  0  0  0  0
  2  5  1  0  0  0  0
  2 11  2  0  0  0  0
  3  4  1  0  0  0  0
  4  9  2  0  0  0  0
  4  7  1  0  0  0  0
  7  1  2  0  0  0  0
  8  3  2  0  0  0  0
  8 10  1  0  0  0  0
  9  2  1  0  0  0  0
 10  6  1  1  0  0  0
 10  9  1  0  0  0  0
 11 20  1  0  0  0  0
 13 19  1  0  0  0  0
 14 21  1  0  0  0  0
 15 14  1  0  0  0  0
 16 12  1  0  0  0  0
 19 16  1  0  0  0  0
 20 18  1  6  0  0  0
 20 15  1  0  0  0  0
 20 13  1  0  0  0  0
 21 17  2  0  0  0  0
 21 12  1  0  0  0  0
 22  7  1  0  0  0  0
 22 27  1  0  0  0  0
 25 28  2  0  0  0  0
 25 24  1  0  0  0  0
 26 25  1  0  0  0  0
 27 26  1  0  0  0  0
 27 23  2  0  0  0  0
M  END
>  <MODEL>
2

>  <REMARK>
 VINA RESULT:      -8.1      2.510      5.872
  Name = 
  3 active torsions:
  status: ('A' for Active; 'I' for Inactive)
    1  A    between atoms: C_11  and  C_17
    2  A    between atoms: C_17  and  C_25
    3  A    between atoms: C_22  and  C_27
                            x       y       z     vdW  Elec       q    Type
                         _______ _______ _______ _____ _____    ______ ____

>  <TORSDO>
F 3

$$$$
=
 OpenBabel11062413303D

 28 30  0  0  1  0  0  0  0  0999 V2000
  187.2300  177.5150  143.6240 N   0  0  0  0  0  0  0  0  0  0  0  0
  188.8830  177.0840  145.3160 C   0  0  0  0  0  0  0  0  0  0  0  0
  186.0030  178.5480  147.0500 C   0  0  0  0  0  3  0  0  0  0  0  0
  186.7570  178.0600  145.8780 C   0  0  0  0  0  0  0  0  0  0  0  0
  190.2130  176.6070  145.7950 C   0  0  0  0  0  1  0  0  0  0  0  0
  189.2200  178.7320  147.9830 N   0  0  0  0  0  1  0  0  0  0  0  0
  186.3600  178.0150  144.5450 C   0  0  0  0  0  0  0  0  0  0  0  0
  186.8790  178.3310  148.2110 N   0  0  0  0  0  0  0  0  0  0  0  0
  187.9830  177.6170  146.2490 C   0  0  0  0  0  0  0  0  0  0  0  0
  188.1520  177.7840  147.7120 C   0  0  1  0  0  3  0  0  0  0  0  0
  188.4710  177.0310  143.9500 C   0  0  0  0  0  0  0  0  0  0  0  0
  190.5100  177.6220  139.5000 C   0  0  0  0  0  2  0  0  0  0  0  0
  188.6530  176.7850  141.4580 C   0  0  0  0  0  2  0  0  0  0  0  0
  191.2510  178.1640  141.9680 C   0  0  0  0  0  2  0  0  0  0  0  0
  190.8090  177.0490  142.9210 C   0  0  0  0  0  2  0  0  0  0  0  0
  189.2110  178.4080  139.7740 C   0  0  0  0  0  2  0  0  0  0  0  0
  192.6320  177.1310  140.3810 O   0  0  0  0  0  0  0  0  0  0  0  0
  189.4530  175.1410  142.9200 O   0  0  0  0  0  1  0  0  0  0  0  0
  188.6330  178.1990  141.1050 N   0  0  0  0  0  2  0  0  0  0  0  0
  189.3510  176.5300  142.8060 C   0  0  1  0  0  0  0  0  0  0  0  0
  191.5370  177.6220  140.6020 C   0  0  0  0  0  0  0  0  0  0  0  0
  185.0330  178.5400  144.1090 C   0  0  0  0  0  2  0  0  0  0  0  0
  185.7330  179.6770  142.1440 O   0  0  0  0  0  0  0  0  0  0  0  0
  184.7660  179.0590  139.5820 C   0  0  0  0  0  1  0  0  0  0  0  0
  184.0280  178.0460  140.3890 C   0  0  0  0  0  0  0  0  0  0  0  0
  184.1810  177.9460  141.8110 N   0  0  0  0  0  2  0  0  0  0  0  0
  185.0240  178.7600  142.6360 C   0  0  0  0  0  0  0  0  0  0  0  0
  183.2460  177.2560  139.8010 O   0  0  0  0  0  0  0  0  0  0  0  0
  1 11  2  0  0  0  0
  1  7  1  0  0  0  0
  2  5  1  0  0  0  0
  2  9  2  0  0  0  0
  3  8  2  0  0  0  0
  4  9  1  0  0  0  0
  4  3  1  0  0  0  0
  7  4  2  0  0  0  0
  9 10  1  0  0  0  0
 10  6  1  6  0  0  0
 10  8  1  0  0  0  0
 11  2  1  0  0  0  0
 12 16  1  0  0  0  0
 12 21  1  0  0  0  0
 13 20  1  0  0  0  0
 14 15  1  0  0  0  0
 16 19  1  0  0  0  0
 17 21  2  0  0  0  0
 19 13  1  0  0  0  0
 20 18  1  1  0  0  0
 20 15  1  0  0  0  0
 20 11  1  0  0  0  0
 21 14  1  0  0  0  0
 22  7  1  0  0  0  0
 23 27  2  0  0  0  0
 24 25  1  0  0  0  0
 25 26  1  0  0  0  0
 26 27  1  0  0  0  0
 27 22  1  0  0  0  0
 28 25  2  0  0  0  0
M  END
>  <MODEL>
3

>  <REMARK>
 VINA RESULT:      -7.9      1.840      2.656
  Name = 
  3 active torsions:
  status: ('A' for Active; 'I' for Inactive)
    1  A    between atoms: C_11  and  C_17
    2  A    between atoms: C_17  and  C_25
    3  A    between atoms: C_22  and  C_27
                            x       y       z     vdW  Elec       q    Type
                         _______ _______ _______ _____ _____    ______ ____

>  <TORSDO>
F 3

$$$$
=
 OpenBabel11062413303D

 28 30  0  0  1  0  0  0  0  0999 V2000
  186.3290  177.9670  142.2490 N   0  0  0  0  0  0  0  0  0  0  0  0
  186.6590  177.5710  144.5960 C   0  0  0  0  0  0  0  0  0  0  0  0
  183.4660  179.3480  144.2980 C   0  0  0  0  0  3  0  0  0  0  0  0
  184.7030  178.7200  143.7950 C   0  0  0  0  0  0  0  0  0  0  0  0
  187.4190  177.0510  145.7710 C   0  0  0  0  0  1  0  0  0  0  0  0
  185.5630  179.4030  146.9170 N   0  0  0  0  0  1  0  0  0  0  0  0
  185.1420  178.5930  142.4800 C   0  0  0  0  0  0  0  0  0  0  0  0
  183.4900  179.1690  145.7580 N   0  0  0  0  0  0  0  0  0  0  0  0
  185.4440  178.2330  144.8200 C   0  0  0  0  0  0  0  0  0  0  0  0
  184.7570  178.5060  146.1050 C   0  0  1  0  0  3  0  0  0  0  0  0
  187.1040  177.4330  143.2470 C   0  0  0  0  0  0  0  0  0  0  0  0
  191.2040  177.3610  140.5110 C   0  0  0  0  0  2  0  0  0  0  0  0
  188.5550  176.7810  141.3050 C   0  0  0  0  0  2  0  0  0  0  0  0
  190.5630  178.3420  142.8680 C   0  0  0  0  0  2  0  0  0  0  0  0
  189.6310  177.3840  143.6160 C   0  0  0  0  0  2  0  0  0  0  0  0
  189.9970  178.1220  139.9250 C   0  0  0  0  0  2  0  0  0  0  0  0
  192.5180  177.1210  142.4440 O   0  0  0  0  0  0  0  0  0  0  0  0
  188.3830  175.4440  143.2190 O   0  0  0  0  0  1  0  0  0  0  0  0
  188.7960  178.1140  140.7650 N   0  0  0  0  0  2  0  0  0  0  0  0
  188.4270  176.7880  142.8390 C   0  0  1  0  0  0  0  0  0  0  0  0
  191.4970  177.5920  141.9700 C   0  0  0  0  0  0  0  0  0  0  0  0
  184.3650  179.1640  141.3410 C   0  0  0  0  0  2  0  0  0  0  0  0
  183.5360  177.1440  140.4050 O   0  0  0  0  0  0  0  0  0  0  0  0
  180.7990  176.5570  140.1920 C   0  0  0  0  0  1  0  0  0  0  0  0
  180.7270  177.8900  140.8560 C   0  0  0  0  0  0  0  0  0  0  0  0
  181.9030  178.6380  141.1920 N   0  0  0  0  0  2  0  0  0  0  0  0
  183.2610  178.2420  140.9570 C   0  0  0  0  0  0  0  0  0  0  0  0
  179.5980  178.3720  141.1260 O   0  0  0  0  0  0  0  0  0  0  0  0
  1  7  2  0  0  0  0
  1 11  1  0  0  0  0
  2  9  1  0  0  0  0
  2  5  1  0  0  0  0
  3  8  2  0  0  0  0
  4  3  1  0  0  0  0
  4  9  2  0  0  0  0
  7  4  1  0  0  0  0
  8 10  1  0  0  0  0
  9 10  1  0  0  0  0
 10  6  1  1  0  0  0
 11  2  2  0  0  0  0
 12 21  1  0  0  0  0
 13 20  1  0  0  0  0
 14 15  1  0  0  0  0
 16 12  1  0  0  0  0
 16 19  1  0  0  0  0
 19 13  1  0  0  0  0
 20 18  1  1  0  0  0
 20 11  1  0  0  0  0
 20 15  1  0  0  0  0
 21 17  2  0  0  0  0
 21 14  1  0  0  0  0
 22  7  1  0  0  0  0
 23 27  2  0  0  0  0
 24 25  1  0  0  0  0
 25 28  2  0  0  0  0
 25 26  1  0  0  0  0
 27 26  1  0  0  0  0
 27 22  1  0  0  0  0
M  END
>  <MODEL>
4

>  <REMARK>
 VINA RESULT:      -7.9      1.638      2.372
  Name = 
  3 active torsions:
  status: ('A' for Active; 'I' for Inactive)
    1  A    between atoms: C_11  and  C_17
    2  A    between atoms: C_17  and  C_25
    3  A    between atoms: C_22  and  C_27
                            x       y       z     vdW  Elec       q    Type
                         _______ _______ _______ _____ _____    ______ ____

>  <TORSDO>
F 3

$$$$
=
 OpenBabel11062413303D

 28 30  0  0  1  0  0  0  0  0999 V2000
  186.3770  178.2730  141.8620 N   0  0  0  0  0  0  0  0  0  0  0  0
  186.6580  177.8540  144.2120 C   0  0  0  0  0  0  0  0  0  0  0  0
  183.3040  179.2830  143.8220 C   0  0  0  0  0  3  0  0  0  0  0  0
  184.6210  178.8060  143.3560 C   0  0  0  0  0  0  0  0  0  0  0  0
  187.4240  177.3900  145.4050 C   0  0  0  0  0  1  0  0  0  0  0  0
  185.2810  179.4970  146.5240 N   0  0  0  0  0  1  0  0  0  0  0  0
  185.1210  178.7610  142.0580 C   0  0  0  0  0  0  0  0  0  0  0  0
  183.2920  179.0710  145.2780 N   0  0  0  0  0  0  0  0  0  0  0  0
  185.3700  178.3750  144.4000 C   0  0  0  0  0  0  0  0  0  0  0  0
  184.6090  178.5390  145.6610 C   0  0  1  0  0  3  0  0  0  0  0  0
  187.1660  177.8010  142.8790 C   0  0  0  0  0  0  0  0  0  0  0  0
  192.0480  177.7840  143.5700 C   0  0  0  0  0  2  0  0  0  0  0  0
  189.5430  178.5020  142.4770 C   0  0  0  0  0  2  0  0  0  0  0  0
  190.0400  176.3440  144.4790 C   0  0  0  0  0  2  0  0  0  0  0  0
  189.0070  176.1010  143.3750 C   0  0  0  0  0  2  0  0  0  0  0  0
  191.2890  179.0420  144.0400 C   0  0  0  0  0  2  0  0  0  0  0  0
  192.0480  175.4370  143.6800 O   0  0  0  0  0  0  0  0  0  0  0  0
  188.5200  176.8260  141.2030 O   0  0  0  0  0  1  0  0  0  0  0  0
  189.8410  179.0110  143.8100 N   0  0  0  0  0  2  0  0  0  0  0  0
  188.5660  177.3130  142.5120 C   0  0  1  0  0  0  0  0  0  0  0  0
  191.4200  176.4570  143.9100 C   0  0  0  0  0  0  0  0  0  0  0  0
  184.3300  179.2740  140.9010 C   0  0  0  0  0  2  0  0  0  0  0  0
  184.7220  178.0640  138.8940 O   0  0  0  0  0  0  0  0  0  0  0  0
  183.1820  175.8530  138.1050 C   0  0  0  0  0  1  0  0  0  0  0  0
  182.5250  176.1770  139.4040 C   0  0  0  0  0  0  0  0  0  0  0  0
  182.9590  177.2680  140.2260 N   0  0  0  0  0  2  0  0  0  0  0  0
  184.0380  178.1700  139.9460 C   0  0  0  0  0  0  0  0  0  0  0  0
  181.5570  175.4700  139.7850 O   0  0  0  0  0  0  0  0  0  0  0  0
  1  7  2  0  0  0  0
  1 11  1  0  0  0  0
  2  9  1  0  0  0  0
  2  5  1  0  0  0  0
  3  8  2  0  0  0  0
  4  3  1  0  0  0  0
  4  9  2  0  0  0  0
  7  4  1  0  0  0  0
  8 10  1  0  0  0  0
  9 10  1  0  0  0  0
 10  6  1  1  0  0  0
 11  2  2  0  0  0  0
 12 21  1  0  0  0  0
 12 16  1  0  0  0  0
 13 20  1  0  0  0  0
 13 19  1  0  0  0  0
 15 14  1  0  0  0  0
 17 21  2  0  0  0  0
 19 16  1  0  0  0  0
 20 18  1  6  0  0  0
 20 11  1  0  0  0  0
 20 15  1  0  0  0  0
 21 14  1  0  0  0  0
 22  7  1  0  0  0  0
 23 27  2  0  0  0  0
 24 25  1  0  0  0  0
 25 28  2  0  0  0  0
 25 26  1  0  0  0  0
 27 26  1  0  0  0  0
 27 22  1  0  0  0  0
M  END
>  <MODEL>
5

>  <REMARK>
 VINA RESULT:      -7.9      1.689      2.424
  Name = 
  3 active torsions:
  status: ('A' for Active; 'I' for Inactive)
    1  A    between atoms: C_11  and  C_17
    2  A    between atoms: C_17  and  C_25
    3  A    between atoms: C_22  and  C_27
                            x       y       z     vdW  Elec       q    Type
                         _______ _______ _______ _____ _____    ______ ____

>  <TORSDO>
F 3

$$$$
=
 OpenBabel11062413303D

 28 30  0  0  1  0  0  0  0  0999 V2000
  187.3790  178.2220  140.5250 N   0  0  0  0  0  0  0  0  0  0  0  0
  189.6680  177.4890  140.5290 C   0  0  0  0  0  0  0  0  0  0  0  0
  188.5650  177.4170  144.0240 C   0  0  0  0  0  3  0  0  0  0  0  0
  188.4120  177.6460  142.5750 C   0  0  0  0  0  0  0  0  0  0  0  0
  190.9670  177.1570  139.8740 C   0  0  0  0  0  1  0  0  0  0  0  0
  191.6950  177.8850  142.9110 N   0  0  0  0  0  1  0  0  0  0  0  0
  187.2900  178.0830  141.8760 C   0  0  0  0  0  0  0  0  0  0  0  0
  189.9390  176.9260  144.2100 N   0  0  0  0  0  0  0  0  0  0  0  0
  189.5660  177.3680  141.9210 C   0  0  0  0  0  0  0  0  0  0  0  0
  190.5970  176.9330  142.8940 C   0  0  1  0  0  3  0  0  0  0  0  0
  188.5140  177.9290  139.8130 C   0  0  0  0  0  0  0  0  0  0  0  0
  187.9480  176.2750  135.2030 C   0  0  0  0  0  2  0  0  0  0  0  0
  189.2610  177.0540  137.5810 C   0  0  0  0  0  2  0  0  0  0  0  0
  186.3380  177.2900  137.0210 C   0  0  0  0  0  2  0  0  0  0  0  0
  187.0340  178.4170  137.7900 C   0  0  0  0  0  2  0  0  0  0  0  0
  188.3990  175.2420  136.2560 C   0  0  0  0  0  2  0  0  0  0  0  0
  186.3580  177.9500  134.7720 O   0  0  0  0  0  0  0  0  0  0  0  0
  189.1680  179.3480  138.0380 O   0  0  0  0  0  1  0  0  0  0  0  0
  188.5630  175.7740  137.6120 N   0  0  0  0  0  2  0  0  0  0  0  0
  188.4760  178.1640  138.3040 C   0  0  1  0  0  0  0  0  0  0  0  0
  186.8400  177.2090  135.6130 C   0  0  0  0  0  0  0  0  0  0  0  0
  186.0240  178.4400  142.5820 C   0  0  0  0  0  2  0  0  0  0  0  0
  183.9640  177.6690  141.6830 O   0  0  0  0  0  0  0  0  0  0  0  0
  182.7300  178.8320  139.4460 C   0  0  0  0  0  1  0  0  0  0  0  0
  183.9290  179.7110  139.5660 C   0  0  0  0  0  0  0  0  0  0  0  0
  184.9110  179.5210  140.5930 N   0  0  0  0  0  2  0  0  0  0  0  0
  184.8970  178.5130  141.6120 C   0  0  0  0  0  0  0  0  0  0  0  0
  184.0810  180.6450  138.7390 O   0  0  0  0  0  0  0  0  0  0  0  0
  1  7  1  0  0  0  0
  2  9  2  0  0  0  0
  3  8  2  0  0  0  0
  4  3  1  0  0  0  0
  5  2  1  0  0  0  0
  7  4  2  0  0  0  0
  7 22  1  0  0  0  0
  9  4  1  0  0  0  0
  9 10  1  0  0  0  0
 10  6  1  1  0  0  0
 10  8  1  0  0  0  0
 11  1  2  0  0  0  0
 11  2  1  0  0  0  0
 12 21  1  0  0  0  0
 12 16  1  0  0  0  0
 13 19  1  0  0  0  0
 13 20  1  0  0  0  0
 14 15  1  0  0  0  0
 15 20  1  0  0  0  0
 16 19  1  0  0  0  0
 17 21  2  0  0  0  0
 20 18  1  6  0  0  0
 20 11  1  0  0  0  0
 21 14  1  0  0  0  0
 24 25  1  0  0  0  0
 25 26  1  0  0  0  0
 26 27  1  0  0  0  0
 27 23  2  0  0  0  0
 27 22  1  0  0  0  0
 28 25  2  0  0  0  0
M  END
>  <MODEL>
6

>  <REMARK>
 VINA RESULT:      -7.7      2.652      5.233
  Name = 
  3 active torsions:
  status: ('A' for Active; 'I' for Inactive)
    1  A    between atoms: C_11  and  C_17
    2  A    between atoms: C_17  and  C_25
    3  A    between atoms: C_22  and  C_27
                            x       y       z     vdW  Elec       q    Type
                         _______ _______ _______ _____ _____    ______ ____

>  <TORSDO>
F 3

$$$$
=
 OpenBabel11062413303D

 28 30  0  0  1  0  0  0  0  0999 V2000
  186.8160  177.7730  144.3270 N   0  0  0  0  0  0  0  0  0  0  0  0
  186.0280  178.4250  142.1520 C   0  0  0  0  0  0  0  0  0  0  0  0
  183.2420  179.0020  144.4640 C   0  0  0  0  0  3  0  0  0  0  0  0
  184.6070  178.5850  144.0860 C   0  0  0  0  0  0  0  0  0  0  0  0
  186.1760  178.6240  140.6810 C   0  0  0  0  0  1  0  0  0  0  0  0
  183.0280  178.2860  141.1930 N   0  0  0  0  0  1  0  0  0  0  0  0
  185.6240  178.0950  144.9000 C   0  0  0  0  0  0  0  0  0  0  0  0
  182.6060  179.4680  143.2220 N   0  0  0  0  0  0  0  0  0  0  0  0
  184.8010  178.7350  142.7530 C   0  0  0  0  0  0  0  0  0  0  0  0
  183.5660  179.2630  142.1260 C   0  0  1  0  0  3  0  0  0  0  0  0
  187.0730  177.9310  142.9890 C   0  0  0  0  0  0  0  0  0  0  0  0
  191.9910  177.9200  143.3360 C   0  0  0  0  0  2  0  0  0  0  0  0
  189.4110  178.6980  142.4880 C   0  0  0  0  0  2  0  0  0  0  0  0
  190.0630  176.3780  144.2500 C   0  0  0  0  0  2  0  0  0  0  0  0
  188.9570  176.2190  143.2020 C   0  0  0  0  0  2  0  0  0  0  0  0
  191.2580  179.1210  143.9690 C   0  0  0  0  0  2  0  0  0  0  0  0
  192.0170  175.5730  143.2360 O   0  0  0  0  0  0  0  0  0  0  0  0
  188.3140  177.1280  141.1430 O   0  0  0  0  0  1  0  0  0  0  0  0
  189.7980  179.0910  143.8380 N   0  0  0  0  0  2  0  0  0  0  0  0
  188.4480  177.4970  142.4830 C   0  0  1  0  0  0  0  0  0  0  0  0
  191.3990  176.5600  143.5990 C   0  0  0  0  0  0  0  0  0  0  0  0
  185.4150  177.8770  146.3620 C   0  0  0  0  0  2  0  0  0  0  0  0
  186.7850  179.2570  147.7280 O   0  0  0  0  0  0  0  0  0  0  0  0
  189.3870  178.5480  148.5090 C   0  0  0  0  0  1  0  0  0  0  0  0
  189.0160  177.3400  147.7190 C   0  0  0  0  0  0  0  0  0  0  0  0
  187.7370  177.2080  147.0840 N   0  0  0  0  0  2  0  0  0  0  0  0
  186.6700  178.1650  147.1100 C   0  0  0  0  0  0  0  0  0  0  0  0
  189.8540  176.4100  147.6050 O   0  0  0  0  0  0  0  0  0  0  0  0
  1  7  1  0  0  0  0
  2  9  2  0  0  0  0
  2 11  1  0  0  0  0
  4  3  1  0  0  0  0
  4  7  2  0  0  0  0
  5  2  1  0  0  0  0
  7 22  1  0  0  0  0
  8  3  2  0  0  0  0
  9  4  1  0  0  0  0
 10  6  1  6  0  0  0
 10  9  1  0  0  0  0
 10  8  1  0  0  0  0
 11  1  2  0  0  0  0
 12 21  1  0  0  0  0
 12 16  1  0  0  0  0
 13 19  1  0  0  0  0
 15 14  1  0  0  0  0
 17 21  2  0  0  0  0
 19 16  1  0  0  0  0
 20 18  1  6  0  0  0
 20 13  1  0  0  0  0
 20 11  1  0  0  0  0
 20 15  1  0  0  0  0
 21 14  1  0  0  0  0
 22 27  1  0  0  0  0
 25 24  1  0  0  0  0
 26 27  1  0  0  0  0
 26 25  1  0  0  0  0
 27 23  2  0  0  0  0
 28 25  2  0  0  0  0
M  END
>  <MODEL>
7

>  <REMARK>
 VINA RESULT:      -7.6      2.400      5.271
  Name = 
  3 active torsions:
  status: ('A' for Active; 'I' for Inactive)
    1  A    between atoms: C_11  and  C_17
    2  A    between atoms: C_17  and  C_25
    3  A    between atoms: C_22  and  C_27
                            x       y       z     vdW  Elec       q    Type
                         _______ _______ _______ _____ _____    ______ ____

>  <TORSDO>
F 3

$$$$
=
 OpenBabel11062413303D

 28 30  0  0  1  0  0  0  0  0999 V2000
  186.9830  177.9800  142.0660 N   0  0  0  0  0  0  0  0  0  0  0  0
  186.2950  177.6350  144.3430 C   0  0  0  0  0  0  0  0  0  0  0  0
  183.4180  179.1170  142.6200 C   0  0  0  0  0  3  0  0  0  0  0  0
  184.7960  178.5980  142.7260 C   0  0  0  0  0  0  0  0  0  0  0  0
  186.5100  177.1950  145.7530 C   0  0  0  0  0  1  0  0  0  0  0  0
  184.1670  179.3820  145.8790 N   0  0  0  0  0  1  0  0  0  0  0  0
  185.7680  178.4990  141.7350 C   0  0  0  0  0  0  0  0  0  0  0  0
  182.8230  178.9540  143.9550 N   0  0  0  0  0  0  0  0  0  0  0  0
  185.0560  178.1880  143.9920 C   0  0  0  0  0  0  0  0  0  0  0  0
  183.8630  178.4090  144.8430 C   0  0  1  0  0  3  0  0  0  0  0  0
  187.2880  177.5260  143.3240 C   0  0  0  0  0  0  0  0  0  0  0  0
  192.0470  178.2600  144.3800 C   0  0  0  0  0  2  0  0  0  0  0  0
  189.7210  177.8890  142.8200 C   0  0  0  0  0  2  0  0  0  0  0  0
  189.8920  177.7310  145.7970 C   0  0  0  0  0  2  0  0  0  0  0  0
  188.9910  176.7380  145.0570 C   0  0  0  0  0  2  0  0  0  0  0  0
  191.2850  179.4510  143.7650 C   0  0  0  0  0  2  0  0  0  0  0  0
  191.9460  176.6360  146.0760 O   0  0  0  0  0  0  0  0  0  0  0  0
  188.7950  175.7430  142.9470 O   0  0  0  0  0  1  0  0  0  0  0  0
  189.8750  179.1910  143.4580 N   0  0  0  0  0  2  0  0  0  0  0  0
  188.7030  176.9980  143.5540 C   0  0  1  0  0  0  0  0  0  0  0  0
  191.3330  177.4980  145.4660 C   0  0  0  0  0  0  0  0  0  0  0  0
  185.5180  178.9880  140.3480 C   0  0  0  0  0  2  0  0  0  0  0  0
  185.9570  177.6920  138.4050 O   0  0  0  0  0  0  0  0  0  0  0  0
  188.5420  176.9430  137.6070 C   0  0  0  0  0  1  0  0  0  0  0  0
  188.8670  177.7370  138.8270 C   0  0  0  0  0  0  0  0  0  0  0  0
  187.8500  178.3560  139.6260 N   0  0  0  0  0  2  0  0  0  0  0  0
  186.4370  178.3140  139.3900 C   0  0  0  0  0  0  0  0  0  0  0  0
  190.0720  177.8630  139.1640 O   0  0  0  0  0  0  0  0  0  0  0  0
  1 11  1  0  0  0  0
  2  5  1  0  0  0  0
  3  4  1  0  0  0  0
  3  8  2  0  0  0  0
  4  9  2  0  0  0  0
  7  1  2  0  0  0  0
  7  4  1  0  0  0  0
  8 10  1  0  0  0  0
  9  2  1  0  0  0  0
  9 10  1  0  0  0  0
 10  6  1  1  0  0  0
 11 20  1  0  0  0  0
 11  2  2  0  0  0  0
 12 21  1  0  0  0  0
 13 19  1  0  0  0  0
 13 20  1  0  0  0  0
 15 14  1  0  0  0  0
 16 12  1  0  0  0  0
 19 16  1  0  0  0  0
 20 18  1  6  0  0  0
 20 15  1  0  0  0  0
 21 14  1  0  0  0  0
 21 17  2  0  0  0  0
 22  7  1  0  0  0  0
 23 27  2  0  0  0  0
 24 25  1  0  0  0  0
 25 28  2  0  0  0  0
 25 26  1  0  0  0  0
 27 26  1  0  0  0  0
 27 22  1  0  0  0  0
M  END
>  <MODEL>
8

>  <REMARK>
 VINA RESULT:      -7.5      1.823      2.404
  Name = 
  3 active torsions:
  status: ('A' for Active; 'I' for Inactive)
    1  A    between atoms: C_11  and  C_17
    2  A    between atoms: C_17  and  C_25
    3  A    between atoms: C_22  and  C_27
                            x       y       z     vdW  Elec       q    Type
                         _______ _______ _______ _____ _____    ______ ____

>  <TORSDO>
F 3

$$$$
=
 OpenBabel11062413303D

 28 30  0  0  1  0  0  0  0  0999 V2000
  187.4450  178.3890  140.5150 N   0  0  0  0  0  0  0  0  0  0  0  0
  189.0480  177.0840  141.7410 C   0  0  0  0  0  0  0  0  0  0  0  0
  186.4310  178.0040  144.1380 C   0  0  0  0  0  3  0  0  0  0  0  0
  187.0900  177.9740  142.8170 C   0  0  0  0  0  0  0  0  0  0  0  0
  190.3070  176.2930  141.8750 C   0  0  0  0  0  1  0  0  0  0  0  0
  189.6570  177.3850  144.8200 N   0  0  0  0  0  1  0  0  0  0  0  0
  186.6690  178.5490  141.6220 C   0  0  0  0  0  0  0  0  0  0  0  0
  187.2870  177.2090  145.0320 N   0  0  0  0  0  0  0  0  0  0  0  0
  188.2480  177.2730  142.8760 C   0  0  0  0  0  0  0  0  0  0  0  0
  188.4620  176.7790  144.2570 C   0  0  1  0  0  3  0  0  0  0  0  0
  188.6110  177.6670  140.5140 C   0  0  0  0  0  0  0  0  0  0  0  0
  189.0500  176.2170  135.8220 C   0  0  0  0  0  2  0  0  0  0  0  0
  189.3380  176.1720  138.6320 C   0  0  0  0  0  2  0  0  0  0  0  0
  188.1180  178.3680  137.0200 C   0  0  0  0  0  2  0  0  0  0  0  0
  188.9900  178.7350  138.2250 C   0  0  0  0  0  2  0  0  0  0  0  0
  188.1170  175.3780  136.7190 C   0  0  0  0  0  2  0  0  0  0  0  0
  189.5480  178.4170  135.1640 O   0  0  0  0  0  0  0  0  0  0  0  0
  190.7390  177.8370  139.4950 O   0  0  0  0  0  1  0  0  0  0  0  0
  188.0190  175.8370  138.1080 N   0  0  0  0  0  2  0  0  0  0  0  0
  189.3930  177.6000  139.2030 C   0  0  1  0  0  0  0  0  0  0  0  0
  188.9310  177.7140  135.9470 C   0  0  0  0  0  0  0  0  0  0  0  0
  185.4210  179.3650  141.5470 C   0  0  0  0  0  2  0  0  0  0  0  0
  184.6200  179.7760  139.3480 O   0  0  0  0  0  0  0  0  0  0  0  0
  182.8770  178.0390  137.9970 C   0  0  0  0  0  1  0  0  0  0  0  0
  183.0540  177.2870  139.2720 C   0  0  0  0  0  0  0  0  0  0  0  0
  183.8840  177.7750  140.3340 N   0  0  0  0  0  2  0  0  0  0  0  0
  184.6360  178.9950  140.3370 C   0  0  0  0  0  0  0  0  0  0  0  0
  182.4540  176.1920  139.4180 O   0  0  0  0  0  0  0  0  0  0  0  0
  1  7  1  0  0  0  0
  2  5  1  0  0  0  0
  2  9  2  0  0  0  0
  3  8  2  0  0  0  0
  4  9  1  0  0  0  0
  4  3  1  0  0  0  0
  7  4  2  0  0  0  0
  9 10  1  0  0  0  0
 10  6  1  1  0  0  0
 10  8  1  0  0  0  0
 11  1  2  0  0  0  0
 11  2  1  0  0  0  0
 12 21  1  0  0  0  0
 12 16  1  0  0  0  0
 13 20  1  0  0  0  0
 14 15  1  0  0  0  0
 15 20  1  0  0  0  0
 16 19  1  0  0  0  0
 17 21  2  0  0  0  0
 19 13  1  0  0  0  0
 20 18  1  1  0  0  0
 20 11  1  0  0  0  0
 21 14  1  0  0  0  0
 22  7  1  0  0  0  0
 23 27  2  0  0  0  0
 24 25  1  0  0  0  0
 25 28  2  0  0  0  0
 25 26  1  0  0  0  0
 26 27  1  0  0  0  0
 27 22  1  0  0  0  0
M  END
>  <MODEL>
9

>  <REMARK>
 VINA RESULT:      -7.4      2.392      4.169
  Name = 
  3 active torsions:
  status: ('A' for Active; 'I' for Inactive)
    1  A    between atoms: C_11  and  C_17
    2  A    between atoms: C_17  and  C_25
    3  A    between atoms: C_22  and  C_27
                            x       y       z     vdW  Elec       q    Type
                         _______ _______ _______ _____ _____    ______ ____

>  <TORSDO>
F 3

$$$$
