=
 OpenBabel11062413083D

 40 42  0  0  1  0  0  0  0  0999 V2000
  182.5260  178.3550  141.5870 O   0  0  0  0  0  1  0  0  0  0  0  0
  185.2200  178.1820  143.7840 C   0  0  0  0  0  0  0  0  0  0  0  0
  184.8190  178.7650  141.0140 C   0  0  1  0  0  3  0  0  0  0  0  0
  186.1340  179.4350  141.4060 C   0  0  0  0  0  2  0  0  0  0  0  0
  183.6910  178.9860  142.0400 C   0  0  2  0  0  3  0  0  0  0  0  0
  184.0010  178.4960  143.4350 C   0  0  0  0  0  0  0  0  0  0  0  0
  187.5760  177.9790  143.0130 C   0  0  2  0  0  3  0  0  0  0  0  0
  182.9850  178.4290  144.3840 O   0  0  0  0  0  1  0  0  0  0  0  0
  186.4720  177.9260  144.0470 C   0  0  0  0  0  3  0  0  0  0  0  0
  187.1990  178.3490  141.5550 C   0  0  2  0  0  3  0  0  0  0  0  0
  188.3500  176.6610  142.9870 C   0  0  2  0  0  3  0  0  0  0  0  0
  187.6030  175.6120  143.5320 O   0  0  0  0  0  1  0  0  0  0  0  0
  189.7430  176.7600  143.6070 C   0  0  2  0  0  3  0  0  0  0  0  0
  189.8990  178.0750  144.2980 C   0  0  0  0  0  0  0  0  0  0  0  0
  190.2160  179.1020  143.6370 O   0  0  0  0  0  0  0  0  0  0  0  0
  189.6780  178.1580  145.6730 O   0  0  0  0  0  0  0  0  0  0  0  0
  189.6400  177.0030  146.5020 C   0  0  1  0  0  3  0  0  0  0  0  0
  191.0180  176.7390  147.0730 C   0  0  0  0  0  1  0  0  0  0  0  0
  188.6020  177.1400  147.6170 C   0  0  2  0  0  3  0  0  0  0  0  0
  187.3350  177.3140  147.0640 O   0  0  0  0  0  1  0  0  0  0  0  0
  188.9140  178.2970  148.5560 C   0  0  0  0  0  1  0  0  0  0  0  0
  190.7390  176.6060  142.6350 O   0  0  0  0  0  0  0  0  0  0  0  0
  191.9230  176.4210  143.3490 C   0  0  0  0  0  2  0  0  0  0  0  0
  191.8930  175.1830  143.9940 O   0  0  0  0  0  1  0  0  0  0  0  0
  184.4140  179.2380  139.6220 C   0  0  0  0  0  2  0  0  0  0  0  0
  185.4520  178.9040  138.6600 N   0  0  0  0  0  2  0  0  0  0  0  0
  184.8590  178.0090  137.6740 C   0  0  1  0  0  3  0  0  0  0  0  0
  185.8030  176.8290  137.3900 C   0  0  1  0  0  3  0  0  0  0  0  0
  181.6950  175.7500  139.1090 S   0  0  0  0  0  1  0  0  0  0  0  0
  185.0280  173.3680  137.0950 C   0  0  0  0  0  2  0  0  0  0  0  0
  184.0950  173.9360  137.9720 O   0  0  0  0  0  0  0  0  0  0  0  0
  185.0550  175.6940  136.6740 C   0  0  2  0  0  3  0  0  0  0  0  0
  183.8190  175.2090  137.4460 C   0  0  2  0  0  3  0  0  0  0  0  0
  183.4440  177.5990  138.1090 C   0  0  0  0  0  2  0  0  0  0  0  0
  183.3830  176.1490  138.5710 C   0  0  1  0  0  3  0  0  0  0  0  0
  186.9720  177.3110  136.5390 C   0  0  0  0  0  1  0  0  0  0  0  0
  185.9140  174.4660  136.5640 C   0  0  0  0  0  2  0  0  0  0  0  0
  188.3520  178.7360  140.8600 O   0  0  0  0  0  0  0  0  0  0  0  0
  189.8540  177.7860  139.4350 O   0  0  0  0  0  1  0  0  0  0  0  0
  188.5300  177.7710  139.8690 C   0  0  0  0  0  2  0  0  0  0  0  0
  2  9  2  0  0  0  0
  3 25  1  6  0  0  0
  3  4  1  0  0  0  0
  3  5  1  0  0  0  0
  4 10  1  0  0  0  0
  5  1  1  6  0  0  0
  5  6  1  0  0  0  0
  6  2  2  0  0  0  0
  6  8  1  0  0  0  0
  7 11  1  6  0  0  0
  7  9  1  0  0  0  0
 10 38  1  6  0  0  0
 10  7  1  0  0  0  0
 11 12  1  1  0  0  0
 11 13  1  0  0  0  0
 13 22  1  6  0  0  0
 13 14  1  0  0  0  0
 14 16  1  0  0  0  0
 15 14  2  0  0  0  0
 16 17  1  0  0  0  0
 17 18  1  1  0  0  0
 17 19  1  0  0  0  0
 19 21  1  1  0  0  0
 20 19  1  0  0  0  0
 22 23  1  0  0  0  0
 23 24  1  0  0  0  0
 26 25  1  0  0  0  0
 27 34  1  0  0  0  0
 27 26  1  1  0  0  0
 28 36  1  6  0  0  0
 28 27  1  0  0  0  0
 30 31  1  0  0  0  0
 32 37  1  1  0  0  0
 32 28  1  0  0  0  0
 32 33  1  0  0  0  0
 33 31  1  1  0  0  0
 33 35  1  0  0  0  0
 34 35  1  0  0  0  0
 35 29  1  6  0  0  0
 37 30  1  0  0  0  0
 39 40  1  0  0  0  0
 40 38  1  0  0  0  0
M  END
>  <MODEL>
1

>  <REMARK>
 VINA RESULT:      -7.6      0.000      0.000
  Name = 
  13 active torsions:
  status: ('A' for Active; 'I' for Inactive)
    1  A    between atoms: C_1  and  C_2
    2  A    between atoms: C_1  and  O_26
    3  A    between atoms: C_2  and  C_6
    4  A    between atoms: C_2  and  O_37
    5  A    between atoms: C_4  and  C_14
    6  A    between atoms: C_5  and  N_16
    7  A    between atoms: C_6  and  C_32
    8  A    between atoms: C_8  and  N_16
    9  A    between atoms: C_8  and  C_18
   10  A    between atoms: C_11  and  O_37
   11  A    between atoms: C_14  and  O_26
   12  A    between atoms: C_20  and  O_34
   13  A    between atoms: O_34  and  C_40
                            x       y       z     vdW  Elec       q    Type
                         _______ _______ _______ _____ _____    ______ ____

>  <TORSDO>
F 13

$$$$
=
 OpenBabel11062413083D

 40 42  0  0  1  0  0  0  0  0999 V2000
  182.4670  178.2810  143.3380 O   0  0  0  0  0  1  0  0  0  0  0  0
  185.7840  178.4030  144.3850 C   0  0  0  0  0  0  0  0  0  0  0  0
  184.3620  178.6710  141.9190 C   0  0  1  0  0  3  0  0  0  0  0  0
  185.6870  179.4060  141.7310 C   0  0  0  0  0  2  0  0  0  0  0  0
  183.6780  178.9800  143.2650 C   0  0  2  0  0  3  0  0  0  0  0  0
  184.5050  178.6520  144.4850 C   0  0  0  0  0  0  0  0  0  0  0  0
  187.7010  178.1640  142.8180 C   0  0  2  0  0  3  0  0  0  0  0  0
  183.9140  178.6690  145.7450 O   0  0  0  0  0  1  0  0  0  0  0  0
  187.0580  178.2020  144.1880 C   0  0  0  0  0  3  0  0  0  0  0  0
  186.7940  178.3640  141.5760 C   0  0  2  0  0  3  0  0  0  0  0  0
  188.4870  176.8660  142.6310 C   0  0  2  0  0  3  0  0  0  0  0  0
  188.0600  175.8710  143.5160 O   0  0  0  0  0  1  0  0  0  0  0  0
  190.0020  177.0620  142.6710 C   0  0  2  0  0  3  0  0  0  0  0  0
  190.4140  177.5720  144.0140 C   0  0  0  0  0  0  0  0  0  0  0  0
  190.7370  178.7820  144.1580 O   0  0  0  0  0  0  0  0  0  0  0  0
  190.4230  176.7020  145.1040 O   0  0  0  0  0  0  0  0  0  0  0  0
  190.4110  177.1730  146.4460 C   0  0  1  0  0  3  0  0  0  0  0  0
  188.9900  177.1820  146.9710 C   0  0  0  0  0  1  0  0  0  0  0  0
  191.3240  176.3400  147.3480 C   0  0  2  0  0  3  0  0  0  0  0  0
  192.0620  177.1800  148.1780 O   0  0  0  0  0  1  0  0  0  0  0  0
  192.2660  175.4510  146.5490 C   0  0  0  0  0  1  0  0  0  0  0  0
  190.4220  177.9480  141.6720 O   0  0  0  0  0  0  0  0  0  0  0  0
  191.0470  177.1500  140.7130 C   0  0  0  0  0  2  0  0  0  0  0  0
  192.3900  177.5150  140.6010 O   0  0  0  0  0  1  0  0  0  0  0  0
  183.4470  178.9810  140.7390 C   0  0  0  0  0  2  0  0  0  0  0  0
  183.5230  177.9110  139.7560 N   0  0  0  0  0  2  0  0  0  0  0  0
  182.1650  177.6500  139.2930 C   0  0  1  0  0  3  0  0  0  0  0  0
  181.8590  176.1450  139.3620 C   0  0  1  0  0  3  0  0  0  0  0  0
  179.2040  178.8570  141.9280 S   0  0  0  0  0  1  0  0  0  0  0  0
  178.9310  174.5130  140.5550 C   0  0  0  0  0  2  0  0  0  0  0  0
  179.0620  175.7140  141.2640 O   0  0  0  0  0  0  0  0  0  0  0  0
  180.3470  175.8920  139.2600 C   0  0  2  0  0  3  0  0  0  0  0  0
  179.5390  176.6460  140.3270 C   0  0  2  0  0  3  0  0  0  0  0  0
  181.1640  178.5370  140.0490 C   0  0  0  0  0  2  0  0  0  0  0  0
  180.3300  177.7400  141.0440 C   0  0  1  0  0  3  0  0  0  0  0  0
  182.5920  175.4280  138.2340 C   0  0  0  0  0  1  0  0  0  0  0  0
  180.0220  174.4480  139.5180 C   0  0  0  0  0  2  0  0  0  0  0  0
  187.5880  178.6960  140.4700 O   0  0  0  0  0  0  0  0  0  0  0  0
  188.0190  177.1470  138.8570 O   0  0  0  0  0  1  0  0  0  0  0  0
  187.0470  177.9850  139.3990 C   0  0  0  0  0  2  0  0  0  0  0  0
  2  6  2  0  0  0  0
  3 25  1  6  0  0  0
  3  5  1  0  0  0  0
  4  3  1  0  0  0  0
  5  1  1  1  0  0  0
  5  6  1  0  0  0  0
  6  8  1  0  0  0  0
  7 11  1  6  0  0  0
  7  9  1  0  0  0  0
  9  2  2  0  0  0  0
 10 38  1  6  0  0  0
 10  4  1  0  0  0  0
 10  7  1  0  0  0  0
 11 13  1  0  0  0  0
 11 12  1  1  0  0  0
 13 22  1  6  0  0  0
 13 14  1  0  0  0  0
 14 15  2  0  0  0  0
 14 16  1  0  0  0  0
 16 17  1  0  0  0  0
 17 18  1  1  0  0  0
 17 19  1  0  0  0  0
 19 21  1  6  0  0  0
 19 20  1  0  0  0  0
 23 22  1  0  0  0  0
 24 23  1  0  0  0  0
 26 25  1  0  0  0  0
 27 28  1  0  0  0  0
 27 26  1  1  0  0  0
 27 34  1  0  0  0  0
 28 36  1  6  0  0  0
 30 31  1  0  0  0  0
 32 28  1  0  0  0  0
 32 37  1  1  0  0  0
 32 33  1  0  0  0  0
 33 35  1  0  0  0  0
 33 31  1  1  0  0  0
 34 35  1  0  0  0  0
 35 29  1  6  0  0  0
 37 30  1  0  0  0  0
 39 40  1  0  0  0  0
 40 38  1  0  0  0  0
M  END
>  <MODEL>
2

>  <REMARK>
 VINA RESULT:      -7.6      2.280      3.236
  Name = 
  13 active torsions:
  status: ('A' for Active; 'I' for Inactive)
    1  A    between atoms: C_1  and  C_2
    2  A    between atoms: C_1  and  O_26
    3  A    between atoms: C_2  and  C_6
    4  A    between atoms: C_2  and  O_37
    5  A    between atoms: C_4  and  C_14
    6  A    between atoms: C_5  and  N_16
    7  A    between atoms: C_6  and  C_32
    8  A    between atoms: C_8  and  N_16
    9  A    between atoms: C_8  and  C_18
   10  A    between atoms: C_11  and  O_37
   11  A    between atoms: C_14  and  O_26
   12  A    between atoms: C_20  and  O_34
   13  A    between atoms: O_34  and  C_40
                            x       y       z     vdW  Elec       q    Type
                         _______ _______ _______ _____ _____    ______ ____

>  <TORSDO>
F 13

$$$$
=
 OpenBabel11062413083D

 40 42  0  0  1  0  0  0  0  0999 V2000
  182.4990  178.3290  143.9420 O   0  0  0  0  0  1  0  0  0  0  0  0
  185.9050  178.3590  144.6600 C   0  0  0  0  0  0  0  0  0  0  0  0
  184.2550  178.7000  142.3500 C   0  0  1  0  0  3  0  0  0  0  0  0
  185.5720  179.4080  142.0430 C   0  0  0  0  0  2  0  0  0  0  0  0
  183.7130  179.0020  143.7610 C   0  0  2  0  0  3  0  0  0  0  0  0
  184.6480  178.6350  144.8880 C   0  0  0  0  0  0  0  0  0  0  0  0
  187.6520  178.1030  142.9090 C   0  0  2  0  0  3  0  0  0  0  0  0
  184.1830  178.6440  146.2010 O   0  0  0  0  0  1  0  0  0  0  0  0
  187.1470  178.1330  144.3360 C   0  0  0  0  0  3  0  0  0  0  0  0
  186.6340  178.3440  141.7650 C   0  0  2  0  0  3  0  0  0  0  0  0
  188.3860  176.7920  142.6270 C   0  0  2  0  0  3  0  0  0  0  0  0
  187.8740  175.7380  143.3930 O   0  0  0  0  0  1  0  0  0  0  0  0
  189.9050  176.9060  142.7460 C   0  0  2  0  0  3  0  0  0  0  0  0
  190.2690  177.4790  144.0760 C   0  0  0  0  0  0  0  0  0  0  0  0
  190.6440  178.6800  144.1650 O   0  0  0  0  0  0  0  0  0  0  0  0
  190.1780  176.6800  145.2150 O   0  0  0  0  0  0  0  0  0  0  0  0
  190.4310  177.1910  146.5180 C   0  0  1  0  0  3  0  0  0  0  0  0
  189.1180  177.4250  147.2380 C   0  0  0  0  0  1  0  0  0  0  0  0
  191.3410  176.2630  147.3250 C   0  0  2  0  0  3  0  0  0  0  0  0
  192.1760  177.0160  148.1450 O   0  0  0  0  0  1  0  0  0  0  0  0
  192.1790  175.3590  146.4310 C   0  0  0  0  0  1  0  0  0  0  0  0
  190.4320  177.7000  141.7190 O   0  0  0  0  0  0  0  0  0  0  0  0
  190.6410  176.8280  140.6510 C   0  0  0  0  0  2  0  0  0  0  0  0
  190.0190  177.3300  139.5060 O   0  0  0  0  0  1  0  0  0  0  0  0
  183.2360  179.0500  141.2700 C   0  0  0  0  0  2  0  0  0  0  0  0
  182.8130  177.8440  140.5750 N   0  0  0  0  0  2  0  0  0  0  0  0
  182.9600  178.0930  139.1460 C   0  0  1  0  0  3  0  0  0  0  0  0
  182.0990  177.1050  138.3420 C   0  0  1  0  0  3  0  0  0  0  0  0
  181.0870  181.5430  137.8160 S   0  0  0  0  0  1  0  0  0  0  0  0
  179.9940  177.7390  135.5430 C   0  0  0  0  0  2  0  0  0  0  0  0
  180.0210  178.9030  136.3220 O   0  0  0  0  0  0  0  0  0  0  0  0
  181.9290  177.5860  136.8920 C   0  0  2  0  0  3  0  0  0  0  0  0
  181.3400  179.0020  136.7950 C   0  0  2  0  0  3  0  0  0  0  0  0
  182.6890  179.5730  138.8320 C   0  0  0  0  0  2  0  0  0  0  0  0
  181.3590  179.7720  138.1150 C   0  0  1  0  0  3  0  0  0  0  0  0
  182.7530  175.7290  138.3680 C   0  0  0  0  0  1  0  0  0  0  0  0
  180.9370  176.7340  136.1530 C   0  0  0  0  0  2  0  0  0  0  0  0
  187.3230  178.6770  140.5910 O   0  0  0  0  0  0  0  0  0  0  0  0
  187.0910  178.5380  138.3300 O   0  0  0  0  0  1  0  0  0  0  0  0
  186.4330  178.4120  139.5510 C   0  0  0  0  0  2  0  0  0  0  0  0
  2  6  2  0  0  0  0
  3 25  1  6  0  0  0
  3  5  1  0  0  0  0
  4  3  1  0  0  0  0
  5  1  1  1  0  0  0
  5  6  1  0  0  0  0
  6  8  1  0  0  0  0
  7 11  1  6  0  0  0
  7  9  1  0  0  0  0
  9  2  2  0  0  0  0
 10 38  1  6  0  0  0
 10  4  1  0  0  0  0
 10  7  1  0  0  0  0
 11 13  1  0  0  0  0
 11 12  1  1  0  0  0
 13 22  1  6  0  0  0
 13 14  1  0  0  0  0
 14 15  2  0  0  0  0
 14 16  1  0  0  0  0
 16 17  1  0  0  0  0
 17 18  1  1  0  0  0
 17 19  1  0  0  0  0
 19 21  1  6  0  0  0
 19 20  1  0  0  0  0
 23 22  1  0  0  0  0
 24 23  1  0  0  0  0
 26 25  1  0  0  0  0
 27 26  1  1  0  0  0
 28 36  1  6  0  0  0
 28 27  1  0  0  0  0
 30 37  1  0  0  0  0
 30 31  1  0  0  0  0
 32 37  1  6  0  0  0
 32 28  1  0  0  0  0
 33 31  1  1  0  0  0
 33 32  1  0  0  0  0
 33 35  1  0  0  0  0
 34 27  1  0  0  0  0
 35 29  1  6  0  0  0
 35 34  1  0  0  0  0
 39 40  1  0  0  0  0
 40 38  1  0  0  0  0
M  END
>  <MODEL>
3

>  <REMARK>
 VINA RESULT:      -7.4      2.221      3.224
  Name = 
  13 active torsions:
  status: ('A' for Active; 'I' for Inactive)
    1  A    between atoms: C_1  and  C_2
    2  A    between atoms: C_1  and  O_26
    3  A    between atoms: C_2  and  C_6
    4  A    between atoms: C_2  and  O_37
    5  A    between atoms: C_4  and  C_14
    6  A    between atoms: C_5  and  N_16
    7  A    between atoms: C_6  and  C_32
    8  A    between atoms: C_8  and  N_16
    9  A    between atoms: C_8  and  C_18
   10  A    between atoms: C_11  and  O_37
   11  A    between atoms: C_14  and  O_26
   12  A    between atoms: C_20  and  O_34
   13  A    between atoms: O_34  and  C_40
                            x       y       z     vdW  Elec       q    Type
                         _______ _______ _______ _____ _____    ______ ____

>  <TORSDO>
F 13

$$$$
=
 OpenBabel11062413083D

 40 42  0  0  1  0  0  0  0  0999 V2000
  190.4110  176.0830  141.5890 O   0  0  0  0  0  1  0  0  0  0  0  0
  190.2920  177.3820  138.3620 C   0  0  0  0  0  0  0  0  0  0  0  0
  188.6020  177.3630  140.6690 C   0  0  1  0  0  3  0  0  0  0  0  0
  188.1880  178.5800  139.8450 C   0  0  0  0  0  2  0  0  0  0  0  0
  190.1290  177.2090  140.8050 C   0  0  2  0  0  3  0  0  0  0  0  0
  190.8720  177.0900  139.4960 C   0  0  0  0  0  0  0  0  0  0  0  0
  188.1760  178.1160  137.2830 C   0  0  2  0  0  3  0  0  0  0  0  0
  192.2140  176.7170  139.4950 O   0  0  0  0  0  1  0  0  0  0  0  0
  189.6380  177.7290  137.2880 C   0  0  0  0  0  3  0  0  0  0  0  0
  187.4040  178.0900  138.6280 C   0  0  2  0  0  3  0  0  0  0  0  0
  187.4010  177.2700  136.2720 C   0  0  2  0  0  3  0  0  0  0  0  0
  186.7250  178.0660  135.3410 O   0  0  0  0  0  1  0  0  0  0  0  0
  186.4810  176.2360  136.9210 C   0  0  2  0  0  3  0  0  0  0  0  0
  187.0130  174.8610  136.6820 C   0  0  0  0  0  0  0  0  0  0  0  0
  188.1600  174.5450  137.1000 O   0  0  0  0  0  0  0  0  0  0  0  0
  186.2240  173.9290  136.0070 O   0  0  0  0  0  0  0  0  0  0  0  0
  186.0770  172.5910  136.4660 C   0  0  1  0  0  3  0  0  0  0  0  0
  184.6420  172.3550  136.8950 C   0  0  0  0  0  1  0  0  0  0  0  0
  186.5060  171.5760  135.4060 C   0  0  2  0  0  3  0  0  0  0  0  0
  185.6050  170.5150  135.3750 O   0  0  0  0  0  1  0  0  0  0  0  0
  187.9130  171.0470  135.6510 C   0  0  0  0  0  1  0  0  0  0  0  0
  185.1760  176.3400  136.4230 O   0  0  0  0  0  0  0  0  0  0  0  0
  184.3460  176.0740  137.5120 C   0  0  0  0  0  2  0  0  0  0  0  0
  183.1320  175.5520  137.0600 O   0  0  0  0  0  1  0  0  0  0  0  0
  187.9190  177.4260  142.0310 C   0  0  0  0  0  2  0  0  0  0  0  0
  188.8790  177.8170  143.0510 N   0  0  0  0  0  2  0  0  0  0  0  0
  188.5320  177.0980  144.2710 C   0  0  1  0  0  3  0  0  0  0  0  0
  189.4740  177.5060  145.4160 C   0  0  1  0  0  3  0  0  0  0  0  0
  185.0240  178.3800  146.0670 S   0  0  0  0  0  1  0  0  0  0  0  0
  188.6790  178.2740  148.7980 C   0  0  0  0  0  2  0  0  0  0  0  0
  187.5700  178.6210  148.0150 O   0  0  0  0  0  0  0  0  0  0  0  0
  188.8990  177.0740  146.7740 C   0  0  2  0  0  3  0  0  0  0  0  0
  187.4870  177.6240  147.0290 C   0  0  2  0  0  3  0  0  0  0  0  0
  187.0380  177.2710  144.5860 C   0  0  0  0  0  2  0  0  0  0  0  0
  186.8070  178.1870  145.7810 C   0  0  1  0  0  3  0  0  0  0  0  0
  190.8410  176.8690  145.1950 C   0  0  0  0  0  1  0  0  0  0  0  0
  189.7120  177.6340  147.9070 C   0  0  0  0  0  2  0  0  0  0  0  0
  186.2280  178.8420  138.5040 O   0  0  0  0  0  0  0  0  0  0  0  0
  184.6920  179.7680  139.9070 O   0  0  0  0  0  1  0  0  0  0  0  0
  185.5680  178.7000  139.7240 C   0  0  0  0  0  2  0  0  0  0  0  0
  2  6  2  0  0  0  0
  3  5  1  0  0  0  0
  3 25  1  1  0  0  0
  4  3  1  0  0  0  0
  5  1  1  1  0  0  0
  6  5  1  0  0  0  0
  7 11  1  6  0  0  0
  7  9  1  0  0  0  0
  7 10  1  0  0  0  0
  8  6  1  0  0  0  0
  9  2  2  0  0  0  0
 10 38  1  6  0  0  0
 10  4  1  0  0  0  0
 11 12  1  1  0  0  0
 11 13  1  0  0  0  0
 13 22  1  6  0  0  0
 14 13  1  0  0  0  0
 14 15  2  0  0  0  0
 16 17  1  0  0  0  0
 16 14  1  0  0  0  0
 17 18  1  6  0  0  0
 19 21  1  1  0  0  0
 19 17  1  0  0  0  0
 20 19  1  0  0  0  0
 22 23  1  0  0  0  0
 24 23  1  0  0  0  0
 25 26  1  0  0  0  0
 27 26  1  6  0  0  0
 27 34  1  0  0  0  0
 27 28  1  0  0  0  0
 28 36  1  6  0  0  0
 28 32  1  0  0  0  0
 31 30  1  0  0  0  0
 32 33  1  0  0  0  0
 32 37  1  1  0  0  0
 33 31  1  1  0  0  0
 34 35  1  0  0  0  0
 35 29  1  1  0  0  0
 35 33  1  0  0  0  0
 37 30  1  0  0  0  0
 38 40  1  0  0  0  0
 40 39  1  0  0  0  0
M  END
>  <MODEL>
4

>  <REMARK>
 VINA RESULT:      -7.4      2.717      9.077
  Name = 
  13 active torsions:
  status: ('A' for Active; 'I' for Inactive)
    1  A    between atoms: C_1  and  C_2
    2  A    between atoms: C_1  and  O_26
    3  A    between atoms: C_2  and  C_6
    4  A    between atoms: C_2  and  O_37
    5  A    between atoms: C_4  and  C_14
    6  A    between atoms: C_5  and  N_16
    7  A    between atoms: C_6  and  C_32
    8  A    between atoms: C_8  and  N_16
    9  A    between atoms: C_8  and  C_18
   10  A    between atoms: C_11  and  O_37
   11  A    between atoms: C_14  and  O_26
   12  A    between atoms: C_20  and  O_34
   13  A    between atoms: O_34  and  C_40
                            x       y       z     vdW  Elec       q    Type
                         _______ _______ _______ _____ _____    ______ ____

>  <TORSDO>
F 13

$$$$
=
 OpenBabel11062413083D

 40 42  0  0  1  0  0  0  0  0999 V2000
  182.3470  177.6170  140.2240 O   0  0  0  0  0  1  0  0  0  0  0  0
  183.9280  178.6550  143.1450 C   0  0  0  0  0  0  0  0  0  0  0  0
  184.6580  178.2340  140.4130 C   0  0  1  0  0  3  0  0  0  0  0  0
  185.6730  179.2240  140.9800 C   0  0  0  0  0  2  0  0  0  0  0  0
  183.2030  178.5620  140.8020 C   0  0  2  0  0  3  0  0  0  0  0  0
  182.9420  178.6110  142.2890 C   0  0  0  0  0  0  0  0  0  0  0  0
  186.4000  178.6510  143.4140 C   0  0  2  0  0  3  0  0  0  0  0  0
  181.6320  178.6670  142.7580 O   0  0  0  0  0  1  0  0  0  0  0  0
  184.9760  178.7310  143.9180 C   0  0  0  0  0  3  0  0  0  0  0  0
  186.6300  178.4580  141.8920 C   0  0  2  0  0  3  0  0  0  0  0  0
  187.1720  177.5600  144.1560 C   0  0  2  0  0  3  0  0  0  0  0  0
  186.5740  176.3050  143.9970 O   0  0  0  0  0  1  0  0  0  0  0  0
  187.4350  177.8910  145.6240 C   0  0  2  0  0  3  0  0  0  0  0  0
  188.7120  177.2560  146.0690 C   0  0  0  0  0  0  0  0  0  0  0  0
  188.8810  176.9600  147.2820 O   0  0  0  0  0  0  0  0  0  0  0  0
  189.7040  176.9800  145.1270 O   0  0  0  0  0  0  0  0  0  0  0  0
  191.0490  177.4090  145.3010 C   0  0  1  0  0  3  0  0  0  0  0  0
  191.9060  176.2360  145.7350 C   0  0  0  0  0  1  0  0  0  0  0  0
  191.6070  178.0560  144.0330 C   0  0  2  0  0  3  0  0  0  0  0  0
  190.7290  179.0360  143.5770 O   0  0  0  0  0  1  0  0  0  0  0  0
  191.8550  177.0370  142.9280 C   0  0  0  0  0  1  0  0  0  0  0  0
  186.3770  177.4610  146.4350 O   0  0  0  0  0  0  0  0  0  0  0  0
  185.9380  178.6050  147.1030 C   0  0  0  0  0  2  0  0  0  0  0  0
  184.5450  178.5880  147.1980 O   0  0  0  0  0  1  0  0  0  0  0  0
  184.8300  178.1530  138.9000 C   0  0  0  0  0  2  0  0  0  0  0  0
  186.0820  178.7810  138.5070 N   0  0  0  0  0  2  0  0  0  0  0  0
  186.4950  178.1740  137.2480 C   0  0  1  0  0  3  0  0  0  0  0  0
  187.9800  177.7820  137.3070 C   0  0  1  0  0  3  0  0  0  0  0  0
  185.0190  174.3510  136.6310 S   0  0  0  0  0  1  0  0  0  0  0  0
  189.5440  174.7790  136.2090 C   0  0  0  0  0  2  0  0  0  0  0  0
  188.2320  174.4590  136.5840 O   0  0  0  0  0  0  0  0  0  0  0  0
  188.3320  176.8080  136.1710 C   0  0  2  0  0  3  0  0  0  0  0  0
  187.4510  175.5500  136.1660 C   0  0  2  0  0  3  0  0  0  0  0  0
  185.5480  177.0230  136.8740 C   0  0  0  0  0  2  0  0  0  0  0  0
  186.2070  175.6610  137.0480 C   0  0  1  0  0  3  0  0  0  0  0  0
  188.8390  179.0380  137.2100 C   0  0  0  0  0  1  0  0  0  0  0  0
  189.7250  176.2700  136.3320 C   0  0  0  0  0  2  0  0  0  0  0  0
  187.9490  178.8060  141.5730 O   0  0  0  0  0  0  0  0  0  0  0  0
  189.8090  177.9240  140.6000 O   0  0  0  0  0  1  0  0  0  0  0  0
  188.4520  177.7290  140.8450 C   0  0  0  0  0  2  0  0  0  0  0  0
  2  9  2  0  0  0  0
  3 25  1  6  0  0  0
  3  5  1  0  0  0  0
  3  4  1  0  0  0  0
  4 10  1  0  0  0  0
  5  1  1  6  0  0  0
  5  6  1  0  0  0  0
  6  8  1  0  0  0  0
  6  2  2  0  0  0  0
  7  9  1  0  0  0  0
  7 11  1  1  0  0  0
 10 38  1  6  0  0  0
 10  7  1  0  0  0  0
 11 12  1  1  0  0  0
 11 13  1  0  0  0  0
 13 14  1  1  0  0  0
 13 22  1  0  0  0  0
 14 15  2  0  0  0  0
 16 17  1  0  0  0  0
 16 14  1  0  0  0  0
 17 18  1  6  0  0  0
 19 21  1  6  0  0  0
 19 17  1  0  0  0  0
 20 19  1  0  0  0  0
 22 23  1  0  0  0  0
 23 24  1  0  0  0  0
 26 25  1  0  0  0  0
 27 28  1  0  0  0  0
 27 26  1  1  0  0  0
 28 36  1  6  0  0  0
 30 37  1  0  0  0  0
 30 31  1  0  0  0  0
 32 37  1  1  0  0  0
 32 28  1  0  0  0  0
 33 32  1  0  0  0  0
 33 31  1  1  0  0  0
 33 35  1  0  0  0  0
 34 35  1  0  0  0  0
 34 27  1  0  0  0  0
 35 29  1  6  0  0  0
 39 40  1  0  0  0  0
 40 38  1  0  0  0  0
M  END
>  <MODEL>
5

>  <REMARK>
 VINA RESULT:      -7.2      1.832      3.425
  Name = 
  13 active torsions:
  status: ('A' for Active; 'I' for Inactive)
    1  A    between atoms: C_1  and  C_2
    2  A    between atoms: C_1  and  O_26
    3  A    between atoms: C_2  and  C_6
    4  A    between atoms: C_2  and  O_37
    5  A    between atoms: C_4  and  C_14
    6  A    between atoms: C_5  and  N_16
    7  A    between atoms: C_6  and  C_32
    8  A    between atoms: C_8  and  N_16
    9  A    between atoms: C_8  and  C_18
   10  A    between atoms: C_11  and  O_37
   11  A    between atoms: C_14  and  O_26
   12  A    between atoms: C_20  and  O_34
   13  A    between atoms: O_34  and  C_40
                            x       y       z     vdW  Elec       q    Type
                         _______ _______ _______ _____ _____    ______ ____

>  <TORSDO>
F 13

$$$$
=
 OpenBabel11062413083D

 40 42  0  0  1  0  0  0  0  0999 V2000
  184.8980  179.4890  144.2360 O   0  0  0  0  0  1  0  0  0  0  0  0
  182.2220  178.8310  142.1090 C   0  0  0  0  0  0  0  0  0  0  0  0
  185.0760  178.7780  141.9510 C   0  0  1  0  0  3  0  0  0  0  0  0
  184.5700  177.8330  140.8640 C   0  0  0  0  0  2  0  0  0  0  0  0
  184.3550  178.5980  143.3010 C   0  0  2  0  0  3  0  0  0  0  0  0
  182.8590  178.7970  143.2500 C   0  0  0  0  0  0  0  0  0  0  0  0
  182.4590  178.7360  139.6360 C   0  0  2  0  0  3  0  0  0  0  0  0
  182.1340  178.8890  144.4350 O   0  0  0  0  0  1  0  0  0  0  0  0
  181.6730  178.8170  140.9260 C   0  0  0  0  0  3  0  0  0  0  0  0
  184.0070  178.6770  139.7210 C   0  0  2  0  0  3  0  0  0  0  0  0
  182.0760  179.8840  138.7020 C   0  0  2  0  0  3  0  0  0  0  0  0
  182.9590  180.9630  138.8200 O   0  0  0  0  0  1  0  0  0  0  0  0
  180.6160  180.3160  138.8350 C   0  0  2  0  0  3  0  0  0  0  0  0
  179.9540  180.2930  137.4970 C   0  0  0  0  0  0  0  0  0  0  0  0
  179.6240  179.1940  136.9750 O   0  0  0  0  0  0  0  0  0  0  0  0
  179.6940  181.4960  136.8390 O   0  0  0  0  0  0  0  0  0  0  0  0
  180.7040  182.2030  136.1310 C   0  0  1  0  0  3  0  0  0  0  0  0
  180.7130  181.7620  134.6810 C   0  0  0  0  0  1  0  0  0  0  0  0
  180.5210  183.7170  136.2430 C   0  0  2  0  0  3  0  0  0  0  0  0
  180.6590  184.3030  134.9870 O   0  0  0  0  0  1  0  0  0  0  0  0
  181.5120  184.3460  137.2130 C   0  0  0  0  0  1  0  0  0  0  0  0
  180.5200  181.5960  139.3970 O   0  0  0  0  0  0  0  0  0  0  0  0
  179.3140  181.5990  140.0980 C   0  0  0  0  0  2  0  0  0  0  0  0
  179.5600  181.3750  141.4540 O   0  0  0  0  0  1  0  0  0  0  0  0
  186.5860  178.6130  142.0940 C   0  0  0  0  0  2  0  0  0  0  0  0
  186.8850  177.6790  143.1680 N   0  0  0  0  0  2  0  0  0  0  0  0
  188.0090  178.2270  143.9180 C   0  0  1  0  0  3  0  0  0  0  0  0
  188.1770  177.4770  145.2500 C   0  0  1  0  0  3  0  0  0  0  0  0
  191.7270  177.2670  142.3620 S   0  0  0  0  0  1  0  0  0  0  0  0
  191.1590  176.2860  146.7830 C   0  0  0  0  0  2  0  0  0  0  0  0
  191.3630  176.2710  145.3970 O   0  0  0  0  0  0  0  0  0  0  0  0
  189.5570  177.7600  145.8640 C   0  0  2  0  0  3  0  0  0  0  0  0
  190.7160  177.4210  144.9150 C   0  0  2  0  0  3  0  0  0  0  0  0
  189.2710  178.2570  143.0430 C   0  0  0  0  0  2  0  0  0  0  0  0
  190.2860  177.2020  143.4650 C   0  0  1  0  0  3  0  0  0  0  0  0
  187.0730  177.9020  146.2120 C   0  0  0  0  0  1  0  0  0  0  0  0
  189.8050  176.8870  147.0610 C   0  0  0  0  0  2  0  0  0  0  0  0
  184.5220  178.2090  138.5050 O   0  0  0  0  0  0  0  0  0  0  0  0
  186.4630  178.9430  137.5670 O   0  0  0  0  0  1  0  0  0  0  0  0
  185.9080  178.2590  138.6470 C   0  0  0  0  0  2  0  0  0  0  0  0
  2  6  2  0  0  0  0
  3 25  1  1  0  0  0
  3  5  1  0  0  0  0
  4  3  1  0  0  0  0
  5  1  1  1  0  0  0
  6  5  1  0  0  0  0
  6  8  1  0  0  0  0
  7 11  1  6  0  0  0
  7 10  1  0  0  0  0
  7  9  1  0  0  0  0
  9  2  2  0  0  0  0
 10 38  1  6  0  0  0
 10  4  1  0  0  0  0
 11 12  1  1  0  0  0
 11 13  1  0  0  0  0
 13 14  1  6  0  0  0
 13 22  1  0  0  0  0
 15 14  2  0  0  0  0
 16 14  1  0  0  0  0
 17 18  1  6  0  0  0
 17 19  1  0  0  0  0
 17 16  1  0  0  0  0
 19 21  1  1  0  0  0
 20 19  1  0  0  0  0
 22 23  1  0  0  0  0
 23 24  1  0  0  0  0
 25 26  1  0  0  0  0
 27 26  1  6  0  0  0
 27 28  1  0  0  0  0
 28 32  1  0  0  0  0
 28 36  1  1  0  0  0
 30 37  1  0  0  0  0
 31 30  1  0  0  0  0
 32 37  1  1  0  0  0
 33 31  1  1  0  0  0
 33 32  1  0  0  0  0
 34 35  1  0  0  0  0
 34 27  1  0  0  0  0
 35 29  1  6  0  0  0
 35 33  1  0  0  0  0
 38 40  1  0  0  0  0
 39 40  1  0  0  0  0
M  END
>  <MODEL>
6

>  <REMARK>
 VINA RESULT:      -7.2      4.006      9.676
  Name = 
  13 active torsions:
  status: ('A' for Active; 'I' for Inactive)
    1  A    between atoms: C_1  and  C_2
    2  A    between atoms: C_1  and  O_26
    3  A    between atoms: C_2  and  C_6
    4  A    between atoms: C_2  and  O_37
    5  A    between atoms: C_4  and  C_14
    6  A    between atoms: C_5  and  N_16
    7  A    between atoms: C_6  and  C_32
    8  A    between atoms: C_8  and  N_16
    9  A    between atoms: C_8  and  C_18
   10  A    between atoms: C_11  and  O_37
   11  A    between atoms: C_14  and  O_26
   12  A    between atoms: C_20  and  O_34
   13  A    between atoms: O_34  and  C_40
                            x       y       z     vdW  Elec       q    Type
                         _______ _______ _______ _____ _____    ______ ____

>  <TORSDO>
F 13

$$$$
=
 OpenBabel11062413083D

 40 42  0  0  1  0  0  0  0  0999 V2000
  190.1900  176.5760  139.5110 O   0  0  0  0  0  1  0  0  0  0  0  0
  187.5180  178.2880  138.0820 C   0  0  0  0  0  0  0  0  0  0  0  0
  188.2770  177.4110  140.6950 C   0  0  1  0  0  3  0  0  0  0  0  0
  187.3080  178.5730  140.8990 C   0  0  0  0  0  2  0  0  0  0  0  0
  189.3390  177.6830  139.6120 C   0  0  2  0  0  3  0  0  0  0  0  0
  188.7820  177.9960  138.2440 C   0  0  0  0  0  0  0  0  0  0  0  0
  185.3200  178.5450  139.2170 C   0  0  2  0  0  3  0  0  0  0  0  0
  189.6330  178.0310  137.1430 O   0  0  0  0  0  1  0  0  0  0  0  0
  186.2530  178.6000  138.0260 C   0  0  0  0  0  3  0  0  0  0  0  0
  185.8970  178.0810  140.5800 C   0  0  2  0  0  3  0  0  0  0  0  0
  184.0960  177.6860  138.8990 C   0  0  2  0  0  3  0  0  0  0  0  0
  184.2940  176.9060  137.7550 O   0  0  0  0  0  1  0  0  0  0  0  0
  182.7940  178.4830  138.8360 C   0  0  2  0  0  3  0  0  0  0  0  0
  181.8880  178.0680  139.9490 C   0  0  0  0  0  0  0  0  0  0  0  0
  181.6630  176.8450  140.1570 O   0  0  0  0  0  0  0  0  0  0  0  0
  181.3080  179.0430  140.7600 O   0  0  0  0  0  0  0  0  0  0  0  0
  180.7560  178.7350  142.0340 C   0  0  1  0  0  3  0  0  0  0  0  0
  181.8210  178.8850  143.1010 C   0  0  0  0  0  1  0  0  0  0  0  0
  179.5370  179.6030  142.3500 C   0  0  2  0  0  3  0  0  0  0  0  0
  179.7930  180.9240  141.9900 O   0  0  0  0  0  1  0  0  0  0  0  0
  179.1510  179.5400  143.8220 C   0  0  0  0  0  1  0  0  0  0  0  0
  182.1530  178.3040  137.6030 O   0  0  0  0  0  0  0  0  0  0  0  0
  181.3180  179.4120  137.4580 C   0  0  0  0  0  2  0  0  0  0  0  0
  180.0420  178.9910  137.0790 O   0  0  0  0  0  1  0  0  0  0  0  0
  188.9170  177.0530  142.0330 C   0  0  0  0  0  2  0  0  0  0  0  0
  188.4710  177.9800  143.0610 N   0  0  0  0  0  2  0  0  0  0  0  0
  188.2550  177.2070  144.2780 C   0  0  1  0  0  3  0  0  0  0  0  0
  189.2960  177.5880  145.3430 C   0  0  1  0  0  3  0  0  0  0  0  0
  184.9150  178.3470  146.4510 S   0  0  0  0  0  1  0  0  0  0  0  0
  188.8170  178.2070  148.8150 C   0  0  0  0  0  2  0  0  0  0  0  0
  187.6330  178.5620  148.1560 O   0  0  0  0  0  0  0  0  0  0  0  0
  188.8600  177.0920  146.7310 C   0  0  2  0  0  3  0  0  0  0  0  0
  187.4710  177.6030  147.1420 C   0  0  2  0  0  3  0  0  0  0  0  0
  186.7950  177.3380  144.7410 C   0  0  0  0  0  2  0  0  0  0  0  0
  186.6660  178.2020  145.9890 C   0  0  1  0  0  3  0  0  0  0  0  0
  190.6450  176.9880  144.9670 C   0  0  0  0  0  1  0  0  0  0  0  0
  189.7690  177.6230  147.8030 C   0  0  0  0  0  2  0  0  0  0  0  0
  185.0300  178.4710  141.6090 O   0  0  0  0  0  0  0  0  0  0  0  0
  185.0560  179.9130  143.3710 O   0  0  0  0  0  1  0  0  0  0  0  0
  185.5400  179.6770  142.0860 C   0  0  0  0  0  2  0  0  0  0  0  0
  2  6  2  0  0  0  0
  3  4  1  0  0  0  0
  3 25  1  1  0  0  0
  5  1  1  6  0  0  0
  5  3  1  0  0  0  0
  6  5  1  0  0  0  0
  7 11  1  6  0  0  0
  7 10  1  0  0  0  0
  8  6  1  0  0  0  0
  9  2  2  0  0  0  0
  9  7  1  0  0  0  0
 10  4  1  0  0  0  0
 10 38  1  1  0  0  0
 11 12  1  6  0  0  0
 13 22  1  6  0  0  0
 13 11  1  0  0  0  0
 13 14  1  0  0  0  0
 14 15  2  0  0  0  0
 14 16  1  0  0  0  0
 16 17  1  0  0  0  0
 17 19  1  0  0  0  0
 17 18  1  1  0  0  0
 19 21  1  1  0  0  0
 20 19  1  0  0  0  0
 23 22  1  0  0  0  0
 24 23  1  0  0  0  0
 25 26  1  0  0  0  0
 27 26  1  6  0  0  0
 27 34  1  0  0  0  0
 27 28  1  0  0  0  0
 28 36  1  6  0  0  0
 28 32  1  0  0  0  0
 31 30  1  0  0  0  0
 32 33  1  0  0  0  0
 32 37  1  1  0  0  0
 33 31  1  1  0  0  0
 34 35  1  0  0  0  0
 35 29  1  1  0  0  0
 35 33  1  0  0  0  0
 37 30  1  0  0  0  0
 38 40  1  0  0  0  0
 40 39  1  0  0  0  0
M  END
>  <MODEL>
7

>  <REMARK>
 VINA RESULT:      -7.2      2.879      8.701
  Name = 
  13 active torsions:
  status: ('A' for Active; 'I' for Inactive)
    1  A    between atoms: C_1  and  C_2
    2  A    between atoms: C_1  and  O_26
    3  A    between atoms: C_2  and  C_6
    4  A    between atoms: C_2  and  O_37
    5  A    between atoms: C_4  and  C_14
    6  A    between atoms: C_5  and  N_16
    7  A    between atoms: C_6  and  C_32
    8  A    between atoms: C_8  and  N_16
    9  A    between atoms: C_8  and  C_18
   10  A    between atoms: C_11  and  O_37
   11  A    between atoms: C_14  and  O_26
   12  A    between atoms: C_20  and  O_34
   13  A    between atoms: O_34  and  C_40
                            x       y       z     vdW  Elec       q    Type
                         _______ _______ _______ _____ _____    ______ ____

>  <TORSDO>
F 13

$$$$
=
 OpenBabel11062413083D

 40 42  0  0  1  0  0  0  0  0999 V2000
  189.4260  176.8040  139.2710 O   0  0  0  0  0  1  0  0  0  0  0  0
  186.4800  178.4730  138.4640 C   0  0  0  0  0  0  0  0  0  0  0  0
  187.7530  177.5130  140.8380 C   0  0  1  0  0  3  0  0  0  0  0  0
  186.8070  178.6270  141.2800 C   0  0  0  0  0  2  0  0  0  0  0  0
  188.5790  177.8730  139.5870 C   0  0  2  0  0  3  0  0  0  0  0  0
  187.7600  178.2230  138.3680 C   0  0  0  0  0  0  0  0  0  0  0  0
  184.5350  178.5950  140.0090 C   0  0  2  0  0  3  0  0  0  0  0  0
  188.3820  178.3390  137.1280 O   0  0  0  0  0  1  0  0  0  0  0  0
  185.2190  178.7380  138.6670 C   0  0  0  0  0  3  0  0  0  0  0  0
  185.3760  178.0950  141.2120 C   0  0  2  0  0  3  0  0  0  0  0  0
  183.2980  177.7040  139.8880 C   0  0  2  0  0  3  0  0  0  0  0  0
  183.4220  176.7870  138.8400 O   0  0  0  0  0  1  0  0  0  0  0  0
  181.9880  178.4880  139.8150 C   0  0  2  0  0  3  0  0  0  0  0  0
  180.9080  177.7410  140.5260 C   0  0  0  0  0  0  0  0  0  0  0  0
  180.6700  177.9780  141.7420 O   0  0  0  0  0  0  0  0  0  0  0  0
  180.1580  176.7920  139.8300 O   0  0  0  0  0  0  0  0  0  0  0  0
  180.3940  175.3960  139.9660 C   0  0  1  0  0  3  0  0  0  0  0  0
  179.2590  174.7610  140.7440 C   0  0  0  0  0  1  0  0  0  0  0  0
  180.5750  174.7170  138.6080 C   0  0  2  0  0  3  0  0  0  0  0  0
  180.1690  175.5770  137.5910 O   0  0  0  0  0  1  0  0  0  0  0  0
  179.8010  173.4090  138.5110 C   0  0  0  0  0  1  0  0  0  0  0  0
  181.6150  178.7230  138.4860 O   0  0  0  0  0  0  0  0  0  0  0  0
  181.1760  180.0470  138.4560 C   0  0  0  0  0  2  0  0  0  0  0  0
  182.2760  180.9070  138.4740 O   0  0  0  0  0  1  0  0  0  0  0  0
  188.6480  177.1220  142.0100 C   0  0  0  0  0  2  0  0  0  0  0  0
  188.4530  178.0480  143.1140 N   0  0  0  0  0  2  0  0  0  0  0  0
  188.2840  177.2520  144.3230 C   0  0  1  0  0  3  0  0  0  0  0  0
  189.3460  177.6350  145.3670 C   0  0  1  0  0  3  0  0  0  0  0  0
  184.9840  178.2920  146.6030 S   0  0  0  0  0  1  0  0  0  0  0  0
  188.9500  178.1890  148.8600 C   0  0  0  0  0  2  0  0  0  0  0  0
  187.7420  178.5320  148.2390 O   0  0  0  0  0  0  0  0  0  0  0  0
  188.9580  177.1090  146.7570 C   0  0  2  0  0  3  0  0  0  0  0  0
  187.5710  177.5870  147.2130 C   0  0  2  0  0  3  0  0  0  0  0  0
  186.8360  177.3470  144.8270 C   0  0  0  0  0  2  0  0  0  0  0  0
  186.7240  178.1880  146.0920 C   0  0  1  0  0  3  0  0  0  0  0  0
  190.6970  177.0670  144.9450 C   0  0  0  0  0  1  0  0  0  0  0  0
  189.8860  177.6390  147.8140 C   0  0  0  0  0  2  0  0  0  0  0  0
  184.7120  178.4060  142.4060 O   0  0  0  0  0  0  0  0  0  0  0  0
  184.4360  180.1450  143.8500 O   0  0  0  0  0  1  0  0  0  0  0  0
  185.1780  179.6680  142.7710 C   0  0  0  0  0  2  0  0  0  0  0  0
  2  9  2  0  0  0  0
  3  4  1  0  0  0  0
  3 25  1  1  0  0  0
  5  1  1  6  0  0  0
  5  3  1  0  0  0  0
  6  2  2  0  0  0  0
  6  5  1  0  0  0  0
  7 11  1  6  0  0  0
  7 10  1  0  0  0  0
  8  6  1  0  0  0  0
  9  7  1  0  0  0  0
 10  4  1  0  0  0  0
 10 38  1  1  0  0  0
 11 12  1  6  0  0  0
 13 22  1  6  0  0  0
 13 11  1  0  0  0  0
 13 14  1  0  0  0  0
 14 15  2  0  0  0  0
 16 17  1  0  0  0  0
 16 14  1  0  0  0  0
 17 18  1  6  0  0  0
 19 21  1  1  0  0  0
 19 17  1  0  0  0  0
 20 19  1  0  0  0  0
 23 24  1  0  0  0  0
 23 22  1  0  0  0  0
 25 26  1  0  0  0  0
 27 26  1  6  0  0  0
 27 34  1  0  0  0  0
 27 28  1  0  0  0  0
 28 36  1  6  0  0  0
 28 32  1  0  0  0  0
 31 30  1  0  0  0  0
 32 33  1  0  0  0  0
 32 37  1  1  0  0  0
 33 31  1  1  0  0  0
 34 35  1  0  0  0  0
 35 29  1  1  0  0  0
 35 33  1  0  0  0  0
 37 30  1  0  0  0  0
 38 40  1  0  0  0  0
 40 39  1  0  0  0  0
M  END
>  <MODEL>
8

>  <REMARK>
 VINA RESULT:      -7.0      2.948      9.054
  Name = 
  13 active torsions:
  status: ('A' for Active; 'I' for Inactive)
    1  A    between atoms: C_1  and  C_2
    2  A    between atoms: C_1  and  O_26
    3  A    between atoms: C_2  and  C_6
    4  A    between atoms: C_2  and  O_37
    5  A    between atoms: C_4  and  C_14
    6  A    between atoms: C_5  and  N_16
    7  A    between atoms: C_6  and  C_32
    8  A    between atoms: C_8  and  N_16
    9  A    between atoms: C_8  and  C_18
   10  A    between atoms: C_11  and  O_37
   11  A    between atoms: C_14  and  O_26
   12  A    between atoms: C_20  and  O_34
   13  A    between atoms: O_34  and  C_40
                            x       y       z     vdW  Elec       q    Type
                         _______ _______ _______ _____ _____    ______ ____

>  <TORSDO>
F 13

$$$$
=
 OpenBabel11062413083D

 40 42  0  0  1  0  0  0  0  0999 V2000
  190.5290  176.2790  141.7620 O   0  0  0  0  0  1  0  0  0  0  0  0
  190.4460  177.4800  138.4960 C   0  0  0  0  0  0  0  0  0  0  0  0
  188.6720  177.3990  140.7370 C   0  0  1  0  0  3  0  0  0  0  0  0
  188.2050  178.5610  139.8620 C   0  0  0  0  0  2  0  0  0  0  0  0
  190.2000  177.3600  140.9350 C   0  0  2  0  0  3  0  0  0  0  0  0
  191.0010  177.2600  139.6590 C   0  0  0  0  0  0  0  0  0  0  0  0
  188.3280  178.0290  137.3160 C   0  0  2  0  0  3  0  0  0  0  0  0
  192.3640  176.9860  139.7200 O   0  0  0  0  0  1  0  0  0  0  0  0
  189.8130  177.7490  137.3890 C   0  0  0  0  0  3  0  0  0  0  0  0
  187.5070  177.9830  138.6320 C   0  0  2  0  0  3  0  0  0  0  0  0
  187.6560  177.1030  136.3020 C   0  0  2  0  0  3  0  0  0  0  0  0
  186.4280  177.6140  135.8680 O   0  0  0  0  0  1  0  0  0  0  0  0
  187.5400  175.6570  136.7820 C   0  0  2  0  0  3  0  0  0  0  0  0
  188.2890  174.7520  135.8590 C   0  0  0  0  0  0  0  0  0  0  0  0
  187.9270  174.6360  134.6570 O   0  0  0  0  0  0  0  0  0  0  0  0
  189.3980  174.0530  136.3350 O   0  0  0  0  0  0  0  0  0  0  0  0
  190.7250  174.3840  135.9440 C   0  0  1  0  0  3  0  0  0  0  0  0
  191.6480  174.2910  137.1420 C   0  0  0  0  0  1  0  0  0  0  0  0
  191.2190  173.4960  134.8010 C   0  0  2  0  0  3  0  0  0  0  0  0
  190.8770  172.1690  135.0530 O   0  0  0  0  0  1  0  0  0  0  0  0
  192.7230  173.6070  134.5940 C   0  0  0  0  0  1  0  0  0  0  0  0
  186.2000  175.2580  136.8620 O   0  0  0  0  0  0  0  0  0  0  0  0
  186.2350  173.9420  137.3230 C   0  0  0  0  0  2  0  0  0  0  0  0
  185.3780  173.1530  136.5530 O   0  0  0  0  0  1  0  0  0  0  0  0
  187.9320  177.4490  142.0690 C   0  0  0  0  0  2  0  0  0  0  0  0
  188.8340  177.8860  143.1230 N   0  0  0  0  0  2  0  0  0  0  0  0
  188.4550  177.1800  144.3410 C   0  0  1  0  0  3  0  0  0  0  0  0
  189.3900  177.5700  145.4970 C   0  0  1  0  0  3  0  0  0  0  0  0
  184.9520  178.5480  146.0830 S   0  0  0  0  0  1  0  0  0  0  0  0
  188.5660  178.3680  148.8650 C   0  0  0  0  0  2  0  0  0  0  0  0
  187.4760  178.7370  148.0660 O   0  0  0  0  0  0  0  0  0  0  0  0
  188.7860  177.1570  146.8480 C   0  0  2  0  0  3  0  0  0  0  0  0
  187.3840  177.7390  147.0820 C   0  0  2  0  0  3  0  0  0  0  0  0
  186.9610  177.3890  144.6340 C   0  0  0  0  0  2  0  0  0  0  0  0
  186.7340  178.3140  145.8230 C   0  0  1  0  0  3  0  0  0  0  0  0
  190.7450  176.9010  145.2970 C   0  0  0  0  0  1  0  0  0  0  0  0
  189.5960  177.7010  147.9900 C   0  0  0  0  0  2  0  0  0  0  0  0
  186.2860  178.6440  138.4420 O   0  0  0  0  0  0  0  0  0  0  0  0
  184.5500  179.4670  139.6640 O   0  0  0  0  0  1  0  0  0  0  0  0
  185.6510  178.6140  139.6830 C   0  0  0  0  0  2  0  0  0  0  0  0
  2  6  2  0  0  0  0
  3  5  1  0  0  0  0
  3 25  1  1  0  0  0
  4  3  1  0  0  0  0
  5  1  1  1  0  0  0
  6  8  1  0  0  0  0
  6  5  1  0  0  0  0
  7 11  1  6  0  0  0
  7  9  1  0  0  0  0
  7 10  1  0  0  0  0
  9  2  2  0  0  0  0
 10 38  1  6  0  0  0
 10  4  1  0  0  0  0
 11 12  1  1  0  0  0
 11 13  1  0  0  0  0
 13 14  1  6  0  0  0
 13 22  1  0  0  0  0
 14 16  1  0  0  0  0
 15 14  2  0  0  0  0
 17 16  1  0  0  0  0
 17 18  1  1  0  0  0
 19 21  1  1  0  0  0
 19 20  1  0  0  0  0
 19 17  1  0  0  0  0
 22 23  1  0  0  0  0
 24 23  1  0  0  0  0
 25 26  1  0  0  0  0
 27 26  1  6  0  0  0
 27 34  1  0  0  0  0
 27 28  1  0  0  0  0
 28 36  1  6  0  0  0
 28 32  1  0  0  0  0
 31 30  1  0  0  0  0
 32 33  1  0  0  0  0
 32 37  1  1  0  0  0
 33 31  1  1  0  0  0
 34 35  1  0  0  0  0
 35 29  1  1  0  0  0
 35 33  1  0  0  0  0
 37 30  1  0  0  0  0
 38 40  1  0  0  0  0
 39 40  1  0  0  0  0
M  END
>  <MODEL>
9

>  <REMARK>
 VINA RESULT:      -6.9      3.396      8.949
  Name = 
  13 active torsions:
  status: ('A' for Active; 'I' for Inactive)
    1  A    between atoms: C_1  and  C_2
    2  A    between atoms: C_1  and  O_26
    3  A    between atoms: C_2  and  C_6
    4  A    between atoms: C_2  and  O_37
    5  A    between atoms: C_4  and  C_14
    6  A    between atoms: C_5  and  N_16
    7  A    between atoms: C_6  and  C_32
    8  A    between atoms: C_8  and  N_16
    9  A    between atoms: C_8  and  C_18
   10  A    between atoms: C_11  and  O_37
   11  A    between atoms: C_14  and  O_26
   12  A    between atoms: C_20  and  O_34
   13  A    between atoms: O_34  and  C_40
                            x       y       z     vdW  Elec       q    Type
                         _______ _______ _______ _____ _____    ______ ____

>  <TORSDO>
F 13

$$$$
