=
 OpenBabel11062414513D

 33 38  0  0  1  0  0  0  0  0999 V2000
  184.9580  179.6050  143.1630 O   0  0  0  0  0  1  0  0  0  0  0  0
  187.0750  178.7910  141.4970 C   0  0  0  0  0  3  0  0  0  0  0  0
  188.8350  177.1850  140.8130 C   0  0  1  0  0  3  0  0  0  0  0  0
  186.9790  178.3330  142.9050 C   0  0  0  0  0  0  0  0  0  0  0  0
  188.0320  177.8450  143.6220 C   0  0  0  0  0  0  0  0  0  0  0  0
  191.3100  175.7820  135.7500 N   0  0  0  0  0  0  0  0  0  0  0  0
  191.7040  177.2260  140.3680 C   0  0  0  0  0  0  0  0  0  0  0  0
  192.8060  176.5870  137.8950 C   0  0  0  0  0  0  0  0  0  0  0  0
  191.4010  176.4620  138.0570 C   0  0  0  0  0  0  0  0  0  0  0  0
  191.2510  177.5630  141.5790 C   0  0  0  0  0  3  0  0  0  0  0  0
  193.3850  176.3250  136.6960 N   0  0  0  0  0  0  0  0  0  0  0  0
  187.8880  177.5110  145.0830 C   0  0  0  0  0  2  0  0  0  0  0  0
  193.0760  177.2880  140.1440 C   0  0  0  0  0  3  0  0  0  0  0  0
  189.4280  177.7990  143.1340 C   0  0  0  0  0  3  0  0  0  0  0  0
  186.4660  177.1230  145.4490 C   0  0  0  0  0  2  0  0  0  0  0  0
  192.6490  175.9350  135.6300 C   0  0  0  0  0  3  0  0  0  0  0  0
  189.5080  176.8100  139.5210 C   0  0  0  0  0  3  0  0  0  0  0  0
  190.8380  176.8220  139.3190 C   0  0  0  0  0  0  0  0  0  0  0  0
  190.6630  176.0120  136.9230 C   0  0  0  0  0  0  0  0  0  0  0  0
  189.8180  177.5470  141.8850 C   0  0  0  0  0  0  0  0  0  0  0  0
  185.5860  178.4070  143.5100 C   0  0  1  0  0  3  0  0  0  0  0  0
  185.5500  178.2500  145.0280 C   0  0  0  0  0  2  0  0  0  0  0  0
  187.9000  178.3160  140.5660 C   0  0  0  0  0  3  0  0  0  0  0  0
  193.5890  176.9790  138.9300 N   0  0  0  0  0  0  0  0  0  0  0  0
  188.7460  174.5330  137.1320 N   0  0  0  0  0  0  0  0  0  0  0  0
  187.0870  175.9760  136.8010 C   0  0  0  0  0  0  0  0  0  0  0  0
  187.4110  174.6560  137.0400 C   0  0  0  0  0  0  0  0  0  0  0  0
  189.2590  175.7440  136.9720 N   0  0  0  0  0  0  0  0  0  0  0  0
  188.2910  176.6540  136.7380 C   0  0  0  0  0  3  0  0  0  0  0  0
  186.4600  173.5180  137.1630 C   0  0  0  0  0  1  0  0  0  0  0  0
  185.4280  177.4810  137.5710 O   0  0  0  0  0  1  0  0  0  0  0  0
  185.7210  176.5410  136.5830 C   0  0  1  0  0  3  0  0  0  0  0  0
  185.6330  177.1920  135.2170 C   0  0  0  0  0  1  0  0  0  0  0  0
  2  4  1  0  0  0  0
  3 17  1  6  0  0  0
  3 20  1  0  0  0  0
  4 21  1  0  0  0  0
  4  5  2  0  0  0  0
  5 12  1  0  0  0  0
  6 19  1  0  0  0  0
  7 10  2  0  0  0  0
  8  9  1  0  0  0  0
  8 24  1  0  0  0  0
  9 18  1  0  0  0  0
 10 20  1  0  0  0  0
 11  8  2  0  0  0  0
 12 15  1  0  0  0  0
 13  7  1  0  0  0  0
 14  5  1  0  0  0  0
 16  6  2  0  0  0  0
 16 11  1  0  0  0  0
 18 17  2  0  0  0  0
 18  7  1  0  0  0  0
 19 28  1  0  0  0  0
 19  9  2  0  0  0  0
 20 14  2  0  0  0  0
 21  1  1  1  0  0  0
 21 22  1  0  0  0  0
 22 15  1  0  0  0  0
 23  3  1  0  0  0  0
 23  2  2  0  0  0  0
 24 13  2  0  0  0  0
 26 27  1  0  0  0  0
 27 25  2  0  0  0  0
 27 30  1  0  0  0  0
 28 25  1  0  0  0  0
 29 26  2  0  0  0  0
 29 28  1  0  0  0  0
 32 33  1  6  0  0  0
 32 26  1  0  0  0  0
 32 31  1  0  0  0  0
M  END
>  <MODEL>
1

>  <REMARK>
 VINA RESULT:      -9.4      0.000      0.000
  Name = 
  2 active torsions:
  status: ('A' for Active; 'I' for Inactive)
    1  A    between atoms: C_11  and  C_24
    2  A    between atoms: N_17  and  C_27
                            x       y       z     vdW  Elec       q    Type
                         _______ _______ _______ _____ _____    ______ ____

>  <TORSDO>
F 2

$$$$
=
 OpenBabel11062414513D

 33 38  0  0  1  0  0  0  0  0999 V2000
  185.0680  179.7310  143.0300 O   0  0  0  0  0  1  0  0  0  0  0  0
  187.1510  178.8810  141.3390 C   0  0  0  0  0  3  0  0  0  0  0  0
  188.8300  177.2170  140.5930 C   0  0  1  0  0  3  0  0  0  0  0  0
  187.0230  178.3690  142.7260 C   0  0  0  0  0  0  0  0  0  0  0  0
  188.0450  177.7970  143.4250 C   0  0  0  0  0  0  0  0  0  0  0  0
  191.2600  175.9050  135.4840 N   0  0  0  0  0  0  0  0  0  0  0  0
  191.7000  177.1280  140.1620 C   0  0  0  0  0  0  0  0  0  0  0  0
  192.7820  176.5390  137.6680 C   0  0  0  0  0  0  0  0  0  0  0  0
  191.3730  176.4810  137.8190 C   0  0  0  0  0  0  0  0  0  0  0  0
  191.2580  177.4360  141.3840 C   0  0  0  0  0  3  0  0  0  0  0  0
  193.3550  176.2990  136.4610 N   0  0  0  0  0  0  0  0  0  0  0  0
  187.8750  177.4090  144.8700 C   0  0  0  0  0  2  0  0  0  0  0  0
  193.0750  177.1290  139.9460 C   0  0  0  0  0  3  0  0  0  0  0  0
  189.4400  177.6990  142.9400 C   0  0  0  0  0  3  0  0  0  0  0  0
  186.4330  177.0790  145.2130 C   0  0  0  0  0  2  0  0  0  0  0  0
  192.6070  175.9940  135.3760 C   0  0  0  0  0  3  0  0  0  0  0  0
  189.4910  176.8640  139.2890 C   0  0  0  0  0  3  0  0  0  0  0  0
  190.8210  176.8150  139.0930 C   0  0  0  0  0  0  0  0  0  0  0  0
  190.6190  176.1180  136.6630 C   0  0  0  0  0  0  0  0  0  0  0  0
  189.8240  177.4820  141.6840 C   0  0  0  0  0  0  0  0  0  0  0  0
  185.6320  178.4890  143.3280 C   0  0  1  0  0  3  0  0  0  0  0  0
  185.5780  178.2700  144.8370 C   0  0  0  0  0  2  0  0  0  0  0  0
  187.9560  178.4050  140.3910 C   0  0  0  0  0  3  0  0  0  0  0  0
  193.5790  176.8460  138.7220 N   0  0  0  0  0  0  0  0  0  0  0  0
  188.3220  176.9130  136.6920 N   0  0  0  0  0  0  0  0  0  0  0  0
  187.2340  174.9870  136.9180 C   0  0  0  0  0  0  0  0  0  0  0  0
  187.1060  176.3570  136.8170 C   0  0  0  0  0  0  0  0  0  0  0  0
  189.2030  175.9220  136.6950 N   0  0  0  0  0  0  0  0  0  0  0  0
  188.5920  174.7310  136.8590 C   0  0  0  0  0  3  0  0  0  0  0  0
  185.8370  177.1340  136.8580 C   0  0  0  0  0  1  0  0  0  0  0  0
  185.3640  173.8920  135.9620 O   0  0  0  0  0  1  0  0  0  0  0  0
  186.1360  173.9940  137.1200 C   0  0  1  0  0  3  0  0  0  0  0  0
  186.7120  172.6370  137.4700 C   0  0  0  0  0  1  0  0  0  0  0  0
  2  4  1  0  0  0  0
  3 17  1  6  0  0  0
  3 20  1  0  0  0  0
  4 21  1  0  0  0  0
  4  5  2  0  0  0  0
  5 12  1  0  0  0  0
  6 19  1  0  0  0  0
  7 10  2  0  0  0  0
  8  9  1  0  0  0  0
  8 24  1  0  0  0  0
  9 18  1  0  0  0  0
 10 20  1  0  0  0  0
 11  8  2  0  0  0  0
 12 15  1  0  0  0  0
 13  7  1  0  0  0  0
 14  5  1  0  0  0  0
 16  6  2  0  0  0  0
 16 11  1  0  0  0  0
 18 17  2  0  0  0  0
 18  7  1  0  0  0  0
 19 28  1  0  0  0  0
 19  9  2  0  0  0  0
 20 14  2  0  0  0  0
 21  1  1  1  0  0  0
 21 22  1  0  0  0  0
 22 15  1  0  0  0  0
 23  3  1  0  0  0  0
 23  2  2  0  0  0  0
 24 13  2  0  0  0  0
 25 28  1  0  0  0  0
 25 27  2  0  0  0  0
 26 32  1  0  0  0  0
 27 30  1  0  0  0  0
 27 26  1  0  0  0  0
 28 29  1  0  0  0  0
 29 26  2  0  0  0  0
 31 32  1  0  0  0  0
 32 33  1  6  0  0  0
M  END
>  <MODEL>
2

>  <REMARK>
 VINA RESULT:      -9.0      0.862      1.540
  Name = 
  2 active torsions:
  status: ('A' for Active; 'I' for Inactive)
    1  A    between atoms: C_11  and  C_24
    2  A    between atoms: N_17  and  C_27
                            x       y       z     vdW  Elec       q    Type
                         _______ _______ _______ _____ _____    ______ ____

>  <TORSDO>
F 2

$$$$
=
 OpenBabel11062414513D

 33 38  0  0  1  0  0  0  0  0999 V2000
  185.5970  179.2150  137.6610 O   0  0  0  0  0  1  0  0  0  0  0  0
  186.1180  179.0730  140.4240 C   0  0  0  0  0  3  0  0  0  0  0  0
  186.0620  177.9050  142.6090 C   0  0  0  0  0  0  0  0  0  0  0  0
  185.0030  178.3130  139.8060 C   0  0  0  0  0  0  0  0  0  0  0  0
  183.9340  177.8280  140.5020 C   0  0  0  0  0  0  0  0  0  0  0  0
  189.4250  177.9760  147.3430 N   0  0  0  0  0  0  0  0  0  0  0  0
  185.0520  178.4270  145.2820 C   0  0  0  0  0  0  0  0  0  0  0  0
  186.7420  178.4920  147.4910 C   0  0  0  0  0  0  0  0  0  0  0  0
  187.2960  178.1470  146.2310 C   0  0  0  0  0  0  0  0  0  0  0  0
  184.1800  178.4300  144.2690 C   0  0  0  0  0  3  0  0  0  0  0  0
  187.5320  178.5760  148.5910 N   0  0  0  0  0  0  0  0  0  0  0  0
  182.7810  177.1690  139.7920 C   0  0  0  0  0  2  0  0  0  0  0  0
  184.5750  178.7200  146.5550 C   0  0  0  0  0  3  0  0  0  0  0  0
  183.6870  178.0760  141.9390 C   0  0  0  0  0  3  0  0  0  0  0  0
  183.2010  176.5230  138.4830 C   0  0  0  0  0  2  0  0  0  0  0  0
  188.8610  178.3310  148.5220 C   0  0  0  0  0  3  0  0  0  0  0  0
  186.9010  177.9130  143.8570 C   0  0  0  0  0  3  0  0  0  0  0  0
  186.4310  178.1470  145.0960 C   0  0  0  0  0  0  0  0  0  0  0  0
  188.6930  177.8580  146.2040 C   0  0  0  0  0  0  0  0  0  0  0  0
  184.6110  178.1560  142.8950 C   0  0  2  0  0  3  0  0  0  0  0  0
  185.1440  178.0660  138.3130 C   0  0  1  0  0  3  0  0  0  0  0  0
  183.8670  177.5820  137.6320 C   0  0  0  0  0  2  0  0  0  0  0  0
  186.5850  178.9270  141.6620 C   0  0  0  0  0  3  0  0  0  0  0  0
  185.4160  178.7530  147.6140 N   0  0  0  0  0  0  0  0  0  0  0  0
  189.9450  176.2120  144.9260 N   0  0  0  0  0  0  0  0  0  0  0  0
  190.3400  177.3650  143.0660 C   0  0  0  0  0  0  0  0  0  0  0  0
  190.5420  176.1690  143.7230 C   0  0  0  0  0  0  0  0  0  0  0  0
  189.3640  177.4000  145.0270 N   0  0  0  0  0  0  0  0  0  0  0  0
  189.5990  178.1500  143.9310 C   0  0  0  0  0  3  0  0  0  0  0  0
  191.3110  174.9980  143.2190 C   0  0  0  0  0  1  0  0  0  0  0  0
  192.2050  177.3530  141.6050 O   0  0  0  0  0  1  0  0  0  0  0  0
  190.8740  177.7550  141.7260 C   0  0  1  0  0  3  0  0  0  0  0  0
  190.0460  177.1200  140.6260 C   0  0  0  0  0  1  0  0  0  0  0  0
  2 23  1  0  0  0  0
  3 20  1  0  0  0  0
  3 17  1  0  0  0  0
  4  2  2  0  0  0  0
  4  5  1  0  0  0  0
  5 14  2  0  0  0  0
  6 16  2  0  0  0  0
  7 13  1  0  0  0  0
  8 24  1  0  0  0  0
  8 11  2  0  0  0  0
  9  8  1  0  0  0  0
 10  7  2  0  0  0  0
 12  5  1  0  0  0  0
 13 24  2  0  0  0  0
 15 12  1  0  0  0  0
 16 11  1  0  0  0  0
 17 18  2  0  0  0  0
 18  7  1  0  0  0  0
 18  9  1  0  0  0  0
 19  9  2  0  0  0  0
 19  6  1  0  0  0  0
 20 14  1  1  0  0  0
 20 10  1  0  0  0  0
 21  1  1  6  0  0  0
 21  4  1  0  0  0  0
 22 21  1  0  0  0  0
 22 15  1  0  0  0  0
 23  3  2  0  0  0  0
 25 28  1  0  0  0  0
 26 27  1  0  0  0  0
 26 29  2  0  0  0  0
 27 25  2  0  0  0  0
 28 19  1  0  0  0  0
 29 28  1  0  0  0  0
 30 27  1  0  0  0  0
 31 32  1  0  0  0  0
 32 33  1  6  0  0  0
 32 26  1  0  0  0  0
M  END
>  <MODEL>
3

>  <REMARK>
 VINA RESULT:      -8.2      4.426      8.103
  Name = 
  2 active torsions:
  status: ('A' for Active; 'I' for Inactive)
    1  A    between atoms: C_11  and  C_24
    2  A    between atoms: N_17  and  C_27
                            x       y       z     vdW  Elec       q    Type
                         _______ _______ _______ _____ _____    ______ ____

>  <TORSDO>
F 2

$$$$
=
 OpenBabel11062414513D

 33 38  0  0  1  0  0  0  0  0999 V2000
  181.9300  180.3390  137.9930 O   0  0  0  0  0  1  0  0  0  0  0  0
  184.0240  179.7380  139.7760 C   0  0  0  0  0  3  0  0  0  0  0  0
  185.2640  178.1880  141.2600 C   0  0  0  0  0  0  0  0  0  0  0  0
  182.7320  179.0090  139.8250 C   0  0  0  0  0  0  0  0  0  0  0  0
  182.2910  178.3120  140.9120 C   0  0  0  0  0  0  0  0  0  0  0  0
  190.8180  177.6820  142.8780 N   0  0  0  0  0  0  0  0  0  0  0  0
  186.1230  178.1180  144.0330 C   0  0  0  0  0  0  0  0  0  0  0  0
  188.8110  177.9240  144.7220 C   0  0  0  0  0  0  0  0  0  0  0  0
  188.4640  177.8670  143.3470 C   0  0  0  0  0  0  0  0  0  0  0  0
  184.8150  178.2300  143.7830 C   0  0  0  0  0  3  0  0  0  0  0  0
  190.1110  177.8730  145.1060 N   0  0  0  0  0  0  0  0  0  0  0  0
  180.9170  177.6970  140.9340 C   0  0  0  0  0  2  0  0  0  0  0  0
  186.5360  178.1290  145.3610 C   0  0  0  0  0  3  0  0  0  0  0  0
  182.9860  178.2690  142.2180 C   0  0  0  0  0  3  0  0  0  0  0  0
  180.4210  177.3420  139.5430 C   0  0  0  0  0  2  0  0  0  0  0  0
  191.1090  177.7630  144.1980 C   0  0  0  0  0  3  0  0  0  0  0  0
  186.6900  178.0390  141.7120 C   0  0  0  0  0  2  0  0  0  0  0  0
  187.0860  177.9990  142.9970 C   0  0  0  0  0  0  0  0  0  0  0  0
  189.5390  177.7120  142.4210 C   0  0  0  0  0  0  0  0  0  0  0  0
  184.3030  178.2530  142.4090 C   0  0  0  0  0  0  0  0  0  0  0  0
  181.9200  179.0540  138.5410 C   0  0  1  0  0  3  0  0  0  0  0  0
  180.4730  178.5930  138.6940 C   0  0  0  0  0  2  0  0  0  0  0  0
  185.1430  179.4080  140.4160 C   0  0  0  0  0  3  0  0  0  0  0  0
  187.8500  178.0400  145.6730 N   0  0  0  0  0  0  0  0  0  0  0  0
  189.6690  176.4430  140.3520 N   0  0  0  0  0  0  0  0  0  0  0  0
  188.9040  177.9520  138.9080 C   0  0  0  0  0  0  0  0  0  0  0  0
  189.4050  176.6740  139.0550 C   0  0  0  0  0  0  0  0  0  0  0  0
  189.3290  177.5380  141.0170 N   0  0  0  0  0  0  0  0  0  0  0  0
  188.8850  178.4970  140.1790 C   0  0  0  0  0  3  0  0  0  0  0  0
  189.6480  175.6870  137.9690 C   0  0  0  0  0  1  0  0  0  0  0  0
  189.4320  178.2840  136.6230 O   0  0  0  0  0  1  0  0  0  0  0  0
  188.5290  178.6280  137.6290 C   0  0  1  0  0  3  0  0  0  0  0  0
  187.1270  178.2280  137.2160 C   0  0  0  0  0  1  0  0  0  0  0  0
  2  4  2  0  0  0  0
  2 23  1  0  0  0  0
  3 17  1  0  0  0  0
  3 20  1  0  0  0  0
  4  5  1  0  0  0  0
  5 12  1  0  0  0  0
  5 14  2  0  0  0  0
  6 16  2  0  0  0  0
  7 13  1  0  0  0  0
  8 11  2  0  0  0  0
  8 24  1  0  0  0  0
  9  8  1  0  0  0  0
 10  7  1  0  0  0  0
 13 24  2  0  0  0  0
 14 20  1  0  0  0  0
 15 12  1  0  0  0  0
 16 11  1  0  0  0  0
 17 18  1  0  0  0  0
 18  9  1  0  0  0  0
 18  7  2  0  0  0  0
 19  6  1  0  0  0  0
 19  9  2  0  0  0  0
 20 10  2  0  0  0  0
 21  1  1  1  0  0  0
 21 22  1  0  0  0  0
 21  4  1  0  0  0  0
 22 15  1  0  0  0  0
 23  3  2  0  0  0  0
 25 28  1  0  0  0  0
 26 27  1  0  0  0  0
 26 29  2  0  0  0  0
 27 25  2  0  0  0  0
 28 19  1  0  0  0  0
 29 28  1  0  0  0  0
 30 27  1  0  0  0  0
 31 32  1  0  0  0  0
 32 33  1  6  0  0  0
 32 26  1  0  0  0  0
M  END
>  <MODEL>
4

>  <REMARK>
 VINA RESULT:      -7.9      3.683      6.092
  Name = 
  2 active torsions:
  status: ('A' for Active; 'I' for Inactive)
    1  A    between atoms: C_11  and  C_24
    2  A    between atoms: N_17  and  C_27
                            x       y       z     vdW  Elec       q    Type
                         _______ _______ _______ _____ _____    ______ ____

>  <TORSDO>
F 2

$$$$
=
 OpenBabel11062414513D

 33 38  0  0  1  0  0  0  0  0999 V2000
  184.3740  180.5030  139.0510 O   0  0  0  0  0  1  0  0  0  0  0  0
  185.9570  179.6220  141.2060 C   0  0  0  0  0  3  0  0  0  0  0  0
  186.7040  177.8910  142.8130 C   0  0  0  0  0  0  0  0  0  0  0  0
  184.6350  179.0130  140.9160 C   0  0  0  0  0  0  0  0  0  0  0  0
  183.9060  178.3040  141.8260 C   0  0  0  0  0  0  0  0  0  0  0  0
  191.6910  176.7970  145.5810 N   0  0  0  0  0  0  0  0  0  0  0  0
  186.9040  177.5990  145.6960 C   0  0  0  0  0  0  0  0  0  0  0  0
  189.3430  177.1250  146.9470 C   0  0  0  0  0  0  0  0  0  0  0  0
  189.3140  177.1720  145.5290 C   0  0  0  0  0  0  0  0  0  0  0  0
  185.7000  177.8430  145.1710 C   0  0  0  0  0  3  0  0  0  0  0  0
  190.5150  176.9360  147.6050 N   0  0  0  0  0  0  0  0  0  0  0  0
  182.5200  177.8160  141.5000 C   0  0  0  0  0  2  0  0  0  0  0  0
  187.0060  177.5030  147.0800 C   0  0  0  0  0  3  0  0  0  0  0  0
  184.2820  178.1300  143.2470 C   0  0  0  0  0  3  0  0  0  0  0  0
  182.3260  177.5800  140.0120 C   0  0  0  0  0  2  0  0  0  0  0  0
  191.6800  176.7830  146.9350 C   0  0  0  0  0  3  0  0  0  0  0  0
  187.9750  177.5890  143.5590 C   0  0  0  0  0  2  0  0  0  0  0  0
  188.0660  177.4470  144.8940 C   0  0  0  0  0  0  0  0  0  0  0  0
  190.5550  176.9670  144.8560 C   0  0  0  0  0  0  0  0  0  0  0  0
  185.5170  177.9830  143.7240 C   0  0  0  0  0  0  0  0  0  0  0  0
  184.1410  179.1980  139.4910 C   0  0  1  0  0  3  0  0  0  0  0  0
  182.6660  178.8640  139.2870 C   0  0  0  0  0  2  0  0  0  0  0  0
  186.8730  179.1580  142.0530 C   0  0  0  0  0  3  0  0  0  0  0  0
  188.2040  177.2790  147.6680 N   0  0  0  0  0  0  0  0  0  0  0  0
  191.7120  177.2990  142.7450 N   0  0  0  0  0  0  0  0  0  0  0  0
  190.1370  176.6470  141.3170 C   0  0  0  0  0  0  0  0  0  0  0  0
  191.4160  177.1500  141.4430 C   0  0  0  0  0  0  0  0  0  0  0  0
  190.6560  176.8860  143.4320 N   0  0  0  0  0  0  0  0  0  0  0  0
  189.6590  176.5050  142.6070 C   0  0  0  0  0  3  0  0  0  0  0  0
  192.3430  177.5030  140.3340 C   0  0  0  0  0  1  0  0  0  0  0  0
  188.6710  177.5070  139.6670 O   0  0  0  0  0  1  0  0  0  0  0  0
  189.3990  176.3780  140.0460 C   0  0  1  0  0  3  0  0  0  0  0  0
  190.3690  176.0030  138.9440 C   0  0  0  0  0  1  0  0  0  0  0  0
  2 23  1  0  0  0  0
  3 17  1  0  0  0  0
  3 20  1  0  0  0  0
  4  2  2  0  0  0  0
  4  5  1  0  0  0  0
  5 14  2  0  0  0  0
  6 16  2  0  0  0  0
  7 13  1  0  0  0  0
  8 11  2  0  0  0  0
  8 24  1  0  0  0  0
  9  8  1  0  0  0  0
 10  7  1  0  0  0  0
 12  5  1  0  0  0  0
 13 24  2  0  0  0  0
 14 20  1  0  0  0  0
 15 12  1  0  0  0  0
 16 11  1  0  0  0  0
 17 18  1  0  0  0  0
 18  9  1  0  0  0  0
 18  7  2  0  0  0  0
 19  9  2  0  0  0  0
 19  6  1  0  0  0  0
 20 10  2  0  0  0  0
 21  1  1  1  0  0  0
 21  4  1  0  0  0  0
 22 21  1  0  0  0  0
 22 15  1  0  0  0  0
 23  3  2  0  0  0  0
 25 28  1  0  0  0  0
 26 27  1  0  0  0  0
 26 29  2  0  0  0  0
 27 25  2  0  0  0  0
 28 19  1  0  0  0  0
 29 28  1  0  0  0  0
 30 27  1  0  0  0  0
 31 32  1  0  0  0  0
 32 33  1  6  0  0  0
 32 26  1  0  0  0  0
M  END
>  <MODEL>
5

>  <REMARK>
 VINA RESULT:      -7.7      3.659      6.785
  Name = 
  2 active torsions:
  status: ('A' for Active; 'I' for Inactive)
    1  A    between atoms: C_11  and  C_24
    2  A    between atoms: N_17  and  C_27
                            x       y       z     vdW  Elec       q    Type
                         _______ _______ _______ _____ _____    ______ ____

>  <TORSDO>
F 2

$$$$
=
 OpenBabel11062414513D

 33 38  0  0  1  0  0  0  0  0999 V2000
  189.7650  178.9680  136.6930 O   0  0  0  0  0  1  0  0  0  0  0  0
  188.4160  178.9740  139.1640 C   0  0  0  0  0  3  0  0  0  0  0  0
  186.9460  177.9280  140.8620 C   0  0  0  0  0  0  0  0  0  0  0  0
  187.9140  178.1880  138.0090 C   0  0  0  0  0  0  0  0  0  0  0  0
  186.6290  177.7470  137.8880 C   0  0  0  0  0  0  0  0  0  0  0  0
  186.5570  178.2390  146.6480 N   0  0  0  0  0  0  0  0  0  0  0  0
  184.4950  178.6000  142.2670 C   0  0  0  0  0  0  0  0  0  0  0  0
  184.4080  178.7760  145.0420 C   0  0  0  0  0  0  0  0  0  0  0  0
  185.6200  178.3610  144.4330 C   0  0  0  0  0  0  0  0  0  0  0  0
  184.4610  178.5520  140.9330 C   0  0  0  0  0  3  0  0  0  0  0  0
  184.3270  178.9160  146.3900 N   0  0  0  0  0  0  0  0  0  0  0  0
  186.1600  177.0570  136.6350 C   0  0  0  0  0  2  0  0  0  0  0  0
  183.3320  178.9640  142.9370 C   0  0  0  0  0  3  0  0  0  0  0  0
  185.5390  178.0740  138.8340 C   0  0  0  0  0  3  0  0  0  0  0  0
  187.2880  176.3380  135.9150 C   0  0  0  0  0  2  0  0  0  0  0  0
  185.3890  178.6600  147.1880 C   0  0  0  0  0  3  0  0  0  0  0  0
  186.8070  177.9990  142.3580 C   0  0  0  0  0  3  0  0  0  0  0  0
  185.6690  178.3020  143.0080 C   0  0  0  0  0  0  0  0  0  0  0  0
  186.7070  178.0630  145.3090 C   0  0  0  0  0  0  0  0  0  0  0  0
  185.6520  178.2010  140.1540 C   0  0  2  0  0  3  0  0  0  0  0  0
  188.9580  177.8590  136.9540 C   0  0  1  0  0  3  0  0  0  0  0  0
  188.3830  177.3440  135.6380 C   0  0  0  0  0  2  0  0  0  0  0  0
  187.9890  178.8930  140.4220 C   0  0  0  0  0  3  0  0  0  0  0  0
  183.3140  179.0510  144.2880 N   0  0  0  0  0  0  0  0  0  0  0  0
  188.0520  176.5950  143.9150 N   0  0  0  0  0  0  0  0  0  0  0  0
  190.0850  177.0590  144.6890 C   0  0  0  0  0  0  0  0  0  0  0  0
  189.3570  176.2950  143.8000 C   0  0  0  0  0  0  0  0  0  0  0  0
  187.9520  177.5370  144.8420 N   0  0  0  0  0  0  0  0  0  0  0  0
  189.1600  177.8340  145.3640 C   0  0  0  0  0  3  0  0  0  0  0  0
  189.8950  175.2750  142.8590 C   0  0  0  0  0  1  0  0  0  0  0  0
  192.1040  178.2870  144.8400 O   0  0  0  0  0  1  0  0  0  0  0  0
  191.5600  177.0050  144.9220 C   0  0  1  0  0  3  0  0  0  0  0  0
  191.8550  176.4110  146.2840 C   0  0  0  0  0  1  0  0  0  0  0  0
  2 23  1  0  0  0  0
  3 17  1  0  0  0  0
  4  2  2  0  0  0  0
  5  4  1  0  0  0  0
  5 14  2  0  0  0  0
  6 16  2  0  0  0  0
  7 13  1  0  0  0  0
  7 18  1  0  0  0  0
  8 11  2  0  0  0  0
  9  8  1  0  0  0  0
  9 19  2  0  0  0  0
 10  7  2  0  0  0  0
 11 16  1  0  0  0  0
 12  5  1  0  0  0  0
 13 24  2  0  0  0  0
 15 12  1  0  0  0  0
 17 18  2  0  0  0  0
 18  9  1  0  0  0  0
 19  6  1  0  0  0  0
 20 14  1  1  0  0  0
 20  3  1  0  0  0  0
 20 10  1  0  0  0  0
 21  1  1  6  0  0  0
 21  4  1  0  0  0  0
 22 15  1  0  0  0  0
 22 21  1  0  0  0  0
 23  3  2  0  0  0  0
 24  8  1  0  0  0  0
 25 28  1  0  0  0  0
 26 32  1  0  0  0  0
 26 29  2  0  0  0  0
 27 25  2  0  0  0  0
 27 26  1  0  0  0  0
 28 19  1  0  0  0  0
 28 29  1  0  0  0  0
 30 27  1  0  0  0  0
 31 32  1  0  0  0  0
 32 33  1  1  0  0  0
M  END
>  <MODEL>
6

>  <REMARK>
 VINA RESULT:      -7.6      4.327      8.645
  Name = 
  2 active torsions:
  status: ('A' for Active; 'I' for Inactive)
    1  A    between atoms: C_11  and  C_24
    2  A    between atoms: N_17  and  C_27
                            x       y       z     vdW  Elec       q    Type
                         _______ _______ _______ _____ _____    ______ ____

>  <TORSDO>
F 2

$$$$
=
 OpenBabel11062414513D

 33 38  0  0  1  0  0  0  0  0999 V2000
  195.6480  175.3770  137.5580 O   0  0  0  0  0  1  0  0  0  0  0  0
  193.0980  176.3720  138.2170 C   0  0  0  0  0  3  0  0  0  0  0  0
  190.6880  176.0740  138.7080 C   0  0  0  0  0  0  0  0  0  0  0  0
  193.2630  175.1130  137.4490 C   0  0  0  0  0  0  0  0  0  0  0  0
  192.2850  174.5560  136.6790 C   0  0  0  0  0  0  0  0  0  0  0  0
  186.8300  178.9050  141.9990 N   0  0  0  0  0  0  0  0  0  0  0  0
  188.1630  177.0920  137.6970 C   0  0  0  0  0  0  0  0  0  0  0  0
  186.3920  178.4820  139.3320 C   0  0  0  0  0  0  0  0  0  0  0  0
  187.5660  177.9430  139.9180 C   0  0  0  0  0  0  0  0  0  0  0  0
  188.9670  176.4490  136.8460 C   0  0  0  0  0  3  0  0  0  0  0  0
  185.5170  179.2020  140.0790 N   0  0  0  0  0  0  0  0  0  0  0  0
  192.5600  173.3410  135.8330 C   0  0  0  0  0  2  0  0  0  0  0  0
  186.9730  177.6160  137.2010 C   0  0  0  0  0  3  0  0  0  0  0  0
  190.9670  175.1780  136.4210 C   0  0  0  0  0  3  0  0  0  0  0  0
  193.6680  172.4760  136.4090 C   0  0  0  0  0  2  0  0  0  0  0  0
  185.7330  179.4220  141.3960 C   0  0  0  0  0  3  0  0  0  0  0  0
  189.6600  176.7940  139.5370 C   0  0  0  0  0  3  0  0  0  0  0  0
  188.4870  177.2580  139.0690 C   0  0  0  0  0  0  0  0  0  0  0  0
  187.7410  178.1620  141.3170 C   0  0  0  0  0  0  0  0  0  0  0  0
  190.2490  175.8910  137.2860 C   0  0  2  0  0  3  0  0  0  0  0  0
  194.6160  174.4370  137.6070 C   0  0  1  0  0  3  0  0  0  0  0  0
  194.8960  173.3420  136.5820 C   0  0  0  0  0  2  0  0  0  0  0  0
  191.9700  176.8260  138.7600 C   0  0  0  0  0  3  0  0  0  0  0  0
  186.1300  178.2960  138.0140 N   0  0  0  0  0  0  0  0  0  0  0  0
  188.9970  176.2880  142.2220 N   0  0  0  0  0  0  0  0  0  0  0  0
  190.5370  177.3710  143.4050 C   0  0  0  0  0  0  0  0  0  0  0  0
  190.0520  176.1320  143.0380 C   0  0  0  0  0  0  0  0  0  0  0  0
  188.8230  177.5920  142.0590 N   0  0  0  0  0  0  0  0  0  0  0  0
  189.7180  178.2950  142.7810 C   0  0  0  0  0  3  0  0  0  0  0  0
  190.5780  174.8100  143.4750 C   0  0  0  0  0  1  0  0  0  0  0  0
  192.0080  179.0050  144.2880 O   0  0  0  0  0  1  0  0  0  0  0  0
  191.6690  177.6520  144.3400 C   0  0  1  0  0  3  0  0  0  0  0  0
  191.2850  177.2760  145.7570 C   0  0  0  0  0  1  0  0  0  0  0  0
  2 23  1  0  0  0  0
  3 23  2  0  0  0  0
  3 17  1  0  0  0  0
  4 21  1  0  0  0  0
  4  2  2  0  0  0  0
  5  4  1  0  0  0  0
  7 18  1  0  0  0  0
  8  9  1  0  0  0  0
  8 11  2  0  0  0  0
  9 19  2  0  0  0  0
 10 20  1  0  0  0  0
 10  7  2  0  0  0  0
 11 16  1  0  0  0  0
 12 15  1  0  0  0  0
 12  5  1  0  0  0  0
 13  7  1  0  0  0  0
 13 24  2  0  0  0  0
 14  5  2  0  0  0  0
 15 22  1  0  0  0  0
 16  6  2  0  0  0  0
 18 17  2  0  0  0  0
 18  9  1  0  0  0  0
 19  6  1  0  0  0  0
 19 28  1  0  0  0  0
 20 14  1  1  0  0  0
 20  3  1  0  0  0  0
 21  1  1  6  0  0  0
 22 21  1  0  0  0  0
 24  8  1  0  0  0  0
 25 27  2  0  0  0  0
 26 32  1  0  0  0  0
 27 26  1  0  0  0  0
 27 30  1  0  0  0  0
 28 25  1  0  0  0  0
 28 29  1  0  0  0  0
 29 26  2  0  0  0  0
 31 32  1  0  0  0  0
 32 33  1  1  0  0  0
M  END
>  <MODEL>
7

>  <REMARK>
 VINA RESULT:      -7.5      3.531      8.111
  Name = 
  2 active torsions:
  status: ('A' for Active; 'I' for Inactive)
    1  A    between atoms: C_11  and  C_24
    2  A    between atoms: N_17  and  C_27
                            x       y       z     vdW  Elec       q    Type
                         _______ _______ _______ _____ _____    ______ ____

>  <TORSDO>
F 2

$$$$
=
 OpenBabel11062414513D

 33 38  0  0  1  0  0  0  0  0999 V2000
  187.0120  176.4770  135.6560 O   0  0  0  0  0  1  0  0  0  0  0  0
  185.2490  177.1370  137.7490 C   0  0  0  0  0  3  0  0  0  0  0  0
  184.4040  178.6710  139.5020 C   0  0  0  0  0  0  0  0  0  0  0  0
  186.6160  177.7120  137.6770 C   0  0  0  0  0  0  0  0  0  0  0  0
  187.2720  178.2540  138.7430 C   0  0  0  0  0  0  0  0  0  0  0  0
  179.2020  179.6310  141.9000 N   0  0  0  0  0  0  0  0  0  0  0  0
  183.9200  178.5790  142.3640 C   0  0  0  0  0  0  0  0  0  0  0  0
  181.3840  179.0030  143.4270 C   0  0  0  0  0  0  0  0  0  0  0  0
  181.5580  179.1470  142.0270 C   0  0  0  0  0  0  0  0  0  0  0  0
  185.1620  178.3480  141.9300 C   0  0  0  0  0  3  0  0  0  0  0  0
  180.1580  179.1600  143.9890 N   0  0  0  0  0  0  0  0  0  0  0  0
  188.7020  178.7110  138.6240 C   0  0  0  0  0  2  0  0  0  0  0  0
  183.6800  178.4920  143.7320 C   0  0  0  0  0  3  0  0  0  0  0  0
  186.7590  178.2530  140.1310 C   0  0  0  0  0  3  0  0  0  0  0  0
  189.0560  179.1350  137.2090 C   0  0  0  0  0  2  0  0  0  0  0  0
  179.0750  179.4620  143.2370 C   0  0  0  0  0  3  0  0  0  0  0  0
  183.0750  178.9330  140.1560 C   0  0  0  0  0  2  0  0  0  0  0  0
  182.8530  178.8980  141.4830 C   0  0  0  0  0  0  0  0  0  0  0  0
  180.4010  179.5040  141.2720 C   0  0  0  0  0  0  0  0  0  0  0  0
  185.4880  178.3960  140.5020 C   0  0  0  0  0  0  0  0  0  0  0  0
  187.2460  177.6970  136.2940 C   0  0  1  0  0  3  0  0  0  0  0  0
  188.7460  177.9810  136.2820 C   0  0  0  0  0  2  0  0  0  0  0  0
  184.2680  177.5280  138.5600 C   0  0  0  0  0  3  0  0  0  0  0  0
  182.4360  178.6950  144.2260 N   0  0  0  0  0  0  0  0  0  0  0  0
  180.5310  178.8430  138.9360 N   0  0  0  0  0  0  0  0  0  0  0  0
  180.6500  180.8380  137.9610 C   0  0  0  0  0  0  0  0  0  0  0  0
  180.6450  179.4740  137.7550 C   0  0  0  0  0  0  0  0  0  0  0  0
  180.4490  179.7810  139.8690 N   0  0  0  0  0  0  0  0  0  0  0  0
  180.5460  181.0130  139.3290 C   0  0  0  0  0  3  0  0  0  0  0  0
  180.7640  178.7740  136.4470 C   0  0  0  0  0  1  0  0  0  0  0  0
  179.6210  182.0510  136.2060 O   0  0  0  0  0  1  0  0  0  0  0  0
  180.8080  181.9030  136.9240 C   0  0  1  0  0  3  0  0  0  0  0  0
  181.1790  183.2200  137.5750 C   0  0  0  0  0  1  0  0  0  0  0  0
  2 23  1  0  0  0  0
  3 17  1  0  0  0  0
  3 20  1  0  0  0  0
  4  2  2  0  0  0  0
  4  5  1  0  0  0  0
  5 14  2  0  0  0  0
  6 16  2  0  0  0  0
  7 13  1  0  0  0  0
  8 11  2  0  0  0  0
  8 24  1  0  0  0  0
  9  8  1  0  0  0  0
 10  7  1  0  0  0  0
 12  5  1  0  0  0  0
 13 24  2  0  0  0  0
 14 20  1  0  0  0  0
 15 12  1  0  0  0  0
 16 11  1  0  0  0  0
 17 18  1  0  0  0  0
 18  9  1  0  0  0  0
 18  7  2  0  0  0  0
 19  6  1  0  0  0  0
 19  9  2  0  0  0  0
 20 10  2  0  0  0  0
 21  1  1  1  0  0  0
 21  4  1  0  0  0  0
 22 21  1  0  0  0  0
 22 15  1  0  0  0  0
 23  3  2  0  0  0  0
 25 28  1  0  0  0  0
 26 29  2  0  0  0  0
 27 26  1  0  0  0  0
 27 25  2  0  0  0  0
 28 19  1  0  0  0  0
 29 28  1  0  0  0  0
 30 27  1  0  0  0  0
 31 32  1  0  0  0  0
 32 33  1  1  0  0  0
 32 26  1  0  0  0  0
M  END
>  <MODEL>
8

>  <REMARK>
 VINA RESULT:      -6.9      5.815      9.089
  Name = 
  2 active torsions:
  status: ('A' for Active; 'I' for Inactive)
    1  A    between atoms: C_11  and  C_24
    2  A    between atoms: N_17  and  C_27
                            x       y       z     vdW  Elec       q    Type
                         _______ _______ _______ _____ _____    ______ ____

>  <TORSDO>
F 2

$$$$
=
 OpenBabel11062414513D

 33 38  0  0  1  0  0  0  0  0999 V2000
  189.0440  175.9750  147.1110 O   0  0  0  0  0  1  0  0  0  0  0  0
  187.1780  176.6550  145.1160 C   0  0  0  0  0  3  0  0  0  0  0  0
  185.8750  178.3040  143.8040 C   0  0  1  0  0  3  0  0  0  0  0  0
  187.4100  177.5320  146.2910 C   0  0  0  0  0  0  0  0  0  0  0  0
  186.5270  178.4780  146.7220 C   0  0  0  0  0  0  0  0  0  0  0  0
  183.7600  178.4360  138.3960 N   0  0  0  0  0  0  0  0  0  0  0  0
  183.0830  178.8150  143.1890 C   0  0  0  0  0  0  0  0  0  0  0  0
  182.1420  178.8110  140.5710 C   0  0  0  0  0  0  0  0  0  0  0  0
  183.5340  178.6370  140.7850 C   0  0  0  0  0  0  0  0  0  0  0  0
  183.4540  178.8160  144.4720 C   0  0  0  0  0  3  0  0  0  0  0  0
  181.6300  178.7770  139.3150 N   0  0  0  0  0  0  0  0  0  0  0  0
  186.7740  179.2500  147.9910 C   0  0  0  0  0  2  0  0  0  0  0  0
  181.7380  179.0170  142.8990 C   0  0  0  0  0  3  0  0  0  0  0  0
  185.1820  178.6930  146.1450 C   0  0  0  0  0  3  0  0  0  0  0  0
  188.2540  179.3800  148.3090 C   0  0  0  0  0  2  0  0  0  0  0  0
  182.4240  178.5830  138.2370 C   0  0  0  0  0  3  0  0  0  0  0  0
  185.2990  178.3640  142.4150 C   0  0  0  0  0  3  0  0  0  0  0  0
  184.0070  178.6080  142.1310 C   0  0  0  0  0  0  0  0  0  0  0  0
  184.3450  178.4740  139.6220 C   0  0  0  0  0  0  0  0  0  0  0  0
  184.8490  178.5860  144.8600 C   0  0  0  0  0  0  0  0  0  0  0  0
  188.7470  177.3330  146.9860 C   0  0  1  0  0  3  0  0  0  0  0  0
  188.8460  177.9890  148.3610 C   0  0  0  0  0  2  0  0  0  0  0  0
  186.4870  176.9660  144.0210 C   0  0  0  0  0  3  0  0  0  0  0  0
  181.3010  179.0030  141.6170 N   0  0  0  0  0  0  0  0  0  0  0  0
  186.4870  178.7630  140.7340 N   0  0  0  0  0  0  0  0  0  0  0  0
  187.8710  178.1720  139.0960 C   0  0  0  0  0  0  0  0  0  0  0  0
  187.7810  178.6260  140.3960 C   0  0  0  0  0  0  0  0  0  0  0  0
  185.7720  178.3900  139.6820 N   0  0  0  0  0  0  0  0  0  0  0  0
  186.5680  178.0480  138.6490 C   0  0  0  0  0  3  0  0  0  0  0  0
  188.9150  178.9430  141.3060 C   0  0  0  0  0  1  0  0  0  0  0  0
  189.2300  176.5800  137.9860 O   0  0  0  0  0  1  0  0  0  0  0  0
  189.1220  177.9320  138.3140 C   0  0  1  0  0  3  0  0  0  0  0  0
  189.1170  178.7650  137.0470 C   0  0  0  0  0  1  0  0  0  0  0  0
  2  4  1  0  0  0  0
  3 17  1  6  0  0  0
  3 23  1  0  0  0  0
  3 20  1  0  0  0  0
  4  5  2  0  0  0  0
  4 21  1  0  0  0  0
  5 12  1  0  0  0  0
  6 19  1  0  0  0  0
  7 10  2  0  0  0  0
  8  9  1  0  0  0  0
  8 24  1  0  0  0  0
  9 18  1  0  0  0  0
 10 20  1  0  0  0  0
 11  8  2  0  0  0  0
 12 15  1  0  0  0  0
 13  7  1  0  0  0  0
 14  5  1  0  0  0  0
 15 22  1  0  0  0  0
 16  6  2  0  0  0  0
 16 11  1  0  0  0  0
 18 17  2  0  0  0  0
 18  7  1  0  0  0  0
 19 28  1  0  0  0  0
 19  9  2  0  0  0  0
 20 14  2  0  0  0  0
 21  1  1  1  0  0  0
 21 22  1  0  0  0  0
 23  2  2  0  0  0  0
 24 13  2  0  0  0  0
 26 27  1  0  0  0  0
 27 25  2  0  0  0  0
 27 30  1  0  0  0  0
 28 25  1  0  0  0  0
 29 26  2  0  0  0  0
 29 28  1  0  0  0  0
 31 32  1  0  0  0  0
 32 33  1  6  0  0  0
 32 26  1  0  0  0  0
M  END
>  <MODEL>
9

>  <REMARK>
 VINA RESULT:      -6.8      3.854      6.980
  Name = 
  2 active torsions:
  status: ('A' for Active; 'I' for Inactive)
    1  A    between atoms: C_11  and  C_24
    2  A    between atoms: N_17  and  C_27
                            x       y       z     vdW  Elec       q    Type
                         _______ _______ _______ _____ _____    ______ ____

>  <TORSDO>
F 2

$$$$
