=
 OpenBabel11062417103D

 36 40  0  0  1  0  0  0  0  0999 V2000
  190.7920  176.9490  143.6760 C   0  0  1  0  0  3  0  0  0  0  0  0
  191.9120  177.3790  145.8190 N   0  0  0  0  0  2  0  0  0  0  0  0
  190.6550  177.5580  145.0730 C   0  0  2  0  0  0  0  0  0  0  0  0
  191.4550  176.3370  144.8890 C   0  0  1  0  0  3  0  0  0  0  0  0
  186.9620  177.5610  146.2040 C   0  0  2  0  0  3  0  0  0  0  0  0
  187.2480  177.8340  147.6820 C   0  0  0  0  0  2  0  0  0  0  0  0
  189.4140  177.1730  145.8980 C   0  0  1  0  0  3  0  0  0  0  0  0
  188.3970  177.0450  148.1260 N   0  0  0  0  0  2  0  0  0  0  0  0
  189.5820  177.4820  147.3900 C   0  0  0  0  0  2  0  0  0  0  0  0
  188.1950  177.9370  145.3870 C   0  0  0  0  0  2  0  0  0  0  0  0
  185.5180  178.4810  145.6690 S   0  0  0  0  0  0  0  0  0  0  0  0
  185.5920  179.8960  146.1730 O   0  0  0  0  0  0  0  0  0  0  0  0
  184.3170  177.8330  146.2980 O   0  0  0  0  0  0  0  0  0  0  0  0
  182.7830  179.0340  144.4810 C   0  0  0  0  0  1  0  0  0  0  0  0
  183.9020  178.8230  143.4700 C   0  0  0  0  0  0  0  0  0  0  0  0
  185.2640  178.4580  143.9320 N   0  0  0  0  0  0  0  0  0  0  0  0
  184.9460  179.8300  143.4790 C   0  0  0  0  0  2  0  0  0  0  0  0
  183.5660  178.2850  142.0970 C   0  0  0  0  0  1  0  0  0  0  0  0
  188.8290  176.3490  142.2780 N   0  0  0  0  0  0  0  0  0  0  0  0
  189.6520  176.0730  143.2500 C   0  0  0  0  0  3  0  0  0  0  0  0
  188.0740  178.5790  141.6620 C   0  0  0  0  0  2  0  0  0  0  0  0
  188.8030  177.4970  141.4110 C   0  0  0  0  0  0  0  0  0  0  0  0
  189.6180  177.4670  140.1640 C   0  0  0  0  0  2  0  0  0  0  0  0
  188.7080  179.0040  137.9330 O   0  0  0  0  0  0  0  0  0  0  0  0
  188.8180  176.9620  139.0590 N   0  0  0  0  0  2  0  0  0  0  0  0
  188.3330  177.8040  138.0090 C   0  0  0  0  0  0  0  0  0  0  0  0
  184.5470  177.1390  135.2060 C   0  0  0  0  0  1  0  0  0  0  0  0
  185.8910  175.5310  136.5360 C   0  0  2  0  0  3  0  0  0  0  0  0
  187.2020  175.8330  137.1050 N   0  0  0  0  0  2  0  0  0  0  0  0
  185.9340  177.8850  137.1180 C   0  0  1  0  0  3  0  0  0  0  0  0
  187.3340  177.2800  137.0220 C   0  0  1  0  0  3  0  0  0  0  0  0
  185.0350  176.7870  136.5990 C   0  0  1  0  0  3  0  0  0  0  0  0
  185.5080  178.2130  138.5190 C   0  0  0  0  0  3  0  0  0  0  0  0
  184.9600  179.2750  138.7640 O   0  0  0  0  0  0  0  0  0  0  0  0
  186.1400  173.2140  137.4130 C   0  0  0  0  0  1  0  0  0  0  0  0
  185.2250  174.4190  137.3270 C   0  0  0  0  0  2  0  0  0  0  0  0
  1 20  1  1  0  0  0
  1  4  1  0  0  0  0
  1  3  1  0  0  0  0
  3  2  1  1  0  0  0
  3  7  1  0  0  0  0
  4  3  1  0  0  0  0
  4  2  1  6  0  0  0
  5 11  1  6  0  0  0
  5  6  1  0  0  0  0
  6  8  1  0  0  0  0
  7 10  1  6  0  0  0
  7  9  1  0  0  0  0
  9  8  1  0  0  0  0
 10  5  1  0  0  0  0
 11 12  2  0  0  0  0
 11 13  2  0  0  0  0
 15 17  1  0  0  0  0
 15 16  1  0  0  0  0
 15 14  1  0  0  0  0
 16 11  1  0  0  0  0
 17 16  1  0  0  0  0
 18 15  1  0  0  0  0
 19 20  2  0  0  0  0
 22 21  2  0  0  0  0
 22 19  1  0  0  0  0
 23 22  1  0  0  0  0
 24 26  2  0  0  0  0
 25 23  1  0  0  0  0
 26 25  1  0  0  0  0
 28 32  1  0  0  0  0
 28 29  1  0  0  0  0
 28 36  1  1  0  0  0
 30 33  1  1  0  0  0
 31 29  1  0  0  0  0
 31 30  1  0  0  0  0
 31 26  1  1  0  0  0
 32 27  1  6  0  0  0
 32 30  1  0  0  0  0
 33 34  2  0  0  0  0
 36 35  1  0  0  0  0
M  END
>  <MODEL>
1

>  <REMARK>
 VINA RESULT:      -8.4      0.000      0.000
  Name = 
  10 active torsions:
  status: ('A' for Active; 'I' for Inactive)
    1  A    between atoms: C_1  and  S_25
    2  A    between atoms: C_2  and  C_27
    3  A    between atoms: N_5  and  S_25
    4  A    between atoms: C_6  and  C_19
    5  A    between atoms: C_11  and  C_17
    6  A    between atoms: C_12  and  C_20
    7  A    between atoms: C_14  and  C_29
    8  A    between atoms: C_14  and  N_32
    9  A    between atoms: N_18  and  C_29
   10  A    between atoms: C_33  and  C_34
                            x       y       z     vdW  Elec       q    Type
                         _______ _______ _______ _____ _____    ______ ____

>  <TORSDO>
F 10

$$$$
=
 OpenBabel11062417103D

 36 40  0  0  1  0  0  0  0  0999 V2000
  183.6850  179.1120  140.7210 C   0  0  1  0  0  3  0  0  0  0  0  0
  182.6460  179.2400  138.5000 N   0  0  0  0  0  2  0  0  0  0  0  0
  183.9310  179.1350  139.2110 C   0  0  2  0  0  0  0  0  0  0  0  0
  182.7370  178.4590  139.7410 C   0  0  1  0  0  3  0  0  0  0  0  0
  187.1480  177.5640  137.7620 C   0  0  2  0  0  3  0  0  0  0  0  0
  186.4920  176.9900  136.5050 C   0  0  0  0  0  2  0  0  0  0  0  0
  184.8510  178.0510  138.6240 C   0  0  1  0  0  3  0  0  0  0  0  0
  185.1930  176.4060  136.8360 N   0  0  0  0  0  2  0  0  0  0  0  0
  184.3080  177.4670  137.3150 C   0  0  0  0  0  2  0  0  0  0  0  0
  186.2340  178.6370  138.3480 C   0  0  0  0  0  2  0  0  0  0  0  0
  188.7680  178.2300  137.3720 S   0  0  0  0  0  0  0  0  0  0  0  0
  188.7750  179.7210  137.5710 O   0  0  0  0  0  0  0  0  0  0  0  0
  189.0210  177.9620  135.9140 O   0  0  0  0  0  0  0  0  0  0  0  0
  188.8040  178.2580  140.4040 C   0  0  0  0  0  1  0  0  0  0  0  0
  189.9430  177.4910  139.7450 C   0  0  0  0  0  0  0  0  0  0  0  0
  190.0780  177.4820  138.2680 N   0  0  0  0  0  0  0  0  0  0  0  0
  189.5480  176.3110  138.9990 C   0  0  0  0  0  2  0  0  0  0  0  0
  191.2610  177.3550  140.4740 C   0  0  0  0  0  1  0  0  0  0  0  0
  184.3860  177.8820  142.7620 N   0  0  0  0  0  0  0  0  0  0  0  0
  184.4240  178.0420  141.4690 C   0  0  0  0  0  3  0  0  0  0  0  0
  182.4040  179.0290  143.5870 C   0  0  0  0  0  2  0  0  0  0  0  0
  183.6650  178.6430  143.7490 C   0  0  0  0  0  0  0  0  0  0  0  0
  184.3690  179.0300  145.0030 C   0  0  0  0  0  2  0  0  0  0  0  0
  186.1410  177.4000  146.5440 O   0  0  0  0  0  0  0  0  0  0  0  0
  185.8080  178.9330  144.8140 N   0  0  0  0  0  2  0  0  0  0  0  0
  186.6480  178.1530  145.6700 C   0  0  0  0  0  0  0  0  0  0  0  0
  191.1630  178.2610  144.1740 C   0  0  0  0  0  1  0  0  0  0  0  0
  190.1560  177.3410  146.2470 C   0  0  2  0  0  3  0  0  0  0  0  0
  188.8050  177.6480  146.7070 N   0  0  0  0  0  2  0  0  0  0  0  0
  188.7580  177.6830  144.2960 C   0  0  1  0  0  3  0  0  0  0  0  0
  188.1400  178.2630  145.5690 C   0  0  1  0  0  3  0  0  0  0  0  0
  190.1480  177.2790  144.7280 C   0  0  1  0  0  3  0  0  0  0  0  0
  188.0550  176.4620  143.7820 C   0  0  0  0  0  3  0  0  0  0  0  0
  188.5970  175.7370  142.9630 O   0  0  0  0  0  0  0  0  0  0  0  0
  192.1150  175.9760  146.9560 C   0  0  0  0  0  1  0  0  0  0  0  0
  190.6070  176.0040  146.8110 C   0  0  0  0  0  2  0  0  0  0  0  0
  1 20  1  1  0  0  0
  3  2  1  6  0  0  0
  3  4  1  0  0  0  0
  3  1  1  0  0  0  0
  4  2  1  6  0  0  0
  4  1  1  0  0  0  0
  5 11  1  6  0  0  0
  5 10  1  0  0  0  0
  6  8  1  0  0  0  0
  6  5  1  0  0  0  0
  7  9  1  6  0  0  0
  7  3  1  0  0  0  0
  8  9  1  0  0  0  0
 10  7  1  0  0  0  0
 11 12  2  0  0  0  0
 11 16  1  0  0  0  0
 13 11  2  0  0  0  0
 15 14  1  0  0  0  0
 15 18  1  0  0  0  0
 16 17  1  0  0  0  0
 16 15  1  0  0  0  0
 17 15  1  0  0  0  0
 19 22  1  0  0  0  0
 20 19  2  0  0  0  0
 21 22  2  0  0  0  0
 22 23  1  0  0  0  0
 25 23  1  0  0  0  0
 25 26  1  0  0  0  0
 26 24  2  0  0  0  0
 28 29  1  0  0  0  0
 28 36  1  1  0  0  0
 30 33  1  1  0  0  0
 30 32  1  0  0  0  0
 30 31  1  0  0  0  0
 31 26  1  1  0  0  0
 31 29  1  0  0  0  0
 32 27  1  6  0  0  0
 32 28  1  0  0  0  0
 34 33  2  0  0  0  0
 36 35  1  0  0  0  0
M  END
>  <MODEL>
2

>  <REMARK>
 VINA RESULT:      -8.1      2.450      8.872
  Name = 
  10 active torsions:
  status: ('A' for Active; 'I' for Inactive)
    1  A    between atoms: C_1  and  S_25
    2  A    between atoms: C_2  and  C_27
    3  A    between atoms: N_5  and  S_25
    4  A    between atoms: C_6  and  C_19
    5  A    between atoms: C_11  and  C_17
    6  A    between atoms: C_12  and  C_20
    7  A    between atoms: C_14  and  C_29
    8  A    between atoms: C_14  and  N_32
    9  A    between atoms: N_18  and  C_29
   10  A    between atoms: C_33  and  C_34
                            x       y       z     vdW  Elec       q    Type
                         _______ _______ _______ _____ _____    ______ ____

>  <TORSDO>
F 10

$$$$
=
 OpenBabel11062417103D

 36 40  0  0  1  0  0  0  0  0999 V2000
  187.1290  177.9810  145.0880 C   0  0  1  0  0  3  0  0  0  0  0  0
  185.5400  179.2190  146.4920 N   0  0  0  0  0  2  0  0  0  0  0  0
  185.8890  178.8760  145.1030 C   0  0  2  0  0  0  0  0  0  0  0  0
  186.0850  177.8910  146.1780 C   0  0  1  0  0  3  0  0  0  0  0  0
  183.6560  178.3580  141.9940 C   0  0  2  0  0  3  0  0  0  0  0  0
  182.3910  178.9660  142.6030 C   0  0  0  0  0  2  0  0  0  0  0  0
  184.6720  178.4190  144.2790 C   0  0  1  0  0  3  0  0  0  0  0  0
  182.2380  178.5270  143.9900 N   0  0  0  0  0  2  0  0  0  0  0  0
  183.3610  179.0410  144.7740 C   0  0  0  0  0  2  0  0  0  0  0  0
  184.8620  178.8060  142.8150 C   0  0  0  0  0  2  0  0  0  0  0  0
  183.8170  178.8460  140.2750 S   0  0  0  0  0  0  0  0  0  0  0  0
  184.9730  179.7940  140.1150 O   0  0  0  0  0  0  0  0  0  0  0  0
  182.5630  179.5850  139.9020 O   0  0  0  0  0  0  0  0  0  0  0  0
  181.5370  176.8870  139.8750 C   0  0  0  0  0  1  0  0  0  0  0  0
  182.7570  176.6560  138.9950 C   0  0  0  0  0  0  0  0  0  0  0  0
  183.9680  177.4960  139.1640 N   0  0  0  0  0  0  0  0  0  0  0  0
  183.0390  177.7040  138.0320 C   0  0  0  0  0  2  0  0  0  0  0  0
  183.0560  175.2580  138.4990 C   0  0  0  0  0  1  0  0  0  0  0  0
  187.8040  176.5160  143.1990 N   0  0  0  0  0  0  0  0  0  0  0  0
  187.0260  176.7660  144.2150 C   0  0  0  0  0  3  0  0  0  0  0  0
  190.1390  177.1990  143.1520 C   0  0  0  0  0  2  0  0  0  0  0  0
  188.9000  177.2940  142.6840 C   0  0  0  0  0  0  0  0  0  0  0  0
  188.6300  178.2630  141.5850 C   0  0  0  0  0  2  0  0  0  0  0  0
  190.7160  177.6030  139.7460 O   0  0  0  0  0  0  0  0  0  0  0  0
  188.4550  177.5530  140.3280 N   0  0  0  0  0  2  0  0  0  0  0  0
  189.5330  177.3190  139.4180 C   0  0  0  0  0  0  0  0  0  0  0  0
  189.2700  176.6180  134.7190 C   0  0  0  0  0  1  0  0  0  0  0  0
  187.5970  176.2540  136.5170 C   0  0  2  0  0  3  0  0  0  0  0  0
  187.9180  176.2270  137.9410 N   0  0  0  0  0  2  0  0  0  0  0  0
  189.4430  177.7790  136.9000 C   0  0  1  0  0  3  0  0  0  0  0  0
  189.2590  176.7830  138.0450 C   0  0  1  0  0  3  0  0  0  0  0  0
  188.4900  177.2820  135.8390 C   0  0  1  0  0  3  0  0  0  0  0  0
  189.0570  179.1860  137.2510 C   0  0  0  0  0  3  0  0  0  0  0  0
  187.9230  179.5850  137.0430 O   0  0  0  0  0  0  0  0  0  0  0  0
  185.4010  175.5260  135.5940 C   0  0  0  0  0  1  0  0  0  0  0  0
  186.1400  176.6330  136.3190 C   0  0  0  0  0  2  0  0  0  0  0  0
  1 20  1  6  0  0  0
  1  3  1  0  0  0  0
  1  4  1  0  0  0  0
  3  4  1  0  0  0  0
  3  2  1  1  0  0  0
  4  2  1  1  0  0  0
  5 11  1  6  0  0  0
  5  6  1  0  0  0  0
  5 10  1  0  0  0  0
  6  8  1  0  0  0  0
  7 10  1  6  0  0  0
  7  9  1  0  0  0  0
  7  3  1  0  0  0  0
  8  9  1  0  0  0  0
 12 11  2  0  0  0  0
 13 11  2  0  0  0  0
 15 16  1  0  0  0  0
 15 14  1  0  0  0  0
 16 11  1  0  0  0  0
 17 15  1  0  0  0  0
 17 16  1  0  0  0  0
 18 15  1  0  0  0  0
 19 20  2  0  0  0  0
 22 21  2  0  0  0  0
 22 19  1  0  0  0  0
 23 22  1  0  0  0  0
 25 23  1  0  0  0  0
 26 24  2  0  0  0  0
 26 25  1  0  0  0  0
 28 36  1  1  0  0  0
 28 29  1  0  0  0  0
 29 31  1  0  0  0  0
 30 33  1  1  0  0  0
 30 31  1  0  0  0  0
 31 26  1  1  0  0  0
 32 27  1  6  0  0  0
 32 28  1  0  0  0  0
 32 30  1  0  0  0  0
 34 33  2  0  0  0  0
 35 36  1  0  0  0  0
M  END
>  <MODEL>
3

>  <REMARK>
 VINA RESULT:      -8.1      2.584      4.544
  Name = 
  10 active torsions:
  status: ('A' for Active; 'I' for Inactive)
    1  A    between atoms: C_1  and  S_25
    2  A    between atoms: C_2  and  C_27
    3  A    between atoms: N_5  and  S_25
    4  A    between atoms: C_6  and  C_19
    5  A    between atoms: C_11  and  C_17
    6  A    between atoms: C_12  and  C_20
    7  A    between atoms: C_14  and  C_29
    8  A    between atoms: C_14  and  N_32
    9  A    between atoms: N_18  and  C_29
   10  A    between atoms: C_33  and  C_34
                            x       y       z     vdW  Elec       q    Type
                         _______ _______ _______ _____ _____    ______ ____

>  <TORSDO>
F 10

$$$$
=
 OpenBabel11062417103D

 36 40  0  0  1  0  0  0  0  0999 V2000
  187.7630  175.1620  136.9870 C   0  0  1  0  0  3  0  0  0  0  0  0
  186.1760  173.8910  135.6110 N   0  0  0  0  0  2  0  0  0  0  0  0
  186.2880  174.8760  136.6990 C   0  0  2  0  0  0  0  0  0  0  0  0
  187.2540  174.8890  135.5900 C   0  0  1  0  0  3  0  0  0  0  0  0
  183.3840  177.3120  137.4400 C   0  0  2  0  0  3  0  0  0  0  0  0
  182.7480  177.2280  136.0520 C   0  0  0  0  0  2  0  0  0  0  0  0
  185.3530  176.0830  136.5090 C   0  0  1  0  0  3  0  0  0  0  0  0
  183.7850  177.2420  135.0210 N   0  0  0  0  0  2  0  0  0  0  0  0
  184.6120  176.0450  135.1680 C   0  0  0  0  0  2  0  0  0  0  0  0
  184.3150  176.1180  137.6280 C   0  0  0  0  0  2  0  0  0  0  0  0
  182.1140  177.3550  138.7070 S   0  0  0  0  0  0  0  0  0  0  0  0
  181.1710  176.1960  138.5310 O   0  0  0  0  0  0  0  0  0  0  0  0
  181.3280  178.6200  138.5080 O   0  0  0  0  0  0  0  0  0  0  0  0
  184.1900  179.4050  139.5360 C   0  0  0  0  0  1  0  0  0  0  0  0
  183.6940  178.4920  140.6490 C   0  0  0  0  0  0  0  0  0  0  0  0
  182.7440  177.3930  140.3440 N   0  0  0  0  0  0  0  0  0  0  0  0
  182.2930  178.6410  140.9990 C   0  0  0  0  0  2  0  0  0  0  0  0
  184.6020  178.1980  141.8230 C   0  0  0  0  0  1  0  0  0  0  0  0
  189.3290  177.0890  137.0160 N   0  0  0  0  0  0  0  0  0  0  0  0
  188.1180  176.6150  137.1000 C   0  0  0  0  0  3  0  0  0  0  0  0
  191.0000  176.0290  135.5990 C   0  0  0  0  0  2  0  0  0  0  0  0
  190.5670  176.3850  136.8030 C   0  0  0  0  0  0  0  0  0  0  0  0
  191.3920  176.0230  137.9890 C   0  0  0  0  0  2  0  0  0  0  0  0
  191.8560  177.6120  140.3190 O   0  0  0  0  0  0  0  0  0  0  0  0
  190.5680  176.0270  139.1880 N   0  0  0  0  0  2  0  0  0  0  0  0
  190.8990  176.7940  140.3490 C   0  0  0  0  0  0  0  0  0  0  0  0
  187.5470  176.4630  143.7090 C   0  0  0  0  0  1  0  0  0  0  0  0
  189.8640  177.3480  143.8010 C   0  0  2  0  0  3  0  0  0  0  0  0
  190.8740  177.1090  142.7740 N   0  0  0  0  0  2  0  0  0  0  0  0
  188.7360  177.1890  141.6610 C   0  0  1  0  0  3  0  0  0  0  0  0
  190.1430  176.5920  141.6270 C   0  0  1  0  0  3  0  0  0  0  0  0
  188.5080  177.4820  143.1250 C   0  0  1  0  0  3  0  0  0  0  0  0
  188.6040  178.4760  140.9020 C   0  0  0  0  0  3  0  0  0  0  0  0
  187.7430  178.6030  140.0470 O   0  0  0  0  0  0  0  0  0  0  0  0
  191.4650  179.2430  144.0300 C   0  0  0  0  0  1  0  0  0  0  0  0
  190.1850  178.6260  144.5580 C   0  0  0  0  0  2  0  0  0  0  0  0
  1 20  1  6  0  0  0
  3  2  1  1  0  0  0
  3  1  1  0  0  0  0
  4  2  1  1  0  0  0
  4  3  1  0  0  0  0
  4  1  1  0  0  0  0
  5 10  1  0  0  0  0
  5 11  1  1  0  0  0
  6  5  1  0  0  0  0
  7  9  1  6  0  0  0
  7  3  1  0  0  0  0
  7 10  1  0  0  0  0
  8  9  1  0  0  0  0
  8  6  1  0  0  0  0
 11 16  1  0  0  0  0
 12 11  2  0  0  0  0
 13 11  2  0  0  0  0
 14 15  1  0  0  0  0
 15 17  1  0  0  0  0
 15 18  1  0  0  0  0
 16 15  1  0  0  0  0
 16 17  1  0  0  0  0
 19 20  2  0  0  0  0
 21 22  2  0  0  0  0
 22 19  1  0  0  0  0
 22 23  1  0  0  0  0
 23 25  1  0  0  0  0
 24 26  2  0  0  0  0
 25 26  1  0  0  0  0
 28 36  1  6  0  0  0
 29 28  1  0  0  0  0
 30 33  1  6  0  0  0
 30 32  1  0  0  0  0
 31 26  1  6  0  0  0
 31 30  1  0  0  0  0
 31 29  1  0  0  0  0
 32 27  1  1  0  0  0
 32 28  1  0  0  0  0
 34 33  2  0  0  0  0
 35 36  1  0  0  0  0
M  END
>  <MODEL>
4

>  <REMARK>
 VINA RESULT:      -7.2      3.119      7.881
  Name = 
  10 active torsions:
  status: ('A' for Active; 'I' for Inactive)
    1  A    between atoms: C_1  and  S_25
    2  A    between atoms: C_2  and  C_27
    3  A    between atoms: N_5  and  S_25
    4  A    between atoms: C_6  and  C_19
    5  A    between atoms: C_11  and  C_17
    6  A    between atoms: C_12  and  C_20
    7  A    between atoms: C_14  and  C_29
    8  A    between atoms: C_14  and  N_32
    9  A    between atoms: N_18  and  C_29
   10  A    between atoms: C_33  and  C_34
                            x       y       z     vdW  Elec       q    Type
                         _______ _______ _______ _____ _____    ______ ____

>  <TORSDO>
F 10

$$$$
=
 OpenBabel11062417103D

 36 40  0  0  1  0  0  0  0  0999 V2000
  183.9130  179.2210  140.8760 C   0  0  1  0  0  3  0  0  0  0  0  0
  183.0460  179.6770  138.6250 N   0  0  0  0  0  2  0  0  0  0  0  0
  184.2540  179.3210  139.3880 C   0  0  2  0  0  0  0  0  0  0  0  0
  182.9410  178.7990  139.7980 C   0  0  1  0  0  3  0  0  0  0  0  0
  187.1570  177.5030  137.6050 C   0  0  2  0  0  3  0  0  0  0  0  0
  186.2990  176.8700  136.5080 C   0  0  0  0  0  2  0  0  0  0  0  0
  185.0360  178.1560  138.7570 C   0  0  1  0  0  3  0  0  0  0  0  0
  185.0450  176.3720  137.0730 N   0  0  0  0  0  2  0  0  0  0  0  0
  184.2800  177.5040  137.5930 C   0  0  0  0  0  2  0  0  0  0  0  0
  186.3800  178.6550  138.2340 C   0  0  0  0  0  2  0  0  0  0  0  0
  188.7210  178.0630  136.9270 S   0  0  0  0  0  0  0  0  0  0  0  0
  188.9070  179.5300  137.2020 O   0  0  0  0  0  0  0  0  0  0  0  0
  188.6520  177.8810  135.4370 O   0  0  0  0  0  0  0  0  0  0  0  0
  189.3630  177.8660  139.8850 C   0  0  0  0  0  1  0  0  0  0  0  0
  190.2710  177.0610  138.9660 C   0  0  0  0  0  0  0  0  0  0  0  0
  190.1090  177.1490  137.4940 N   0  0  0  0  0  0  0  0  0  0  0  0
  189.6280  175.9730  138.2520 C   0  0  0  0  0  2  0  0  0  0  0  0
  191.6900  176.7670  139.4010 C   0  0  0  0  0  1  0  0  0  0  0  0
  184.4160  177.8090  142.8560 N   0  0  0  0  0  0  0  0  0  0  0  0
  184.4350  177.9960  141.5670 C   0  0  0  0  0  3  0  0  0  0  0  0
  182.6760  179.1510  143.9020 C   0  0  0  0  0  2  0  0  0  0  0  0
  183.9170  178.6760  143.8910 C   0  0  0  0  0  0  0  0  0  0  0  0
  184.8380  179.0730  144.9930 C   0  0  0  0  0  2  0  0  0  0  0  0
  186.0250  177.2030  146.7990 O   0  0  0  0  0  0  0  0  0  0  0  0
  186.1310  178.4310  144.8160 N   0  0  0  0  0  2  0  0  0  0  0  0
  186.7000  177.5590  145.7970 C   0  0  0  0  0  0  0  0  0  0  0  0
  191.1950  176.2220  146.5960 C   0  0  0  0  0  1  0  0  0  0  0  0
  190.2090  177.6330  144.8080 C   0  0  2  0  0  3  0  0  0  0  0  0
  188.7800  177.7080  144.5190 N   0  0  0  0  0  2  0  0  0  0  0  0
  189.0040  177.3380  146.8920 C   0  0  1  0  0  3  0  0  0  0  0  0
  188.1220  177.1020  145.6660 C   0  0  1  0  0  3  0  0  0  0  0  0
  190.3910  177.4760  146.3100 C   0  0  1  0  0  3  0  0  0  0  0  0
  188.6830  178.6000  147.6370 C   0  0  0  0  0  3  0  0  0  0  0  0
  188.3210  178.5540  148.8010 O   0  0  0  0  0  0  0  0  0  0  0  0
  191.8280  178.5950  143.1780 C   0  0  0  0  0  1  0  0  0  0  0  0
  190.9020  178.9010  144.3390 C   0  0  0  0  0  2  0  0  0  0  0  0
  1 20  1  1  0  0  0
  3  2  1  6  0  0  0
  3  4  1  0  0  0  0
  3  1  1  0  0  0  0
  4  2  1  6  0  0  0
  4  1  1  0  0  0  0
  5 11  1  6  0  0  0
  5 10  1  0  0  0  0
  6  8  1  0  0  0  0
  6  5  1  0  0  0  0
  7  9  1  6  0  0  0
  7  3  1  0  0  0  0
  8  9  1  0  0  0  0
 10  7  1  0  0  0  0
 11 12  2  0  0  0  0
 11 16  1  0  0  0  0
 13 11  2  0  0  0  0
 15 18  1  0  0  0  0
 15 14  1  0  0  0  0
 16 17  1  0  0  0  0
 16 15  1  0  0  0  0
 17 15  1  0  0  0  0
 19 22  1  0  0  0  0
 20 19  2  0  0  0  0
 22 21  2  0  0  0  0
 22 23  1  0  0  0  0
 25 23  1  0  0  0  0
 25 26  1  0  0  0  0
 26 24  2  0  0  0  0
 28 36  1  1  0  0  0
 28 32  1  0  0  0  0
 29 28  1  0  0  0  0
 29 31  1  0  0  0  0
 30 33  1  6  0  0  0
 31 26  1  1  0  0  0
 31 30  1  0  0  0  0
 32 27  1  6  0  0  0
 32 30  1  0  0  0  0
 33 34  2  0  0  0  0
 35 36  1  0  0  0  0
M  END
>  <MODEL>
5

>  <REMARK>
 VINA RESULT:      -7.1      2.488      9.146
  Name = 
  10 active torsions:
  status: ('A' for Active; 'I' for Inactive)
    1  A    between atoms: C_1  and  S_25
    2  A    between atoms: C_2  and  C_27
    3  A    between atoms: N_5  and  S_25
    4  A    between atoms: C_6  and  C_19
    5  A    between atoms: C_11  and  C_17
    6  A    between atoms: C_12  and  C_20
    7  A    between atoms: C_14  and  C_29
    8  A    between atoms: C_14  and  N_32
    9  A    between atoms: N_18  and  C_29
   10  A    between atoms: C_33  and  C_34
                            x       y       z     vdW  Elec       q    Type
                         _______ _______ _______ _____ _____    ______ ____

>  <TORSDO>
F 10

$$$$
=
 OpenBabel11062417103D

 36 40  0  0  1  0  0  0  0  0999 V2000
  187.3840  177.3900  137.5950 C   0  0  1  0  0  3  0  0  0  0  0  0
  188.7740  179.3820  137.9590 N   0  0  0  0  0  2  0  0  0  0  0  0
  188.1930  178.1970  138.6120 C   0  0  2  0  0  0  0  0  0  0  0  0
  188.6540  178.1190  137.2180 C   0  0  1  0  0  3  0  0  0  0  0  0
  190.2120  177.2310  141.7600 C   0  0  2  0  0  3  0  0  0  0  0  0
  191.5900  177.3340  141.1030 C   0  0  0  0  0  2  0  0  0  0  0  0
  189.2120  177.4340  139.4770 C   0  0  1  0  0  3  0  0  0  0  0  0
  191.5520  176.7540  139.7610 N   0  0  0  0  0  2  0  0  0  0  0  0
  190.6410  177.5430  138.9320 C   0  0  0  0  0  2  0  0  0  0  0  0
  189.2000  177.9830  140.9010 C   0  0  0  0  0  2  0  0  0  0  0  0
  190.2670  177.8870  143.4290 S   0  0  0  0  0  0  0  0  0  0  0  0
  191.2630  179.0110  143.5100 O   0  0  0  0  0  0  0  0  0  0  0  0
  190.7490  176.7820  144.3270 O   0  0  0  0  0  0  0  0  0  0  0  0
  187.9290  175.9600  143.5730 C   0  0  0  0  0  1  0  0  0  0  0  0
  187.6650  177.3490  144.1380 C   0  0  0  0  0  0  0  0  0  0  0  0
  188.7050  178.4030  144.0420 N   0  0  0  0  0  0  0  0  0  0  0  0
  188.4370  177.6990  145.3160 C   0  0  0  0  0  2  0  0  0  0  0  0
  186.2530  177.8910  144.1340 C   0  0  0  0  0  1  0  0  0  0  0  0
  186.8200  175.0110  137.1610 N   0  0  0  0  0  0  0  0  0  0  0  0
  187.6520  175.9140  137.5960 C   0  0  0  0  0  3  0  0  0  0  0  0
  185.3000  175.4290  135.3070 C   0  0  0  0  0  2  0  0  0  0  0  0
  185.5070  175.1840  136.5960 C   0  0  0  0  0  0  0  0  0  0  0  0
  184.3270  175.1020  137.5010 C   0  0  0  0  0  2  0  0  0  0  0  0
  182.6930  176.0490  139.6460 O   0  0  0  0  0  0  0  0  0  0  0  0
  183.6390  176.3830  137.5380 N   0  0  0  0  0  2  0  0  0  0  0  0
  182.7760  176.7640  138.6130 C   0  0  0  0  0  0  0  0  0  0  0  0
  181.1450  181.1950  138.0240 C   0  0  0  0  0  1  0  0  0  0  0  0
  180.5020  179.4240  139.6400 C   0  0  2  0  0  3  0  0  0  0  0  0
  180.8760  178.0190  139.5070 N   0  0  0  0  0  2  0  0  0  0  0  0
  182.6740  179.3230  138.5660 C   0  0  1  0  0  3  0  0  0  0  0  0
  181.9240  177.9920  138.4970 C   0  0  1  0  0  3  0  0  0  0  0  0
  181.6490  180.2810  139.1250 C   0  0  1  0  0  3  0  0  0  0  0  0
  183.8530  179.3080  139.4930 C   0  0  0  0  0  3  0  0  0  0  0  0
  184.9300  179.7500  139.1270 O   0  0  0  0  0  0  0  0  0  0  0  0
  181.2010  179.0100  141.9940 C   0  0  0  0  0  1  0  0  0  0  0  0
  180.2320  179.7540  141.0980 C   0  0  0  0  0  2  0  0  0  0  0  0
  1 20  1  1  0  0  0
  1  3  1  0  0  0  0
  3  2  1  1  0  0  0
  3  7  1  0  0  0  0
  4  1  1  0  0  0  0
  4  2  1  6  0  0  0
  4  3  1  0  0  0  0
  5 11  1  1  0  0  0
  6  5  1  0  0  0  0
  7  9  1  6  0  0  0
  7 10  1  0  0  0  0
  8  6  1  0  0  0  0
  9  8  1  0  0  0  0
 10  5  1  0  0  0  0
 11 12  2  0  0  0  0
 11 16  1  0  0  0  0
 11 13  2  0  0  0  0
 14 15  1  0  0  0  0
 15 17  1  0  0  0  0
 16 15  1  0  0  0  0
 16 17  1  0  0  0  0
 18 15  1  0  0  0  0
 19 20  2  0  0  0  0
 21 22  2  0  0  0  0
 22 19  1  0  0  0  0
 22 23  1  0  0  0  0
 23 25  1  0  0  0  0
 25 26  1  0  0  0  0
 26 24  2  0  0  0  0
 28 36  1  1  0  0  0
 29 28  1  0  0  0  0
 30 32  1  0  0  0  0
 30 33  1  1  0  0  0
 31 30  1  0  0  0  0
 31 26  1  1  0  0  0
 31 29  1  0  0  0  0
 32 27  1  6  0  0  0
 32 28  1  0  0  0  0
 34 33  2  0  0  0  0
 36 35  1  0  0  0  0
M  END
>  <MODEL>
6

>  <REMARK>
 VINA RESULT:      -7.1      3.091      6.339
  Name = 
  10 active torsions:
  status: ('A' for Active; 'I' for Inactive)
    1  A    between atoms: C_1  and  S_25
    2  A    between atoms: C_2  and  C_27
    3  A    between atoms: N_5  and  S_25
    4  A    between atoms: C_6  and  C_19
    5  A    between atoms: C_11  and  C_17
    6  A    between atoms: C_12  and  C_20
    7  A    between atoms: C_14  and  C_29
    8  A    between atoms: C_14  and  N_32
    9  A    between atoms: N_18  and  C_29
   10  A    between atoms: C_33  and  C_34
                            x       y       z     vdW  Elec       q    Type
                         _______ _______ _______ _____ _____    ______ ____

>  <TORSDO>
F 10

$$$$
=
 OpenBabel11062417103D

 36 40  0  0  1  0  0  0  0  0999 V2000
  183.4640  179.2800  140.9760 C   0  0  1  0  0  3  0  0  0  0  0  0
  181.7610  179.8260  139.2950 N   0  0  0  0  0  2  0  0  0  0  0  0
  183.1360  179.3350  139.4830 C   0  0  2  0  0  0  0  0  0  0  0  0
  182.0840  178.9690  140.4440 C   0  0  1  0  0  3  0  0  0  0  0  0
  185.1280  176.9830  137.1560 C   0  0  2  0  0  3  0  0  0  0  0  0
  184.0130  176.7960  136.1260 C   0  0  0  0  0  2  0  0  0  0  0  0
  183.4440  178.0850  138.6410 C   0  0  1  0  0  3  0  0  0  0  0  0
  182.7260  176.6300  136.8010 N   0  0  0  0  0  2  0  0  0  0  0  0
  182.4130  177.8590  137.5290 C   0  0  0  0  0  2  0  0  0  0  0  0
  184.8210  178.2200  137.9950 C   0  0  0  0  0  2  0  0  0  0  0  0
  186.7170  177.1290  136.3360 S   0  0  0  0  0  0  0  0  0  0  0  0
  186.7420  178.3620  135.4750 O   0  0  0  0  0  0  0  0  0  0  0  0
  186.8630  175.9360  135.4320 O   0  0  0  0  0  0  0  0  0  0  0  0
  189.5470  177.4930  135.3080 C   0  0  0  0  0  1  0  0  0  0  0  0
  189.4120  177.3830  136.8200 C   0  0  0  0  0  0  0  0  0  0  0  0
  188.0870  177.1140  137.4320 N   0  0  0  0  0  0  0  0  0  0  0  0
  188.6890  178.4660  137.4610 C   0  0  0  0  0  2  0  0  0  0  0  0
  190.5710  176.8440  137.6280 C   0  0  0  0  0  1  0  0  0  0  0  0
  184.5190  177.7850  142.6560 N   0  0  0  0  0  0  0  0  0  0  0  0
  184.1050  178.0060  141.4400 C   0  0  0  0  0  3  0  0  0  0  0  0
  183.3570  179.2610  144.2030 C   0  0  0  0  0  2  0  0  0  0  0  0
  184.4690  178.6540  143.8030 C   0  0  0  0  0  0  0  0  0  0  0  0
  185.7240  178.8970  144.5660 C   0  0  0  0  0  2  0  0  0  0  0  0
  187.5390  177.5260  146.2990 O   0  0  0  0  0  0  0  0  0  0  0  0
  186.7530  177.9590  144.1430 N   0  0  0  0  0  2  0  0  0  0  0  0
  187.6770  177.3630  145.0570 C   0  0  0  0  0  0  0  0  0  0  0  0
  192.0130  175.6020  144.1990 C   0  0  0  0  0  1  0  0  0  0  0  0
  190.1220  176.0940  142.6680 C   0  0  2  0  0  3  0  0  0  0  0  0
  188.7540  176.3460  143.1110 N   0  0  0  0  0  2  0  0  0  0  0  0
  190.2220  177.1940  144.8270 C   0  0  1  0  0  3  0  0  0  0  0  0
  188.8500  176.5830  144.5440 C   0  0  1  0  0  3  0  0  0  0  0  0
  191.0790  176.6850  143.6920 C   0  0  1  0  0  3  0  0  0  0  0  0
  190.2400  178.6940  144.7880 C   0  0  0  0  0  3  0  0  0  0  0  0
  190.8910  179.2810  143.9400 O   0  0  0  0  0  0  0  0  0  0  0  0
  189.2120  177.6700  140.9690 C   0  0  0  0  0  1  0  0  0  0  0  0
  190.3590  176.7410  141.3150 C   0  0  0  0  0  2  0  0  0  0  0  0
  1 20  1  6  0  0  0
  3  2  1  6  0  0  0
  3  4  1  0  0  0  0
  3  1  1  0  0  0  0
  4  2  1  1  0  0  0
  4  1  1  0  0  0  0
  5 11  1  6  0  0  0
  5 10  1  0  0  0  0
  6  8  1  0  0  0  0
  6  5  1  0  0  0  0
  7  9  1  6  0  0  0
  7  3  1  0  0  0  0
  8  9  1  0  0  0  0
 10  7  1  0  0  0  0
 11 16  1  0  0  0  0
 12 11  2  0  0  0  0
 13 11  2  0  0  0  0
 14 15  1  0  0  0  0
 15 16  1  0  0  0  0
 15 17  1  0  0  0  0
 15 18  1  0  0  0  0
 16 17  1  0  0  0  0
 19 22  1  0  0  0  0
 20 19  2  0  0  0  0
 22 21  2  0  0  0  0
 22 23  1  0  0  0  0
 25 23  1  0  0  0  0
 25 26  1  0  0  0  0
 26 24  2  0  0  0  0
 28 36  1  6  0  0  0
 28 29  1  0  0  0  0
 28 32  1  0  0  0  0
 29 31  1  0  0  0  0
 30 33  1  6  0  0  0
 31 30  1  0  0  0  0
 31 26  1  6  0  0  0
 32 27  1  1  0  0  0
 32 30  1  0  0  0  0
 34 33  2  0  0  0  0
 35 36  1  0  0  0  0
M  END
>  <MODEL>
7

>  <REMARK>
 VINA RESULT:      -6.9      2.840      8.845
  Name = 
  10 active torsions:
  status: ('A' for Active; 'I' for Inactive)
    1  A    between atoms: C_1  and  S_25
    2  A    between atoms: C_2  and  C_27
    3  A    between atoms: N_5  and  S_25
    4  A    between atoms: C_6  and  C_19
    5  A    between atoms: C_11  and  C_17
    6  A    between atoms: C_12  and  C_20
    7  A    between atoms: C_14  and  C_29
    8  A    between atoms: C_14  and  N_32
    9  A    between atoms: N_18  and  C_29
   10  A    between atoms: C_33  and  C_34
                            x       y       z     vdW  Elec       q    Type
                         _______ _______ _______ _____ _____    ______ ____

>  <TORSDO>
F 10

$$$$
=
 OpenBabel11062417103D

 36 40  0  0  1  0  0  0  0  0999 V2000
  190.0620  177.6810  140.8540 C   0  0  1  0  0  3  0  0  0  0  0  0
  189.5370  178.1170  138.4960 N   0  0  0  0  0  2  0  0  0  0  0  0
  190.5450  177.5520  139.4080 C   0  0  2  0  0  0  0  0  0  0  0  0
  189.1130  177.4080  139.7100 C   0  0  1  0  0  3  0  0  0  0  0  0
  192.9490  174.9610  137.8520 C   0  0  2  0  0  3  0  0  0  0  0  0
  191.9230  174.3440  136.9000 C   0  0  0  0  0  2  0  0  0  0  0  0
  191.0590  176.1760  138.9500 C   0  0  1  0  0  3  0  0  0  0  0  0
  190.6370  174.1870  137.5770 N   0  0  0  0  0  2  0  0  0  0  0  0
  190.1260  175.5110  137.9310 C   0  0  0  0  0  2  0  0  0  0  0  0
  192.4370  176.3230  138.3110 C   0  0  0  0  0  2  0  0  0  0  0  0
  194.5450  175.1010  137.0450 S   0  0  0  0  0  0  0  0  0  0  0  0
  194.8350  173.8540  136.2550 O   0  0  0  0  0  0  0  0  0  0  0  0
  195.5840  175.2110  138.1260 O   0  0  0  0  0  0  0  0  0  0  0  0
  197.1130  175.6600  135.5300 C   0  0  0  0  0  1  0  0  0  0  0  0
  195.9790  176.6450  135.2790 C   0  0  0  0  0  0  0  0  0  0  0  0
  194.7060  176.5240  136.0310 N   0  0  0  0  0  0  0  0  0  0  0  0
  194.8100  176.0940  134.6190 C   0  0  0  0  0  2  0  0  0  0  0  0
  196.3110  178.0650  134.8760 C   0  0  0  0  0  1  0  0  0  0  0  0
  189.6560  176.2680  142.8560 N   0  0  0  0  0  0  0  0  0  0  0  0
  190.1960  176.4380  141.6820 C   0  0  0  0  0  3  0  0  0  0  0  0
  189.3370  178.0830  144.4460 C   0  0  0  0  0  2  0  0  0  0  0  0
  188.8360  177.1750  143.6160 C   0  0  0  0  0  0  0  0  0  0  0  0
  187.3560  177.0810  143.4790 C   0  0  0  0  0  2  0  0  0  0  0  0
  185.2110  178.9700  143.4130 O   0  0  0  0  0  0  0  0  0  0  0  0
  186.9170  177.8210  142.3070 N   0  0  0  0  0  2  0  0  0  0  0  0
  185.7870  178.6990  142.3260 C   0  0  0  0  0  0  0  0  0  0  0  0
  183.0010  180.2060  138.7760 C   0  0  0  0  0  1  0  0  0  0  0  0
  185.1650  178.9910  138.7450 C   0  0  2  0  0  3  0  0  0  0  0  0
  186.0490  178.8620  139.9000 N   0  0  0  0  0  2  0  0  0  0  0  0
  183.7890  178.9180  140.7400 C   0  0  1  0  0  3  0  0  0  0  0  0
  185.2470  179.2620  141.0460 C   0  0  1  0  0  3  0  0  0  0  0  0
  183.7250  178.9520  139.2310 C   0  0  1  0  0  3  0  0  0  0  0  0
  183.3790  177.5480  141.1930 C   0  0  0  0  0  3  0  0  0  0  0  0
  182.4780  176.9540  140.6240 O   0  0  0  0  0  0  0  0  0  0  0  0
  184.1240  177.0770  137.5390 C   0  0  0  0  0  1  0  0  0  0  0  0
  185.4080  177.8470  137.7750 C   0  0  0  0  0  2  0  0  0  0  0  0
  1 20  1  1  0  0  0
  3  2  1  6  0  0  0
  3  4  1  0  0  0  0
  3  1  1  0  0  0  0
  4  2  1  6  0  0  0
  4  1  1  0  0  0  0
  5 11  1  6  0  0  0
  5 10  1  0  0  0  0
  6  8  1  0  0  0  0
  6  5  1  0  0  0  0
  7  9  1  6  0  0  0
  7  3  1  0  0  0  0
  8  9  1  0  0  0  0
 10  7  1  0  0  0  0
 11 13  2  0  0  0  0
 12 11  2  0  0  0  0
 15 14  1  0  0  0  0
 15 16  1  0  0  0  0
 16 11  1  0  0  0  0
 17 15  1  0  0  0  0
 17 16  1  0  0  0  0
 18 15  1  0  0  0  0
 19 22  1  0  0  0  0
 20 19  2  0  0  0  0
 22 21  2  0  0  0  0
 23 22  1  0  0  0  0
 25 26  1  0  0  0  0
 25 23  1  0  0  0  0
 26 24  2  0  0  0  0
 28 36  1  6  0  0  0
 28 32  1  0  0  0  0
 28 29  1  0  0  0  0
 29 31  1  0  0  0  0
 30 31  1  0  0  0  0
 30 33  1  6  0  0  0
 31 26  1  1  0  0  0
 32 27  1  1  0  0  0
 32 30  1  0  0  0  0
 34 33  2  0  0  0  0
 35 36  1  0  0  0  0
M  END
>  <MODEL>
8

>  <REMARK>
 VINA RESULT:      -6.9      4.692      8.649
  Name = 
  10 active torsions:
  status: ('A' for Active; 'I' for Inactive)
    1  A    between atoms: C_1  and  S_25
    2  A    between atoms: C_2  and  C_27
    3  A    between atoms: N_5  and  S_25
    4  A    between atoms: C_6  and  C_19
    5  A    between atoms: C_11  and  C_17
    6  A    between atoms: C_12  and  C_20
    7  A    between atoms: C_14  and  C_29
    8  A    between atoms: C_14  and  N_32
    9  A    between atoms: N_18  and  C_29
   10  A    between atoms: C_33  and  C_34
                            x       y       z     vdW  Elec       q    Type
                         _______ _______ _______ _____ _____    ______ ____

>  <TORSDO>
F 10

$$$$
=
 OpenBabel11062417103D

 36 40  0  0  1  0  0  0  0  0999 V2000
  185.8980  177.6410  144.8420 C   0  0  1  0  0  3  0  0  0  0  0  0
  185.9870  178.2850  147.2090 N   0  0  0  0  0  2  0  0  0  0  0  0
  186.6560  177.4950  146.1620 C   0  0  2  0  0  0  0  0  0  0  0  0
  186.0260  178.7810  145.8270 C   0  0  1  0  0  3  0  0  0  0  0  0
  190.3240  177.0100  145.0560 C   0  0  2  0  0  3  0  0  0  0  0  0
  190.8820  176.7580  146.4580 C   0  0  0  0  0  2  0  0  0  0  0  0
  188.1800  177.7080  146.1360 C   0  0  1  0  0  3  0  0  0  0  0  0
  190.2730  177.6810  147.4150 N   0  0  0  0  0  2  0  0  0  0  0  0
  188.8380  177.4060  147.4870 C   0  0  0  0  0  2  0  0  0  0  0  0
  188.8130  176.8030  145.0830 C   0  0  0  0  0  2  0  0  0  0  0  0
  191.1110  175.9200  143.8670 S   0  0  0  0  0  0  0  0  0  0  0  0
  190.0830  175.0340  143.2200 O   0  0  0  0  0  0  0  0  0  0  0  0
  192.0600  175.0390  144.6300 O   0  0  0  0  0  0  0  0  0  0  0  0
  189.7940  177.0920  141.3990 C   0  0  0  0  0  1  0  0  0  0  0  0
  191.2870  177.3580  141.5300 C   0  0  0  0  0  0  0  0  0  0  0  0
  192.0560  176.7600  142.6490 N   0  0  0  0  0  0  0  0  0  0  0  0
  191.6750  178.1900  142.6540 C   0  0  0  0  0  2  0  0  0  0  0  0
  192.1110  177.5760  140.2800 C   0  0  0  0  0  1  0  0  0  0  0  0
  186.3060  178.3630  142.5000 N   0  0  0  0  0  0  0  0  0  0  0  0
  186.7550  177.9340  143.6460 C   0  0  0  0  0  3  0  0  0  0  0  0
  184.1170  179.3640  142.8600 C   0  0  0  0  0  2  0  0  0  0  0  0
  184.9510  178.6530  142.1090 C   0  0  0  0  0  0  0  0  0  0  0  0
  184.4560  178.1190  140.8100 C   0  0  0  0  0  2  0  0  0  0  0  0
  183.9110  178.2230  138.0060 O   0  0  0  0  0  0  0  0  0  0  0  0
  185.4390  178.3610  139.7650 N   0  0  0  0  0  2  0  0  0  0  0  0
  185.1110  178.3270  138.3740 C   0  0  0  0  0  0  0  0  0  0  0  0
  187.9380  177.4970  134.6380 C   0  0  0  0  0  1  0  0  0  0  0  0
  188.4740  178.1190  136.9800 C   0  0  2  0  0  3  0  0  0  0  0  0
  187.4980  178.6350  137.9350 N   0  0  0  0  0  2  0  0  0  0  0  0
  186.3290  177.1070  136.4800 C   0  0  1  0  0  3  0  0  0  0  0  0
  186.1970  178.3640  137.3410 C   0  0  1  0  0  3  0  0  0  0  0  0
  187.7880  177.0920  136.0920 C   0  0  1  0  0  3  0  0  0  0  0  0
  186.0270  175.8340  137.2130 C   0  0  0  0  0  3  0  0  0  0  0  0
  186.5220  174.7800  136.8480 O   0  0  0  0  0  0  0  0  0  0  0  0
  189.7460  176.0060  137.3270 C   0  0  0  0  0  1  0  0  0  0  0  0
  189.6290  177.4650  137.7200 C   0  0  0  0  0  2  0  0  0  0  0  0
  1 20  1  6  0  0  0
  1  4  1  0  0  0  0
  1  3  1  0  0  0  0
  3  2  1  1  0  0  0
  4  3  1  0  0  0  0
  4  2  1  1  0  0  0
  5 11  1  6  0  0  0
  5 10  1  0  0  0  0
  5  6  1  0  0  0  0
  6  8  1  0  0  0  0
  7 10  1  6  0  0  0
  7  3  1  0  0  0  0
  7  9  1  0  0  0  0
  8  9  1  0  0  0  0
 11 13  2  0  0  0  0
 12 11  2  0  0  0  0
 14 15  1  0  0  0  0
 15 16  1  0  0  0  0
 15 17  1  0  0  0  0
 16 17  1  0  0  0  0
 16 11  1  0  0  0  0
 18 15  1  0  0  0  0
 19 20  2  0  0  0  0
 22 19  1  0  0  0  0
 22 21  2  0  0  0  0
 23 22  1  0  0  0  0
 24 26  2  0  0  0  0
 25 23  1  0  0  0  0
 26 25  1  0  0  0  0
 28 36  1  1  0  0  0
 28 29  1  0  0  0  0
 30 33  1  1  0  0  0
 30 31  1  0  0  0  0
 31 29  1  0  0  0  0
 31 26  1  1  0  0  0
 32 27  1  6  0  0  0
 32 30  1  0  0  0  0
 32 28  1  0  0  0  0
 34 33  2  0  0  0  0
 35 36  1  0  0  0  0
M  END
>  <MODEL>
9

>  <REMARK>
 VINA RESULT:      -6.9      2.798      4.943
  Name = 
  10 active torsions:
  status: ('A' for Active; 'I' for Inactive)
    1  A    between atoms: C_1  and  S_25
    2  A    between atoms: C_2  and  C_27
    3  A    between atoms: N_5  and  S_25
    4  A    between atoms: C_6  and  C_19
    5  A    between atoms: C_11  and  C_17
    6  A    between atoms: C_12  and  C_20
    7  A    between atoms: C_14  and  C_29
    8  A    between atoms: C_14  and  N_32
    9  A    between atoms: N_18  and  C_29
   10  A    between atoms: C_33  and  C_34
                            x       y       z     vdW  Elec       q    Type
                         _______ _______ _______ _____ _____    ______ ____

>  <TORSDO>
F 10

$$$$
