=
 OpenBabel11062416193D

 29 32  0  0  1  0  0  0  0  0999 V2000
  189.5250  177.7800  141.8090 C   0  0  0  0  0  0  0  0  0  0  0  0
  188.4920  177.5560  139.2040 C   0  0  0  0  0  0  0  0  0  0  0  0
  189.7260  176.9600  139.5320 C   0  0  0  0  0  0  0  0  0  0  0  0
  188.2940  178.3660  141.4850 C   0  0  0  0  0  3  0  0  0  0  0  0
  190.2330  177.0780  140.8300 C   0  0  0  0  0  3  0  0  0  0  0  0
  187.7820  178.2520  140.1910 C   0  0  0  0  0  3  0  0  0  0  0  0
  188.2350  178.4270  136.8720 C   0  0  0  0  0  3  0  0  0  0  0  0
  189.0010  179.4390  137.1170 N   0  0  0  0  0  2  0  0  0  0  0  0
  187.9450  177.4500  137.8790 N   0  0  0  0  0  0  0  0  0  0  0  0
  186.9430  174.5260  134.5940 O   0  0  0  0  0  0  0  0  0  0  0  0
  186.7750  175.2590  135.5540 C   0  0  0  0  0  0  0  0  0  0  0  0
  187.6660  175.3130  136.7020 C   0  0  0  0  0  2  0  0  0  0  0  0
  185.8570  176.9310  136.8900 O   0  0  0  0  0  0  0  0  0  0  0  0
  185.6740  176.2320  135.6770 C   0  0  2  0  0  3  0  0  0  0  0  0
  186.9980  176.3910  137.5440 C   0  0  2  0  0  3  0  0  0  0  0  0
  184.2970  175.5650  135.6330 C   0  0  0  0  0  2  0  0  0  0  0  0
  184.0670  174.6720  136.7780 C   0  0  0  0  0  0  0  0  0  0  0  0
  183.8860  173.9690  137.6790 N   0  0  0  0  0  0  0  0  0  0  0  0
  190.4870  176.1880  138.5480 C   0  0  0  0  0  0  0  0  0  0  0  0
  190.9470  174.9920  138.0960 O   0  0  0  0  0  0  0  0  0  0  0  0
  191.2350  176.1480  137.4470 N   0  0  0  0  0  0  0  0  0  0  0  0
  190.0700  177.8820  143.1270 N   0  0  0  0  0  0  0  0  0  0  0  0
  189.3390  178.1410  144.1350 N   0  0  0  0  0  0  0  0  0  0  0  0
  189.9250  178.2350  145.4610 C   0  0  2  0  0  3  0  0  0  0  0  0
  191.3670  177.7620  145.4250 C   0  0  0  0  0  2  0  0  0  0  0  0
  189.5500  177.0060  146.2680 C   0  0  0  0  0  2  0  0  0  0  0  0
  190.9880  176.5310  146.2280 C   0  0  2  0  0  3  0  0  0  0  0  0
  191.5920  176.6010  147.6210 C   0  0  0  0  0  2  0  0  0  0  0  0
  192.6050  175.4890  147.8070 C   0  0  0  0  0  1  0  0  0  0  0  0
  1 22  1  0  0  0  0
  2  3  2  0  0  0  0
  2  6  1  0  0  0  0
  3  5  1  0  0  0  0
  4  1  1  0  0  0  0
  5  1  2  0  0  0  0
  6  4  2  0  0  0  0
  7  8  2  0  0  0  0
  7  9  1  0  0  0  0
  9  2  1  0  0  0  0
 10 11  2  0  0  0  0
 11 14  1  0  0  0  0
 11 12  1  0  0  0  0
 12 15  1  0  0  0  0
 13 15  1  0  0  0  0
 14 16  1  1  0  0  0
 14 13  1  0  0  0  0
 15  9  1  6  0  0  0
 16 17  1  0  0  0  0
 17 18  3  0  0  0  0
 19  3  1  0  0  0  0
 20 19  1  0  0  0  0
 21 20  1  0  0  0  0
 21 19  2  0  0  0  0
 22 23  2  0  0  0  0
 24 23  1  6  0  0  0
 24 26  1  0  0  0  0
 25 24  1  0  0  0  0
 25 27  1  0  0  0  0
 27 26  1  0  0  0  0
 27 28  1  1  0  0  0
 28 29  1  0  0  0  0
M  END
>  <MODEL>
1

>  <REMARK>
 VINA RESULT:      -6.5      0.000      0.000
  Name = 
  8 active torsions:
  status: ('A' for Active; 'I' for Inactive)
    1  A    between atoms: C_1  and  N_16
    2  A    between atoms: C_2  and  N_20
    3  A    between atoms: C_3  and  C_21
    4  A    between atoms: C_3  and  C_23
    5  A    between atoms: C_4  and  N_12
    6  A    between atoms: C_5  and  C_19
    7  A    between atoms: N_12  and  C_28
    8  A    between atoms: C_14  and  C_26
                            x       y       z     vdW  Elec       q    Type
                         _______ _______ _______ _____ _____    ______ ____

>  <TORSDO>
F 8

$$$$
=
 OpenBabel11062416193D

 29 32  0  0  1  0  0  0  0  0999 V2000
  184.6470  178.9510  144.5290 C   0  0  0  0  0  0  0  0  0  0  0  0
  182.5880  178.8210  142.6190 C   0  0  0  0  0  0  0  0  0  0  0  0
  183.9250  179.0050  142.2110 C   0  0  0  0  0  0  0  0  0  0  0  0
  183.3190  178.7610  144.9340 C   0  0  0  0  0  3  0  0  0  0  0  0
  184.9430  179.0690  143.1680 C   0  0  0  0  0  3  0  0  0  0  0  0
  182.2980  178.6960  143.9840 C   0  0  0  0  0  3  0  0  0  0  0  0
  180.4480  179.6980  141.6640 C   0  0  0  0  0  3  0  0  0  0  0  0
  180.4000  180.6550  142.5310 N   0  0  0  0  0  2  0  0  0  0  0  0
  181.5210  178.7490  141.6590 N   0  0  0  0  0  0  0  0  0  0  0  0
  179.4420  177.5140  137.8510 O   0  0  0  0  0  0  0  0  0  0  0  0
  180.0170  177.4010  138.9210 C   0  0  0  0  0  0  0  0  0  0  0  0
  181.1950  178.1670  139.2960 C   0  0  0  0  0  2  0  0  0  0  0  0
  180.4590  176.7090  141.1000 O   0  0  0  0  0  0  0  0  0  0  0  0
  179.5810  176.5110  140.0120 C   0  0  2  0  0  3  0  0  0  0  0  0
  181.4500  177.6480  140.7040 C   0  0  2  0  0  3  0  0  0  0  0  0
  179.5560  175.0390  139.5910 C   0  0  0  0  0  2  0  0  0  0  0  0
  179.5850  174.1240  140.7410 C   0  0  0  0  0  0  0  0  0  0  0  0
  179.6090  173.4030  141.6460 N   0  0  0  0  0  0  0  0  0  0  0  0
  184.2840  179.1020  140.7950 C   0  0  0  0  0  0  0  0  0  0  0  0
  184.3340  179.8220  139.6440 O   0  0  0  0  0  0  0  0  0  0  0  0
  184.7980  178.5480  139.6990 N   0  0  0  0  0  0  0  0  0  0  0  0
  185.7110  179.0220  145.4830 N   0  0  0  0  0  0  0  0  0  0  0  0
  186.7200  178.2510  145.4160 N   0  0  0  0  0  0  0  0  0  0  0  0
  187.7850  178.3500  146.3990 C   0  0  2  0  0  3  0  0  0  0  0  0
  189.1340  178.2220  145.7160 C   0  0  0  0  0  2  0  0  0  0  0  0
  187.9970  176.9990  147.0550 C   0  0  0  0  0  2  0  0  0  0  0  0
  189.3420  176.8680  146.3690 C   0  0  2  0  0  3  0  0  0  0  0  0
  190.4550  176.9430  147.4020 C   0  0  0  0  0  2  0  0  0  0  0  0
  191.6270  176.0850  146.9680 C   0  0  0  0  0  1  0  0  0  0  0  0
  1  4  1  0  0  0  0
  1 22  1  0  0  0  0
  2  6  1  0  0  0  0
  3  2  2  0  0  0  0
  3  5  1  0  0  0  0
  5  1  2  0  0  0  0
  6  4  2  0  0  0  0
  7  8  2  0  0  0  0
  9  7  1  0  0  0  0
  9  2  1  0  0  0  0
 10 11  2  0  0  0  0
 11 12  1  0  0  0  0
 11 14  1  0  0  0  0
 12 15  1  0  0  0  0
 14 16  1  6  0  0  0
 14 13  1  0  0  0  0
 15 13  1  0  0  0  0
 15  9  1  1  0  0  0
 16 17  1  0  0  0  0
 17 18  3  0  0  0  0
 19  3  1  0  0  0  0
 20 21  1  0  0  0  0
 20 19  1  0  0  0  0
 21 19  2  0  0  0  0
 23 22  2  0  0  0  0
 24 23  1  6  0  0  0
 24 26  1  0  0  0  0
 25 27  1  0  0  0  0
 25 24  1  0  0  0  0
 27 26  1  0  0  0  0
 27 28  1  1  0  0  0
 29 28  1  0  0  0  0
M  END
>  <MODEL>
2

>  <REMARK>
 VINA RESULT:      -6.5      5.057      6.347
  Name = 
  8 active torsions:
  status: ('A' for Active; 'I' for Inactive)
    1  A    between atoms: C_1  and  N_16
    2  A    between atoms: C_2  and  N_20
    3  A    between atoms: C_3  and  C_21
    4  A    between atoms: C_3  and  C_23
    5  A    between atoms: C_4  and  N_12
    6  A    between atoms: C_5  and  C_19
    7  A    between atoms: N_12  and  C_28
    8  A    between atoms: C_14  and  C_26
                            x       y       z     vdW  Elec       q    Type
                         _______ _______ _______ _____ _____    ______ ____

>  <TORSDO>
F 8

$$$$
=
 OpenBabel11062416193D

 29 32  0  0  1  0  0  0  0  0999 V2000
  183.8150  178.9500  142.3690 C   0  0  0  0  0  0  0  0  0  0  0  0
  181.9020  178.3660  140.3930 C   0  0  0  0  0  0  0  0  0  0  0  0
  181.5160  178.4740  141.7440 C   0  0  0  0  0  0  0  0  0  0  0  0
  184.1960  178.8500  141.0240 C   0  0  0  0  0  3  0  0  0  0  0  0
  182.4750  178.7630  142.7210 C   0  0  0  0  0  3  0  0  0  0  0  0
  183.2450  178.5610  140.0440 C   0  0  0  0  0  3  0  0  0  0  0  0
  180.7220  176.7310  138.9100 C   0  0  0  0  0  3  0  0  0  0  0  0
  181.3830  175.7360  139.4050 N   0  0  0  0  0  2  0  0  0  0  0  0
  180.9390  178.0710  139.3670 N   0  0  0  0  0  0  0  0  0  0  0  0
  180.9960  180.5200  135.5790 O   0  0  0  0  0  0  0  0  0  0  0  0
  180.7790  180.2330  136.7450 C   0  0  0  0  0  0  0  0  0  0  0  0
  180.2470  178.9520  137.1820 C   0  0  0  0  0  2  0  0  0  0  0  0
  180.7410  180.4110  139.0660 O   0  0  0  0  0  0  0  0  0  0  0  0
  181.0660  181.1180  137.8880 C   0  0  2  0  0  3  0  0  0  0  0  0
  180.2160  179.1440  138.6910 C   0  0  2  0  0  3  0  0  0  0  0  0
  180.2960  182.4390  137.8130 C   0  0  0  0  0  2  0  0  0  0  0  0
  181.1550  183.5720  137.4410 C   0  0  0  0  0  0  0  0  0  0  0  0
  181.8310  184.4630  137.1470 N   0  0  0  0  0  0  0  0  0  0  0  0
  180.1200  178.3170  142.1550 C   0  0  0  0  0  0  0  0  0  0  0  0
  178.9840  177.5730  142.1910 O   0  0  0  0  0  0  0  0  0  0  0  0
  179.0390  178.8020  142.7630 N   0  0  0  0  0  0  0  0  0  0  0  0
  184.7700  179.2440  143.3910 N   0  0  0  0  0  0  0  0  0  0  0  0
  184.6000  178.8670  144.5940 N   0  0  0  0  0  0  0  0  0  0  0  0
  185.5930  179.1800  145.6080 C   0  0  2  0  0  3  0  0  0  0  0  0
  186.8640  178.3920  145.3490 C   0  0  0  0  0  2  0  0  0  0  0  0
  185.3340  178.3420  146.8450 C   0  0  0  0  0  2  0  0  0  0  0  0
  186.6000  177.5510  146.5850 C   0  0  2  0  0  3  0  0  0  0  0  0
  187.6280  177.8570  147.6620 C   0  0  0  0  0  2  0  0  0  0  0  0
  188.7920  176.8920  147.5610 C   0  0  0  0  0  1  0  0  0  0  0  0
  1  5  1  0  0  0  0
  1 22  1  0  0  0  0
  2  3  1  0  0  0  0
  3 19  1  0  0  0  0
  3  5  2  0  0  0  0
  4  1  2  0  0  0  0
  6  2  2  0  0  0  0
  6  4  1  0  0  0  0
  7  9  1  0  0  0  0
  7  8  2  0  0  0  0
  9  2  1  0  0  0  0
 10 11  2  0  0  0  0
 11 12  1  0  0  0  0
 11 14  1  0  0  0  0
 12 15  1  0  0  0  0
 14 16  1  6  0  0  0
 14 13  1  0  0  0  0
 15 13  1  0  0  0  0
 15  9  1  1  0  0  0
 17 16  1  0  0  0  0
 18 17  3  0  0  0  0
 19 20  1  0  0  0  0
 19 21  2  0  0  0  0
 20 21  1  0  0  0  0
 22 23  2  0  0  0  0
 24 23  1  6  0  0  0
 24 26  1  0  0  0  0
 25 24  1  0  0  0  0
 25 27  1  0  0  0  0
 27 26  1  0  0  0  0
 27 28  1  1  0  0  0
 29 28  1  0  0  0  0
M  END
>  <MODEL>
3

>  <REMARK>
 VINA RESULT:      -6.4      5.861      7.692
  Name = 
  8 active torsions:
  status: ('A' for Active; 'I' for Inactive)
    1  A    between atoms: C_1  and  N_16
    2  A    between atoms: C_2  and  N_20
    3  A    between atoms: C_3  and  C_21
    4  A    between atoms: C_3  and  C_23
    5  A    between atoms: C_4  and  N_12
    6  A    between atoms: C_5  and  C_19
    7  A    between atoms: N_12  and  C_28
    8  A    between atoms: C_14  and  C_26
                            x       y       z     vdW  Elec       q    Type
                         _______ _______ _______ _____ _____    ______ ____

>  <TORSDO>
F 8

$$$$
=
 OpenBabel11062416193D

 29 32  0  0  1  0  0  0  0  0999 V2000
  183.5060  178.8720  142.6770 C   0  0  0  0  0  0  0  0  0  0  0  0
  181.4630  178.3780  140.8110 C   0  0  0  0  0  0  0  0  0  0  0  0
  182.8150  178.2620  140.4300 C   0  0  0  0  0  0  0  0  0  0  0  0
  182.1610  178.9790  143.0570 C   0  0  0  0  0  3  0  0  0  0  0  0
  183.8250  178.5110  141.3650 C   0  0  0  0  0  3  0  0  0  0  0  0
  181.1470  178.7320  142.1290 C   0  0  0  0  0  3  0  0  0  0  0  0
  179.9360  176.7970  139.6130 C   0  0  0  0  0  3  0  0  0  0  0  0
  180.4490  175.7740  140.2140 N   0  0  0  0  0  2  0  0  0  0  0  0
  180.4030  178.1260  139.8720 N   0  0  0  0  0  0  0  0  0  0  0  0
  180.9960  180.3620  136.0000 O   0  0  0  0  0  0  0  0  0  0  0  0
  180.6520  180.1540  137.1520 C   0  0  0  0  0  0  0  0  0  0  0  0
  179.9840  178.9400  137.5940 C   0  0  0  0  0  2  0  0  0  0  0  0
  180.4180  180.4550  139.4480 O   0  0  0  0  0  0  0  0  0  0  0  0
  180.9030  181.0730  138.2760 C   0  0  2  0  0  3  0  0  0  0  0  0
  179.8310  179.2130  139.0830 C   0  0  2  0  0  3  0  0  0  0  0  0
  180.2480  182.4420  138.0680 C   0  0  0  0  0  2  0  0  0  0  0  0
  181.2080  183.4640  137.6260 C   0  0  0  0  0  0  0  0  0  0  0  0
  181.9630  184.2680  137.2770 N   0  0  0  0  0  0  0  0  0  0  0  0
  183.1950  177.8570  139.0760 C   0  0  0  0  0  0  0  0  0  0  0  0
  183.4790  178.1860  137.7890 O   0  0  0  0  0  0  0  0  0  0  0  0
  183.5130  176.8970  138.2100 N   0  0  0  0  0  0  0  0  0  0  0  0
  184.5620  179.1200  143.6090 N   0  0  0  0  0  0  0  0  0  0  0  0
  184.3910  178.9880  144.8630 N   0  0  0  0  0  0  0  0  0  0  0  0
  185.4860  179.2450  145.7830 C   0  0  2  0  0  3  0  0  0  0  0  0
  186.7280  178.4970  145.3320 C   0  0  0  0  0  2  0  0  0  0  0  0
  185.3710  178.3190  146.9780 C   0  0  0  0  0  2  0  0  0  0  0  0
  186.6070  177.5680  146.5260 C   0  0  2  0  0  3  0  0  0  0  0  0
  187.7440  177.8130  147.5040 C   0  0  0  0  0  2  0  0  0  0  0  0
  188.7730  176.7050  147.3960 C   0  0  0  0  0  1  0  0  0  0  0  0
  1  4  1  0  0  0  0
  1 22  1  0  0  0  0
  2  6  1  0  0  0  0
  3  2  2  0  0  0  0
  3  5  1  0  0  0  0
  5  1  2  0  0  0  0
  6  4  2  0  0  0  0
  7  9  1  0  0  0  0
  7  8  2  0  0  0  0
  9  2  1  0  0  0  0
 10 11  2  0  0  0  0
 11 12  1  0  0  0  0
 11 14  1  0  0  0  0
 12 15  1  0  0  0  0
 14 16  1  6  0  0  0
 14 13  1  0  0  0  0
 15 13  1  0  0  0  0
 15  9  1  1  0  0  0
 17 16  1  0  0  0  0
 18 17  3  0  0  0  0
 19  3  1  0  0  0  0
 20 21  1  0  0  0  0
 20 19  1  0  0  0  0
 21 19  2  0  0  0  0
 22 23  2  0  0  0  0
 24 23  1  6  0  0  0
 24 26  1  0  0  0  0
 25 24  1  0  0  0  0
 25 27  1  0  0  0  0
 27 26  1  0  0  0  0
 27 28  1  1  0  0  0
 29 28  1  0  0  0  0
M  END
>  <MODEL>
4

>  <REMARK>
 VINA RESULT:      -6.3      5.549      7.200
  Name = 
  8 active torsions:
  status: ('A' for Active; 'I' for Inactive)
    1  A    between atoms: C_1  and  N_16
    2  A    between atoms: C_2  and  N_20
    3  A    between atoms: C_3  and  C_21
    4  A    between atoms: C_3  and  C_23
    5  A    between atoms: C_4  and  N_12
    6  A    between atoms: C_5  and  C_19
    7  A    between atoms: N_12  and  C_28
    8  A    between atoms: C_14  and  C_26
                            x       y       z     vdW  Elec       q    Type
                         _______ _______ _______ _____ _____    ______ ____

>  <TORSDO>
F 8

$$$$
=
 OpenBabel11062416193D

 29 32  0  0  1  0  0  0  0  0999 V2000
  189.7850  177.4720  141.4560 C   0  0  0  0  0  0  0  0  0  0  0  0
  189.1420  177.4250  138.7200 C   0  0  0  0  0  0  0  0  0  0  0  0
  188.1790  177.8250  139.6680 C   0  0  0  0  0  0  0  0  0  0  0  0
  190.7440  177.0820  140.5120 C   0  0  0  0  0  3  0  0  0  0  0  0
  188.5080  177.8450  141.0280 C   0  0  0  0  0  3  0  0  0  0  0  0
  190.4230  177.0600  139.1530 C   0  0  0  0  0  3  0  0  0  0  0  0
  188.7630  178.6020  136.5430 C   0  0  0  0  0  3  0  0  0  0  0  0
  188.9740  179.7580  137.0800 N   0  0  0  0  0  2  0  0  0  0  0  0
  188.8350  177.3970  137.3160 N   0  0  0  0  0  0  0  0  0  0  0  0
  185.6450  175.5330  134.7260 O   0  0  0  0  0  0  0  0  0  0  0  0
  186.5540  175.6050  135.5380 C   0  0  0  0  0  0  0  0  0  0  0  0
  187.7540  176.4040  135.3470 C   0  0  0  0  0  2  0  0  0  0  0  0
  187.7380  175.3090  137.5200 O   0  0  0  0  0  0  0  0  0  0  0  0
  186.5530  174.9340  136.8500 C   0  0  2  0  0  3  0  0  0  0  0  0
  188.4930  176.1430  136.6510 C   0  0  2  0  0  3  0  0  0  0  0  0
  186.4530  173.4110  136.7290 C   0  0  0  0  0  2  0  0  0  0  0  0
  185.1660  172.8910  137.2130 C   0  0  0  0  0  0  0  0  0  0  0  0
  184.1540  172.4810  137.5950 N   0  0  0  0  0  0  0  0  0  0  0  0
  186.8400  178.2540  139.2630 C   0  0  0  0  0  0  0  0  0  0  0  0
  185.8590  178.3080  138.3230 O   0  0  0  0  0  0  0  0  0  0  0  0
  185.6970  178.8750  139.5450 N   0  0  0  0  0  0  0  0  0  0  0  0
  190.0890  177.5030  142.8530 N   0  0  0  0  0  0  0  0  0  0  0  0
  189.4670  178.2680  143.6560 N   0  0  0  0  0  0  0  0  0  0  0  0
  189.7980  178.2720  145.0710 C   0  0  2  0  0  3  0  0  0  0  0  0
  191.2980  178.1290  145.2520 C   0  0  0  0  0  2  0  0  0  0  0  0
  189.6040  176.8800  145.6400 C   0  0  0  0  0  2  0  0  0  0  0  0
  191.1020  176.7340  145.8160 C   0  0  2  0  0  3  0  0  0  0  0  0
  191.4450  176.7090  147.2970 C   0  0  0  0  0  2  0  0  0  0  0  0
  192.4450  175.6050  147.5810 C   0  0  0  0  0  1  0  0  0  0  0  0
  1 22  1  0  0  0  0
  2  6  2  0  0  0  0
  2  3  1  0  0  0  0
  3  5  2  0  0  0  0
  4  1  2  0  0  0  0
  5  1  1  0  0  0  0
  6  4  1  0  0  0  0
  7  8  2  0  0  0  0
  7  9  1  0  0  0  0
  9  2  1  0  0  0  0
 10 11  2  0  0  0  0
 11 14  1  0  0  0  0
 12 11  1  0  0  0  0
 12 15  1  0  0  0  0
 14 16  1  6  0  0  0
 14 13  1  0  0  0  0
 15  9  1  1  0  0  0
 15 13  1  0  0  0  0
 16 17  1  0  0  0  0
 17 18  3  0  0  0  0
 19 21  2  0  0  0  0
 19  3  1  0  0  0  0
 20 19  1  0  0  0  0
 20 21  1  0  0  0  0
 22 23  2  0  0  0  0
 24 23  1  6  0  0  0
 24 25  1  0  0  0  0
 24 26  1  0  0  0  0
 25 27  1  0  0  0  0
 26 27  1  0  0  0  0
 27 28  1  1  0  0  0
 28 29  1  0  0  0  0
M  END
>  <MODEL>
5

>  <REMARK>
 VINA RESULT:      -6.2      1.306      2.374
  Name = 
  8 active torsions:
  status: ('A' for Active; 'I' for Inactive)
    1  A    between atoms: C_1  and  N_16
    2  A    between atoms: C_2  and  N_20
    3  A    between atoms: C_3  and  C_21
    4  A    between atoms: C_3  and  C_23
    5  A    between atoms: C_4  and  N_12
    6  A    between atoms: C_5  and  C_19
    7  A    between atoms: N_12  and  C_28
    8  A    between atoms: C_14  and  C_26
                            x       y       z     vdW  Elec       q    Type
                         _______ _______ _______ _____ _____    ______ ____

>  <TORSDO>
F 8

$$$$
=
 OpenBabel11062416193D

 29 32  0  0  1  0  0  0  0  0999 V2000
  190.6800  177.3990  141.1650 C   0  0  0  0  0  0  0  0  0  0  0  0
  190.2200  176.4780  138.5490 C   0  0  0  0  0  0  0  0  0  0  0  0
  191.5320  176.7550  138.9840 C   0  0  0  0  0  0  0  0  0  0  0  0
  189.3760  177.1160  140.7350 C   0  0  0  0  0  3  0  0  0  0  0  0
  191.7510  177.2140  140.2870 C   0  0  0  0  0  3  0  0  0  0  0  0
  189.1500  176.6580  139.4350 C   0  0  0  0  0  3  0  0  0  0  0  0
  190.3590  174.6890  136.8040 C   0  0  0  0  0  3  0  0  0  0  0  0
  190.9590  173.8820  137.6140 N   0  0  0  0  0  2  0  0  0  0  0  0
  189.9640  176.0030  137.2160 N   0  0  0  0  0  0  0  0  0  0  0  0
  187.4180  179.7060  136.8300 O   0  0  0  0  0  0  0  0  0  0  0  0
  187.9190  178.6350  136.5320 C   0  0  0  0  0  0  0  0  0  0  0  0
  189.3280  178.3200  136.7090 C   0  0  0  0  0  2  0  0  0  0  0  0
  188.0830  176.4180  135.8400 O   0  0  0  0  0  0  0  0  0  0  0  0
  187.1710  177.4840  135.9950 C   0  0  2  0  0  3  0  0  0  0  0  0
  189.3740  176.8820  136.2110 C   0  0  2  0  0  3  0  0  0  0  0  0
  186.4760  177.8060  134.6700 C   0  0  0  0  0  2  0  0  0  0  0  0
  185.0880  177.3240  134.6300 C   0  0  0  0  0  0  0  0  0  0  0  0
  183.9960  176.9440  134.5990 N   0  0  0  0  0  0  0  0  0  0  0  0
  192.6870  176.5450  138.1100 C   0  0  0  0  0  0  0  0  0  0  0  0
  193.2760  176.6760  136.8920 O   0  0  0  0  0  0  0  0  0  0  0  0
  193.9230  176.0860  137.9270 N   0  0  0  0  0  0  0  0  0  0  0  0
  190.9370  177.8700  142.4910 N   0  0  0  0  0  0  0  0  0  0  0  0
  190.4070  177.3220  143.5090 N   0  0  0  0  0  0  0  0  0  0  0  0
  190.6930  177.8230  144.8430 C   0  0  2  0  0  3  0  0  0  0  0  0
  190.7880  176.6670  145.8210 C   0  0  0  0  0  2  0  0  0  0  0  0
  189.4020  178.2670  145.5040 C   0  0  0  0  0  2  0  0  0  0  0  0
  189.4920  177.1090  146.4770 C   0  0  2  0  0  3  0  0  0  0  0  0
  189.7620  177.6360  147.8780 C   0  0  0  0  0  2  0  0  0  0  0  0
  188.4530  177.8710  148.6060 C   0  0  0  0  0  1  0  0  0  0  0  0
  1 22  1  0  0  0  0
  2  3  2  0  0  0  0
  2  6  1  0  0  0  0
  3  5  1  0  0  0  0
  4  1  1  0  0  0  0
  5  1  2  0  0  0  0
  6  4  2  0  0  0  0
  7  9  1  0  0  0  0
  7  8  2  0  0  0  0
  9  2  1  0  0  0  0
 11 12  1  0  0  0  0
 11 10  2  0  0  0  0
 13 14  1  0  0  0  0
 13 15  1  0  0  0  0
 14 16  1  6  0  0  0
 14 11  1  0  0  0  0
 15 12  1  0  0  0  0
 15  9  1  1  0  0  0
 17 16  1  0  0  0  0
 18 17  3  0  0  0  0
 19  3  1  0  0  0  0
 20 21  1  0  0  0  0
 20 19  1  0  0  0  0
 21 19  2  0  0  0  0
 22 23  2  0  0  0  0
 24 23  1  6  0  0  0
 24 26  1  0  0  0  0
 24 25  1  0  0  0  0
 25 27  1  0  0  0  0
 26 27  1  0  0  0  0
 27 28  1  1  0  0  0
 28 29  1  0  0  0  0
M  END
>  <MODEL>
6

>  <REMARK>
 VINA RESULT:      -6.0      2.072      2.992
  Name = 
  8 active torsions:
  status: ('A' for Active; 'I' for Inactive)
    1  A    between atoms: C_1  and  N_16
    2  A    between atoms: C_2  and  N_20
    3  A    between atoms: C_3  and  C_21
    4  A    between atoms: C_3  and  C_23
    5  A    between atoms: C_4  and  N_12
    6  A    between atoms: C_5  and  C_19
    7  A    between atoms: N_12  and  C_28
    8  A    between atoms: C_14  and  C_26
                            x       y       z     vdW  Elec       q    Type
                         _______ _______ _______ _____ _____    ______ ____

>  <TORSDO>
F 8

$$$$
=
 OpenBabel11062416193D

 29 32  0  0  1  0  0  0  0  0999 V2000
  183.1580  178.7650  143.0610 C   0  0  0  0  0  0  0  0  0  0  0  0
  182.4360  178.8990  140.3480 C   0  0  0  0  0  0  0  0  0  0  0  0
  183.7950  178.9100  140.7220 C   0  0  0  0  0  0  0  0  0  0  0  0
  181.8070  178.7460  142.6880 C   0  0  0  0  0  3  0  0  0  0  0  0
  184.1450  178.8440  142.0740 C   0  0  0  0  0  3  0  0  0  0  0  0
  181.4500  178.8120  141.3400 C   0  0  0  0  0  3  0  0  0  0  0  0
  181.7910  180.2170  138.3200 C   0  0  0  0  0  3  0  0  0  0  0  0
  181.9050  181.3360  138.9550 N   0  0  0  0  0  2  0  0  0  0  0  0
  182.0450  178.9640  138.9650 N   0  0  0  0  0  0  0  0  0  0  0  0
  180.2800  174.8330  139.3780 O   0  0  0  0  0  0  0  0  0  0  0  0
  180.9920  175.7290  138.9540 C   0  0  0  0  0  0  0  0  0  0  0  0
  180.5160  177.0690  138.6480 C   0  0  0  0  0  2  0  0  0  0  0  0
  182.9170  176.8650  138.3020 O   0  0  0  0  0  0  0  0  0  0  0  0
  182.4440  175.6060  138.7320 C   0  0  2  0  0  3  0  0  0  0  0  0
  181.8050  177.7440  138.2000 C   0  0  2  0  0  3  0  0  0  0  0  0
  182.7900  174.5160  137.7150 C   0  0  0  0  0  2  0  0  0  0  0  0
  184.2310  174.4470  137.4310 C   0  0  0  0  0  0  0  0  0  0  0  0
  185.3650  174.3940  137.2080 N   0  0  0  0  0  0  0  0  0  0  0  0
  184.8620  178.9600  139.7210 C   0  0  0  0  0  0  0  0  0  0  0  0
  185.3160  179.3740  138.5090 O   0  0  0  0  0  0  0  0  0  0  0  0
  186.0930  178.6310  139.3360 N   0  0  0  0  0  0  0  0  0  0  0  0
  183.5490  178.6990  144.4350 N   0  0  0  0  0  0  0  0  0  0  0  0
  184.7100  178.3140  144.7820 N   0  0  0  0  0  0  0  0  0  0  0  0
  185.0770  178.2620  146.1870 C   0  0  2  0  0  3  0  0  0  0  0  0
  186.0550  179.3770  146.5090 C   0  0  0  0  0  2  0  0  0  0  0  0
  186.1840  177.2440  146.3840 C   0  0  0  0  0  2  0  0  0  0  0  0
  187.1620  178.3570  146.7000 C   0  0  2  0  0  3  0  0  0  0  0  0
  187.5680  178.2840  148.1630 C   0  0  0  0  0  2  0  0  0  0  0  0
  189.0790  178.2500  148.2840 C   0  0  0  0  0  1  0  0  0  0  0  0
  1 22  1  0  0  0  0
  2  3  2  0  0  0  0
  2  6  1  0  0  0  0
  3  5  1  0  0  0  0
  4  1  1  0  0  0  0
  5  1  2  0  0  0  0
  6  4  2  0  0  0  0
  7  8  2  0  0  0  0
  7  9  1  0  0  0  0
  9  2  1  0  0  0  0
 11 10  2  0  0  0  0
 12 11  1  0  0  0  0
 13 14  1  0  0  0  0
 14 16  1  6  0  0  0
 14 11  1  0  0  0  0
 15 13  1  0  0  0  0
 15 12  1  0  0  0  0
 15  9  1  1  0  0  0
 17 16  1  0  0  0  0
 18 17  3  0  0  0  0
 19  3  1  0  0  0  0
 20 21  1  0  0  0  0
 20 19  1  0  0  0  0
 21 19  2  0  0  0  0
 22 23  2  0  0  0  0
 24 23  1  6  0  0  0
 24 26  1  0  0  0  0
 24 25  1  0  0  0  0
 25 27  1  0  0  0  0
 26 27  1  0  0  0  0
 27 28  1  1  0  0  0
 28 29  1  0  0  0  0
M  END
>  <MODEL>
7

>  <REMARK>
 VINA RESULT:      -5.9      4.420      5.736
  Name = 
  8 active torsions:
  status: ('A' for Active; 'I' for Inactive)
    1  A    between atoms: C_1  and  N_16
    2  A    between atoms: C_2  and  N_20
    3  A    between atoms: C_3  and  C_21
    4  A    between atoms: C_3  and  C_23
    5  A    between atoms: C_4  and  N_12
    6  A    between atoms: C_5  and  C_19
    7  A    between atoms: N_12  and  C_28
    8  A    between atoms: C_14  and  C_26
                            x       y       z     vdW  Elec       q    Type
                         _______ _______ _______ _____ _____    ______ ____

>  <TORSDO>
F 8

$$$$
=
 OpenBabel11062416193D

 29 32  0  0  1  0  0  0  0  0999 V2000
  189.4610  177.5060  139.9410 C   0  0  0  0  0  0  0  0  0  0  0  0
  188.4340  176.9250  137.3890 C   0  0  0  0  0  0  0  0  0  0  0  0
  189.4370  176.1120  137.9530 C   0  0  0  0  0  0  0  0  0  0  0  0
  188.4580  178.3110  139.3830 C   0  0  0  0  0  3  0  0  0  0  0  0
  189.9430  176.4090  139.2230 C   0  0  0  0  0  3  0  0  0  0  0  0
  187.9480  178.0200  138.1160 C   0  0  0  0  0  3  0  0  0  0  0  0
  188.5450  177.0990  134.8950 C   0  0  0  0  0  3  0  0  0  0  0  0
  189.6440  177.7780  134.9460 N   0  0  0  0  0  2  0  0  0  0  0  0
  187.8940  176.6440  136.0870 N   0  0  0  0  0  0  0  0  0  0  0  0
  183.4720  177.4830  135.7860 O   0  0  0  0  0  0  0  0  0  0  0  0
  184.5000  176.8730  136.0310 C   0  0  0  0  0  0  0  0  0  0  0  0
  185.6390  176.8050  135.1280 C   0  0  0  0  0  2  0  0  0  0  0  0
  186.0740  175.6360  137.2180 O   0  0  0  0  0  0  0  0  0  0  0  0
  184.7630  176.1540  137.2900 C   0  0  2  0  0  3  0  0  0  0  0  0
  186.6110  175.9630  135.9430 C   0  0  2  0  0  3  0  0  0  0  0  0
  183.7480  175.0380  137.5490 C   0  0  0  0  0  2  0  0  0  0  0  0
  182.7550  175.4050  138.5690 C   0  0  0  0  0  0  0  0  0  0  0  0
  181.9740  175.6930  139.3720 N   0  0  0  0  0  0  0  0  0  0  0  0
  189.9500  174.9340  137.2510 C   0  0  0  0  0  0  0  0  0  0  0  0
  190.5370  174.3840  136.1560 O   0  0  0  0  0  0  0  0  0  0  0  0
  190.1770  173.6230  137.2190 N   0  0  0  0  0  0  0  0  0  0  0  0
  189.9990  177.7840  141.2370 N   0  0  0  0  0  0  0  0  0  0  0  0
  190.9610  177.1070  141.7200 N   0  0  0  0  0  0  0  0  0  0  0  0
  191.4860  177.4170  143.0380 C   0  0  2  0  0  3  0  0  0  0  0  0
  191.4550  176.1760  143.9130 C   0  0  0  0  0  2  0  0  0  0  0  0
  190.3920  178.0330  143.8880 C   0  0  0  0  0  2  0  0  0  0  0  0
  190.3560  176.7930  144.7580 C   0  0  2  0  0  3  0  0  0  0  0  0
  190.8780  177.1250  146.1460 C   0  0  0  0  0  2  0  0  0  0  0  0
  189.7850  176.9210  147.1770 C   0  0  0  0  0  1  0  0  0  0  0  0
  1 22  1  0  0  0  0
  2  3  2  0  0  0  0
  2  6  1  0  0  0  0
  3  5  1  0  0  0  0
  4  1  1  0  0  0  0
  5  1  2  0  0  0  0
  6  4  2  0  0  0  0
  7  8  2  0  0  0  0
  7  9  1  0  0  0  0
  9  2  1  0  0  0  0
 10 11  2  0  0  0  0
 11 14  1  0  0  0  0
 12 15  1  0  0  0  0
 12 11  1  0  0  0  0
 13 14  1  0  0  0  0
 14 16  1  6  0  0  0
 15  9  1  1  0  0  0
 15 13  1  0  0  0  0
 16 17  1  0  0  0  0
 17 18  3  0  0  0  0
 19  3  1  0  0  0  0
 20 21  1  0  0  0  0
 20 19  1  0  0  0  0
 21 19  2  0  0  0  0
 22 23  2  0  0  0  0
 24 23  1  6  0  0  0
 24 26  1  0  0  0  0
 24 25  1  0  0  0  0
 25 27  1  0  0  0  0
 26 27  1  0  0  0  0
 27 28  1  1  0  0  0
 28 29  1  0  0  0  0
M  END
>  <MODEL>
8

>  <REMARK>
 VINA RESULT:      -5.8      1.814      2.436
  Name = 
  8 active torsions:
  status: ('A' for Active; 'I' for Inactive)
    1  A    between atoms: C_1  and  N_16
    2  A    between atoms: C_2  and  N_20
    3  A    between atoms: C_3  and  C_21
    4  A    between atoms: C_3  and  C_23
    5  A    between atoms: C_4  and  N_12
    6  A    between atoms: C_5  and  C_19
    7  A    between atoms: N_12  and  C_28
    8  A    between atoms: C_14  and  C_26
                            x       y       z     vdW  Elec       q    Type
                         _______ _______ _______ _____ _____    ______ ____

>  <TORSDO>
F 8

$$$$
=
 OpenBabel11062416193D

 29 32  0  0  1  0  0  0  0  0999 V2000
  183.5680  178.5320  142.1930 C   0  0  0  0  0  0  0  0  0  0  0  0
  181.0610  178.4350  140.9250 C   0  0  0  0  0  0  0  0  0  0  0  0
  181.1580  178.8180  142.2780 C   0  0  0  0  0  0  0  0  0  0  0  0
  183.4720  178.1590  140.8450 C   0  0  0  0  0  3  0  0  0  0  0  0
  182.4090  178.8620  142.9010 C   0  0  0  0  0  3  0  0  0  0  0  0
  182.2260  178.1130  140.2170 C   0  0  0  0  0  3  0  0  0  0  0  0
  178.9310  177.2410  140.3760 C   0  0  0  0  0  3  0  0  0  0  0  0
  179.2680  176.2180  141.0900 N   0  0  0  0  0  2  0  0  0  0  0  0
  179.7890  178.3820  140.2570 N   0  0  0  0  0  0  0  0  0  0  0  0
  180.7070  180.1440  136.2070 O   0  0  0  0  0  0  0  0  0  0  0  0
  180.3290  180.0920  137.3660 C   0  0  0  0  0  0  0  0  0  0  0  0
  179.5020  179.0240  137.9040 C   0  0  0  0  0  2  0  0  0  0  0  0
  180.1140  180.6380  139.6190 O   0  0  0  0  0  0  0  0  0  0  0  0
  180.6880  181.0740  138.4050 C   0  0  2  0  0  3  0  0  0  0  0  0
  179.3720  179.4540  139.3580 C   0  0  2  0  0  3  0  0  0  0  0  0
  180.2210  182.4900  138.0570 C   0  0  0  0  0  2  0  0  0  0  0  0
  181.3410  183.3990  137.7740 C   0  0  0  0  0  0  0  0  0  0  0  0
  182.2220  184.1150  137.5510 N   0  0  0  0  0  0  0  0  0  0  0  0
  179.9750  179.2020  143.0490 C   0  0  0  0  0  0  0  0  0  0  0  0
  179.0500  180.1370  143.3920 O   0  0  0  0  0  0  0  0  0  0  0  0
  179.0240  178.8910  143.9280 N   0  0  0  0  0  0  0  0  0  0  0  0
  184.8330  178.5870  142.8590 N   0  0  0  0  0  0  0  0  0  0  0  0
  185.9040  178.2040  142.2910 N   0  0  0  0  0  0  0  0  0  0  0  0
  187.1730  178.2760  142.9950 C   0  0  2  0  0  3  0  0  0  0  0  0
  188.2740  177.6730  142.1420 C   0  0  0  0  0  2  0  0  0  0  0  0
  187.2870  177.1080  143.9550 C   0  0  0  0  0  2  0  0  0  0  0  0
  188.3820  176.5010  143.1010 C   0  0  2  0  0  3  0  0  0  0  0  0
  189.7040  176.5510  143.8490 C   0  0  0  0  0  2  0  0  0  0  0  0
  190.7030  175.6090  143.2060 C   0  0  0  0  0  1  0  0  0  0  0  0
  1 22  1  0  0  0  0
  1  5  1  0  0  0  0
  2  3  1  0  0  0  0
  3  5  2  0  0  0  0
  3 19  1  0  0  0  0
  4  1  2  0  0  0  0
  6  4  1  0  0  0  0
  6  2  2  0  0  0  0
  7  8  2  0  0  0  0
  9  7  1  0  0  0  0
  9  2  1  0  0  0  0
 10 11  2  0  0  0  0
 11 12  1  0  0  0  0
 11 14  1  0  0  0  0
 12 15  1  0  0  0  0
 14 16  1  6  0  0  0
 14 13  1  0  0  0  0
 15 13  1  0  0  0  0
 15  9  1  1  0  0  0
 17 16  1  0  0  0  0
 18 17  3  0  0  0  0
 19 20  1  0  0  0  0
 19 21  2  0  0  0  0
 20 21  1  0  0  0  0
 23 22  2  0  0  0  0
 24 23  1  6  0  0  0
 24 26  1  0  0  0  0
 25 24  1  0  0  0  0
 25 27  1  0  0  0  0
 27 28  1  1  0  0  0
 27 26  1  0  0  0  0
 29 28  1  0  0  0  0
M  END
>  <MODEL>
9

>  <REMARK>
 VINA RESULT:      -5.8      6.241      8.186
  Name = 
  8 active torsions:
  status: ('A' for Active; 'I' for Inactive)
    1  A    between atoms: C_1  and  N_16
    2  A    between atoms: C_2  and  N_20
    3  A    between atoms: C_3  and  C_21
    4  A    between atoms: C_3  and  C_23
    5  A    between atoms: C_4  and  N_12
    6  A    between atoms: C_5  and  C_19
    7  A    between atoms: N_12  and  C_28
    8  A    between atoms: C_14  and  C_26
                            x       y       z     vdW  Elec       q    Type
                         _______ _______ _______ _____ _____    ______ ____

>  <TORSDO>
F 8

$$$$
