=
 OpenBabel11062415203D

 41 45  0  0  1  0  0  0  0  0999 V2000
  187.1640  177.5840  137.9140 C   0  0  1  0  0  3  0  0  0  0  0  0
  184.8670  177.4810  137.7940 C   0  0  1  0  0  3  0  0  0  0  0  0
  183.1700  175.6170  137.8200 C   0  0  0  0  0  2  0  0  0  0  0  0
  183.4000  178.0450  139.8260 C   0  0  2  0  0  3  0  0  0  0  0  0
  182.9300  175.7510  139.1940 O   0  0  0  0  0  0  0  0  0  0  0  0
  187.2640  178.4280  139.1870 C   0  0  0  0  0  2  0  0  0  0  0  0
  182.3650  177.0250  139.3400 C   0  0  0  0  0  2  0  0  0  0  0  0
  185.8820  178.7690  139.7550 C   0  0  1  0  0  3  0  0  0  0  0  0
  182.9440  179.4390  139.4260 C   0  0  0  0  0  1  0  0  0  0  0  0
  184.8260  177.7400  139.3200 C   0  0  2  0  0  3  0  0  0  0  0  0
  186.0380  177.9550  137.1520 O   0  0  0  0  0  0  0  0  0  0  0  0
  184.6090  176.0070  137.4800 C   0  0  0  0  0  2  0  0  0  0  0  0
  186.7620  177.9570  141.9730 N   0  0  0  0  0  2  0  0  0  0  0  0
  185.9620  178.8950  141.2420 C   0  0  0  0  0  0  0  0  0  0  0  0
  185.3450  179.8240  141.8300 O   0  0  0  0  0  0  0  0  0  0  0  0
  188.1470  177.8130  144.0250 C   0  0  0  0  0  3  0  0  0  0  0  0
  185.8220  177.8020  145.5740 C   0  0  0  0  0  3  0  0  0  0  0  0
  188.2430  177.7280  145.4210 C   0  0  0  0  0  0  0  0  0  0  0  0
  186.8930  177.8710  143.3970 C   0  0  0  0  0  0  0  0  0  0  0  0
  185.7340  177.8650  144.1810 C   0  0  0  0  0  3  0  0  0  0  0  0
  187.0730  177.7400  146.1930 C   0  0  0  0  0  3  0  0  0  0  0  0
  189.5860  177.7160  146.0870 C   0  0  0  0  0  3  0  0  0  0  0  0
  189.7220  176.5050  146.9960 C   0  0  0  0  0  2  0  0  0  0  0  0
  189.4310  177.8630  147.5920 C   0  0  0  0  0  2  0  0  0  0  0  0
  188.4520  177.6680  137.0950 C   0  0  1  0  0  3  0  0  0  0  0  0
  188.9930  179.0890  137.0510 C   0  0  0  0  0  1  0  0  0  0  0  0
  189.4820  176.5540  137.4200 C   0  0  1  0  0  3  0  0  0  0  0  0
  187.3380  174.6550  135.9760 O   0  0  0  0  0  0  0  0  0  0  0  0
  187.8900  173.4050  136.2770 C   0  0  1  0  0  3  0  0  0  0  0  0
  189.0210  176.0400  134.9380 C   0  0  0  0  0  2  0  0  0  0  0  0
  187.9080  175.0070  134.7490 C   0  0  0  0  0  2  0  0  0  0  0  0
  190.2510  174.3110  136.3930 C   0  0  0  0  0  2  0  0  0  0  0  0
  189.9380  175.8000  136.1520 C   0  0  2  0  0  3  0  0  0  0  0  0
  189.1350  173.5750  137.1400 C   0  0  0  0  0  2  0  0  0  0  0  0
  186.8790  172.5560  137.0310 C   0  0  0  0  0  2  0  0  0  0  0  0
  185.5800  172.4210  136.2500 C   0  0  0  0  0  2  0  0  0  0  0  0
  184.3960  172.2370  137.1860 C   0  0  0  0  0  2  0  0  0  0  0  0
  183.2150  172.1580  136.4500 O   0  0  0  0  0  1  0  0  0  0  0  0
  190.6730  176.9390  138.3280 C   0  0  0  0  0  3  0  0  0  0  0  0
  190.4900  176.5370  139.7840 C   0  0  0  0  0  1  0  0  0  0  0  0
  192.0100  176.4590  137.7990 C   0  0  0  0  0  1  0  0  0  0  0  0
  1 25  1  6  0  0  0
  1  6  1  0  0  0  0
  2 12  1  1  0  0  0
  2 10  1  0  0  0  0
  3  5  1  0  0  0  0
  4  9  1  6  0  0  0
  5  7  1  0  0  0  0
  6  8  1  0  0  0  0
  7  4  1  0  0  0  0
  8 14  1  1  0  0  0
 10  8  1  0  0  0  0
 10  4  1  0  0  0  0
 11  2  1  0  0  0  0
 11  1  1  0  0  0  0
 12  3  1  0  0  0  0
 13 19  1  0  0  0  0
 14 15  2  0  0  0  0
 14 13  1  0  0  0  0
 16 18  1  0  0  0  0
 17 21  1  0  0  0  0
 18 22  1  0  0  0  0
 18 21  2  0  0  0  0
 19 16  2  0  0  0  0
 19 20  1  0  0  0  0
 20 17  2  0  0  0  0
 22 23  1  0  0  0  0
 22 24  1  0  0  0  0
 23 24  1  0  0  0  0
 25 27  1  0  0  0  0
 26 25  1  0  0  0  0
 27 39  1  0  0  0  0
 28 29  1  0  0  0  0
 29 35  1  0  0  0  0
 29 34  1  0  0  0  0
 30 33  1  0  0  0  0
 31 30  1  0  0  0  0
 31 28  1  0  0  0  0
 32 34  1  0  0  0  0
 33 32  1  0  0  0  0
 33 27  1  0  0  0  0
 36 35  1  0  0  0  0
 36 37  1  0  0  0  0
 38 37  1  0  0  0  0
 39 40  1  0  0  0  0
 41 39  1  0  0  0  0
M  END
>  <MODEL>
1

>  <REMARK>
 VINA RESULT:      -7.6      0.000      0.000
  Name = 
  10 active torsions:
  status: ('A' for Active; 'I' for Inactive)
    1  A    between atoms: C_1  and  C_9
    2  A    between atoms: N_3  and  C_29
    3  A    between atoms: C_4  and  C_40
    4  A    between atoms: C_5  and  C_27
    5  A    between atoms: C_9  and  C_40
    6  A    between atoms: C_10  and  C_36
    7  A    between atoms: C_14  and  C_15
    8  A    between atoms: C_14  and  C_36
    9  A    between atoms: C_19  and  C_22
   10  A    between atoms: C_30  and  C_40
                            x       y       z     vdW  Elec       q    Type
                         _______ _______ _______ _____ _____    ______ ____

>  <TORSDO>
F 10

$$$$
=
 OpenBabel11062415203D

 41 45  0  0  1  0  0  0  0  0999 V2000
  189.9590  177.5320  139.7620 C   0  0  1  0  0  3  0  0  0  0  0  0
  190.5200  177.2150  141.9720 C   0  0  1  0  0  3  0  0  0  0  0  0
  191.9230  178.4760  143.6450 C   0  0  0  0  0  2  0  0  0  0  0  0
  188.8580  177.7420  143.8580 C   0  0  2  0  0  3  0  0  0  0  0  0
  190.8140  179.1380  144.1910 O   0  0  0  0  0  0  0  0  0  0  0  0
  188.4420  177.6170  139.9480 C   0  0  0  0  0  2  0  0  0  0  0  0
  190.0340  178.1250  144.7640 C   0  0  0  0  0  2  0  0  0  0  0  0
  188.0390  177.4780  141.4200 C   0  0  1  0  0  3  0  0  0  0  0  0
  188.4110  176.3290  144.2000 C   0  0  0  0  0  1  0  0  0  0  0  0
  189.1830  177.8950  142.3570 C   0  0  2  0  0  3  0  0  0  0  0  0
  190.5280  176.6290  140.6820 O   0  0  0  0  0  0  0  0  0  0  0  0
  191.6980  178.1720  142.1640 C   0  0  0  0  0  2  0  0  0  0  0  0
  185.7800  177.6880  142.5200 N   0  0  0  0  0  2  0  0  0  0  0  0
  186.7910  178.2580  141.6790 C   0  0  0  0  0  0  0  0  0  0  0  0
  186.6490  179.4060  141.1750 O   0  0  0  0  0  0  0  0  0  0  0  0
  183.4640  178.2790  141.8600 C   0  0  0  0  0  3  0  0  0  0  0  0
  183.0120  179.2990  144.4210 C   0  0  0  0  0  3  0  0  0  0  0  0
  182.2160  178.8350  142.1760 C   0  0  0  0  0  0  0  0  0  0  0  0
  184.4940  178.2480  142.8130 C   0  0  0  0  0  0  0  0  0  0  0  0
  184.2590  178.7620  144.0920 C   0  0  0  0  0  3  0  0  0  0  0  0
  181.9910  179.3300  143.4680 C   0  0  0  0  0  3  0  0  0  0  0  0
  181.1050  178.8190  141.1700 C   0  0  0  0  0  3  0  0  0  0  0  0
  180.0310  177.8220  141.5740 C   0  0  0  0  0  2  0  0  0  0  0  0
  181.0240  177.4600  140.4940 C   0  0  0  0  0  2  0  0  0  0  0  0
  190.3180  177.1710  138.3210 C   0  0  1  0  0  3  0  0  0  0  0  0
  191.7630  176.7080  138.2060 C   0  0  0  0  0  1  0  0  0  0  0  0
  189.2590  176.2910  137.6070 C   0  0  1  0  0  3  0  0  0  0  0  0
  187.0740  178.6180  137.9170 O   0  0  0  0  0  0  0  0  0  0  0  0
  185.9520  177.9580  137.4060 C   0  0  1  0  0  3  0  0  0  0  0  0
  188.8740  178.4860  136.3140 C   0  0  0  0  0  2  0  0  0  0  0  0
  187.6460  179.2520  136.8090 C   0  0  0  0  0  2  0  0  0  0  0  0
  187.3320  176.4700  135.8950 C   0  0  0  0  0  2  0  0  0  0  0  0
  188.7340  176.9510  136.3140 C   0  0  2  0  0  3  0  0  0  0  0  0
  186.3110  176.5240  137.0340 C   0  0  0  0  0  2  0  0  0  0  0  0
  184.8420  177.9340  138.4470 C   0  0  0  0  0  2  0  0  0  0  0  0
  183.5260  178.4270  137.8610 C   0  0  0  0  0  2  0  0  0  0  0  0
  183.1130  179.7490  138.4870 C   0  0  0  0  0  2  0  0  0  0  0  0
  184.2110  180.3470  139.1060 O   0  0  0  0  0  1  0  0  0  0  0  0
  189.6080  174.7990  137.3970 C   0  0  0  0  0  3  0  0  0  0  0  0
  188.3990  173.8760  137.4280 C   0  0  0  0  0  1  0  0  0  0  0  0
  190.4480  174.5480  136.1600 C   0  0  0  0  0  1  0  0  0  0  0  0
  1 25  1  6  0  0  0
  1  6  1  0  0  0  0
  1 11  1  0  0  0  0
  2 12  1  6  0  0  0
  2 10  1  0  0  0  0
  3  5  1  0  0  0  0
  4  9  1  6  0  0  0
  4  7  1  0  0  0  0
  5  7  1  0  0  0  0
  6  8  1  0  0  0  0
  8 14  1  6  0  0  0
  8 10  1  0  0  0  0
 10  4  1  0  0  0  0
 11  2  1  0  0  0  0
 12  3  1  0  0  0  0
 13 19  1  0  0  0  0
 14 13  1  0  0  0  0
 15 14  2  0  0  0  0
 16 18  2  0  0  0  0
 16 19  1  0  0  0  0
 18 21  1  0  0  0  0
 19 20  2  0  0  0  0
 20 17  1  0  0  0  0
 21 17  2  0  0  0  0
 22 23  1  0  0  0  0
 22 18  1  0  0  0  0
 24 22  1  0  0  0  0
 24 23  1  0  0  0  0
 26 25  1  0  0  0  0
 27 25  1  0  0  0  0
 29 28  1  0  0  0  0
 29 35  1  0  0  0  0
 30 31  1  0  0  0  0
 31 28  1  0  0  0  0
 32 33  1  0  0  0  0
 32 34  1  0  0  0  0
 33 30  1  0  0  0  0
 33 27  1  0  0  0  0
 34 29  1  0  0  0  0
 36 35  1  0  0  0  0
 36 37  1  0  0  0  0
 37 38  1  0  0  0  0
 39 40  1  0  0  0  0
 39 27  1  0  0  0  0
 41 39  1  0  0  0  0
M  END
>  <MODEL>
2

>  <REMARK>
 VINA RESULT:      -7.4      2.357      6.010
  Name = 
  10 active torsions:
  status: ('A' for Active; 'I' for Inactive)
    1  A    between atoms: C_1  and  C_9
    2  A    between atoms: N_3  and  C_29
    3  A    between atoms: C_4  and  C_40
    4  A    between atoms: C_5  and  C_27
    5  A    between atoms: C_9  and  C_40
    6  A    between atoms: C_10  and  C_36
    7  A    between atoms: C_14  and  C_15
    8  A    between atoms: C_14  and  C_36
    9  A    between atoms: C_19  and  C_22
   10  A    between atoms: C_30  and  C_40
                            x       y       z     vdW  Elec       q    Type
                         _______ _______ _______ _____ _____    ______ ____

>  <TORSDO>
F 10

$$$$
=
 OpenBabel11062415203D

 41 45  0  0  1  0  0  0  0  0999 V2000
  187.2070  177.9600  138.5930 C   0  0  1  0  0  3  0  0  0  0  0  0
  185.3980  178.7640  139.7690 C   0  0  1  0  0  3  0  0  0  0  0  0
  183.0630  177.9280  140.2220 C   0  0  0  0  0  2  0  0  0  0  0  0
  185.3060  178.6260  142.3320 C   0  0  2  0  0  3  0  0  0  0  0  0
  183.4170  177.3790  141.4620 O   0  0  0  0  0  0  0  0  0  0  0  0
  188.1930  177.8870  139.7620 C   0  0  0  0  0  2  0  0  0  0  0  0
  183.7830  178.4750  142.2520 C   0  0  0  0  0  2  0  0  0  0  0  0
  187.5500  178.3350  141.0790 C   0  0  1  0  0  3  0  0  0  0  0  0
  185.6420  180.0700  142.6730 C   0  0  0  0  0  1  0  0  0  0  0  0
  186.0230  178.1570  141.0490 C   0  0  2  0  0  3  0  0  0  0  0  0
  186.3310  179.0540  138.7430 O   0  0  0  0  0  0  0  0  0  0  0  0
  184.2470  177.8970  139.2550 C   0  0  0  0  0  2  0  0  0  0  0  0
  189.0630  178.3140  143.0950 N   0  0  0  0  0  2  0  0  0  0  0  0
  188.1750  177.6040  142.2230 C   0  0  0  0  0  0  0  0  0  0  0  0
  187.9040  176.3870  142.4170 O   0  0  0  0  0  0  0  0  0  0  0  0
  189.3790  177.8770  145.5150 C   0  0  0  0  0  3  0  0  0  0  0  0
  191.7490  176.5120  144.9440 C   0  0  0  0  0  3  0  0  0  0  0  0
  190.1340  177.3290  146.5620 C   0  0  0  0  0  0  0  0  0  0  0  0
  189.8130  177.7640  144.1860 C   0  0  0  0  0  0  0  0  0  0  0  0
  191.0010  177.0800  143.9090 C   0  0  0  0  0  3  0  0  0  0  0  0
  191.3140  176.6310  146.2670 C   0  0  0  0  0  3  0  0  0  0  0  0
  189.6400  177.4100  147.9750 C   0  0  0  0  0  3  0  0  0  0  0  0
  188.1750  177.0120  148.0530 C   0  0  0  0  0  2  0  0  0  0  0  0
  188.5600  178.4720  148.0960 C   0  0  0  0  0  2  0  0  0  0  0  0
  187.9430  178.0060  137.2540 C   0  0  1  0  0  3  0  0  0  0  0  0
  188.9790  179.1200  137.2250 C   0  0  0  0  0  1  0  0  0  0  0  0
  188.4160  176.6180  136.7450 C   0  0  1  0  0  3  0  0  0  0  0  0
  185.2700  175.9930  136.7310 O   0  0  0  0  0  0  0  0  0  0  0  0
  185.3050  174.6140  136.4910 C   0  0  1  0  0  3  0  0  0  0  0  0
  186.5570  177.1290  135.0350 C   0  0  0  0  0  2  0  0  0  0  0  0
  185.1980  176.5710  135.4600 C   0  0  0  0  0  2  0  0  0  0  0  0
  187.4940  174.7410  135.2280 C   0  0  0  0  0  2  0  0  0  0  0  0
  187.7690  176.2470  135.3930 C   0  0  2  0  0  3  0  0  0  0  0  0
  186.7490  174.1310  136.4180 C   0  0  0  0  0  2  0  0  0  0  0  0
  184.5920  173.8720  137.6120 C   0  0  0  0  0  2  0  0  0  0  0  0
  184.5420  172.3760  137.3360 C   0  0  0  0  0  2  0  0  0  0  0  0
  183.2240  171.9850  136.6850 C   0  0  0  0  0  2  0  0  0  0  0  0
  182.2150  172.8560  137.0960 O   0  0  0  0  0  1  0  0  0  0  0  0
  189.9380  176.3450  136.7570 C   0  0  0  0  0  3  0  0  0  0  0  0
  190.3310  175.1020  137.5400 C   0  0  0  0  0  1  0  0  0  0  0  0
  190.5540  176.3300  135.3720 C   0  0  0  0  0  1  0  0  0  0  0  0
  1 25  1  6  0  0  0
  1 11  1  0  0  0  0
  1  6  1  0  0  0  0
  2 12  1  6  0  0  0
  2 10  1  0  0  0  0
  3  5  1  0  0  0  0
  4  9  1  6  0  0  0
  5  7  1  0  0  0  0
  6  8  1  0  0  0  0
  7  4  1  0  0  0  0
  8 14  1  1  0  0  0
 10  8  1  0  0  0  0
 10  4  1  0  0  0  0
 11  2  1  0  0  0  0
 12  3  1  0  0  0  0
 13 19  1  0  0  0  0
 14 15  2  0  0  0  0
 14 13  1  0  0  0  0
 16 18  1  0  0  0  0
 17 21  1  0  0  0  0
 18 22  1  0  0  0  0
 19 16  2  0  0  0  0
 20 19  1  0  0  0  0
 20 17  2  0  0  0  0
 21 18  2  0  0  0  0
 22 23  1  0  0  0  0
 22 24  1  0  0  0  0
 23 24  1  0  0  0  0
 26 25  1  0  0  0  0
 27 39  1  0  0  0  0
 27 25  1  0  0  0  0
 29 28  1  0  0  0  0
 29 35  1  0  0  0  0
 30 33  1  0  0  0  0
 30 31  1  0  0  0  0
 31 28  1  0  0  0  0
 32 33  1  0  0  0  0
 32 34  1  0  0  0  0
 33 27  1  0  0  0  0
 34 29  1  0  0  0  0
 36 35  1  0  0  0  0
 37 38  1  0  0  0  0
 37 36  1  0  0  0  0
 39 40  1  0  0  0  0
 41 39  1  0  0  0  0
M  END
>  <MODEL>
3

>  <REMARK>
 VINA RESULT:      -7.2      1.705      2.793
  Name = 
  10 active torsions:
  status: ('A' for Active; 'I' for Inactive)
    1  A    between atoms: C_1  and  C_9
    2  A    between atoms: N_3  and  C_29
    3  A    between atoms: C_4  and  C_40
    4  A    between atoms: C_5  and  C_27
    5  A    between atoms: C_9  and  C_40
    6  A    between atoms: C_10  and  C_36
    7  A    between atoms: C_14  and  C_15
    8  A    between atoms: C_14  and  C_36
    9  A    between atoms: C_19  and  C_22
   10  A    between atoms: C_30  and  C_40
                            x       y       z     vdW  Elec       q    Type
                         _______ _______ _______ _____ _____    ______ ____

>  <TORSDO>
F 10

$$$$
=
 OpenBabel11062415203D

 41 45  0  0  1  0  0  0  0  0999 V2000
  186.9350  177.4210  137.4220 C   0  0  1  0  0  3  0  0  0  0  0  0
  184.8940  176.6540  136.6830 C   0  0  1  0  0  3  0  0  0  0  0  0
  183.7040  174.4320  136.7500 C   0  0  0  0  0  2  0  0  0  0  0  0
  182.7290  177.1820  137.9600 C   0  0  2  0  0  3  0  0  0  0  0  0
  182.9770  174.7700  137.8990 O   0  0  0  0  0  0  0  0  0  0  0  0
  186.4130  178.4990  138.3760 C   0  0  0  0  0  2  0  0  0  0  0  0
  182.1550  175.8350  137.5080 C   0  0  0  0  0  2  0  0  0  0  0  0
  184.8820  178.5460  138.4010 C   0  0  1  0  0  3  0  0  0  0  0  0
  182.1730  178.2800  137.0670 C   0  0  0  0  0  1  0  0  0  0  0  0
  184.2720  177.1950  137.9940 C   0  0  2  0  0  3  0  0  0  0  0  0
  186.0960  177.2980  136.2970 O   0  0  0  0  0  0  0  0  0  0  0  0
  185.0620  175.1350  136.7400 C   0  0  0  0  0  2  0  0  0  0  0  0
  184.7880  178.2210  140.8990 N   0  0  0  0  0  2  0  0  0  0  0  0
  184.4110  178.9870  139.7490 C   0  0  0  0  0  0  0  0  0  0  0  0
  183.7080  180.0300  139.8610 O   0  0  0  0  0  0  0  0  0  0  0  0
  185.2840  178.5150  143.3110 C   0  0  0  0  0  3  0  0  0  0  0  0
  182.5570  178.8470  143.8160 C   0  0  0  0  0  3  0  0  0  0  0  0
  184.8430  178.7330  144.6240 C   0  0  0  0  0  0  0  0  0  0  0  0
  184.3670  178.4430  142.2510 C   0  0  0  0  0  0  0  0  0  0  0  0
  183.0030  178.6090  142.5140 C   0  0  0  0  0  3  0  0  0  0  0  0
  183.4740  178.9150  144.8680 C   0  0  0  0  0  3  0  0  0  0  0  0
  185.8320  178.8590  145.7430 C   0  0  0  0  0  3  0  0  0  0  0  0
  187.1240  178.1360  145.4000 C   0  0  0  0  0  2  0  0  0  0  0  0
  186.1310  177.4930  146.3400 C   0  0  0  0  0  2  0  0  0  0  0  0
  188.3830  177.6960  137.0190 C   0  0  1  0  0  3  0  0  0  0  0  0
  188.6880  179.1870  137.0190 C   0  0  0  0  0  1  0  0  0  0  0  0
  189.4210  176.7860  137.7280 C   0  0  1  0  0  3  0  0  0  0  0  0
  188.3860  174.7700  135.4600 O   0  0  0  0  0  0  0  0  0  0  0  0
  188.9610  173.5800  135.9210 C   0  0  1  0  0  3  0  0  0  0  0  0
  190.0990  176.4590  135.2640 C   0  0  0  0  0  2  0  0  0  0  0  0
  189.3410  175.3110  134.5940 C   0  0  0  0  0  2  0  0  0  0  0  0
  190.8900  174.7750  137.0410 C   0  0  0  0  0  2  0  0  0  0  0  0
  190.4680  176.2260  136.7420 C   0  0  2  0  0  3  0  0  0  0  0  0
  189.7010  173.8290  137.2300 C   0  0  0  0  0  2  0  0  0  0  0  0
  187.8800  172.5350  136.1570 C   0  0  0  0  0  2  0  0  0  0  0  0
  187.3270  172.0080  134.8400 C   0  0  0  0  0  2  0  0  0  0  0  0
  186.2410  170.9710  135.0810 C   0  0  0  0  0  2  0  0  0  0  0  0
  185.2250  171.5200  135.8630 O   0  0  0  0  0  1  0  0  0  0  0  0
  190.0730  177.3340  139.0190 C   0  0  0  0  0  3  0  0  0  0  0  0
  189.3080  176.9870  140.2870 C   0  0  0  0  0  1  0  0  0  0  0  0
  191.5380  176.9670  139.1540 C   0  0  0  0  0  1  0  0  0  0  0  0
  1 25  1  6  0  0  0
  1  6  1  0  0  0  0
  2 12  1  1  0  0  0
  2 10  1  0  0  0  0
  3  5  1  0  0  0  0
  4  9  1  6  0  0  0
  4 10  1  0  0  0  0
  6  8  1  0  0  0  0
  7  5  1  0  0  0  0
  7  4  1  0  0  0  0
  8 14  1  1  0  0  0
 10  8  1  0  0  0  0
 11  2  1  0  0  0  0
 11  1  1  0  0  0  0
 12  3  1  0  0  0  0
 13 19  1  0  0  0  0
 14 15  2  0  0  0  0
 14 13  1  0  0  0  0
 16 18  1  0  0  0  0
 17 21  1  0  0  0  0
 18 21  2  0  0  0  0
 18 22  1  0  0  0  0
 19 20  1  0  0  0  0
 19 16  2  0  0  0  0
 20 17  2  0  0  0  0
 22 24  1  0  0  0  0
 23 22  1  0  0  0  0
 23 24  1  0  0  0  0
 25 26  1  0  0  0  0
 25 27  1  0  0  0  0
 27 39  1  0  0  0  0
 28 29  1  0  0  0  0
 29 35  1  0  0  0  0
 29 34  1  0  0  0  0
 30 33  1  0  0  0  0
 31 30  1  0  0  0  0
 31 28  1  0  0  0  0
 32 34  1  0  0  0  0
 33 32  1  0  0  0  0
 33 27  1  0  0  0  0
 36 37  1  0  0  0  0
 36 35  1  0  0  0  0
 37 38  1  0  0  0  0
 39 41  1  0  0  0  0
 39 40  1  0  0  0  0
M  END
>  <MODEL>
4

>  <REMARK>
 VINA RESULT:      -7.1      1.573      2.196
  Name = 
  10 active torsions:
  status: ('A' for Active; 'I' for Inactive)
    1  A    between atoms: C_1  and  C_9
    2  A    between atoms: N_3  and  C_29
    3  A    between atoms: C_4  and  C_40
    4  A    between atoms: C_5  and  C_27
    5  A    between atoms: C_9  and  C_40
    6  A    between atoms: C_10  and  C_36
    7  A    between atoms: C_14  and  C_15
    8  A    between atoms: C_14  and  C_36
    9  A    between atoms: C_19  and  C_22
   10  A    between atoms: C_30  and  C_40
                            x       y       z     vdW  Elec       q    Type
                         _______ _______ _______ _____ _____    ______ ____

>  <TORSDO>
F 10

$$$$
=
 OpenBabel11062415203D

 41 45  0  0  1  0  0  0  0  0999 V2000
  184.5340  178.1860  137.9420 C   0  0  1  0  0  3  0  0  0  0  0  0
  186.8070  177.8750  137.7510 C   0  0  1  0  0  3  0  0  0  0  0  0
  188.7160  179.2470  136.8390 C   0  0  0  0  0  2  0  0  0  0  0  0
  188.3630  178.1420  139.7760 C   0  0  2  0  0  3  0  0  0  0  0  0
  189.0560  179.7530  138.1010 O   0  0  0  0  0  0  0  0  0  0  0  0
  184.4420  178.0820  139.4660 C   0  0  0  0  0  2  0  0  0  0  0  0
  189.4700  178.6370  138.8390 C   0  0  0  0  0  2  0  0  0  0  0  0
  185.8150  177.8520  140.1060 C   0  0  1  0  0  3  0  0  0  0  0  0
  188.6090  176.6760  140.0990 C   0  0  0  0  0  1  0  0  0  0  0  0
  186.9480  178.3770  139.2090 C   0  0  2  0  0  3  0  0  0  0  0  0
  185.5360  177.3320  137.4400 O   0  0  0  0  0  0  0  0  0  0  0  0
  187.2160  178.9610  136.7550 C   0  0  0  0  0  2  0  0  0  0  0  0
  186.0670  177.6240  142.6040 N   0  0  0  0  0  2  0  0  0  0  0  0
  185.8490  178.4680  141.4670 C   0  0  0  0  0  0  0  0  0  0  0  0
  185.7040  179.7150  141.5990 O   0  0  0  0  0  0  0  0  0  0  0  0
  187.1680  177.8550  144.8140 C   0  0  0  0  0  3  0  0  0  0  0  0
  184.8440  179.0240  145.8320 C   0  0  0  0  0  3  0  0  0  0  0  0
  187.1220  178.2530  146.1580 C   0  0  0  0  0  0  0  0  0  0  0  0
  186.0510  178.0210  143.9810 C   0  0  0  0  0  0  0  0  0  0  0  0
  184.8910  178.6060  144.5000 C   0  0  0  0  0  3  0  0  0  0  0  0
  185.9580  178.8530  146.6580 C   0  0  0  0  0  3  0  0  0  0  0  0
  188.3350  178.1190  147.0280 C   0  0  0  0  0  3  0  0  0  0  0  0
  188.3190  176.7920  147.7680 C   0  0  0  0  0  2  0  0  0  0  0  0
  187.9310  178.0600  148.4920 C   0  0  0  0  0  2  0  0  0  0  0  0
  183.1800  177.9130  137.2880 C   0  0  1  0  0  3  0  0  0  0  0  0
  183.3420  177.3690  135.8760 C   0  0  0  0  0  1  0  0  0  0  0  0
  182.1780  177.1580  138.2010 C   0  0  1  0  0  3  0  0  0  0  0  0
  181.6760  179.5320  140.2980 O   0  0  0  0  0  0  0  0  0  0  0  0
  180.7890  178.8920  141.1710 C   0  0  1  0  0  3  0  0  0  0  0  0
  180.8390  179.3540  138.0410 C   0  0  0  0  0  2  0  0  0  0  0  0
  180.8540  180.1470  139.3490 C   0  0  0  0  0  2  0  0  0  0  0  0
  179.8810  177.3680  139.3660 C   0  0  0  0  0  2  0  0  0  0  0  0
  180.7840  177.8230  138.2040 C   0  0  2  0  0  3  0  0  0  0  0  0
  180.5700  177.4490  140.7310 C   0  0  0  0  0  2  0  0  0  0  0  0
  181.3530  178.8960  142.5840 C   0  0  0  0  0  2  0  0  0  0  0  0
  180.5150  179.7670  143.5090 C   0  0  0  0  0  2  0  0  0  0  0  0
  179.3150  179.0010  144.0410 C   0  0  0  0  0  2  0  0  0  0  0  0
  179.6810  177.6860  144.3290 O   0  0  0  0  0  1  0  0  0  0  0  0
  182.0890  175.6230  138.0320 C   0  0  0  0  0  3  0  0  0  0  0  0
  181.3640  175.1860  136.7680 C   0  0  0  0  0  1  0  0  0  0  0  0
  183.4310  174.9280  138.1540 C   0  0  0  0  0  1  0  0  0  0  0  0
  1 25  1  6  0  0  0
  1  6  1  0  0  0  0
  2 12  1  6  0  0  0
  2 10  1  0  0  0  0
  3  5  1  0  0  0  0
  4  9  1  6  0  0  0
  5  7  1  0  0  0  0
  6  8  1  0  0  0  0
  7  4  1  0  0  0  0
  8 14  1  1  0  0  0
 10  4  1  0  0  0  0
 10  8  1  0  0  0  0
 11  2  1  0  0  0  0
 11  1  1  0  0  0  0
 12  3  1  0  0  0  0
 13 19  1  0  0  0  0
 14 15  2  0  0  0  0
 14 13  1  0  0  0  0
 16 18  1  0  0  0  0
 17 21  1  0  0  0  0
 18 21  2  0  0  0  0
 18 22  1  0  0  0  0
 19 20  1  0  0  0  0
 19 16  2  0  0  0  0
 20 17  2  0  0  0  0
 22 23  1  0  0  0  0
 22 24  1  0  0  0  0
 23 24  1  0  0  0  0
 25 27  1  0  0  0  0
 26 25  1  0  0  0  0
 27 33  1  0  0  0  0
 28 29  1  0  0  0  0
 29 35  1  0  0  0  0
 30 33  1  0  0  0  0
 30 31  1  0  0  0  0
 31 28  1  0  0  0  0
 32 34  1  0  0  0  0
 33 32  1  0  0  0  0
 34 29  1  0  0  0  0
 35 36  1  0  0  0  0
 36 37  1  0  0  0  0
 37 38  1  0  0  0  0
 39 41  1  0  0  0  0
 39 27  1  0  0  0  0
 40 39  1  0  0  0  0
M  END
>  <MODEL>
5

>  <REMARK>
 VINA RESULT:      -6.9      2.561      6.600
  Name = 
  10 active torsions:
  status: ('A' for Active; 'I' for Inactive)
    1  A    between atoms: C_1  and  C_9
    2  A    between atoms: N_3  and  C_29
    3  A    between atoms: C_4  and  C_40
    4  A    between atoms: C_5  and  C_27
    5  A    between atoms: C_9  and  C_40
    6  A    between atoms: C_10  and  C_36
    7  A    between atoms: C_14  and  C_15
    8  A    between atoms: C_14  and  C_36
    9  A    between atoms: C_19  and  C_22
   10  A    between atoms: C_30  and  C_40
                            x       y       z     vdW  Elec       q    Type
                         _______ _______ _______ _____ _____    ______ ____

>  <TORSDO>
F 10

$$$$
=
 OpenBabel11062415203D

 41 45  0  0  1  0  0  0  0  0999 V2000
  189.6590  176.9150  138.1960 C   0  0  1  0  0  3  0  0  0  0  0  0
  191.1110  176.4250  139.9140 C   0  0  1  0  0  3  0  0  0  0  0  0
  193.2410  177.4550  140.7860 C   0  0  0  0  0  2  0  0  0  0  0  0
  190.5360  176.9970  142.3510 C   0  0  2  0  0  3  0  0  0  0  0  0
  192.5720  178.1850  141.7780 O   0  0  0  0  0  0  0  0  0  0  0  0
  188.4040  177.1300  139.0460 C   0  0  0  0  0  2  0  0  0  0  0  0
  192.0260  177.2180  142.6330 C   0  0  0  0  0  2  0  0  0  0  0  0
  188.6890  176.9470  140.5410 C   0  0  1  0  0  3  0  0  0  0  0  0
  190.1390  175.6150  142.8460 C   0  0  0  0  0  1  0  0  0  0  0  0
  190.1690  177.2030  140.8660 C   0  0  2  0  0  3  0  0  0  0  0  0
  190.4780  175.9130  138.7540 O   0  0  0  0  0  0  0  0  0  0  0  0
  192.3460  177.2560  139.5620 C   0  0  0  0  0  2  0  0  0  0  0  0
  187.0680  177.2560  142.4470 N   0  0  0  0  0  2  0  0  0  0  0  0
  187.7820  177.8240  141.3410 C   0  0  0  0  0  0  0  0  0  0  0  0
  187.6670  179.0460  141.0490 O   0  0  0  0  0  0  0  0  0  0  0  0
  186.1850  177.9040  144.6710 C   0  0  0  0  0  3  0  0  0  0  0  0
  184.1010  179.2840  143.4250 C   0  0  0  0  0  3  0  0  0  0  0  0
  185.2220  178.5590  145.4520 C   0  0  0  0  0  0  0  0  0  0  0  0
  186.1000  177.9180  143.2710 C   0  0  0  0  0  0  0  0  0  0  0  0
  185.0530  178.6110  142.6550 C   0  0  0  0  0  3  0  0  0  0  0  0
  184.1880  179.2640  144.8190 C   0  0  0  0  0  3  0  0  0  0  0  0
  185.3460  178.5820  146.9460 C   0  0  0  0  0  3  0  0  0  0  0  0
  186.3220  179.6620  147.3850 C   0  0  0  0  0  2  0  0  0  0  0  0
  186.7610  178.2170  147.3630 C   0  0  0  0  0  2  0  0  0  0  0  0
  189.2950  176.6030  136.7450 C   0  0  1  0  0  3  0  0  0  0  0  0
  190.4720  176.0020  135.9920 C   0  0  0  0  0  1  0  0  0  0  0  0
  187.9330  175.8790  136.5770 C   0  0  1  0  0  3  0  0  0  0  0  0
  186.6050  178.6370  137.5350 O   0  0  0  0  0  0  0  0  0  0  0  0
  185.2720  178.2280  137.6540 C   0  0  1  0  0  3  0  0  0  0  0  0
  187.4160  178.0740  135.3310 C   0  0  0  0  0  2  0  0  0  0  0  0
  186.7150  179.1030  136.2210 C   0  0  0  0  0  2  0  0  0  0  0  0
  185.5080  176.4380  135.8810 C   0  0  0  0  0  2  0  0  0  0  0  0
  187.0080  176.6090  135.5780 C   0  0  2  0  0  3  0  0  0  0  0  0
  185.1490  176.7420  137.3380 C   0  0  0  0  0  2  0  0  0  0  0  0
  184.7770  178.4730  139.0720 C   0  0  0  0  0  2  0  0  0  0  0  0
  183.8850  179.7050  139.1390 C   0  0  0  0  0  2  0  0  0  0  0  0
  182.4160  179.3140  139.1520 C   0  0  0  0  0  2  0  0  0  0  0  0
  182.2820  177.9820  139.5420 O   0  0  0  0  0  1  0  0  0  0  0  0
  187.9720  174.3530  136.3240 C   0  0  0  0  0  3  0  0  0  0  0  0
  187.0360  173.5590  137.2210 C   0  0  0  0  0  1  0  0  0  0  0  0
  187.7720  173.9820  134.8680 C   0  0  0  0  0  1  0  0  0  0  0  0
  1 25  1  6  0  0  0
  1 11  1  0  0  0  0
  1  6  1  0  0  0  0
  2 12  1  6  0  0  0
  2 10  1  0  0  0  0
  3  5  1  0  0  0  0
  4  7  1  0  0  0  0
  4  9  1  6  0  0  0
  5  7  1  0  0  0  0
  6  8  1  0  0  0  0
  8 10  1  0  0  0  0
  8 14  1  1  0  0  0
 10  4  1  0  0  0  0
 11  2  1  0  0  0  0
 12  3  1  0  0  0  0
 13 19  1  0  0  0  0
 14 13  1  0  0  0  0
 15 14  2  0  0  0  0
 16 18  1  0  0  0  0
 17 21  1  0  0  0  0
 18 22  1  0  0  0  0
 19 16  2  0  0  0  0
 20 19  1  0  0  0  0
 20 17  2  0  0  0  0
 21 18  2  0  0  0  0
 22 24  1  0  0  0  0
 22 23  1  0  0  0  0
 24 23  1  0  0  0  0
 26 25  1  0  0  0  0
 27 25  1  0  0  0  0
 28 29  1  0  0  0  0
 29 35  1  0  0  0  0
 30 33  1  0  0  0  0
 30 31  1  0  0  0  0
 31 28  1  0  0  0  0
 32 34  1  0  0  0  0
 33 32  1  0  0  0  0
 33 27  1  0  0  0  0
 34 29  1  0  0  0  0
 35 36  1  0  0  0  0
 36 37  1  0  0  0  0
 37 38  1  0  0  0  0
 39 27  1  0  0  0  0
 39 40  1  0  0  0  0
 41 39  1  0  0  0  0
M  END
>  <MODEL>
6

>  <REMARK>
 VINA RESULT:      -6.7      2.192      5.405
  Name = 
  10 active torsions:
  status: ('A' for Active; 'I' for Inactive)
    1  A    between atoms: C_1  and  C_9
    2  A    between atoms: N_3  and  C_29
    3  A    between atoms: C_4  and  C_40
    4  A    between atoms: C_5  and  C_27
    5  A    between atoms: C_9  and  C_40
    6  A    between atoms: C_10  and  C_36
    7  A    between atoms: C_14  and  C_15
    8  A    between atoms: C_14  and  C_36
    9  A    between atoms: C_19  and  C_22
   10  A    between atoms: C_30  and  C_40
                            x       y       z     vdW  Elec       q    Type
                         _______ _______ _______ _____ _____    ______ ____

>  <TORSDO>
F 10

$$$$
=
 OpenBabel11062415203D

 41 45  0  0  1  0  0  0  0  0999 V2000
  186.6330  177.5020  137.6460 C   0  0  1  0  0  3  0  0  0  0  0  0
  184.3410  177.4190  137.8490 C   0  0  1  0  0  3  0  0  0  0  0  0
  182.6480  175.5690  138.1050 C   0  0  0  0  0  2  0  0  0  0  0  0
  183.1780  177.9850  140.0680 C   0  0  2  0  0  3  0  0  0  0  0  0
  182.6040  175.6980  139.5000 O   0  0  0  0  0  0  0  0  0  0  0  0
  186.9180  178.3380  138.8970 C   0  0  0  0  0  2  0  0  0  0  0  0
  182.0760  176.9760  139.7290 C   0  0  0  0  0  2  0  0  0  0  0  0
  185.6320  178.6890  139.6530 C   0  0  1  0  0  3  0  0  0  0  0  0
  182.6830  179.3850  139.7420 C   0  0  0  0  0  1  0  0  0  0  0  0
  184.5170  177.6700  139.3670 C   0  0  2  0  0  3  0  0  0  0  0  0
  185.4150  177.8860  137.0520 O   0  0  0  0  0  0  0  0  0  0  0  0
  184.0290  175.9490  137.5680 C   0  0  0  0  0  2  0  0  0  0  0  0
  186.8220  177.8700  141.7190 N   0  0  0  0  0  2  0  0  0  0  0  0
  185.9210  178.8060  141.1150 C   0  0  0  0  0  0  0  0  0  0  0  0
  185.3880  179.7280  141.7910 O   0  0  0  0  0  0  0  0  0  0  0  0
  188.4750  177.8910  143.5670 C   0  0  0  0  0  3  0  0  0  0  0  0
  186.4050  177.5080  145.4030 C   0  0  0  0  0  3  0  0  0  0  0  0
  188.7690  177.7950  144.9350 C   0  0  0  0  0  0  0  0  0  0  0  0
  187.1530  177.7760  143.1110 C   0  0  0  0  0  0  0  0  0  0  0  0
  186.1230  177.5830  144.0370 C   0  0  0  0  0  3  0  0  0  0  0  0
  187.7230  177.6190  145.8520 C   0  0  0  0  0  3  0  0  0  0  0  0
  190.1770  177.9680  145.4200 C   0  0  0  0  0  3  0  0  0  0  0  0
  190.9420  176.6580  145.3220 C   0  0  0  0  0  2  0  0  0  0  0  0
  190.4160  177.1230  146.6600 C   0  0  0  0  0  2  0  0  0  0  0  0
  187.7940  177.5790  136.6560 C   0  0  1  0  0  3  0  0  0  0  0  0
  188.7520  178.7080  137.0060 C   0  0  0  0  0  1  0  0  0  0  0  0
  188.4430  176.2070  136.3340 C   0  0  1  0  0  3  0  0  0  0  0  0
  191.5640  176.7460  136.8420 O   0  0  0  0  0  0  0  0  0  0  0  0
  192.0700  175.4690  136.5760 C   0  0  1  0  0  3  0  0  0  0  0  0
  189.8070  176.5780  138.4890 C   0  0  0  0  0  2  0  0  0  0  0  0
  191.3030  176.7420  138.2160 C   0  0  0  0  0  2  0  0  0  0  0  0
  189.9300  174.3130  137.2730 C   0  0  0  0  0  2  0  0  0  0  0  0
  189.0830  175.5630  137.5830 C   0  0  2  0  0  3  0  0  0  0  0  0
  190.9430  174.5360  136.1480 C   0  0  0  0  0  2  0  0  0  0  0  0
  193.1020  175.5390  135.4600 C   0  0  0  0  0  2  0  0  0  0  0  0
  194.4330  176.0720  135.9720 C   0  0  0  0  0  2  0  0  0  0  0  0
  195.1520  176.8690  134.8960 C   0  0  0  0  0  2  0  0  0  0  0  0
  195.4290  178.1540  135.3610 O   0  0  0  0  0  1  0  0  0  0  0  0
  187.5930  175.1960  135.5300 C   0  0  0  0  0  3  0  0  0  0  0  0
  186.9110  174.1460  136.3930 C   0  0  0  0  0  1  0  0  0  0  0  0
  186.6000  175.8570  134.5960 C   0  0  0  0  0  1  0  0  0  0  0  0
  1 25  1  6  0  0  0
  1  6  1  0  0  0  0
  2 12  1  1  0  0  0
  2 10  1  0  0  0  0
  3  5  1  0  0  0  0
  4  9  1  6  0  0  0
  5  7  1  0  0  0  0
  6  8  1  0  0  0  0
  7  4  1  0  0  0  0
  8 14  1  1  0  0  0
 10  8  1  0  0  0  0
 10  4  1  0  0  0  0
 11  1  1  0  0  0  0
 11  2  1  0  0  0  0
 12  3  1  0  0  0  0
 13 19  1  0  0  0  0
 14 13  1  0  0  0  0
 14 15  2  0  0  0  0
 16 18  1  0  0  0  0
 17 21  1  0  0  0  0
 18 22  1  0  0  0  0
 18 21  2  0  0  0  0
 19 16  2  0  0  0  0
 19 20  1  0  0  0  0
 20 17  2  0  0  0  0
 22 24  1  0  0  0  0
 23 22  1  0  0  0  0
 23 24  1  0  0  0  0
 25 26  1  0  0  0  0
 27 25  1  0  0  0  0
 27 33  1  0  0  0  0
 28 31  1  0  0  0  0
 29 28  1  0  0  0  0
 31 30  1  0  0  0  0
 32 33  1  0  0  0  0
 33 30  1  0  0  0  0
 34 29  1  0  0  0  0
 34 32  1  0  0  0  0
 35 36  1  0  0  0  0
 35 29  1  0  0  0  0
 37 38  1  0  0  0  0
 37 36  1  0  0  0  0
 39 27  1  0  0  0  0
 39 40  1  0  0  0  0
 41 39  1  0  0  0  0
M  END
>  <MODEL>
7

>  <REMARK>
 VINA RESULT:      -6.6      1.983      4.044
  Name = 
  10 active torsions:
  status: ('A' for Active; 'I' for Inactive)
    1  A    between atoms: C_1  and  C_9
    2  A    between atoms: N_3  and  C_29
    3  A    between atoms: C_4  and  C_40
    4  A    between atoms: C_5  and  C_27
    5  A    between atoms: C_9  and  C_40
    6  A    between atoms: C_10  and  C_36
    7  A    between atoms: C_14  and  C_15
    8  A    between atoms: C_14  and  C_36
    9  A    between atoms: C_19  and  C_22
   10  A    between atoms: C_30  and  C_40
                            x       y       z     vdW  Elec       q    Type
                         _______ _______ _______ _____ _____    ______ ____

>  <TORSDO>
F 10

$$$$
=
 OpenBabel11062415203D

 41 45  0  0  1  0  0  0  0  0999 V2000
  185.0650  177.0260  137.1620 C   0  0  1  0  0  3  0  0  0  0  0  0
  182.8180  176.8300  137.6260 C   0  0  1  0  0  3  0  0  0  0  0  0
  181.3120  174.9370  138.3360 C   0  0  0  0  0  2  0  0  0  0  0  0
  181.8400  177.6570  139.8530 C   0  0  2  0  0  3  0  0  0  0  0  0
  181.3960  175.2780  139.6930 O   0  0  0  0  0  0  0  0  0  0  0  0
  185.4050  178.0630  138.2370 C   0  0  0  0  0  2  0  0  0  0  0  0
  180.7940  176.5390  139.7880 C   0  0  0  0  0  2  0  0  0  0  0  0
  184.1760  178.4430  139.0710 C   0  0  1  0  0  3  0  0  0  0  0  0
  181.2050  178.9550  139.3810 C   0  0  0  0  0  1  0  0  0  0  0  0
  183.1230  177.3240  139.0620 C   0  0  2  0  0  3  0  0  0  0  0  0
  183.7660  177.2360  136.6550 O   0  0  0  0  0  0  0  0  0  0  0  0
  182.5970  175.3170  137.6010 C   0  0  0  0  0  2  0  0  0  0  0  0
  184.1050  178.0230  141.5560 N   0  0  0  0  0  2  0  0  0  0  0  0
  184.5990  178.8020  140.4590 C   0  0  0  0  0  0  0  0  0  0  0  0
  185.3910  179.7660  140.6470 O   0  0  0  0  0  0  0  0  0  0  0  0
  185.5960  178.0850  143.5360 C   0  0  0  0  0  3  0  0  0  0  0  0
  183.4600  178.9820  145.0970 C   0  0  0  0  0  3  0  0  0  0  0  0
  185.7890  178.3300  144.9030 C   0  0  0  0  0  0  0  0  0  0  0  0
  184.3340  178.2670  142.9490 C   0  0  0  0  0  0  0  0  0  0  0  0
  183.2700  178.7150  143.7390 C   0  0  0  0  0  3  0  0  0  0  0  0
  184.7170  178.7960  145.6770 C   0  0  0  0  0  3  0  0  0  0  0  0
  187.1510  178.1820  145.5130 C   0  0  0  0  0  3  0  0  0  0  0  0
  187.2110  176.9450  146.3950 C   0  0  0  0  0  2  0  0  0  0  0  0
  187.0690  178.3110  147.0250 C   0  0  0  0  0  2  0  0  0  0  0  0
  186.1110  177.0240  136.0490 C   0  0  1  0  0  3  0  0  0  0  0  0
  186.8510  178.3520  135.9750 C   0  0  0  0  0  1  0  0  0  0  0  0
  186.9930  175.7470  136.0130 C   0  0  1  0  0  3  0  0  0  0  0  0
  190.0240  176.7840  135.8470 O   0  0  0  0  0  0  0  0  0  0  0  0
  190.6960  175.5580  135.8940 C   0  0  1  0  0  3  0  0  0  0  0  0
  188.5110  176.9370  137.7220 C   0  0  0  0  0  2  0  0  0  0  0  0
  189.9220  177.1830  137.1830 C   0  0  0  0  0  2  0  0  0  0  0  0
  188.8600  174.4360  137.2270 C   0  0  0  0  0  2  0  0  0  0  0  0
  187.8640  175.6100  137.2810 C   0  0  2  0  0  3  0  0  0  0  0  0
  189.6920  174.4110  135.9420 C   0  0  0  0  0  2  0  0  0  0  0  0
  191.5720  175.3940  134.6610 C   0  0  0  0  0  2  0  0  0  0  0  0
  193.0170  175.1090  135.0450 C   0  0  0  0  0  2  0  0  0  0  0  0
  193.3520  175.7190  136.3970 C   0  0  0  0  0  2  0  0  0  0  0  0
  194.4520  176.5680  136.2750 O   0  0  0  0  0  1  0  0  0  0  0  0
  186.2950  174.4190  135.6410 C   0  0  0  0  0  3  0  0  0  0  0  0
  185.7900  173.6340  136.8420 C   0  0  0  0  0  1  0  0  0  0  0  0
  185.2020  174.5860  134.6050 C   0  0  0  0  0  1  0  0  0  0  0  0
  1 25  1  6  0  0  0
  1  6  1  0  0  0  0
  2 12  1  1  0  0  0
  2 10  1  0  0  0  0
  3  5  1  0  0  0  0
  4  9  1  6  0  0  0
  5  7  1  0  0  0  0
  6  8  1  0  0  0  0
  7  4  1  0  0  0  0
  8 14  1  1  0  0  0
 10  8  1  0  0  0  0
 10  4  1  0  0  0  0
 11  1  1  0  0  0  0
 11  2  1  0  0  0  0
 12  3  1  0  0  0  0
 13 19  1  0  0  0  0
 14 15  2  0  0  0  0
 14 13  1  0  0  0  0
 16 18  1  0  0  0  0
 17 21  1  0  0  0  0
 18 22  1  0  0  0  0
 18 21  2  0  0  0  0
 19 16  2  0  0  0  0
 19 20  1  0  0  0  0
 20 17  2  0  0  0  0
 22 23  1  0  0  0  0
 22 24  1  0  0  0  0
 23 24  1  0  0  0  0
 26 25  1  0  0  0  0
 27 25  1  0  0  0  0
 27 33  1  0  0  0  0
 28 29  1  0  0  0  0
 28 31  1  0  0  0  0
 29 34  1  0  0  0  0
 31 30  1  0  0  0  0
 32 33  1  0  0  0  0
 33 30  1  0  0  0  0
 34 32  1  0  0  0  0
 35 36  1  0  0  0  0
 35 29  1  0  0  0  0
 36 37  1  0  0  0  0
 38 37  1  0  0  0  0
 39 27  1  0  0  0  0
 39 40  1  0  0  0  0
 41 39  1  0  0  0  0
M  END
>  <MODEL>
8

>  <REMARK>
 VINA RESULT:      -6.4      2.082      4.044
  Name = 
  10 active torsions:
  status: ('A' for Active; 'I' for Inactive)
    1  A    between atoms: C_1  and  C_9
    2  A    between atoms: N_3  and  C_29
    3  A    between atoms: C_4  and  C_40
    4  A    between atoms: C_5  and  C_27
    5  A    between atoms: C_9  and  C_40
    6  A    between atoms: C_10  and  C_36
    7  A    between atoms: C_14  and  C_15
    8  A    between atoms: C_14  and  C_36
    9  A    between atoms: C_19  and  C_22
   10  A    between atoms: C_30  and  C_40
                            x       y       z     vdW  Elec       q    Type
                         _______ _______ _______ _____ _____    ______ ____

>  <TORSDO>
F 10

$$$$
=
 OpenBabel11062415203D

 41 45  0  0  1  0  0  0  0  0999 V2000
  188.9330  177.6830  138.7090 C   0  0  1  0  0  3  0  0  0  0  0  0
  190.5550  176.7020  140.0160 C   0  0  1  0  0  3  0  0  0  0  0  0
  192.8810  177.3490  140.7410 C   0  0  0  0  0  2  0  0  0  0  0  0
  190.3920  176.7190  142.5790 C   0  0  2  0  0  3  0  0  0  0  0  0
  192.4380  177.8670  141.9660 O   0  0  0  0  0  0  0  0  0  0  0  0
  187.8400  177.7740  139.7770 C   0  0  0  0  0  2  0  0  0  0  0  0
  191.9220  176.7650  142.6590 C   0  0  0  0  0  2  0  0  0  0  0  0
  188.3130  177.2240  141.1270 C   0  0  1  0  0  3  0  0  0  0  0  0
  189.9290  175.2890  142.8110 C   0  0  0  0  0  1  0  0  0  0  0  0
  189.8430  177.2950  141.2570 C   0  0  2  0  0  3  0  0  0  0  0  0
  189.7150  176.5240  138.8900 O   0  0  0  0  0  0  0  0  0  0  0  0
  191.8070  177.5070  139.6640 C   0  0  0  0  0  2  0  0  0  0  0  0
  187.4370  177.2730  143.4900 N   0  0  0  0  0  2  0  0  0  0  0  0
  187.6230  177.9460  142.2390 C   0  0  0  0  0  0  0  0  0  0  0  0
  187.2320  179.1340  142.0720 O   0  0  0  0  0  0  0  0  0  0  0  0
  187.2910  177.7470  145.9200 C   0  0  0  0  0  3  0  0  0  0  0  0
  184.7460  178.8330  145.5410 C   0  0  0  0  0  3  0  0  0  0  0  0
  186.5770  178.2420  147.0200 C   0  0  0  0  0  0  0  0  0  0  0  0
  186.7310  177.7730  144.6340 C   0  0  0  0  0  0  0  0  0  0  0  0
  185.4560  178.3180  144.4530 C   0  0  0  0  0  3  0  0  0  0  0  0
  185.3070  178.8010  146.8200 C   0  0  0  0  0  3  0  0  0  0  0  0
  187.2010  178.2560  148.3830 C   0  0  0  0  0  3  0  0  0  0  0  0
  188.6730  178.6250  148.2940 C   0  0  0  0  0  2  0  0  0  0  0  0
  188.2710  177.1810  148.4850 C   0  0  0  0  0  2  0  0  0  0  0  0
  188.3370  177.7490  137.3040 C   0  0  1  0  0  3  0  0  0  0  0  0
  188.7690  179.0120  136.5740 C   0  0  0  0  0  1  0  0  0  0  0  0
  188.4530  176.4230  136.5050 C   0  0  1  0  0  3  0  0  0  0  0  0
  185.3590  175.9090  137.1730 O   0  0  0  0  0  0  0  0  0  0  0  0
  185.2180  174.6160  136.6580 C   0  0  1  0  0  3  0  0  0  0  0  0
  186.2830  177.3490  135.4700 C   0  0  0  0  0  2  0  0  0  0  0  0
  185.0270  176.7520  136.1080 C   0  0  0  0  0  2  0  0  0  0  0  0
  187.0340  174.9490  134.9270 C   0  0  0  0  0  2  0  0  0  0  0  0
  187.4670  176.3750  135.3180 C   0  0  2  0  0  3  0  0  0  0  0  0
  186.5540  174.1170  136.1190 C   0  0  0  0  0  2  0  0  0  0  0  0
  184.7410  173.6680  137.7490 C   0  0  0  0  0  2  0  0  0  0  0  0
  184.5570  172.2570  137.2110 C   0  0  0  0  0  2  0  0  0  0  0  0
  183.2550  172.1340  136.4360 C   0  0  0  0  0  2  0  0  0  0  0  0
  182.2910  171.5040  137.2220 O   0  0  0  0  0  1  0  0  0  0  0  0
  189.8740  175.9680  136.0990 C   0  0  0  0  0  3  0  0  0  0  0  0
  190.1550  174.5020  136.3900 C   0  0  0  0  0  1  0  0  0  0  0  0
  190.2270  176.3110  134.6650 C   0  0  0  0  0  1  0  0  0  0  0  0
  1 25  1  6  0  0  0
  1 11  1  0  0  0  0
  1  6  1  0  0  0  0
  2 12  1  6  0  0  0
  2 10  1  0  0  0  0
  3  5  1  0  0  0  0
  4  7  1  0  0  0  0
  4  9  1  6  0  0  0
  5  7  1  0  0  0  0
  6  8  1  0  0  0  0
  8 10  1  0  0  0  0
  8 14  1  1  0  0  0
 10  4  1  0  0  0  0
 11  2  1  0  0  0  0
 12  3  1  0  0  0  0
 13 19  1  0  0  0  0
 14 13  1  0  0  0  0
 15 14  2  0  0  0  0
 16 18  1  0  0  0  0
 17 21  1  0  0  0  0
 18 22  1  0  0  0  0
 19 16  2  0  0  0  0
 20 19  1  0  0  0  0
 20 17  2  0  0  0  0
 21 18  2  0  0  0  0
 22 24  1  0  0  0  0
 23 22  1  0  0  0  0
 23 24  1  0  0  0  0
 26 25  1  0  0  0  0
 27 25  1  0  0  0  0
 29 28  1  0  0  0  0
 29 35  1  0  0  0  0
 30 31  1  0  0  0  0
 31 28  1  0  0  0  0
 32 33  1  0  0  0  0
 32 34  1  0  0  0  0
 33 30  1  0  0  0  0
 33 27  1  0  0  0  0
 34 29  1  0  0  0  0
 36 35  1  0  0  0  0
 37 36  1  0  0  0  0
 37 38  1  0  0  0  0
 39 40  1  0  0  0  0
 39 27  1  0  0  0  0
 41 39  1  0  0  0  0
M  END
>  <MODEL>
9

>  <REMARK>
 VINA RESULT:      -6.1      2.117      4.345
  Name = 
  10 active torsions:
  status: ('A' for Active; 'I' for Inactive)
    1  A    between atoms: C_1  and  C_9
    2  A    between atoms: N_3  and  C_29
    3  A    between atoms: C_4  and  C_40
    4  A    between atoms: C_5  and  C_27
    5  A    between atoms: C_9  and  C_40
    6  A    between atoms: C_10  and  C_36
    7  A    between atoms: C_14  and  C_15
    8  A    between atoms: C_14  and  C_36
    9  A    between atoms: C_19  and  C_22
   10  A    between atoms: C_30  and  C_40
                            x       y       z     vdW  Elec       q    Type
                         _______ _______ _______ _____ _____    ______ ____

>  <TORSDO>
F 10

$$$$
