=
 OpenBabel11062418113D

 70 75  0  0  1  0  0  0  0  0999 V2000
  189.0440  179.1030  143.6160 C   0  0  1  0  0  3  0  0  0  0  0  0
  188.3270  178.0140  142.8050 C   0  0  1  0  0  3  0  0  0  0  0  0
  191.1360  175.5900  143.4920 O   0  0  0  0  0  1  0  0  0  0  0  0
  189.4990  178.6140  144.8630 O   0  0  0  0  0  0  0  0  0  0  0  0
  190.0870  179.6840  142.8860 O   0  0  0  0  0  1  0  0  0  0  0  0
  189.1060  176.6830  142.7720 C   0  0  2  0  0  3  0  0  0  0  0  0
  190.4820  177.5920  144.7360 C   0  0  2  0  0  3  0  0  0  0  0  0
  190.4980  176.8310  143.3870 C   0  0  1  0  0  3  0  0  0  0  0  0
  189.7570  177.3330  140.2240 S   0  0  0  0  0  0  0  0  0  0  0  0
  189.2720  176.2790  141.3430 C   0  0  0  0  0  2  0  0  0  0  0  0
  189.8310  176.3370  138.7130 C   0  0  1  0  0  3  0  0  0  0  0  0
  186.8670  176.4560  137.4240 O   0  0  0  0  0  0  0  0  0  0  0  0
  188.1160  176.0990  137.0040 O   0  0  0  0  0  0  0  0  0  0  0  0
  187.4760  178.7940  136.8820 C   0  0  2  0  0  0  0  0  0  0  0  0
  187.8410  178.4380  135.5810 O   0  0  0  0  0  1  0  0  0  0  0  0
  190.0320  177.2950  136.5370 O   0  0  0  0  0  1  0  0  0  0  0  0
  188.3960  178.3060  138.0160 C   0  0  1  0  0  3  0  0  0  0  0  0
  186.4640  177.8110  137.3740 C   0  0  0  0  0  0  0  0  0  0  0  0
  189.0940  177.0070  137.5340 C   0  0  2  0  0  0  0  0  0  0  0  0
  185.2880  178.1570  137.6700 O   0  0  0  0  0  0  0  0  0  0  0  0
  188.5750  179.5240  137.4450 O   0  0  0  0  0  0  0  0  0  0  0  0
  191.2980  176.0240  138.4090 C   0  0  0  0  0  2  0  0  0  0  0  0
  191.4560  174.7320  137.6250 C   0  0  0  0  0  2  0  0  0  0  0  0
  190.2910  173.9730  137.7450 O   0  0  0  0  0  0  0  0  0  0  0  0
  190.2210  174.1070  135.4710 O   0  0  0  0  0  1  0  0  0  0  0  0
  190.2180  173.2360  136.5640 C   0  0  0  0  0  2  0  0  0  0  0  0
  186.4390  176.5350  143.1960 O   0  0  0  0  0  1  0  0  0  0  0  0
  186.8820  177.8570  143.3060 C   0  0  2  0  0  3  0  0  0  0  0  0
  185.7480  178.6590  141.1460 C   0  0  0  0  0  0  0  0  0  0  0  0
  186.4710  177.6400  140.5220 O   0  0  0  0  0  1  0  0  0  0  0  0
  184.6240  178.1720  142.0530 C   0  0  1  0  0  3  0  0  0  0  0  0
  185.8880  178.8160  142.6480 C   0  0  1  0  0  0  0  0  0  0  0  0
  185.4750  179.7960  140.3810 O   0  0  0  0  0  1  0  0  0  0  0  0
  185.8050  180.2560  143.1500 C   0  0  0  0  0  1  0  0  0  0  0  0
  183.5530  179.0730  142.0530 O   0  0  0  0  0  0  0  0  0  0  0  0
  182.4060  178.2760  142.0850 C   0  0  0  0  0  2  0  0  0  0  0  0
  182.2750  177.5060  140.8060 C   0  0  0  0  0  3  0  0  0  0  0  0
  181.1320  176.9680  140.3580 C   0  0  0  0  0  0  0  0  0  0  0  0
  181.1930  174.6250  136.7650 C   0  0  0  0  0  0  0  0  0  0  0  0
  182.3470  175.9760  138.4100 C   0  0  0  0  0  3  0  0  0  0  0  0
  181.1480  176.1660  139.1140 C   0  0  0  0  0  0  0  0  0  0  0  0
  182.3720  175.2110  137.2420 C   0  0  0  0  0  3  0  0  0  0  0  0
  179.9920  174.8200  137.4520 C   0  0  0  0  0  3  0  0  0  0  0  0
  179.9690  175.5900  138.6180 C   0  0  0  0  0  3  0  0  0  0  0  0
  181.2110  173.7800  135.5390 C   0  0  0  0  0  2  0  0  0  0  0  0
  182.6170  173.7210  134.9670 C   0  0  0  0  0  2  0  0  0  0  0  0
  183.0390  172.2770  134.7660 C   0  0  0  0  0  2  0  0  0  0  0  0
  184.4290  172.1730  134.8620 O   0  0  0  0  0  0  0  0  0  0  0  0
  184.8130  173.2470  135.6650 C   0  0  0  0  0  2  0  0  0  0  0  0
  186.9220  172.9080  134.5970 O   0  0  0  0  0  1  0  0  0  0  0  0
  186.0690  173.8910  135.1000 C   0  0  0  0  0  2  0  0  0  0  0  0
  179.8560  177.1060  141.1540 C   0  0  0  0  0  2  0  0  0  0  0  0
  179.7610  180.6960  140.6790 C   0  0  0  0  0  2  0  0  0  0  0  0
  179.1060  178.7690  139.3730 C   0  0  0  0  0  2  0  0  0  0  0  0
  179.1110  180.2830  139.3750 C   0  0  2  0  0  3  0  0  0  0  0  0
  179.4650  179.5780  141.6600 C   0  0  0  0  0  2  0  0  0  0  0  0
  179.0480  178.3710  140.8340 C   0  0  2  0  0  3  0  0  0  0  0  0
  179.8390  180.8180  138.2220 N   0  0  0  0  0  0  0  0  0  0  0  0
  179.1340  181.1850  137.0030 C   0  0  0  0  0  1  0  0  0  0  0  0
  182.0680  179.9630  137.8240 C   0  0  0  0  0  2  0  0  0  0  0  0
  181.2690  180.9430  138.2310 C   0  0  0  0  0  3  0  0  0  0  0  0
  190.4290  176.6570  145.9530 C   0  0  1  0  0  3  0  0  0  0  0  0
  191.4380  177.0880  147.0080 C   0  0  0  0  0  2  0  0  0  0  0  0
  192.3300  175.9550  147.3860 C   0  0  0  0  0  0  0  0  0  0  0  0
  192.3810  174.9250  146.6580 O   0  0  0  0  0  0  0  0  0  0  0  0
  193.1190  176.0530  148.5780 N   0  0  0  0  0  0  0  0  0  0  0  0
  193.1490  175.1130  149.4650 C   0  0  0  0  0  2  0  0  0  0  0  0
  189.0970  176.6540  146.5330 N   0  0  0  0  0  2  0  0  0  0  0  0
  188.8380  177.3560  147.7170 C   0  0  0  0  0  0  0  0  0  0  0  0
  188.6190  177.9370  148.6950 N   0  0  0  0  0  0  0  0  0  0  0  0
  1  5  1  6  0  0  0
  1  4  1  0  0  0  0
  2 28  1  1  0  0  0
  2  1  1  0  0  0  0
  6 10  1  6  0  0  0
  6  2  1  0  0  0  0
  6  8  1  0  0  0  0
  7  4  1  0  0  0  0
  7 62  1  1  0  0  0
  8  3  1  1  0  0  0
  8  7  1  0  0  0  0
  9 10  1  0  0  0  0
 11 22  1  6  0  0  0
 11  9  1  0  0  0  0
 13 12  1  0  0  0  0
 13 19  1  0  0  0  0
 14 15  1  6  0  0  0
 14 18  1  0  0  0  0
 14 21  1  0  0  0  0
 14 17  1  0  0  0  0
 17 21  1  6  0  0  0
 18 12  1  0  0  0  0
 18 20  2  0  0  0  0
 19 16  1  6  0  0  0
 19 17  1  0  0  0  0
 19 11  1  0  0  0  0
 23 24  1  0  0  0  0
 23 22  1  0  0  0  0
 25 26  1  0  0  0  0
 26 24  1  0  0  0  0
 28 27  1  6  0  0  0
 29 31  1  0  0  0  0
 29 32  1  0  0  0  0
 30 29  1  0  0  0  0
 31 35  1  6  0  0  0
 31 32  1  0  0  0  0
 32 34  1  1  0  0  0
 32 28  1  0  0  0  0
 33 29  1  0  0  0  0
 35 36  1  0  0  0  0
 37 36  1  0  0  0  0
 38 37  2  0  0  0  0
 38 52  1  0  0  0  0
 39 42  2  0  0  0  0
 39 43  1  0  0  0  0
 40 41  2  0  0  0  0
 41 38  1  0  0  0  0
 42 40  1  0  0  0  0
 43 44  2  0  0  0  0
 44 41  1  0  0  0  0
 45 39  1  0  0  0  0
 46 45  1  0  0  0  0
 47 48  1  0  0  0  0
 47 46  1  0  0  0  0
 48 49  1  0  0  0  0
 50 51  1  0  0  0  0
 51 49  1  0  0  0  0
 53 56  1  0  0  0  0
 54 55  1  0  0  0  0
 54 57  1  0  0  0  0
 55 58  1  6  0  0  0
 55 53  1  0  0  0  0
 57 52  1  6  0  0  0
 57 56  1  0  0  0  0
 58 61  1  0  0  0  0
 59 58  1  0  0  0  0
 60 61  2  0  0  0  0
 62 68  1  0  0  0  0
 62 63  1  1  0  0  0
 63 64  1  0  0  0  0
 64 66  1  0  0  0  0
 65 64  2  0  0  0  0
 66 67  2  0  0  0  0
 68 69  1  0  0  0  0
 69 70  3  0  0  0  0
M  END
>  <MODEL>
1

>  <REMARK>
 VINA RESULT:      -3.7      0.000      0.000
  Name = 
  29 active torsions:
  status: ('A' for Active; 'I' for Inactive)
    1  A    between atoms: C_1  and  C_19
    2  A    between atoms: C_1  and  O_23
    3  A    between atoms: C_2  and  C_42
    4  A    between atoms: C_2  and  O_46
    5  A    between atoms: C_3  and  C_7
    6  A    between atoms: C_3  and  C_19
    7  A    between atoms: C_4  and  N_8
    8  A    between atoms: N_8  and  C_44
    9  A    between atoms: C_13  and  C_24
   10  A    between atoms: C_13  and  C_61
   11  A    between atoms: C_21  and  C_32
   12  A    between atoms: O_23  and  C_65
   13  A    between atoms: C_24  and  O_30
   14  A    between atoms: N_25  and  C_41
   15  A    between atoms: C_26  and  C_52
   16  A    between atoms: N_27  and  C_29
   17  A    between atoms: N_27  and  C_70
   18  A    between atoms: O_30  and  C_60
   19  A    between atoms: C_32  and  C_37
   20  A    between atoms: C_33  and  O_46
   21  A    between atoms: S_34  and  C_61
   22  A    between atoms: C_40  and  C_61
   23  A    between atoms: C_41  and  C_48
   24  A    between atoms: C_44  and  C_48
   25  A    between atoms: C_44  and  C_54
   26  A    between atoms: C_45  and  C_65
   27  A    between atoms: C_52  and  C_58
   28  A    between atoms: C_53  and  C_57
   29  A    between atoms: C_58  and  C_62
                            x       y       z     vdW  Elec       q    Type
                         _______ _______ _______ _____ _____    ______ ____

>  <TORSDO>
F 29

$$$$
=
 OpenBabel11062418113D

 70 75  0  0  1  0  0  0  0  0999 V2000
  188.1780  175.8510  143.0350 C   0  0  1  0  0  3  0  0  0  0  0  0
  187.7870  177.1700  142.3530 C   0  0  1  0  0  3  0  0  0  0  0  0
  186.9230  178.6940  145.6950 O   0  0  0  0  0  1  0  0  0  0  0  0
  189.0230  176.0670  144.1490 O   0  0  0  0  0  0  0  0  0  0  0  0
  187.0490  175.1030  143.3900 O   0  0  0  0  0  1  0  0  0  0  0  0
  187.3310  178.2490  143.3560 C   0  0  2  0  0  3  0  0  0  0  0  0
  188.3950  176.8080  145.1910 C   0  0  2  0  0  3  0  0  0  0  0  0
  187.1880  177.6800  144.7680 C   0  0  1  0  0  3  0  0  0  0  0  0
  184.7750  177.7360  142.6190 S   0  0  0  0  0  0  0  0  0  0  0  0
  185.9920  178.7500  142.9200 C   0  0  0  0  0  2  0  0  0  0  0  0
  183.4080  178.8410  142.1820 C   0  0  1  0  0  3  0  0  0  0  0  0
  181.3000  180.0750  140.0610 O   0  0  0  0  0  0  0  0  0  0  0  0
  181.4260  178.9170  140.7720 O   0  0  0  0  0  0  0  0  0  0  0  0
  182.8040  179.0670  138.3710 C   0  0  2  0  0  0  0  0  0  0  0  0
  181.9890  177.9380  138.2630 O   0  0  0  0  0  1  0  0  0  0  0  0
  182.8600  177.1160  140.6270 O   0  0  0  0  0  1  0  0  0  0  0  0
  183.5920  179.2280  139.6840 C   0  0  1  0  0  3  0  0  0  0  0  0
  181.9610  180.2170  138.8170 C   0  0  0  0  0  0  0  0  0  0  0  0
  182.8010  178.5030  140.8040 C   0  0  2  0  0  0  0  0  0  0  0  0
  181.7910  181.2380  138.0970 O   0  0  0  0  0  0  0  0  0  0  0  0
  184.1400  178.6030  138.6110 O   0  0  0  0  0  0  0  0  0  0  0  0
  182.3810  178.8160  143.3170 C   0  0  0  0  0  2  0  0  0  0  0  0
  181.2590  179.8170  143.0940 C   0  0  0  0  0  2  0  0  0  0  0  0
  180.0680  179.2950  143.6010 O   0  0  0  0  0  0  0  0  0  0  0  0
  179.3000  177.4940  144.7680 O   0  0  0  0  0  1  0  0  0  0  0  0
  180.4300  178.0900  144.2020 C   0  0  0  0  0  2  0  0  0  0  0  0
  189.5520  178.7880  141.9350 O   0  0  0  0  0  1  0  0  0  0  0  0
  188.9280  177.6400  141.4360 C   0  0  2  0  0  3  0  0  0  0  0  0
  189.6590  177.9750  138.9970 C   0  0  0  0  0  0  0  0  0  0  0  0
  190.9590  177.8400  139.4870 O   0  0  0  0  0  1  0  0  0  0  0  0
  188.8400  176.6900  139.0160 C   0  0  1  0  0  3  0  0  0  0  0  0
  188.5100  177.8430  139.9790 C   0  0  1  0  0  0  0  0  0  0  0  0
  189.4890  178.7980  137.8810 O   0  0  0  0  0  1  0  0  0  0  0  0
  187.3030  178.7270  139.6700 C   0  0  0  0  0  1  0  0  0  0  0  0
  187.9380  176.6530  137.9460 O   0  0  0  0  0  0  0  0  0  0  0  0
  188.2390  175.4780  137.2540 C   0  0  0  0  0  2  0  0  0  0  0  0
  186.9930  174.6770  137.0260 C   0  0  0  0  0  3  0  0  0  0  0  0
  186.9660  173.3480  136.8580 C   0  0  0  0  0  0  0  0  0  0  0  0
  183.2390  171.3930  136.0280 C   0  0  0  0  0  0  0  0  0  0  0  0
  185.6300  171.5810  135.6960 C   0  0  0  0  0  3  0  0  0  0  0  0
  185.6770  172.6810  136.5670 C   0  0  0  0  0  0  0  0  0  0  0  0
  184.4190  170.9400  135.4270 C   0  0  0  0  0  3  0  0  0  0  0  0
  183.2740  172.4960  136.8860 C   0  0  0  0  0  3  0  0  0  0  0  0
  184.4860  173.1390  137.1510 C   0  0  0  0  0  3  0  0  0  0  0  0
  181.9450  170.6990  135.7740 C   0  0  0  0  0  2  0  0  0  0  0  0
  180.7920  171.6790  135.9160 C   0  0  0  0  0  2  0  0  0  0  0  0
  179.9720  171.3460  137.1480 C   0  0  0  0  0  2  0  0  0  0  0  0
  179.3370  172.4990  137.6180 O   0  0  0  0  0  0  0  0  0  0  0  0
  179.7620  173.5160  136.7630 C   0  0  0  0  0  2  0  0  0  0  0  0
  179.5960  175.8890  136.9710 O   0  0  0  0  0  1  0  0  0  0  0  0
  180.1330  174.7490  137.5710 C   0  0  0  0  0  2  0  0  0  0  0  0
  188.2450  172.5460  136.8810 C   0  0  0  0  0  2  0  0  0  0  0  0
  191.7850  173.0730  136.3210 C   0  0  0  0  0  2  0  0  0  0  0  0
  189.9640  172.1220  135.0460 C   0  0  0  0  0  2  0  0  0  0  0  0
  191.4380  172.4610  134.9800 C   0  0  2  0  0  3  0  0  0  0  0  0
  190.5100  173.7250  136.8190 C   0  0  0  0  0  2  0  0  0  0  0  0
  189.3680  173.1270  136.0110 C   0  0  2  0  0  3  0  0  0  0  0  0
  192.2510  171.2730  134.7100 N   0  0  0  0  0  0  0  0  0  0  0  0
  191.6340  169.9580  134.6120 C   0  0  0  0  0  1  0  0  0  0  0  0
  194.4500  171.7620  135.5940 C   0  0  0  0  0  2  0  0  0  0  0  0
  193.6790  171.3510  134.5940 C   0  0  0  0  0  3  0  0  0  0  0  0
  189.4480  177.5860  145.9920 C   0  0  1  0  0  3  0  0  0  0  0  0
  189.7590  176.8800  147.3040 C   0  0  0  0  0  2  0  0  0  0  0  0
  191.1160  177.2470  147.7980 C   0  0  0  0  0  0  0  0  0  0  0  0
  191.2800  178.3160  148.4480 O   0  0  0  0  0  0  0  0  0  0  0  0
  192.2200  176.3740  147.5260 N   0  0  0  0  0  0  0  0  0  0  0  0
  192.0780  175.2650  146.8760 C   0  0  0  0  0  2  0  0  0  0  0  0
  190.6710  177.7270  145.2190 N   0  0  0  0  0  2  0  0  0  0  0  0
  191.0400  178.9730  144.6960 C   0  0  0  0  0  0  0  0  0  0  0  0
  191.3460  180.0010  144.2600 N   0  0  0  0  0  0  0  0  0  0  0  0
  1  5  1  1  0  0  0
  1  4  1  0  0  0  0
  2 28  1  1  0  0  0
  2  1  1  0  0  0  0
  2  6  1  0  0  0  0
  4  7  1  0  0  0  0
  6 10  1  6  0  0  0
  6  8  1  0  0  0  0
  7 62  1  6  0  0  0
  8  7  1  0  0  0  0
  8  3  1  1  0  0  0
  9 10  1  0  0  0  0
 11  9  1  0  0  0  0
 11 22  1  1  0  0  0
 12 13  1  0  0  0  0
 13 19  1  0  0  0  0
 14 15  1  1  0  0  0
 14 21  1  0  0  0  0
 14 18  1  0  0  0  0
 14 17  1  0  0  0  0
 17 21  1  6  0  0  0
 17 19  1  0  0  0  0
 18 12  1  0  0  0  0
 19 16  1  6  0  0  0
 19 11  1  0  0  0  0
 20 18  2  0  0  0  0
 23 22  1  0  0  0  0
 23 24  1  0  0  0  0
 24 26  1  0  0  0  0
 26 25  1  0  0  0  0
 28 27  1  1  0  0  0
 29 31  1  0  0  0  0
 29 30  1  0  0  0  0
 29 32  1  0  0  0  0
 31 35  1  6  0  0  0
 31 32  1  0  0  0  0
 32 34  1  6  0  0  0
 32 28  1  0  0  0  0
 33 29  1  0  0  0  0
 36 35  1  0  0  0  0
 37 36  1  0  0  0  0
 38 52  1  0  0  0  0
 38 37  2  0  0  0  0
 39 43  1  0  0  0  0
 40 41  2  0  0  0  0
 41 38  1  0  0  0  0
 41 44  1  0  0  0  0
 42 40  1  0  0  0  0
 42 39  2  0  0  0  0
 43 44  2  0  0  0  0
 45 46  1  0  0  0  0
 45 39  1  0  0  0  0
 46 47  1  0  0  0  0
 47 48  1  0  0  0  0
 49 51  1  0  0  0  0
 49 48  1  0  0  0  0
 50 51  1  0  0  0  0
 53 56  1  0  0  0  0
 54 57  1  0  0  0  0
 55 58  1  1  0  0  0
 55 54  1  0  0  0  0
 55 53  1  0  0  0  0
 57 56  1  0  0  0  0
 57 52  1  1  0  0  0
 59 58  1  0  0  0  0
 61 58  1  0  0  0  0
 61 60  2  0  0  0  0
 62 63  1  1  0  0  0
 63 64  1  0  0  0  0
 64 65  2  0  0  0  0
 66 64  1  0  0  0  0
 67 66  2  0  0  0  0
 68 62  1  0  0  0  0
 69 68  1  0  0  0  0
 70 69  3  0  0  0  0
M  END
>  <MODEL>
2

>  <REMARK>
 VINA RESULT:      -3.1      3.021      7.911
  Name = 
  29 active torsions:
  status: ('A' for Active; 'I' for Inactive)
    1  A    between atoms: C_1  and  C_19
    2  A    between atoms: C_1  and  O_23
    3  A    between atoms: C_2  and  C_42
    4  A    between atoms: C_2  and  O_46
    5  A    between atoms: C_3  and  C_7
    6  A    between atoms: C_3  and  C_19
    7  A    between atoms: C_4  and  N_8
    8  A    between atoms: N_8  and  C_44
    9  A    between atoms: C_13  and  C_24
   10  A    between atoms: C_13  and  C_61
   11  A    between atoms: C_21  and  C_32
   12  A    between atoms: O_23  and  C_65
   13  A    between atoms: C_24  and  O_30
   14  A    between atoms: N_25  and  C_41
   15  A    between atoms: C_26  and  C_52
   16  A    between atoms: N_27  and  C_29
   17  A    between atoms: N_27  and  C_70
   18  A    between atoms: O_30  and  C_60
   19  A    between atoms: C_32  and  C_37
   20  A    between atoms: C_33  and  O_46
   21  A    between atoms: S_34  and  C_61
   22  A    between atoms: C_40  and  C_61
   23  A    between atoms: C_41  and  C_48
   24  A    between atoms: C_44  and  C_48
   25  A    between atoms: C_44  and  C_54
   26  A    between atoms: C_45  and  C_65
   27  A    between atoms: C_52  and  C_58
   28  A    between atoms: C_53  and  C_57
   29  A    between atoms: C_58  and  C_62
                            x       y       z     vdW  Elec       q    Type
                         _______ _______ _______ _____ _____    ______ ____

>  <TORSDO>
F 29

$$$$
=
 OpenBabel11062418113D

 70 75  0  0  1  0  0  0  0  0999 V2000
  188.8250  179.1400  143.1540 C   0  0  1  0  0  3  0  0  0  0  0  0
  188.1330  178.0350  142.3450 C   0  0  1  0  0  3  0  0  0  0  0  0
  191.0410  175.7080  142.9510 O   0  0  0  0  0  1  0  0  0  0  0  0
  189.3220  178.6560  144.3860 O   0  0  0  0  0  0  0  0  0  0  0  0
  189.8320  179.7670  142.4100 O   0  0  0  0  0  1  0  0  0  0  0  0
  188.9590  176.7330  142.2830 C   0  0  2  0  0  3  0  0  0  0  0  0
  190.3390  177.6710  144.2300 C   0  0  2  0  0  3  0  0  0  0  0  0
  190.3560  176.9260  142.8720 C   0  0  1  0  0  3  0  0  0  0  0  0
  189.0340  177.4520  139.6720 S   0  0  0  0  0  0  0  0  0  0  0  0
  189.1100  176.3500  140.8460 C   0  0  0  0  0  2  0  0  0  0  0  0
  189.3180  176.4830  138.1680 C   0  0  1  0  0  3  0  0  0  0  0  0
  186.9220  178.2070  136.8470 O   0  0  0  0  0  0  0  0  0  0  0  0
  187.0300  177.2140  137.7770 O   0  0  0  0  0  0  0  0  0  0  0  0
  186.9450  176.4340  135.1180 C   0  0  2  0  0  0  0  0  0  0  0  0
  185.8890  175.7620  135.7370 O   0  0  0  0  0  1  0  0  0  0  0  0
  187.5480  174.9710  137.6460 O   0  0  0  0  0  1  0  0  0  0  0  0
  188.3000  176.4140  135.8480 C   0  0  1  0  0  3  0  0  0  0  0  0
  186.8540  177.8830  135.4700 C   0  0  0  0  0  0  0  0  0  0  0  0
  188.0200  176.2570  137.3650 C   0  0  2  0  0  0  0  0  0  0  0  0
  186.6640  178.7710  134.5960 O   0  0  0  0  0  0  0  0  0  0  0  0
  187.9940  175.4770  134.9150 O   0  0  0  0  0  0  0  0  0  0  0  0
  190.4220  177.1610  137.3540 C   0  0  0  0  0  2  0  0  0  0  0  0
  191.6930  177.3530  138.1640 C   0  0  0  0  0  2  0  0  0  0  0  0
  192.0930  176.1260  138.6950 O   0  0  0  0  0  0  0  0  0  0  0  0
  193.0300  177.0860  140.5380 O   0  0  0  0  0  1  0  0  0  0  0  0
  193.2930  176.3920  139.3530 C   0  0  0  0  0  2  0  0  0  0  0  0
  186.2590  176.5140  142.6400 O   0  0  0  0  0  1  0  0  0  0  0  0
  186.7040  177.8200  142.8730 C   0  0  2  0  0  3  0  0  0  0  0  0
  185.3580  178.7100  140.8750 C   0  0  0  0  0  0  0  0  0  0  0  0
  185.9460  177.6660  140.1590 O   0  0  0  0  0  1  0  0  0  0  0  0
  184.3300  178.2670  141.9090 C   0  0  1  0  0  3  0  0  0  0  0  0
  185.6890  178.8370  142.3500 C   0  0  1  0  0  0  0  0  0  0  0  0
  185.0530  179.8710  140.1600 O   0  0  0  0  0  1  0  0  0  0  0  0
  185.7430  180.2720  142.8710 C   0  0  0  0  0  1  0  0  0  0  0  0
  183.3150  179.2210  142.0490 O   0  0  0  0  0  0  0  0  0  0  0  0
  182.1220  178.5090  141.9070 C   0  0  0  0  0  2  0  0  0  0  0  0
  182.1970  177.6050  140.7140 C   0  0  0  0  0  3  0  0  0  0  0  0
  181.6030  177.8490  139.5380 C   0  0  0  0  0  0  0  0  0  0  0  0
  181.8530  174.9460  136.3910 C   0  0  0  0  0  0  0  0  0  0  0  0
  180.5320  176.4060  137.7990 C   0  0  0  0  0  3  0  0  0  0  0  0
  181.6920  176.8410  138.4590 C   0  0  0  0  0  0  0  0  0  0  0  0
  180.6100  175.4640  136.7710 C   0  0  0  0  0  3  0  0  0  0  0  0
  183.0120  175.3630  137.0500 C   0  0  0  0  0  3  0  0  0  0  0  0
  182.9310  176.3020  138.0810 C   0  0  0  0  0  3  0  0  0  0  0  0
  181.9540  173.9640  135.2750 C   0  0  0  0  0  2  0  0  0  0  0  0
  182.0320  172.5510  135.8290 C   0  0  0  0  0  2  0  0  0  0  0  0
  183.2190  171.8200  135.2320 C   0  0  0  0  0  2  0  0  0  0  0  0
  183.9750  171.2340  136.2510 O   0  0  0  0  0  0  0  0  0  0  0  0
  184.8870  172.2190  136.6310 C   0  0  0  0  0  2  0  0  0  0  0  0
  186.4920  170.9440  135.4070 O   0  0  0  0  0  1  0  0  0  0  0  0
  186.0550  172.2450  135.6590 C   0  0  0  0  0  2  0  0  0  0  0  0
  180.7800  179.1000  139.3410 C   0  0  0  0  0  2  0  0  0  0  0  0
  180.5190  181.3020  136.4760 C   0  0  0  0  0  2  0  0  0  0  0  0
  181.1130  181.5710  138.8050 C   0  0  0  0  0  2  0  0  0  0  0  0
  180.9900  182.3200  137.4940 C   0  0  2  0  0  3  0  0  0  0  0  0
  181.0510  179.9650  136.9520 C   0  0  0  0  0  2  0  0  0  0  0  0
  181.4280  180.1400  138.4150 C   0  0  2  0  0  3  0  0  0  0  0  0
  180.0520  183.4390  137.6030 N   0  0  0  0  0  0  0  0  0  0  0  0
  178.9420  183.3900  138.5440 C   0  0  0  0  0  1  0  0  0  0  0  0
  179.4180  185.6780  136.9370 C   0  0  0  0  0  2  0  0  0  0  0  0
  180.1550  184.5890  136.7510 C   0  0  0  0  0  3  0  0  0  0  0  0
  190.3450  176.7230  145.4360 C   0  0  1  0  0  3  0  0  0  0  0  0
  191.5520  176.9880  146.3250 C   0  0  0  0  0  2  0  0  0  0  0  0
  192.1960  175.7110  146.7440 C   0  0  0  0  0  0  0  0  0  0  0  0
  192.4810  174.8380  145.8780 O   0  0  0  0  0  0  0  0  0  0  0  0
  192.4820  175.4930  148.1310 N   0  0  0  0  0  0  0  0  0  0  0  0
  193.1090  176.3660  148.8510 C   0  0  0  0  0  2  0  0  0  0  0  0
  189.1280  176.8850  146.2150 N   0  0  0  0  0  2  0  0  0  0  0  0
  189.1540  177.5690  147.4360 C   0  0  0  0  0  0  0  0  0  0  0  0
  189.1710  178.1380  148.4450 N   0  0  0  0  0  0  0  0  0  0  0  0
  1  5  1  6  0  0  0
  1  4  1  0  0  0  0
  2 28  1  1  0  0  0
  2  1  1  0  0  0  0
  6 10  1  6  0  0  0
  6  2  1  0  0  0  0
  6  8  1  0  0  0  0
  7  4  1  0  0  0  0
  7 62  1  1  0  0  0
  8  3  1  1  0  0  0
  8  7  1  0  0  0  0
  9 10  1  0  0  0  0
 11 22  1  6  0  0  0
 11  9  1  0  0  0  0
 12 13  1  0  0  0  0
 14 18  1  0  0  0  0
 14 15  1  1  0  0  0
 14 17  1  0  0  0  0
 17 21  1  6  0  0  0
 17 19  1  0  0  0  0
 18 12  1  0  0  0  0
 19 16  1  1  0  0  0
 19 13  1  0  0  0  0
 19 11  1  0  0  0  0
 20 18  2  0  0  0  0
 21 14  1  0  0  0  0
 22 23  1  0  0  0  0
 23 24  1  0  0  0  0
 24 26  1  0  0  0  0
 26 25  1  0  0  0  0
 28 27  1  6  0  0  0
 29 31  1  0  0  0  0
 29 32  1  0  0  0  0
 30 29  1  0  0  0  0
 31 35  1  1  0  0  0
 31 32  1  0  0  0  0
 32 34  1  1  0  0  0
 32 28  1  0  0  0  0
 33 29  1  0  0  0  0
 36 35  1  0  0  0  0
 37 36  1  0  0  0  0
 38 37  2  0  0  0  0
 39 42  2  0  0  0  0
 39 43  1  0  0  0  0
 40 41  2  0  0  0  0
 41 38  1  0  0  0  0
 42 40  1  0  0  0  0
 43 44  2  0  0  0  0
 44 41  1  0  0  0  0
 45 46  1  0  0  0  0
 45 39  1  0  0  0  0
 47 46  1  0  0  0  0
 47 48  1  0  0  0  0
 48 49  1  0  0  0  0
 50 51  1  0  0  0  0
 51 49  1  0  0  0  0
 52 38  1  0  0  0  0
 53 56  1  0  0  0  0
 53 55  1  0  0  0  0
 55 58  1  1  0  0  0
 55 54  1  0  0  0  0
 56 57  1  0  0  0  0
 57 54  1  0  0  0  0
 57 52  1  1  0  0  0
 58 59  1  0  0  0  0
 61 60  2  0  0  0  0
 61 58  1  0  0  0  0
 62 68  1  0  0  0  0
 62 63  1  1  0  0  0
 63 64  1  0  0  0  0
 64 66  1  0  0  0  0
 65 64  2  0  0  0  0
 66 67  2  0  0  0  0
 68 69  1  0  0  0  0
 69 70  3  0  0  0  0
M  END
>  <MODEL>
3

>  <REMARK>
 VINA RESULT:      -2.9      1.500      2.378
  Name = 
  29 active torsions:
  status: ('A' for Active; 'I' for Inactive)
    1  A    between atoms: C_1  and  C_19
    2  A    between atoms: C_1  and  O_23
    3  A    between atoms: C_2  and  C_42
    4  A    between atoms: C_2  and  O_46
    5  A    between atoms: C_3  and  C_7
    6  A    between atoms: C_3  and  C_19
    7  A    between atoms: C_4  and  N_8
    8  A    between atoms: N_8  and  C_44
    9  A    between atoms: C_13  and  C_24
   10  A    between atoms: C_13  and  C_61
   11  A    between atoms: C_21  and  C_32
   12  A    between atoms: O_23  and  C_65
   13  A    between atoms: C_24  and  O_30
   14  A    between atoms: N_25  and  C_41
   15  A    between atoms: C_26  and  C_52
   16  A    between atoms: N_27  and  C_29
   17  A    between atoms: N_27  and  C_70
   18  A    between atoms: O_30  and  C_60
   19  A    between atoms: C_32  and  C_37
   20  A    between atoms: C_33  and  O_46
   21  A    between atoms: S_34  and  C_61
   22  A    between atoms: C_40  and  C_61
   23  A    between atoms: C_41  and  C_48
   24  A    between atoms: C_44  and  C_48
   25  A    between atoms: C_44  and  C_54
   26  A    between atoms: C_45  and  C_65
   27  A    between atoms: C_52  and  C_58
   28  A    between atoms: C_53  and  C_57
   29  A    between atoms: C_58  and  C_62
                            x       y       z     vdW  Elec       q    Type
                         _______ _______ _______ _____ _____    ______ ____

>  <TORSDO>
F 29

$$$$
=
 OpenBabel11062418113D

 70 75  0  0  1  0  0  0  0  0999 V2000
  189.3810  179.1380  143.8290 C   0  0  1  0  0  3  0  0  0  0  0  0
  188.8090  177.9270  143.0800 C   0  0  1  0  0  3  0  0  0  0  0  0
  191.8220  175.8620  144.0280 O   0  0  0  0  0  1  0  0  0  0  0  0
  189.8370  178.7890  145.1210 O   0  0  0  0  0  0  0  0  0  0  0  0
  190.3860  179.7720  143.0890 O   0  0  0  0  0  1  0  0  0  0  0  0
  189.7200  176.6850  143.1690 C   0  0  2  0  0  3  0  0  0  0  0  0
  190.9220  177.8680  145.1000 C   0  0  2  0  0  3  0  0  0  0  0  0
  191.0650  177.0190  143.8120 C   0  0  1  0  0  3  0  0  0  0  0  0
  190.0100  177.2170  140.5290 S   0  0  0  0  0  0  0  0  0  0  0  0
  189.9780  176.2000  141.7790 C   0  0  0  0  0  2  0  0  0  0  0  0
  190.3980  176.1410  139.1230 C   0  0  1  0  0  3  0  0  0  0  0  0
  187.9370  178.0570  138.2640 O   0  0  0  0  0  0  0  0  0  0  0  0
  188.1170  176.7260  138.5080 O   0  0  0  0  0  0  0  0  0  0  0  0
  188.7430  177.6280  135.9620 C   0  0  2  0  0  0  0  0  0  0  0  0
  187.7960  176.6180  135.7770 O   0  0  0  0  0  1  0  0  0  0  0  0
  189.2080  175.0410  137.3720 O   0  0  0  0  0  1  0  0  0  0  0  0
  189.8930  177.3270  136.9410 C   0  0  1  0  0  3  0  0  0  0  0  0
  188.2180  178.5860  136.9820 C   0  0  0  0  0  0  0  0  0  0  0  0
  189.3780  176.2920  137.9740 C   0  0  2  0  0  0  0  0  0  0  0  0
  187.9760  179.7910  136.7030 O   0  0  0  0  0  0  0  0  0  0  0  0
  190.0220  177.0800  135.6130 O   0  0  0  0  0  0  0  0  0  0  0  0
  191.8410  176.4100  138.6900 C   0  0  0  0  0  2  0  0  0  0  0  0
  192.4450  175.2250  137.9540 C   0  0  0  0  0  2  0  0  0  0  0  0
  192.9890  175.6620  136.7450 O   0  0  0  0  0  0  0  0  0  0  0  0
  191.8240  174.2170  135.4220 O   0  0  0  0  0  1  0  0  0  0  0  0
  193.0800  174.5150  135.9570 C   0  0  0  0  0  2  0  0  0  0  0  0
  186.9960  176.3260  143.3270 O   0  0  0  0  0  1  0  0  0  0  0  0
  187.3700  177.6560  143.5480 C   0  0  2  0  0  3  0  0  0  0  0  0
  186.2560  178.6140  141.4410 C   0  0  0  0  0  0  0  0  0  0  0  0
  187.0710  177.7220  140.7430 O   0  0  0  0  0  1  0  0  0  0  0  0
  185.1400  177.9560  142.2430 C   0  0  1  0  0  3  0  0  0  0  0  0
  186.3330  178.6130  142.9570 C   0  0  1  0  0  0  0  0  0  0  0  0
  185.9290  179.8080  140.7930 O   0  0  0  0  0  1  0  0  0  0  0  0
  186.1300  179.9800  143.6070 C   0  0  0  0  0  1  0  0  0  0  0  0
  184.0070  178.7770  142.2960 O   0  0  0  0  0  0  0  0  0  0  0  0
  182.9380  177.9500  141.9420 C   0  0  0  0  0  2  0  0  0  0  0  0
  183.1330  177.4170  140.5550 C   0  0  0  0  0  3  0  0  0  0  0  0
  182.1630  176.8670  139.8110 C   0  0  0  0  0  0  0  0  0  0  0  0
  183.1110  175.2560  135.9500 C   0  0  0  0  0  0  0  0  0  0  0  0
  181.9360  175.0950  138.0620 C   0  0  0  0  0  3  0  0  0  0  0  0
  182.4990  176.3100  138.4820 C   0  0  0  0  0  0  0  0  0  0  0  0
  182.2390  174.5690  136.8040 C   0  0  0  0  0  3  0  0  0  0  0  0
  183.6860  176.4600  136.3650 C   0  0  0  0  0  3  0  0  0  0  0  0
  183.3850  176.9820  137.6260 C   0  0  0  0  0  3  0  0  0  0  0  0
  183.4180  174.7230  134.5930 C   0  0  0  0  0  2  0  0  0  0  0  0
  183.6840  173.2290  134.6680 C   0  0  0  0  0  2  0  0  0  0  0  0
  185.1760  172.9600  134.5980 C   0  0  0  0  0  2  0  0  0  0  0  0
  185.4290  171.6180  134.8950 O   0  0  0  0  0  0  0  0  0  0  0  0
  186.8030  171.5560  135.1300 C   0  0  0  0  0  2  0  0  0  0  0  0
  188.8120  172.8310  134.9310 O   0  0  0  0  0  1  0  0  0  0  0  0
  187.4210  172.9330  134.9470 C   0  0  0  0  0  2  0  0  0  0  0  0
  180.7600  176.7400  140.3530 C   0  0  0  0  0  2  0  0  0  0  0  0
  180.0310  180.2760  140.0530 C   0  0  0  0  0  2  0  0  0  0  0  0
  180.1340  178.4050  138.5250 C   0  0  0  0  0  2  0  0  0  0  0  0
  179.8200  179.8840  138.6050 C   0  0  2  0  0  3  0  0  0  0  0  0
  179.7450  179.0280  140.8650 C   0  0  0  0  0  2  0  0  0  0  0  0
  179.8070  177.8540  139.8990 C   0  0  2  0  0  3  0  0  0  0  0  0
  180.6790  180.6640  137.7110 N   0  0  0  0  0  0  0  0  0  0  0  0
  180.9530  180.2040  136.3570 C   0  0  0  0  0  1  0  0  0  0  0  0
  181.0800  183.0480  137.5960 C   0  0  0  0  0  2  0  0  0  0  0  0
  181.3240  181.8670  138.1520 C   0  0  0  0  0  3  0  0  0  0  0  0
  190.9190  177.0210  146.3800 C   0  0  1  0  0  3  0  0  0  0  0  0
  189.5690  176.3460  146.5780 C   0  0  0  0  0  2  0  0  0  0  0  0
  188.6590  177.2030  147.3900 C   0  0  0  0  0  0  0  0  0  0  0  0
  189.0950  177.7770  148.4260 O   0  0  0  0  0  0  0  0  0  0  0  0
  187.2960  177.3620  146.9790 N   0  0  0  0  0  0  0  0  0  0  0  0
  186.6110  178.4230  147.2570 C   0  0  0  0  0  2  0  0  0  0  0  0
  191.9600  176.0080  146.3210 N   0  0  0  0  0  2  0  0  0  0  0  0
  192.7090  175.6940  147.4620 C   0  0  0  0  0  0  0  0  0  0  0  0
  193.3260  175.4370  148.4090 N   0  0  0  0  0  0  0  0  0  0  0  0
  1  5  1  6  0  0  0
  1  4  1  0  0  0  0
  2  6  1  0  0  0  0
  2 28  1  1  0  0  0
  2  1  1  0  0  0  0
  6 10  1  6  0  0  0
  6  8  1  0  0  0  0
  7  4  1  0  0  0  0
  7 62  1  1  0  0  0
  8  3  1  1  0  0  0
  8  7  1  0  0  0  0
  9 10  1  0  0  0  0
 11 22  1  6  0  0  0
 11  9  1  0  0  0  0
 12 13  1  0  0  0  0
 14 15  1  1  0  0  0
 14 17  1  0  0  0  0
 14 18  1  0  0  0  0
 17 21  1  6  0  0  0
 17 19  1  0  0  0  0
 18 12  1  0  0  0  0
 19 16  1  6  0  0  0
 19 13  1  0  0  0  0
 19 11  1  0  0  0  0
 20 18  2  0  0  0  0
 21 14  1  0  0  0  0
 23 22  1  0  0  0  0
 24 23  1  0  0  0  0
 25 26  1  0  0  0  0
 26 24  1  0  0  0  0
 28 27  1  6  0  0  0
 29 31  1  0  0  0  0
 29 32  1  0  0  0  0
 30 29  1  0  0  0  0
 31 35  1  1  0  0  0
 31 32  1  0  0  0  0
 32 28  1  0  0  0  0
 32 34  1  1  0  0  0
 33 29  1  0  0  0  0
 36 35  1  0  0  0  0
 37 36  1  0  0  0  0
 38 52  1  0  0  0  0
 38 37  2  0  0  0  0
 39 43  2  0  0  0  0
 39 42  1  0  0  0  0
 40 41  1  0  0  0  0
 41 38  1  0  0  0  0
 42 40  2  0  0  0  0
 43 44  1  0  0  0  0
 44 41  2  0  0  0  0
 45 46  1  0  0  0  0
 45 39  1  0  0  0  0
 47 46  1  0  0  0  0
 47 48  1  0  0  0  0
 48 49  1  0  0  0  0
 50 51  1  0  0  0  0
 51 49  1  0  0  0  0
 53 56  1  0  0  0  0
 54 55  1  0  0  0  0
 54 57  1  0  0  0  0
 55 58  1  6  0  0  0
 55 53  1  0  0  0  0
 57 52  1  1  0  0  0
 57 56  1  0  0  0  0
 58 61  1  0  0  0  0
 59 58  1  0  0  0  0
 60 61  2  0  0  0  0
 62 63  1  6  0  0  0
 63 64  1  0  0  0  0
 64 65  2  0  0  0  0
 66 67  2  0  0  0  0
 66 64  1  0  0  0  0
 68 62  1  0  0  0  0
 68 69  1  0  0  0  0
 69 70  3  0  0  0  0
M  END
>  <MODEL>
4

>  <REMARK>
 VINA RESULT:      -2.7      1.349      2.317
  Name = 
  29 active torsions:
  status: ('A' for Active; 'I' for Inactive)
    1  A    between atoms: C_1  and  C_19
    2  A    between atoms: C_1  and  O_23
    3  A    between atoms: C_2  and  C_42
    4  A    between atoms: C_2  and  O_46
    5  A    between atoms: C_3  and  C_7
    6  A    between atoms: C_3  and  C_19
    7  A    between atoms: C_4  and  N_8
    8  A    between atoms: N_8  and  C_44
    9  A    between atoms: C_13  and  C_24
   10  A    between atoms: C_13  and  C_61
   11  A    between atoms: C_21  and  C_32
   12  A    between atoms: O_23  and  C_65
   13  A    between atoms: C_24  and  O_30
   14  A    between atoms: N_25  and  C_41
   15  A    between atoms: C_26  and  C_52
   16  A    between atoms: N_27  and  C_29
   17  A    between atoms: N_27  and  C_70
   18  A    between atoms: O_30  and  C_60
   19  A    between atoms: C_32  and  C_37
   20  A    between atoms: C_33  and  O_46
   21  A    between atoms: S_34  and  C_61
   22  A    between atoms: C_40  and  C_61
   23  A    between atoms: C_41  and  C_48
   24  A    between atoms: C_44  and  C_48
   25  A    between atoms: C_44  and  C_54
   26  A    between atoms: C_45  and  C_65
   27  A    between atoms: C_52  and  C_58
   28  A    between atoms: C_53  and  C_57
   29  A    between atoms: C_58  and  C_62
                            x       y       z     vdW  Elec       q    Type
                         _______ _______ _______ _____ _____    ______ ____

>  <TORSDO>
F 29

$$$$
