=
 OpenBabel11062413363D

 42 47  0  0  1  0  0  0  0  0999 V2000
  188.4990  178.6000  141.0820 C   0  0  0  0  0  2  0  0  0  0  0  0
  184.5140  178.3030  138.6300 C   0  0  0  0  0  0  0  0  0  0  0  0
  183.1770  178.4960  138.2890 C   0  0  0  0  0  3  0  0  0  0  0  0
  184.8200  177.0630  136.5490 C   0  0  0  0  0  0  0  0  0  0  0  0
  185.3700  177.5710  137.7450 C   0  0  0  0  0  0  0  0  0  0  0  0
  187.2030  177.9120  139.2940 C   0  0  0  0  0  0  0  0  0  0  0  0
  183.5050  177.2740  136.2660 N   0  0  0  0  0  0  0  0  0  0  0  0
  187.0550  179.0930  141.3090 C   0  0  1  0  0  3  0  0  0  0  0  0
  186.6740  177.3700  138.0380 C   0  0  0  0  0  3  0  0  0  0  0  0
  186.3340  178.6030  140.1510 N   0  0  0  0  0  0  0  0  0  0  0  0
  184.9670  178.8130  139.7890 C   0  0  0  0  0  3  0  0  0  0  0  0
  182.6870  177.9710  137.0960 C   0  0  0  0  0  3  0  0  0  0  0  0
  188.4360  177.8700  139.7690 C   0  0  0  0  0  0  0  0  0  0  0  0
  187.2590  177.6350  143.3910 N   0  0  0  0  0  0  0  0  0  0  0  0
  185.3140  178.8510  142.9310 O   0  0  0  0  0  0  0  0  0  0  0  0
  186.4760  178.5170  142.5700 C   0  0  0  0  0  0  0  0  0  0  0  0
  191.8880  179.1240  144.1980 C   0  0  0  0  0  1  0  0  0  0  0  0
  190.9910  177.9050  144.2610 C   0  0  1  0  0  3  0  0  0  0  0  0
  189.1200  176.0570  143.1140 C   0  0  0  0  0  3  0  0  0  0  0  0
  189.5150  178.3350  144.1420 C   0  0  0  0  0  2  0  0  0  0  0  0
  191.4240  176.8830  143.2050 C   0  0  0  0  0  2  0  0  0  0  0  0
  190.4240  175.7640  143.1410 C   0  0  0  0  0  3  0  0  0  0  0  0
  188.6940  177.5010  143.1410 C   0  0  2  0  0  3  0  0  0  0  0  0
  186.6780  177.0360  144.5930 C   0  0  0  0  0  2  0  0  0  0  0  0
  187.5800  177.4420  146.8870 C   0  0  0  0  0  1  0  0  0  0  0  0
  185.3320  178.2550  146.2740 C   0  0  0  0  0  1  0  0  0  0  0  0
  186.7360  178.0070  145.7630 C   0  0  0  0  0  3  0  0  0  0  0  0
  190.0380  177.6750  137.8930 O   0  0  0  0  0  0  0  0  0  0  0  0
  189.5980  177.2270  139.1330 C   0  0  0  0  0  0  0  0  0  0  0  0
  190.2040  176.2770  139.6960 O   0  0  0  0  0  1  0  0  0  0  0  0
  185.6360  176.2610  135.5800 C   0  0  0  0  0  2  0  0  0  0  0  0
  190.5990  174.1910  136.8200 C   0  0  0  0  0  1  0  0  0  0  0  0
  189.1280  173.9970  136.7220 C   0  0  0  0  0  0  0  0  0  0  0  0
  188.5250  172.8590  137.0240 O   0  0  0  0  0  0  0  0  0  0  0  0
  186.1870  172.1900  136.9760 C   0  0  0  0  0  3  0  0  0  0  0  0
  184.9010  172.6750  136.6750 C   0  0  0  0  0  0  0  0  0  0  0  0
  185.8240  174.8650  136.0780 C   0  0  0  0  0  0  0  0  0  0  0  0
  183.7220  171.7830  136.8240 C   0  0  0  0  0  1  0  0  0  0  0  0
  184.7210  174.0040  136.2270 C   0  0  0  0  0  3  0  0  0  0  0  0
  187.0870  174.3520  136.3830 C   0  0  0  0  0  0  0  0  0  0  0  0
  187.2540  173.0700  136.8140 C   0  0  0  0  0  0  0  0  0  0  0  0
  188.2780  174.9740  136.3130 N   0  0  0  0  0  0  0  0  0  0  0  0
  1  8  1  0  0  0  0
  2 11  2  0  0  0  0
  3  2  1  0  0  0  0
  4  5  1  0  0  0  0
  5  9  2  0  0  0  0
  5  2  1  0  0  0  0
  6 13  2  0  0  0  0
  6 10  1  0  0  0  0
  7  4  2  0  0  0  0
  7 12  1  0  0  0  0
  8 16  1  1  0  0  0
  9  6  1  0  0  0  0
 10  8  1  0  0  0  0
 11 10  1  0  0  0  0
 12  3  2  0  0  0  0
 13  1  1  0  0  0  0
 14 24  1  0  0  0  0
 16 15  2  0  0  0  0
 16 14  1  0  0  0  0
 18 17  1  6  0  0  0
 19 22  2  0  0  0  0
 19 23  1  0  0  0  0
 20 18  1  0  0  0  0
 21 18  1  0  0  0  0
 22 21  1  0  0  0  0
 23 14  1  1  0  0  0
 23 20  1  0  0  0  0
 24 27  1  0  0  0  0
 27 26  1  0  0  0  0
 27 25  1  0  0  0  0
 28 29  2  0  0  0  0
 29 30  1  0  0  0  0
 29 13  1  0  0  0  0
 31 37  1  0  0  0  0
 31  4  1  0  0  0  0
 33 32  1  0  0  0  0
 33 34  1  0  0  0  0
 36 38  1  0  0  0  0
 36 35  2  0  0  0  0
 37 39  2  0  0  0  0
 37 40  1  0  0  0  0
 39 36  1  0  0  0  0
 40 41  2  0  0  0  0
 41 35  1  0  0  0  0
 41 34  1  0  0  0  0
 42 40  1  0  0  0  0
 42 33  2  0  0  0  0
M  END
>  <MODEL>
1

>  <REMARK>
 VINA RESULT:      -9.0      0.000      0.000
  Name = 
  7 active torsions:
  status: ('A' for Active; 'I' for Inactive)
    1  A    between atoms: N_1  and  C_40
    2  A    between atoms: N_1  and  C_42
    3  A    between atoms: C_12  and  C_15
    4  A    between atoms: C_12  and  C_25
    5  A    between atoms: C_19  and  C_40
    6  A    between atoms: C_21  and  C_29
    7  A    between atoms: C_24  and  C_41
                            x       y       z     vdW  Elec       q    Type
                         _______ _______ _______ _____ _____    ______ ____

>  <TORSDO>
F 7

$$$$
=
 OpenBabel11062413363D

 42 47  0  0  1  0  0  0  0  0999 V2000
  189.7630  176.6260  136.2770 C   0  0  0  0  0  2  0  0  0  0  0  0
  190.4490  176.8640  140.9090 C   0  0  0  0  0  0  0  0  0  0  0  0
  191.0950  176.7430  142.1370 C   0  0  0  0  0  3  0  0  0  0  0  0
  188.5390  177.8560  142.0590 C   0  0  0  0  0  0  0  0  0  0  0  0
  189.1380  177.4350  140.8530 C   0  0  0  0  0  0  0  0  0  0  0  0
  189.1420  177.1220  138.4490 C   0  0  0  0  0  0  0  0  0  0  0  0
  189.2090  177.7090  143.2350 N   0  0  0  0  0  0  0  0  0  0  0  0
  190.9100  176.2050  137.2190 C   0  0  1  0  0  3  0  0  0  0  0  0
  188.4840  177.5760  139.6790 C   0  0  0  0  0  3  0  0  0  0  0  0
  190.4170  176.5440  138.5400 N   0  0  0  0  0  0  0  0  0  0  0  0
  191.0820  176.4370  139.8010 C   0  0  0  0  0  3  0  0  0  0  0  0
  190.4550  177.1720  143.2980 C   0  0  0  0  0  3  0  0  0  0  0  0
  188.7170  177.1880  137.2000 C   0  0  0  0  0  0  0  0  0  0  0  0
  192.4140  174.2510  136.5670 N   0  0  0  0  0  0  0  0  0  0  0  0
  190.3300  173.9120  137.5770 O   0  0  0  0  0  0  0  0  0  0  0  0
  191.1770  174.7300  137.1220 C   0  0  0  0  0  0  0  0  0  0  0  0
  197.2400  175.2500  136.5370 C   0  0  0  0  0  1  0  0  0  0  0  0
  196.0070  175.2600  135.6570 C   0  0  1  0  0  3  0  0  0  0  0  0
  193.2940  175.9970  135.0820 C   0  0  0  0  0  3  0  0  0  0  0  0
  194.8720  174.4690  136.3400 C   0  0  0  0  0  2  0  0  0  0  0  0
  195.6290  176.7020  135.3030 C   0  0  0  0  0  2  0  0  0  0  0  0
  194.3060  176.7210  134.5940 C   0  0  0  0  0  3  0  0  0  0  0  0
  193.5110  175.1900  136.3350 C   0  0  2  0  0  3  0  0  0  0  0  0
  192.6530  172.8140  136.4290 C   0  0  0  0  0  2  0  0  0  0  0  0
  191.0930  171.6630  134.8530 C   0  0  0  0  0  1  0  0  0  0  0  0
  193.5340  171.4080  134.5940 C   0  0  0  0  0  1  0  0  0  0  0  0
  192.4290  172.3640  134.9930 C   0  0  0  0  0  3  0  0  0  0  0  0
  186.4510  176.8730  136.2540 O   0  0  0  0  0  0  0  0  0  0  0  0
  187.4280  177.7330  136.7410 C   0  0  0  0  0  0  0  0  0  0  0  0
  187.1940  178.9700  136.7850 O   0  0  0  0  0  1  0  0  0  0  0  0
  187.1570  178.4370  142.0970 C   0  0  0  0  0  2  0  0  0  0  0  0
  181.7930  179.2600  143.1020 C   0  0  0  0  0  1  0  0  0  0  0  0
  183.1470  178.9200  143.6160 C   0  0  0  0  0  0  0  0  0  0  0  0
  183.3960  178.6660  144.8910 O   0  0  0  0  0  0  0  0  0  0  0  0
  185.4460  178.0950  146.0690 C   0  0  0  0  0  3  0  0  0  0  0  0
  186.8200  177.8730  145.8600 C   0  0  0  0  0  0  0  0  0  0  0  0
  186.5640  178.3010  143.4610 C   0  0  0  0  0  0  0  0  0  0  0  0
  187.6950  177.5310  147.0110 C   0  0  0  0  0  1  0  0  0  0  0  0
  187.3750  177.9770  144.5650 C   0  0  0  0  0  3  0  0  0  0  0  0
  185.2050  178.5180  143.7020 C   0  0  0  0  0  0  0  0  0  0  0  0
  184.6750  178.4170  144.9540 C   0  0  0  0  0  0  0  0  0  0  0  0
  184.2440  178.8430  142.8190 N   0  0  0  0  0  0  0  0  0  0  0  0
  1 13  1  0  0  0  0
  1  8  1  0  0  0  0
  2  3  1  0  0  0  0
  3 12  2  0  0  0  0
  4 31  1  0  0  0  0
  4  7  2  0  0  0  0
  5  2  1  0  0  0  0
  5  4  1  0  0  0  0
  6 10  1  0  0  0  0
  6  9  1  0  0  0  0
  7 12  1  0  0  0  0
  8 16  1  1  0  0  0
  8 10  1  0  0  0  0
  9  5  2  0  0  0  0
 10 11  1  0  0  0  0
 11  2  2  0  0  0  0
 13  6  2  0  0  0  0
 14 16  1  0  0  0  0
 16 15  2  0  0  0  0
 18 20  1  0  0  0  0
 18 17  1  1  0  0  0
 19 23  1  0  0  0  0
 21 18  1  0  0  0  0
 22 19  2  0  0  0  0
 22 21  1  0  0  0  0
 23 20  1  0  0  0  0
 23 14  1  6  0  0  0
 24 14  1  0  0  0  0
 25 27  1  0  0  0  0
 26 27  1  0  0  0  0
 27 24  1  0  0  0  0
 28 29  2  0  0  0  0
 29 30  1  0  0  0  0
 29 13  1  0  0  0  0
 31 37  1  0  0  0  0
 32 33  1  0  0  0  0
 33 34  1  0  0  0  0
 34 41  1  0  0  0  0
 36 35  1  0  0  0  0
 36 38  1  0  0  0  0
 37 40  2  0  0  0  0
 37 39  1  0  0  0  0
 39 36  2  0  0  0  0
 40 41  1  0  0  0  0
 41 35  2  0  0  0  0
 42 33  2  0  0  0  0
 42 40  1  0  0  0  0
M  END
>  <MODEL>
2

>  <REMARK>
 VINA RESULT:      -8.9      3.082      9.002
  Name = 
  7 active torsions:
  status: ('A' for Active; 'I' for Inactive)
    1  A    between atoms: N_1  and  C_40
    2  A    between atoms: N_1  and  C_42
    3  A    between atoms: C_12  and  C_15
    4  A    between atoms: C_12  and  C_25
    5  A    between atoms: C_19  and  C_40
    6  A    between atoms: C_21  and  C_29
    7  A    between atoms: C_24  and  C_41
                            x       y       z     vdW  Elec       q    Type
                         _______ _______ _______ _____ _____    ______ ____

>  <TORSDO>
F 7

$$$$
=
 OpenBabel11062413363D

 42 47  0  0  1  0  0  0  0  0999 V2000
  181.1180  179.3460  141.2320 C   0  0  0  0  0  2  0  0  0  0  0  0
  185.7100  178.6590  140.5790 C   0  0  0  0  0  0  0  0  0  0  0  0
  186.9440  178.6340  139.9330 C   0  0  0  0  0  3  0  0  0  0  0  0
  186.8050  177.8590  142.6090 C   0  0  0  0  0  0  0  0  0  0  0  0
  185.6240  178.2650  141.9530 C   0  0  0  0  0  0  0  0  0  0  0  0
  183.2410  178.7110  141.8940 C   0  0  0  0  0  0  0  0  0  0  0  0
  187.9850  177.8450  141.9300 N   0  0  0  0  0  0  0  0  0  0  0  0
  182.0700  179.4980  140.0270 C   0  0  1  0  0  3  0  0  0  0  0  0
  184.4460  178.2850  142.6150 C   0  0  0  0  0  3  0  0  0  0  0  0
  183.3540  179.0670  140.5420 N   0  0  0  0  0  0  0  0  0  0  0  0
  184.6260  179.0550  139.8880 C   0  0  0  0  0  3  0  0  0  0  0  0
  188.0780  178.2210  140.6280 C   0  0  0  0  0  3  0  0  0  0  0  0
  182.0030  178.8400  142.3370 C   0  0  0  0  0  0  0  0  0  0  0  0
  180.8780  179.1680  137.7960 N   0  0  0  0  0  0  0  0  0  0  0  0
  181.9990  177.4110  138.8600 O   0  0  0  0  0  0  0  0  0  0  0  0
  181.6420  178.6220  138.8840 C   0  0  0  0  0  0  0  0  0  0  0  0
  180.8950  183.2330  135.0090 C   0  0  0  0  0  1  0  0  0  0  0  0
  180.0390  182.4480  135.9800 C   0  0  1  0  0  3  0  0  0  0  0  0
  179.5850  181.1360  138.4910 C   0  0  0  0  0  3  0  0  0  0  0  0
  180.6440  181.0450  136.1950 C   0  0  0  0  0  2  0  0  0  0  0  0
  179.8520  183.2450  137.2750 C   0  0  0  0  0  2  0  0  0  0  0  0
  179.1670  182.3910  138.3030 C   0  0  0  0  0  3  0  0  0  0  0  0
  180.7370  180.6180  137.6710 C   0  0  2  0  0  3  0  0  0  0  0  0
  180.4210  178.3030  136.7080 C   0  0  0  0  0  2  0  0  0  0  0  0
  181.8280  178.2920  134.6440 C   0  0  0  0  0  1  0  0  0  0  0  0
  181.3210  176.1790  135.8140 C   0  0  0  0  0  1  0  0  0  0  0  0
  181.6020  177.6550  136.0000 C   0  0  0  0  0  3  0  0  0  0  0  0
  180.2200  178.1250  143.8980 O   0  0  0  0  0  0  0  0  0  0  0  0
  181.5270  178.5540  143.7020 C   0  0  0  0  0  0  0  0  0  0  0  0
  182.2880  178.6900  144.6960 O   0  0  0  0  0  1  0  0  0  0  0  0
  186.8010  177.4020  144.0370 C   0  0  0  0  0  2  0  0  0  0  0  0
  188.2130  178.1820  149.3140 C   0  0  0  0  0  1  0  0  0  0  0  0
  188.6160  177.8200  147.9300 C   0  0  0  0  0  0  0  0  0  0  0  0
  189.8580  177.5130  147.5920 O   0  0  0  0  0  0  0  0  0  0  0  0
  190.8650  176.8920  145.4670 C   0  0  0  0  0  3  0  0  0  0  0  0
  190.5510  176.6800  144.1120 C   0  0  0  0  0  0  0  0  0  0  0  0
  188.1960  177.2090  144.5340 C   0  0  0  0  0  0  0  0  0  0  0  0
  191.6230  176.2890  143.1590 C   0  0  0  0  0  1  0  0  0  0  0  0
  189.2260  176.8390  143.6480 C   0  0  0  0  0  3  0  0  0  0  0  0
  188.5410  177.4150  145.8710 C   0  0  0  0  0  0  0  0  0  0  0  0
  189.8210  177.2610  146.3130 C   0  0  0  0  0  0  0  0  0  0  0  0
  187.7420  177.7770  146.8910 N   0  0  0  0  0  0  0  0  0  0  0  0
  1 13  1  0  0  0  0
  2  5  1  0  0  0  0
  3  2  1  0  0  0  0
  3 12  2  0  0  0  0
  4 31  1  0  0  0  0
  5  4  1  0  0  0  0
  5  9  2  0  0  0  0
  6 13  2  0  0  0  0
  6  9  1  0  0  0  0
  7  4  2  0  0  0  0
  8 16  1  6  0  0  0
  8 10  1  0  0  0  0
  8  1  1  0  0  0  0
 10  6  1  0  0  0  0
 11 10  1  0  0  0  0
 11  2  2  0  0  0  0
 12  7  1  0  0  0  0
 13 29  1  0  0  0  0
 14 16  1  0  0  0  0
 15 16  2  0  0  0  0
 18 17  1  6  0  0  0
 18 20  1  0  0  0  0
 18 21  1  0  0  0  0
 20 23  1  0  0  0  0
 21 22  1  0  0  0  0
 22 19  2  0  0  0  0
 23 14  1  6  0  0  0
 23 19  1  0  0  0  0
 24 14  1  0  0  0  0
 25 27  1  0  0  0  0
 26 27  1  0  0  0  0
 27 24  1  0  0  0  0
 29 28  2  0  0  0  0
 29 30  1  0  0  0  0
 31 37  1  0  0  0  0
 33 32  1  0  0  0  0
 34 33  1  0  0  0  0
 35 41  1  0  0  0  0
 36 35  2  0  0  0  0
 37 40  1  0  0  0  0
 38 36  1  0  0  0  0
 39 36  1  0  0  0  0
 39 37  2  0  0  0  0
 40 41  2  0  0  0  0
 40 42  1  0  0  0  0
 41 34  1  0  0  0  0
 42 33  2  0  0  0  0
M  END
>  <MODEL>
3

>  <REMARK>
 VINA RESULT:      -8.4      3.888      9.705
  Name = 
  7 active torsions:
  status: ('A' for Active; 'I' for Inactive)
    1  A    between atoms: N_1  and  C_40
    2  A    between atoms: N_1  and  C_42
    3  A    between atoms: C_12  and  C_15
    4  A    between atoms: C_12  and  C_25
    5  A    between atoms: C_19  and  C_40
    6  A    between atoms: C_21  and  C_29
    7  A    between atoms: C_24  and  C_41
                            x       y       z     vdW  Elec       q    Type
                         _______ _______ _______ _____ _____    ______ ____

>  <TORSDO>
F 7

$$$$
=
 OpenBabel11062413363D

 42 47  0  0  1  0  0  0  0  0999 V2000
  185.1650  178.3890  138.2550 C   0  0  0  0  0  2  0  0  0  0  0  0
  184.9090  178.4090  142.9360 C   0  0  0  0  0  0  0  0  0  0  0  0
  184.3450  178.4560  144.2100 C   0  0  0  0  0  3  0  0  0  0  0  0
  187.1040  178.1260  143.9660 C   0  0  0  0  0  0  0  0  0  0  0  0
  186.3240  178.2380  142.7960 C   0  0  0  0  0  0  0  0  0  0  0  0
  186.0560  178.3040  140.3880 C   0  0  0  0  0  0  0  0  0  0  0  0
  186.5050  178.1860  145.1880 N   0  0  0  0  0  0  0  0  0  0  0  0
  184.0140  178.5490  139.2700 C   0  0  1  0  0  3  0  0  0  0  0  0
  186.9050  178.1790  141.5780 C   0  0  0  0  0  3  0  0  0  0  0  0
  184.6780  178.4950  140.5590 N   0  0  0  0  0  0  0  0  0  0  0  0
  184.1020  178.5260  141.8670 C   0  0  0  0  0  3  0  0  0  0  0  0
  185.1640  178.3430  145.3310 C   0  0  0  0  0  3  0  0  0  0  0  0
  186.3930  178.2440  139.1110 C   0  0  0  0  0  0  0  0  0  0  0  0
  181.9180  179.9960  139.4050 N   0  0  0  0  0  0  0  0  0  0  0  0
  183.9750  180.8760  138.7200 O   0  0  0  0  0  0  0  0  0  0  0  0
  183.3160  179.8680  139.0950 C   0  0  0  0  0  0  0  0  0  0  0  0
  179.4840  178.4110  143.3870 C   0  0  0  0  0  1  0  0  0  0  0  0
  179.3760  178.5230  141.8800 C   0  0  1  0  0  3  0  0  0  0  0  0
  180.3610  178.1080  139.2170 C   0  0  0  0  0  3  0  0  0  0  0  0
  180.4710  179.4700  141.3470 C   0  0  0  0  0  2  0  0  0  0  0  0
  179.4040  177.1280  141.2480 C   0  0  0  0  0  2  0  0  0  0  0  0
  179.4880  177.2490  139.7540 C   0  0  0  0  0  3  0  0  0  0  0  0
  181.2390  178.9230  140.1300 C   0  0  2  0  0  3  0  0  0  0  0  0
  181.2280  181.2680  139.1880 C   0  0  0  0  0  2  0  0  0  0  0  0
  180.9960  182.6450  137.1170 C   0  0  0  0  0  1  0  0  0  0  0  0
  179.1340  181.2130  137.8730 C   0  0  0  0  0  1  0  0  0  0  0  0
  180.6410  181.3330  137.7870 C   0  0  0  0  0  3  0  0  0  0  0  0
  188.7340  178.9980  138.8330 O   0  0  0  0  0  1  0  0  0  0  0  0
  187.7490  178.0530  138.5700 C   0  0  0  0  0  0  0  0  0  0  0  0
  188.0340  177.0430  137.8740 O   0  0  0  0  0  0  0  0  0  0  0  0
  188.5950  177.9750  143.9120 C   0  0  0  0  0  2  0  0  0  0  0  0
  192.8020  174.4940  144.7090 C   0  0  0  0  0  1  0  0  0  0  0  0
  191.7900  175.4190  145.2840 C   0  0  0  0  0  0  0  0  0  0  0  0
  191.6720  175.6490  146.5810 O   0  0  0  0  0  0  0  0  0  0  0  0
  190.1570  177.0620  147.8550 C   0  0  0  0  0  3  0  0  0  0  0  0
  189.0830  177.9590  147.7010 C   0  0  0  0  0  0  0  0  0  0  0  0
  189.1450  177.6740  145.2680 C   0  0  0  0  0  0  0  0  0  0  0  0
  188.4700  178.5900  148.8980 C   0  0  0  0  0  1  0  0  0  0  0  0
  188.5800  178.2620  146.4150 C   0  0  0  0  0  3  0  0  0  0  0  0
  190.2070  176.7870  145.4560 C   0  0  0  0  0  0  0  0  0  0  0  0
  190.6880  176.4990  146.6980 C   0  0  0  0  0  0  0  0  0  0  0  0
  190.8970  176.1040  144.5240 N   0  0  0  0  0  0  0  0  0  0  0  0
  1 13  1  0  0  0  0
  1  8  1  0  0  0  0
  2  3  1  0  0  0  0
  3 12  2  0  0  0  0
  4  7  2  0  0  0  0
  5  2  1  0  0  0  0
  5  4  1  0  0  0  0
  6 10  1  0  0  0  0
  6  9  1  0  0  0  0
  7 12  1  0  0  0  0
  8 16  1  6  0  0  0
  8 10  1  0  0  0  0
  9  5  2  0  0  0  0
 10 11  1  0  0  0  0
 11  2  2  0  0  0  0
 13  6  2  0  0  0  0
 15 16  2  0  0  0  0
 16 14  1  0  0  0  0
 18 17  1  1  0  0  0
 19 22  2  0  0  0  0
 19 23  1  0  0  0  0
 20 18  1  0  0  0  0
 21 18  1  0  0  0  0
 22 21  1  0  0  0  0
 23 14  1  6  0  0  0
 23 20  1  0  0  0  0
 24 14  1  0  0  0  0
 25 27  1  0  0  0  0
 27 26  1  0  0  0  0
 27 24  1  0  0  0  0
 29 28  1  0  0  0  0
 29 13  1  0  0  0  0
 30 29  2  0  0  0  0
 31  4  1  0  0  0  0
 31 37  1  0  0  0  0
 32 33  1  0  0  0  0
 33 34  1  0  0  0  0
 34 41  1  0  0  0  0
 36 35  1  0  0  0  0
 36 38  1  0  0  0  0
 37 40  2  0  0  0  0
 37 39  1  0  0  0  0
 39 36  2  0  0  0  0
 40 41  1  0  0  0  0
 41 35  2  0  0  0  0
 42 33  2  0  0  0  0
 42 40  1  0  0  0  0
M  END
>  <MODEL>
4

>  <REMARK>
 VINA RESULT:      -8.3      3.326      8.730
  Name = 
  7 active torsions:
  status: ('A' for Active; 'I' for Inactive)
    1  A    between atoms: N_1  and  C_40
    2  A    between atoms: N_1  and  C_42
    3  A    between atoms: C_12  and  C_15
    4  A    between atoms: C_12  and  C_25
    5  A    between atoms: C_19  and  C_40
    6  A    between atoms: C_21  and  C_29
    7  A    between atoms: C_24  and  C_41
                            x       y       z     vdW  Elec       q    Type
                         _______ _______ _______ _____ _____    ______ ____

>  <TORSDO>
F 7

$$$$
=
 OpenBabel11062413363D

 42 47  0  0  1  0  0  0  0  0999 V2000
  188.3790  178.4290  140.8910 C   0  0  0  0  0  2  0  0  0  0  0  0
  184.2730  178.4310  138.6290 C   0  0  0  0  0  0  0  0  0  0  0  0
  182.9340  178.7110  138.3590 C   0  0  0  0  0  3  0  0  0  0  0  0
  184.4070  177.2390  136.5020 C   0  0  0  0  0  0  0  0  0  0  0  0
  185.0410  177.6790  137.6840 C   0  0  0  0  0  0  0  0  0  0  0  0
  186.9620  177.8690  139.1500 C   0  0  0  0  0  0  0  0  0  0  0  0
  183.0950  177.5320  136.2900 N   0  0  0  0  0  0  0  0  0  0  0  0
  186.9780  178.9970  141.2010 C   0  0  1  0  0  3  0  0  0  0  0  0
  186.3440  177.3960  137.9070 C   0  0  0  0  0  3  0  0  0  0  0  0
  186.1760  178.5830  140.0670 N   0  0  0  0  0  0  0  0  0  0  0  0
  184.8080  178.8810  139.7780 C   0  0  0  0  0  3  0  0  0  0  0  0
  182.3580  178.2490  137.1770 C   0  0  0  0  0  3  0  0  0  0  0  0
  188.2120  177.7430  139.5630 C   0  0  0  0  0  0  0  0  0  0  0  0
  187.2530  177.5950  143.3140 N   0  0  0  0  0  0  0  0  0  0  0  0
  185.2480  178.6970  142.8240 O   0  0  0  0  0  0  0  0  0  0  0  0
  186.4270  178.4180  142.4720 C   0  0  0  0  0  0  0  0  0  0  0  0
  191.8050  179.2810  144.1720 C   0  0  0  0  0  1  0  0  0  0  0  0
  190.9650  178.0210  144.2080 C   0  0  1  0  0  3  0  0  0  0  0  0
  189.1860  176.1100  143.0180 C   0  0  0  0  0  3  0  0  0  0  0  0
  189.4710  178.3850  144.0890 C   0  0  0  0  0  2  0  0  0  0  0  0
  191.4490  177.0390  143.1360 C   0  0  0  0  0  2  0  0  0  0  0  0
  190.5020  175.8770  143.0470 C   0  0  0  0  0  3  0  0  0  0  0  0
  188.6940  177.5320  143.0690 C   0  0  2  0  0  3  0  0  0  0  0  0
  186.7010  176.9920  144.5270 C   0  0  0  0  0  2  0  0  0  0  0  0
  187.6200  177.3950  146.8150 C   0  0  0  0  0  1  0  0  0  0  0  0
  185.3730  178.2220  146.2140 C   0  0  0  0  0  1  0  0  0  0  0  0
  186.7720  177.9650  145.6950 C   0  0  0  0  0  3  0  0  0  0  0  0
  190.1930  176.2600  139.5660 O   0  0  0  0  0  1  0  0  0  0  0  0
  189.3040  177.0550  138.8540 C   0  0  0  0  0  0  0  0  0  0  0  0
  189.4450  177.1740  137.6080 O   0  0  0  0  0  0  0  0  0  0  0  0
  185.1290  176.4200  135.4740 C   0  0  0  0  0  2  0  0  0  0  0  0
  180.6580  173.2420  134.8660 C   0  0  0  0  0  1  0  0  0  0  0  0
  182.0760  173.3750  135.2930 C   0  0  0  0  0  0  0  0  0  0  0  0
  182.7770  172.3750  135.8030 O   0  0  0  0  0  0  0  0  0  0  0  0
  185.0700  172.2320  136.6020 C   0  0  0  0  0  3  0  0  0  0  0  0
  186.2350  173.0020  136.7730 C   0  0  0  0  0  0  0  0  0  0  0  0
  185.1130  174.9730  135.8450 C   0  0  0  0  0  0  0  0  0  0  0  0
  187.4520  172.3810  137.3570 C   0  0  0  0  0  1  0  0  0  0  0  0
  186.2560  174.3650  136.3990 C   0  0  0  0  0  3  0  0  0  0  0  0
  183.9730  174.1820  135.6910 C   0  0  0  0  0  0  0  0  0  0  0  0
  183.9590  172.8680  136.0550 C   0  0  0  0  0  0  0  0  0  0  0  0
  182.7730  174.5370  135.1980 N   0  0  0  0  0  0  0  0  0  0  0  0
  1  8  1  0  0  0  0
  2 11  2  0  0  0  0
  3  2  1  0  0  0  0
  4  5  1  0  0  0  0
  5  9  2  0  0  0  0
  5  2  1  0  0  0  0
  6 13  2  0  0  0  0
  6 10  1  0  0  0  0
  7  4  2  0  0  0  0
  7 12  1  0  0  0  0
  8 16  1  1  0  0  0
  9  6  1  0  0  0  0
 10  8  1  0  0  0  0
 11 10  1  0  0  0  0
 12  3  2  0  0  0  0
 13  1  1  0  0  0  0
 14 24  1  0  0  0  0
 16 15  2  0  0  0  0
 16 14  1  0  0  0  0
 18 17  1  6  0  0  0
 19 22  2  0  0  0  0
 19 23  1  0  0  0  0
 20 18  1  0  0  0  0
 21 18  1  0  0  0  0
 22 21  1  0  0  0  0
 23 14  1  1  0  0  0
 23 20  1  0  0  0  0
 24 27  1  0  0  0  0
 27 26  1  0  0  0  0
 27 25  1  0  0  0  0
 29 13  1  0  0  0  0
 29 28  1  0  0  0  0
 30 29  2  0  0  0  0
 31 37  1  0  0  0  0
 31  4  1  0  0  0  0
 32 33  1  0  0  0  0
 33 34  1  0  0  0  0
 34 41  1  0  0  0  0
 35 36  1  0  0  0  0
 36 38  1  0  0  0  0
 37 39  1  0  0  0  0
 39 36  2  0  0  0  0
 40 37  2  0  0  0  0
 40 41  1  0  0  0  0
 41 35  2  0  0  0  0
 42 33  2  0  0  0  0
 42 40  1  0  0  0  0
M  END
>  <MODEL>
5

>  <REMARK>
 VINA RESULT:      -8.2      1.373      2.571
  Name = 
  7 active torsions:
  status: ('A' for Active; 'I' for Inactive)
    1  A    between atoms: N_1  and  C_40
    2  A    between atoms: N_1  and  C_42
    3  A    between atoms: C_12  and  C_15
    4  A    between atoms: C_12  and  C_25
    5  A    between atoms: C_19  and  C_40
    6  A    between atoms: C_21  and  C_29
    7  A    between atoms: C_24  and  C_41
                            x       y       z     vdW  Elec       q    Type
                         _______ _______ _______ _____ _____    ______ ____

>  <TORSDO>
F 7

$$$$
=
 OpenBabel11062413363D

 42 47  0  0  1  0  0  0  0  0999 V2000
  184.1240  177.3030  136.8100 C   0  0  0  0  0  2  0  0  0  0  0  0
  184.0350  178.2060  141.4100 C   0  0  0  0  0  0  0  0  0  0  0  0
  183.5410  178.2990  142.7090 C   0  0  0  0  0  3  0  0  0  0  0  0
  186.1950  179.0060  142.2190 C   0  0  0  0  0  0  0  0  0  0  0  0
  185.3960  178.5630  141.1440 C   0  0  0  0  0  0  0  0  0  0  0  0
  185.0460  178.0150  138.8090 C   0  0  0  0  0  0  0  0  0  0  0  0
  185.6620  179.0870  143.4700 N   0  0  0  0  0  0  0  0  0  0  0  0
  183.0380  177.2210  137.9030 C   0  0  1  0  0  3  0  0  0  0  0  0
  185.9130  178.4770  139.8980 C   0  0  0  0  0  3  0  0  0  0  0  0
  183.7110  177.6960  139.0970 N   0  0  0  0  0  0  0  0  0  0  0  0
  183.2130  177.7790  140.4350 C   0  0  0  0  0  3  0  0  0  0  0  0
  184.3740  178.7460  143.7330 C   0  0  0  0  0  3  0  0  0  0  0  0
  185.3360  177.8210  137.5340 C   0  0  0  0  0  0  0  0  0  0  0  0
  180.5560  177.5410  137.4130 N   0  0  0  0  0  0  0  0  0  0  0  0
  182.0360  179.3520  137.4850 O   0  0  0  0  0  0  0  0  0  0  0  0
  181.8690  178.1040  137.5740 C   0  0  0  0  0  0  0  0  0  0  0  0
  179.3140  174.2740  140.8890 C   0  0  0  0  0  1  0  0  0  0  0  0
  178.9330  174.7580  139.5050 C   0  0  1  0  0  3  0  0  0  0  0  0
  179.5360  175.4010  136.7750 C   0  0  0  0  0  3  0  0  0  0  0  0
  179.6390  176.0960  139.2060 C   0  0  0  0  0  2  0  0  0  0  0  0
  179.2190  173.6640  138.4710 C   0  0  0  0  0  2  0  0  0  0  0  0
  179.0190  174.2080  137.0870 C   0  0  0  0  0  3  0  0  0  0  0  0
  180.3100  176.1580  137.8220 C   0  0  2  0  0  3  0  0  0  0  0  0
  179.4270  178.3960  137.0450 C   0  0  0  0  0  2  0  0  0  0  0  0
  179.1000  180.4310  135.6350 C   0  0  0  0  0  1  0  0  0  0  0  0
  178.9310  178.1840  134.6310 C   0  0  0  0  0  1  0  0  0  0  0  0
  179.6440  179.0180  135.6740 C   0  0  0  0  0  3  0  0  0  0  0  0
  187.1730  179.3370  136.8580 O   0  0  0  0  0  1  0  0  0  0  0  0
  186.6390  178.0540  136.8870 C   0  0  0  0  0  0  0  0  0  0  0  0
  187.2800  177.1070  136.3600 O   0  0  0  0  0  0  0  0  0  0  0  0
  187.6210  179.4280  142.0250 C   0  0  0  0  0  2  0  0  0  0  0  0
  190.4810  176.3570  138.4420 C   0  0  0  0  0  1  0  0  0  0  0  0
  190.1340  176.6740  139.8520 C   0  0  0  0  0  0  0  0  0  0  0  0
  190.6360  176.0200  140.8880 O   0  0  0  0  0  0  0  0  0  0  0  0
  190.2950  176.2530  143.2840 C   0  0  0  0  0  3  0  0  0  0  0  0
  189.5880  177.0120  144.2350 C   0  0  0  0  0  0  0  0  0  0  0  0
  188.5550  178.3470  142.4590 C   0  0  0  0  0  0  0  0  0  0  0  0
  189.7480  176.7160  145.6830 C   0  0  0  0  0  1  0  0  0  0  0  0
  188.7230  178.0510  143.8250 C   0  0  0  0  0  3  0  0  0  0  0  0
  189.2690  177.5740  141.5410 C   0  0  0  0  0  0  0  0  0  0  0  0
  190.1020  176.5720  141.9430 C   0  0  0  0  0  0  0  0  0  0  0  0
  189.2680  177.6620  140.1980 N   0  0  0  0  0  0  0  0  0  0  0  0
  1 13  1  0  0  0  0
  1  8  1  0  0  0  0
  2  3  1  0  0  0  0
  3 12  2  0  0  0  0
  4  7  2  0  0  0  0
  5  2  1  0  0  0  0
  5  4  1  0  0  0  0
  6 10  1  0  0  0  0
  6  9  1  0  0  0  0
  7 12  1  0  0  0  0
  8 16  1  6  0  0  0
  8 10  1  0  0  0  0
  9  5  2  0  0  0  0
 10 11  1  0  0  0  0
 11  2  2  0  0  0  0
 13  6  2  0  0  0  0
 14 16  1  0  0  0  0
 15 16  2  0  0  0  0
 18 17  1  1  0  0  0
 19 22  2  0  0  0  0
 19 23  1  0  0  0  0
 20 18  1  0  0  0  0
 21 18  1  0  0  0  0
 22 21  1  0  0  0  0
 23 14  1  6  0  0  0
 23 20  1  0  0  0  0
 24 14  1  0  0  0  0
 25 27  1  0  0  0  0
 26 27  1  0  0  0  0
 27 24  1  0  0  0  0
 28 29  1  0  0  0  0
 29 13  1  0  0  0  0
 30 29  2  0  0  0  0
 31  4  1  0  0  0  0
 31 37  1  0  0  0  0
 32 33  1  0  0  0  0
 33 42  2  0  0  0  0
 33 34  1  0  0  0  0
 34 41  1  0  0  0  0
 35 36  1  0  0  0  0
 36 38  1  0  0  0  0
 37 39  1  0  0  0  0
 39 36  2  0  0  0  0
 40 41  1  0  0  0  0
 40 37  2  0  0  0  0
 41 35  2  0  0  0  0
 42 40  1  0  0  0  0
M  END
>  <MODEL>
6

>  <REMARK>
 VINA RESULT:      -7.8      2.998      8.339
  Name = 
  7 active torsions:
  status: ('A' for Active; 'I' for Inactive)
    1  A    between atoms: N_1  and  C_40
    2  A    between atoms: N_1  and  C_42
    3  A    between atoms: C_12  and  C_15
    4  A    between atoms: C_12  and  C_25
    5  A    between atoms: C_19  and  C_40
    6  A    between atoms: C_21  and  C_29
    7  A    between atoms: C_24  and  C_41
                            x       y       z     vdW  Elec       q    Type
                         _______ _______ _______ _____ _____    ______ ____

>  <TORSDO>
F 7

$$$$
=
 OpenBabel11062413363D

 42 47  0  0  1  0  0  0  0  0999 V2000
  185.8160  177.7410  137.5430 C   0  0  0  0  0  2  0  0  0  0  0  0
  189.8420  177.1790  139.8800 C   0  0  0  0  0  0  0  0  0  0  0  0
  191.1590  176.8030  140.1320 C   0  0  0  0  0  3  0  0  0  0  0  0
  189.7400  178.1620  142.1120 C   0  0  0  0  0  0  0  0  0  0  0  0
  189.1010  177.8780  140.8860 C   0  0  0  0  0  0  0  0  0  0  0  0
  187.1980  177.9480  139.3860 C   0  0  0  0  0  0  0  0  0  0  0  0
  191.0270  177.7660  142.3120 N   0  0  0  0  0  0  0  0  0  0  0  0
  187.1650  177.0660  137.2190 C   0  0  1  0  0  3  0  0  0  0  0  0
  187.8250  178.2670  140.6740 C   0  0  0  0  0  3  0  0  0  0  0  0
  187.9410  177.2400  138.4310 N   0  0  0  0  0  0  0  0  0  0  0  0
  189.2980  176.8710  138.6880 C   0  0  0  0  0  3  0  0  0  0  0  0
  191.7390  177.1060  141.3620 C   0  0  0  0  0  3  0  0  0  0  0  0
  185.9890  178.2520  138.9470 C   0  0  0  0  0  0  0  0  0  0  0  0
  185.6730  175.0120  136.9680 N   0  0  0  0  0  0  0  0  0  0  0  0
  187.9780  174.9100  136.5750 O   0  0  0  0  0  0  0  0  0  0  0  0
  186.9820  175.6050  136.9190 C   0  0  0  0  0  0  0  0  0  0  0  0
  182.3110  177.8780  134.7830 C   0  0  0  0  0  1  0  0  0  0  0  0
  182.4540  176.6600  135.6730 C   0  0  1  0  0  3  0  0  0  0  0  0
  183.4620  175.3050  137.9920 C   0  0  0  0  0  3  0  0  0  0  0  0
  183.9180  176.1730  135.6600 C   0  0  0  0  0  2  0  0  0  0  0  0
  181.9190  176.9710  137.0750 C   0  0  0  0  0  2  0  0  0  0  0  0
  182.2340  175.8330  138.0030 C   0  0  0  0  0  3  0  0  0  0  0  0
  184.4950  175.8730  137.0550 C   0  0  2  0  0  3  0  0  0  0  0  0
  185.5030  173.5800  136.7230 C   0  0  0  0  0  2  0  0  0  0  0  0
  183.9610  172.6920  134.9700 C   0  0  0  0  0  1  0  0  0  0  0  0
  186.3960  172.3410  134.7760 C   0  0  0  0  0  1  0  0  0  0  0  0
  185.3220  173.3030  135.2380 C   0  0  0  0  0  3  0  0  0  0  0  0
  184.5480  178.5400  140.9380 O   0  0  0  0  0  1  0  0  0  0  0  0
  184.9480  178.9870  139.6850 C   0  0  0  0  0  0  0  0  0  0  0  0
  184.4140  180.0190  139.1980 O   0  0  0  0  0  0  0  0  0  0  0  0
  189.0300  178.8630  143.2310 C   0  0  0  0  0  2  0  0  0  0  0  0
  184.9390  178.2540  146.8840 C   0  0  0  0  0  1  0  0  0  0  0  0
  186.3530  177.9980  146.5030 C   0  0  0  0  0  0  0  0  0  0  0  0
  187.2020  177.3340  147.2710 O   0  0  0  0  0  0  0  0  0  0  0  0
  189.5440  176.7450  146.9820 C   0  0  0  0  0  3  0  0  0  0  0  0
  190.6170  176.8730  146.0800 C   0  0  0  0  0  0  0  0  0  0  0  0
  189.2010  178.1180  144.5140 C   0  0  0  0  0  0  0  0  0  0  0  0
  191.9400  176.2890  146.4190 C   0  0  0  0  0  1  0  0  0  0  0  0
  190.4470  177.5570  144.8550 C   0  0  0  0  0  3  0  0  0  0  0  0
  188.1590  177.9760  145.4320 C   0  0  0  0  0  0  0  0  0  0  0  0
  188.3290  177.3160  146.6130 C   0  0  0  0  0  0  0  0  0  0  0  0
  186.8950  178.4280  145.3350 N   0  0  0  0  0  0  0  0  0  0  0  0
  1 13  1  0  0  0  0
  2  3  1  0  0  0  0
  2  5  1  0  0  0  0
  3 12  2  0  0  0  0
  4  7  2  0  0  0  0
  4 31  1  0  0  0  0
  5  4  1  0  0  0  0
  6  9  1  0  0  0  0
  8 16  1  1  0  0  0
  8  1  1  0  0  0  0
  8 10  1  0  0  0  0
  9  5  2  0  0  0  0
 10 11  1  0  0  0  0
 10  6  1  0  0  0  0
 11  2  2  0  0  0  0
 12  7  1  0  0  0  0
 13  6  2  0  0  0  0
 13 29  1  0  0  0  0
 15 16  2  0  0  0  0
 16 14  1  0  0  0  0
 18 17  1  6  0  0  0
 18 21  1  0  0  0  0
 19 22  2  0  0  0  0
 20 18  1  0  0  0  0
 20 23  1  0  0  0  0
 21 22  1  0  0  0  0
 23 14  1  6  0  0  0
 23 19  1  0  0  0  0
 24 14  1  0  0  0  0
 25 27  1  0  0  0  0
 26 27  1  0  0  0  0
 27 24  1  0  0  0  0
 29 28  1  0  0  0  0
 30 29  2  0  0  0  0
 31 37  1  0  0  0  0
 33 32  1  0  0  0  0
 33 34  1  0  0  0  0
 36 38  1  0  0  0  0
 36 35  2  0  0  0  0
 37 39  2  0  0  0  0
 37 40  1  0  0  0  0
 39 36  1  0  0  0  0
 40 41  2  0  0  0  0
 41 35  1  0  0  0  0
 41 34  1  0  0  0  0
 42 40  1  0  0  0  0
 42 33  2  0  0  0  0
M  END
>  <MODEL>
7

>  <REMARK>
 VINA RESULT:      -7.7      1.977      9.137
  Name = 
  7 active torsions:
  status: ('A' for Active; 'I' for Inactive)
    1  A    between atoms: N_1  and  C_40
    2  A    between atoms: N_1  and  C_42
    3  A    between atoms: C_12  and  C_15
    4  A    between atoms: C_12  and  C_25
    5  A    between atoms: C_19  and  C_40
    6  A    between atoms: C_21  and  C_29
    7  A    between atoms: C_24  and  C_41
                            x       y       z     vdW  Elec       q    Type
                         _______ _______ _______ _____ _____    ______ ____

>  <TORSDO>
F 7

$$$$
=
 OpenBabel11062413363D

 42 47  0  0  1  0  0  0  0  0999 V2000
  184.4010  178.4570  137.9770 C   0  0  0  0  0  2  0  0  0  0  0  0
  184.1990  178.6360  142.6580 C   0  0  0  0  0  0  0  0  0  0  0  0
  183.6530  178.7550  143.9340 C   0  0  0  0  0  3  0  0  0  0  0  0
  186.3850  178.2530  143.6760 C   0  0  0  0  0  0  0  0  0  0  0  0
  185.5990  178.3760  142.5100 C   0  0  0  0  0  0  0  0  0  0  0  0
  185.3100  178.3850  140.1030 C   0  0  0  0  0  0  0  0  0  0  0  0
  185.8040  178.3860  144.9000 N   0  0  0  0  0  0  0  0  0  0  0  0
  183.2740  178.7170  138.9980 C   0  0  1  0  0  3  0  0  0  0  0  0
  186.1630  178.2460  141.2890 C   0  0  0  0  0  3  0  0  0  0  0  0
  183.9470  178.6630  140.2810 N   0  0  0  0  0  0  0  0  0  0  0  0
  183.3890  178.7690  141.5930 C   0  0  0  0  0  3  0  0  0  0  0  0
  184.4760  178.6280  145.0510 C   0  0  0  0  0  3  0  0  0  0  0  0
  185.6280  178.2650  138.8260 C   0  0  0  0  0  0  0  0  0  0  0  0
  181.2250  180.2100  138.7210 N   0  0  0  0  0  0  0  0  0  0  0  0
  183.3930  181.0900  138.7190 O   0  0  0  0  0  0  0  0  0  0  0  0
  182.6540  180.0690  138.7880 C   0  0  0  0  0  0  0  0  0  0  0  0
  179.7520  175.5480  138.0960 C   0  0  0  0  0  1  0  0  0  0  0  0
  180.3070  176.5030  139.1330 C   0  0  1  0  0  3  0  0  0  0  0  0
  180.2730  178.9630  140.6090 C   0  0  0  0  0  3  0  0  0  0  0  0
  180.8270  177.7800  138.4420 C   0  0  0  0  0  2  0  0  0  0  0  0
  179.2560  176.7700  140.2150 C   0  0  0  0  0  2  0  0  0  0  0  0
  179.7360  177.8560  141.1330 C   0  0  0  0  0  3  0  0  0  0  0  0
  180.3710  179.0890  139.1120 C   0  0  2  0  0  3  0  0  0  0  0  0
  180.6240  181.5200  138.4690 C   0  0  0  0  0  2  0  0  0  0  0  0
  180.7870  183.3230  136.7470 C   0  0  0  0  0  1  0  0  0  0  0  0
  179.3020  181.3860  136.3810 C   0  0  0  0  0  1  0  0  0  0  0  0
  180.6180  181.8350  136.9800 C   0  0  0  0  0  3  0  0  0  0  0  0
  187.8930  179.0030  138.1550 O   0  0  0  0  0  1  0  0  0  0  0  0
  186.9650  177.9760  138.2790 C   0  0  0  0  0  0  0  0  0  0  0  0
  187.2830  176.8110  137.9230 O   0  0  0  0  0  0  0  0  0  0  0  0
  187.8630  178.0120  143.6130 C   0  0  0  0  0  2  0  0  0  0  0  0
  192.4300  175.0310  144.4540 C   0  0  0  0  0  1  0  0  0  0  0  0
  191.3040  175.8200  145.0190 C   0  0  0  0  0  0  0  0  0  0  0  0
  191.1310  176.0100  146.3170 O   0  0  0  0  0  0  0  0  0  0  0  0
  189.4340  177.2130  147.5770 C   0  0  0  0  0  3  0  0  0  0  0  0
  188.2660  177.9810  147.4110 C   0  0  0  0  0  0  0  0  0  0  0  0
  188.4150  177.7520  144.9760 C   0  0  0  0  0  0  0  0  0  0  0  0
  187.5570  178.5140  148.6040 C   0  0  0  0  0  1  0  0  0  0  0  0
  187.7590  178.2480  146.1190 C   0  0  0  0  0  3  0  0  0  0  0  0
  189.5690  176.9910  145.1750 C   0  0  0  0  0  0  0  0  0  0  0  0
  190.0530  176.7370  146.4240 C   0  0  0  0  0  0  0  0  0  0  0  0
  190.3540  176.4110  144.2500 N   0  0  0  0  0  0  0  0  0  0  0  0
  1 13  1  0  0  0  0
  1  8  1  0  0  0  0
  2  3  1  0  0  0  0
  3 12  2  0  0  0  0
  4  7  2  0  0  0  0
  5  2  1  0  0  0  0
  5  4  1  0  0  0  0
  6 10  1  0  0  0  0
  6  9  1  0  0  0  0
  7 12  1  0  0  0  0
  8 16  1  6  0  0  0
  8 10  1  0  0  0  0
  9  5  2  0  0  0  0
 10 11  1  0  0  0  0
 11  2  2  0  0  0  0
 13  6  2  0  0  0  0
 14 16  1  0  0  0  0
 15 16  2  0  0  0  0
 18 17  1  6  0  0  0
 18 21  1  0  0  0  0
 19 22  2  0  0  0  0
 20 23  1  0  0  0  0
 20 18  1  0  0  0  0
 21 22  1  0  0  0  0
 23 14  1  1  0  0  0
 23 19  1  0  0  0  0
 24 14  1  0  0  0  0
 25 27  1  0  0  0  0
 26 27  1  0  0  0  0
 27 24  1  0  0  0  0
 28 29  1  0  0  0  0
 29 13  1  0  0  0  0
 30 29  2  0  0  0  0
 31  4  1  0  0  0  0
 31 37  1  0  0  0  0
 32 33  1  0  0  0  0
 33 34  1  0  0  0  0
 34 41  1  0  0  0  0
 36 35  1  0  0  0  0
 36 38  1  0  0  0  0
 37 40  2  0  0  0  0
 37 39  1  0  0  0  0
 39 36  2  0  0  0  0
 40 41  1  0  0  0  0
 41 35  2  0  0  0  0
 42 33  2  0  0  0  0
 42 40  1  0  0  0  0
M  END
>  <MODEL>
8

>  <REMARK>
 VINA RESULT:      -7.6      3.313      8.831
  Name = 
  7 active torsions:
  status: ('A' for Active; 'I' for Inactive)
    1  A    between atoms: N_1  and  C_40
    2  A    between atoms: N_1  and  C_42
    3  A    between atoms: C_12  and  C_15
    4  A    between atoms: C_12  and  C_25
    5  A    between atoms: C_19  and  C_40
    6  A    between atoms: C_21  and  C_29
    7  A    between atoms: C_24  and  C_41
                            x       y       z     vdW  Elec       q    Type
                         _______ _______ _______ _____ _____    ______ ____

>  <TORSDO>
F 7

$$$$
=
 OpenBabel11062413363D

 42 47  0  0  1  0  0  0  0  0999 V2000
  183.2790  177.7180  137.1780 C   0  0  0  0  0  2  0  0  0  0  0  0
  187.8150  176.5340  137.2430 C   0  0  0  0  0  0  0  0  0  0  0  0
  189.0050  175.9160  136.8650 C   0  0  0  0  0  3  0  0  0  0  0  0
  189.0330  177.7030  139.0060 C   0  0  0  0  0  0  0  0  0  0  0  0
  187.8150  177.4550  138.3390 C   0  0  0  0  0  0  0  0  0  0  0  0
  185.4370  177.7900  138.0090 C   0  0  0  0  0  0  0  0  0  0  0  0
  190.1680  177.0670  138.6020 N   0  0  0  0  0  0  0  0  0  0  0  0
  184.1530  176.7520  136.3500 C   0  0  1  0  0  3  0  0  0  0  0  0
  186.6820  178.0800  138.7280 C   0  0  0  0  0  3  0  0  0  0  0  0
  185.4650  176.8650  136.9560 N   0  0  0  0  0  0  0  0  0  0  0  0
  186.6920  176.2450  136.5620 C   0  0  0  0  0  3  0  0  0  0  0  0
  190.1790  176.1950  137.5610 C   0  0  0  0  0  3  0  0  0  0  0  0
  184.2300  178.2990  138.1880 C   0  0  0  0  0  0  0  0  0  0  0  0
  182.5650  175.0200  137.3410 N   0  0  0  0  0  0  0  0  0  0  0  0
  184.1470  174.4470  135.7140 O   0  0  0  0  0  0  0  0  0  0  0  0
  183.6470  175.3420  136.4510 C   0  0  0  0  0  0  0  0  0  0  0  0
  178.9840  178.3940  137.0480 C   0  0  0  0  0  1  0  0  0  0  0  0
  179.4550  177.2120  137.8690 C   0  0  1  0  0  3  0  0  0  0  0  0
  181.4330  175.7850  139.3800 C   0  0  0  0  0  3  0  0  0  0  0  0
  180.5520  176.4460  137.1020 C   0  0  0  0  0  2  0  0  0  0  0  0
  179.8880  177.6820  139.2620 C   0  0  0  0  0  2  0  0  0  0  0  0
  180.5280  176.5450  140.0050 C   0  0  0  0  0  3  0  0  0  0  0  0
  181.7890  176.0990  137.9510 C   0  0  2  0  0  3  0  0  0  0  0  0
  182.1050  173.6370  137.4740 C   0  0  0  0  0  2  0  0  0  0  0  0
  179.7260  172.8970  137.2940 C   0  0  0  0  0  1  0  0  0  0  0  0
  181.3570  172.2750  135.5490 C   0  0  0  0  0  1  0  0  0  0  0  0
  180.9490  173.3580  136.5260 C   0  0  0  0  0  3  0  0  0  0  0  0
  183.0880  178.8990  140.3000 O   0  0  0  0  0  1  0  0  0  0  0  0
  183.8410  179.2950  139.2010 C   0  0  0  0  0  0  0  0  0  0  0  0
  184.1810  180.5020  139.0890 O   0  0  0  0  0  0  0  0  0  0  0  0
  189.1180  178.6290  140.1820 C   0  0  0  0  0  2  0  0  0  0  0  0
  184.6510  178.6160  143.4240 C   0  0  0  0  0  1  0  0  0  0  0  0
  186.0430  178.1570  143.1740 C   0  0  0  0  0  0  0  0  0  0  0  0
  186.7090  177.3720  144.0060 O   0  0  0  0  0  0  0  0  0  0  0  0
  188.9570  176.4470  143.9280 C   0  0  0  0  0  3  0  0  0  0  0  0
  190.1180  176.4190  143.1330 C   0  0  0  0  0  0  0  0  0  0  0  0
  189.0550  177.8630  141.4630 C   0  0  0  0  0  0  0  0  0  0  0  0
  191.3040  175.6450  143.5850 C   0  0  0  0  0  1  0  0  0  0  0  0
  190.1670  177.1240  141.9090 C   0  0  0  0  0  3  0  0  0  0  0  0
  187.9200  177.8730  142.2770 C   0  0  0  0  0  0  0  0  0  0  0  0
  187.8790  177.1920  143.4560 C   0  0  0  0  0  0  0  0  0  0  0  0
  186.7520  178.5060  142.0690 N   0  0  0  0  0  0  0  0  0  0  0  0
  1 13  1  0  0  0  0
  2  5  1  0  0  0  0
  3  2  1  0  0  0  0
  3 12  2  0  0  0  0
  4 31  1  0  0  0  0
  5  9  2  0  0  0  0
  5  4  1  0  0  0  0
  6 13  2  0  0  0  0
  6  9  1  0  0  0  0
  7  4  2  0  0  0  0
  8 16  1  1  0  0  0
  8 10  1  0  0  0  0
  8  1  1  0  0  0  0
 10  6  1  0  0  0  0
 11 10  1  0  0  0  0
 11  2  2  0  0  0  0
 12  7  1  0  0  0  0
 13 29  1  0  0  0  0
 14 24  1  0  0  0  0
 15 16  2  0  0  0  0
 16 14  1  0  0  0  0
 18 17  1  6  0  0  0
 18 21  1  0  0  0  0
 19 22  2  0  0  0  0
 20 18  1  0  0  0  0
 20 23  1  0  0  0  0
 21 22  1  0  0  0  0
 23 14  1  6  0  0  0
 23 19  1  0  0  0  0
 26 27  1  0  0  0  0
 27 25  1  0  0  0  0
 27 24  1  0  0  0  0
 29 28  1  0  0  0  0
 30 29  2  0  0  0  0
 31 37  1  0  0  0  0
 33 32  1  0  0  0  0
 33 34  1  0  0  0  0
 36 38  1  0  0  0  0
 36 35  2  0  0  0  0
 37 39  2  0  0  0  0
 37 40  1  0  0  0  0
 39 36  1  0  0  0  0
 40 41  2  0  0  0  0
 41 35  1  0  0  0  0
 41 34  1  0  0  0  0
 42 40  1  0  0  0  0
 42 33  2  0  0  0  0
M  END
>  <MODEL>
9

>  <REMARK>
 VINA RESULT:      -7.6      2.470      8.467
  Name = 
  7 active torsions:
  status: ('A' for Active; 'I' for Inactive)
    1  A    between atoms: N_1  and  C_40
    2  A    between atoms: N_1  and  C_42
    3  A    between atoms: C_12  and  C_15
    4  A    between atoms: C_12  and  C_25
    5  A    between atoms: C_19  and  C_40
    6  A    between atoms: C_21  and  C_29
    7  A    between atoms: C_24  and  C_41
                            x       y       z     vdW  Elec       q    Type
                         _______ _______ _______ _____ _____    ______ ____

>  <TORSDO>
F 7

$$$$
