=
 OpenBabel11062413233D

 46 48  0  0  1  0  0  0  0  0999 V2000
  187.4770  177.2810  142.4360 C   0  0  0  0  0  0  0  0  0  0  0  0
  186.3200  177.7700  143.0720 C   0  0  0  0  0  0  0  0  0  0  0  0
  185.6900  178.8710  140.9850 C   0  0  0  0  0  0  0  0  0  0  0  0
  186.8370  178.3120  140.3780 C   0  0  0  0  0  0  0  0  0  0  0  0
  187.6840  177.5510  141.1210 N   0  0  0  0  0  0  0  0  0  0  0  0
  185.4340  178.5830  142.3370 C   0  0  0  0  0  0  0  0  0  0  0  0
  190.6540  177.5500  142.4640 C   0  0  1  0  0  3  0  0  0  0  0  0
  191.9560  177.3480  141.7030 C   0  0  0  0  0  1  0  0  0  0  0  0
  189.7930  176.2780  142.4050 C   0  0  1  0  0  3  0  0  0  0  0  0
  190.4960  175.1790  142.9090 O   0  0  0  0  0  1  0  0  0  0  0  0
  189.5890  178.2110  144.6410 C   0  0  2  0  0  3  0  0  0  0  0  0
  191.6480  179.1760  143.9180 O   0  0  0  0  0  1  0  0  0  0  0  0
  188.7270  176.9500  144.6140 C   0  0  0  0  0  2  0  0  0  0  0  0
  188.4850  176.4510  143.1840 C   0  0  1  0  0  3  0  0  0  0  0  0
  190.9130  177.9890  143.9100 C   0  0  2  0  0  3  0  0  0  0  0  0
  189.8310  178.5750  145.9640 O   0  0  0  0  0  1  0  0  0  0  0  0
  187.1300  178.4810  138.9160 C   0  0  2  0  0  3  0  0  0  0  0  0
  186.3460  177.4820  138.0830 C   0  0  0  0  0  1  0  0  0  0  0  0
  189.1740  177.1640  138.3110 O   0  0  0  0  0  0  0  0  0  0  0  0
  189.3090  179.4180  138.6970 O   0  0  0  0  0  1  0  0  0  0  0  0
  188.5930  178.3850  138.6320 C   0  0  0  0  0  0  0  0  0  0  0  0
  184.7770  179.6920  140.3010 O   0  0  0  0  0  0  0  0  0  0  0  0
  183.7700  179.2170  139.4170 C   0  0  0  0  0  2  0  0  0  0  0  0
  181.4660  180.1840  138.9160 N   0  0  0  0  0  0  0  0  0  0  0  0
  183.4170  181.4710  138.7700 O   0  0  0  0  0  0  0  0  0  0  0  0
  182.8910  180.3490  139.0070 C   0  0  0  0  0  0  0  0  0  0  0  0
  180.8190  178.9490  139.3420 C   0  0  0  0  0  2  0  0  0  0  0  0
  180.6310  178.1090  138.2440 O   0  0  0  0  0  1  0  0  0  0  0  0
  180.6090  181.2970  138.5250 C   0  0  0  0  0  2  0  0  0  0  0  0
  180.6640  181.5090  137.0210 C   0  0  1  0  0  3  0  0  0  0  0  0
  179.3450  181.0800  136.3730 C   0  0  0  0  0  2  0  0  0  0  0  0
  180.9060  182.9850  136.7190 C   0  0  0  0  0  2  0  0  0  0  0  0
  179.4140  181.2630  134.9800 O   0  0  0  0  0  0  0  0  0  0  0  0
  180.7460  183.2520  135.2250 C   0  0  1  0  0  3  0  0  0  0  0  0
  179.4210  182.6520  134.7530 C   0  0  0  0  0  2  0  0  0  0  0  0
  180.7480  184.6270  134.9930 O   0  0  0  0  0  1  0  0  0  0  0  0
  184.2250  179.1790  142.9960 C   0  0  0  0  0  2  0  0  0  0  0  0
  183.0030  178.3140  142.7510 C   0  0  0  0  0  2  0  0  0  0  0  0
  181.3060  178.5730  144.4020 O   0  0  0  0  0  1  0  0  0  0  0  0
  181.7970  178.9740  143.3140 C   0  0  0  0  0  0  0  0  0  0  0  0
  181.2300  180.0580  142.6560 O   0  0  0  0  0  0  0  0  0  0  0  0
  186.0520  177.4930  144.5300 C   0  0  0  0  0  2  0  0  0  0  0  0
  186.2860  178.6750  145.3530 N   0  0  0  0  0  2  0  0  0  0  0  0
  185.8580  180.1200  147.2650 O   0  0  0  0  0  1  0  0  0  0  0  0
  184.5910  178.2480  146.9060 O   0  0  0  0  0  0  0  0  0  0  0  0
  185.5380  178.9870  146.5290 C   0  0  0  0  0  0  0  0  0  0  0  0
  1  2  1  0  0  0  0
  2 42  1  0  0  0  0
  3  6  1  0  0  0  0
  4  3  2  0  0  0  0
  4  5  1  0  0  0  0
  5  1  2  0  0  0  0
  6 37  1  0  0  0  0
  6  2  2  0  0  0  0
  7  8  1  1  0  0  0
  7 15  1  0  0  0  0
  9  7  1  0  0  0  0
  9 10  1  1  0  0  0
  9 14  1  0  0  0  0
 11 16  1  1  0  0  0
 13 11  1  0  0  0  0
 14  1  1  6  0  0  0
 14 13  1  0  0  0  0
 15 12  1  6  0  0  0
 15 11  1  0  0  0  0
 17 18  1  6  0  0  0
 17  4  1  0  0  0  0
 19 21  2  0  0  0  0
 21 20  1  0  0  0  0
 21 17  1  0  0  0  0
 22  3  1  0  0  0  0
 23 22  1  0  0  0  0
 24 26  1  0  0  0  0
 24 27  1  0  0  0  0
 25 26  2  0  0  0  0
 26 23  1  0  0  0  0
 28 27  1  0  0  0  0
 29 24  1  0  0  0  0
 30 29  1  1  0  0  0
 31 30  1  0  0  0  0
 32 30  1  0  0  0  0
 33 31  1  0  0  0  0
 34 36  1  1  0  0  0
 34 32  1  0  0  0  0
 35 33  1  0  0  0  0
 35 34  1  0  0  0  0
 38 37  1  0  0  0  0
 38 40  1  0  0  0  0
 40 39  1  0  0  0  0
 41 40  2  0  0  0  0
 42 43  1  0  0  0  0
 43 46  1  0  0  0  0
 46 45  2  0  0  0  0
 46 44  1  0  0  0  0
M  END
>  <MODEL>
1

>  <REMARK>
 VINA RESULT:      -7.6      0.000      0.000
  Name = 
  14 active torsions:
  status: ('A' for Active; 'I' for Inactive)
    1  A    between atoms: C_3  and  N_14
    2  A    between atoms: C_4  and  C_21
    3  A    between atoms: C_5  and  C_41
    4  A    between atoms: C_6  and  C_9
    5  A    between atoms: N_7  and  C_43
    6  A    between atoms: C_9  and  N_14
    7  A    between atoms: C_12  and  C_43
    8  A    between atoms: O_13  and  C_15
    9  A    between atoms: O_13  and  C_31
   10  A    between atoms: C_21  and  C_26
   11  A    between atoms: C_23  and  C_28
   12  A    between atoms: C_23  and  C_37
   13  A    between atoms: C_26  and  C_46
   14  A    between atoms: C_31  and  C_38
                            x       y       z     vdW  Elec       q    Type
                         _______ _______ _______ _____ _____    ______ ____

>  <TORSDO>
F 14

$$$$
=
 OpenBabel11062413233D

 46 48  0  0  1  0  0  0  0  0999 V2000
  182.7350  178.1270  140.3810 C   0  0  0  0  0  0  0  0  0  0  0  0
  183.4830  178.1480  139.1880 C   0  0  0  0  0  0  0  0  0  0  0  0
  185.4680  178.7170  140.4930 C   0  0  0  0  0  0  0  0  0  0  0  0
  184.6850  178.6310  141.6660 C   0  0  0  0  0  0  0  0  0  0  0  0
  183.3590  178.3490  141.5670 N   0  0  0  0  0  0  0  0  0  0  0  0
  184.8560  178.4610  139.2530 C   0  0  0  0  0  0  0  0  0  0  0  0
  180.5570  178.8230  142.6040 C   0  0  1  0  0  3  0  0  0  0  0  0
  179.9910  178.4980  143.9780 C   0  0  0  0  0  1  0  0  0  0  0  0
  180.7080  177.5430  141.7660 C   0  0  1  0  0  3  0  0  0  0  0  0
  179.4830  176.8780  141.6510 O   0  0  0  0  0  1  0  0  0  0  0  0
  180.3130  180.2000  140.5170 C   0  0  2  0  0  3  0  0  0  0  0  0
  179.6410  181.0380  142.6480 O   0  0  0  0  0  1  0  0  0  0  0  0
  180.4490  178.9440  139.6590 C   0  0  0  0  0  2  0  0  0  0  0  0
  181.2560  177.8500  140.3690 C   0  0  1  0  0  3  0  0  0  0  0  0
  179.7050  179.8730  141.8810 C   0  0  2  0  0  3  0  0  0  0  0  0
  179.5140  181.1280  139.8510 O   0  0  0  0  0  1  0  0  0  0  0  0
  185.2800  178.7850  143.0350 C   0  0  2  0  0  3  0  0  0  0  0  0
  185.9500  177.4990  143.4880 C   0  0  0  0  0  1  0  0  0  0  0  0
  183.6320  180.4690  143.8900 O   0  0  0  0  0  0  0  0  0  0  0  0
  183.9810  178.5020  145.0130 O   0  0  0  0  0  1  0  0  0  0  0  0
  184.2620  179.2380  144.0310 C   0  0  0  0  0  0  0  0  0  0  0  0
  186.8380  179.0300  140.5000 O   0  0  0  0  0  0  0  0  0  0  0  0
  187.8840  178.0760  140.6250 C   0  0  0  0  0  2  0  0  0  0  0  0
  189.8470  177.5940  142.1770 N   0  0  0  0  0  0  0  0  0  0  0  0
  188.5610  179.5420  142.3610 O   0  0  0  0  0  0  0  0  0  0  0  0
  188.7630  178.4460  141.7700 C   0  0  0  0  0  0  0  0  0  0  0  0
  190.2040  176.4070  141.4100 C   0  0  0  0  0  2  0  0  0  0  0  0
  190.8880  176.7790  140.2520 O   0  0  0  0  0  1  0  0  0  0  0  0
  190.7120  177.9660  143.2910 C   0  0  0  0  0  2  0  0  0  0  0  0
  190.3890  177.1290  144.5180 C   0  0  1  0  0  3  0  0  0  0  0  0
  191.6060  177.0510  145.4440 C   0  0  0  0  0  2  0  0  0  0  0  0
  189.2280  177.7600  145.2800 C   0  0  0  0  0  2  0  0  0  0  0  0
  191.3030  176.2600  146.5670 O   0  0  0  0  0  0  0  0  0  0  0  0
  189.0360  177.0610  146.6230 C   0  0  1  0  0  3  0  0  0  0  0  0
  190.3830  176.9900  147.3430 C   0  0  0  0  0  2  0  0  0  0  0  0
  188.1270  177.7810  147.3980 O   0  0  0  0  0  1  0  0  0  0  0  0
  185.6730  178.5590  137.9990 C   0  0  0  0  0  2  0  0  0  0  0  0
  186.1960  177.1930  137.5950 C   0  0  0  0  0  2  0  0  0  0  0  0
  188.2580  176.2850  136.8220 O   0  0  0  0  0  0  0  0  0  0  0  0
  187.5840  177.3180  137.0790 C   0  0  0  0  0  0  0  0  0  0  0  0
  188.1260  178.5740  136.8470 O   0  0  0  0  0  1  0  0  0  0  0  0
  182.8290  177.9060  137.8510 C   0  0  0  0  0  2  0  0  0  0  0  0
  182.7620  176.4830  137.5360 N   0  0  0  0  0  2  0  0  0  0  0  0
  181.5980  174.4480  136.8830 O   0  0  0  0  0  0  0  0  0  0  0  0
  180.4510  176.4050  137.1900 O   0  0  0  0  0  1  0  0  0  0  0  0
  181.5540  175.7990  137.2010 C   0  0  0  0  0  0  0  0  0  0  0  0
  1  5  1  0  0  0  0
  2  6  1  0  0  0  0
  2  1  2  0  0  0  0
  3 22  1  0  0  0  0
  3  4  1  0  0  0  0
  4 17  1  0  0  0  0
  5  4  2  0  0  0  0
  6  3  2  0  0  0  0
  7  8  1  1  0  0  0
  9 10  1  6  0  0  0
  9  7  1  0  0  0  0
 11 16  1  6  0  0  0
 11 15  1  0  0  0  0
 13 14  1  0  0  0  0
 13 11  1  0  0  0  0
 14  1  1  1  0  0  0
 14  9  1  0  0  0  0
 15  7  1  0  0  0  0
 15 12  1  1  0  0  0
 17 18  1  1  0  0  0
 17 21  1  0  0  0  0
 19 21  2  0  0  0  0
 21 20  1  0  0  0  0
 22 23  1  0  0  0  0
 23 26  1  0  0  0  0
 24 29  1  0  0  0  0
 26 24  1  0  0  0  0
 26 25  2  0  0  0  0
 27 24  1  0  0  0  0
 28 27  1  0  0  0  0
 30 29  1  6  0  0  0
 30 32  1  0  0  0  0
 30 31  1  0  0  0  0
 31 33  1  0  0  0  0
 32 34  1  0  0  0  0
 33 35  1  0  0  0  0
 34 35  1  0  0  0  0
 34 36  1  1  0  0  0
 37  6  1  0  0  0  0
 38 37  1  0  0  0  0
 39 40  2  0  0  0  0
 40 38  1  0  0  0  0
 41 40  1  0  0  0  0
 42  2  1  0  0  0  0
 43 42  1  0  0  0  0
 44 46  2  0  0  0  0
 45 46  1  0  0  0  0
 46 43  1  0  0  0  0
M  END
>  <MODEL>
2

>  <REMARK>
 VINA RESULT:      -7.5      2.864      9.982
  Name = 
  14 active torsions:
  status: ('A' for Active; 'I' for Inactive)
    1  A    between atoms: C_3  and  N_14
    2  A    between atoms: C_4  and  C_21
    3  A    between atoms: C_5  and  C_41
    4  A    between atoms: C_6  and  C_9
    5  A    between atoms: N_7  and  C_43
    6  A    between atoms: C_9  and  N_14
    7  A    between atoms: C_12  and  C_43
    8  A    between atoms: O_13  and  C_15
    9  A    between atoms: O_13  and  C_31
   10  A    between atoms: C_21  and  C_26
   11  A    between atoms: C_23  and  C_28
   12  A    between atoms: C_23  and  C_37
   13  A    between atoms: C_26  and  C_46
   14  A    between atoms: C_31  and  C_38
                            x       y       z     vdW  Elec       q    Type
                         _______ _______ _______ _____ _____    ______ ____

>  <TORSDO>
F 14

$$$$
=
 OpenBabel11062413233D

 46 48  0  0  1  0  0  0  0  0999 V2000
  183.8470  177.7550  137.6660 C   0  0  0  0  0  0  0  0  0  0  0  0
  183.7930  178.4370  138.8970 C   0  0  0  0  0  0  0  0  0  0  0  0
  186.2210  178.2320  139.0690 C   0  0  0  0  0  0  0  0  0  0  0  0
  186.2270  177.6000  137.8050 C   0  0  0  0  0  0  0  0  0  0  0  0
  185.0510  177.3810  137.1600 N   0  0  0  0  0  0  0  0  0  0  0  0
  184.9920  178.6590  139.6030 C   0  0  0  0  0  0  0  0  0  0  0  0
  183.1850  175.1920  135.8900 C   0  0  1  0  0  3  0  0  0  0  0  0
  183.4460  174.4390  134.5940 C   0  0  0  0  0  1  0  0  0  0  0  0
  182.8820  176.6710  135.6010 C   0  0  1  0  0  3  0  0  0  0  0  0
  181.7950  176.7940  134.7300 O   0  0  0  0  0  1  0  0  0  0  0  0
  181.8440  175.2950  138.0110 C   0  0  2  0  0  3  0  0  0  0  0  0
  182.4040  173.2120  136.9920 O   0  0  0  0  0  1  0  0  0  0  0  0
  181.5180  176.7640  137.7460 C   0  0  0  0  0  2  0  0  0  0  0  0
  182.5950  177.4450  136.8920 C   0  0  1  0  0  3  0  0  0  0  0  0
  182.0640  174.5350  136.7030 C   0  0  2  0  0  3  0  0  0  0  0  0
  180.7990  174.7150  138.7290 O   0  0  0  0  0  1  0  0  0  0  0  0
  187.5010  177.2090  137.1150 C   0  0  2  0  0  3  0  0  0  0  0  0
  187.8100  178.1490  135.9630 C   0  0  0  0  0  1  0  0  0  0  0  0
  186.6170  174.8680  137.2600 O   0  0  0  0  0  1  0  0  0  0  0  0
  188.2130  175.4200  135.7110 O   0  0  0  0  0  0  0  0  0  0  0  0
  187.4630  175.7880  136.6520 C   0  0  0  0  0  0  0  0  0  0  0  0
  187.3860  178.4730  139.8180 O   0  0  0  0  0  0  0  0  0  0  0  0
  188.0580  177.4950  140.6000 C   0  0  0  0  0  2  0  0  0  0  0  0
  188.9260  177.2660  142.9850 N   0  0  0  0  0  0  0  0  0  0  0  0
  188.4380  179.3480  142.0300 O   0  0  0  0  0  0  0  0  0  0  0  0
  188.4680  178.0940  141.9020 C   0  0  0  0  0  0  0  0  0  0  0  0
  189.1260  175.8340  142.8100 C   0  0  0  0  0  2  0  0  0  0  0  0
  190.4760  175.5680  142.5770 O   0  0  0  0  0  1  0  0  0  0  0  0
  189.3360  177.8570  144.2540 C   0  0  0  0  0  2  0  0  0  0  0  0
  188.4520  177.3580  145.3850 C   0  0  1  0  0  3  0  0  0  0  0  0
  189.1930  177.4540  146.7220 C   0  0  0  0  0  2  0  0  0  0  0  0
  187.1860  178.2050  145.4600 C   0  0  0  0  0  2  0  0  0  0  0  0
  188.3730  176.9730  147.7590 O   0  0  0  0  0  0  0  0  0  0  0  0
  186.3950  177.8630  146.7200 C   0  0  1  0  0  3  0  0  0  0  0  0
  187.3360  177.9090  147.9250 C   0  0  0  0  0  2  0  0  0  0  0  0
  185.3670  178.7880  146.8910 O   0  0  0  0  0  1  0  0  0  0  0  0
  184.9710  179.3210  140.9490 C   0  0  0  0  0  2  0  0  0  0  0  0
  184.6750  178.3060  142.0380 C   0  0  0  0  0  2  0  0  0  0  0  0
  183.0860  178.6120  143.7860 O   0  0  0  0  0  0  0  0  0  0  0  0
  184.1560  178.9990  143.2460 C   0  0  0  0  0  0  0  0  0  0  0  0
  184.8700  180.0540  143.8000 O   0  0  0  0  0  1  0  0  0  0  0  0
  182.4770  178.8710  139.4940 C   0  0  0  0  0  2  0  0  0  0  0  0
  182.1250  180.2280  139.0880 N   0  0  0  0  0  2  0  0  0  0  0  0
  180.5490  182.0190  138.6060 O   0  0  0  0  0  0  0  0  0  0  0  0
  179.8080  179.9310  139.1830 O   0  0  0  0  0  1  0  0  0  0  0  0
  180.7830  180.6990  138.9670 C   0  0  0  0  0  0  0  0  0  0  0  0
  1  2  1  0  0  0  0
  2 42  1  0  0  0  0
  2  6  2  0  0  0  0
  3  6  1  0  0  0  0
  3 22  1  0  0  0  0
  4  3  2  0  0  0  0
  5  1  2  0  0  0  0
  5  4  1  0  0  0  0
  6 37  1  0  0  0  0
  7  8  1  6  0  0  0
  7 15  1  0  0  0  0
  9 10  1  6  0  0  0
  9  7  1  0  0  0  0
  9 14  1  0  0  0  0
 11 16  1  6  0  0  0
 13 11  1  0  0  0  0
 14  1  1  1  0  0  0
 14 13  1  0  0  0  0
 15 12  1  1  0  0  0
 15 11  1  0  0  0  0
 17 18  1  6  0  0  0
 17  4  1  0  0  0  0
 20 21  2  0  0  0  0
 21 17  1  0  0  0  0
 21 19  1  0  0  0  0
 22 23  1  0  0  0  0
 23 26  1  0  0  0  0
 24 29  1  0  0  0  0
 26 25  2  0  0  0  0
 26 24  1  0  0  0  0
 27 24  1  0  0  0  0
 28 27  1  0  0  0  0
 30 29  1  6  0  0  0
 30 32  1  0  0  0  0
 30 31  1  0  0  0  0
 31 33  1  0  0  0  0
 32 34  1  0  0  0  0
 33 35  1  0  0  0  0
 34 36  1  1  0  0  0
 34 35  1  0  0  0  0
 37 38  1  0  0  0  0
 38 40  1  0  0  0  0
 40 39  2  0  0  0  0
 40 41  1  0  0  0  0
 43 42  1  0  0  0  0
 44 46  2  0  0  0  0
 46 43  1  0  0  0  0
 46 45  1  0  0  0  0
M  END
>  <MODEL>
3

>  <REMARK>
 VINA RESULT:      -7.4      2.743      9.015
  Name = 
  14 active torsions:
  status: ('A' for Active; 'I' for Inactive)
    1  A    between atoms: C_3  and  N_14
    2  A    between atoms: C_4  and  C_21
    3  A    between atoms: C_5  and  C_41
    4  A    between atoms: C_6  and  C_9
    5  A    between atoms: N_7  and  C_43
    6  A    between atoms: C_9  and  N_14
    7  A    between atoms: C_12  and  C_43
    8  A    between atoms: O_13  and  C_15
    9  A    between atoms: O_13  and  C_31
   10  A    between atoms: C_21  and  C_26
   11  A    between atoms: C_23  and  C_28
   12  A    between atoms: C_23  and  C_37
   13  A    between atoms: C_26  and  C_46
   14  A    between atoms: C_31  and  C_38
                            x       y       z     vdW  Elec       q    Type
                         _______ _______ _______ _____ _____    ______ ____

>  <TORSDO>
F 14

$$$$
=
 OpenBabel11062413233D

 46 48  0  0  1  0  0  0  0  0999 V2000
  185.0960  178.7060  140.0360 C   0  0  0  0  0  0  0  0  0  0  0  0
  185.9820  178.8450  141.1210 C   0  0  0  0  0  0  0  0  0  0  0  0
  187.8130  178.1500  139.6600 C   0  0  0  0  0  0  0  0  0  0  0  0
  186.8920  178.0780  138.5910 C   0  0  0  0  0  0  0  0  0  0  0  0
  185.5790  178.3490  138.8180 N   0  0  0  0  0  0  0  0  0  0  0  0
  187.3460  178.5480  140.9260 C   0  0  0  0  0  0  0  0  0  0  0  0
  182.7750  178.4200  137.8680 C   0  0  1  0  0  3  0  0  0  0  0  0
  182.1210  178.9940  136.6200 C   0  0  0  0  0  1  0  0  0  0  0  0
  182.9830  179.5200  138.9220 C   0  0  1  0  0  3  0  0  0  0  0  0
  181.7690  180.1370  139.2400 O   0  0  0  0  0  1  0  0  0  0  0  0
  182.6670  176.6700  139.6670 C   0  0  2  0  0  3  0  0  0  0  0  0
  181.8550  176.2440  137.4640 O   0  0  0  0  0  1  0  0  0  0  0  0
  182.8620  177.7420  140.7380 C   0  0  0  0  0  2  0  0  0  0  0  0
  183.6220  178.9600  140.1970 C   0  0  1  0  0  3  0  0  0  0  0  0
  181.9710  177.2430  138.4320 C   0  0  2  0  0  3  0  0  0  0  0  0
  181.9120  175.6240  140.1960 O   0  0  0  0  0  1  0  0  0  0  0  0
  187.3220  177.7640  137.1880 C   0  0  2  0  0  3  0  0  0  0  0  0
  187.1660  178.9760  136.2850 C   0  0  0  0  0  1  0  0  0  0  0  0
  185.5000  176.7640  135.7870 O   0  0  0  0  0  0  0  0  0  0  0  0
  186.9470  175.4230  136.9530 O   0  0  0  0  0  1  0  0  0  0  0  0
  186.5860  176.5860  136.6360 C   0  0  0  0  0  0  0  0  0  0  0  0
  189.1810  177.8590  139.5230 O   0  0  0  0  0  0  0  0  0  0  0  0
  189.7060  176.5710  139.2310 C   0  0  0  0  0  2  0  0  0  0  0  0
  191.6200  176.2380  137.5810 N   0  0  0  0  0  0  0  0  0  0  0  0
  191.9400  177.2290  139.6780 O   0  0  0  0  0  0  0  0  0  0  0  0
  191.1450  176.6910  138.8600 C   0  0  0  0  0  0  0  0  0  0  0  0
  190.6980  175.7650  136.5570 C   0  0  0  0  0  2  0  0  0  0  0  0
  190.3530  176.8160  135.7070 O   0  0  0  0  0  1  0  0  0  0  0  0
  193.0260  176.3670  137.2190 C   0  0  0  0  0  2  0  0  0  0  0  0
  193.5890  175.0250  136.7780 C   0  0  1  0  0  3  0  0  0  0  0  0
  194.7800  175.2300  135.8380 C   0  0  0  0  0  2  0  0  0  0  0  0
  194.0520  174.2350  137.9980 C   0  0  0  0  0  2  0  0  0  0  0  0
  195.2810  173.9830  135.4210 O   0  0  0  0  0  0  0  0  0  0  0  0
  194.8160  172.9880  137.5610 C   0  0  1  0  0  3  0  0  0  0  0  0
  195.8860  173.3910  136.5460 C   0  0  0  0  0  2  0  0  0  0  0  0
  195.4190  172.3980  138.6710 O   0  0  0  0  0  1  0  0  0  0  0  0
  188.3110  178.6180  142.0720 C   0  0  0  0  0  2  0  0  0  0  0  0
  188.5000  177.2470  142.6950 C   0  0  0  0  0  2  0  0  0  0  0  0
  190.7920  177.8150  143.0090 O   0  0  0  0  0  1  0  0  0  0  0  0
  189.9480  176.9160  142.7540 C   0  0  0  0  0  0  0  0  0  0  0  0
  190.3670  175.6060  142.5630 O   0  0  0  0  0  0  0  0  0  0  0  0
  185.4880  179.2410  142.4900 C   0  0  0  0  0  2  0  0  0  0  0  0
  185.6210  178.1460  143.4460 N   0  0  0  0  0  2  0  0  0  0  0  0
  185.7840  177.2210  145.6910 O   0  0  0  0  0  1  0  0  0  0  0  0
  185.6740  179.4840  145.3630 O   0  0  0  0  0  0  0  0  0  0  0  0
  185.6930  178.3290  144.8600 C   0  0  0  0  0  0  0  0  0  0  0  0
  1  2  1  0  0  0  0
  2 42  1  0  0  0  0
  3  6  1  0  0  0  0
  4  5  1  0  0  0  0
  4  3  2  0  0  0  0
  5  1  2  0  0  0  0
  6  2  2  0  0  0  0
  6 37  1  0  0  0  0
  7  8  1  6  0  0  0
  7 15  1  0  0  0  0
  7  9  1  0  0  0  0
  9 10  1  1  0  0  0
  9 14  1  0  0  0  0
 11 16  1  1  0  0  0
 11 13  1  0  0  0  0
 14  1  1  6  0  0  0
 14 13  1  0  0  0  0
 15 12  1  6  0  0  0
 15 11  1  0  0  0  0
 17 18  1  6  0  0  0
 17  4  1  0  0  0  0
 19 21  2  0  0  0  0
 21 20  1  0  0  0  0
 21 17  1  0  0  0  0
 22  3  1  0  0  0  0
 23 22  1  0  0  0  0
 24 26  1  0  0  0  0
 26 23  1  0  0  0  0
 26 25  2  0  0  0  0
 27 24  1  0  0  0  0
 28 27  1  0  0  0  0
 29 24  1  0  0  0  0
 30 29  1  1  0  0  0
 30 32  1  0  0  0  0
 31 30  1  0  0  0  0
 33 31  1  0  0  0  0
 33 35  1  0  0  0  0
 34 32  1  0  0  0  0
 34 36  1  1  0  0  0
 35 34  1  0  0  0  0
 37 38  1  0  0  0  0
 38 40  1  0  0  0  0
 40 39  1  0  0  0  0
 41 40  2  0  0  0  0
 42 43  1  0  0  0  0
 43 46  1  0  0  0  0
 46 45  2  0  0  0  0
 46 44  1  0  0  0  0
M  END
>  <MODEL>
4

>  <REMARK>
 VINA RESULT:      -7.2      3.442      9.575
  Name = 
  14 active torsions:
  status: ('A' for Active; 'I' for Inactive)
    1  A    between atoms: C_3  and  N_14
    2  A    between atoms: C_4  and  C_21
    3  A    between atoms: C_5  and  C_41
    4  A    between atoms: C_6  and  C_9
    5  A    between atoms: N_7  and  C_43
    6  A    between atoms: C_9  and  N_14
    7  A    between atoms: C_12  and  C_43
    8  A    between atoms: O_13  and  C_15
    9  A    between atoms: O_13  and  C_31
   10  A    between atoms: C_21  and  C_26
   11  A    between atoms: C_23  and  C_28
   12  A    between atoms: C_23  and  C_37
   13  A    between atoms: C_26  and  C_46
   14  A    between atoms: C_31  and  C_38
                            x       y       z     vdW  Elec       q    Type
                         _______ _______ _______ _____ _____    ______ ____

>  <TORSDO>
F 14

$$$$
=
 OpenBabel11062413233D

 46 48  0  0  1  0  0  0  0  0999 V2000
  187.4530  177.6550  138.4000 C   0  0  0  0  0  0  0  0  0  0  0  0
  186.2210  178.2590  138.7180 C   0  0  0  0  0  0  0  0  0  0  0  0
  186.9510  178.4220  141.0440 C   0  0  0  0  0  0  0  0  0  0  0  0
  188.1910  177.8620  140.6630 C   0  0  0  0  0  0  0  0  0  0  0  0
  188.3920  177.4970  139.3690 N   0  0  0  0  0  0  0  0  0  0  0  0
  185.9710  178.6270  140.0560 C   0  0  0  0  0  0  0  0  0  0  0  0
  190.0820  176.2280  137.2960 C   0  0  1  0  0  3  0  0  0  0  0  0
  191.5470  176.3770  136.9140 C   0  0  0  0  0  1  0  0  0  0  0  0
  189.2400  177.3390  136.6460 C   0  0  1  0  0  3  0  0  0  0  0  0
  189.3930  177.3270  135.2560 O   0  0  0  0  0  1  0  0  0  0  0  0
  188.0850  174.7050  137.3610 C   0  0  2  0  0  3  0  0  0  0  0  0
  190.3050  173.8600  137.5950 O   0  0  0  0  0  1  0  0  0  0  0  0
  187.2260  175.7860  136.7070 C   0  0  0  0  0  2  0  0  0  0  0  0
  187.7570  177.1950  137.0000 C   0  0  1  0  0  3  0  0  0  0  0  0
  189.5500  174.8350  136.9400 C   0  0  2  0  0  3  0  0  0  0  0  0
  187.5970  173.4500  137.0020 O   0  0  0  0  0  1  0  0  0  0  0  0
  189.3270  177.7060  141.6310 C   0  0  2  0  0  3  0  0  0  0  0  0
  189.6100  179.0100  142.3570 C   0  0  0  0  0  1  0  0  0  0  0  0
  190.5520  175.9510  140.3280 O   0  0  0  0  0  0  0  0  0  0  0  0
  191.6110  177.8770  140.9750 O   0  0  0  0  0  1  0  0  0  0  0  0
  190.5570  177.1890  140.9580 C   0  0  0  0  0  0  0  0  0  0  0  0
  186.6470  178.8010  142.3630 O   0  0  0  0  0  0  0  0  0  0  0  0
  185.7860  178.0780  143.2320 C   0  0  0  0  0  2  0  0  0  0  0  0
  186.7320  177.8580  145.5880 N   0  0  0  0  0  0  0  0  0  0  0  0
  187.1450  176.2630  143.9250 O   0  0  0  0  0  0  0  0  0  0  0  0
  186.5980  177.3520  144.2490 C   0  0  0  0  0  0  0  0  0  0  0  0
  185.9790  179.0240  146.0340 C   0  0  0  0  0  2  0  0  0  0  0  0
  184.9180  178.6210  146.8460 O   0  0  0  0  0  1  0  0  0  0  0  0
  187.5190  177.1390  146.5830 C   0  0  0  0  0  2  0  0  0  0  0  0
  188.9770  177.5630  146.5180 C   0  0  1  0  0  3  0  0  0  0  0  0
  189.7480  177.0060  147.7180 C   0  0  0  0  0  2  0  0  0  0  0  0
  189.6100  177.0340  145.2340 C   0  0  0  0  0  2  0  0  0  0  0  0
  191.0910  177.4210  147.6570 O   0  0  0  0  0  0  0  0  0  0  0  0
  191.1190  177.2610  145.2570 C   0  0  1  0  0  3  0  0  0  0  0  0
  191.6800  176.7350  146.5790 C   0  0  0  0  0  2  0  0  0  0  0  0
  191.7090  176.5810  144.1930 O   0  0  0  0  0  1  0  0  0  0  0  0
  184.6470  179.2100  140.4490 C   0  0  0  0  0  2  0  0  0  0  0  0
  183.6630  178.1080  140.8000 C   0  0  0  0  0  2  0  0  0  0  0  0
  182.1300  179.4120  139.5240 O   0  0  0  0  0  0  0  0  0  0  0  0
  182.2920  178.5060  140.3840 C   0  0  0  0  0  0  0  0  0  0  0  0
  181.1900  177.8540  140.9190 O   0  0  0  0  0  1  0  0  0  0  0  0
  185.1520  178.4540  137.6720 C   0  0  0  0  0  2  0  0  0  0  0  0
  184.2800  177.2890  137.5720 N   0  0  0  0  0  2  0  0  0  0  0  0
  182.9170  175.6860  136.3500 O   0  0  0  0  0  1  0  0  0  0  0  0
  183.9150  177.4380  135.2670 O   0  0  0  0  0  0  0  0  0  0  0  0
  183.7090  176.8260  136.3480 C   0  0  0  0  0  0  0  0  0  0  0  0
  1  2  2  0  0  0  0
  1  5  1  0  0  0  0
  2  6  1  0  0  0  0
  3 22  1  0  0  0  0
  4  3  1  0  0  0  0
  4 17  1  0  0  0  0
  5  4  2  0  0  0  0
  6 37  1  0  0  0  0
  6  3  2  0  0  0  0
  7  8  1  6  0  0  0
  9 10  1  6  0  0  0
  9 14  1  0  0  0  0
  9  7  1  0  0  0  0
 11 16  1  6  0  0  0
 13 14  1  0  0  0  0
 13 11  1  0  0  0  0
 14  1  1  1  0  0  0
 15  7  1  0  0  0  0
 15 11  1  0  0  0  0
 15 12  1  1  0  0  0
 17 18  1  6  0  0  0
 19 21  2  0  0  0  0
 21 20  1  0  0  0  0
 21 17  1  0  0  0  0
 22 23  1  0  0  0  0
 23 26  1  0  0  0  0
 24 27  1  0  0  0  0
 24 29  1  0  0  0  0
 25 26  2  0  0  0  0
 26 24  1  0  0  0  0
 27 28  1  0  0  0  0
 30 29  1  1  0  0  0
 30 31  1  0  0  0  0
 32 34  1  0  0  0  0
 32 30  1  0  0  0  0
 33 31  1  0  0  0  0
 34 36  1  6  0  0  0
 34 35  1  0  0  0  0
 35 33  1  0  0  0  0
 37 38  1  0  0  0  0
 39 40  2  0  0  0  0
 40 38  1  0  0  0  0
 40 41  1  0  0  0  0
 42  2  1  0  0  0  0
 43 42  1  0  0  0  0
 45 46  2  0  0  0  0
 46 44  1  0  0  0  0
 46 43  1  0  0  0  0
M  END
>  <MODEL>
5

>  <REMARK>
 VINA RESULT:      -6.9      3.127      8.766
  Name = 
  14 active torsions:
  status: ('A' for Active; 'I' for Inactive)
    1  A    between atoms: C_3  and  N_14
    2  A    between atoms: C_4  and  C_21
    3  A    between atoms: C_5  and  C_41
    4  A    between atoms: C_6  and  C_9
    5  A    between atoms: N_7  and  C_43
    6  A    between atoms: C_9  and  N_14
    7  A    between atoms: C_12  and  C_43
    8  A    between atoms: O_13  and  C_15
    9  A    between atoms: O_13  and  C_31
   10  A    between atoms: C_21  and  C_26
   11  A    between atoms: C_23  and  C_28
   12  A    between atoms: C_23  and  C_37
   13  A    between atoms: C_26  and  C_46
   14  A    between atoms: C_31  and  C_38
                            x       y       z     vdW  Elec       q    Type
                         _______ _______ _______ _____ _____    ______ ____

>  <TORSDO>
F 14

$$$$
=
 OpenBabel11062413233D

 46 48  0  0  1  0  0  0  0  0999 V2000
  188.4990  177.4140  141.3550 C   0  0  0  0  0  0  0  0  0  0  0  0
  188.7590  177.5640  139.9790 C   0  0  0  0  0  0  0  0  0  0  0  0
  186.6290  178.7360  139.7460 C   0  0  0  0  0  0  0  0  0  0  0  0
  186.4400  178.6070  141.1410 C   0  0  0  0  0  0  0  0  0  0  0  0
  187.3690  177.9510  141.8850 N   0  0  0  0  0  0  0  0  0  0  0  0
  187.8050  178.2180  139.1740 C   0  0  0  0  0  0  0  0  0  0  0  0
  190.3890  178.5920  143.6360 C   0  0  1  0  0  3  0  0  0  0  0  0
  191.6410  179.3910  143.9660 C   0  0  0  0  0  1  0  0  0  0  0  0
  190.7000  177.5130  142.5850 C   0  0  1  0  0  3  0  0  0  0  0  0
  191.7230  176.6690  143.0290 O   0  0  0  0  0  1  0  0  0  0  0  0
  188.4930  177.2140  144.5400 C   0  0  2  0  0  3  0  0  0  0  0  0
  189.4440  179.0030  145.8000 O   0  0  0  0  0  1  0  0  0  0  0  0
  188.7840  176.1210  143.5130 C   0  0  0  0  0  2  0  0  0  0  0  0
  189.4570  176.6810  142.2540 C   0  0  1  0  0  3  0  0  0  0  0  0
  189.7630  177.9860  144.8980 C   0  0  2  0  0  3  0  0  0  0  0  0
  187.9480  176.6370  145.6850 O   0  0  0  0  0  1  0  0  0  0  0  0
  185.2670  179.2220  141.8470 C   0  0  2  0  0  3  0  0  0  0  0  0
  185.6860  179.8340  143.1720 C   0  0  0  0  0  1  0  0  0  0  0  0
  183.8630  177.3050  141.0510 O   0  0  0  0  0  0  0  0  0  0  0  0
  183.4830  178.2590  143.0990 O   0  0  0  0  0  1  0  0  0  0  0  0
  184.1600  178.2360  142.0390 C   0  0  0  0  0  0  0  0  0  0  0  0
  185.7070  179.3730  138.8970 O   0  0  0  0  0  0  0  0  0  0  0  0
  184.5720  178.7420  138.3220 C   0  0  0  0  0  2  0  0  0  0  0  0
  182.0370  178.9560  138.4860 N   0  0  0  0  0  0  0  0  0  0  0  0
  183.4780  180.7020  139.0850 O   0  0  0  0  0  0  0  0  0  0  0  0
  183.3470  179.5290  138.6420 C   0  0  0  0  0  0  0  0  0  0  0  0
  181.8630  177.5530  138.1340 C   0  0  0  0  0  2  0  0  0  0  0  0
  180.5600  177.3340  137.6870 O   0  0  0  0  0  1  0  0  0  0  0  0
  180.8430  179.7260  138.8100 C   0  0  0  0  0  2  0  0  0  0  0  0
  180.7600  179.9770  140.3080 C   0  0  1  0  0  3  0  0  0  0  0  0
  179.6720  181.0090  140.6160 C   0  0  0  0  0  2  0  0  0  0  0  0
  180.4250  178.6750  141.0290 C   0  0  0  0  0  2  0  0  0  0  0  0
  179.6170  181.2470  142.0010 O   0  0  0  0  0  0  0  0  0  0  0  0
  180.1230  178.9490  142.5000 C   0  0  1  0  0  3  0  0  0  0  0  0
  179.0990  180.0810  142.5940 C   0  0  0  0  0  2  0  0  0  0  0  0
  179.6060  177.7970  143.0920 O   0  0  0  0  0  1  0  0  0  0  0  0
  188.0130  178.3390  137.6940 C   0  0  0  0  0  2  0  0  0  0  0  0
  187.3930  177.1570  136.9710 C   0  0  0  0  0  2  0  0  0  0  0  0
  188.5940  176.6430  134.9790 O   0  0  0  0  0  1  0  0  0  0  0  0
  187.6430  177.2740  135.5100 C   0  0  0  0  0  0  0  0  0  0  0  0
  186.8040  178.0530  134.7240 O   0  0  0  0  0  0  0  0  0  0  0  0
  190.0020  176.9850  139.3500 C   0  0  0  0  0  2  0  0  0  0  0  0
  189.7650  175.6420  138.8320 N   0  0  0  0  0  2  0  0  0  0  0  0
  190.1390  173.8090  137.2750 O   0  0  0  0  0  1  0  0  0  0  0  0
  191.2080  175.8140  137.0010 O   0  0  0  0  0  0  0  0  0  0  0  0
  190.4050  175.1130  137.6700 C   0  0  0  0  0  0  0  0  0  0  0  0
  1  5  1  0  0  0  0
  2  1  2  0  0  0  0
  3  4  1  0  0  0  0
  4 17  1  0  0  0  0
  4  5  2  0  0  0  0
  6  3  2  0  0  0  0
  6  2  1  0  0  0  0
  7  8  1  1  0  0  0
  7 15  1  0  0  0  0
  9 10  1  1  0  0  0
  9  7  1  0  0  0  0
 11 15  1  0  0  0  0
 11 16  1  1  0  0  0
 13 11  1  0  0  0  0
 14  1  1  1  0  0  0
 14  9  1  0  0  0  0
 14 13  1  0  0  0  0
 15 12  1  1  0  0  0
 17 21  1  0  0  0  0
 17 18  1  1  0  0  0
 19 21  2  0  0  0  0
 21 20  1  0  0  0  0
 22  3  1  0  0  0  0
 23 26  1  0  0  0  0
 23 22  1  0  0  0  0
 24 26  1  0  0  0  0
 24 29  1  0  0  0  0
 26 25  2  0  0  0  0
 27 24  1  0  0  0  0
 28 27  1  0  0  0  0
 30 29  1  6  0  0  0
 30 31  1  0  0  0  0
 30 32  1  0  0  0  0
 31 33  1  0  0  0  0
 32 34  1  0  0  0  0
 33 35  1  0  0  0  0
 34 35  1  0  0  0  0
 34 36  1  6  0  0  0
 37  6  1  0  0  0  0
 38 37  1  0  0  0  0
 39 40  1  0  0  0  0
 40 38  1  0  0  0  0
 41 40  2  0  0  0  0
 42  2  1  0  0  0  0
 43 42  1  0  0  0  0
 44 46  1  0  0  0  0
 45 46  2  0  0  0  0
 46 43  1  0  0  0  0
M  END
>  <MODEL>
6

>  <REMARK>
 VINA RESULT:      -6.9      2.506      5.902
  Name = 
  14 active torsions:
  status: ('A' for Active; 'I' for Inactive)
    1  A    between atoms: C_3  and  N_14
    2  A    between atoms: C_4  and  C_21
    3  A    between atoms: C_5  and  C_41
    4  A    between atoms: C_6  and  C_9
    5  A    between atoms: N_7  and  C_43
    6  A    between atoms: C_9  and  N_14
    7  A    between atoms: C_12  and  C_43
    8  A    between atoms: O_13  and  C_15
    9  A    between atoms: O_13  and  C_31
   10  A    between atoms: C_21  and  C_26
   11  A    between atoms: C_23  and  C_28
   12  A    between atoms: C_23  and  C_37
   13  A    between atoms: C_26  and  C_46
   14  A    between atoms: C_31  and  C_38
                            x       y       z     vdW  Elec       q    Type
                         _______ _______ _______ _____ _____    ______ ____

>  <TORSDO>
F 14

$$$$
=
 OpenBabel11062413233D

 46 48  0  0  1  0  0  0  0  0999 V2000
  185.2950  178.0610  138.3260 C   0  0  0  0  0  0  0  0  0  0  0  0
  184.7640  178.5830  139.5210 C   0  0  0  0  0  0  0  0  0  0  0  0
  187.0220  178.6400  140.4510 C   0  0  0  0  0  0  0  0  0  0  0  0
  187.5120  178.1650  139.2130 C   0  0  0  0  0  0  0  0  0  0  0  0
  186.6380  177.8890  138.2090 N   0  0  0  0  0  0  0  0  0  0  0  0
  185.6400  178.8570  140.5910 C   0  0  0  0  0  0  0  0  0  0  0  0
  185.5640  175.6280  136.2830 C   0  0  1  0  0  3  0  0  0  0  0  0
  186.3170  175.0340  135.1020 C   0  0  0  0  0  1  0  0  0  0  0  0
  185.1820  177.0890  136.0000 C   0  0  1  0  0  3  0  0  0  0  0  0
  184.4210  177.1850  134.8300 O   0  0  0  0  0  1  0  0  0  0  0  0
  183.6180  175.3880  137.8530 C   0  0  2  0  0  3  0  0  0  0  0  0
  184.7330  173.4810  136.9510 O   0  0  0  0  0  1  0  0  0  0  0  0
  183.2080  176.8350  137.5830 C   0  0  0  0  0  2  0  0  0  0  0  0
  184.4040  177.7010  137.1690 C   0  0  1  0  0  3  0  0  0  0  0  0
  184.3360  174.7840  136.6460 C   0  0  2  0  0  3  0  0  0  0  0  0
  182.4830  174.6370  138.1550 O   0  0  0  0  0  1  0  0  0  0  0  0
  188.9790  178.0060  138.9430 C   0  0  2  0  0  3  0  0  0  0  0  0
  189.4180  178.8740  137.7770 C   0  0  0  0  0  1  0  0  0  0  0  0
  188.7890  175.8620  137.6590 O   0  0  0  0  0  0  0  0  0  0  0  0
  190.1560  176.0080  139.4920 O   0  0  0  0  0  1  0  0  0  0  0  0
  189.3450  176.5750  138.7140 C   0  0  0  0  0  0  0  0  0  0  0  0
  187.8500  178.9240  141.5510 O   0  0  0  0  0  0  0  0  0  0  0  0
  189.2000  178.4990  141.6750 C   0  0  0  0  0  2  0  0  0  0  0  0
  189.9780  177.7660  143.9880 N   0  0  0  0  0  0  0  0  0  0  0  0
  188.7630  176.3490  142.5730 O   0  0  0  0  0  0  0  0  0  0  0  0
  189.3050  177.4740  142.7520 C   0  0  0  0  0  0  0  0  0  0  0  0
  190.4670  179.1060  144.2850 C   0  0  0  0  0  2  0  0  0  0  0  0
  191.7430  179.2760  143.7460 O   0  0  0  0  0  1  0  0  0  0  0  0
  190.0680  176.7640  145.0430 C   0  0  0  0  0  2  0  0  0  0  0  0
  188.8330  176.8080  145.9280 C   0  0  1  0  0  3  0  0  0  0  0  0
  189.2220  177.1540  147.3690 C   0  0  0  0  0  2  0  0  0  0  0  0
  187.8660  177.8680  145.4100 C   0  0  0  0  0  2  0  0  0  0  0  0
  188.0750  177.1740  148.1820 O   0  0  0  0  0  0  0  0  0  0  0  0
  186.7290  178.0780  146.4060 C   0  0  1  0  0  3  0  0  0  0  0  0
  187.3230  178.2990  147.7980 C   0  0  0  0  0  2  0  0  0  0  0  0
  185.9810  179.1940  146.0320 O   0  0  0  0  0  1  0  0  0  0  0  0
  185.1070  179.3510  141.9030 C   0  0  0  0  0  2  0  0  0  0  0  0
  184.2420  178.2900  142.5600 C   0  0  0  0  0  2  0  0  0  0  0  0
  183.5400  179.6970  144.3490 O   0  0  0  0  0  1  0  0  0  0  0  0
  183.2030  178.9370  143.4020 C   0  0  0  0  0  0  0  0  0  0  0  0
  181.8590  178.7310  143.1240 O   0  0  0  0  0  0  0  0  0  0  0  0
  183.2800  178.7900  139.6930 C   0  0  0  0  0  2  0  0  0  0  0  0
  182.8450  180.0580  139.1170 N   0  0  0  0  0  2  0  0  0  0  0  0
  181.1960  181.7830  138.6390 O   0  0  0  0  0  0  0  0  0  0  0  0
  180.6010  179.8710  139.7480 O   0  0  0  0  0  1  0  0  0  0  0  0
  181.5050  180.5470  139.1900 C   0  0  0  0  0  0  0  0  0  0  0  0
  1  2  1  0  0  0  0
  2 42  1  0  0  0  0
  2  6  2  0  0  0  0
  3  6  1  0  0  0  0
  3 22  1  0  0  0  0
  4  3  2  0  0  0  0
  5  1  2  0  0  0  0
  5  4  1  0  0  0  0
  6 37  1  0  0  0  0
  7  8  1  6  0  0  0
  7 15  1  0  0  0  0
  9 10  1  6  0  0  0
  9  7  1  0  0  0  0
  9 14  1  0  0  0  0
 11 16  1  6  0  0  0
 13 11  1  0  0  0  0
 14 13  1  0  0  0  0
 14  1  1  1  0  0  0
 15 12  1  1  0  0  0
 15 11  1  0  0  0  0
 17 18  1  6  0  0  0
 17  4  1  0  0  0  0
 19 21  2  0  0  0  0
 21 17  1  0  0  0  0
 21 20  1  0  0  0  0
 22 23  1  0  0  0  0
 23 26  1  0  0  0  0
 24 27  1  0  0  0  0
 24 29  1  0  0  0  0
 25 26  2  0  0  0  0
 26 24  1  0  0  0  0
 28 27  1  0  0  0  0
 30 29  1  6  0  0  0
 30 31  1  0  0  0  0
 31 33  1  0  0  0  0
 32 30  1  0  0  0  0
 32 34  1  0  0  0  0
 34 36  1  6  0  0  0
 34 35  1  0  0  0  0
 35 33  1  0  0  0  0
 37 38  1  0  0  0  0
 38 40  1  0  0  0  0
 40 39  1  0  0  0  0
 41 40  2  0  0  0  0
 43 46  1  0  0  0  0
 43 42  1  0  0  0  0
 44 46  2  0  0  0  0
 46 45  1  0  0  0  0
M  END
>  <MODEL>
7

>  <REMARK>
 VINA RESULT:      -6.8      2.399      8.700
  Name = 
  14 active torsions:
  status: ('A' for Active; 'I' for Inactive)
    1  A    between atoms: C_3  and  N_14
    2  A    between atoms: C_4  and  C_21
    3  A    between atoms: C_5  and  C_41
    4  A    between atoms: C_6  and  C_9
    5  A    between atoms: N_7  and  C_43
    6  A    between atoms: C_9  and  N_14
    7  A    between atoms: C_12  and  C_43
    8  A    between atoms: O_13  and  C_15
    9  A    between atoms: O_13  and  C_31
   10  A    between atoms: C_21  and  C_26
   11  A    between atoms: C_23  and  C_28
   12  A    between atoms: C_23  and  C_37
   13  A    between atoms: C_26  and  C_46
   14  A    between atoms: C_31  and  C_38
                            x       y       z     vdW  Elec       q    Type
                         _______ _______ _______ _____ _____    ______ ____

>  <TORSDO>
F 14

$$$$
=
 OpenBabel11062413233D

 46 48  0  0  1  0  0  0  0  0999 V2000
  185.1980  176.7540  136.8210 C   0  0  0  0  0  0  0  0  0  0  0  0
  186.4970  176.2150  136.7530 C   0  0  0  0  0  0  0  0  0  0  0  0
  187.1290  177.6070  138.6580 C   0  0  0  0  0  0  0  0  0  0  0  0
  185.7970  178.0770  138.7180 C   0  0  0  0  0  0  0  0  0  0  0  0
  184.8920  177.6420  137.8020 N   0  0  0  0  0  0  0  0  0  0  0  0
  187.4670  176.6630  137.6730 C   0  0  0  0  0  0  0  0  0  0  0  0
  182.2890  175.5790  137.3910 C   0  0  1  0  0  3  0  0  0  0  0  0
  181.4650  174.3830  137.8440 C   0  0  0  0  0  1  0  0  0  0  0  0
  183.3080  175.1580  136.3200 C   0  0  1  0  0  3  0  0  0  0  0  0
  182.6640  174.5610  135.2320 O   0  0  0  0  0  1  0  0  0  0  0  0
  182.2470  177.9200  136.4800 C   0  0  2  0  0  3  0  0  0  0  0  0
  180.5240  177.1130  137.9200 O   0  0  0  0  0  1  0  0  0  0  0  0
  183.2510  177.5280  135.3980 C   0  0  0  0  0  2  0  0  0  0  0  0
  184.1350  176.3530  135.8340 C   0  0  1  0  0  3  0  0  0  0  0  0
  181.3940  176.7220  136.9000 C   0  0  2  0  0  3  0  0  0  0  0  0
  181.4290  178.9420  136.0010 O   0  0  0  0  0  1  0  0  0  0  0  0
  185.3260  179.0030  139.8010 C   0  0  2  0  0  3  0  0  0  0  0  0
  185.1340  178.2600  141.1110 C   0  0  0  0  0  1  0  0  0  0  0  0
  182.8310  179.2350  139.7740 O   0  0  0  0  0  1  0  0  0  0  0  0
  184.1580  180.7770  138.7200 O   0  0  0  0  0  0  0  0  0  0  0  0
  184.0780  179.7240  139.4050 C   0  0  0  0  0  0  0  0  0  0  0  0
  188.1360  178.0240  139.5460 O   0  0  0  0  0  0  0  0  0  0  0  0
  188.7730  177.1810  140.4960 C   0  0  0  0  0  2  0  0  0  0  0  0
  189.5400  177.2800  142.9240 N   0  0  0  0  0  0  0  0  0  0  0  0
  188.4560  179.0760  141.8840 O   0  0  0  0  0  0  0  0  0  0  0  0
  188.8970  177.8980  141.7960 C   0  0  0  0  0  0  0  0  0  0  0  0
  190.2030  175.9880  142.8020 C   0  0  0  0  0  2  0  0  0  0  0  0
  191.4660  176.0450  143.3910 O   0  0  0  0  0  1  0  0  0  0  0  0
  189.6690  177.9900  144.1910 C   0  0  0  0  0  2  0  0  0  0  0  0
  188.7950  177.3450  145.2550 C   0  0  1  0  0  3  0  0  0  0  0  0
  189.4100  177.5470  146.6430 C   0  0  0  0  0  2  0  0  0  0  0  0
  187.4070  177.9760  145.2320 C   0  0  0  0  0  2  0  0  0  0  0  0
  188.6030  176.9300  147.6170 O   0  0  0  0  0  0  0  0  0  0  0  0
  186.5900  177.5000  146.4300 C   0  0  1  0  0  3  0  0  0  0  0  0
  187.4190  177.6850  147.7020 C   0  0  0  0  0  2  0  0  0  0  0  0
  185.4160  178.2460  146.5220 O   0  0  0  0  0  1  0  0  0  0  0  0
  188.8790  176.1640  137.5910 C   0  0  0  0  0  2  0  0  0  0  0  0
  189.7500  177.1540  136.8380 C   0  0  0  0  0  2  0  0  0  0  0  0
  191.8120  176.3890  135.9220 O   0  0  0  0  0  0  0  0  0  0  0  0
  191.1770  176.7530  136.9470 C   0  0  0  0  0  0  0  0  0  0  0  0
  191.8210  176.8120  138.1760 O   0  0  0  0  0  1  0  0  0  0  0  0
  186.8780  175.2260  135.6800 C   0  0  0  0  0  2  0  0  0  0  0  0
  186.5590  173.8580  136.0740 N   0  0  0  0  0  2  0  0  0  0  0  0
  187.1390  171.6020  136.7820 O   0  0  0  0  0  1  0  0  0  0  0  0
  188.7710  173.1330  136.3000 O   0  0  0  0  0  0  0  0  0  0  0  0
  187.5430  172.8690  136.3840 C   0  0  0  0  0  0  0  0  0  0  0  0
  1  5  1  0  0  0  0
  2  1  2  0  0  0  0
  2  6  1  0  0  0  0
  3  4  1  0  0  0  0
  3 22  1  0  0  0  0
  4 17  1  0  0  0  0
  5  4  2  0  0  0  0
  6  3  2  0  0  0  0
  7  8  1  6  0  0  0
  9 10  1  6  0  0  0
  9  7  1  0  0  0  0
 11 16  1  6  0  0  0
 11 15  1  0  0  0  0
 13 14  1  0  0  0  0
 13 11  1  0  0  0  0
 14  9  1  0  0  0  0
 14  1  1  1  0  0  0
 15  7  1  0  0  0  0
 15 12  1  1  0  0  0
 17 18  1  1  0  0  0
 20 21  2  0  0  0  0
 21 19  1  0  0  0  0
 21 17  1  0  0  0  0
 22 23  1  0  0  0  0
 23 26  1  0  0  0  0
 24 29  1  0  0  0  0
 26 25  2  0  0  0  0
 26 24  1  0  0  0  0
 27 24  1  0  0  0  0
 27 28  1  0  0  0  0
 30 29  1  6  0  0  0
 30 31  1  0  0  0  0
 31 33  1  0  0  0  0
 32 30  1  0  0  0  0
 32 34  1  0  0  0  0
 33 35  1  0  0  0  0
 34 36  1  1  0  0  0
 34 35  1  0  0  0  0
 37  6  1  0  0  0  0
 38 40  1  0  0  0  0
 38 37  1  0  0  0  0
 39 40  2  0  0  0  0
 40 41  1  0  0  0  0
 42 43  1  0  0  0  0
 42  2  1  0  0  0  0
 43 46  1  0  0  0  0
 45 46  2  0  0  0  0
 46 44  1  0  0  0  0
M  END
>  <MODEL>
8

>  <REMARK>
 VINA RESULT:      -6.7      3.009     10.195
  Name = 
  14 active torsions:
  status: ('A' for Active; 'I' for Inactive)
    1  A    between atoms: C_3  and  N_14
    2  A    between atoms: C_4  and  C_21
    3  A    between atoms: C_5  and  C_41
    4  A    between atoms: C_6  and  C_9
    5  A    between atoms: N_7  and  C_43
    6  A    between atoms: C_9  and  N_14
    7  A    between atoms: C_12  and  C_43
    8  A    between atoms: O_13  and  C_15
    9  A    between atoms: O_13  and  C_31
   10  A    between atoms: C_21  and  C_26
   11  A    between atoms: C_23  and  C_28
   12  A    between atoms: C_23  and  C_37
   13  A    between atoms: C_26  and  C_46
   14  A    between atoms: C_31  and  C_38
                            x       y       z     vdW  Elec       q    Type
                         _______ _______ _______ _____ _____    ______ ____

>  <TORSDO>
F 14

$$$$
=
 OpenBabel11062413233D

 46 48  0  0  1  0  0  0  0  0999 V2000
  185.3570  178.0670  138.2200 C   0  0  0  0  0  0  0  0  0  0  0  0
  185.0080  178.6180  139.4680 C   0  0  0  0  0  0  0  0  0  0  0  0
  187.3520  178.4700  140.1410 C   0  0  0  0  0  0  0  0  0  0  0  0
  187.6580  177.9710  138.8550 C   0  0  0  0  0  0  0  0  0  0  0  0
  186.6580  177.7830  137.9540 N   0  0  0  0  0  0  0  0  0  0  0  0
  186.0180  178.8030  140.4350 C   0  0  0  0  0  0  0  0  0  0  0  0
  185.1960  175.6550  136.1420 C   0  0  1  0  0  3  0  0  0  0  0  0
  185.7600  175.0230  134.8780 C   0  0  0  0  0  1  0  0  0  0  0  0
  184.9050  177.1470  135.9140 C   0  0  1  0  0  3  0  0  0  0  0  0
  184.0280  177.3230  134.8390 O   0  0  0  0  0  1  0  0  0  0  0  0
  183.4240  175.5460  137.9200 C   0  0  2  0  0  3  0  0  0  0  0  0
  184.2720  173.5710  136.8830 O   0  0  0  0  0  1  0  0  0  0  0  0
  183.1060  177.0250  137.7090 C   0  0  0  0  0  2  0  0  0  0  0  0
  184.3150  177.8000  137.1680 C   0  0  1  0  0  3  0  0  0  0  0  0
  183.9520  174.9070  136.6340 C   0  0  2  0  0  3  0  0  0  0  0  0
  182.2730  174.8840  138.3430 O   0  0  0  0  0  1  0  0  0  0  0  0
  189.0680  177.6900  138.4230 C   0  0  2  0  0  3  0  0  0  0  0  0
  189.4300  178.4920  137.1850 C   0  0  0  0  0  1  0  0  0  0  0  0
  188.5430  175.5290  137.2680 O   0  0  0  0  0  0  0  0  0  0  0  0
  190.1710  175.6280  138.8770 O   0  0  0  0  0  1  0  0  0  0  0  0
  189.2960  176.2300  138.2020 C   0  0  0  0  0  0  0  0  0  0  0  0
  188.3180  178.6680  141.1430 O   0  0  0  0  0  0  0  0  0  0  0  0
  189.3040  177.7140  141.5120 C   0  0  0  0  0  2  0  0  0  0  0  0
  189.2290  177.6390  144.0580 N   0  0  0  0  0  0  0  0  0  0  0  0
  190.9410  178.7320  142.8930 O   0  0  0  0  0  0  0  0  0  0  0  0
  189.8690  178.0700  142.8450 C   0  0  0  0  0  0  0  0  0  0  0  0
  188.0850  176.7370  144.0300 C   0  0  0  0  0  2  0  0  0  0  0  0
  187.1460  177.1310  144.9840 O   0  0  0  0  0  1  0  0  0  0  0  0
  189.7910  177.9800  145.3590 C   0  0  0  0  0  2  0  0  0  0  0  0
  190.4210  176.7570  146.0060 C   0  0  1  0  0  3  0  0  0  0  0  0
  191.4210  176.1040  145.0470 C   0  0  0  0  0  2  0  0  0  0  0  0
  191.1530  177.1680  147.2800 C   0  0  0  0  0  2  0  0  0  0  0  0
  191.9850  174.9630  145.6480 O   0  0  0  0  0  0  0  0  0  0  0  0
  191.9710  175.9980  147.8190 C   0  0  1  0  0  3  0  0  0  0  0  0
  192.8190  175.4200  146.6860 C   0  0  0  0  0  2  0  0  0  0  0  0
  192.8020  176.4440  148.8460 O   0  0  0  0  0  1  0  0  0  0  0  0
  185.6770  179.3230  141.8000 C   0  0  0  0  0  2  0  0  0  0  0  0
  184.9320  178.2710  142.6010 C   0  0  0  0  0  2  0  0  0  0  0  0
  184.3370  180.1280  143.9690 O   0  0  0  0  0  0  0  0  0  0  0  0
  184.3900  178.8760  143.8450 C   0  0  0  0  0  0  0  0  0  0  0  0
  183.9090  178.0590  144.8600 O   0  0  0  0  0  1  0  0  0  0  0  0
  183.5760  178.9480  139.8050 C   0  0  0  0  0  2  0  0  0  0  0  0
  183.1590  180.2080  139.1980 N   0  0  0  0  0  2  0  0  0  0  0  0
  181.5000  181.7760  138.3530 O   0  0  0  0  0  0  0  0  0  0  0  0
  180.8740  179.7160  139.1290 O   0  0  0  0  0  1  0  0  0  0  0  0
  181.8010  180.5360  138.9000 C   0  0  0  0  0  0  0  0  0  0  0  0
  1  2  1  0  0  0  0
  2 42  1  0  0  0  0
  2  6  2  0  0  0  0
  3  6  1  0  0  0  0
  3 22  1  0  0  0  0
  4  3  2  0  0  0  0
  5  1  2  0  0  0  0
  5  4  1  0  0  0  0
  6 37  1  0  0  0  0
  7  8  1  6  0  0  0
  7 15  1  0  0  0  0
  9 10  1  6  0  0  0
  9  7  1  0  0  0  0
  9 14  1  0  0  0  0
 11 16  1  6  0  0  0
 13 11  1  0  0  0  0
 14 13  1  0  0  0  0
 14  1  1  1  0  0  0
 15 12  1  1  0  0  0
 15 11  1  0  0  0  0
 17 18  1  6  0  0  0
 17  4  1  0  0  0  0
 19 21  2  0  0  0  0
 21 17  1  0  0  0  0
 21 20  1  0  0  0  0
 22 23  1  0  0  0  0
 23 26  1  0  0  0  0
 24 29  1  0  0  0  0
 26 25  2  0  0  0  0
 26 24  1  0  0  0  0
 27 24  1  0  0  0  0
 27 28  1  0  0  0  0
 30 29  1  6  0  0  0
 30 32  1  0  0  0  0
 31 33  1  0  0  0  0
 31 30  1  0  0  0  0
 32 34  1  0  0  0  0
 33 35  1  0  0  0  0
 34 36  1  1  0  0  0
 35 34  1  0  0  0  0
 37 38  1  0  0  0  0
 38 40  1  0  0  0  0
 40 39  2  0  0  0  0
 40 41  1  0  0  0  0
 43 42  1  0  0  0  0
 44 46  2  0  0  0  0
 46 45  1  0  0  0  0
 46 43  1  0  0  0  0
M  END
>  <MODEL>
9

>  <REMARK>
 VINA RESULT:      -6.7      2.689      9.492
  Name = 
  14 active torsions:
  status: ('A' for Active; 'I' for Inactive)
    1  A    between atoms: C_3  and  N_14
    2  A    between atoms: C_4  and  C_21
    3  A    between atoms: C_5  and  C_41
    4  A    between atoms: C_6  and  C_9
    5  A    between atoms: N_7  and  C_43
    6  A    between atoms: C_9  and  N_14
    7  A    between atoms: C_12  and  C_43
    8  A    between atoms: O_13  and  C_15
    9  A    between atoms: O_13  and  C_31
   10  A    between atoms: C_21  and  C_26
   11  A    between atoms: C_23  and  C_28
   12  A    between atoms: C_23  and  C_37
   13  A    between atoms: C_26  and  C_46
   14  A    between atoms: C_31  and  C_38
                            x       y       z     vdW  Elec       q    Type
                         _______ _______ _______ _____ _____    ______ ____

>  <TORSDO>
F 14

$$$$
