=
 OpenBabel11062415303D

 37 39  0  0  1  0  0  0  0  0999 V2000
  188.1930  178.6150  138.2610 N   0  0  0  0  0  0  0  0  0  0  0  0
  187.1760  178.8200  137.4720 C   0  0  0  0  0  3  0  0  0  0  0  0
  185.8290  177.3310  136.0520 C   0  0  0  0  0  2  0  0  0  0  0  0
  186.0410  177.9020  137.2350 C   0  0  0  0  0  0  0  0  0  0  0  0
  184.7130  179.8480  139.0120 O   0  0  0  0  0  0  0  0  0  0  0  0
  184.6510  178.6150  139.2650 C   0  0  0  0  0  0  0  0  0  0  0  0
  185.1590  177.6460  138.3380 N   0  0  0  0  0  2  0  0  0  0  0  0
  184.0380  178.1360  140.5500 C   0  0  2  0  0  3  0  0  0  0  0  0
  182.2300  176.5250  139.8040 C   0  0  0  0  0  2  0  0  0  0  0  0
  182.5310  177.8790  140.4640 C   0  0  0  0  0  3  0  0  0  0  0  0
  180.8080  176.4310  139.2340 C   0  0  0  0  0  2  0  0  0  0  0  0
  179.8350  177.3170  140.0030 C   0  0  0  0  0  2  0  0  0  0  0  0
  180.2350  178.7970  139.9110 C   0  0  0  0  0  2  0  0  0  0  0  0
  181.7490  179.0240  139.8130 C   0  0  0  0  0  2  0  0  0  0  0  0
  185.5670  178.4530  142.4840 C   0  0  0  0  0  0  0  0  0  0  0  0
  183.9410  179.4560  144.0550 C   0  0  0  0  0  1  0  0  0  0  0  0
  186.7500  178.1920  142.6120 O   0  0  0  0  0  0  0  0  0  0  0  0
  184.1180  178.4180  142.9660 C   0  0  1  0  0  3  0  0  0  0  0  0
  184.3910  179.0550  141.7140 C   0  0  2  0  0  3  0  0  0  0  0  0
  188.4510  177.4080  139.0310 C   0  0  0  0  0  2  0  0  0  0  0  0
  190.7110  177.3510  140.2030 N   0  0  0  0  0  2  0  0  0  0  0  0
  190.4620  176.6830  137.9900 O   0  0  0  0  0  0  0  0  0  0  0  0
  189.9150  177.1180  139.0360 C   0  0  0  0  0  0  0  0  0  0  0  0
  190.1500  177.7460  141.4880 C   0  0  0  0  0  2  0  0  0  0  0  0
  190.0010  176.5370  142.3950 C   0  0  0  0  0  2  0  0  0  0  0  0
  191.0380  176.7140  143.8340 S   0  0  0  0  0  0  0  0  0  0  0  0
  191.8140  175.4430  144.0470 O   0  0  0  0  0  0  0  0  0  0  0  0
  191.9900  177.8560  143.6100 O   0  0  0  0  0  0  0  0  0  0  0  0
  188.4270  177.4770  147.4960 C   0  0  0  0  0  3  0  0  0  0  0  0
  190.6100  176.9770  146.5480 C   0  0  0  0  0  0  0  0  0  0  0  0
  187.8780  177.5300  146.2150 C   0  0  0  0  0  0  0  0  0  0  0  0
  190.0510  177.0290  145.2580 C   0  0  0  0  0  0  0  0  0  0  0  0
  186.4930  177.8060  146.0410 N   0  0  0  0  0  1  0  0  0  0  0  0
  188.6880  177.3080  145.1000 C   0  0  0  0  0  3  0  0  0  0  0  0
  189.7870  177.2040  147.6650 C   0  0  0  0  0  3  0  0  0  0  0  0
  192.4630  175.7070  147.5970 C   0  0  0  0  0  1  0  0  0  0  0  0
  191.9740  176.7010  146.7050 O   0  0  0  0  0  0  0  0  0  0  0  0
  1 20  1  0  0  0  0
  2  1  2  0  0  0  0
  3  4  2  0  0  0  0
  4  2  1  0  0  0  0
  4  7  1  0  0  0  0
  5  6  2  0  0  0  0
  7  6  1  0  0  0  0
  8  6  1  6  0  0  0
  9 10  1  0  0  0  0
 10  8  1  0  0  0  0
 11  9  1  0  0  0  0
 11 12  1  0  0  0  0
 13 12  1  0  0  0  0
 14 13  1  0  0  0  0
 14 10  1  0  0  0  0
 15 17  2  0  0  0  0
 15 18  1  0  0  0  0
 18 16  1  1  0  0  0
 19  8  1  6  0  0  0
 19 15  1  0  0  0  0
 19 18  1  0  0  0  0
 20 23  1  0  0  0  0
 21 24  1  0  0  0  0
 22 23  2  0  0  0  0
 23 21  1  0  0  0  0
 24 25  1  0  0  0  0
 25 26  1  0  0  0  0
 26 27  2  0  0  0  0
 26 32  1  0  0  0  0
 28 26  2  0  0  0  0
 29 35  1  0  0  0  0
 30 37  1  0  0  0  0
 30 35  2  0  0  0  0
 31 29  2  0  0  0  0
 32 30  1  0  0  0  0
 33 31  1  0  0  0  0
 34 32  2  0  0  0  0
 34 31  1  0  0  0  0
 37 36  1  0  0  0  0
M  END
>  <MODEL>
1

>  <REMARK>
 VINA RESULT:      -8.3      0.000      0.000
  Name = 
  12 active torsions:
  status: ('A' for Active; 'I' for Inactive)
    1  A    between atoms: N_1  and  C_16
    2  A    between atoms: C_5  and  O_34
    3  A    between atoms: C_6  and  C_17
    4  A    between atoms: N_13  and  C_36
    5  A    between atoms: C_15  and  C_17
    6  A    between atoms: C_16  and  C_32
    7  A    between atoms: C_17  and  C_35
    8  A    between atoms: C_19  and  S_20
    9  A    between atoms: S_20  and  C_27
   10  A    between atoms: C_21  and  N_23
   11  A    between atoms: C_21  and  C_28
   12  A    between atoms: C_27  and  C_36
                            x       y       z     vdW  Elec       q    Type
                         _______ _______ _______ _____ _____    ______ ____

>  <TORSDO>
F 12

$$$$
=
 OpenBabel11062415303D

 37 39  0  0  1  0  0  0  0  0999 V2000
  187.8990  178.2600  139.3720 N   0  0  0  0  0  0  0  0  0  0  0  0
  188.2570  178.6630  140.5580 C   0  0  0  0  0  3  0  0  0  0  0  0
  190.3530  177.4710  141.0420 C   0  0  0  0  0  2  0  0  0  0  0  0
  189.2070  177.9920  141.4720 C   0  0  0  0  0  0  0  0  0  0  0  0
  188.3600  175.6280  143.0220 O   0  0  0  0  0  0  0  0  0  0  0  0
  188.3000  176.7770  143.5370 C   0  0  0  0  0  0  0  0  0  0  0  0
  188.8450  177.9170  142.8590 N   0  0  0  0  0  2  0  0  0  0  0  0
  187.6550  176.9730  144.8790 C   0  0  2  0  0  3  0  0  0  0  0  0
  185.8530  177.9410  143.3840 C   0  0  0  0  0  2  0  0  0  0  0  0
  186.2200  177.5030  144.8100 C   0  0  0  0  0  3  0  0  0  0  0  0
  184.6730  178.9210  143.3360 C   0  0  0  0  0  2  0  0  0  0  0  0
  183.7220  178.7120  144.5100 C   0  0  0  0  0  2  0  0  0  0  0  0
  184.4270  178.9580  145.8510 C   0  0  0  0  0  2  0  0  0  0  0  0
  185.9160  178.5900  145.8450 C   0  0  0  0  0  2  0  0  0  0  0  0
  189.8220  177.0580  146.0940 C   0  0  0  0  0  0  0  0  0  0  0  0
  189.0380  178.2260  148.1280 C   0  0  0  0  0  1  0  0  0  0  0  0
  190.9260  176.6480  145.7790 O   0  0  0  0  0  0  0  0  0  0  0  0
  188.6660  177.1950  147.0820 C   0  0  1  0  0  3  0  0  0  0  0  0
  188.5280  177.8180  145.8010 C   0  0  2  0  0  3  0  0  0  0  0  0
  188.3180  177.0260  138.7230 C   0  0  0  0  0  2  0  0  0  0  0  0
  188.2710  176.6720  136.2020 N   0  0  0  0  0  2  0  0  0  0  0  0
  189.7560  178.1550  137.2010 O   0  0  0  0  0  0  0  0  0  0  0  0
  188.8210  177.3280  137.3490 C   0  0  0  0  0  0  0  0  0  0  0  0
  187.1160  175.7860  136.2620 C   0  0  0  0  0  2  0  0  0  0  0  0
  185.8520  176.5360  135.8820 C   0  0  0  0  0  2  0  0  0  0  0  0
  184.4230  175.7330  136.5810 S   0  0  0  0  0  0  0  0  0  0  0  0
  183.3220  175.6950  135.5570 O   0  0  0  0  0  0  0  0  0  0  0  0
  184.7980  174.3310  136.9730 O   0  0  0  0  0  0  0  0  0  0  0  0
  182.9630  178.0960  140.2000 C   0  0  0  0  0  3  0  0  0  0  0  0
  182.7740  176.1480  138.7560 C   0  0  0  0  0  0  0  0  0  0  0  0
  184.0410  178.5570  139.4440 C   0  0  0  0  0  0  0  0  0  0  0  0
  183.8610  176.6190  137.9950 C   0  0  0  0  0  0  0  0  0  0  0  0
  184.6830  179.7800  139.7870 N   0  0  0  0  0  1  0  0  0  0  0  0
  184.4880  177.8210  138.3460 C   0  0  0  0  0  3  0  0  0  0  0  0
  182.3320  176.8970  139.8610 C   0  0  0  0  0  3  0  0  0  0  0  0
  180.7700  174.8600  138.0740 C   0  0  0  0  0  1  0  0  0  0  0  0
  182.1500  174.9450  138.4060 O   0  0  0  0  0  0  0  0  0  0  0  0
  1  2  2  0  0  0  0
  2  4  1  0  0  0  0
  3  4  2  0  0  0  0
  4  7  1  0  0  0  0
  5  6  2  0  0  0  0
  7  6  1  0  0  0  0
  8  6  1  6  0  0  0
  9 10  1  0  0  0  0
 10  8  1  0  0  0  0
 10 14  1  0  0  0  0
 11  9  1  0  0  0  0
 11 12  1  0  0  0  0
 12 13  1  0  0  0  0
 14 13  1  0  0  0  0
 15 18  1  0  0  0  0
 17 15  2  0  0  0  0
 18 16  1  1  0  0  0
 19  8  1  6  0  0  0
 19 15  1  0  0  0  0
 19 18  1  0  0  0  0
 20  1  1  0  0  0  0
 21 24  1  0  0  0  0
 21 23  1  0  0  0  0
 22 23  2  0  0  0  0
 23 20  1  0  0  0  0
 25 24  1  0  0  0  0
 25 26  1  0  0  0  0
 26 28  2  0  0  0  0
 26 32  1  0  0  0  0
 27 26  2  0  0  0  0
 30 35  2  0  0  0  0
 31 33  1  0  0  0  0
 31 29  2  0  0  0  0
 32 34  2  0  0  0  0
 32 30  1  0  0  0  0
 34 31  1  0  0  0  0
 35 29  1  0  0  0  0
 36 37  1  0  0  0  0
 37 30  1  0  0  0  0
M  END
>  <MODEL>
2

>  <REMARK>
 VINA RESULT:      -8.0      2.780      7.571
  Name = 
  12 active torsions:
  status: ('A' for Active; 'I' for Inactive)
    1  A    between atoms: N_1  and  C_16
    2  A    between atoms: C_5  and  O_34
    3  A    between atoms: C_6  and  C_17
    4  A    between atoms: N_13  and  C_36
    5  A    between atoms: C_15  and  C_17
    6  A    between atoms: C_16  and  C_32
    7  A    between atoms: C_17  and  C_35
    8  A    between atoms: C_19  and  S_20
    9  A    between atoms: S_20  and  C_27
   10  A    between atoms: C_21  and  N_23
   11  A    between atoms: C_21  and  C_28
   12  A    between atoms: C_27  and  C_36
                            x       y       z     vdW  Elec       q    Type
                         _______ _______ _______ _____ _____    ______ ____

>  <TORSDO>
F 12

$$$$
=
 OpenBabel11062415303D

 37 39  0  0  1  0  0  0  0  0999 V2000
  191.0940  176.9500  140.2240 N   0  0  0  0  0  0  0  0  0  0  0  0
  190.6890  177.6750  141.2270 C   0  0  0  0  0  3  0  0  0  0  0  0
  188.4490  178.4700  140.5940 C   0  0  0  0  0  2  0  0  0  0  0  0
  189.2940  178.0600  141.5360 C   0  0  0  0  0  0  0  0  0  0  0  0
  188.4590  175.6770  143.0620 O   0  0  0  0  0  0  0  0  0  0  0  0
  188.3410  176.8250  143.5680 C   0  0  0  0  0  0  0  0  0  0  0  0
  188.8770  177.9790  142.9070 N   0  0  0  0  0  2  0  0  0  0  0  0
  187.6350  177.0050  144.8810 C   0  0  2  0  0  3  0  0  0  0  0  0
  185.8670  177.8950  143.2980 C   0  0  0  0  0  2  0  0  0  0  0  0
  186.1990  177.5220  144.7510 C   0  0  0  0  0  3  0  0  0  0  0  0
  184.6840  178.8650  143.1770 C   0  0  0  0  0  2  0  0  0  0  0  0
  183.7030  178.7010  144.3330 C   0  0  0  0  0  2  0  0  0  0  0  0
  184.3710  179.0100  145.6800 C   0  0  0  0  0  2  0  0  0  0  0  0
  185.8620  178.6520  145.7290 C   0  0  0  0  0  2  0  0  0  0  0  0
  189.7440  177.1020  146.1930 C   0  0  0  0  0  0  0  0  0  0  0  0
  188.8580  178.2480  148.1970 C   0  0  0  0  0  1  0  0  0  0  0  0
  190.8640  176.7040  145.9250 O   0  0  0  0  0  0  0  0  0  0  0  0
  188.5430  177.2220  147.1290 C   0  0  1  0  0  3  0  0  0  0  0  0
  188.4570  177.8520  145.8470 C   0  0  2  0  0  3  0  0  0  0  0  0
  190.2570  176.4140  139.1610 C   0  0  0  0  0  2  0  0  0  0  0  0
  190.0540  177.5050  136.8700 N   0  0  0  0  0  2  0  0  0  0  0  0
  192.0070  176.4440  137.5510 O   0  0  0  0  0  0  0  0  0  0  0  0
  190.8310  176.7870  137.8340 C   0  0  0  0  0  0  0  0  0  0  0  0
  188.7280  178.0390  137.1470 C   0  0  0  0  0  2  0  0  0  0  0  0
  187.8060  177.8130  135.9610 C   0  0  0  0  0  2  0  0  0  0  0  0
  186.7180  176.4380  136.2770 S   0  0  0  0  0  0  0  0  0  0  0  0
  186.1310  175.9590  134.9770 O   0  0  0  0  0  0  0  0  0  0  0  0
  187.5090  175.3290  136.9130 O   0  0  0  0  0  0  0  0  0  0  0  0
  183.3280  177.7880  139.0150 C   0  0  0  0  0  3  0  0  0  0  0  0
  184.3030  176.0930  137.5690 C   0  0  0  0  0  0  0  0  0  0  0  0
  184.4300  178.6150  138.7950 C   0  0  0  0  0  0  0  0  0  0  0  0
  185.4120  176.9320  137.3490 C   0  0  0  0  0  0  0  0  0  0  0  0
  184.4970  179.8950  139.4120 N   0  0  0  0  0  1  0  0  0  0  0  0
  185.4680  178.1880  137.9660 C   0  0  0  0  0  3  0  0  0  0  0  0
  183.2640  176.5320  138.4070 C   0  0  0  0  0  3  0  0  0  0  0  0
  184.5230  173.6250  137.6470 C   0  0  0  0  0  1  0  0  0  0  0  0
  184.2490  174.8360  136.9540 O   0  0  0  0  0  0  0  0  0  0  0  0
  1  2  2  0  0  0  0
  2  4  1  0  0  0  0
  3  4  2  0  0  0  0
  4  7  1  0  0  0  0
  5  6  2  0  0  0  0
  7  6  1  0  0  0  0
  8  6  1  6  0  0  0
  9 10  1  0  0  0  0
 10  8  1  0  0  0  0
 10 14  1  0  0  0  0
 11  9  1  0  0  0  0
 11 12  1  0  0  0  0
 12 13  1  0  0  0  0
 13 14  1  0  0  0  0
 15 18  1  0  0  0  0
 17 15  2  0  0  0  0
 18 16  1  1  0  0  0
 19  8  1  6  0  0  0
 19 15  1  0  0  0  0
 19 18  1  0  0  0  0
 20  1  1  0  0  0  0
 21 24  1  0  0  0  0
 21 23  1  0  0  0  0
 22 23  2  0  0  0  0
 23 20  1  0  0  0  0
 25 26  1  0  0  0  0
 25 24  1  0  0  0  0
 26 28  2  0  0  0  0
 26 32  1  0  0  0  0
 27 26  2  0  0  0  0
 30 35  1  0  0  0  0
 31 29  1  0  0  0  0
 31 33  1  0  0  0  0
 32 30  2  0  0  0  0
 32 34  1  0  0  0  0
 34 31  2  0  0  0  0
 35 29  2  0  0  0  0
 37 30  1  0  0  0  0
 37 36  1  0  0  0  0
M  END
>  <MODEL>
3

>  <REMARK>
 VINA RESULT:      -8.0      2.618      7.270
  Name = 
  12 active torsions:
  status: ('A' for Active; 'I' for Inactive)
    1  A    between atoms: N_1  and  C_16
    2  A    between atoms: C_5  and  O_34
    3  A    between atoms: C_6  and  C_17
    4  A    between atoms: N_13  and  C_36
    5  A    between atoms: C_15  and  C_17
    6  A    between atoms: C_16  and  C_32
    7  A    between atoms: C_17  and  C_35
    8  A    between atoms: C_19  and  S_20
    9  A    between atoms: S_20  and  C_27
   10  A    between atoms: C_21  and  N_23
   11  A    between atoms: C_21  and  C_28
   12  A    between atoms: C_27  and  C_36
                            x       y       z     vdW  Elec       q    Type
                         _______ _______ _______ _____ _____    ______ ____

>  <TORSDO>
F 12

$$$$
=
 OpenBabel11062415303D

 37 39  0  0  1  0  0  0  0  0999 V2000
  189.3690  176.8930  139.8090 N   0  0  0  0  0  0  0  0  0  0  0  0
  190.2910  176.4620  140.6230 C   0  0  0  0  0  3  0  0  0  0  0  0
  191.7340  177.4390  142.3580 C   0  0  0  0  0  2  0  0  0  0  0  0
  190.5540  176.9420  141.9980 C   0  0  0  0  0  0  0  0  0  0  0  0
  189.7590  178.8900  144.0660 O   0  0  0  0  0  0  0  0  0  0  0  0
  189.2180  177.7520  144.0270 C   0  0  0  0  0  0  0  0  0  0  0  0
  189.4800  176.8490  142.9450 N   0  0  0  0  0  2  0  0  0  0  0  0
  188.2820  177.3210  145.1200 C   0  0  2  0  0  3  0  0  0  0  0  0
  186.5830  177.9200  143.3380 C   0  0  0  0  0  2  0  0  0  0  0  0
  186.8060  177.6050  144.8240 C   0  0  0  0  0  3  0  0  0  0  0  0
  185.2820  178.6900  143.0700 C   0  0  0  0  0  2  0  0  0  0  0  0
  184.2180  178.3740  144.1150 C   0  0  0  0  0  2  0  0  0  0  0  0
  184.6760  178.7850  145.5220 C   0  0  0  0  0  2  0  0  0  0  0  0
  186.1900  178.6680  145.7390 C   0  0  0  0  0  2  0  0  0  0  0  0
  189.6740  176.8990  147.1360 C   0  0  0  0  0  0  0  0  0  0  0  0
  188.1470  177.8660  148.8240 C   0  0  0  0  0  1  0  0  0  0  0  0
  190.7680  176.3760  147.2490 O   0  0  0  0  0  0  0  0  0  0  0  0
  188.2100  177.0670  147.5390 C   0  0  1  0  0  3  0  0  0  0  0  0
  188.7070  177.8810  146.4730 C   0  0  2  0  0  3  0  0  0  0  0  0
  188.4400  177.9830  140.0680 C   0  0  0  0  0  2  0  0  0  0  0  0
  186.6400  178.6860  138.4090 N   0  0  0  0  0  2  0  0  0  0  0  0
  188.9000  179.0380  137.9860 O   0  0  0  0  0  0  0  0  0  0  0  0
  188.0220  178.6030  138.7750 C   0  0  0  0  0  0  0  0  0  0  0  0
  185.5520  178.3120  139.3010 C   0  0  0  0  0  2  0  0  0  0  0  0
  184.2790  179.0490  138.9220 C   0  0  0  0  0  2  0  0  0  0  0  0
  182.9810  177.8860  138.5500 S   0  0  0  0  0  0  0  0  0  0  0  0
  182.3390  178.2600  137.2410 O   0  0  0  0  0  0  0  0  0  0  0  0
  183.5760  176.5100  138.4470 O   0  0  0  0  0  0  0  0  0  0  0  0
  179.8080  178.0440  141.8240 C   0  0  0  0  0  3  0  0  0  0  0  0
  180.6230  177.0860  139.7420 C   0  0  0  0  0  0  0  0  0  0  0  0
  180.9360  178.8630  141.8930 C   0  0  0  0  0  0  0  0  0  0  0  0
  181.7580  177.9160  139.8160 C   0  0  0  0  0  0  0  0  0  0  0  0
  181.0960  179.7680  142.9800 N   0  0  0  0  0  1  0  0  0  0  0  0
  181.9070  178.7980  140.8930 C   0  0  0  0  0  3  0  0  0  0  0  0
  179.6520  177.1580  140.7560 C   0  0  0  0  0  3  0  0  0  0  0  0
  180.2080  174.8160  138.8380 C   0  0  0  0  0  1  0  0  0  0  0  0
  180.4770  176.2020  138.6670 O   0  0  0  0  0  0  0  0  0  0  0  0
  1 20  1  0  0  0  0
  1  2  2  0  0  0  0
  2  4  1  0  0  0  0
  4  3  2  0  0  0  0
  4  7  1  0  0  0  0
  6  5  2  0  0  0  0
  7  6  1  0  0  0  0
  8  6  1  6  0  0  0
  9 10  1  0  0  0  0
 10  8  1  0  0  0  0
 10 14  1  0  0  0  0
 11  9  1  0  0  0  0
 11 12  1  0  0  0  0
 12 13  1  0  0  0  0
 13 14  1  0  0  0  0
 15 17  2  0  0  0  0
 15 18  1  0  0  0  0
 18 16  1  1  0  0  0
 19  8  1  6  0  0  0
 19 15  1  0  0  0  0
 19 18  1  0  0  0  0
 21 23  1  0  0  0  0
 21 24  1  0  0  0  0
 22 23  2  0  0  0  0
 23 20  1  0  0  0  0
 25 24  1  0  0  0  0
 26 25  1  0  0  0  0
 26 32  1  0  0  0  0
 27 26  2  0  0  0  0
 28 26  2  0  0  0  0
 29 31  1  0  0  0  0
 30 32  2  0  0  0  0
 30 35  1  0  0  0  0
 31 33  1  0  0  0  0
 32 34  1  0  0  0  0
 34 31  2  0  0  0  0
 35 29  2  0  0  0  0
 37 36  1  0  0  0  0
 37 30  1  0  0  0  0
M  END
>  <MODEL>
4

>  <REMARK>
 VINA RESULT:      -7.9      2.689      7.959
  Name = 
  12 active torsions:
  status: ('A' for Active; 'I' for Inactive)
    1  A    between atoms: N_1  and  C_16
    2  A    between atoms: C_5  and  O_34
    3  A    between atoms: C_6  and  C_17
    4  A    between atoms: N_13  and  C_36
    5  A    between atoms: C_15  and  C_17
    6  A    between atoms: C_16  and  C_32
    7  A    between atoms: C_17  and  C_35
    8  A    between atoms: C_19  and  S_20
    9  A    between atoms: S_20  and  C_27
   10  A    between atoms: C_21  and  N_23
   11  A    between atoms: C_21  and  C_28
   12  A    between atoms: C_27  and  C_36
                            x       y       z     vdW  Elec       q    Type
                         _______ _______ _______ _____ _____    ______ ____

>  <TORSDO>
F 12

$$$$
=
 OpenBabel11062415303D

 37 39  0  0  1  0  0  0  0  0999 V2000
  189.3060  176.9800  139.6520 N   0  0  0  0  0  0  0  0  0  0  0  0
  190.1580  176.4630  140.4920 C   0  0  0  0  0  3  0  0  0  0  0  0
  191.6500  177.4420  142.1850 C   0  0  0  0  0  2  0  0  0  0  0  0
  190.4590  176.9460  141.8570 C   0  0  0  0  0  0  0  0  0  0  0  0
  189.7450  178.8850  143.9630 O   0  0  0  0  0  0  0  0  0  0  0  0
  189.1900  177.7530  143.9310 C   0  0  0  0  0  0  0  0  0  0  0  0
  189.4110  176.8570  142.8330 N   0  0  0  0  0  2  0  0  0  0  0  0
  188.2800  177.3240  145.0460 C   0  0  2  0  0  3  0  0  0  0  0  0
  186.5350  177.8990  143.3000 C   0  0  0  0  0  2  0  0  0  0  0  0
  186.7980  177.6070  144.7850 C   0  0  0  0  0  3  0  0  0  0  0  0
  185.2310  178.6690  143.0550 C   0  0  0  0  0  2  0  0  0  0  0  0
  184.1940  178.3740  144.1330 C   0  0  0  0  0  2  0  0  0  0  0  0
  184.6910  178.8070  145.5200 C   0  0  0  0  0  2  0  0  0  0  0  0
  186.2100  178.6880  145.6980 C   0  0  0  0  0  2  0  0  0  0  0  0
  189.7200  176.9030  147.0270 C   0  0  0  0  0  0  0  0  0  0  0  0
  188.2340  177.8700  148.7520 C   0  0  0  0  0  1  0  0  0  0  0  0
  190.8170  176.3790  147.1150 O   0  0  0  0  0  0  0  0  0  0  0  0
  188.2670  177.0700  147.4660 C   0  0  1  0  0  3  0  0  0  0  0  0
  188.7380  177.8840  146.3870 C   0  0  2  0  0  3  0  0  0  0  0  0
  188.5140  178.1820  139.8660 C   0  0  0  0  0  2  0  0  0  0  0  0
  186.4500  178.6540  138.4510 N   0  0  0  0  0  2  0  0  0  0  0  0
  188.6000  178.8780  137.5930 O   0  0  0  0  0  0  0  0  0  0  0  0
  187.8750  178.5970  138.5810 C   0  0  0  0  0  0  0  0  0  0  0  0
  185.5350  178.4540  139.5650 C   0  0  0  0  0  2  0  0  0  0  0  0
  184.3070  179.3340  139.4080 C   0  0  0  0  0  2  0  0  0  0  0  0
  182.8570  178.3310  139.1550 S   0  0  0  0  0  0  0  0  0  0  0  0
  182.5360  178.2820  137.6860 O   0  0  0  0  0  0  0  0  0  0  0  0
  183.1330  176.9420  139.6580 O   0  0  0  0  0  0  0  0  0  0  0  0
  179.3420  180.0970  141.4650 C   0  0  0  0  0  3  0  0  0  0  0  0
  180.9610  180.2730  139.6590 C   0  0  0  0  0  0  0  0  0  0  0  0
  179.8640  178.8520  141.8170 C   0  0  0  0  0  0  0  0  0  0  0  0
  181.4850  179.0170  140.0190 C   0  0  0  0  0  0  0  0  0  0  0  0
  179.3130  178.1310  142.9120 N   0  0  0  0  0  1  0  0  0  0  0  0
  180.9310  178.3140  141.0960 C   0  0  0  0  0  3  0  0  0  0  0  0
  179.8850  180.8050  140.3900 C   0  0  0  0  0  3  0  0  0  0  0  0
  180.7340  181.4660  137.4980 C   0  0  0  0  0  1  0  0  0  0  0  0
  181.5140  180.9740  138.5800 O   0  0  0  0  0  0  0  0  0  0  0  0
  1 20  1  0  0  0  0
  1  2  2  0  0  0  0
  2  4  1  0  0  0  0
  4  3  2  0  0  0  0
  4  7  1  0  0  0  0
  6  5  2  0  0  0  0
  7  6  1  0  0  0  0
  8  6  1  6  0  0  0
  9 10  1  0  0  0  0
 10  8  1  0  0  0  0
 10 14  1  0  0  0  0
 11  9  1  0  0  0  0
 11 12  1  0  0  0  0
 12 13  1  0  0  0  0
 13 14  1  0  0  0  0
 15 17  2  0  0  0  0
 15 18  1  0  0  0  0
 18 16  1  1  0  0  0
 19  8  1  6  0  0  0
 19 15  1  0  0  0  0
 19 18  1  0  0  0  0
 21 23  1  0  0  0  0
 21 24  1  0  0  0  0
 22 23  2  0  0  0  0
 23 20  1  0  0  0  0
 25 24  1  0  0  0  0
 26 25  1  0  0  0  0
 26 28  2  0  0  0  0
 26 32  1  0  0  0  0
 27 26  2  0  0  0  0
 29 31  1  0  0  0  0
 30 32  2  0  0  0  0
 30 35  1  0  0  0  0
 31 33  1  0  0  0  0
 32 34  1  0  0  0  0
 34 31  2  0  0  0  0
 35 29  2  0  0  0  0
 36 37  1  0  0  0  0
 37 30  1  0  0  0  0
M  END
>  <MODEL>
5

>  <REMARK>
 VINA RESULT:      -7.8      2.698      8.124
  Name = 
  12 active torsions:
  status: ('A' for Active; 'I' for Inactive)
    1  A    between atoms: N_1  and  C_16
    2  A    between atoms: C_5  and  O_34
    3  A    between atoms: C_6  and  C_17
    4  A    between atoms: N_13  and  C_36
    5  A    between atoms: C_15  and  C_17
    6  A    between atoms: C_16  and  C_32
    7  A    between atoms: C_17  and  C_35
    8  A    between atoms: C_19  and  S_20
    9  A    between atoms: S_20  and  C_27
   10  A    between atoms: C_21  and  N_23
   11  A    between atoms: C_21  and  C_28
   12  A    between atoms: C_27  and  C_36
                            x       y       z     vdW  Elec       q    Type
                         _______ _______ _______ _____ _____    ______ ____

>  <TORSDO>
F 12

$$$$
=
 OpenBabel11062415303D

 37 39  0  0  1  0  0  0  0  0999 V2000
  190.8030  176.8580  140.0360 N   0  0  0  0  0  0  0  0  0  0  0  0
  190.4690  177.5390  141.0960 C   0  0  0  0  0  3  0  0  0  0  0  0
  188.2430  178.4340  140.5580 C   0  0  0  0  0  2  0  0  0  0  0  0
  189.1110  177.9940  141.4650 C   0  0  0  0  0  0  0  0  0  0  0  0
  188.4300  175.6400  143.1080 O   0  0  0  0  0  0  0  0  0  0  0  0
  188.2910  176.8010  143.5780 C   0  0  0  0  0  0  0  0  0  0  0  0
  188.7560  177.9480  142.8550 N   0  0  0  0  0  2  0  0  0  0  0  0
  187.6360  177.0030  144.9140 C   0  0  2  0  0  3  0  0  0  0  0  0
  185.8360  177.9400  143.3950 C   0  0  0  0  0  2  0  0  0  0  0  0
  186.2000  177.5290  144.8300 C   0  0  0  0  0  3  0  0  0  0  0  0
  184.6550  178.9170  143.3250 C   0  0  0  0  0  2  0  0  0  0  0  0
  183.7000  178.7290  144.4990 C   0  0  0  0  0  2  0  0  0  0  0  0
  184.4010  179.0010  145.8380 C   0  0  0  0  0  2  0  0  0  0  0  0
  185.8910  178.6360  145.8430 C   0  0  0  0  0  2  0  0  0  0  0  0
  189.8170  177.1260  146.0990 C   0  0  0  0  0  0  0  0  0  0  0  0
  189.0310  178.2400  148.1630 C   0  0  0  0  0  1  0  0  0  0  0  0
  190.9260  176.7510  145.7620 O   0  0  0  0  0  0  0  0  0  0  0  0
  188.6720  177.2170  147.1060 C   0  0  1  0  0  3  0  0  0  0  0  0
  188.4990  177.8560  145.8370 C   0  0  2  0  0  3  0  0  0  0  0  0
  189.9100  176.4540  138.9610 C   0  0  0  0  0  2  0  0  0  0  0  0
  189.7360  177.5410  136.6650 N   0  0  0  0  0  2  0  0  0  0  0  0
  191.6910  176.5090  137.3860 O   0  0  0  0  0  0  0  0  0  0  0  0
  190.5040  176.8350  137.6450 C   0  0  0  0  0  0  0  0  0  0  0  0
  188.3970  178.0550  136.9150 C   0  0  0  0  0  2  0  0  0  0  0  0
  187.4570  177.6570  135.7910 C   0  0  0  0  0  2  0  0  0  0  0  0
  185.8990  177.1040  136.4560 S   0  0  0  0  0  0  0  0  0  0  0  0
  185.6180  177.8350  137.7410 O   0  0  0  0  0  0  0  0  0  0  0  0
  184.8130  177.3980  135.4590 O   0  0  0  0  0  0  0  0  0  0  0  0
  186.1180  172.6340  137.3450 C   0  0  0  0  0  3  0  0  0  0  0  0
  184.8210  174.6900  137.2520 C   0  0  0  0  0  0  0  0  0  0  0  0
  187.2420  173.3170  136.8780 C   0  0  0  0  0  0  0  0  0  0  0  0
  185.9580  175.3740  136.7820 C   0  0  0  0  0  0  0  0  0  0  0  0
  188.4710  172.6260  136.6900 N   0  0  0  0  0  1  0  0  0  0  0  0
  187.1610  174.6820  136.5960 C   0  0  0  0  0  3  0  0  0  0  0  0
  184.9130  173.3150  137.5310 C   0  0  0  0  0  3  0  0  0  0  0  0
  183.0560  175.6270  138.7170 C   0  0  0  0  0  1  0  0  0  0  0  0
  183.6180  175.3820  137.4340 O   0  0  0  0  0  0  0  0  0  0  0  0
  1  2  2  0  0  0  0
  2  4  1  0  0  0  0
  3  4  2  0  0  0  0
  4  7  1  0  0  0  0
  5  6  2  0  0  0  0
  7  6  1  0  0  0  0
  8  6  1  6  0  0  0
  9 10  1  0  0  0  0
 10  8  1  0  0  0  0
 10 14  1  0  0  0  0
 11  9  1  0  0  0  0
 11 12  1  0  0  0  0
 12 13  1  0  0  0  0
 13 14  1  0  0  0  0
 15 18  1  0  0  0  0
 17 15  2  0  0  0  0
 18 16  1  1  0  0  0
 19  8  1  6  0  0  0
 19 15  1  0  0  0  0
 19 18  1  0  0  0  0
 20  1  1  0  0  0  0
 21 24  1  0  0  0  0
 21 23  1  0  0  0  0
 22 23  2  0  0  0  0
 23 20  1  0  0  0  0
 25 26  1  0  0  0  0
 25 24  1  0  0  0  0
 26 32  1  0  0  0  0
 26 27  2  0  0  0  0
 28 26  2  0  0  0  0
 29 35  1  0  0  0  0
 30 37  1  0  0  0  0
 30 35  2  0  0  0  0
 31 29  2  0  0  0  0
 32 30  1  0  0  0  0
 33 31  1  0  0  0  0
 34 32  2  0  0  0  0
 34 31  1  0  0  0  0
 37 36  1  0  0  0  0
M  END
>  <MODEL>
6

>  <REMARK>
 VINA RESULT:      -7.7      2.953      7.650
  Name = 
  12 active torsions:
  status: ('A' for Active; 'I' for Inactive)
    1  A    between atoms: N_1  and  C_16
    2  A    between atoms: C_5  and  O_34
    3  A    between atoms: C_6  and  C_17
    4  A    between atoms: N_13  and  C_36
    5  A    between atoms: C_15  and  C_17
    6  A    between atoms: C_16  and  C_32
    7  A    between atoms: C_17  and  C_35
    8  A    between atoms: C_19  and  S_20
    9  A    between atoms: S_20  and  C_27
   10  A    between atoms: C_21  and  N_23
   11  A    between atoms: C_21  and  C_28
   12  A    between atoms: C_27  and  C_36
                            x       y       z     vdW  Elec       q    Type
                         _______ _______ _______ _____ _____    ______ ____

>  <TORSDO>
F 12

$$$$
=
 OpenBabel11062415303D

 37 39  0  0  1  0  0  0  0  0999 V2000
  189.5990  177.0270  139.3310 N   0  0  0  0  0  0  0  0  0  0  0  0
  190.3510  176.4290  140.2110 C   0  0  0  0  0  3  0  0  0  0  0  0
  191.8550  177.5090  141.8300 C   0  0  0  0  0  2  0  0  0  0  0  0
  190.6920  176.9190  141.5650 C   0  0  0  0  0  0  0  0  0  0  0  0
  189.2880  178.9710  143.1530 O   0  0  0  0  0  0  0  0  0  0  0  0
  189.1640  177.7510  143.4450 C   0  0  0  0  0  0  0  0  0  0  0  0
  189.7150  176.7330  142.5990 N   0  0  0  0  0  2  0  0  0  0  0  0
  188.4320  177.3400  144.6910 C   0  0  2  0  0  3  0  0  0  0  0  0
  186.4580  177.8950  143.2020 C   0  0  0  0  0  2  0  0  0  0  0  0
  186.9210  177.5770  144.6310 C   0  0  0  0  0  3  0  0  0  0  0  0
  185.1080  178.6240  143.1490 C   0  0  0  0  0  2  0  0  0  0  0  0
  184.2300  178.2660  144.3420 C   0  0  0  0  0  2  0  0  0  0  0  0
  184.8890  178.6830  145.6650 C   0  0  0  0  0  2  0  0  0  0  0  0
  186.4210  178.6130  145.6430 C   0  0  0  0  0  2  0  0  0  0  0  0
  190.2700  177.1310  146.3520 C   0  0  0  0  0  0  0  0  0  0  0  0
  189.0210  177.8800  148.3510 C   0  0  0  0  0  1  0  0  0  0  0  0
  191.4250  176.7690  146.2160 O   0  0  0  0  0  0  0  0  0  0  0  0
  188.9190  177.0910  147.0620 C   0  0  1  0  0  3  0  0  0  0  0  0
  189.0560  177.9620  145.9350 C   0  0  2  0  0  3  0  0  0  0  0  0
  188.9830  178.3380  139.4800 C   0  0  0  0  0  2  0  0  0  0  0  0
  187.1400  178.5080  137.7310 N   0  0  0  0  0  2  0  0  0  0  0  0
  189.2380  179.4530  137.3940 O   0  0  0  0  0  0  0  0  0  0  0  0
  188.4750  178.8060  138.1560 C   0  0  0  0  0  0  0  0  0  0  0  0
  186.1530  177.8640  138.5860 C   0  0  0  0  0  2  0  0  0  0  0  0
  184.7580  178.0400  138.0110 C   0  0  0  0  0  2  0  0  0  0  0  0
  183.7390  178.9720  139.1380 S   0  0  0  0  0  0  0  0  0  0  0  0
  183.2900  178.0750  140.2590 O   0  0  0  0  0  0  0  0  0  0  0  0
  184.5470  180.1110  139.6950 O   0  0  0  0  0  0  0  0  0  0  0  0
  180.1150  180.6480  136.9320 C   0  0  0  0  0  3  0  0  0  0  0  0
  181.4890  178.7410  137.5570 C   0  0  0  0  0  0  0  0  0  0  0  0
  180.9440  181.4920  137.6720 C   0  0  0  0  0  0  0  0  0  0  0  0
  182.3230  179.5970  138.3000 C   0  0  0  0  0  0  0  0  0  0  0  0
  180.6730  182.8880  137.7310 N   0  0  0  0  0  1  0  0  0  0  0  0
  182.0430  180.9680  138.3550 C   0  0  0  0  0  3  0  0  0  0  0  0
  180.3830  179.2790  136.8750 C   0  0  0  0  0  3  0  0  0  0  0  0
  180.9840  176.3970  138.1840 C   0  0  0  0  0  1  0  0  0  0  0  0
  181.7680  177.3700  137.5050 O   0  0  0  0  0  0  0  0  0  0  0  0
  1 20  1  0  0  0  0
  1  2  2  0  0  0  0
  2  4  1  0  0  0  0
  4  3  2  0  0  0  0
  4  7  1  0  0  0  0
  5  6  2  0  0  0  0
  7  6  1  0  0  0  0
  8  6  1  6  0  0  0
  9 10  1  0  0  0  0
 10  8  1  0  0  0  0
 10 14  1  0  0  0  0
 11  9  1  0  0  0  0
 11 12  1  0  0  0  0
 12 13  1  0  0  0  0
 14 13  1  0  0  0  0
 15 18  1  0  0  0  0
 17 15  2  0  0  0  0
 18 16  1  1  0  0  0
 19  8  1  6  0  0  0
 19 15  1  0  0  0  0
 19 18  1  0  0  0  0
 21 23  1  0  0  0  0
 21 24  1  0  0  0  0
 22 23  2  0  0  0  0
 23 20  1  0  0  0  0
 25 24  1  0  0  0  0
 25 26  1  0  0  0  0
 26 28  2  0  0  0  0
 26 27  2  0  0  0  0
 29 31  1  0  0  0  0
 30 32  2  0  0  0  0
 31 33  1  0  0  0  0
 31 34  2  0  0  0  0
 32 34  1  0  0  0  0
 32 26  1  0  0  0  0
 35 29  2  0  0  0  0
 35 30  1  0  0  0  0
 37 30  1  0  0  0  0
 37 36  1  0  0  0  0
M  END
>  <MODEL>
7

>  <REMARK>
 VINA RESULT:      -7.6      2.672      8.345
  Name = 
  12 active torsions:
  status: ('A' for Active; 'I' for Inactive)
    1  A    between atoms: N_1  and  C_16
    2  A    between atoms: C_5  and  O_34
    3  A    between atoms: C_6  and  C_17
    4  A    between atoms: N_13  and  C_36
    5  A    between atoms: C_15  and  C_17
    6  A    between atoms: C_16  and  C_32
    7  A    between atoms: C_17  and  C_35
    8  A    between atoms: C_19  and  S_20
    9  A    between atoms: S_20  and  C_27
   10  A    between atoms: C_21  and  N_23
   11  A    between atoms: C_21  and  C_28
   12  A    between atoms: C_27  and  C_36
                            x       y       z     vdW  Elec       q    Type
                         _______ _______ _______ _____ _____    ______ ____

>  <TORSDO>
F 12

$$$$
=
 OpenBabel11062415303D

 37 39  0  0  1  0  0  0  0  0999 V2000
  187.9990  178.2010  139.4470 N   0  0  0  0  0  0  0  0  0  0  0  0
  188.2810  178.6050  140.6530 C   0  0  0  0  0  3  0  0  0  0  0  0
  190.4270  177.5240  141.1750 C   0  0  0  0  0  2  0  0  0  0  0  0
  189.2540  177.9970  141.5870 C   0  0  0  0  0  0  0  0  0  0  0  0
  188.4770  175.6280  143.1660 O   0  0  0  0  0  0  0  0  0  0  0  0
  188.3740  176.7820  143.6630 C   0  0  0  0  0  0  0  0  0  0  0  0
  188.8840  177.9300  142.9720 N   0  0  0  0  0  2  0  0  0  0  0  0
  187.7120  176.9750  144.9980 C   0  0  2  0  0  3  0  0  0  0  0  0
  185.8840  177.8270  143.4640 C   0  0  0  0  0  2  0  0  0  0  0  0
  186.2730  177.4890  144.9110 C   0  0  0  0  0  3  0  0  0  0  0  0
  184.6960  178.7940  143.3650 C   0  0  0  0  0  2  0  0  0  0  0  0
  183.7620  178.6600  144.5630 C   0  0  0  0  0  2  0  0  0  0  0  0
  184.4820  179.0010  145.8750 C   0  0  0  0  0  2  0  0  0  0  0  0
  185.9740  178.6430  145.8740 C   0  0  0  0  0  2  0  0  0  0  0  0
  189.8590  177.0800  146.2470 C   0  0  0  0  0  0  0  0  0  0  0  0
  189.0360  178.2610  148.2580 C   0  0  0  0  0  1  0  0  0  0  0  0
  190.9690  176.6720  145.9530 O   0  0  0  0  0  0  0  0  0  0  0  0
  188.6860  177.2210  147.2140 C   0  0  1  0  0  3  0  0  0  0  0  0
  188.5660  177.8310  145.9260 C   0  0  2  0  0  3  0  0  0  0  0  0
  188.5470  177.0250  138.7880 C   0  0  0  0  0  2  0  0  0  0  0  0
  190.2330  176.8510  136.8880 N   0  0  0  0  0  2  0  0  0  0  0  0
  188.3480  178.2030  136.7310 O   0  0  0  0  0  0  0  0  0  0  0  0
  189.0180  177.3900  137.4190 C   0  0  0  0  0  0  0  0  0  0  0  0
  191.0150  175.8230  137.5620 C   0  0  0  0  0  2  0  0  0  0  0  0
  192.4270  176.3160  137.8220 C   0  0  0  0  0  2  0  0  0  0  0  0
  193.5330  175.7160  136.5590 S   0  0  0  0  0  0  0  0  0  0  0  0
  192.8030  175.6590  135.2450 O   0  0  0  0  0  0  0  0  0  0  0  0
  194.7010  176.6560  136.4500 O   0  0  0  0  0  0  0  0  0  0  0  0
  195.0310  171.5210  137.5460 C   0  0  0  0  0  3  0  0  0  0  0  0
  194.9710  173.8980  138.0580 C   0  0  0  0  0  0  0  0  0  0  0  0
  194.1680  171.7280  136.4680 C   0  0  0  0  0  0  0  0  0  0  0  0
  194.1020  174.1010  136.9700 C   0  0  0  0  0  0  0  0  0  0  0  0
  193.7610  170.6310  135.6580 N   0  0  0  0  0  1  0  0  0  0  0  0
  193.7050  173.0130  136.1830 C   0  0  0  0  0  3  0  0  0  0  0  0
  195.4300  172.5990  138.3390 C   0  0  0  0  0  3  0  0  0  0  0  0
  196.3690  174.8890  139.8490 C   0  0  0  0  0  1  0  0  0  0  0  0
  195.3650  174.9860  138.8460 O   0  0  0  0  0  0  0  0  0  0  0  0
  1  2  2  0  0  0  0
  2  4  1  0  0  0  0
  3  4  2  0  0  0  0
  4  7  1  0  0  0  0
  5  6  2  0  0  0  0
  7  6  1  0  0  0  0
  8  6  1  6  0  0  0
  9 10  1  0  0  0  0
 10  8  1  0  0  0  0
 10 14  1  0  0  0  0
 11  9  1  0  0  0  0
 11 12  1  0  0  0  0
 12 13  1  0  0  0  0
 14 13  1  0  0  0  0
 15 18  1  0  0  0  0
 17 15  2  0  0  0  0
 18 16  1  1  0  0  0
 19  8  1  6  0  0  0
 19 15  1  0  0  0  0
 19 18  1  0  0  0  0
 20  1  1  0  0  0  0
 21 23  1  0  0  0  0
 21 24  1  0  0  0  0
 22 23  2  0  0  0  0
 23 20  1  0  0  0  0
 24 25  1  0  0  0  0
 26 32  1  0  0  0  0
 26 25  1  0  0  0  0
 27 26  2  0  0  0  0
 28 26  2  0  0  0  0
 29 35  1  0  0  0  0
 30 35  2  0  0  0  0
 30 37  1  0  0  0  0
 31 29  2  0  0  0  0
 32 30  1  0  0  0  0
 33 31  1  0  0  0  0
 34 31  1  0  0  0  0
 34 32  2  0  0  0  0
 37 36  1  0  0  0  0
M  END
>  <MODEL>
8

>  <REMARK>
 VINA RESULT:      -7.6      4.037      7.564
  Name = 
  12 active torsions:
  status: ('A' for Active; 'I' for Inactive)
    1  A    between atoms: N_1  and  C_16
    2  A    between atoms: C_5  and  O_34
    3  A    between atoms: C_6  and  C_17
    4  A    between atoms: N_13  and  C_36
    5  A    between atoms: C_15  and  C_17
    6  A    between atoms: C_16  and  C_32
    7  A    between atoms: C_17  and  C_35
    8  A    between atoms: C_19  and  S_20
    9  A    between atoms: S_20  and  C_27
   10  A    between atoms: C_21  and  N_23
   11  A    between atoms: C_21  and  C_28
   12  A    between atoms: C_27  and  C_36
                            x       y       z     vdW  Elec       q    Type
                         _______ _______ _______ _____ _____    ______ ____

>  <TORSDO>
F 12

$$$$
=
 OpenBabel11062415303D

 37 39  0  0  1  0  0  0  0  0999 V2000
  188.4620  178.8500  137.5230 N   0  0  0  0  0  0  0  0  0  0  0  0
  187.6590  178.2980  136.6580 C   0  0  0  0  0  3  0  0  0  0  0  0
  187.2850  175.8960  137.0310 C   0  0  0  0  0  2  0  0  0  0  0  0
  186.7900  177.1220  136.8820 C   0  0  0  0  0  0  0  0  0  0  0  0
  185.2550  178.7290  138.8230 O   0  0  0  0  0  0  0  0  0  0  0  0
  184.6530  178.0170  137.9740 C   0  0  0  0  0  0  0  0  0  0  0  0
  185.3740  177.3490  136.9300 N   0  0  0  0  0  2  0  0  0  0  0  0
  183.1610  177.8590  138.0400 C   0  0  2  0  0  3  0  0  0  0  0  0
  181.8180  179.2340  139.6930 C   0  0  0  0  0  2  0  0  0  0  0  0
  182.4050  179.1700  138.2750 C   0  0  0  0  0  3  0  0  0  0  0  0
  180.6610  180.2330  139.8260 C   0  0  0  0  0  2  0  0  0  0  0  0
  180.7940  181.3820  138.8320 C   0  0  0  0  0  2  0  0  0  0  0  0
  180.7560  180.8750  137.3830 C   0  0  0  0  0  2  0  0  0  0  0  0
  181.3550  179.4740  137.2010 C   0  0  0  0  0  2  0  0  0  0  0  0
  182.9540  175.4090  138.4050 C   0  0  0  0  0  0  0  0  0  0  0  0
  180.8900  175.4310  139.7680 C   0  0  0  0  0  1  0  0  0  0  0  0
  183.6560  174.4880  138.0260 O   0  0  0  0  0  0  0  0  0  0  0  0
  181.5960  176.0800  138.5950 C   0  0  1  0  0  3  0  0  0  0  0  0
  182.7580  176.7840  139.0440 C   0  0  2  0  0  3  0  0  0  0  0  0
  188.7140  178.3830  138.8780 C   0  0  0  0  0  2  0  0  0  0  0  0
  190.6320  177.3270  140.1780 N   0  0  0  0  0  2  0  0  0  0  0  0
  190.6160  177.3880  137.8540 O   0  0  0  0  0  0  0  0  0  0  0  0
  190.0250  177.6700  138.9270 C   0  0  0  0  0  0  0  0  0  0  0  0
  189.9750  177.5130  141.4640 C   0  0  0  0  0  2  0  0  0  0  0  0
  190.1120  176.2630  142.3160 C   0  0  0  0  0  2  0  0  0  0  0  0
  191.0930  176.6060  143.7640 S   0  0  0  0  0  0  0  0  0  0  0  0
  191.9060  175.3900  144.1130 O   0  0  0  0  0  0  0  0  0  0  0  0
  192.0090  177.7600  143.4670 O   0  0  0  0  0  0  0  0  0  0  0  0
  188.3310  177.5900  147.2590 C   0  0  0  0  0  3  0  0  0  0  0  0
  190.5480  177.0190  146.4380 C   0  0  0  0  0  0  0  0  0  0  0  0
  187.8400  177.5780  145.9530 C   0  0  0  0  0  0  0  0  0  0  0  0
  190.0470  177.0070  145.1230 C   0  0  0  0  0  0  0  0  0  0  0  0
  186.4670  177.8570  145.7030 N   0  0  0  0  0  1  0  0  0  0  0  0
  188.6960  177.2890  144.8890 C   0  0  0  0  0  3  0  0  0  0  0  0
  189.6780  177.3130  147.5030 C   0  0  0  0  0  3  0  0  0  0  0  0
  192.3370  175.7690  147.6130 C   0  0  0  0  0  1  0  0  0  0  0  0
  191.9000  176.7400  146.6710 O   0  0  0  0  0  0  0  0  0  0  0  0
  1 20  1  0  0  0  0
  2  4  1  0  0  0  0
  2  1  2  0  0  0  0
  4  7  1  0  0  0  0
  4  3  2  0  0  0  0
  6  5  2  0  0  0  0
  7  6  1  0  0  0  0
  8  6  1  1  0  0  0
  8 10  1  0  0  0  0
  9 11  1  0  0  0  0
 10  9  1  0  0  0  0
 12 11  1  0  0  0  0
 13 12  1  0  0  0  0
 14 13  1  0  0  0  0
 14 10  1  0  0  0  0
 15 18  1  0  0  0  0
 15 19  1  0  0  0  0
 17 15  2  0  0  0  0
 18 19  1  0  0  0  0
 18 16  1  1  0  0  0
 19  8  1  6  0  0  0
 20 23  1  0  0  0  0
 21 24  1  0  0  0  0
 22 23  2  0  0  0  0
 23 21  1  0  0  0  0
 24 25  1  0  0  0  0
 25 26  1  0  0  0  0
 26 27  2  0  0  0  0
 26 32  1  0  0  0  0
 28 26  2  0  0  0  0
 29 35  1  0  0  0  0
 30 37  1  0  0  0  0
 30 35  2  0  0  0  0
 31 29  2  0  0  0  0
 32 30  1  0  0  0  0
 33 31  1  0  0  0  0
 34 32  2  0  0  0  0
 34 31  1  0  0  0  0
 37 36  1  0  0  0  0
M  END
>  <MODEL>
9

>  <REMARK>
 VINA RESULT:      -7.6      1.759      2.632
  Name = 
  12 active torsions:
  status: ('A' for Active; 'I' for Inactive)
    1  A    between atoms: N_1  and  C_16
    2  A    between atoms: C_5  and  O_34
    3  A    between atoms: C_6  and  C_17
    4  A    between atoms: N_13  and  C_36
    5  A    between atoms: C_15  and  C_17
    6  A    between atoms: C_16  and  C_32
    7  A    between atoms: C_17  and  C_35
    8  A    between atoms: C_19  and  S_20
    9  A    between atoms: S_20  and  C_27
   10  A    between atoms: C_21  and  N_23
   11  A    between atoms: C_21  and  C_28
   12  A    between atoms: C_27  and  C_36
                            x       y       z     vdW  Elec       q    Type
                         _______ _______ _______ _____ _____    ______ ____

>  <TORSDO>
F 12

$$$$
