=
 OpenBabel11062417013D

 26 28  0  0  1  0  0  0  0  0999 V2000
  183.7760  178.9600  145.9770 N   0  0  0  0  0  0  0  0  0  0  0  0
  185.9990  178.0480  145.8120 C   0  0  0  0  0  3  0  0  0  0  0  0
  186.8460  177.9470  143.4340 N   0  0  0  0  0  0  0  0  0  0  0  0
  184.8180  178.7770  143.8630 C   0  0  0  0  0  0  0  0  0  0  0  0
  186.3990  178.3390  142.1990 O   0  0  0  0  0  0  0  0  0  0  0  0
  183.7120  179.1410  144.6240 C   0  0  0  0  0  3  0  0  0  0  0  0
  185.9120  178.2620  144.4370 C   0  0  0  0  0  0  0  0  0  0  0  0
  185.0530  178.7810  142.3980 C   0  0  1  0  0  3  0  0  0  0  0  0
  184.8840  178.4260  146.5810 C   0  0  0  0  0  3  0  0  0  0  0  0
  187.7340  176.8000  143.5830 C   0  0  0  0  0  2  0  0  0  0  0  0
  189.1930  177.2320  143.5280 C   0  0  0  0  0  2  0  0  0  0  0  0
  191.8480  176.3480  146.0880 C   0  0  0  0  0  3  0  0  0  0  0  0
  191.2110  176.5700  144.8630 C   0  0  0  0  0  3  0  0  0  0  0  0
  191.1540  176.5570  147.2840 C   0  0  0  0  0  3  0  0  0  0  0  0
  189.8250  176.9900  147.2540 C   0  0  0  0  0  3  0  0  0  0  0  0
  189.8800  177.0040  144.8330 C   0  0  0  0  0  0  0  0  0  0  0  0
  189.1880  177.2120  146.0300 C   0  0  0  0  0  3  0  0  0  0  0  0
  184.1380  177.8550  141.7500 N   0  0  0  0  0  2  0  0  0  0  0  0
  183.1510  178.6530  141.0370 C   0  0  2  0  0  3  0  0  0  0  0  0
  181.8850  178.4210  141.5780 O   0  0  0  0  0  1  0  0  0  0  0  0
  183.1450  178.3150  139.5500 C   0  0  2  0  0  3  0  0  0  0  0  0
  183.0820  176.9340  139.3470 O   0  0  0  0  0  1  0  0  0  0  0  0
  184.6530  180.1020  139.0390 O   0  0  0  0  0  0  0  0  0  0  0  0
  184.3330  178.8950  138.8530 C   0  0  0  0  0  0  0  0  0  0  0  0
  185.0680  178.0870  137.9870 O   0  0  0  0  0  0  0  0  0  0  0  0
  186.4870  178.0620  138.0060 C   0  0  0  0  0  1  0  0  0  0  0  0
  1  9  1  0  0  0  0
  2  9  2  0  0  0  0
  3 10  1  0  0  0  0
  3  7  1  0  0  0  0
  4  7  2  0  0  0  0
  4  6  1  0  0  0  0
  5  8  1  0  0  0  0
  5  3  1  0  0  0  0
  6  1  2  0  0  0  0
  7  2  1  0  0  0  0
  8 18  1  6  0  0  0
  8  4  1  0  0  0  0
 11 10  1  0  0  0  0
 11 16  1  0  0  0  0
 12 14  1  0  0  0  0
 13 12  2  0  0  0  0
 15 14  2  0  0  0  0
 16 13  1  0  0  0  0
 16 17  2  0  0  0  0
 17 15  1  0  0  0  0
 19 20  1  1  0  0  0
 19 18  1  0  0  0  0
 21 22  1  1  0  0  0
 21 19  1  0  0  0  0
 24 23  2  0  0  0  0
 24 21  1  0  0  0  0
 25 26  1  0  0  0  0
 25 24  1  0  0  0  0
M  END
>  <MODEL>
1

>  <REMARK>
 VINA RESULT:      -8.2      0.000      0.000
  Name = 
  8 active torsions:
  status: ('A' for Active; 'I' for Inactive)
    1  A    between atoms: O_2  and  C_17
    2  A    between atoms: C_7  and  C_15
    3  A    between atoms: C_7  and  C_24
    4  A    between atoms: C_8  and  C_12
    5  A    between atoms: C_8  and  C_17
    6  A    between atoms: N_10  and  C_15
    7  A    between atoms: C_12  and  N_21
    8  A    between atoms: N_21  and  C_22
                            x       y       z     vdW  Elec       q    Type
                         _______ _______ _______ _____ _____    ______ ____

>  <TORSDO>
F 8

$$$$
=
 OpenBabel11062417013D

 26 28  0  0  1  0  0  0  0  0999 V2000
  183.7610  178.9850  145.9640 N   0  0  0  0  0  0  0  0  0  0  0  0
  185.9720  178.0470  145.7790 C   0  0  0  0  0  3  0  0  0  0  0  0
  186.8060  177.9590  143.3960 N   0  0  0  0  0  0  0  0  0  0  0  0
  184.7900  178.8100  143.8430 C   0  0  0  0  0  0  0  0  0  0  0  0
  186.3570  178.3690  142.1670 O   0  0  0  0  0  0  0  0  0  0  0  0
  183.6920  179.1800  144.6130 C   0  0  0  0  0  3  0  0  0  0  0  0
  185.8810  178.2760  144.4060 C   0  0  0  0  0  0  0  0  0  0  0  0
  185.0170  178.8260  142.3770 C   0  0  1  0  0  3  0  0  0  0  0  0
  184.8650  178.4310  146.5570 C   0  0  0  0  0  3  0  0  0  0  0  0
  187.6800  176.8010  143.5280 C   0  0  0  0  0  2  0  0  0  0  0  0
  189.1440  177.2150  143.4710 C   0  0  0  0  0  2  0  0  0  0  0  0
  191.8030  176.4120  146.0540 C   0  0  0  0  0  3  0  0  0  0  0  0
  191.1720  176.6220  144.8240 C   0  0  0  0  0  3  0  0  0  0  0  0
  191.0860  176.5750  147.2430 C   0  0  0  0  0  3  0  0  0  0  0  0
  189.7400  176.9500  147.2030 C   0  0  0  0  0  3  0  0  0  0  0  0
  189.8240  177.0000  144.7820 C   0  0  0  0  0  0  0  0  0  0  0  0
  189.1090  177.1610  145.9730 C   0  0  0  0  0  3  0  0  0  0  0  0
  184.0880  177.9180  141.7240 N   0  0  0  0  0  2  0  0  0  0  0  0
  183.0230  178.7290  141.1530 C   0  0  2  0  0  3  0  0  0  0  0  0
  181.8030  178.3700  141.7280 O   0  0  0  0  0  1  0  0  0  0  0  0
  182.9510  178.5490  139.6400 C   0  0  2  0  0  3  0  0  0  0  0  0
  183.8690  177.5910  139.2020 O   0  0  0  0  0  1  0  0  0  0  0  0
  184.2730  180.4370  138.9970 O   0  0  0  0  0  0  0  0  0  0  0  0
  183.1610  179.8440  138.9250 C   0  0  0  0  0  0  0  0  0  0  0  0
  182.1060  180.3920  138.1950 O   0  0  0  0  0  0  0  0  0  0  0  0
  181.6340  181.7090  138.4310 C   0  0  0  0  0  1  0  0  0  0  0  0
  1  9  1  0  0  0  0
  2  9  2  0  0  0  0
  3 10  1  0  0  0  0
  3  7  1  0  0  0  0
  4  7  2  0  0  0  0
  4  6  1  0  0  0  0
  5  8  1  0  0  0  0
  5  3  1  0  0  0  0
  6  1  2  0  0  0  0
  7  2  1  0  0  0  0
  8 18  1  6  0  0  0
  8  4  1  0  0  0  0
 11 10  1  0  0  0  0
 11 16  1  0  0  0  0
 12 14  1  0  0  0  0
 13 12  2  0  0  0  0
 15 14  2  0  0  0  0
 16 13  1  0  0  0  0
 16 17  2  0  0  0  0
 17 15  1  0  0  0  0
 19 18  1  0  0  0  0
 19 20  1  1  0  0  0
 21 22  1  6  0  0  0
 21 19  1  0  0  0  0
 24 23  2  0  0  0  0
 24 21  1  0  0  0  0
 25 26  1  0  0  0  0
 25 24  1  0  0  0  0
M  END
>  <MODEL>
2

>  <REMARK>
 VINA RESULT:      -8.1      1.004      1.455
  Name = 
  8 active torsions:
  status: ('A' for Active; 'I' for Inactive)
    1  A    between atoms: O_2  and  C_17
    2  A    between atoms: C_7  and  C_15
    3  A    between atoms: C_7  and  C_24
    4  A    between atoms: C_8  and  C_12
    5  A    between atoms: C_8  and  C_17
    6  A    between atoms: N_10  and  C_15
    7  A    between atoms: C_12  and  N_21
    8  A    between atoms: N_21  and  C_22
                            x       y       z     vdW  Elec       q    Type
                         _______ _______ _______ _____ _____    ______ ____

>  <TORSDO>
F 8

$$$$
=
 OpenBabel11062417013D

 26 28  0  0  1  0  0  0  0  0999 V2000
  184.1720  178.8720  141.1440 N   0  0  0  0  0  0  0  0  0  0  0  0
  185.2630  177.9810  143.0970 C   0  0  0  0  0  3  0  0  0  0  0  0
  187.7760  177.8860  142.8630 N   0  0  0  0  0  0  0  0  0  0  0  0
  186.5290  178.6980  141.1980 C   0  0  0  0  0  0  0  0  0  0  0  0
  188.7060  178.2730  141.9320 O   0  0  0  0  0  0  0  0  0  0  0  0
  185.3710  179.0520  140.5120 C   0  0  0  0  0  3  0  0  0  0  0  0
  186.4720  178.1930  142.4360 C   0  0  0  0  0  0  0  0  0  0  0  0
  187.9560  178.7030  140.7920 C   0  0  1  0  0  3  0  0  0  0  0  0
  184.0940  178.3490  142.4070 C   0  0  0  0  0  3  0  0  0  0  0  0
  188.0200  176.7480  143.7400 C   0  0  0  0  0  2  0  0  0  0  0  0
  189.2100  177.0100  144.6520 C   0  0  0  0  0  2  0  0  0  0  0  0
  187.0370  178.2240  147.5140 C   0  0  0  0  0  3  0  0  0  0  0  0
  187.4410  177.8120  146.2400 C   0  0  0  0  0  3  0  0  0  0  0  0
  187.9630  178.2680  148.5600 C   0  0  0  0  0  3  0  0  0  0  0  0
  189.2920  177.8990  148.3330 C   0  0  0  0  0  3  0  0  0  0  0  0
  188.7720  177.4400  146.0120 C   0  0  0  0  0  0  0  0  0  0  0  0
  189.6970  177.4860  147.0610 C   0  0  0  0  0  3  0  0  0  0  0  0
  188.1610  177.7680  139.6970 N   0  0  0  0  0  2  0  0  0  0  0  0
  189.0060  178.4330  138.7160 C   0  0  2  0  0  3  0  0  0  0  0  0
  188.2070  179.1070  137.7910 O   0  0  0  0  0  1  0  0  0  0  0  0
  189.8950  177.4280  137.9910 C   0  0  2  0  0  3  0  0  0  0  0  0
  189.1310  176.4780  137.3090 O   0  0  0  0  0  1  0  0  0  0  0  0
  190.9060  175.5010  138.9890 O   0  0  0  0  0  0  0  0  0  0  0  0
  190.8460  176.7610  138.9320 C   0  0  0  0  0  0  0  0  0  0  0  0
  191.6480  177.5520  139.7540 O   0  0  0  0  0  0  0  0  0  0  0  0
  191.7660  177.3080  141.1470 C   0  0  0  0  0  1  0  0  0  0  0  0
  1  9  1  0  0  0  0
  3 10  1  0  0  0  0
  4  7  2  0  0  0  0
  5  3  1  0  0  0  0
  6  1  2  0  0  0  0
  6  4  1  0  0  0  0
  7  3  1  0  0  0  0
  7  2  1  0  0  0  0
  8 18  1  6  0  0  0
  8  4  1  0  0  0  0
  8  5  1  0  0  0  0
  9  2  2  0  0  0  0
 10 11  1  0  0  0  0
 11 16  1  0  0  0  0
 12 14  1  0  0  0  0
 13 12  2  0  0  0  0
 15 14  2  0  0  0  0
 16 13  1  0  0  0  0
 16 17  2  0  0  0  0
 17 15  1  0  0  0  0
 19 20  1  6  0  0  0
 19 18  1  0  0  0  0
 21 22  1  1  0  0  0
 21 19  1  0  0  0  0
 21 24  1  0  0  0  0
 24 23  2  0  0  0  0
 24 25  1  0  0  0  0
 25 26  1  0  0  0  0
M  END
>  <MODEL>
3

>  <REMARK>
 VINA RESULT:      -8.0      2.900      4.670
  Name = 
  8 active torsions:
  status: ('A' for Active; 'I' for Inactive)
    1  A    between atoms: O_2  and  C_17
    2  A    between atoms: C_7  and  C_15
    3  A    between atoms: C_7  and  C_24
    4  A    between atoms: C_8  and  C_12
    5  A    between atoms: C_8  and  C_17
    6  A    between atoms: N_10  and  C_15
    7  A    between atoms: C_12  and  N_21
    8  A    between atoms: N_21  and  C_22
                            x       y       z     vdW  Elec       q    Type
                         _______ _______ _______ _____ _____    ______ ____

>  <TORSDO>
F 8

$$$$
=
 OpenBabel11062417013D

 26 28  0  0  1  0  0  0  0  0999 V2000
  191.6510  177.0410  146.2870 N   0  0  0  0  0  0  0  0  0  0  0  0
  189.2450  177.0960  146.3710 C   0  0  0  0  0  3  0  0  0  0  0  0
  188.1730  176.7090  144.1170 N   0  0  0  0  0  0  0  0  0  0  0  0
  190.3970  176.6810  144.3150 C   0  0  0  0  0  0  0  0  0  0  0  0
  188.5990  176.4060  142.8490 O   0  0  0  0  0  0  0  0  0  0  0  0
  191.6340  176.7900  144.9430 C   0  0  0  0  0  3  0  0  0  0  0  0
  189.2580  176.8210  145.0040 C   0  0  0  0  0  0  0  0  0  0  0  0
  190.0270  176.4820  142.8920 C   0  0  1  0  0  3  0  0  0  0  0  0
  190.4960  177.1960  147.0060 C   0  0  0  0  0  3  0  0  0  0  0  0
  186.9540  177.4770  144.3350 C   0  0  0  0  0  2  0  0  0  0  0  0
  186.3650  177.9500  143.0140 C   0  0  0  0  0  2  0  0  0  0  0  0
  183.0500  178.9550  144.5580 C   0  0  0  0  0  3  0  0  0  0  0  0
  184.3990  178.6100  144.4250 C   0  0  0  0  0  3  0  0  0  0  0  0
  182.2300  179.0160  143.4270 C   0  0  0  0  0  3  0  0  0  0  0  0
  182.7580  178.7350  142.1640 C   0  0  0  0  0  3  0  0  0  0  0  0
  184.9290  178.3290  143.1600 C   0  0  0  0  0  0  0  0  0  0  0  0
  184.1060  178.3900  142.0300 C   0  0  0  0  0  3  0  0  0  0  0  0
  190.4750  177.6180  142.1030 N   0  0  0  0  0  2  0  0  0  0  0  0
  190.9990  177.0920  140.8510 C   0  0  2  0  0  3  0  0  0  0  0  0
  192.3310  177.4820  140.7010 O   0  0  0  0  0  1  0  0  0  0  0  0
  190.1810  177.5900  139.6640 C   0  0  2  0  0  3  0  0  0  0  0  0
  188.9800  178.1660  140.0860 O   0  0  0  0  0  1  0  0  0  0  0  0
  188.9750  176.5940  137.8520 O   0  0  0  0  0  0  0  0  0  0  0  0
  189.9230  176.4950  138.6800 C   0  0  0  0  0  0  0  0  0  0  0  0
  190.7340  175.3610  138.7030 O   0  0  0  0  0  0  0  0  0  0  0  0
  191.5510  174.9990  137.6010 C   0  0  0  0  0  1  0  0  0  0  0  0
  1  9  1  0  0  0  0
  2  9  2  0  0  0  0
  3 10  1  0  0  0  0
  3  7  1  0  0  0  0
  4  6  1  0  0  0  0
  4  7  2  0  0  0  0
  5  8  1  0  0  0  0
  5  3  1  0  0  0  0
  6  1  2  0  0  0  0
  7  2  1  0  0  0  0
  8 18  1  6  0  0  0
  8  4  1  0  0  0  0
 11 16  1  0  0  0  0
 11 10  1  0  0  0  0
 13 12  1  0  0  0  0
 14 12  2  0  0  0  0
 15 14  1  0  0  0  0
 16 13  2  0  0  0  0
 17 15  2  0  0  0  0
 17 16  1  0  0  0  0
 19 20  1  6  0  0  0
 19 18  1  0  0  0  0
 21 22  1  1  0  0  0
 21 19  1  0  0  0  0
 23 24  2  0  0  0  0
 24 25  1  0  0  0  0
 24 21  1  0  0  0  0
 26 25  1  0  0  0  0
M  END
>  <MODEL>
4

>  <REMARK>
 VINA RESULT:      -7.9      3.153      6.557
  Name = 
  8 active torsions:
  status: ('A' for Active; 'I' for Inactive)
    1  A    between atoms: O_2  and  C_17
    2  A    between atoms: C_7  and  C_15
    3  A    between atoms: C_7  and  C_24
    4  A    between atoms: C_8  and  C_12
    5  A    between atoms: C_8  and  C_17
    6  A    between atoms: N_10  and  C_15
    7  A    between atoms: C_12  and  N_21
    8  A    between atoms: N_21  and  C_22
                            x       y       z     vdW  Elec       q    Type
                         _______ _______ _______ _____ _____    ______ ____

>  <TORSDO>
F 8

$$$$
=
 OpenBabel11062417013D

 26 28  0  0  1  0  0  0  0  0999 V2000
  189.5510  177.7950  148.0530 N   0  0  0  0  0  0  0  0  0  0  0  0
  187.2130  178.1810  147.6200 C   0  0  0  0  0  3  0  0  0  0  0  0
  186.5170  177.4860  145.2930 N   0  0  0  0  0  0  0  0  0  0  0  0
  188.6310  177.2090  145.9560 C   0  0  0  0  0  0  0  0  0  0  0  0
  187.1080  176.8780  144.2160 O   0  0  0  0  0  0  0  0  0  0  0  0
  189.7350  177.2800  146.8010 C   0  0  0  0  0  3  0  0  0  0  0  0
  187.4270  177.6340  146.3550 C   0  0  0  0  0  0  0  0  0  0  0  0
  188.4970  176.7730  144.5440 C   0  0  1  0  0  3  0  0  0  0  0  0
  188.3270  178.2440  148.4760 C   0  0  0  0  0  3  0  0  0  0  0  0
  185.4260  178.4360  145.1140 C   0  0  0  0  0  2  0  0  0  0  0  0
  185.3050  178.8570  143.6560 C   0  0  0  0  0  2  0  0  0  0  0  0
  182.2800  178.5310  141.3920 C   0  0  0  0  0  3  0  0  0  0  0  0
  183.6070  178.5770  141.8310 C   0  0  0  0  0  3  0  0  0  0  0  0
  181.2360  178.7070  142.3050 C   0  0  0  0  0  3  0  0  0  0  0  0
  181.5180  178.9270  143.6570 C   0  0  0  0  0  3  0  0  0  0  0  0
  183.8910  178.7960  143.1850 C   0  0  0  0  0  0  0  0  0  0  0  0
  182.8440  178.9720  144.0960 C   0  0  0  0  0  3  0  0  0  0  0  0
  189.2650  177.6550  143.6810 N   0  0  0  0  0  2  0  0  0  0  0  0
  189.8310  176.8340  142.6210 C   0  0  2  0  0  3  0  0  0  0  0  0
  189.8030  175.4920  143.0040 O   0  0  0  0  0  1  0  0  0  0  0  0
  191.2670  177.2510  142.3140 C   0  0  2  0  0  3  0  0  0  0  0  0
  191.6190  178.4020  143.0230 O   0  0  0  0  0  1  0  0  0  0  0  0
  192.6440  177.5400  140.3780 O   0  0  0  0  0  0  0  0  0  0  0  0
  191.4760  177.4510  140.8480 C   0  0  0  0  0  0  0  0  0  0  0  0
  190.3620  177.5550  140.0150 O   0  0  0  0  0  0  0  0  0  0  0  0
  190.1620  176.6790  138.9160 C   0  0  0  0  0  1  0  0  0  0  0  0
  1  9  1  0  0  0  0
  2  9  2  0  0  0  0
  3  7  1  0  0  0  0
  4  7  2  0  0  0  0
  4  6  1  0  0  0  0
  5  8  1  0  0  0  0
  5  3  1  0  0  0  0
  6  1  2  0  0  0  0
  7  2  1  0  0  0  0
  8 18  1  6  0  0  0
  8  4  1  0  0  0  0
 10  3  1  0  0  0  0
 11 10  1  0  0  0  0
 12 13  2  0  0  0  0
 12 14  1  0  0  0  0
 13 16  1  0  0  0  0
 14 15  2  0  0  0  0
 15 17  1  0  0  0  0
 16 11  1  0  0  0  0
 16 17  2  0  0  0  0
 19 20  1  1  0  0  0
 19 18  1  0  0  0  0
 21 19  1  0  0  0  0
 21 22  1  1  0  0  0
 23 24  2  0  0  0  0
 24 21  1  0  0  0  0
 25 24  1  0  0  0  0
 26 25  1  0  0  0  0
M  END
>  <MODEL>
5

>  <REMARK>
 VINA RESULT:      -7.9      3.079      6.729
  Name = 
  8 active torsions:
  status: ('A' for Active; 'I' for Inactive)
    1  A    between atoms: O_2  and  C_17
    2  A    between atoms: C_7  and  C_15
    3  A    between atoms: C_7  and  C_24
    4  A    between atoms: C_8  and  C_12
    5  A    between atoms: C_8  and  C_17
    6  A    between atoms: N_10  and  C_15
    7  A    between atoms: C_12  and  N_21
    8  A    between atoms: N_21  and  C_22
                            x       y       z     vdW  Elec       q    Type
                         _______ _______ _______ _____ _____    ______ ____

>  <TORSDO>
F 8

$$$$
=
 OpenBabel11062417013D

 26 28  0  0  1  0  0  0  0  0999 V2000
  184.2610  178.9060  145.9320 N   0  0  0  0  0  0  0  0  0  0  0  0
  184.4570  179.0000  143.5330 C   0  0  0  0  0  3  0  0  0  0  0  0
  186.5180  177.8220  142.6680 N   0  0  0  0  0  0  0  0  0  0  0  0
  186.0890  177.8580  144.8590 C   0  0  0  0  0  0  0  0  0  0  0  0
  187.5370  177.0750  143.2020 O   0  0  0  0  0  0  0  0  0  0  0  0
  185.4160  178.1820  146.0330 C   0  0  0  0  0  3  0  0  0  0  0  0
  185.6220  178.2450  143.6660 C   0  0  0  0  0  0  0  0  0  0  0  0
  187.3730  177.1550  144.6210 C   0  0  1  0  0  3  0  0  0  0  0  0
  183.7730  179.3180  144.7200 C   0  0  0  0  0  3  0  0  0  0  0  0
  186.7220  178.6230  141.4680 C   0  0  0  0  0  2  0  0  0  0  0  0
  188.0800  178.3310  140.8450 C   0  0  0  0  0  2  0  0  0  0  0  0
  189.0860  178.6850  137.2050 C   0  0  0  0  0  3  0  0  0  0  0  0
  189.1560  178.6560  138.6020 C   0  0  0  0  0  3  0  0  0  0  0  0
  187.8750  178.4140  136.5600 C   0  0  0  0  0  3  0  0  0  0  0  0
  186.7350  178.1130  137.3110 C   0  0  0  0  0  3  0  0  0  0  0  0
  188.0140  178.3530  139.3540 C   0  0  0  0  0  0  0  0  0  0  0  0
  186.8040  178.0840  138.7060 C   0  0  0  0  0  3  0  0  0  0  0  0
  188.4690  177.9220  145.1910 N   0  0  0  0  0  2  0  0  0  0  0  0
  189.6280  177.0430  145.2460 C   0  0  2  0  0  3  0  0  0  0  0  0
  190.0120  176.8580  146.5750 O   0  0  0  0  0  1  0  0  0  0  0  0
  190.7920  177.6250  144.4500 C   0  0  2  0  0  3  0  0  0  0  0  0
  190.5080  178.9230  144.0170 O   0  0  0  0  0  1  0  0  0  0  0  0
  190.6170  175.6170  143.1610 O   0  0  0  0  0  0  0  0  0  0  0  0
  191.1540  176.7510  143.2930 C   0  0  0  0  0  0  0  0  0  0  0  0
  192.1030  177.2030  142.3760 O   0  0  0  0  0  0  0  0  0  0  0  0
  191.7690  177.4760  141.0240 C   0  0  0  0  0  1  0  0  0  0  0  0
  1  6  1  0  0  0  0
  2  7  2  0  0  0  0
  2  9  1  0  0  0  0
  3  5  1  0  0  0  0
  3  7  1  0  0  0  0
  4  6  2  0  0  0  0
  5  8  1  0  0  0  0
  7  4  1  0  0  0  0
  8  4  1  0  0  0  0
  8 18  1  1  0  0  0
  9  1  2  0  0  0  0
 10  3  1  0  0  0  0
 11 10  1  0  0  0  0
 12 13  1  0  0  0  0
 13 16  2  0  0  0  0
 14 12  2  0  0  0  0
 14 15  1  0  0  0  0
 15 17  2  0  0  0  0
 16 11  1  0  0  0  0
 17 16  1  0  0  0  0
 18 19  1  0  0  0  0
 19 20  1  1  0  0  0
 21 22  1  6  0  0  0
 21 19  1  0  0  0  0
 23 24  2  0  0  0  0
 24 21  1  0  0  0  0
 25 24  1  0  0  0  0
 26 25  1  0  0  0  0
M  END
>  <MODEL>
6

>  <REMARK>
 VINA RESULT:      -7.8      2.827      6.607
  Name = 
  8 active torsions:
  status: ('A' for Active; 'I' for Inactive)
    1  A    between atoms: O_2  and  C_17
    2  A    between atoms: C_7  and  C_15
    3  A    between atoms: C_7  and  C_24
    4  A    between atoms: C_8  and  C_12
    5  A    between atoms: C_8  and  C_17
    6  A    between atoms: N_10  and  C_15
    7  A    between atoms: C_12  and  N_21
    8  A    between atoms: N_21  and  C_22
                            x       y       z     vdW  Elec       q    Type
                         _______ _______ _______ _____ _____    ______ ____

>  <TORSDO>
F 8

$$$$
=
 OpenBabel11062417013D

 26 28  0  0  1  0  0  0  0  0999 V2000
  190.0150  177.7780  147.7890 N   0  0  0  0  0  0  0  0  0  0  0  0
  187.6570  178.1810  148.0670 C   0  0  0  0  0  3  0  0  0  0  0  0
  186.3070  177.5640  146.0230 N   0  0  0  0  0  0  0  0  0  0  0  0
  188.5190  177.2620  146.0330 C   0  0  0  0  0  0  0  0  0  0  0  0
  186.5520  176.9900  144.8020 O   0  0  0  0  0  0  0  0  0  0  0  0
  189.8210  177.3040  146.5220 C   0  0  0  0  0  3  0  0  0  0  0  0
  187.4880  177.6750  146.7780 C   0  0  0  0  0  0  0  0  0  0  0  0
  187.9750  176.8730  144.7080 C   0  0  1  0  0  3  0  0  0  0  0  0
  188.9720  178.2140  148.5630 C   0  0  0  0  0  3  0  0  0  0  0  0
  185.2210  178.5210  146.1980 C   0  0  0  0  0  2  0  0  0  0  0  0
  185.2410  179.5730  145.0980 C   0  0  0  0  0  2  0  0  0  0  0  0
  181.9750  178.9610  143.2700 C   0  0  0  0  0  3  0  0  0  0  0  0
  182.8880  179.2710  144.2830 C   0  0  0  0  0  3  0  0  0  0  0  0
  182.4350  178.6280  141.9930 C   0  0  0  0  0  3  0  0  0  0  0  0
  183.8080  178.6080  141.7270 C   0  0  0  0  0  3  0  0  0  0  0  0
  184.2630  179.2520  144.0180 C   0  0  0  0  0  0  0  0  0  0  0  0
  184.7210  178.9180  142.7390 C   0  0  0  0  0  3  0  0  0  0  0  0
  188.4690  177.7810  143.6860 N   0  0  0  0  0  2  0  0  0  0  0  0
  188.7610  176.9820  142.5050 C   0  0  2  0  0  3  0  0  0  0  0  0
  188.7600  175.6280  142.8440 O   0  0  0  0  0  1  0  0  0  0  0  0
  190.1130  177.3620  141.9090 C   0  0  2  0  0  3  0  0  0  0  0  0
  190.4010  176.5900  140.7800 O   0  0  0  0  0  1  0  0  0  0  0  0
  191.5870  178.2570  143.5690 O   0  0  0  0  0  0  0  0  0  0  0  0
  191.2080  177.2430  142.9200 C   0  0  0  0  0  0  0  0  0  0  0  0
  191.8100  176.0010  143.1210 O   0  0  0  0  0  0  0  0  0  0  0  0
  191.9700  175.4450  144.4170 C   0  0  0  0  0  1  0  0  0  0  0  0
  1  9  1  0  0  0  0
  2  9  2  0  0  0  0
  3 10  1  0  0  0  0
  3  7  1  0  0  0  0
  4  6  1  0  0  0  0
  4  7  2  0  0  0  0
  5  3  1  0  0  0  0
  6  1  2  0  0  0  0
  7  2  1  0  0  0  0
  8 18  1  6  0  0  0
  8  5  1  0  0  0  0
  8  4  1  0  0  0  0
 11 10  1  0  0  0  0
 12 13  1  0  0  0  0
 14 12  2  0  0  0  0
 15 14  1  0  0  0  0
 15 17  2  0  0  0  0
 16 13  2  0  0  0  0
 16 11  1  0  0  0  0
 17 16  1  0  0  0  0
 19 20  1  1  0  0  0
 19 18  1  0  0  0  0
 21 22  1  6  0  0  0
 21 19  1  0  0  0  0
 21 24  1  0  0  0  0
 24 25  1  0  0  0  0
 24 23  2  0  0  0  0
 25 26  1  0  0  0  0
M  END
>  <MODEL>
7

>  <REMARK>
 VINA RESULT:      -7.8      3.162      6.723
  Name = 
  8 active torsions:
  status: ('A' for Active; 'I' for Inactive)
    1  A    between atoms: O_2  and  C_17
    2  A    between atoms: C_7  and  C_15
    3  A    between atoms: C_7  and  C_24
    4  A    between atoms: C_8  and  C_12
    5  A    between atoms: C_8  and  C_17
    6  A    between atoms: N_10  and  C_15
    7  A    between atoms: C_12  and  N_21
    8  A    between atoms: N_21  and  C_22
                            x       y       z     vdW  Elec       q    Type
                         _______ _______ _______ _____ _____    ______ ____

>  <TORSDO>
F 8

$$$$
=
 OpenBabel11062417013D

 26 28  0  0  1  0  0  0  0  0999 V2000
  189.6690  176.3150  137.9610 N   0  0  0  0  0  0  0  0  0  0  0  0
  187.8780  177.6950  138.7910 C   0  0  0  0  0  3  0  0  0  0  0  0
  188.3180  178.5830  141.1140 N   0  0  0  0  0  0  0  0  0  0  0  0
  189.8380  177.2960  140.1050 C   0  0  0  0  0  0  0  0  0  0  0  0
  189.3480  178.5440  142.0180 O   0  0  0  0  0  0  0  0  0  0  0  0
  190.3870  176.4930  139.1100 C   0  0  0  0  0  3  0  0  0  0  0  0
  188.6420  177.8740  139.9440 C   0  0  0  0  0  0  0  0  0  0  0  0
  190.3110  177.6390  141.4690 C   0  0  1  0  0  3  0  0  0  0  0  0
  188.4390  176.8910  137.7820 C   0  0  0  0  0  3  0  0  0  0  0  0
  186.9340  178.6900  141.5580 C   0  0  0  0  0  2  0  0  0  0  0  0
  186.6430  177.6970  142.6750 C   0  0  0  0  0  2  0  0  0  0  0  0
  184.6500  178.7610  145.7210 C   0  0  0  0  0  3  0  0  0  0  0  0
  185.7100  178.3370  144.9140 C   0  0  0  0  0  3  0  0  0  0  0  0
  183.3950  179.0060  145.1540 C   0  0  0  0  0  3  0  0  0  0  0  0
  183.2010  178.8280  143.7810 C   0  0  0  0  0  3  0  0  0  0  0  0
  185.5170  178.1600  143.5380 C   0  0  0  0  0  0  0  0  0  0  0  0
  184.2610  178.4040  142.9740 C   0  0  0  0  0  3  0  0  0  0  0  0
  190.3700  176.4390  142.2870 N   0  0  0  0  0  2  0  0  0  0  0  0
  191.4650  176.6140  143.2300 C   0  0  2  0  0  3  0  0  0  0  0  0
  191.7410  175.3980  143.8570 O   0  0  0  0  0  1  0  0  0  0  0  0
  191.1190  177.6660  144.2790 C   0  0  2  0  0  3  0  0  0  0  0  0
  192.1150  178.6430  144.3620 O   0  0  0  0  0  1  0  0  0  0  0  0
  189.7250  176.6480  145.9370 O   0  0  0  0  0  0  0  0  0  0  0  0
  190.8790  177.0450  145.6170 C   0  0  0  0  0  0  0  0  0  0  0  0
  191.9460  176.9280  146.5080 O   0  0  0  0  0  0  0  0  0  0  0  0
  192.1850  175.7370  147.2410 C   0  0  0  0  0  1  0  0  0  0  0  0
  1  6  1  0  0  0  0
  2  7  2  0  0  0  0
  3 10  1  0  0  0  0
  3  5  1  0  0  0  0
  4  8  1  0  0  0  0
  6  4  2  0  0  0  0
  7  4  1  0  0  0  0
  7  3  1  0  0  0  0
  8  5  1  0  0  0  0
  8 18  1  1  0  0  0
  9  1  2  0  0  0  0
  9  2  1  0  0  0  0
 10 11  1  0  0  0  0
 11 16  1  0  0  0  0
 13 12  2  0  0  0  0
 14 12  1  0  0  0  0
 15 14  2  0  0  0  0
 16 13  1  0  0  0  0
 17 16  2  0  0  0  0
 17 15  1  0  0  0  0
 18 19  1  0  0  0  0
 19 20  1  1  0  0  0
 19 21  1  0  0  0  0
 21 22  1  1  0  0  0
 21 24  1  0  0  0  0
 24 23  2  0  0  0  0
 24 25  1  0  0  0  0
 25 26  1  0  0  0  0
M  END
>  <MODEL>
8

>  <REMARK>
 VINA RESULT:      -7.7      3.464      7.824
  Name = 
  8 active torsions:
  status: ('A' for Active; 'I' for Inactive)
    1  A    between atoms: O_2  and  C_17
    2  A    between atoms: C_7  and  C_15
    3  A    between atoms: C_7  and  C_24
    4  A    between atoms: C_8  and  C_12
    5  A    between atoms: C_8  and  C_17
    6  A    between atoms: N_10  and  C_15
    7  A    between atoms: C_12  and  N_21
    8  A    between atoms: N_21  and  C_22
                            x       y       z     vdW  Elec       q    Type
                         _______ _______ _______ _____ _____    ______ ____

>  <TORSDO>
F 8

$$$$
=
 OpenBabel11062417013D

 26 28  0  0  1  0  0  0  0  0999 V2000
  186.9690  178.6270  139.6420 N   0  0  0  0  0  0  0  0  0  0  0  0
  187.5950  178.0590  141.8980 C   0  0  0  0  0  3  0  0  0  0  0  0
  189.9770  177.2370  142.0790 N   0  0  0  0  0  0  0  0  0  0  0  0
  189.1560  177.8530  140.0960 C   0  0  0  0  0  0  0  0  0  0  0  0
  191.0460  177.0860  141.2340 O   0  0  0  0  0  0  0  0  0  0  0  0
  188.2110  178.2970  139.1760 C   0  0  0  0  0  3  0  0  0  0  0  0
  188.8590  177.7480  141.3960 C   0  0  0  0  0  0  0  0  0  0  0  0
  190.5460  177.3650  139.9230 C   0  0  1  0  0  3  0  0  0  0  0  0
  186.6440  178.5170  140.9690 C   0  0  0  0  0  3  0  0  0  0  0  0
  189.8050  176.3660  143.2350 C   0  0  0  0  0  2  0  0  0  0  0  0
  190.4820  176.9560  144.4650 C   0  0  0  0  0  2  0  0  0  0  0  0
  188.9690  177.4240  147.9110 C   0  0  0  0  0  3  0  0  0  0  0  0
  189.8970  177.1770  146.8940 C   0  0  0  0  0  3  0  0  0  0  0  0
  187.6410  177.7190  147.5880 C   0  0  0  0  0  3  0  0  0  0  0  0
  187.2420  177.7690  146.2500 C   0  0  0  0  0  3  0  0  0  0  0  0
  189.4980  177.2290  145.5530 C   0  0  0  0  0  0  0  0  0  0  0  0
  188.1690  177.5230  145.2330 C   0  0  0  0  0  3  0  0  0  0  0  0
  190.5460  176.1430  139.1360 N   0  0  0  0  0  2  0  0  0  0  0  0
  191.1440  176.4600  137.8470 C   0  0  2  0  0  3  0  0  0  0  0  0
  190.1420  176.5770  136.8830 O   0  0  0  0  0  1  0  0  0  0  0  0
  192.1390  175.3830  137.4270 C   0  0  2  0  0  3  0  0  0  0  0  0
  191.7150  174.1170  137.8390 O   0  0  0  0  0  1  0  0  0  0  0  0
  193.7600  176.7800  138.4980 O   0  0  0  0  0  0  0  0  0  0  0  0
  193.5100  175.6730  137.9450 C   0  0  0  0  0  0  0  0  0  0  0  0
  194.5070  174.7100  137.7930 O   0  0  0  0  0  0  0  0  0  0  0  0
  195.3940  174.3750  138.8500 C   0  0  0  0  0  1  0  0  0  0  0  0
  1  9  1  0  0  0  0
  3 10  1  0  0  0  0
  4  7  2  0  0  0  0
  5  3  1  0  0  0  0
  6  1  2  0  0  0  0
  6  4  1  0  0  0  0
  7  2  1  0  0  0  0
  7  3  1  0  0  0  0
  8 18  1  6  0  0  0
  8  4  1  0  0  0  0
  8  5  1  0  0  0  0
  9  2  2  0  0  0  0
 10 11  1  0  0  0  0
 11 16  1  0  0  0  0
 13 12  2  0  0  0  0
 14 12  1  0  0  0  0
 15 14  2  0  0  0  0
 16 13  1  0  0  0  0
 17 16  2  0  0  0  0
 17 15  1  0  0  0  0
 19 20  1  6  0  0  0
 19 18  1  0  0  0  0
 21 22  1  1  0  0  0
 21 19  1  0  0  0  0
 21 24  1  0  0  0  0
 24 23  2  0  0  0  0
 25 24  1  0  0  0  0
 25 26  1  0  0  0  0
M  END
>  <MODEL>
9

>  <REMARK>
 VINA RESULT:      -7.7      4.698      6.554
  Name = 
  8 active torsions:
  status: ('A' for Active; 'I' for Inactive)
    1  A    between atoms: O_2  and  C_17
    2  A    between atoms: C_7  and  C_15
    3  A    between atoms: C_7  and  C_24
    4  A    between atoms: C_8  and  C_12
    5  A    between atoms: C_8  and  C_17
    6  A    between atoms: N_10  and  C_15
    7  A    between atoms: C_12  and  N_21
    8  A    between atoms: N_21  and  C_22
                            x       y       z     vdW  Elec       q    Type
                         _______ _______ _______ _____ _____    ______ ____

>  <TORSDO>
F 8

$$$$
