=
 OpenBabel11062413333D

 28 31  0  0  1  0  0  0  0  0999 V2000
  190.4100  177.5430  144.7560 C   0  0  0  0  0  0  0  0  0  0  0  0
  188.9320  176.7230  146.5270 C   0  0  0  0  0  3  0  0  0  0  0  0
  189.1080  177.1650  145.2230 C   0  0  0  0  0  0  0  0  0  0  0  0
  188.2270  177.3460  144.1880 C   0  0  0  0  0  0  0  0  0  0  0  0
  188.9650  177.8320  143.1140 C   0  0  0  0  0  0  0  0  0  0  0  0
  191.2880  177.0140  146.9070 C   0  0  0  0  0  3  0  0  0  0  0  0
  190.0320  176.6590  147.3340 N   0  0  0  0  0  2  0  0  0  0  0  0
  190.3190  177.9610  143.4430 C   0  0  0  0  0  3  0  0  0  0  0  0
  191.5120  177.4720  145.5960 C   0  0  0  0  0  3  0  0  0  0  0  0
  188.3950  178.1770  141.8490 N   0  0  0  0  0  2  0  0  0  0  0  0
  186.8550  178.6150  139.5250 N   0  0  0  0  0  2  0  0  0  0  0  0
  189.9570  177.6230  138.0360 N   0  0  0  0  0  2  0  0  0  0  0  0
  190.1430  177.2480  140.4410 C   0  0  0  0  0  2  0  0  0  0  0  0
  188.0150  178.0740  139.4320 C   0  0  0  0  0  0  0  0  0  0  0  0
  190.4480  176.6940  139.0520 C   0  0  0  0  0  2  0  0  0  0  0  0
  188.4960  177.6390  138.0790 C   0  0  0  0  0  2  0  0  0  0  0  0
  188.6360  177.4050  140.6370 C   0  0  2  0  0  3  0  0  0  0  0  0
  186.7480  177.1330  144.2290 C   0  0  0  0  0  2  0  0  0  0  0  0
  186.0240  178.4380  144.5480 C   0  0  1  0  0  3  0  0  0  0  0  0
  182.3670  179.0110  143.6470 C   0  0  0  0  0  3  0  0  0  0  0  0
  183.5400  178.8990  144.3990 C   0  0  0  0  0  3  0  0  0  0  0  0
  182.3960  178.7890  142.2680 C   0  0  0  0  0  3  0  0  0  0  0  0
  183.5990  178.4570  141.6390 C   0  0  0  0  0  3  0  0  0  0  0  0
  184.7740  178.3440  142.3890 C   0  0  0  0  0  3  0  0  0  0  0  0
  184.7500  178.5640  143.7710 C   0  0  0  0  0  0  0  0  0  0  0  0
  185.7030  179.8920  146.5510 O   0  0  0  0  0  0  0  0  0  0  0  0
  185.6810  177.6130  146.7770 O   0  0  0  0  0  1  0  0  0  0  0  0
  185.7970  178.6140  146.0190 C   0  0  0  0  0  0  0  0  0  0  0  0
  1  3  1  0  0  0  0
  1  9  1  0  0  0  0
  2  7  1  0  0  0  0
  3  2  2  0  0  0  0
  4 18  1  0  0  0  0
  4  3  1  0  0  0  0
  5  8  1  0  0  0  0
  5  4  2  0  0  0  0
  6  7  1  0  0  0  0
  8  1  2  0  0  0  0
  9  6  2  0  0  0  0
 10  5  1  0  0  0  0
 12 16  1  0  0  0  0
 12 15  1  0  0  0  0
 13 17  1  0  0  0  0
 14 11  2  0  0  0  0
 14 17  1  0  0  0  0
 15 13  1  0  0  0  0
 16 14  1  0  0  0  0
 17 10  1  1  0  0  0
 19 18  1  1  0  0  0
 19 28  1  0  0  0  0
 20 21  1  0  0  0  0
 22 20  2  0  0  0  0
 23 22  1  0  0  0  0
 23 24  2  0  0  0  0
 24 25  1  0  0  0  0
 25 21  2  0  0  0  0
 25 19  1  0  0  0  0
 28 26  2  0  0  0  0
 28 27  1  0  0  0  0
M  END
>  <MODEL>
1

>  <REMARK>
 VINA RESULT:      -9.1      0.000      0.000
  Name = 
  6 active torsions:
  status: ('A' for Active; 'I' for Inactive)
    1  A    between atoms: C_7  and  C_24
    2  A    between atoms: C_10  and  C_11
    3  A    between atoms: C_10  and  C_24
    4  A    between atoms: C_10  and  C_28
    5  A    between atoms: C_12  and  N_23
    6  A    between atoms: N_23  and  C_27
                            x       y       z     vdW  Elec       q    Type
                         _______ _______ _______ _____ _____    ______ ____

>  <TORSDO>
F 6

$$$$
=
 OpenBabel11062413333D

 28 31  0  0  1  0  0  0  0  0999 V2000
  188.1230  178.1770  140.3510 C   0  0  0  0  0  0  0  0  0  0  0  0
  189.9920  176.7380  141.0060 C   0  0  0  0  0  3  0  0  0  0  0  0
  188.8060  177.3810  141.3290 C   0  0  1  0  0  3  0  0  0  0  0  0
  188.0780  177.4370  142.4900 C   0  0  0  0  0  0  0  0  0  0  0  0
  186.9810  178.2540  142.2370 C   0  0  0  0  0  0  0  0  0  0  0  0
  189.8360  177.6410  138.7840 C   0  0  0  0  0  3  0  0  0  0  0  0
  190.4740  176.8870  139.7360 N   0  0  0  0  0  0  0  0  0  0  0  0
  186.9880  178.7230  140.9180 C   0  0  0  0  0  3  0  0  0  0  0  0
  188.6340  178.3150  139.0680 C   0  0  0  0  0  3  0  0  0  0  0  0
  185.9940  178.5860  143.2160 N   0  0  0  0  0  2  0  0  0  0  0  0
  184.1980  178.9710  145.3590 N   0  0  0  0  0  2  0  0  0  0  0  0
  181.9370  179.2550  142.5970 N   0  0  0  0  0  2  0  0  0  0  0  0
  184.0870  178.5070  141.7140 C   0  0  0  0  0  2  0  0  0  0  0  0
  183.7500  178.8300  144.1650 C   0  0  0  0  0  0  0  0  0  0  0  0
  182.5710  178.3430  141.6470 C   0  0  0  0  0  2  0  0  0  0  0  0
  182.2630  178.8230  143.9550 C   0  0  0  0  0  2  0  0  0  0  0  0
  184.6030  178.1640  143.1100 C   0  0  2  0  0  3  0  0  0  0  0  0
  188.4340  176.8050  143.7960 C   0  0  0  0  0  2  0  0  0  0  0  0
  189.3320  177.7280  144.6160 C   0  0  1  0  0  3  0  0  0  0  0  0
  189.3490  177.8660  148.4230 C   0  0  0  0  0  3  0  0  0  0  0  0
  189.7990  177.7860  147.1030 C   0  0  0  0  0  3  0  0  0  0  0  0
  187.9810  177.9670  148.6910 C   0  0  0  0  0  3  0  0  0  0  0  0
  187.0620  177.9900  147.6380 C   0  0  0  0  0  3  0  0  0  0  0  0
  187.5110  177.9120  146.3150 C   0  0  0  0  0  3  0  0  0  0  0  0
  188.8790  177.8090  146.0420 C   0  0  0  0  0  0  0  0  0  0  0  0
  191.7350  178.3390  144.3360 O   0  0  0  0  0  0  0  0  0  0  0  0
  191.1350  176.1430  144.5930 O   0  0  0  0  0  1  0  0  0  0  0  0
  190.7780  177.3500  144.5130 C   0  0  0  0  0  0  0  0  0  0  0  0
  1  8  2  0  0  0  0
  1  3  1  0  0  0  0
  3  2  1  1  0  0  0
  3  4  1  0  0  0  0
  4 18  1  0  0  0  0
  5  4  2  0  0  0  0
  5 10  1  0  0  0  0
  6  9  2  0  0  0  0
  6  7  1  0  0  0  0
  7  2  2  0  0  0  0
  8  5  1  0  0  0  0
  9  1  1  0  0  0  0
 12 16  1  0  0  0  0
 13 17  1  0  0  0  0
 14 11  2  0  0  0  0
 15 13  1  0  0  0  0
 15 12  1  0  0  0  0
 16 14  1  0  0  0  0
 17 10  1  6  0  0  0
 17 14  1  0  0  0  0
 19 18  1  6  0  0  0
 19 25  1  0  0  0  0
 20 22  1  0  0  0  0
 21 20  2  0  0  0  0
 23 22  2  0  0  0  0
 24 23  1  0  0  0  0
 25 24  2  0  0  0  0
 25 21  1  0  0  0  0
 26 28  2  0  0  0  0
 28 27  1  0  0  0  0
 28 19  1  0  0  0  0
M  END
>  <MODEL>
2

>  <REMARK>
 VINA RESULT:      -9.0      2.649      6.194
  Name = 
  6 active torsions:
  status: ('A' for Active; 'I' for Inactive)
    1  A    between atoms: C_7  and  C_24
    2  A    between atoms: C_10  and  C_11
    3  A    between atoms: C_10  and  C_24
    4  A    between atoms: C_10  and  C_28
    5  A    between atoms: C_12  and  N_23
    6  A    between atoms: N_23  and  C_27
                            x       y       z     vdW  Elec       q    Type
                         _______ _______ _______ _____ _____    ______ ____

>  <TORSDO>
F 6

$$$$
=
 OpenBabel11062413333D

 28 31  0  0  1  0  0  0  0  0999 V2000
  185.6350  178.7450  142.6490 C   0  0  0  0  0  0  0  0  0  0  0  0
  186.2240  177.6990  144.7830 C   0  0  0  0  0  3  0  0  0  0  0  0
  186.5750  178.0630  143.4910 C   0  0  0  0  0  0  0  0  0  0  0  0
  187.7290  177.8910  142.7690 C   0  0  0  0  0  0  0  0  0  0  0  0
  187.5010  178.4430  141.5130 C   0  0  0  0  0  0  0  0  0  0  0  0
  184.0530  178.6680  144.4290 C   0  0  0  0  0  3  0  0  0  0  0  0
  184.9680  178.0140  145.2170 N   0  0  0  0  0  2  0  0  0  0  0  0
  186.2120  178.9790  141.4160 C   0  0  0  0  0  3  0  0  0  0  0  0
  184.3630  179.0520  143.1120 C   0  0  0  0  0  3  0  0  0  0  0  0
  188.4640  178.4350  140.4550 N   0  0  0  0  0  2  0  0  0  0  0  0
  187.0880  178.5700  137.9950 N   0  0  0  0  0  2  0  0  0  0  0  0
  189.9440  176.6500  137.0040 N   0  0  0  0  0  2  0  0  0  0  0  0
  190.0070  176.8600  139.4350 C   0  0  0  0  0  2  0  0  0  0  0  0
  188.1120  177.8070  138.1150 C   0  0  0  0  0  0  0  0  0  0  0  0
  190.2150  175.9280  138.2450 C   0  0  0  0  0  2  0  0  0  0  0  0
  188.5170  176.9610  136.9420 C   0  0  0  0  0  2  0  0  0  0  0  0
  188.5610  177.3530  139.4850 C   0  0  2  0  0  3  0  0  0  0  0  0
  188.9640  177.1820  143.2190 C   0  0  0  0  0  2  0  0  0  0  0  0
  189.7950  178.0740  144.1380 C   0  0  1  0  0  3  0  0  0  0  0  0
  191.9520  175.9710  146.4690 C   0  0  0  0  0  3  0  0  0  0  0  0
  191.5210  176.6620  145.3330 C   0  0  0  0  0  3  0  0  0  0  0  0
  191.1510  175.9370  147.6130 C   0  0  0  0  0  3  0  0  0  0  0  0
  189.9180  176.5950  147.6230 C   0  0  0  0  0  3  0  0  0  0  0  0
  189.4850  177.2880  146.4870 C   0  0  0  0  0  3  0  0  0  0  0  0
  190.2830  177.3240  145.3380 C   0  0  0  0  0  0  0  0  0  0  0  0
  191.4400  178.1610  142.2630 O   0  0  0  0  0  0  0  0  0  0  0  0
  191.3880  179.8420  143.8180 O   0  0  0  0  0  1  0  0  0  0  0  0
  190.9190  178.7470  143.4080 C   0  0  0  0  0  0  0  0  0  0  0  0
  1  9  1  0  0  0  0
  1  3  1  0  0  0  0
  2  7  1  0  0  0  0
  3  2  2  0  0  0  0
  4 18  1  0  0  0  0
  4  3  1  0  0  0  0
  5  4  2  0  0  0  0
  6  7  1  0  0  0  0
  8  5  1  0  0  0  0
  8  1  2  0  0  0  0
  9  6  2  0  0  0  0
 10  5  1  0  0  0  0
 11 14  2  0  0  0  0
 12 15  1  0  0  0  0
 13 17  1  0  0  0  0
 14 17  1  0  0  0  0
 15 13  1  0  0  0  0
 16 12  1  0  0  0  0
 16 14  1  0  0  0  0
 17 10  1  1  0  0  0
 19 18  1  6  0  0  0
 19 25  1  0  0  0  0
 20 22  1  0  0  0  0
 21 25  1  0  0  0  0
 21 20  2  0  0  0  0
 22 23  2  0  0  0  0
 24 23  1  0  0  0  0
 25 24  2  0  0  0  0
 26 28  2  0  0  0  0
 28 27  1  0  0  0  0
 28 19  1  0  0  0  0
M  END
>  <MODEL>
3

>  <REMARK>
 VINA RESULT:      -8.9      2.341      5.499
  Name = 
  6 active torsions:
  status: ('A' for Active; 'I' for Inactive)
    1  A    between atoms: C_7  and  C_24
    2  A    between atoms: C_10  and  C_11
    3  A    between atoms: C_10  and  C_24
    4  A    between atoms: C_10  and  C_28
    5  A    between atoms: C_12  and  N_23
    6  A    between atoms: N_23  and  C_27
                            x       y       z     vdW  Elec       q    Type
                         _______ _______ _______ _____ _____    ______ ____

>  <TORSDO>
F 6

$$$$
=
 OpenBabel11062413333D

 28 31  0  0  1  0  0  0  0  0999 V2000
  189.2530  177.1450  141.2300 C   0  0  0  0  0  0  0  0  0  0  0  0
  188.3280  178.5960  139.4880 C   0  0  0  0  0  3  0  0  0  0  0  0
  188.2760  178.0950  140.7810 C   0  0  0  0  0  0  0  0  0  0  0  0
  187.4110  178.3230  141.8200 C   0  0  0  0  0  0  0  0  0  0  0  0
  187.8380  177.5270  142.8780 C   0  0  0  0  0  0  0  0  0  0  0  0
  190.2780  177.2510  139.0810 C   0  0  0  0  0  3  0  0  0  0  0  0
  189.3320  178.1570  138.6720 N   0  0  0  0  0  0  0  0  0  0  0  0
  188.9770  176.7900  142.5350 C   0  0  0  0  0  2  0  0  0  0  0  0
  190.2630  176.7140  140.3820 C   0  0  0  0  0  3  0  0  0  0  0  0
  187.1710  177.4610  144.1420 N   0  0  0  0  0  2  0  0  0  0  0  0
  185.5410  178.2600  146.3020 N   0  0  0  0  0  2  0  0  0  0  0  0
  188.4240  177.1150  148.0910 N   0  0  0  0  0  2  0  0  0  0  0  0
  188.9910  177.1330  145.7170 C   0  0  0  0  0  2  0  0  0  0  0  0
  186.7640  177.9340  146.5090 C   0  0  0  0  0  0  0  0  0  0  0  0
  189.4750  177.4460  147.1310 C   0  0  0  0  0  2  0  0  0  0  0  0
  187.3070  178.0400  147.9050 C   0  0  0  0  0  2  0  0  0  0  0  0
  187.7600  177.9700  145.3730 C   0  0  2  0  0  3  0  0  0  0  0  0
  186.2010  179.1990  141.7970 C   0  0  0  0  0  2  0  0  0  0  0  0
  185.0250  178.4790  141.1430 C   0  0  1  0  0  3  0  0  0  0  0  0
  181.3540  178.6830  142.1380 C   0  0  0  0  0  3  0  0  0  0  0  0
  182.5050  178.5460  141.3570 C   0  0  0  0  0  3  0  0  0  0  0  0
  181.4640  178.8980  143.5140 C   0  0  0  0  0  3  0  0  0  0  0  0
  182.7250  178.9740  144.1110 C   0  0  0  0  0  3  0  0  0  0  0  0
  183.8790  178.8370  143.3320 C   0  0  0  0  0  3  0  0  0  0  0  0
  183.7740  178.6240  141.9530 C   0  0  0  0  0  0  0  0  0  0  0  0
  184.8600  177.9580  138.7080 O   0  0  0  0  0  0  0  0  0  0  0  0
  184.6030  180.1140  139.4370 O   0  0  0  0  0  1  0  0  0  0  0  0
  184.8200  178.9050  139.7210 C   0  0  0  0  0  0  0  0  0  0  0  0
  1  8  1  0  0  0  0
  2  3  1  0  0  0  0
  3  1  2  0  0  0  0
  3  4  1  0  0  0  0
  4  5  2  0  0  0  0
  5 10  1  0  0  0  0
  6  9  2  0  0  0  0
  7  6  1  0  0  0  0
  7  2  2  0  0  0  0
  8  5  1  0  0  0  0
  9  1  1  0  0  0  0
 11 14  2  0  0  0  0
 13 15  1  0  0  0  0
 14 16  1  0  0  0  0
 15 12  1  0  0  0  0
 16 12  1  0  0  0  0
 17 10  1  6  0  0  0
 17 13  1  0  0  0  0
 17 14  1  0  0  0  0
 18  4  1  0  0  0  0
 19 18  1  1  0  0  0
 19 25  1  0  0  0  0
 20 22  1  0  0  0  0
 21 25  1  0  0  0  0
 21 20  2  0  0  0  0
 22 23  2  0  0  0  0
 24 23  1  0  0  0  0
 25 24  2  0  0  0  0
 26 28  2  0  0  0  0
 27 28  1  0  0  0  0
 28 19  1  0  0  0  0
M  END
>  <MODEL>
4

>  <REMARK>
 VINA RESULT:      -8.9      2.592      5.730
  Name = 
  6 active torsions:
  status: ('A' for Active; 'I' for Inactive)
    1  A    between atoms: C_7  and  C_24
    2  A    between atoms: C_10  and  C_11
    3  A    between atoms: C_10  and  C_24
    4  A    between atoms: C_10  and  C_28
    5  A    between atoms: C_12  and  N_23
    6  A    between atoms: N_23  and  C_27
                            x       y       z     vdW  Elec       q    Type
                         _______ _______ _______ _____ _____    ______ ____

>  <TORSDO>
F 6

$$$$
=
 OpenBabel11062413333D

 28 31  0  0  1  0  0  0  0  0999 V2000
  185.6900  178.7740  145.8670 C   0  0  0  0  0  0  0  0  0  0  0  0
  187.7230  177.4280  145.6370 C   0  0  0  0  0  3  0  0  0  0  0  0
  186.6300  178.0550  145.0550 C   0  0  0  0  0  0  0  0  0  0  0  0
  186.2040  178.1390  143.7550 C   0  0  0  0  0  0  0  0  0  0  0  0
  185.0280  178.8810  143.7660 C   0  0  0  0  0  0  0  0  0  0  0  0
  186.9840  178.2090  147.7870 C   0  0  0  0  0  3  0  0  0  0  0  0
  187.8690  177.5250  146.9920 N   0  0  0  0  0  2  0  0  0  0  0  0
  184.6910  179.2860  145.0630 C   0  0  0  0  0  3  0  0  0  0  0  0
  185.8590  178.8560  147.2420 C   0  0  0  0  0  3  0  0  0  0  0  0
  184.2570  179.1660  142.5950 N   0  0  0  0  0  2  0  0  0  0  0  0
  181.5290  179.5310  143.2180 N   0  0  0  0  0  2  0  0  0  0  0  0
  181.2320  178.0740  139.9610 N   0  0  0  0  0  2  0  0  0  0  0  0
  183.5770  177.9220  140.6220 C   0  0  0  0  0  2  0  0  0  0  0  0
  181.8640  178.8630  142.1750 C   0  0  0  0  0  0  0  0  0  0  0  0
  182.4060  177.2040  139.9560 C   0  0  0  0  0  2  0  0  0  0  0  0
  180.7790  178.2480  141.3390 C   0  0  0  0  0  2  0  0  0  0  0  0
  183.2440  178.2560  142.0760 C   0  0  2  0  0  3  0  0  0  0  0  0
  186.8390  177.4950  142.5660 C   0  0  0  0  0  2  0  0  0  0  0  0
  188.0520  178.2970  142.1000 C   0  0  1  0  0  3  0  0  0  0  0  0
  191.4650  178.0860  143.7790 C   0  0  0  0  0  3  0  0  0  0  0  0
  190.2890  178.6150  143.2380 C   0  0  0  0  0  3  0  0  0  0  0  0
  191.6800  176.7050  143.7700 C   0  0  0  0  0  3  0  0  0  0  0  0
  190.7190  175.8520  143.2210 C   0  0  0  0  0  3  0  0  0  0  0  0
  189.5420  176.3790  142.6790 C   0  0  0  0  0  3  0  0  0  0  0  0
  189.3220  177.7610  142.6850 C   0  0  0  0  0  0  0  0  0  0  0  0
  186.9680  178.6270  139.8770 O   0  0  0  0  0  0  0  0  0  0  0  0
  189.2280  178.2790  140.0070 O   0  0  0  0  0  1  0  0  0  0  0  0
  188.1250  178.3950  140.6060 C   0  0  0  0  0  0  0  0  0  0  0  0
  1  9  1  0  0  0  0
  2  7  1  0  0  0  0
  3  2  2  0  0  0  0
  3  1  1  0  0  0  0
  4  5  2  0  0  0  0
  4  3  1  0  0  0  0
  5  8  1  0  0  0  0
  7  6  1  0  0  0  0
  8  1  2  0  0  0  0
  9  6  2  0  0  0  0
 10  5  1  0  0  0  0
 12 16  1  0  0  0  0
 13 17  1  0  0  0  0
 14 11  2  0  0  0  0
 15 12  1  0  0  0  0
 15 13  1  0  0  0  0
 16 14  1  0  0  0  0
 17 14  1  0  0  0  0
 17 10  1  6  0  0  0
 18  4  1  0  0  0  0
 19 18  1  6  0  0  0
 19 25  1  0  0  0  0
 21 20  2  0  0  0  0
 22 20  1  0  0  0  0
 23 22  2  0  0  0  0
 24 25  2  0  0  0  0
 24 23  1  0  0  0  0
 25 21  1  0  0  0  0
 26 28  2  0  0  0  0
 27 28  1  0  0  0  0
 28 19  1  0  0  0  0
M  END
>  <MODEL>
5

>  <REMARK>
 VINA RESULT:      -8.8      3.014      6.101
  Name = 
  6 active torsions:
  status: ('A' for Active; 'I' for Inactive)
    1  A    between atoms: C_7  and  C_24
    2  A    between atoms: C_10  and  C_11
    3  A    between atoms: C_10  and  C_24
    4  A    between atoms: C_10  and  C_28
    5  A    between atoms: C_12  and  N_23
    6  A    between atoms: N_23  and  C_27
                            x       y       z     vdW  Elec       q    Type
                         _______ _______ _______ _____ _____    ______ ____

>  <TORSDO>
F 6

$$$$
=
 OpenBabel11062413333D

 28 31  0  0  1  0  0  0  0  0999 V2000
  185.2280  178.9110  144.7760 C   0  0  0  0  0  0  0  0  0  0  0  0
  187.0930  177.3880  145.2210 C   0  0  0  0  0  3  0  0  0  0  0  0
  186.3070  178.0850  144.3150 C   0  0  0  0  0  0  0  0  0  0  0  0
  186.3300  178.1600  142.9460 C   0  0  0  0  0  0  0  0  0  0  0  0
  185.2870  179.0010  142.5730 C   0  0  0  0  0  0  0  0  0  0  0  0
  185.7790  178.3050  147.0130 C   0  0  0  0  0  3  0  0  0  0  0  0
  186.8050  177.5190  146.5500 N   0  0  0  0  0  2  0  0  0  0  0  0
  184.5920  179.4790  143.6900 C   0  0  0  0  0  3  0  0  0  0  0  0
  184.9550  179.0270  146.1310 C   0  0  0  0  0  3  0  0  0  0  0  0
  184.9620  179.3100  141.2150 N   0  0  0  0  0  2  0  0  0  0  0  0
  184.0940  180.6140  138.8680 N   0  0  0  0  0  2  0  0  0  0  0  0
  182.4930  177.4400  138.4410 N   0  0  0  0  0  2  0  0  0  0  0  0
  183.4460  177.4870  140.6880 C   0  0  0  0  0  2  0  0  0  0  0  0
  183.5950  179.4770  139.1900 C   0  0  0  0  0  0  0  0  0  0  0  0
  182.2450  177.0840  139.8360 C   0  0  0  0  0  2  0  0  0  0  0  0
  182.5160  178.8970  138.3230 C   0  0  0  0  0  2  0  0  0  0  0  0
  183.6690  178.9970  140.6210 C   0  0  2  0  0  3  0  0  0  0  0  0
  187.2500  177.4210  142.0290 C   0  0  0  0  0  2  0  0  0  0  0  0
  188.5370  178.2100  141.8050 C   0  0  1  0  0  3  0  0  0  0  0  0
  191.4610  178.1030  144.2450 C   0  0  0  0  0  3  0  0  0  0  0  0
  190.4350  178.5970  143.4340 C   0  0  0  0  0  3  0  0  0  0  0  0
  191.7040  176.7290  144.3070 C   0  0  0  0  0  3  0  0  0  0  0  0
  190.9200  175.8460  143.5590 C   0  0  0  0  0  3  0  0  0  0  0  0
  189.8920  176.3370  142.7470 C   0  0  0  0  0  3  0  0  0  0  0  0
  189.6460  177.7130  142.6810 C   0  0  0  0  0  0  0  0  0  0  0  0
  190.2130  177.8250  139.9960 O   0  0  0  0  0  1  0  0  0  0  0  0
  188.1310  178.6260  139.4750 O   0  0  0  0  0  0  0  0  0  0  0  0
  188.9400  178.2390  140.3610 C   0  0  0  0  0  0  0  0  0  0  0  0
  1  9  1  0  0  0  0
  2  7  1  0  0  0  0
  3  1  1  0  0  0  0
  3  2  2  0  0  0  0
  4  3  1  0  0  0  0
  5  4  2  0  0  0  0
  5  8  1  0  0  0  0
  7  6  1  0  0  0  0
  8  1  2  0  0  0  0
  9  6  2  0  0  0  0
 10  5  1  0  0  0  0
 11 14  2  0  0  0  0
 12 15  1  0  0  0  0
 14 17  1  0  0  0  0
 15 13  1  0  0  0  0
 16 12  1  0  0  0  0
 16 14  1  0  0  0  0
 17 13  1  0  0  0  0
 17 10  1  6  0  0  0
 18  4  1  0  0  0  0
 19 18  1  6  0  0  0
 19 25  1  0  0  0  0
 20 22  1  0  0  0  0
 21 20  2  0  0  0  0
 23 22  2  0  0  0  0
 24 23  1  0  0  0  0
 25 24  2  0  0  0  0
 25 21  1  0  0  0  0
 26 28  1  0  0  0  0
 27 28  2  0  0  0  0
 28 19  1  0  0  0  0
M  END
>  <MODEL>
6

>  <REMARK>
 VINA RESULT:      -8.8      2.963      5.997
  Name = 
  6 active torsions:
  status: ('A' for Active; 'I' for Inactive)
    1  A    between atoms: C_7  and  C_24
    2  A    between atoms: C_10  and  C_11
    3  A    between atoms: C_10  and  C_24
    4  A    between atoms: C_10  and  C_28
    5  A    between atoms: C_12  and  N_23
    6  A    between atoms: N_23  and  C_27
                            x       y       z     vdW  Elec       q    Type
                         _______ _______ _______ _____ _____    ______ ____

>  <TORSDO>
F 6

$$$$
=
 OpenBabel11062413333D

 28 31  0  0  1  0  0  0  0  0999 V2000
  185.3710  178.7720  143.2220 C   0  0  0  0  0  0  0  0  0  0  0  0
  185.9350  177.7870  145.3920 C   0  0  0  0  0  3  0  0  0  0  0  0
  186.2220  177.9630  144.0460 C   0  0  0  0  0  0  0  0  0  0  0  0
  187.2310  177.4820  143.2520 C   0  0  0  0  0  0  0  0  0  0  0  0
  187.0010  177.9730  141.9710 C   0  0  0  0  0  0  0  0  0  0  0  0
  184.0000  179.1890  145.1270 C   0  0  0  0  0  3  0  0  0  0  0  0
  184.8270  178.4090  145.8950 N   0  0  0  0  0  2  0  0  0  0  0  0
  185.8550  178.7750  141.9300 C   0  0  0  0  0  3  0  0  0  0  0  0
  184.2500  179.3920  143.7570 C   0  0  0  0  0  3  0  0  0  0  0  0
  187.8260  177.6670  140.8430 N   0  0  0  0  0  2  0  0  0  0  0  0
  190.1360  178.1360  139.2920 N   0  0  0  0  0  2  0  0  0  0  0  0
  187.6770  177.9350  136.6960 N   0  0  0  0  0  2  0  0  0  0  0  0
  186.4930  177.9490  138.8310 C   0  0  0  0  0  2  0  0  0  0  0  0
  188.9780  178.1680  138.7410 C   0  0  0  0  0  0  0  0  0  0  0  0
  186.5140  178.4730  137.3980 C   0  0  0  0  0  2  0  0  0  0  0  0
  188.8880  178.5090  137.2820 C   0  0  0  0  0  2  0  0  0  0  0  0
  187.7450  178.3970  139.5840 C   0  0  2  0  0  3  0  0  0  0  0  0
  188.3230  176.5490  143.6650 C   0  0  0  0  0  2  0  0  0  0  0  0
  189.6390  177.3020  143.8400 C   0  0  1  0  0  3  0  0  0  0  0  0
  190.1690  177.1900  147.6100 C   0  0  0  0  0  3  0  0  0  0  0  0
  189.5850  177.4400  146.3660 C   0  0  0  0  0  3  0  0  0  0  0  0
  191.4100  176.5500  147.6840 C   0  0  0  0  0  3  0  0  0  0  0  0
  192.0650  176.1590  146.5140 C   0  0  0  0  0  3  0  0  0  0  0  0
  191.4820  176.4080  145.2670 C   0  0  0  0  0  3  0  0  0  0  0  0
  190.2410  177.0500  145.1870 C   0  0  0  0  0  0  0  0  0  0  0  0
  190.5430  175.7960  142.0680 O   0  0  0  0  0  0  0  0  0  0  0  0
  191.4760  177.8620  142.3980 O   0  0  0  0  0  1  0  0  0  0  0  0
  190.6080  177.0110  142.7340 C   0  0  0  0  0  0  0  0  0  0  0  0
  1  9  1  0  0  0  0
  1  3  1  0  0  0  0
  2  7  1  0  0  0  0
  3  2  2  0  0  0  0
  4 18  1  0  0  0  0
  4  3  1  0  0  0  0
  5  4  2  0  0  0  0
  6  7  1  0  0  0  0
  8  5  1  0  0  0  0
  8  1  2  0  0  0  0
  9  6  2  0  0  0  0
 10  5  1  0  0  0  0
 12 16  1  0  0  0  0
 12 15  1  0  0  0  0
 13 17  1  0  0  0  0
 14 11  2  0  0  0  0
 14 17  1  0  0  0  0
 15 13  1  0  0  0  0
 16 14  1  0  0  0  0
 17 10  1  1  0  0  0
 19 18  1  6  0  0  0
 19 25  1  0  0  0  0
 20 22  1  0  0  0  0
 21 20  2  0  0  0  0
 23 22  2  0  0  0  0
 24 23  1  0  0  0  0
 25 24  2  0  0  0  0
 25 21  1  0  0  0  0
 26 28  2  0  0  0  0
 27 28  1  0  0  0  0
 28 19  1  0  0  0  0
M  END
>  <MODEL>
7

>  <REMARK>
 VINA RESULT:      -8.7      2.571      5.654
  Name = 
  6 active torsions:
  status: ('A' for Active; 'I' for Inactive)
    1  A    between atoms: C_7  and  C_24
    2  A    between atoms: C_10  and  C_11
    3  A    between atoms: C_10  and  C_24
    4  A    between atoms: C_10  and  C_28
    5  A    between atoms: C_12  and  N_23
    6  A    between atoms: N_23  and  C_27
                            x       y       z     vdW  Elec       q    Type
                         _______ _______ _______ _____ _____    ______ ____

>  <TORSDO>
F 6

$$$$
=
 OpenBabel11062413333D

 28 31  0  0  1  0  0  0  0  0999 V2000
  189.7500  177.3880  146.1810 C   0  0  0  0  0  0  0  0  0  0  0  0
  187.8140  177.6250  147.6610 C   0  0  0  0  0  3  0  0  0  0  0  0
  188.3320  177.3850  146.3960 C   0  0  0  0  0  0  0  0  0  0  0  0
  187.7300  177.1300  145.1900 C   0  0  0  0  0  0  0  0  0  0  0  0
  188.7500  176.9900  144.2550 C   0  0  0  0  0  0  0  0  0  0  0  0
  190.0550  177.8620  148.4960 C   0  0  0  0  0  3  0  0  0  0  0  0
  188.6950  177.8570  148.6780 N   0  0  0  0  0  2  0  0  0  0  0  0
  190.0090  177.1440  144.8470 C   0  0  0  0  0  3  0  0  0  0  0  0
  190.6250  177.6280  147.2310 C   0  0  0  0  0  3  0  0  0  0  0  0
  188.5260  176.7440  142.8640 N   0  0  0  0  0  2  0  0  0  0  0  0
  190.9870  175.9990  141.7020 N   0  0  0  0  0  2  0  0  0  0  0  0
  189.4440  177.6170  138.9050 N   0  0  0  0  0  2  0  0  0  0  0  0
  188.0330  178.0180  140.8560 C   0  0  0  0  0  2  0  0  0  0  0  0
  190.1840  176.7700  141.0640 C   0  0  0  0  0  0  0  0  0  0  0  0
  188.6440  178.6250  139.5960 C   0  0  0  0  0  2  0  0  0  0  0  0
  190.6110  177.2980  139.7240 C   0  0  0  0  0  2  0  0  0  0  0  0
  189.1290  177.5510  141.8120 C   0  0  2  0  0  3  0  0  0  0  0  0
  186.2610  177.0860  144.9190 C   0  0  0  0  0  2  0  0  0  0  0  0
  185.6850  178.4970  144.8360 C   0  0  1  0  0  3  0  0  0  0  0  0
  182.2570  179.0400  143.2660 C   0  0  0  0  0  3  0  0  0  0  0  0
  183.2780  178.9710  144.2190 C   0  0  0  0  0  3  0  0  0  0  0  0
  182.5220  178.7150  141.9330 C   0  0  0  0  0  3  0  0  0  0  0  0
  183.8090  178.3240  141.5510 C   0  0  0  0  0  3  0  0  0  0  0  0
  184.8310  178.2550  142.5020 C   0  0  0  0  0  3  0  0  0  0  0  0
  184.5710  178.5770  143.8390 C   0  0  0  0  0  0  0  0  0  0  0  0
  184.4290  178.2560  146.9780 O   0  0  0  0  0  1  0  0  0  0  0  0
  185.6810  180.1350  146.5920 O   0  0  0  0  0  0  0  0  0  0  0  0
  185.2690  179.0180  146.1790 C   0  0  0  0  0  0  0  0  0  0  0  0
  1  3  1  0  0  0  0
  1  9  1  0  0  0  0
  2  7  1  0  0  0  0
  3  2  2  0  0  0  0
  4  3  1  0  0  0  0
  5  8  1  0  0  0  0
  5  4  2  0  0  0  0
  6  7  1  0  0  0  0
  8  1  2  0  0  0  0
  9  6  2  0  0  0  0
 10  5  1  0  0  0  0
 12 15  1  0  0  0  0
 12 16  1  0  0  0  0
 13 17  1  0  0  0  0
 14 11  2  0  0  0  0
 14 17  1  0  0  0  0
 15 13  1  0  0  0  0
 16 14  1  0  0  0  0
 17 10  1  1  0  0  0
 18  4  1  0  0  0  0
 19 18  1  1  0  0  0
 19 28  1  0  0  0  0
 20 21  1  0  0  0  0
 22 20  2  0  0  0  0
 23 22  1  0  0  0  0
 23 24  2  0  0  0  0
 24 25  1  0  0  0  0
 25 21  2  0  0  0  0
 25 19  1  0  0  0  0
 28 27  2  0  0  0  0
 28 26  1  0  0  0  0
M  END
>  <MODEL>
8

>  <REMARK>
 VINA RESULT:      -8.6      1.228      1.921
  Name = 
  6 active torsions:
  status: ('A' for Active; 'I' for Inactive)
    1  A    between atoms: C_7  and  C_24
    2  A    between atoms: C_10  and  C_11
    3  A    between atoms: C_10  and  C_24
    4  A    between atoms: C_10  and  C_28
    5  A    between atoms: C_12  and  N_23
    6  A    between atoms: N_23  and  C_27
                            x       y       z     vdW  Elec       q    Type
                         _______ _______ _______ _____ _____    ______ ____

>  <TORSDO>
F 6

$$$$
=
 OpenBabel11062413333D

 28 31  0  0  1  0  0  0  0  0999 V2000
  189.5050  177.0990  139.8900 C   0  0  0  0  0  0  0  0  0  0  0  0
  187.5100  177.9140  138.7260 C   0  0  0  0  0  3  0  0  0  0  0  0
  188.2800  177.8470  139.8790 C   0  0  0  0  0  0  0  0  0  0  0  0
  188.1090  178.3810  141.1300 C   0  0  0  0  0  0  0  0  0  0  0  0
  189.1940  177.9650  141.8950 C   0  0  0  0  0  0  0  0  0  0  0  0
  189.1280  176.5320  137.6060 C   0  0  0  0  0  3  0  0  0  0  0  0
  187.9590  177.2520  137.6180 N   0  0  0  0  0  0  0  0  0  0  0  0
  190.0710  177.1710  141.1470 C   0  0  0  0  0  2  0  0  0  0  0  0
  189.9380  176.4330  138.7520 C   0  0  0  0  0  3  0  0  0  0  0  0
  189.3650  178.2930  143.2760 N   0  0  0  0  0  2  0  0  0  0  0  0
  192.0560  177.5230  143.6330 N   0  0  0  0  0  2  0  0  0  0  0  0
  190.8490  177.1280  146.9810 N   0  0  0  0  0  2  0  0  0  0  0  0
  188.9200  177.5660  145.5510 C   0  0  0  0  0  2  0  0  0  0  0  0
  191.2120  177.3600  144.5850 C   0  0  0  0  0  0  0  0  0  0  0  0
  189.4650  176.7430  146.7150 C   0  0  0  0  0  2  0  0  0  0  0  0
  191.6800  176.7080  145.8540 C   0  0  0  0  0  2  0  0  0  0  0  0
  189.7320  177.3060  144.2830 C   0  0  2  0  0  3  0  0  0  0  0  0
  186.9460  179.1910  141.6020 C   0  0  0  0  0  2  0  0  0  0  0  0
  185.7210  178.3050  141.8100 C   0  0  1  0  0  3  0  0  0  0  0  0
  185.4700  178.1310  145.6070 C   0  0  0  0  0  3  0  0  0  0  0  0
  185.9810  178.0210  144.3110 C   0  0  0  0  0  3  0  0  0  0  0  0
  184.1800  178.6280  145.8110 C   0  0  0  0  0  3  0  0  0  0  0  0
  183.4000  179.0160  144.7180 C   0  0  0  0  0  3  0  0  0  0  0  0
  183.9090  178.9070  143.4200 C   0  0  0  0  0  3  0  0  0  0  0  0
  185.2000  178.4090  143.2100 C   0  0  0  0  0  0  0  0  0  0  0  0
  184.6800  179.7500  140.0620 O   0  0  0  0  0  0  0  0  0  0  0  0
  183.7250  177.7390  140.6010 O   0  0  0  0  0  1  0  0  0  0  0  0
  184.6490  178.5740  140.7970 C   0  0  0  0  0  0  0  0  0  0  0  0
  1  8  1  0  0  0  0
  2  3  1  0  0  0  0
  3  1  2  0  0  0  0
  3  4  1  0  0  0  0
  4 18  1  0  0  0  0
  4  5  2  0  0  0  0
  5 10  1  0  0  0  0
  6  7  1  0  0  0  0
  6  9  2  0  0  0  0
  7  2  2  0  0  0  0
  8  5  1  0  0  0  0
  9  1  1  0  0  0  0
 11 14  2  0  0  0  0
 13 15  1  0  0  0  0
 14 16  1  0  0  0  0
 15 12  1  0  0  0  0
 16 12  1  0  0  0  0
 17 10  1  6  0  0  0
 17 14  1  0  0  0  0
 17 13  1  0  0  0  0
 19 18  1  1  0  0  0
 19 25  1  0  0  0  0
 20 22  1  0  0  0  0
 21 20  2  0  0  0  0
 23 22  2  0  0  0  0
 24 23  1  0  0  0  0
 25 24  2  0  0  0  0
 25 21  1  0  0  0  0
 26 28  2  0  0  0  0
 27 28  1  0  0  0  0
 28 19  1  0  0  0  0
M  END
>  <MODEL>
9

>  <REMARK>
 VINA RESULT:      -8.5      2.194      5.666
  Name = 
  6 active torsions:
  status: ('A' for Active; 'I' for Inactive)
    1  A    between atoms: C_7  and  C_24
    2  A    between atoms: C_10  and  C_11
    3  A    between atoms: C_10  and  C_24
    4  A    between atoms: C_10  and  C_28
    5  A    between atoms: C_12  and  N_23
    6  A    between atoms: N_23  and  C_27
                            x       y       z     vdW  Elec       q    Type
                         _______ _______ _______ _____ _____    ______ ____

>  <TORSDO>
F 6

$$$$
