=
 OpenBabel11062413293D

 30 32  0  0  1  0  0  0  0  0999 V2000
  185.2400  179.4930  142.9500 C   0  0  0  0  0  3  0  0  0  0  0  0
  185.3590  178.6390  144.0480 C   0  0  0  0  0  0  0  0  0  0  0  0
  187.0590  178.3690  141.8140 C   0  0  0  0  0  0  0  0  0  0  0  0
  186.3810  177.6560  144.0590 C   0  0  0  0  0  0  0  0  0  0  0  0
  187.2110  177.5020  142.9190 C   0  0  0  0  0  0  0  0  0  0  0  0
  188.2740  176.4470  142.8950 C   0  0  0  0  0  1  0  0  0  0  0  0
  186.0840  179.3680  141.8520 C   0  0  0  0  0  3  0  0  0  0  0  0
  190.3030  176.7840  139.1150 C   0  0  2  0  0  3  0  0  0  0  0  0
  188.2720  177.9860  138.1880 C   0  0  0  0  0  2  0  0  0  0  0  0
  189.9910  177.0170  140.5880 C   0  0  0  0  0  2  0  0  0  0  0  0
  189.0300  176.6640  138.2610 C   0  0  1  0  0  3  0  0  0  0  0  0
  189.3400  178.3720  140.8130 C   0  0  0  0  0  2  0  0  0  0  0  0
  187.2670  178.1090  139.3290 C   0  0  0  0  0  2  0  0  0  0  0  0
  187.8930  178.2600  140.6480 N   0  0  0  0  0  0  0  0  0  0  0  0
  191.0680  175.6210  139.0070 O   0  0  0  0  0  1  0  0  0  0  0  0
  189.3170  176.1570  136.8680 C   0  0  0  0  0  3  0  0  0  0  0  0
  187.4200  174.5300  136.8070 C   0  0  0  0  0  1  0  0  0  0  0  0
  188.6120  175.2170  136.2210 C   0  0  0  0  0  3  0  0  0  0  0  0
  184.3440  178.8260  145.1460 C   0  0  1  0  0  3  0  0  0  0  0  0
  184.8670  179.4650  146.2730 O   0  0  0  0  0  1  0  0  0  0  0  0
  183.0150  179.4270  144.6840 C   0  0  0  0  0  2  0  0  0  0  0  0
  182.1360  178.4490  143.9220 C   0  0  0  0  0  2  0  0  0  0  0  0
  180.8290  178.5340  144.3650 F   0  0  0  0  0  0  0  0  0  0  0  0
  186.5580  176.7620  145.2630 C   0  0  0  0  0  2  0  0  0  0  0  0
  189.8390  177.6020  146.9620 C   0  0  0  0  0  3  0  0  0  0  0  0
  188.9050  177.1320  146.0340 C   0  0  0  0  0  3  0  0  0  0  0  0
  189.4070  178.2350  148.1320 C   0  0  0  0  0  3  0  0  0  0  0  0
  187.5360  177.2990  146.2670 C   0  0  0  0  0  0  0  0  0  0  0  0
  188.0390  178.3960  148.3750 C   0  0  0  0  0  3  0  0  0  0  0  0
  187.1060  177.9260  147.4460 C   0  0  0  0  0  3  0  0  0  0  0  0
  1  2  1  0  0  0  0
  2  4  2  0  0  0  0
  2 19  1  0  0  0  0
  3  7  1  0  0  0  0
  3  5  2  0  0  0  0
  4 24  1  0  0  0  0
  5  4  1  0  0  0  0
  6  5  1  0  0  0  0
  7  1  2  0  0  0  0
  8 15  1  1  0  0  0
  8 10  1  0  0  0  0
  9 11  1  0  0  0  0
  9 13  1  0  0  0  0
 10 12  1  0  0  0  0
 11 16  1  6  0  0  0
 11  8  1  0  0  0  0
 13 14  1  0  0  0  0
 14 12  1  0  0  0  0
 14  3  1  0  0  0  0
 18 17  1  0  0  0  0
 18 16  2  0  0  0  0
 19 20  1  1  0  0  0
 21 19  1  0  0  0  0
 22 23  1  0  0  0  0
 22 21  1  0  0  0  0
 24 28  1  0  0  0  0
 25 27  1  0  0  0  0
 26 28  1  0  0  0  0
 26 25  2  0  0  0  0
 27 29  2  0  0  0  0
 28 30  2  0  0  0  0
 30 29  1  0  0  0  0
M  END
>  <MODEL>
1

>  <REMARK>
 VINA RESULT:      -8.4      0.000      0.000
  Name = 
  7 active torsions:
  status: ('A' for Active; 'I' for Inactive)
    1  A    between atoms: C_1  and  C_25
    2  A    between atoms: C_3  and  C_17
    3  A    between atoms: C_4  and  C_16
    4  A    between atoms: C_4  and  C_17
    5  A    between atoms: C_12  and  C_14
    6  A    between atoms: C_14  and  C_21
    7  A    between atoms: C_20  and  N_29
                            x       y       z     vdW  Elec       q    Type
                         _______ _______ _______ _____ _____    ______ ____

>  <TORSDO>
F 7

$$$$
=
 OpenBabel11062413293D

 30 32  0  0  1  0  0  0  0  0999 V2000
  186.0670  178.8020  146.9120 C   0  0  0  0  0  3  0  0  0  0  0  0
  187.1650  177.9520  146.7730 C   0  0  0  0  0  0  0  0  0  0  0  0
  185.5460  178.5980  144.5560 C   0  0  0  0  0  0  0  0  0  0  0  0
  187.4980  177.4470  145.4900 C   0  0  0  0  0  0  0  0  0  0  0  0
  186.6610  177.7480  144.3850 C   0  0  0  0  0  0  0  0  0  0  0  0
  186.9750  177.1970  143.0280 C   0  0  0  0  0  1  0  0  0  0  0  0
  185.2730  179.1290  145.8180 C   0  0  0  0  0  3  0  0  0  0  0  0
  184.1440  178.9830  140.2890 C   0  0  2  0  0  3  0  0  0  0  0  0
  182.5060  178.8910  142.2240 C   0  0  0  0  0  2  0  0  0  0  0  0
  185.4120  179.0270  141.1320 C   0  0  0  0  0  2  0  0  0  0  0  0
  183.0180  178.1870  140.9710 C   0  0  1  0  0  3  0  0  0  0  0  0
  185.2050  179.8190  142.4120 C   0  0  0  0  0  2  0  0  0  0  0  0
  183.2960  178.4640  143.4570 C   0  0  0  0  0  2  0  0  0  0  0  0
  184.6840  178.9430  143.4590 N   0  0  0  0  0  0  0  0  0  0  0  0
  184.4570  178.4160  139.0530 O   0  0  0  0  0  1  0  0  0  0  0  0
  181.8680  177.9000  140.0350 C   0  0  0  0  0  3  0  0  0  0  0  0
  182.6140  175.5900  139.4370 C   0  0  0  0  0  1  0  0  0  0  0  0
  181.6840  176.7580  139.3550 C   0  0  0  0  0  3  0  0  0  0  0  0
  187.9060  177.6140  148.0410 C   0  0  1  0  0  3  0  0  0  0  0  0
  188.2110  176.2540  148.1520 O   0  0  0  0  0  1  0  0  0  0  0  0
  189.1050  178.5190  148.3330 C   0  0  0  0  0  2  0  0  0  0  0  0
  190.3770  177.7560  148.6640 C   0  0  0  0  0  2  0  0  0  0  0  0
  190.9530  177.2600  147.5090 F   0  0  0  0  0  0  0  0  0  0  0  0
  188.7160  176.5720  145.3140 C   0  0  0  0  0  2  0  0  0  0  0  0
  191.6020  177.0260  142.9010 C   0  0  0  0  0  3  0  0  0  0  0  0
  190.5590  176.4500  143.6330 C   0  0  0  0  0  3  0  0  0  0  0  0
  191.9060  178.3810  143.0630 C   0  0  0  0  0  3  0  0  0  0  0  0
  189.8120  177.2260  144.5250 C   0  0  0  0  0  0  0  0  0  0  0  0
  191.1700  179.1600  143.9610 C   0  0  0  0  0  3  0  0  0  0  0  0
  190.1280  178.5830  144.6930 C   0  0  0  0  0  3  0  0  0  0  0  0
  2  1  1  0  0  0  0
  2 19  1  0  0  0  0
  3  7  1  0  0  0  0
  4  2  2  0  0  0  0
  5  3  2  0  0  0  0
  5  4  1  0  0  0  0
  6  5  1  0  0  0  0
  7  1  2  0  0  0  0
  8 15  1  6  0  0  0
  8 11  1  0  0  0  0
  8 10  1  0  0  0  0
  9 13  1  0  0  0  0
 10 12  1  0  0  0  0
 11 16  1  6  0  0  0
 11  9  1  0  0  0  0
 12 14  1  0  0  0  0
 13 14  1  0  0  0  0
 14  3  1  0  0  0  0
 18 17  1  0  0  0  0
 18 16  2  0  0  0  0
 19 20  1  6  0  0  0
 19 21  1  0  0  0  0
 21 22  1  0  0  0  0
 23 22  1  0  0  0  0
 24  4  1  0  0  0  0
 25 27  2  0  0  0  0
 25 26  1  0  0  0  0
 26 28  2  0  0  0  0
 27 29  1  0  0  0  0
 28 30  1  0  0  0  0
 28 24  1  0  0  0  0
 29 30  2  0  0  0  0
M  END
>  <MODEL>
2

>  <REMARK>
 VINA RESULT:      -8.2      3.814      5.589
  Name = 
  7 active torsions:
  status: ('A' for Active; 'I' for Inactive)
    1  A    between atoms: C_1  and  C_25
    2  A    between atoms: C_3  and  C_17
    3  A    between atoms: C_4  and  C_16
    4  A    between atoms: C_4  and  C_17
    5  A    between atoms: C_12  and  C_14
    6  A    between atoms: C_14  and  C_21
    7  A    between atoms: C_20  and  N_29
                            x       y       z     vdW  Elec       q    Type
                         _______ _______ _______ _____ _____    ______ ____

>  <TORSDO>
F 7

$$$$
=
 OpenBabel11062413293D

 30 32  0  0  1  0  0  0  0  0999 V2000
  191.0510  177.5490  144.1650 C   0  0  0  0  0  3  0  0  0  0  0  0
  189.8550  177.1570  144.7670 C   0  0  0  0  0  0  0  0  0  0  0  0
  189.9940  177.6130  141.9870 C   0  0  0  0  0  0  0  0  0  0  0  0
  188.7080  176.9380  143.9620 C   0  0  0  0  0  0  0  0  0  0  0  0
  188.7740  177.2010  142.5700 C   0  0  0  0  0  0  0  0  0  0  0  0
  187.5650  177.0100  141.7060 C   0  0  0  0  0  1  0  0  0  0  0  0
  191.1240  177.7650  142.7930 C   0  0  0  0  0  3  0  0  0  0  0  0
  190.4350  176.7360  137.5870 C   0  0  2  0  0  3  0  0  0  0  0  0
  189.3250  178.8610  138.4150 C   0  0  0  0  0  2  0  0  0  0  0  0
  190.8830  176.2260  138.9520 C   0  0  0  0  0  2  0  0  0  0  0  0
  189.1290  177.5450  137.6680 C   0  0  1  0  0  3  0  0  0  0  0  0
  191.2840  177.3690  139.8700 C   0  0  0  0  0  2  0  0  0  0  0  0
  189.0840  178.6850  139.9110 C   0  0  0  0  0  2  0  0  0  0  0  0
  190.1080  177.8720  140.5780 N   0  0  0  0  0  0  0  0  0  0  0  0
  190.2720  175.6390  136.7410 O   0  0  0  0  0  1  0  0  0  0  0  0
  188.5330  177.8100  136.3050 C   0  0  0  0  0  3  0  0  0  0  0  0
  186.1540  177.5610  137.0320 C   0  0  0  0  0  1  0  0  0  0  0  0
  187.2220  177.8180  136.0180 C   0  0  0  0  0  3  0  0  0  0  0  0
  189.8810  177.0230  146.2680 C   0  0  1  0  0  3  0  0  0  0  0  0
  191.0910  176.5190  146.7530 O   0  0  0  0  0  1  0  0  0  0  0  0
  189.4090  178.2670  147.0230 C   0  0  0  0  0  2  0  0  0  0  0  0
  188.7560  177.9580  148.3580 C   0  0  0  0  0  2  0  0  0  0  0  0
  188.1580  176.7120  148.3220 F   0  0  0  0  0  0  0  0  0  0  0  0
  187.4220  176.4580  144.5910 C   0  0  0  0  0  2  0  0  0  0  0  0
  185.1450  179.0110  146.2230 C   0  0  0  0  0  3  0  0  0  0  0  0
  186.1120  178.0180  146.0380 C   0  0  0  0  0  3  0  0  0  0  0  0
  184.4530  179.5270  145.1230 C   0  0  0  0  0  3  0  0  0  0  0  0
  186.3960  177.5420  144.7530 C   0  0  0  0  0  0  0  0  0  0  0  0
  184.7260  179.0490  143.8380 C   0  0  0  0  0  3  0  0  0  0  0  0
  185.6920  178.0560  143.6540 C   0  0  0  0  0  3  0  0  0  0  0  0
  1  2  1  0  0  0  0
  2 19  1  0  0  0  0
  3  5  2  0  0  0  0
  3  7  1  0  0  0  0
  4 24  1  0  0  0  0
  4  2  2  0  0  0  0
  5  4  1  0  0  0  0
  6  5  1  0  0  0  0
  7  1  2  0  0  0  0
  8 15  1  6  0  0  0
  8 11  1  0  0  0  0
  8 10  1  0  0  0  0
  9 13  1  0  0  0  0
 10 12  1  0  0  0  0
 11 16  1  6  0  0  0
 11  9  1  0  0  0  0
 12 14  1  0  0  0  0
 13 14  1  0  0  0  0
 14  3  1  0  0  0  0
 18 16  2  0  0  0  0
 18 17  1  0  0  0  0
 19 20  1  1  0  0  0
 19 21  1  0  0  0  0
 21 22  1  0  0  0  0
 23 22  1  0  0  0  0
 24 28  1  0  0  0  0
 26 25  1  0  0  0  0
 27 25  2  0  0  0  0
 28 26  2  0  0  0  0
 29 27  1  0  0  0  0
 30 29  2  0  0  0  0
 30 28  1  0  0  0  0
M  END
>  <MODEL>
3

>  <REMARK>
 VINA RESULT:      -8.0      2.534      4.292
  Name = 
  7 active torsions:
  status: ('A' for Active; 'I' for Inactive)
    1  A    between atoms: C_1  and  C_25
    2  A    between atoms: C_3  and  C_17
    3  A    between atoms: C_4  and  C_16
    4  A    between atoms: C_4  and  C_17
    5  A    between atoms: C_12  and  C_14
    6  A    between atoms: C_14  and  C_21
    7  A    between atoms: C_20  and  N_29
                            x       y       z     vdW  Elec       q    Type
                         _______ _______ _______ _____ _____    ______ ____

>  <TORSDO>
F 7

$$$$
=
 OpenBabel11062413293D

 30 32  0  0  1  0  0  0  0  0999 V2000
  184.7170  178.2180  143.8030 C   0  0  0  0  0  3  0  0  0  0  0  0
  184.1310  178.6680  142.6190 C   0  0  0  0  0  0  0  0  0  0  0  0
  186.8390  177.8810  142.6850 C   0  0  0  0  0  0  0  0  0  0  0  0
  184.8950  178.6830  141.4240 C   0  0  0  0  0  0  0  0  0  0  0  0
  186.2660  178.3180  141.4700 C   0  0  0  0  0  0  0  0  0  0  0  0
  187.1000  178.3590  140.2260 C   0  0  0  0  0  1  0  0  0  0  0  0
  186.0490  177.8200  143.8350 C   0  0  0  0  0  3  0  0  0  0  0  0
  191.1910  178.0720  143.8430 C   0  0  2  0  0  3  0  0  0  0  0  0
  190.0500  175.8690  143.3180 C   0  0  0  0  0  2  0  0  0  0  0  0
  190.0200  178.9730  143.4690 C   0  0  0  0  0  2  0  0  0  0  0  0
  190.7280  176.7130  144.3940 C   0  0  1  0  0  3  0  0  0  0  0  0
  189.2410  178.4130  142.2910 C   0  0  0  0  0  2  0  0  0  0  0  0
  188.5510  176.1440  143.2660 C   0  0  0  0  0  2  0  0  0  0  0  0
  188.2180  177.4850  142.7690 N   0  0  0  0  0  0  0  0  0  0  0  0
  191.9700  178.7370  144.7920 O   0  0  0  0  0  1  0  0  0  0  0  0
  191.8570  175.9330  145.0250 C   0  0  0  0  0  3  0  0  0  0  0  0
  191.1920  176.4140  147.3860 C   0  0  0  0  0  1  0  0  0  0  0  0
  192.0680  175.7980  146.3430 C   0  0  0  0  0  3  0  0  0  0  0  0
  182.7030  179.1390  142.7230 C   0  0  1  0  0  3  0  0  0  0  0  0
  181.8950  178.6720  141.6820 O   0  0  0  0  0  1  0  0  0  0  0  0
  182.0710  178.9410  144.1020 C   0  0  0  0  0  2  0  0  0  0  0  0
  180.5570  178.8230  144.0660 C   0  0  0  0  0  2  0  0  0  0  0  0
  180.1730  177.5140  144.2920 F   0  0  0  0  0  0  0  0  0  0  0  0
  184.2600  179.1130  140.1240 C   0  0  0  0  0  2  0  0  0  0  0  0
  182.9540  175.8210  138.7760 C   0  0  0  0  0  3  0  0  0  0  0  0
  183.2020  176.9070  139.6220 C   0  0  0  0  0  3  0  0  0  0  0  0
  183.5010  175.7970  137.4900 C   0  0  0  0  0  3  0  0  0  0  0  0
  183.9920  177.9750  139.1840 C   0  0  0  0  0  0  0  0  0  0  0  0
  184.2990  176.8580  137.0490 C   0  0  0  0  0  3  0  0  0  0  0  0
  184.5460  177.9420  137.8950 C   0  0  0  0  0  3  0  0  0  0  0  0
  1  7  1  0  0  0  0
  2 19  1  0  0  0  0
  2  1  2  0  0  0  0
  3 14  1  0  0  0  0
  3  7  2  0  0  0  0
  4  5  2  0  0  0  0
  4  2  1  0  0  0  0
  5  3  1  0  0  0  0
  6  5  1  0  0  0  0
  8 11  1  0  0  0  0
  8 15  1  1  0  0  0
  9 11  1  0  0  0  0
 10  8  1  0  0  0  0
 11 16  1  6  0  0  0
 12 14  1  0  0  0  0
 12 10  1  0  0  0  0
 13  9  1  0  0  0  0
 14 13  1  0  0  0  0
 16 18  2  0  0  0  0
 18 17  1  0  0  0  0
 19 20  1  6  0  0  0
 19 21  1  0  0  0  0
 22 21  1  0  0  0  0
 22 23  1  0  0  0  0
 24  4  1  0  0  0  0
 25 26  1  0  0  0  0
 27 25  2  0  0  0  0
 28 26  2  0  0  0  0
 28 24  1  0  0  0  0
 29 27  1  0  0  0  0
 29 30  2  0  0  0  0
 30 28  1  0  0  0  0
M  END
>  <MODEL>
4

>  <REMARK>
 VINA RESULT:      -7.8      2.878      6.516
  Name = 
  7 active torsions:
  status: ('A' for Active; 'I' for Inactive)
    1  A    between atoms: C_1  and  C_25
    2  A    between atoms: C_3  and  C_17
    3  A    between atoms: C_4  and  C_16
    4  A    between atoms: C_4  and  C_17
    5  A    between atoms: C_12  and  C_14
    6  A    between atoms: C_14  and  C_21
    7  A    between atoms: C_20  and  N_29
                            x       y       z     vdW  Elec       q    Type
                         _______ _______ _______ _____ _____    ______ ____

>  <TORSDO>
F 7

$$$$
=
 OpenBabel11062413293D

 30 32  0  0  1  0  0  0  0  0999 V2000
  182.4920  178.9770  143.6860 C   0  0  0  0  0  3  0  0  0  0  0  0
  181.7350  178.6910  142.5490 C   0  0  0  0  0  0  0  0  0  0  0  0
  184.5510  178.5370  142.4900 C   0  0  0  0  0  0  0  0  0  0  0  0
  182.3900  178.2700  141.3630 C   0  0  0  0  0  0  0  0  0  0  0  0
  183.8080  178.2270  141.3290 C   0  0  0  0  0  0  0  0  0  0  0  0
  184.5210  177.8180  140.0770 C   0  0  0  0  0  1  0  0  0  0  0  0
  183.8790  178.8920  143.6610 C   0  0  0  0  0  3  0  0  0  0  0  0
  188.6790  176.7930  142.9770 C   0  0  2  0  0  3  0  0  0  0  0  0
  188.2440  178.7770  141.4590 C   0  0  0  0  0  2  0  0  0  0  0  0
  187.2760  176.7090  143.5660 C   0  0  0  0  0  2  0  0  0  0  0  0
  188.6740  177.3150  141.5300 C   0  0  1  0  0  3  0  0  0  0  0  0
  186.6600  178.0870  143.7370 C   0  0  0  0  0  2  0  0  0  0  0  0
  186.7310  178.9000  141.3070 C   0  0  0  0  0  2  0  0  0  0  0  0
  185.9870  178.4860  142.5030 N   0  0  0  0  0  0  0  0  0  0  0  0
  189.2550  175.5220  143.0300 O   0  0  0  0  0  1  0  0  0  0  0  0
  190.0100  177.1360  140.8500 C   0  0  0  0  0  3  0  0  0  0  0  0
  189.0710  176.8150  138.5550 C   0  0  0  0  0  1  0  0  0  0  0  0
  190.1920  176.9150  139.5390 C   0  0  0  0  0  3  0  0  0  0  0  0
  180.2470  178.8870  142.6760 C   0  0  1  0  0  3  0  0  0  0  0  0
  179.6640  178.0540  143.6360 O   0  0  0  0  0  1  0  0  0  0  0  0
  179.8090  180.3470  142.8110 C   0  0  0  0  0  2  0  0  0  0  0  0
  178.9320  180.8270  141.6680 C   0  0  0  0  0  2  0  0  0  0  0  0
  179.6230  181.7300  140.8810 F   0  0  0  0  0  0  0  0  0  0  0  0
  181.5820  177.9020  140.1420 C   0  0  0  0  0  2  0  0  0  0  0  0
  179.6030  180.1330  137.8030 C   0  0  0  0  0  3  0  0  0  0  0  0
  179.9800  179.0550  138.6100 C   0  0  0  0  0  3  0  0  0  0  0  0
  180.4440  181.2430  137.6810 C   0  0  0  0  0  3  0  0  0  0  0  0
  181.1950  179.0850  139.3040 C   0  0  0  0  0  0  0  0  0  0  0  0
  181.6640  181.2750  138.3630 C   0  0  0  0  0  3  0  0  0  0  0  0
  182.0410  180.1970  139.1690 C   0  0  0  0  0  3  0  0  0  0  0  0
  2 19  1  0  0  0  0
  2  1  2  0  0  0  0
  3 14  1  0  0  0  0
  3  7  2  0  0  0  0
  4  2  1  0  0  0  0
  5  4  2  0  0  0  0
  5  3  1  0  0  0  0
  6  5  1  0  0  0  0
  7  1  1  0  0  0  0
  8 15  1  6  0  0  0
  8 10  1  0  0  0  0
  9 11  1  0  0  0  0
 10 12  1  0  0  0  0
 11 16  1  1  0  0  0
 11  8  1  0  0  0  0
 13  9  1  0  0  0  0
 13 14  1  0  0  0  0
 14 12  1  0  0  0  0
 17 18  1  0  0  0  0
 18 16  2  0  0  0  0
 19 21  1  0  0  0  0
 19 20  1  1  0  0  0
 22 21  1  0  0  0  0
 23 22  1  0  0  0  0
 24  4  1  0  0  0  0
 25 26  1  0  0  0  0
 26 28  2  0  0  0  0
 27 25  2  0  0  0  0
 27 29  1  0  0  0  0
 28 24  1  0  0  0  0
 29 30  2  0  0  0  0
 30 28  1  0  0  0  0
M  END
>  <MODEL>
5

>  <REMARK>
 VINA RESULT:      -7.8      3.575      6.564
  Name = 
  7 active torsions:
  status: ('A' for Active; 'I' for Inactive)
    1  A    between atoms: C_1  and  C_25
    2  A    between atoms: C_3  and  C_17
    3  A    between atoms: C_4  and  C_16
    4  A    between atoms: C_4  and  C_17
    5  A    between atoms: C_12  and  C_14
    6  A    between atoms: C_14  and  C_21
    7  A    between atoms: C_20  and  N_29
                            x       y       z     vdW  Elec       q    Type
                         _______ _______ _______ _____ _____    ______ ____

>  <TORSDO>
F 7

$$$$
=
 OpenBabel11062413293D

 30 32  0  0  1  0  0  0  0  0999 V2000
  190.9360  175.7200  137.6390 C   0  0  0  0  0  3  0  0  0  0  0  0
  190.1040  176.5950  136.9400 C   0  0  0  0  0  0  0  0  0  0  0  0
  190.2840  176.7060  139.7520 C   0  0  0  0  0  0  0  0  0  0  0  0
  189.3780  177.5850  137.6500 C   0  0  0  0  0  0  0  0  0  0  0  0
  189.4450  177.6140  139.0670 C   0  0  0  0  0  0  0  0  0  0  0  0
  188.6600  178.6290  139.8400 C   0  0  0  0  0  1  0  0  0  0  0  0
  191.0330  175.7790  139.0240 C   0  0  0  0  0  3  0  0  0  0  0  0
  190.9300  178.3630  143.8940 C   0  0  2  0  0  3  0  0  0  0  0  0
  189.5420  176.2780  143.4970 C   0  0  0  0  0  2  0  0  0  0  0  0
  191.4090  178.5340  142.4580 C   0  0  0  0  0  2  0  0  0  0  0  0
  189.5310  177.7290  143.9710 C   0  0  1  0  0  3  0  0  0  0  0  0
  191.6410  177.1920  141.7830 C   0  0  0  0  0  2  0  0  0  0  0  0
  189.2920  176.1880  141.9950 C   0  0  0  0  0  2  0  0  0  0  0  0
  190.3960  176.7160  141.1850 N   0  0  0  0  0  0  0  0  0  0  0  0
  190.9260  179.6170  144.5080 O   0  0  0  0  0  1  0  0  0  0  0  0
  188.9360  177.8140  145.3570 C   0  0  0  0  0  3  0  0  0  0  0  0
  186.5550  177.8090  144.5970 C   0  0  0  0  0  1  0  0  0  0  0  0
  187.6250  177.8510  145.6400 C   0  0  0  0  0  3  0  0  0  0  0  0
  190.0270  176.3880  135.4490 C   0  0  1  0  0  3  0  0  0  0  0  0
  191.1440  176.8810  134.7680 O   0  0  0  0  0  1  0  0  0  0  0  0
  189.6520  174.9660  135.0260 C   0  0  0  0  0  2  0  0  0  0  0  0
  188.1600  174.6860  135.0850 C   0  0  0  0  0  2  0  0  0  0  0  0
  187.7720  174.4340  136.3870 F   0  0  0  0  0  0  0  0  0  0  0  0
  188.5170  178.5750  136.9030 C   0  0  0  0  0  2  0  0  0  0  0  0
  185.2010  176.7420  136.8480 C   0  0  0  0  0  3  0  0  0  0  0  0
  186.3940  177.3190  137.2950 C   0  0  0  0  0  3  0  0  0  0  0  0
  184.8460  176.8250  135.4980 C   0  0  0  0  0  3  0  0  0  0  0  0
  187.2330  177.9880  136.3960 C   0  0  0  0  0  0  0  0  0  0  0  0
  185.6850  177.4830  134.5940 C   0  0  0  0  0  3  0  0  0  0  0  0
  186.8770  178.0600  135.0410 C   0  0  0  0  0  3  0  0  0  0  0  0
  1  7  1  0  0  0  0
  2  1  2  0  0  0  0
  2  4  1  0  0  0  0
  3 14  1  0  0  0  0
  4  5  2  0  0  0  0
  5  3  1  0  0  0  0
  5  6  1  0  0  0  0
  7  3  2  0  0  0  0
  8 11  1  0  0  0  0
  8 15  1  6  0  0  0
  9 11  1  0  0  0  0
 10  8  1  0  0  0  0
 11 16  1  1  0  0  0
 12 10  1  0  0  0  0
 13  9  1  0  0  0  0
 14 12  1  0  0  0  0
 14 13  1  0  0  0  0
 16 18  2  0  0  0  0
 17 18  1  0  0  0  0
 19 20  1  6  0  0  0
 19  2  1  0  0  0  0
 21 22  1  0  0  0  0
 21 19  1  0  0  0  0
 22 23  1  0  0  0  0
 24  4  1  0  0  0  0
 25 26  1  0  0  0  0
 27 25  2  0  0  0  0
 28 24  1  0  0  0  0
 28 26  2  0  0  0  0
 29 30  2  0  0  0  0
 29 27  1  0  0  0  0
 30 28  1  0  0  0  0
M  END
>  <MODEL>
6

>  <REMARK>
 VINA RESULT:      -7.7      3.222      8.871
  Name = 
  7 active torsions:
  status: ('A' for Active; 'I' for Inactive)
    1  A    between atoms: C_1  and  C_25
    2  A    between atoms: C_3  and  C_17
    3  A    between atoms: C_4  and  C_16
    4  A    between atoms: C_4  and  C_17
    5  A    between atoms: C_12  and  C_14
    6  A    between atoms: C_14  and  C_21
    7  A    between atoms: C_20  and  N_29
                            x       y       z     vdW  Elec       q    Type
                         _______ _______ _______ _____ _____    ______ ____

>  <TORSDO>
F 7

$$$$
=
 OpenBabel11062413293D

 30 32  0  0  1  0  0  0  0  0999 V2000
  182.4380  178.6890  143.9760 C   0  0  0  0  0  3  0  0  0  0  0  0
  181.6500  178.7040  142.8240 C   0  0  0  0  0  0  0  0  0  0  0  0
  184.4630  178.6030  142.6510 C   0  0  0  0  0  0  0  0  0  0  0  0
  182.2710  178.6180  141.5520 C   0  0  0  0  0  0  0  0  0  0  0  0
  183.6870  178.6020  141.4690 C   0  0  0  0  0  0  0  0  0  0  0  0
  184.3660  178.5460  140.1350 C   0  0  0  0  0  1  0  0  0  0  0  0
  183.8240  178.6290  143.8920 C   0  0  0  0  0  3  0  0  0  0  0  0
  188.6230  176.8970  142.9690 C   0  0  2  0  0  3  0  0  0  0  0  0
  188.1140  178.8930  141.4890 C   0  0  0  0  0  2  0  0  0  0  0  0
  187.2440  176.7920  143.6070 C   0  0  0  0  0  2  0  0  0  0  0  0
  188.5600  177.4340  141.5290 C   0  0  1  0  0  3  0  0  0  0  0  0
  186.6200  178.1620  143.8160 C   0  0  0  0  0  2  0  0  0  0  0  0
  186.5950  179.0010  141.3940 C   0  0  0  0  0  2  0  0  0  0  0  0
  185.8990  178.5680  142.6110 N   0  0  0  0  0  0  0  0  0  0  0  0
  189.2130  175.6320  142.9870 O   0  0  0  0  0  1  0  0  0  0  0  0
  189.8720  177.2760  140.7980 C   0  0  0  0  0  3  0  0  0  0  0  0
  188.8570  177.0480  138.5250 C   0  0  0  0  0  1  0  0  0  0  0  0
  190.0100  177.1050  139.4750 C   0  0  0  0  0  3  0  0  0  0  0  0
  180.1640  178.8420  143.0390 C   0  0  1  0  0  3  0  0  0  0  0  0
  179.6690  177.9770  144.0190 O   0  0  0  0  0  1  0  0  0  0  0  0
  179.6820  180.2830  143.2180 C   0  0  0  0  0  2  0  0  0  0  0  0
  178.9310  180.8280  142.0160 C   0  0  0  0  0  2  0  0  0  0  0  0
  179.8200  181.2220  141.0340 F   0  0  0  0  0  0  0  0  0  0  0  0
  181.4290  178.5770  140.2990 C   0  0  0  0  0  2  0  0  0  0  0  0
  181.1670  175.0470  138.9460 C   0  0  0  0  0  3  0  0  0  0  0  0
  181.6620  176.3150  139.2640 C   0  0  0  0  0  3  0  0  0  0  0  0
  179.8810  174.6760  139.3510 C   0  0  0  0  0  3  0  0  0  0  0  0
  180.8780  177.2150  139.9950 C   0  0  0  0  0  0  0  0  0  0  0  0
  179.0880  175.5740  140.0720 C   0  0  0  0  0  3  0  0  0  0  0  0
  179.5840  176.8420  140.3900 C   0  0  0  0  0  3  0  0  0  0  0  0
  2 19  1  0  0  0  0
  2  1  2  0  0  0  0
  3  7  2  0  0  0  0
  4  2  1  0  0  0  0
  5  4  2  0  0  0  0
  5  3  1  0  0  0  0
  6  5  1  0  0  0  0
  7  1  1  0  0  0  0
  8 15  1  6  0  0  0
  8 10  1  0  0  0  0
  9 11  1  0  0  0  0
 10 12  1  0  0  0  0
 11 16  1  1  0  0  0
 11  8  1  0  0  0  0
 13  9  1  0  0  0  0
 13 14  1  0  0  0  0
 14  3  1  0  0  0  0
 14 12  1  0  0  0  0
 17 18  1  0  0  0  0
 18 16  2  0  0  0  0
 19 21  1  0  0  0  0
 19 20  1  1  0  0  0
 22 21  1  0  0  0  0
 23 22  1  0  0  0  0
 24  4  1  0  0  0  0
 25 26  2  0  0  0  0
 25 27  1  0  0  0  0
 26 28  1  0  0  0  0
 27 29  2  0  0  0  0
 28 24  1  0  0  0  0
 28 30  2  0  0  0  0
 29 30  1  0  0  0  0
M  END
>  <MODEL>
7

>  <REMARK>
 VINA RESULT:      -7.7      3.339      6.318
  Name = 
  7 active torsions:
  status: ('A' for Active; 'I' for Inactive)
    1  A    between atoms: C_1  and  C_25
    2  A    between atoms: C_3  and  C_17
    3  A    between atoms: C_4  and  C_16
    4  A    between atoms: C_4  and  C_17
    5  A    between atoms: C_12  and  C_14
    6  A    between atoms: C_14  and  C_21
    7  A    between atoms: C_20  and  N_29
                            x       y       z     vdW  Elec       q    Type
                         _______ _______ _______ _____ _____    ______ ____

>  <TORSDO>
F 7

$$$$
=
 OpenBabel11062413293D

 30 32  0  0  1  0  0  0  0  0999 V2000
  192.8720  176.8110  139.6720 C   0  0  0  0  0  3  0  0  0  0  0  0
  192.1810  176.6330  138.4720 C   0  0  0  0  0  0  0  0  0  0  0  0
  190.8480  177.5330  140.7900 C   0  0  0  0  0  0  0  0  0  0  0  0
  190.8020  176.9570  138.4070 C   0  0  0  0  0  0  0  0  0  0  0  0
  190.1290  177.3770  139.5830 C   0  0  0  0  0  0  0  0  0  0  0  0
  188.6650  177.6910  139.5450 C   0  0  0  0  0  1  0  0  0  0  0  0
  192.2180  177.2630  140.8130 C   0  0  0  0  0  3  0  0  0  0  0  0
  187.9310  177.5380  144.2260 C   0  0  2  0  0  3  0  0  0  0  0  0
  190.2060  178.6430  144.4110 C   0  0  0  0  0  2  0  0  0  0  0  0
  188.0230  177.1870  142.7460 C   0  0  0  0  0  2  0  0  0  0  0  0
  189.3050  177.5190  144.9160 C   0  0  1  0  0  3  0  0  0  0  0  0
  188.7740  178.2540  141.9660 C   0  0  0  0  0  2  0  0  0  0  0  0
  191.0200  178.1940  143.2010 C   0  0  0  0  0  2  0  0  0  0  0  0
  190.2080  177.9740  141.9990 N   0  0  0  0  0  0  0  0  0  0  0  0
  187.0700  176.6260  144.8400 O   0  0  0  0  0  1  0  0  0  0  0  0
  189.1940  177.5850  146.4210 C   0  0  0  0  0  3  0  0  0  0  0  0
  191.3500  176.4040  146.8740 C   0  0  0  0  0  1  0  0  0  0  0  0
  190.0910  177.0950  147.2900 C   0  0  0  0  0  3  0  0  0  0  0  0
  192.9790  176.0710  137.3240 C   0  0  1  0  0  3  0  0  0  0  0  0
  194.0370  176.8980  136.9350 O   0  0  0  0  0  1  0  0  0  0  0  0
  193.3990  174.6100  137.5010 C   0  0  0  0  0  2  0  0  0  0  0  0
  194.8930  174.4280  137.7060 C   0  0  0  0  0  2  0  0  0  0  0  0
  195.1780  174.2770  139.0500 F   0  0  0  0  0  0  0  0  0  0  0  0
  190.0540  176.8250  137.1020 C   0  0  0  0  0  2  0  0  0  0  0  0
  187.0500  174.5280  136.8540 C   0  0  0  0  0  3  0  0  0  0  0  0
  187.8410  175.6790  136.9210 C   0  0  0  0  0  3  0  0  0  0  0  0
  187.6480  173.2650  136.8820 C   0  0  0  0  0  3  0  0  0  0  0  0
  189.2340  175.5720  137.0080 C   0  0  0  0  0  0  0  0  0  0  0  0
  189.0380  173.1510  136.9790 C   0  0  0  0  0  3  0  0  0  0  0  0
  189.8290  174.3010  137.0450 C   0  0  0  0  0  3  0  0  0  0  0  0
  1  7  1  0  0  0  0
  2  1  2  0  0  0  0
  3  7  2  0  0  0  0
  3 14  1  0  0  0  0
  4  2  1  0  0  0  0
  4  5  2  0  0  0  0
  5  3  1  0  0  0  0
  6  5  1  0  0  0  0
  8 15  1  1  0  0  0
  8 11  1  0  0  0  0
  9 11  1  0  0  0  0
 10  8  1  0  0  0  0
 11 16  1  1  0  0  0
 12 14  1  0  0  0  0
 12 10  1  0  0  0  0
 13  9  1  0  0  0  0
 14 13  1  0  0  0  0
 16 18  2  0  0  0  0
 17 18  1  0  0  0  0
 19 20  1  1  0  0  0
 19 21  1  0  0  0  0
 19  2  1  0  0  0  0
 21 22  1  0  0  0  0
 22 23  1  0  0  0  0
 24  4  1  0  0  0  0
 25 27  2  0  0  0  0
 25 26  1  0  0  0  0
 26 28  2  0  0  0  0
 27 29  1  0  0  0  0
 28 30  1  0  0  0  0
 28 24  1  0  0  0  0
 29 30  2  0  0  0  0
M  END
>  <MODEL>
8

>  <REMARK>
 VINA RESULT:      -7.6      3.811      9.403
  Name = 
  7 active torsions:
  status: ('A' for Active; 'I' for Inactive)
    1  A    between atoms: C_1  and  C_25
    2  A    between atoms: C_3  and  C_17
    3  A    between atoms: C_4  and  C_16
    4  A    between atoms: C_4  and  C_17
    5  A    between atoms: C_12  and  C_14
    6  A    between atoms: C_14  and  C_21
    7  A    between atoms: C_20  and  N_29
                            x       y       z     vdW  Elec       q    Type
                         _______ _______ _______ _____ _____    ______ ____

>  <TORSDO>
F 7

$$$$
=
 OpenBabel11062413293D

 30 32  0  0  1  0  0  0  0  0999 V2000
  181.6120  178.6380  143.8860 C   0  0  0  0  0  3  0  0  0  0  0  0
  181.4330  178.7740  142.5090 C   0  0  0  0  0  0  0  0  0  0  0  0
  184.0180  178.7680  143.6370 C   0  0  0  0  0  0  0  0  0  0  0  0
  182.5680  178.8600  141.6620 C   0  0  0  0  0  0  0  0  0  0  0  0
  183.8640  178.8910  142.2380 C   0  0  0  0  0  0  0  0  0  0  0  0
  185.0750  179.0170  141.3650 C   0  0  0  0  0  1  0  0  0  0  0  0
  182.8860  178.6260  144.4430 C   0  0  0  0  0  3  0  0  0  0  0  0
  187.0910  178.5290  146.9260 C   0  0  2  0  0  3  0  0  0  0  0  0
  187.6720  177.9750  144.5200 C   0  0  0  0  0  2  0  0  0  0  0  0
  185.6710  179.0120  146.6600 C   0  0  0  0  0  2  0  0  0  0  0  0
  187.5280  177.4330  145.9390 C   0  0  1  0  0  3  0  0  0  0  0  0
  185.5690  179.7370  145.3280 C   0  0  0  0  0  2  0  0  0  0  0  0
  186.3560  177.8720  143.7560 C   0  0  0  0  0  2  0  0  0  0  0  0
  185.3140  178.7760  144.2580 N   0  0  0  0  0  0  0  0  0  0  0  0
  187.1530  178.0510  148.2370 O   0  0  0  0  0  1  0  0  0  0  0  0
  188.8100  176.7550  146.3640 C   0  0  0  0  0  3  0  0  0  0  0  0
  190.3210  178.2510  145.0490 C   0  0  0  0  0  1  0  0  0  0  0  0
  190.0440  177.1110  145.9750 C   0  0  0  0  0  3  0  0  0  0  0  0
  180.0060  178.8460  142.0300 C   0  0  1  0  0  3  0  0  0  0  0  0
  179.3170  177.6380  142.1760 O   0  0  0  0  0  1  0  0  0  0  0  0
  179.2200  180.0470  142.5600 C   0  0  0  0  0  2  0  0  0  0  0  0
  178.9620  181.1160  141.5120 C   0  0  0  0  0  2  0  0  0  0  0  0
  180.0200  181.1820  140.6250 F   0  0  0  0  0  0  0  0  0  0  0  0
  182.3910  178.9500  140.1660 C   0  0  0  0  0  2  0  0  0  0  0  0
  183.7890  176.3970  137.7400 C   0  0  0  0  0  3  0  0  0  0  0  0
  183.5710  177.5910  138.4330 C   0  0  0  0  0  3  0  0  0  0  0  0
  183.0510  175.2540  138.0640 C   0  0  0  0  0  3  0  0  0  0  0  0
  182.6190  177.6480  139.4580 C   0  0  0  0  0  0  0  0  0  0  0  0
  182.0910  175.3070  139.0800 C   0  0  0  0  0  3  0  0  0  0  0  0
  181.8730  176.5010  139.7720 C   0  0  0  0  0  3  0  0  0  0  0  0
  1  7  1  0  0  0  0
  2  1  2  0  0  0  0
  3 14  1  0  0  0  0
  3  7  2  0  0  0  0
  4  5  2  0  0  0  0
  4  2  1  0  0  0  0
  5  3  1  0  0  0  0
  6  5  1  0  0  0  0
  8 15  1  1  0  0  0
  9 11  1  0  0  0  0
 10  8  1  0  0  0  0
 11 16  1  1  0  0  0
 11  8  1  0  0  0  0
 12 10  1  0  0  0  0
 13 14  1  0  0  0  0
 13  9  1  0  0  0  0
 14 12  1  0  0  0  0
 17 18  1  0  0  0  0
 18 16  2  0  0  0  0
 19 20  1  1  0  0  0
 19  2  1  0  0  0  0
 19 21  1  0  0  0  0
 22 21  1  0  0  0  0
 23 22  1  0  0  0  0
 24  4  1  0  0  0  0
 25 27  2  0  0  0  0
 25 26  1  0  0  0  0
 26 28  2  0  0  0  0
 27 29  1  0  0  0  0
 28 30  1  0  0  0  0
 28 24  1  0  0  0  0
 29 30  2  0  0  0  0
M  END
>  <MODEL>
9

>  <REMARK>
 VINA RESULT:      -7.5      3.664      7.440
  Name = 
  7 active torsions:
  status: ('A' for Active; 'I' for Inactive)
    1  A    between atoms: C_1  and  C_25
    2  A    between atoms: C_3  and  C_17
    3  A    between atoms: C_4  and  C_16
    4  A    between atoms: C_4  and  C_17
    5  A    between atoms: C_12  and  C_14
    6  A    between atoms: C_14  and  C_21
    7  A    between atoms: C_20  and  N_29
                            x       y       z     vdW  Elec       q    Type
                         _______ _______ _______ _____ _____    ______ ____

>  <TORSDO>
F 7

$$$$
