=
 OpenBabel11062412453D

 32 33  0  0  1  0  0  0  0  0999 V2000
  189.2660  176.7340  143.7990 C   0  0  2  0  0  3  0  0  0  0  0  0
  189.9410  177.1850  142.5480 C   0  0  0  0  0  3  0  0  0  0  0  0
  189.7720  176.5360  141.4570 N   0  0  0  0  0  0  0  0  0  0  0  0
  190.5960  175.8980  139.0370 O   0  0  0  0  0  0  0  0  0  0  0  0
  190.5470  177.0400  140.0120 S   0  0  0  0  0  0  0  0  0  0  0  0
  191.9430  177.5010  140.3220 O   0  0  0  0  0  0  0  0  0  0  0  0
  188.2690  178.3860  139.7920 N   0  0  0  0  0  0  0  0  0  0  0  0
  187.4410  178.1960  138.8510 N   0  0  0  0  0  0  0  0  0  0  0  0
  188.1320  178.0520  137.6220 C   0  0  0  0  0  3  0  0  0  0  0  0
  189.6330  178.3900  139.2900 C   0  0  2  0  0  3  0  0  0  0  0  0
  189.4360  178.1570  137.8270 C   0  0  0  0  0  3  0  0  0  0  0  0
  187.8430  176.5850  143.5500 N   0  0  0  0  0  2  0  0  0  0  0  0
  187.2790  177.9260  143.4730 C   0  0  0  0  0  2  0  0  0  0  0  0
  183.5430  178.8940  143.1400 C   0  0  0  0  0  0  0  0  0  0  0  0
  184.0460  178.9650  141.7400 C   0  0  1  0  0  3  0  0  0  0  0  0
  185.8080  177.8800  143.0800 C   0  0  1  0  0  3  0  0  0  0  0  0
  182.3600  179.0220  143.4060 O   0  0  0  0  0  0  0  0  0  0  0  0
  184.7440  178.5270  144.4040 S   0  0  0  0  0  0  0  0  0  0  0  0
  185.5380  178.6840  141.8120 C   0  0  0  0  0  2  0  0  0  0  0  0
  183.4240  177.9770  140.9680 O   0  0  0  0  0  0  0  0  0  0  0  0
  183.4250  178.5690  139.3770 P   0  0  0  0  0  0  0  0  0  0  0  0
  184.2610  180.0380  139.3350 O   0  0  0  0  0  1  0  0  0  0  0  0
  184.1940  177.4670  138.3460 O   0  0  0  0  0  0  0  0  0  0  0  0
  182.0050  178.7930  138.9080 O   0  0  0  0  0  1  0  0  0  0  0  0
  189.4740  177.7200  144.8500 N   0  0  0  0  0  2  0  0  0  0  0  0
  189.7640  176.9920  146.0790 C   0  0  2  0  0  3  0  0  0  0  0  0
  188.4190  176.3830  147.9420 F   0  0  0  0  0  0  0  0  0  0  0  0
  188.8710  177.4750  147.2230 C   0  0  0  0  0  0  0  0  0  0  0  0
  187.7800  178.1730  146.7340 F   0  0  0  0  0  0  0  0  0  0  0  0
  189.5940  178.2950  148.0710 F   0  0  0  0  0  0  0  0  0  0  0  0
  191.7190  175.8410  147.2240 C   0  0  0  0  0  1  0  0  0  0  0  0
  191.2590  177.0430  146.4130 C   0  0  0  0  0  2  0  0  0  0  0  0
  1  2  1  6  0  0  0
  1 25  1  0  0  0  0
  3  2  2  0  0  0  0
  4  5  2  0  0  0  0
  5  6  2  0  0  0  0
  5  3  1  0  0  0  0
  8  7  2  0  0  0  0
  9 11  2  0  0  0  0
  9  8  1  0  0  0  0
 10  7  1  0  0  0  0
 10  5  1  1  0  0  0
 11 10  1  0  0  0  0
 12  1  1  0  0  0  0
 13 12  1  0  0  0  0
 14 17  2  0  0  0  0
 14 18  1  0  0  0  0
 15 20  1  6  0  0  0
 15 19  1  0  0  0  0
 15 14  1  0  0  0  0
 16 13  1  1  0  0  0
 16 18  1  0  0  0  0
 19 16  1  0  0  0  0
 21 20  1  0  0  0  0
 22 21  1  0  0  0  0
 23 21  2  0  0  0  0
 24 21  1  0  0  0  0
 25 26  1  0  0  0  0
 26 32  1  1  0  0  0
 26 28  1  0  0  0  0
 28 27  1  0  0  0  0
 28 30  1  0  0  0  0
 29 28  1  0  0  0  0
 32 31  1  0  0  0  0
M  END
>  <MODEL>
1

>  <REMARK>
 VINA RESULT:      -7.5      0.000      0.000
  Name = 
  12 active torsions:
  status: ('A' for Active; 'I' for Inactive)
    1  A    between atoms: P_3  and  O_14
    2  A    between atoms: N_7  and  C_22
    3  A    between atoms: N_7  and  C_30
    4  A    between atoms: C_10  and  O_14
    5  A    between atoms: C_11  and  S_17
    6  A    between atoms: C_12  and  C_22
    7  A    between atoms: C_15  and  C_18
    8  A    between atoms: C_15  and  C_24
    9  A    between atoms: C_15  and  N_32
   10  A    between atoms: S_17  and  N_29
   11  A    between atoms: C_23  and  C_30
   12  A    between atoms: C_30  and  N_32
                            x       y       z     vdW  Elec       q    Type
                         _______ _______ _______ _____ _____    ______ ____

>  <TORSDO>
F 12

$$$$
=
 OpenBabel11062412453D

 32 33  0  0  1  0  0  0  0  0999 V2000
  189.2250  177.6800  142.5940 C   0  0  2  0  0  3  0  0  0  0  0  0
  187.9480  178.3500  142.2130 C   0  0  0  0  0  3  0  0  0  0  0  0
  186.8360  177.9380  142.6980 N   0  0  0  0  0  0  0  0  0  0  0  0
  184.3310  177.6510  141.9360 O   0  0  0  0  0  0  0  0  0  0  0  0
  185.3600  178.6960  142.2640 S   0  0  0  0  0  0  0  0  0  0  0  0
  185.5790  179.5820  141.0700 O   0  0  0  0  0  0  0  0  0  0  0  0
  185.3510  179.1940  144.8720 N   0  0  0  0  0  0  0  0  0  0  0  0
  184.4440  178.7780  145.6530 N   0  0  0  0  0  0  0  0  0  0  0  0
  183.1730  178.9330  145.0440 C   0  0  0  0  0  3  0  0  0  0  0  0
  184.7800  179.6850  143.6290 C   0  0  2  0  0  3  0  0  0  0  0  0
  183.3170  179.4660  143.8400 C   0  0  0  0  0  3  0  0  0  0  0  0
  189.5910  176.7230  141.5640 N   0  0  0  0  0  2  0  0  0  0  0  0
  190.8210  177.2050  140.9500 C   0  0  0  0  0  2  0  0  0  0  0  0
  190.6850  176.4740  137.1490 C   0  0  0  0  0  0  0  0  0  0  0  0
  189.2740  176.8110  137.4880 C   0  0  1  0  0  3  0  0  0  0  0  0
  190.6430  177.4030  139.4510 C   0  0  1  0  0  3  0  0  0  0  0  0
  191.0460  176.3040  135.9960 O   0  0  0  0  0  0  0  0  0  0  0  0
  191.8420  176.4180  138.5020 S   0  0  0  0  0  0  0  0  0  0  0  0
  189.2400  177.0200  138.9930 C   0  0  0  0  0  2  0  0  0  0  0  0
  188.9080  177.9990  136.8460 O   0  0  0  0  0  0  0  0  0  0  0  0
  187.2370  177.8760  136.5690 P   0  0  0  0  0  0  0  0  0  0  0  0
  186.7780  176.2530  136.6810 O   0  0  0  0  0  1  0  0  0  0  0  0
  186.3880  178.7720  137.7280 O   0  0  0  0  0  1  0  0  0  0  0  0
  186.9030  178.3920  135.1880 O   0  0  0  0  0  0  0  0  0  0  0  0
  189.0540  176.9870  143.8630 N   0  0  0  0  0  2  0  0  0  0  0  0
  189.9310  177.6310  144.8320 C   0  0  2  0  0  3  0  0  0  0  0  0
  192.0940  177.9770  143.9070 F   0  0  0  0  0  0  0  0  0  0  0  0
  191.3640  177.1120  144.7020 C   0  0  0  0  0  0  0  0  0  0  0  0
  191.3800  175.8530  144.1270 F   0  0  0  0  0  0  0  0  0  0  0  0
  191.9580  177.0500  145.9500 F   0  0  0  0  0  0  0  0  0  0  0  0
  187.8490  177.4660  146.2790 C   0  0  0  0  0  1  0  0  0  0  0  0
  189.3690  177.5110  146.2530 C   0  0  0  0  0  2  0  0  0  0  0  0
  1  2  1  6  0  0  0
  1 25  1  0  0  0  0
  2  3  2  0  0  0  0
  4  5  2  0  0  0  0
  5  3  1  0  0  0  0
  6  5  2  0  0  0  0
  7  8  2  0  0  0  0
  9  8  1  0  0  0  0
 10  5  1  6  0  0  0
 10 11  1  0  0  0  0
 10  7  1  0  0  0  0
 11  9  2  0  0  0  0
 12  1  1  0  0  0  0
 13 12  1  0  0  0  0
 14 15  1  0  0  0  0
 14 18  1  0  0  0  0
 15 20  1  6  0  0  0
 15 19  1  0  0  0  0
 16 13  1  1  0  0  0
 17 14  2  0  0  0  0
 18 16  1  0  0  0  0
 19 16  1  0  0  0  0
 21 22  1  0  0  0  0
 21 20  1  0  0  0  0
 21 23  1  0  0  0  0
 24 21  2  0  0  0  0
 25 26  1  0  0  0  0
 26 32  1  1  0  0  0
 27 28  1  0  0  0  0
 28 26  1  0  0  0  0
 28 30  1  0  0  0  0
 29 28  1  0  0  0  0
 32 31  1  0  0  0  0
M  END
>  <MODEL>
2

>  <REMARK>
 VINA RESULT:      -7.3      2.670      5.993
  Name = 
  12 active torsions:
  status: ('A' for Active; 'I' for Inactive)
    1  A    between atoms: P_3  and  O_14
    2  A    between atoms: N_7  and  C_22
    3  A    between atoms: N_7  and  C_30
    4  A    between atoms: C_10  and  O_14
    5  A    between atoms: C_11  and  S_17
    6  A    between atoms: C_12  and  C_22
    7  A    between atoms: C_15  and  C_18
    8  A    between atoms: C_15  and  C_24
    9  A    between atoms: C_15  and  N_32
   10  A    between atoms: S_17  and  N_29
   11  A    between atoms: C_23  and  C_30
   12  A    between atoms: C_30  and  N_32
                            x       y       z     vdW  Elec       q    Type
                         _______ _______ _______ _____ _____    ______ ____

>  <TORSDO>
F 12

$$$$
=
 OpenBabel11062412453D

 32 33  0  0  1  0  0  0  0  0999 V2000
  184.4310  178.9920  140.4910 C   0  0  2  0  0  3  0  0  0  0  0  0
  185.2600  178.5690  139.3260 C   0  0  0  0  0  3  0  0  0  0  0  0
  186.5370  178.6640  139.3770 N   0  0  0  0  0  0  0  0  0  0  0  0
  187.2090  179.0700  136.8620 O   0  0  0  0  0  0  0  0  0  0  0  0
  187.5010  178.1860  138.0420 S   0  0  0  0  0  0  0  0  0  0  0  0
  187.2020  176.7570  137.6890 O   0  0  0  0  0  0  0  0  0  0  0  0
  190.0270  177.5070  137.5870 N   0  0  0  0  0  2  0  0  0  0  0  0
  190.6280  176.5990  138.2370 N   0  0  0  0  0  0  0  0  0  0  0  0
  190.3090  176.7000  139.6150 C   0  0  0  0  0  3  0  0  0  0  0  0
  189.2240  178.3340  138.4730 C   0  0  2  0  0  3  0  0  0  0  0  0
  189.4780  177.7120  139.8090 C   0  0  0  0  0  2  0  0  0  0  0  0
  185.3030  179.3720  141.5890 N   0  0  0  0  0  2  0  0  0  0  0  0
  185.2880  178.2740  142.5470 C   0  0  0  0  0  2  0  0  0  0  0  0
  187.8650  177.3290  145.2800 C   0  0  0  0  0  0  0  0  0  0  0  0
  188.5390  176.9260  144.0130 C   0  0  1  0  0  3  0  0  0  0  0  0
  186.5620  178.2560  143.3810 C   0  0  1  0  0  3  0  0  0  0  0  0
  188.4400  177.2900  146.3540 O   0  0  0  0  0  0  0  0  0  0  0  0
  186.2030  177.9550  145.1380 S   0  0  0  0  0  0  0  0  0  0  0  0
  187.5360  177.1870  142.9010 C   0  0  0  0  0  2  0  0  0  0  0  0
  189.6730  177.7210  143.8120 O   0  0  0  0  0  0  0  0  0  0  0  0
  190.9570  176.6360  143.5750 P   0  0  0  0  0  0  0  0  0  0  0  0
  191.6550  176.2720  145.0710 O   0  0  0  0  0  1  0  0  0  0  0  0
  190.3890  175.2070  142.8680 O   0  0  0  0  0  1  0  0  0  0  0  0
  192.0030  177.2610  142.6800 O   0  0  0  0  0  0  0  0  0  0  0  0
  183.5750  177.8910  140.9090 N   0  0  0  0  0  2  0  0  0  0  0  0
  182.2220  178.1980  140.4630 C   0  0  2  0  0  3  0  0  0  0  0  0
  180.7860  179.8820  141.3300 F   0  0  0  0  0  0  0  0  0  0  0  0
  181.3520  178.6580  141.6340 C   0  0  0  0  0  0  0  0  0  0  0  0
  182.1080  178.7870  142.7860 F   0  0  0  0  0  0  0  0  0  0  0  0
  180.3380  177.7430  141.8550 F   0  0  0  0  0  0  0  0  0  0  0  0
  182.6290  175.9240  139.4030 C   0  0  0  0  0  1  0  0  0  0  0  0
  181.6180  177.0260  139.6810 C   0  0  0  0  0  2  0  0  0  0  0  0
  1  2  1  6  0  0  0
  1 25  1  0  0  0  0
  1 12  1  0  0  0  0
  2  3  2  0  0  0  0
  4  5  2  0  0  0  0
  5  3  1  0  0  0  0
  6  5  2  0  0  0  0
  7  8  1  0  0  0  0
  7 10  1  0  0  0  0
  8  9  2  0  0  0  0
  9 11  1  0  0  0  0
 10  5  1  6  0  0  0
 10 11  1  0  0  0  0
 12 13  1  0  0  0  0
 14 17  2  0  0  0  0
 15 20  1  6  0  0  0
 15 14  1  0  0  0  0
 16 13  1  6  0  0  0
 16 18  1  0  0  0  0
 18 14  1  0  0  0  0
 19 16  1  0  0  0  0
 19 15  1  0  0  0  0
 21 20  1  0  0  0  0
 21 22  1  0  0  0  0
 23 21  1  0  0  0  0
 24 21  2  0  0  0  0
 26 32  1  1  0  0  0
 26 25  1  0  0  0  0
 26 28  1  0  0  0  0
 27 28  1  0  0  0  0
 28 30  1  0  0  0  0
 28 29  1  0  0  0  0
 31 32  1  0  0  0  0
M  END
>  <MODEL>
3

>  <REMARK>
 VINA RESULT:      -7.2      4.239      6.949
  Name = 
  12 active torsions:
  status: ('A' for Active; 'I' for Inactive)
    1  A    between atoms: P_3  and  O_14
    2  A    between atoms: N_7  and  C_22
    3  A    between atoms: N_7  and  C_30
    4  A    between atoms: C_10  and  O_14
    5  A    between atoms: C_11  and  S_17
    6  A    between atoms: C_12  and  C_22
    7  A    between atoms: C_15  and  C_18
    8  A    between atoms: C_15  and  C_24
    9  A    between atoms: C_15  and  N_32
   10  A    between atoms: S_17  and  N_29
   11  A    between atoms: C_23  and  C_30
   12  A    between atoms: C_30  and  N_32
                            x       y       z     vdW  Elec       q    Type
                         _______ _______ _______ _____ _____    ______ ____

>  <TORSDO>
F 12

$$$$
=
 OpenBabel11062412453D

 32 33  0  0  1  0  0  0  0  0999 V2000
  187.3770  177.6960  142.8030 C   0  0  2  0  0  3  0  0  0  0  0  0
  188.8470  177.6970  143.0540 C   0  0  0  0  0  3  0  0  0  0  0  0
  189.3950  176.7150  143.6680 N   0  0  0  0  0  0  0  0  0  0  0  0
  191.7830  177.5670  142.9540 O   0  0  0  0  0  0  0  0  0  0  0  0
  191.0840  176.7060  143.9680 S   0  0  0  0  0  0  0  0  0  0  0  0
  191.6050  175.3000  143.8830 O   0  0  0  0  0  0  0  0  0  0  0  0
  192.1020  176.3560  146.3950 N   0  0  0  0  0  0  0  0  0  0  0  0
  191.4050  176.0000  147.3930 N   0  0  0  0  0  0  0  0  0  0  0  0
  190.1700  176.6950  147.3930 C   0  0  0  0  0  3  0  0  0  0  0  0
  191.3980  177.3500  145.6010 C   0  0  2  0  0  3  0  0  0  0  0  0
  190.1140  177.5080  146.3500 C   0  0  0  0  0  3  0  0  0  0  0  0
  187.1260  178.0720  141.4220 N   0  0  0  0  0  2  0  0  0  0  0  0
  188.4030  178.4740  140.8490 C   0  0  0  0  0  2  0  0  0  0  0  0
  189.2390  177.2140  137.2830 C   0  0  0  0  0  0  0  0  0  0  0  0
  190.5320  177.0770  138.0110 C   0  0  1  0  0  3  0  0  0  0  0  0
  188.8030  177.5540  139.7030 C   0  0  1  0  0  3  0  0  0  0  0  0
  189.0930  176.7910  136.1480 O   0  0  0  0  0  0  0  0  0  0  0  0
  187.8880  177.9470  138.1820 S   0  0  0  0  0  0  0  0  0  0  0  0
  190.2950  177.6450  139.4010 C   0  0  0  0  0  2  0  0  0  0  0  0
  190.8720  175.7240  138.1140 O   0  0  0  0  0  0  0  0  0  0  0  0
  192.4200  175.5860  137.4310 P   0  0  0  0  0  0  0  0  0  0  0  0
  192.3110  175.8300  135.7620 O   0  0  0  0  0  0  0  0  0  0  0  0
  193.4540  176.7510  138.0940 O   0  0  0  0  0  1  0  0  0  0  0  0
  192.9800  174.2060  137.6950 O   0  0  0  0  0  1  0  0  0  0  0  0
  186.7270  178.6490  143.6920 N   0  0  0  0  0  2  0  0  0  0  0  0
  185.5780  177.9770  144.2850 C   0  0  2  0  0  3  0  0  0  0  0  0
  184.5760  180.1010  143.9170 F   0  0  0  0  0  0  0  0  0  0  0  0
  184.2890  178.7510  144.0050 C   0  0  0  0  0  0  0  0  0  0  0  0
  183.3680  178.5540  145.0190 F   0  0  0  0  0  0  0  0  0  0  0  0
  183.7410  178.3350  142.8040 F   0  0  0  0  0  0  0  0  0  0  0  0
  186.1500  178.9540  146.5600 C   0  0  0  0  0  1  0  0  0  0  0  0
  185.8080  177.6970  145.7740 C   0  0  0  0  0  2  0  0  0  0  0  0
  1  2  1  1  0  0  0
  1 25  1  0  0  0  0
  2  3  2  0  0  0  0
  3  5  1  0  0  0  0
  4  5  2  0  0  0  0
  6  5  2  0  0  0  0
  7  8  2  0  0  0  0
  9  8  1  0  0  0  0
 10  5  1  6  0  0  0
 10 11  1  0  0  0  0
 10  7  1  0  0  0  0
 11  9  2  0  0  0  0
 12  1  1  0  0  0  0
 13 12  1  0  0  0  0
 14 15  1  0  0  0  0
 14 18  1  0  0  0  0
 15 20  1  1  0  0  0
 15 19  1  0  0  0  0
 16 13  1  1  0  0  0
 17 14  2  0  0  0  0
 18 16  1  0  0  0  0
 19 16  1  0  0  0  0
 21 24  1  0  0  0  0
 21 23  1  0  0  0  0
 21 20  1  0  0  0  0
 22 21  2  0  0  0  0
 25 26  1  0  0  0  0
 26 32  1  1  0  0  0
 27 28  1  0  0  0  0
 28 26  1  0  0  0  0
 28 29  1  0  0  0  0
 30 28  1  0  0  0  0
 32 31  1  0  0  0  0
M  END
>  <MODEL>
4

>  <REMARK>
 VINA RESULT:      -7.0      4.312      6.936
  Name = 
  12 active torsions:
  status: ('A' for Active; 'I' for Inactive)
    1  A    between atoms: P_3  and  O_14
    2  A    between atoms: N_7  and  C_22
    3  A    between atoms: N_7  and  C_30
    4  A    between atoms: C_10  and  O_14
    5  A    between atoms: C_11  and  S_17
    6  A    between atoms: C_12  and  C_22
    7  A    between atoms: C_15  and  C_18
    8  A    between atoms: C_15  and  C_24
    9  A    between atoms: C_15  and  N_32
   10  A    between atoms: S_17  and  N_29
   11  A    between atoms: C_23  and  C_30
   12  A    between atoms: C_30  and  N_32
                            x       y       z     vdW  Elec       q    Type
                         _______ _______ _______ _____ _____    ______ ____

>  <TORSDO>
F 12

$$$$
=
 OpenBabel11062412453D

 32 33  0  0  1  0  0  0  0  0999 V2000
  188.2410  177.1220  143.4080 C   0  0  2  0  0  3  0  0  0  0  0  0
  189.1410  177.4640  142.2690 C   0  0  0  0  0  3  0  0  0  0  0  0
  189.1080  176.7690  141.1930 N   0  0  0  0  0  0  0  0  0  0  0  0
  190.3290  175.9330  139.0140 O   0  0  0  0  0  0  0  0  0  0  0  0
  190.1400  177.1490  139.8770 S   0  0  0  0  0  0  0  0  0  0  0  0
  191.4720  177.6120  140.3970 O   0  0  0  0  0  0  0  0  0  0  0  0
  187.9860  178.5440  139.1990 N   0  0  0  0  0  0  0  0  0  0  0  0
  187.2930  178.2910  138.1680 N   0  0  0  0  0  0  0  0  0  0  0  0
  188.1450  178.0000  137.0730 C   0  0  0  0  0  3  0  0  0  0  0  0
  189.4060  178.4500  138.9050 C   0  0  2  0  0  3  0  0  0  0  0  0
  189.4100  178.0800  137.4570 C   0  0  0  0  0  3  0  0  0  0  0  0
  187.6110  178.3330  143.9030 N   0  0  0  0  0  2  0  0  0  0  0  0
  186.4200  177.9270  144.6370 C   0  0  0  0  0  2  0  0  0  0  0  0
  183.1110  179.0060  142.9370 C   0  0  0  0  0  0  0  0  0  0  0  0
  184.0940  179.0110  141.8180 C   0  0  1  0  0  3  0  0  0  0  0  0
  185.1950  177.9160  143.7330 C   0  0  1  0  0  3  0  0  0  0  0  0
  181.9200  179.1820  142.7470 O   0  0  0  0  0  0  0  0  0  0  0  0
  183.7490  178.6440  144.5610 S   0  0  0  0  0  0  0  0  0  0  0  0
  185.4420  178.6840  142.4390 C   0  0  0  0  0  2  0  0  0  0  0  0
  183.7560  178.0190  140.8920 O   0  0  0  0  0  0  0  0  0  0  0  0
  183.5660  178.8200  139.4070 P   0  0  0  0  0  0  0  0  0  0  0  0
  183.8970  177.7390  138.1500 O   0  0  0  0  0  0  0  0  0  0  0  0
  181.9770  179.3820  139.2490 O   0  0  0  0  0  1  0  0  0  0  0  0
  184.5250  179.9860  139.3230 O   0  0  0  0  0  1  0  0  0  0  0  0
  189.0170  176.5070  144.4760 N   0  0  0  0  0  2  0  0  0  0  0  0
  189.9930  177.4910  144.9270 C   0  0  2  0  0  3  0  0  0  0  0  0
  192.0780  176.8750  145.8880 F   0  0  0  0  0  0  0  0  0  0  0  0
  191.4200  176.9970  144.6790 C   0  0  0  0  0  0  0  0  0  0  0  0
  192.1150  177.8870  143.8780 F   0  0  0  0  0  0  0  0  0  0  0  0
  191.3890  175.7580  144.0630 F   0  0  0  0  0  0  0  0  0  0  0  0
  188.9960  176.8290  147.1690 C   0  0  0  0  0  1  0  0  0  0  0  0
  189.7360  177.8990  146.3820 C   0  0  0  0  0  2  0  0  0  0  0  0
  1  2  1  6  0  0  0
  1 12  1  0  0  0  0
  1 25  1  0  0  0  0
  3  2  2  0  0  0  0
  4  5  2  0  0  0  0
  5  6  2  0  0  0  0
  5  3  1  0  0  0  0
  8  7  2  0  0  0  0
  9 11  2  0  0  0  0
  9  8  1  0  0  0  0
 10  7  1  0  0  0  0
 10  5  1  1  0  0  0
 11 10  1  0  0  0  0
 12 13  1  0  0  0  0
 14 18  1  0  0  0  0
 15 20  1  6  0  0  0
 15 19  1  0  0  0  0
 15 14  1  0  0  0  0
 16 18  1  0  0  0  0
 16 13  1  1  0  0  0
 17 14  2  0  0  0  0
 19 16  1  0  0  0  0
 21 20  1  0  0  0  0
 22 21  2  0  0  0  0
 23 21  1  0  0  0  0
 24 21  1  0  0  0  0
 25 26  1  0  0  0  0
 26 32  1  1  0  0  0
 28 26  1  0  0  0  0
 28 27  1  0  0  0  0
 29 28  1  0  0  0  0
 30 28  1  0  0  0  0
 32 31  1  0  0  0  0
M  END
>  <MODEL>
5

>  <REMARK>
 VINA RESULT:      -7.0      1.614      2.064
  Name = 
  12 active torsions:
  status: ('A' for Active; 'I' for Inactive)
    1  A    between atoms: P_3  and  O_14
    2  A    between atoms: N_7  and  C_22
    3  A    between atoms: N_7  and  C_30
    4  A    between atoms: C_10  and  O_14
    5  A    between atoms: C_11  and  S_17
    6  A    between atoms: C_12  and  C_22
    7  A    between atoms: C_15  and  C_18
    8  A    between atoms: C_15  and  C_24
    9  A    between atoms: C_15  and  N_32
   10  A    between atoms: S_17  and  N_29
   11  A    between atoms: C_23  and  C_30
   12  A    between atoms: C_30  and  N_32
                            x       y       z     vdW  Elec       q    Type
                         _______ _______ _______ _____ _____    ______ ____

>  <TORSDO>
F 12

$$$$
=
 OpenBabel11062412453D

 32 33  0  0  1  0  0  0  0  0999 V2000
  189.0440  177.5610  142.9910 C   0  0  2  0  0  3  0  0  0  0  0  0
  187.8320  178.3360  142.5980 C   0  0  0  0  0  3  0  0  0  0  0  0
  186.6640  177.8970  142.8920 N   0  0  0  0  0  0  0  0  0  0  0  0
  184.2040  177.8260  141.9540 O   0  0  0  0  0  0  0  0  0  0  0  0
  185.2620  178.7760  142.4420 S   0  0  0  0  0  0  0  0  0  0  0  0
  185.6060  179.7530  141.3530 O   0  0  0  0  0  0  0  0  0  0  0  0
  185.4580  179.3690  145.0220 N   0  0  0  0  0  0  0  0  0  0  0  0
  184.7690  178.7940  145.9180 N   0  0  0  0  0  0  0  0  0  0  0  0
  183.4320  178.6380  145.4740 C   0  0  0  0  0  3  0  0  0  0  0  0
  184.6440  179.6680  143.8560 C   0  0  2  0  0  3  0  0  0  0  0  0
  183.3040  179.1390  144.2550 C   0  0  0  0  0  3  0  0  0  0  0  0
  189.4190  176.6720  141.9040 N   0  0  0  0  0  2  0  0  0  0  0  0
  189.6110  177.5000  140.7210 C   0  0  0  0  0  2  0  0  0  0  0  0
  190.6690  176.4790  137.1380 C   0  0  0  0  0  0  0  0  0  0  0  0
  191.9520  176.4650  137.8960 C   0  0  1  0  0  3  0  0  0  0  0  0
  190.1410  176.6760  139.5560 C   0  0  1  0  0  3  0  0  0  0  0  0
  190.6000  176.0860  135.9860 O   0  0  0  0  0  0  0  0  0  0  0  0
  189.2220  177.0180  138.0250 S   0  0  0  0  0  0  0  0  0  0  0  0
  191.6190  176.9500  139.2980 C   0  0  0  0  0  2  0  0  0  0  0  0
  192.4440  175.1570  137.9620 O   0  0  0  0  0  0  0  0  0  0  0  0
  194.0380  175.2360  137.3830 P   0  0  0  0  0  0  0  0  0  0  0  0
  194.3030  173.9480  136.3200 O   0  0  0  0  0  0  0  0  0  0  0  0
  194.2860  176.6940  136.5580 O   0  0  0  0  0  1  0  0  0  0  0  0
  195.0120  175.1350  138.5350 O   0  0  0  0  0  1  0  0  0  0  0  0
  188.7580  176.7760  144.1840 N   0  0  0  0  0  2  0  0  0  0  0  0
  189.4410  177.4180  145.3000 C   0  0  2  0  0  3  0  0  0  0  0  0
  191.3950  176.8680  146.5370 F   0  0  0  0  0  0  0  0  0  0  0  0
  190.9430  177.1340  145.2580 C   0  0  0  0  0  0  0  0  0  0  0  0
  191.6350  178.2220  144.7540 F   0  0  0  0  0  0  0  0  0  0  0  0
  191.1900  176.0290  144.4620 F   0  0  0  0  0  0  0  0  0  0  0  0
  188.6100  178.2410  147.5570 C   0  0  0  0  0  1  0  0  0  0  0  0
  188.7890  177.0430  146.6360 C   0  0  0  0  0  2  0  0  0  0  0  0
  1  2  1  6  0  0  0
  1 25  1  0  0  0  0
  2  3  2  0  0  0  0
  4  5  2  0  0  0  0
  5  3  1  0  0  0  0
  6  5  2  0  0  0  0
  7  8  2  0  0  0  0
  9  8  1  0  0  0  0
 10  5  1  6  0  0  0
 10 11  1  0  0  0  0
 10  7  1  0  0  0  0
 11  9  2  0  0  0  0
 12  1  1  0  0  0  0
 13 12  1  0  0  0  0
 14 15  1  0  0  0  0
 14 18  1  0  0  0  0
 15 20  1  1  0  0  0
 15 19  1  0  0  0  0
 16 13  1  1  0  0  0
 17 14  2  0  0  0  0
 18 16  1  0  0  0  0
 19 16  1  0  0  0  0
 21 20  1  0  0  0  0
 21 24  1  0  0  0  0
 22 21  2  0  0  0  0
 23 21  1  0  0  0  0
 25 26  1  0  0  0  0
 26 32  1  1  0  0  0
 28 26  1  0  0  0  0
 28 27  1  0  0  0  0
 29 28  1  0  0  0  0
 30 28  1  0  0  0  0
 32 31  1  0  0  0  0
M  END
>  <MODEL>
6

>  <REMARK>
 VINA RESULT:      -6.9      3.297      7.234
  Name = 
  12 active torsions:
  status: ('A' for Active; 'I' for Inactive)
    1  A    between atoms: P_3  and  O_14
    2  A    between atoms: N_7  and  C_22
    3  A    between atoms: N_7  and  C_30
    4  A    between atoms: C_10  and  O_14
    5  A    between atoms: C_11  and  S_17
    6  A    between atoms: C_12  and  C_22
    7  A    between atoms: C_15  and  C_18
    8  A    between atoms: C_15  and  C_24
    9  A    between atoms: C_15  and  N_32
   10  A    between atoms: S_17  and  N_29
   11  A    between atoms: C_23  and  C_30
   12  A    between atoms: C_30  and  N_32
                            x       y       z     vdW  Elec       q    Type
                         _______ _______ _______ _____ _____    ______ ____

>  <TORSDO>
F 12

$$$$
=
 OpenBabel11062412453D

 32 33  0  0  1  0  0  0  0  0999 V2000
  186.3430  178.3450  142.7580 C   0  0  2  0  0  3  0  0  0  0  0  0
  186.0470  178.6290  141.3240 C   0  0  0  0  0  3  0  0  0  0  0  0
  184.8330  178.7140  140.9230 N   0  0  0  0  0  0  0  0  0  0  0  0
  185.6440  178.6270  138.4180 O   0  0  0  0  0  0  0  0  0  0  0  0
  184.4790  179.0340  139.2760 S   0  0  0  0  0  0  0  0  0  0  0  0
  184.2050  180.5000  139.0940 O   0  0  0  0  0  0  0  0  0  0  0  0
  181.8520  178.6720  139.4100 N   0  0  0  0  0  0  0  0  0  0  0  0
  181.3080  177.8350  140.1920 N   0  0  0  0  0  0  0  0  0  0  0  0
  182.0460  176.6250  140.1940 C   0  0  0  0  0  3  0  0  0  0  0  0
  183.0380  178.1050  138.7890 C   0  0  2  0  0  3  0  0  0  0  0  0
  183.0840  176.7330  139.3790 C   0  0  0  0  0  3  0  0  0  0  0  0
  187.2280  177.1970  142.8480 N   0  0  0  0  0  2  0  0  0  0  0  0
  188.5160  177.6860  143.3220 C   0  0  0  0  0  2  0  0  0  0  0  0
  191.6790  177.3530  141.1120 C   0  0  0  0  0  0  0  0  0  0  0  0
  190.6060  176.7480  140.2750 C   0  0  1  0  0  3  0  0  0  0  0  0
  189.4920  177.8680  142.1680 C   0  0  1  0  0  3  0  0  0  0  0  0
  192.8060  177.5330  140.6810 O   0  0  0  0  0  0  0  0  0  0  0  0
  191.2160  177.8830  142.7480 S   0  0  0  0  0  0  0  0  0  0  0  0
  189.3480  176.7630  141.1270 C   0  0  0  0  0  2  0  0  0  0  0  0
  190.4030  177.5310  139.1330 O   0  0  0  0  0  0  0  0  0  0  0  0
  189.9790  176.4440  137.9000 P   0  0  0  0  0  0  0  0  0  0  0  0
  188.2930  176.3350  137.8180 O   0  0  0  0  0  1  0  0  0  0  0  0
  190.5700  176.9930  136.4110 O   0  0  0  0  0  0  0  0  0  0  0  0
  190.5500  175.0760  138.1970 O   0  0  0  0  0  1  0  0  0  0  0  0
  185.1030  178.0600  143.4670 N   0  0  0  0  0  2  0  0  0  0  0  0
  184.9110  179.1170  144.4510 C   0  0  2  0  0  3  0  0  0  0  0  0
  186.0060  179.5860  146.5090 F   0  0  0  0  0  0  0  0  0  0  0  0
  185.2560  178.6240  145.8570 C   0  0  0  0  0  0  0  0  0  0  0  0
  185.9860  177.4490  145.8000 F   0  0  0  0  0  0  0  0  0  0  0  0
  184.0950  178.4050  146.5770 F   0  0  0  0  0  0  0  0  0  0  0  0
  182.4840  178.7360  143.8030 C   0  0  0  0  0  1  0  0  0  0  0  0
  183.5070  179.7220  144.3470 C   0  0  0  0  0  2  0  0  0  0  0  0
  1  2  1  6  0  0  0
  1 12  1  0  0  0  0
  1 25  1  0  0  0  0
  3  2  2  0  0  0  0
  4  5  2  0  0  0  0
  5  3  1  0  0  0  0
  6  5  2  0  0  0  0
  7  8  2  0  0  0  0
  8  9  1  0  0  0  0
 10  5  1  1  0  0  0
 10 11  1  0  0  0  0
 10  7  1  0  0  0  0
 11  9  2  0  0  0  0
 12 13  1  0  0  0  0
 14 18  1  0  0  0  0
 15 20  1  6  0  0  0
 15 14  1  0  0  0  0
 15 19  1  0  0  0  0
 16 18  1  0  0  0  0
 16 13  1  1  0  0  0
 17 14  2  0  0  0  0
 19 16  1  0  0  0  0
 21 24  1  0  0  0  0
 21 20  1  0  0  0  0
 22 21  1  0  0  0  0
 23 21  2  0  0  0  0
 25 26  1  0  0  0  0
 26 32  1  1  0  0  0
 26 28  1  0  0  0  0
 28 27  1  0  0  0  0
 28 30  1  0  0  0  0
 29 28  1  0  0  0  0
 31 32  1  0  0  0  0
M  END
>  <MODEL>
7

>  <REMARK>
 VINA RESULT:      -6.9      3.165      6.395
  Name = 
  12 active torsions:
  status: ('A' for Active; 'I' for Inactive)
    1  A    between atoms: P_3  and  O_14
    2  A    between atoms: N_7  and  C_22
    3  A    between atoms: N_7  and  C_30
    4  A    between atoms: C_10  and  O_14
    5  A    between atoms: C_11  and  S_17
    6  A    between atoms: C_12  and  C_22
    7  A    between atoms: C_15  and  C_18
    8  A    between atoms: C_15  and  C_24
    9  A    between atoms: C_15  and  N_32
   10  A    between atoms: S_17  and  N_29
   11  A    between atoms: C_23  and  C_30
   12  A    between atoms: C_30  and  N_32
                            x       y       z     vdW  Elec       q    Type
                         _______ _______ _______ _____ _____    ______ ____

>  <TORSDO>
F 12

$$$$
=
 OpenBabel11062412453D

 32 33  0  0  1  0  0  0  0  0999 V2000
  187.6390  178.5620  141.9310 C   0  0  2  0  0  3  0  0  0  0  0  0
  186.2800  178.5750  141.3160 C   0  0  0  0  0  3  0  0  0  0  0  0
  186.1330  178.9150  140.0900 N   0  0  0  0  0  0  0  0  0  0  0  0
  184.5950  178.1550  138.0910 O   0  0  0  0  0  0  0  0  0  0  0  0
  184.5750  178.9400  139.3720 S   0  0  0  0  0  0  0  0  0  0  0  0
  184.1710  180.3590  139.0900 O   0  0  0  0  0  0  0  0  0  0  0  0
  182.9620  176.9200  139.9750 N   0  0  0  0  0  2  0  0  0  0  0  0
  181.7180  176.9290  139.7270 N   0  0  0  0  0  0  0  0  0  0  0  0
  181.1730  178.1990  140.0380 C   0  0  0  0  0  3  0  0  0  0  0  0
  183.3960  178.2070  140.4910 C   0  0  2  0  0  3  0  0  0  0  0  0
  182.1270  178.9960  140.4940 C   0  0  0  0  0  2  0  0  0  0  0  0
  188.6400  178.4890  140.8820 N   0  0  0  0  0  2  0  0  0  0  0  0
  189.4880  177.3420  141.1770 C   0  0  0  0  0  2  0  0  0  0  0  0
  190.4030  176.7560  137.4600 C   0  0  0  0  0  0  0  0  0  0  0  0
  191.7020  176.5820  138.1680 C   0  0  1  0  0  3  0  0  0  0  0  0
  189.9470  176.6560  139.8980 C   0  0  1  0  0  3  0  0  0  0  0  0
  190.2850  176.5220  136.2690 O   0  0  0  0  0  0  0  0  0  0  0  0
  189.0070  177.2400  138.4550 S   0  0  0  0  0  0  0  0  0  0  0  0
  191.4290  176.8910  139.6310 C   0  0  0  0  0  2  0  0  0  0  0  0
  192.1290  175.2550  138.0460 O   0  0  0  0  0  0  0  0  0  0  0  0
  193.7320  175.3370  137.4920 P   0  0  0  0  0  0  0  0  0  0  0  0
  193.9590  176.8000  136.6760 O   0  0  0  0  0  1  0  0  0  0  0  0
  194.8040  175.2620  138.8010 O   0  0  0  0  0  1  0  0  0  0  0  0
  194.0100  174.1920  136.5450 O   0  0  0  0  0  0  0  0  0  0  0  0
  187.7680  177.4050  142.8070 N   0  0  0  0  0  2  0  0  0  0  0  0
  187.7230  177.8920  144.1800 C   0  0  2  0  0  3  0  0  0  0  0  0
  189.9320  178.5440  144.7670 F   0  0  0  0  0  0  0  0  0  0  0  0
  189.0060  177.5300  144.9300 C   0  0  0  0  0  0  0  0  0  0  0  0
  189.5420  176.3500  144.4460 F   0  0  0  0  0  0  0  0  0  0  0  0
  188.7370  177.3890  146.2800 F   0  0  0  0  0  0  0  0  0  0  0  0
  185.6050  178.5760  145.4070 C   0  0  0  0  0  1  0  0  0  0  0  0
  186.4500  177.4210  144.8920 C   0  0  0  0  0  2  0  0  0  0  0  0
  1  2  1  6  0  0  0
  1 25  1  0  0  0  0
  3  2  2  0  0  0  0
  4  5  2  0  0  0  0
  5  3  1  0  0  0  0
  6  5  2  0  0  0  0
  7 10  1  0  0  0  0
  8  7  1  0  0  0  0
  8  9  2  0  0  0  0
  9 11  1  0  0  0  0
 10  5  1  6  0  0  0
 10 11  1  0  0  0  0
 12 13  1  0  0  0  0
 12  1  1  0  0  0  0
 14 15  1  0  0  0  0
 14 18  1  0  0  0  0
 15 20  1  1  0  0  0
 15 19  1  0  0  0  0
 16 13  1  1  0  0  0
 17 14  2  0  0  0  0
 18 16  1  0  0  0  0
 19 16  1  0  0  0  0
 21 20  1  0  0  0  0
 21 23  1  0  0  0  0
 22 21  1  0  0  0  0
 24 21  2  0  0  0  0
 25 26  1  0  0  0  0
 26 32  1  1  0  0  0
 26 28  1  0  0  0  0
 27 28  1  0  0  0  0
 28 30  1  0  0  0  0
 29 28  1  0  0  0  0
 32 31  1  0  0  0  0
M  END
>  <MODEL>
8

>  <REMARK>
 VINA RESULT:      -6.8      3.357      7.049
  Name = 
  12 active torsions:
  status: ('A' for Active; 'I' for Inactive)
    1  A    between atoms: P_3  and  O_14
    2  A    between atoms: N_7  and  C_22
    3  A    between atoms: N_7  and  C_30
    4  A    between atoms: C_10  and  O_14
    5  A    between atoms: C_11  and  S_17
    6  A    between atoms: C_12  and  C_22
    7  A    between atoms: C_15  and  C_18
    8  A    between atoms: C_15  and  C_24
    9  A    between atoms: C_15  and  N_32
   10  A    between atoms: S_17  and  N_29
   11  A    between atoms: C_23  and  C_30
   12  A    between atoms: C_30  and  N_32
                            x       y       z     vdW  Elec       q    Type
                         _______ _______ _______ _____ _____    ______ ____

>  <TORSDO>
F 12

$$$$
=
 OpenBabel11062412453D

 32 33  0  0  1  0  0  0  0  0999 V2000
  187.1250  178.3040  140.4740 C   0  0  2  0  0  3  0  0  0  0  0  0
  188.2900  178.1260  141.3890 C   0  0  0  0  0  3  0  0  0  0  0  0
  188.9590  177.0340  141.3730 N   0  0  0  0  0  0  0  0  0  0  0  0
  191.5670  177.1850  141.7100 O   0  0  0  0  0  0  0  0  0  0  0  0
  190.2970  176.8150  142.4240 S   0  0  0  0  0  0  0  0  0  0  0  0
  190.3630  175.3810  142.8650 O   0  0  0  0  0  0  0  0  0  0  0  0
  191.3060  177.8100  144.6690 N   0  0  0  0  0  0  0  0  0  0  0  0
  191.0570  177.3250  145.8140 N   0  0  0  0  0  0  0  0  0  0  0  0
  189.6820  176.9950  145.9100 C   0  0  0  0  0  3  0  0  0  0  0  0
  190.1020  177.8600  143.8550 C   0  0  2  0  0  3  0  0  0  0  0  0
  189.0700  177.2910  144.7740 C   0  0  0  0  0  3  0  0  0  0  0  0
  187.6010  178.7190  139.1650 N   0  0  0  0  0  2  0  0  0  0  0  0
  187.1290  177.7300  138.2050 C   0  0  0  0  0  2  0  0  0  0  0  0
  189.2470  174.8770  136.6630 C   0  0  0  0  0  0  0  0  0  0  0  0
  190.2680  175.8690  137.1030 C   0  0  1  0  0  3  0  0  0  0  0  0
  188.1160  176.5780  138.0740 C   0  0  1  0  0  3  0  0  0  0  0  0
  189.5600  173.7790  136.2340 O   0  0  0  0  0  0  0  0  0  0  0  0
  187.5400  175.3400  136.8740 S   0  0  0  0  0  0  0  0  0  0  0  0
  189.4940  177.0630  137.6370 C   0  0  0  0  0  2  0  0  0  0  0  0
  191.0430  175.3200  138.1300 O   0  0  0  0  0  0  0  0  0  0  0  0
  192.6580  175.5220  137.6470 P   0  0  0  0  0  0  0  0  0  0  0  0
  192.6940  175.9580  136.0140 O   0  0  0  0  0  0  0  0  0  0  0  0
  193.3900  176.7440  138.5610 O   0  0  0  0  0  1  0  0  0  0  0  0
  193.4180  174.2280  137.8310 O   0  0  0  0  0  1  0  0  0  0  0  0
  186.2320  179.3210  141.0100 N   0  0  0  0  0  2  0  0  0  0  0  0
  185.2470  178.6400  141.8410 C   0  0  2  0  0  3  0  0  0  0  0  0
  182.8930  178.9330  142.0000 F   0  0  0  0  0  0  0  0  0  0  0  0
  183.8960  178.5530  141.1270 C   0  0  0  0  0  0  0  0  0  0  0  0
  183.6510  177.2620  140.6950 F   0  0  0  0  0  0  0  0  0  0  0  0
  183.8840  179.4080  140.0390 F   0  0  0  0  0  0  0  0  0  0  0  0
  185.3750  178.2730  144.3530 C   0  0  0  0  0  1  0  0  0  0  0  0
  185.1590  179.2780  143.2320 C   0  0  0  0  0  2  0  0  0  0  0  0
  1 25  1  0  0  0  0
  1  2  1  1  0  0  0
  3  2  2  0  0  0  0
  3  5  1  0  0  0  0
  4  5  2  0  0  0  0
  5  6  2  0  0  0  0
  7  8  2  0  0  0  0
  8  9  1  0  0  0  0
 10  5  1  6  0  0  0
 10  7  1  0  0  0  0
 10 11  1  0  0  0  0
 11  9  2  0  0  0  0
 12  1  1  0  0  0  0
 13 12  1  0  0  0  0
 14 18  1  0  0  0  0
 14 15  1  0  0  0  0
 15 19  1  0  0  0  0
 15 20  1  1  0  0  0
 16 13  1  6  0  0  0
 17 14  2  0  0  0  0
 18 16  1  0  0  0  0
 19 16  1  0  0  0  0
 21 24  1  0  0  0  0
 21 20  1  0  0  0  0
 21 23  1  0  0  0  0
 22 21  2  0  0  0  0
 25 26  1  0  0  0  0
 26 32  1  1  0  0  0
 28 26  1  0  0  0  0
 28 27  1  0  0  0  0
 29 28  1  0  0  0  0
 30 28  1  0  0  0  0
 32 31  1  0  0  0  0
M  END
>  <MODEL>
9

>  <REMARK>
 VINA RESULT:      -6.8      4.778      7.390
  Name = 
  12 active torsions:
  status: ('A' for Active; 'I' for Inactive)
    1  A    between atoms: P_3  and  O_14
    2  A    between atoms: N_7  and  C_22
    3  A    between atoms: N_7  and  C_30
    4  A    between atoms: C_10  and  O_14
    5  A    between atoms: C_11  and  S_17
    6  A    between atoms: C_12  and  C_22
    7  A    between atoms: C_15  and  C_18
    8  A    between atoms: C_15  and  C_24
    9  A    between atoms: C_15  and  N_32
   10  A    between atoms: S_17  and  N_29
   11  A    between atoms: C_23  and  C_30
   12  A    between atoms: C_30  and  N_32
                            x       y       z     vdW  Elec       q    Type
                         _______ _______ _______ _____ _____    ______ ____

>  <TORSDO>
F 12

$$$$
