=
 OpenBabel11062415543D

 41 45  0  0  1  0  0  0  0  0999 V2000
  187.9530  178.5030  141.7340 C   0  0  2  0  0  3  0  0  0  0  0  0
  186.0490  177.9690  143.2410 C   0  0  0  0  0  3  0  0  0  0  0  0
  189.4340  178.0970  137.9640 C   0  0  0  0  0  1  0  0  0  0  0  0
  183.6370  179.5430  139.7030 C   0  0  0  0  0  3  0  0  0  0  0  0
  185.1060  178.3130  142.1670 C   0  0  0  0  0  0  0  0  0  0  0  0
  188.2750  177.5660  138.7890 C   0  0  2  0  0  3  0  0  0  0  0  0
  187.3660  178.0350  143.0410 C   0  0  0  0  0  3  0  0  0  0  0  0
  182.4800  179.6010  138.8070 C   0  0  0  0  0  3  0  0  0  0  0  0
  185.1880  175.4710  136.7270 O   0  0  0  0  0  1  0  0  0  0  0  0
  184.6390  178.6610  139.7120 C   0  0  0  0  0  0  0  0  0  0  0  0
  183.3400  178.1990  136.9510 C   0  0  0  0  0  3  0  0  0  0  0  0
  185.0630  177.1170  135.0300 C   0  0  0  0  0  1  0  0  0  0  0  0
  187.4010  176.6000  137.9900 C   0  0  0  0  0  2  0  0  0  0  0  0
  187.5340  178.6280  139.3330 O   0  0  0  0  0  0  0  0  0  0  0  0
  185.3510  176.8410  136.5040 C   0  0  2  0  0  0  0  0  0  0  0  0
  184.7700  177.6050  138.8040 O   0  0  0  0  0  0  0  0  0  0  0  0
  183.8680  178.2520  142.3950 O   0  0  0  0  0  0  0  0  0  0  0  0
  186.8040  177.2510  136.7470 C   0  0  0  0  0  2  0  0  0  0  0  0
  187.0160  178.1580  140.5550 C   0  0  2  0  0  3  0  0  0  0  0  0
  184.4380  177.6130  137.4400 C   0  0  0  0  0  0  0  0  0  0  0  0
  185.6380  178.7940  140.8340 C   0  0  2  0  0  3  0  0  0  0  0  0
  182.3100  178.9870  137.6420 C   0  0  0  0  0  0  0  0  0  0  0  0
  178.9720  181.7510  134.9840 C   0  0  0  0  0  1  0  0  0  0  0  0
  181.0310  179.2670  136.9180 C   0  0  1  0  0  3  0  0  0  0  0  0
  180.2650  181.0180  135.2740 C   0  0  1  0  0  3  0  0  0  0  0  0
  180.5800  181.0170  137.0530 S   0  0  0  0  0  0  0  0  0  0  0  0
  181.1530  178.9200  135.5080 N   0  0  0  0  0  2  0  0  0  0  0  0
  180.1590  179.6400  134.8280 N   0  0  0  0  0  2  0  0  0  0  0  0
  189.3410  177.8950  141.5650 C   0  0  0  0  0  2  0  0  0  0  0  0
  189.5930  176.8320  142.5850 C   0  0  0  0  0  0  0  0  0  0  0  0
  188.8260  175.8870  142.6840 O   0  0  0  0  0  0  0  0  0  0  0  0
  191.2700  175.6860  143.8230 O   0  0  0  0  0  1  0  0  0  0  0  0
  190.7830  176.9500  143.4890 C   0  0  2  0  0  3  0  0  0  0  0  0
  190.4690  177.7600  144.7430 C   0  0  0  0  0  2  0  0  0  0  0  0
  188.9110  177.9540  146.4980 C   0  0  1  0  0  3  0  0  0  0  0  0
  190.6230  176.6770  147.0790 S   0  0  0  0  0  0  0  0  0  0  0  0
  190.4470  175.2890  147.6270 O   0  0  0  0  0  0  0  0  0  0  0  0
  187.4660  177.5020  146.6190 C   0  0  0  0  0  1  0  0  0  0  0  0
  189.5900  177.8240  147.8030 N   0  0  0  0  0  2  0  0  0  0  0  0
  189.6750  176.9840  145.6880 N   0  0  0  0  0  0  0  0  0  0  0  0
  192.0560  177.1300  146.9950 O   0  0  0  0  0  0  0  0  0  0  0  0
  1 29  1  6  0  0  0
  1  7  1  0  0  0  0
  4 10  2  0  0  0  0
  5 17  2  0  0  0  0
  5  2  1  0  0  0  0
  6  3  1  6  0  0  0
  6 14  1  0  0  0  0
  7  2  2  0  0  0  0
  8  4  1  0  0  0  0
 11 20  2  0  0  0  0
 11 22  1  0  0  0  0
 13  6  1  0  0  0  0
 15 12  1  6  0  0  0
 15  9  1  0  0  0  0
 15 18  1  0  0  0  0
 15 20  1  0  0  0  0
 16 10  1  0  0  0  0
 18 13  1  0  0  0  0
 19 14  1  6  0  0  0
 19 21  1  0  0  0  0
 19  1  1  0  0  0  0
 20 16  1  0  0  0  0
 21 10  1  6  0  0  0
 21  5  1  0  0  0  0
 22  8  2  0  0  0  0
 24 26  1  0  0  0  0
 24 22  1  1  0  0  0
 25 23  1  1  0  0  0
 25 26  1  0  0  0  0
 27 24  1  0  0  0  0
 28 25  1  0  0  0  0
 28 27  1  0  0  0  0
 29 30  1  0  0  0  0
 30 31  2  0  0  0  0
 30 33  1  0  0  0  0
 33 32  1  1  0  0  0
 33 34  1  0  0  0  0
 34 40  1  0  0  0  0
 35 38  1  1  0  0  0
 35 39  1  0  0  0  0
 36 37  2  0  0  0  0
 36 39  1  0  0  0  0
 40 35  1  0  0  0  0
 40 36  1  0  0  0  0
 41 36  2  0  0  0  0
M  END
>  <MODEL>
1

>  <REMARK>
 VINA RESULT:      -8.1      0.000      0.000
  Name = 
  6 active torsions:
  status: ('A' for Active; 'I' for Inactive)
    1  A    between atoms: C_1  and  C_28
    2  A    between atoms: C_4  and  C_28
    3  A    between atoms: C_4  and  C_34
    4  A    between atoms: C_19  and  C_40
    5  A    between atoms: N_33  and  C_38
    6  A    between atoms: C_34  and  C_38
                            x       y       z     vdW  Elec       q    Type
                         _______ _______ _______ _____ _____    ______ ____

>  <TORSDO>
F 6

$$$$
=
 OpenBabel11062415543D

 41 45  0  0  1  0  0  0  0  0999 V2000
  185.3860  178.2610  138.6300 C   0  0  2  0  0  3  0  0  0  0  0  0
  185.4270  176.3680  137.0190 C   0  0  0  0  0  3  0  0  0  0  0  0
  187.0150  179.7690  142.0430 C   0  0  0  0  0  1  0  0  0  0  0  0
  189.9200  177.1380  137.2100 C   0  0  0  0  0  3  0  0  0  0  0  0
  186.8960  176.3770  137.0500 C   0  0  0  0  0  0  0  0  0  0  0  0
  187.0560  178.4790  141.2410 C   0  0  2  0  0  3  0  0  0  0  0  0
  184.7230  177.2230  137.7620 C   0  0  0  0  0  3  0  0  0  0  0  0
  191.3330  176.7560  137.1850 C   0  0  0  0  0  3  0  0  0  0  0  0
  190.0500  175.6220  142.2620 O   0  0  0  0  0  1  0  0  0  0  0  0
  189.0430  177.0200  138.2090 C   0  0  0  0  0  0  0  0  0  0  0  0
  191.7590  176.6350  139.6240 C   0  0  0  0  0  3  0  0  0  0  0  0
  191.7430  177.2740  142.3490 C   0  0  0  0  0  1  0  0  0  0  0  0
  187.9680  177.4370  141.8860 C   0  0  0  0  0  2  0  0  0  0  0  0
  187.4090  178.7440  139.9070 O   0  0  0  0  0  0  0  0  0  0  0  0
  190.4340  176.8400  141.6950 C   0  0  2  0  0  0  0  0  0  0  0  0
  189.3530  176.5070  139.4740 O   0  0  0  0  0  0  0  0  0  0  0  0
  187.5310  175.5650  136.3250 O   0  0  0  0  0  0  0  0  0  0  0  0
  189.4060  177.9260  142.0190 C   0  0  0  0  0  2  0  0  0  0  0  0
  186.7610  177.7640  139.1310 C   0  0  2  0  0  3  0  0  0  0  0  0
  190.5480  176.6780  140.1900 C   0  0  0  0  0  0  0  0  0  0  0  0
  187.6170  177.4020  137.9000 C   0  0  2  0  0  3  0  0  0  0  0  0
  192.1300  176.4830  138.2110 C   0  0  0  0  0  0  0  0  0  0  0  0
  195.9450  173.9110  136.0480 C   0  0  0  0  0  1  0  0  0  0  0  0
  193.5540  176.1600  137.8860 C   0  0  1  0  0  3  0  0  0  0  0  0
  194.7060  174.7780  136.1200 C   0  0  1  0  0  3  0  0  0  0  0  0
  193.7670  174.3810  137.6110 S   0  0  0  0  0  0  0  0  0  0  0  0
  193.9850  176.8750  136.6930 N   0  0  0  0  0  2  0  0  0  0  0  0
  195.0900  176.1780  136.1810 N   0  0  0  0  0  2  0  0  0  0  0  0
  184.4500  178.6230  139.7780 C   0  0  0  0  0  2  0  0  0  0  0  0
  183.3350  179.5010  139.3100 C   0  0  0  0  0  0  0  0  0  0  0  0
  183.5780  180.6110  138.8640 O   0  0  0  0  0  0  0  0  0  0  0  0
  181.0240  180.0490  139.1680 O   0  0  0  0  0  1  0  0  0  0  0  0
  181.9230  179.0090  139.4080 C   0  0  2  0  0  3  0  0  0  0  0  0
  181.6410  178.3480  140.7540 C   0  0  0  0  0  2  0  0  0  0  0  0
  182.0990  178.5580  143.0550 C   0  0  1  0  0  3  0  0  0  0  0  0
  180.1640  179.4960  142.5300 S   0  0  0  0  0  0  0  0  0  0  0  0
  179.8320  180.9180  142.8860 O   0  0  0  0  0  0  0  0  0  0  0  0
  183.1970  179.2940  143.8030 C   0  0  0  0  0  1  0  0  0  0  0  0
  180.8400  178.6170  143.8250 N   0  0  0  0  0  2  0  0  0  0  0  0
  181.7210  179.3140  141.8440 N   0  0  0  0  0  0  0  0  0  0  0  0
  179.0580  178.7630  141.8210 O   0  0  0  0  0  0  0  0  0  0  0  0
  1 19  1  0  0  0  0
  1 29  1  1  0  0  0
  2  5  1  0  0  0  0
  2  7  2  0  0  0  0
  4 10  2  0  0  0  0
  6 13  1  0  0  0  0
  6  3  1  1  0  0  0
  7  1  1  0  0  0  0
  8  4  1  0  0  0  0
  8 22  2  0  0  0  0
 10 16  1  0  0  0  0
 11 20  2  0  0  0  0
 13 18  1  0  0  0  0
 14  6  1  0  0  0  0
 15 18  1  0  0  0  0
 15  9  1  0  0  0  0
 15 12  1  1  0  0  0
 16 20  1  0  0  0  0
 17  5  2  0  0  0  0
 19 14  1  6  0  0  0
 20 15  1  0  0  0  0
 21  5  1  1  0  0  0
 21 10  1  0  0  0  0
 21 19  1  0  0  0  0
 22 11  1  0  0  0  0
 24 22  1  6  0  0  0
 25 23  1  1  0  0  0
 25 28  1  0  0  0  0
 25 26  1  0  0  0  0
 26 24  1  0  0  0  0
 27 24  1  0  0  0  0
 28 27  1  0  0  0  0
 30 33  1  0  0  0  0
 30 29  1  0  0  0  0
 31 30  2  0  0  0  0
 33 32  1  1  0  0  0
 33 34  1  0  0  0  0
 34 40  1  0  0  0  0
 35 38  1  1  0  0  0
 35 39  1  0  0  0  0
 36 37  2  0  0  0  0
 36 39  1  0  0  0  0
 40 36  1  0  0  0  0
 40 35  1  0  0  0  0
 41 36  2  0  0  0  0
M  END
>  <MODEL>
2

>  <REMARK>
 VINA RESULT:      -7.9      4.307      9.313
  Name = 
  6 active torsions:
  status: ('A' for Active; 'I' for Inactive)
    1  A    between atoms: C_1  and  C_28
    2  A    between atoms: C_4  and  C_28
    3  A    between atoms: C_4  and  C_34
    4  A    between atoms: C_19  and  C_40
    5  A    between atoms: N_33  and  C_38
    6  A    between atoms: C_34  and  C_38
                            x       y       z     vdW  Elec       q    Type
                         _______ _______ _______ _____ _____    ______ ____

>  <TORSDO>
F 6

$$$$
=
 OpenBabel11062415543D

 41 45  0  0  1  0  0  0  0  0999 V2000
  190.2640  175.1150  137.4690 C   0  0  2  0  0  3  0  0  0  0  0  0
  190.2950  173.1400  135.9580 C   0  0  0  0  0  3  0  0  0  0  0  0
  188.2170  178.4710  138.5230 C   0  0  0  0  0  1  0  0  0  0  0  0
  185.9790  172.7770  137.3900 C   0  0  0  0  0  3  0  0  0  0  0  0
  188.8600  172.9370  136.1980 C   0  0  0  0  0  0  0  0  0  0  0  0
  188.1690  177.4090  137.4390 C   0  0  2  0  0  3  0  0  0  0  0  0
  190.9460  174.1560  136.5270 C   0  0  0  0  0  3  0  0  0  0  0  0
  184.5600  172.4430  137.2530 C   0  0  0  0  0  3  0  0  0  0  0  0
  184.7060  177.2830  134.9570 O   0  0  0  0  0  1  0  0  0  0  0  0
  186.6280  173.8520  136.9390 C   0  0  0  0  0  0  0  0  0  0  0  0
  183.6670  174.6960  136.7280 C   0  0  0  0  0  3  0  0  0  0  0  0
  183.2440  177.4610  136.8120 C   0  0  0  0  0  1  0  0  0  0  0  0
  187.0290  177.6530  136.4510 C   0  0  0  0  0  2  0  0  0  0  0  0
  188.1110  176.1270  138.0120 O   0  0  0  0  0  0  0  0  0  0  0  0
  184.5900  176.9450  136.3090 C   0  0  2  0  0  0  0  0  0  0  0  0
  186.0230  174.9070  136.2460 O   0  0  0  0  0  0  0  0  0  0  0  0
  188.2790  171.9590  135.6560 O   0  0  0  0  0  0  0  0  0  0  0  0
  185.6640  177.6610  137.1300 C   0  0  0  0  0  2  0  0  0  0  0  0
  188.7680  175.2670  137.1110 C   0  0  2  0  0  3  0  0  0  0  0  0
  184.7440  175.4430  136.4650 C   0  0  0  0  0  0  0  0  0  0  0  0
  188.1230  173.8660  137.1390 C   0  0  2  0  0  3  0  0  0  0  0  0
  183.5550  173.2430  136.9170 C   0  0  0  0  0  0  0  0  0  0  0  0
  179.0450  171.9850  134.9370 C   0  0  0  0  0  1  0  0  0  0  0  0
  182.1890  172.6320  136.8970 C   0  0  1  0  0  3  0  0  0  0  0  0
  180.5510  171.9990  135.0890 C   0  0  1  0  0  3  0  0  0  0  0  0
  181.0790  173.5670  135.8130 S   0  0  0  0  0  0  0  0  0  0  0  0
  182.2490  171.2540  136.4320 N   0  0  0  0  0  2  0  0  0  0  0  0
  180.9640  170.9250  135.9750 N   0  0  0  0  0  2  0  0  0  0  0  0
  191.0030  176.4480  137.4440 C   0  0  0  0  0  2  0  0  0  0  0  0
  191.9770  176.5480  138.5730 C   0  0  0  0  0  0  0  0  0  0  0  0
  193.0180  175.9110  138.5380 O   0  0  0  0  0  0  0  0  0  0  0  0
  192.8210  177.8170  140.3990 O   0  0  0  0  0  1  0  0  0  0  0  0
  191.6530  177.4210  139.7470 C   0  0  2  0  0  3  0  0  0  0  0  0
  190.6930  176.7410  140.7170 C   0  0  0  0  0  2  0  0  0  0  0  0
  190.5530  175.8710  142.9010 C   0  0  1  0  0  3  0  0  0  0  0  0
  189.8610  177.9720  142.8260 S   0  0  0  0  0  0  0  0  0  0  0  0
  190.4150  179.0390  143.7280 O   0  0  0  0  0  0  0  0  0  0  0  0
  191.6220  175.3880  143.8660 C   0  0  0  0  0  1  0  0  0  0  0  0
  189.4640  176.5320  143.6480 N   0  0  0  0  0  2  0  0  0  0  0  0
  191.0690  177.0000  142.1020 N   0  0  0  0  0  0  0  0  0  0  0  0
  188.7780  178.4510  141.8980 O   0  0  0  0  0  0  0  0  0  0  0  0
  1 29  1  6  0  0  0
  2  5  1  0  0  0  0
  2  7  2  0  0  0  0
  6 14  1  0  0  0  0
  6  3  1  1  0  0  0
  7  1  1  0  0  0  0
  8  4  1  0  0  0  0
  9 15  1  0  0  0  0
 10 21  1  0  0  0  0
 10  4  2  0  0  0  0
 11 22  1  0  0  0  0
 13 18  1  0  0  0  0
 13  6  1  0  0  0  0
 15 20  1  0  0  0  0
 15 12  1  1  0  0  0
 15 18  1  0  0  0  0
 16 20  1  0  0  0  0
 16 10  1  0  0  0  0
 17  5  2  0  0  0  0
 19 21  1  0  0  0  0
 19  1  1  0  0  0  0
 19 14  1  1  0  0  0
 20 11  2  0  0  0  0
 21  5  1  6  0  0  0
 22  8  2  0  0  0  0
 24 22  1  6  0  0  0
 25 23  1  1  0  0  0
 25 26  1  0  0  0  0
 25 28  1  0  0  0  0
 26 24  1  0  0  0  0
 27 24  1  0  0  0  0
 28 27  1  0  0  0  0
 29 30  1  0  0  0  0
 30 33  1  0  0  0  0
 31 30  2  0  0  0  0
 33 32  1  1  0  0  0
 33 34  1  0  0  0  0
 34 40  1  0  0  0  0
 35 39  1  0  0  0  0
 35 38  1  1  0  0  0
 36 39  1  0  0  0  0
 36 37  2  0  0  0  0
 40 36  1  0  0  0  0
 40 35  1  0  0  0  0
 41 36  2  0  0  0  0
M  END
>  <MODEL>
3

>  <REMARK>
 VINA RESULT:      -7.6      4.016      5.881
  Name = 
  6 active torsions:
  status: ('A' for Active; 'I' for Inactive)
    1  A    between atoms: C_1  and  C_28
    2  A    between atoms: C_4  and  C_28
    3  A    between atoms: C_4  and  C_34
    4  A    between atoms: C_19  and  C_40
    5  A    between atoms: N_33  and  C_38
    6  A    between atoms: C_34  and  C_38
                            x       y       z     vdW  Elec       q    Type
                         _______ _______ _______ _____ _____    ______ ____

>  <TORSDO>
F 6

$$$$
=
 OpenBabel11062415543D

 41 45  0  0  1  0  0  0  0  0999 V2000
  183.0630  177.5810  137.2430 C   0  0  2  0  0  3  0  0  0  0  0  0
  182.5430  179.5770  138.6300 C   0  0  0  0  0  3  0  0  0  0  0  0
  186.0140  175.5250  135.3360 C   0  0  0  0  0  1  0  0  0  0  0  0
  186.1210  178.0590  141.0180 C   0  0  0  0  0  3  0  0  0  0  0  0
  183.7410  179.3220  139.4420 C   0  0  0  0  0  0  0  0  0  0  0  0
  185.8370  176.8560  136.0450 C   0  0  2  0  0  3  0  0  0  0  0  0
  182.2350  178.7880  137.6000 C   0  0  0  0  0  3  0  0  0  0  0  0
  187.3150  178.2020  141.8520 C   0  0  0  0  0  3  0  0  0  0  0  0
  189.3560  179.0750  136.9750 O   0  0  0  0  0  1  0  0  0  0  0  0
  186.0010  178.2310  139.7000 C   0  0  0  0  0  0  0  0  0  0  0  0
  189.0560  178.0320  140.0940 C   0  0  0  0  0  3  0  0  0  0  0  0
  190.4580  177.1640  137.8330 C   0  0  0  0  0  1  0  0  0  0  0  0
  187.1290  177.6720  136.0580 C   0  0  0  0  0  2  0  0  0  0  0  0
  185.3200  176.6580  137.3370 O   0  0  0  0  0  0  0  0  0  0  0  0
  189.1170  177.8650  137.6330 C   0  0  2  0  0  0  0  0  0  0  0  0
  187.0590  178.5700  138.8490 O   0  0  0  0  0  0  0  0  0  0  0  0
  183.9950  180.0790  140.4170 O   0  0  0  0  0  0  0  0  0  0  0  0
  188.2700  176.9410  136.7580 C   0  0  0  0  0  2  0  0  0  0  0  0
  184.5440  177.7960  137.6260 C   0  0  2  0  0  3  0  0  0  0  0  0
  188.3920  178.1400  138.9390 C   0  0  0  0  0  0  0  0  0  0  0  0
  184.6080  178.1200  139.1330 C   0  0  2  0  0  3  0  0  0  0  0  0
  188.5860  178.2460  141.4700 C   0  0  0  0  0  0  0  0  0  0  0  0
  191.2460  176.7420  145.5330 C   0  0  0  0  0  1  0  0  0  0  0  0
  189.6100  178.3570  142.5550 C   0  0  1  0  0  3  0  0  0  0  0  0
  190.7410  176.7220  144.1060 C   0  0  1  0  0  3  0  0  0  0  0  0
  189.0870  177.4460  144.0320 S   0  0  0  0  0  0  0  0  0  0  0  0
  190.8920  177.8300  142.1080 N   0  0  0  0  0  2  0  0  0  0  0  0
  191.6220  177.5100  143.2630 N   0  0  0  0  0  2  0  0  0  0  0  0
  182.8890  177.2780  135.7580 C   0  0  0  0  0  2  0  0  0  0  0  0
  181.5090  176.7830  135.4660 C   0  0  0  0  0  0  0  0  0  0  0  0
  180.6950  177.5230  134.9350 O   0  0  0  0  0  0  0  0  0  0  0  0
  180.7110  175.3310  137.1730 O   0  0  0  0  0  1  0  0  0  0  0  0
  181.1360  175.3820  135.8450 C   0  0  2  0  0  3  0  0  0  0  0  0
  182.2800  174.4020  135.6030 C   0  0  0  0  0  2  0  0  0  0  0  0
  183.7870  172.8470  136.5280 C   0  0  1  0  0  3  0  0  0  0  0  0
  181.7070  172.0960  136.6100 S   0  0  0  0  0  0  0  0  0  0  0  0
  181.0700  171.6150  137.8820 O   0  0  0  0  0  0  0  0  0  0  0  0
  184.6880  172.9170  137.7500 C   0  0  0  0  0  1  0  0  0  0  0  0
  183.2740  171.4730  136.3610 N   0  0  0  0  0  2  0  0  0  0  0  0
  182.5340  173.5840  136.7840 N   0  0  0  0  0  0  0  0  0  0  0  0
  180.8200  171.9910  135.3980 O   0  0  0  0  0  0  0  0  0  0  0  0
  1 29  1  6  0  0  0
  1  7  1  0  0  0  0
  1 19  1  0  0  0  0
  2  5  1  0  0  0  0
  4  8  1  0  0  0  0
  5 17  2  0  0  0  0
  6  3  1  1  0  0  0
  6 13  1  0  0  0  0
  6 14  1  0  0  0  0
  7  2  2  0  0  0  0
  9 15  1  0  0  0  0
 10  4  2  0  0  0  0
 11 22  1  0  0  0  0
 13 18  1  0  0  0  0
 15 12  1  1  0  0  0
 15 20  1  0  0  0  0
 16 20  1  0  0  0  0
 16 10  1  0  0  0  0
 18 15  1  0  0  0  0
 19 14  1  1  0  0  0
 19 21  1  0  0  0  0
 20 11  2  0  0  0  0
 21  5  1  6  0  0  0
 21 10  1  0  0  0  0
 22  8  2  0  0  0  0
 24 22  1  6  0  0  0
 24 26  1  0  0  0  0
 25 23  1  1  0  0  0
 26 25  1  0  0  0  0
 27 24  1  0  0  0  0
 27 28  1  0  0  0  0
 28 25  1  0  0  0  0
 30 29  1  0  0  0  0
 30 33  1  0  0  0  0
 31 30  2  0  0  0  0
 33 32  1  1  0  0  0
 34 33  1  0  0  0  0
 34 40  1  0  0  0  0
 35 40  1  0  0  0  0
 35 38  1  1  0  0  0
 36 40  1  0  0  0  0
 36 37  2  0  0  0  0
 39 35  1  0  0  0  0
 39 36  1  0  0  0  0
 41 36  2  0  0  0  0
M  END
>  <MODEL>
4

>  <REMARK>
 VINA RESULT:      -7.3      3.749      9.453
  Name = 
  6 active torsions:
  status: ('A' for Active; 'I' for Inactive)
    1  A    between atoms: C_1  and  C_28
    2  A    between atoms: C_4  and  C_28
    3  A    between atoms: C_4  and  C_34
    4  A    between atoms: C_19  and  C_40
    5  A    between atoms: N_33  and  C_38
    6  A    between atoms: C_34  and  C_38
                            x       y       z     vdW  Elec       q    Type
                         _______ _______ _______ _____ _____    ______ ____

>  <TORSDO>
F 6

$$$$
=
 OpenBabel11062415543D

 41 45  0  0  1  0  0  0  0  0999 V2000
  191.4730  176.2770  137.4900 C   0  0  2  0  0  3  0  0  0  0  0  0
  190.9240  177.2680  139.7030 C   0  0  0  0  0  3  0  0  0  0  0  0
  190.2360  173.6980  134.5940 C   0  0  0  0  0  1  0  0  0  0  0  0
  186.8830  177.9270  137.6900 C   0  0  0  0  0  3  0  0  0  0  0  0
  189.5290  177.4440  139.2750 C   0  0  0  0  0  0  0  0  0  0  0  0
  189.8350  174.0940  136.0040 C   0  0  2  0  0  3  0  0  0  0  0  0
  191.8230  176.7110  138.8900 C   0  0  0  0  0  3  0  0  0  0  0  0
  185.4240  178.0370  137.6500 C   0  0  0  0  0  3  0  0  0  0  0  0
  186.0640  172.7210  137.4400 O   0  0  0  0  0  1  0  0  0  0  0  0
  187.6340  176.8250  137.7280 C   0  0  0  0  0  0  0  0  0  0  0  0
  184.8710  175.7480  136.8730 C   0  0  0  0  0  3  0  0  0  0  0  0
  184.9600  173.3460  135.4410 C   0  0  0  0  0  1  0  0  0  0  0  0
  188.6180  173.3100  136.4930 C   0  0  0  0  0  2  0  0  0  0  0  0
  189.6420  175.4840  136.0860 O   0  0  0  0  0  0  0  0  0  0  0  0
  186.1000  173.6610  136.4060 C   0  0  2  0  0  0  0  0  0  0  0  0
  187.1250  175.5220  137.7080 O   0  0  0  0  0  0  0  0  0  0  0  0
  188.7090  177.9860  140.0630 O   0  0  0  0  0  0  0  0  0  0  0  0
  187.3960  173.5220  135.6060 C   0  0  0  0  0  2  0  0  0  0  0  0
  189.9910  175.8500  137.4000 C   0  0  2  0  0  3  0  0  0  0  0  0
  186.0100  175.0570  136.9940 C   0  0  0  0  0  0  0  0  0  0  0  0
  189.1210  177.0310  137.8770 C   0  0  2  0  0  3  0  0  0  0  0  0
  184.5360  177.0960  137.3520 C   0  0  0  0  0  0  0  0  0  0  0  0
  179.6950  177.1130  138.9040 C   0  0  0  0  0  1  0  0  0  0  0  0
  183.0970  177.5080  137.3500 C   0  0  1  0  0  3  0  0  0  0  0  0
  181.1920  177.3210  138.9900 C   0  0  1  0  0  3  0  0  0  0  0  0
  182.0350  176.1490  137.9040 S   0  0  0  0  0  0  0  0  0  0  0  0
  182.8890  178.6540  138.2240 N   0  0  0  0  0  2  0  0  0  0  0  0
  181.5260  178.6660  138.5560 N   0  0  0  0  0  2  0  0  0  0  0  0
  192.4220  175.1630  137.0620 C   0  0  0  0  0  2  0  0  0  0  0  0
  193.3730  175.6380  136.0110 C   0  0  0  0  0  0  0  0  0  0  0  0
  193.0120  175.7040  134.8470 O   0  0  0  0  0  0  0  0  0  0  0  0
  195.2000  177.1230  135.6730 O   0  0  0  0  0  1  0  0  0  0  0  0
  194.7700  176.0140  136.4020 C   0  0  2  0  0  3  0  0  0  0  0  0
  195.7420  174.8480  136.2400 C   0  0  0  0  0  2  0  0  0  0  0  0
  197.9950  174.2720  135.8740 C   0  0  1  0  0  3  0  0  0  0  0  0
  197.5850  174.5850  138.0260 S   0  0  0  0  0  0  0  0  0  0  0  0
  198.3920  175.5260  138.8740 O   0  0  0  0  0  0  0  0  0  0  0  0
  199.1130  174.9860  135.1340 C   0  0  0  0  0  1  0  0  0  0  0  0
  198.5420  173.5660  137.0500 N   0  0  0  0  0  2  0  0  0  0  0  0
  197.1110  175.2590  136.5250 N   0  0  0  0  0  0  0  0  0  0  0  0
  196.5020  173.8550  138.7740 O   0  0  0  0  0  0  0  0  0  0  0  0
  1 29  1  1  0  0  0
  1  7  1  0  0  0  0
  4 10  2  0  0  0  0
  5  2  1  0  0  0  0
  5 17  2  0  0  0  0
  6  3  1  6  0  0  0
  6 14  1  0  0  0  0
  6 13  1  0  0  0  0
  7  2  2  0  0  0  0
  8  4  1  0  0  0  0
 11 20  2  0  0  0  0
 11 22  1  0  0  0  0
 15 12  1  6  0  0  0
 15 20  1  0  0  0  0
 15  9  1  0  0  0  0
 16 10  1  0  0  0  0
 18 15  1  0  0  0  0
 18 13  1  0  0  0  0
 19 14  1  6  0  0  0
 19  1  1  0  0  0  0
 19 21  1  0  0  0  0
 20 16  1  0  0  0  0
 21 10  1  1  0  0  0
 21  5  1  0  0  0  0
 22  8  2  0  0  0  0
 24 22  1  1  0  0  0
 24 26  1  0  0  0  0
 24 27  1  0  0  0  0
 25 23  1  6  0  0  0
 26 25  1  0  0  0  0
 27 28  1  0  0  0  0
 28 25  1  0  0  0  0
 30 33  1  0  0  0  0
 30 29  1  0  0  0  0
 31 30  2  0  0  0  0
 33 32  1  6  0  0  0
 34 33  1  0  0  0  0
 34 40  1  0  0  0  0
 35 38  1  1  0  0  0
 35 40  1  0  0  0  0
 35 39  1  0  0  0  0
 36 41  2  0  0  0  0
 36 37  2  0  0  0  0
 39 36  1  0  0  0  0
 40 36  1  0  0  0  0
M  END
>  <MODEL>
5

>  <REMARK>
 VINA RESULT:      -7.2      5.586      7.351
  Name = 
  6 active torsions:
  status: ('A' for Active; 'I' for Inactive)
    1  A    between atoms: C_1  and  C_28
    2  A    between atoms: C_4  and  C_28
    3  A    between atoms: C_4  and  C_34
    4  A    between atoms: C_19  and  C_40
    5  A    between atoms: N_33  and  C_38
    6  A    between atoms: C_34  and  C_38
                            x       y       z     vdW  Elec       q    Type
                         _______ _______ _______ _____ _____    ______ ____

>  <TORSDO>
F 6

$$$$
=
 OpenBabel11062415543D

 41 45  0  0  1  0  0  0  0  0999 V2000
  190.6930  176.5090  138.0240 C   0  0  2  0  0  3  0  0  0  0  0  0
  189.4620  177.7820  139.7690 C   0  0  0  0  0  3  0  0  0  0  0  0
  190.5290  173.3430  135.4710 C   0  0  0  0  0  1  0  0  0  0  0  0
  186.1290  177.5790  136.6600 C   0  0  0  0  0  3  0  0  0  0  0  0
  188.2390  177.7070  138.9580 C   0  0  0  0  0  0  0  0  0  0  0  0
  189.7130  173.9180  136.6160 C   0  0  2  0  0  3  0  0  0  0  0  0
  190.5940  177.2130  139.3530 C   0  0  0  0  0  3  0  0  0  0  0  0
  184.7390  177.4960  136.2100 C   0  0  0  0  0  3  0  0  0  0  0  0
  185.8000  172.3440  137.2320 O   0  0  0  0  0  1  0  0  0  0  0  0
  186.9170  176.6020  137.1140 C   0  0  0  0  0  0  0  0  0  0  0  0
  184.6010  175.0580  135.7810 C   0  0  0  0  0  3  0  0  0  0  0  0
  185.2720  172.4780  134.9280 C   0  0  0  0  0  1  0  0  0  0  0  0
  188.4680  173.0810  136.9060 C   0  0  0  0  0  2  0  0  0  0  0  0
  189.4030  175.2660  136.3670 O   0  0  0  0  0  0  0  0  0  0  0  0
  186.0620  173.0920  136.0810 C   0  0  2  0  0  0  0  0  0  0  0  0
  186.5320  175.2610  137.2160 O   0  0  0  0  0  0  0  0  0  0  0  0
  187.1900  178.2670  139.3740 O   0  0  0  0  0  0  0  0  0  0  0  0
  187.5400  172.9850  135.7000 C   0  0  0  0  0  2  0  0  0  0  0  0
  189.3340  175.8890  137.6270 C   0  0  2  0  0  3  0  0  0  0  0  0
  185.7050  174.5460  136.3360 C   0  0  0  0  0  0  0  0  0  0  0  0
  188.2800  177.0160  137.6110 C   0  0  2  0  0  3  0  0  0  0  0  0
  184.0440  176.4140  135.8770 C   0  0  0  0  0  0  0  0  0  0  0  0
  179.0380  175.5720  135.6080 C   0  0  0  0  0  1  0  0  0  0  0  0
  182.6410  176.6360  135.4090 C   0  0  1  0  0  3  0  0  0  0  0  0
  180.3610  175.9510  136.2390 C   0  0  1  0  0  3  0  0  0  0  0  0
  181.7080  175.0820  135.4060 S   0  0  0  0  0  0  0  0  0  0  0  0
  181.9570  177.5930  136.2680 N   0  0  0  0  0  2  0  0  0  0  0  0
  180.5810  177.3800  136.0950 N   0  0  0  0  0  2  0  0  0  0  0  0
  191.8040  175.4660  138.0940 C   0  0  0  0  0  2  0  0  0  0  0  0
  193.1470  176.0960  137.9160 C   0  0  0  0  0  0  0  0  0  0  0  0
  193.6290  176.7700  138.8140 O   0  0  0  0  0  0  0  0  0  0  0  0
  192.9870  175.8310  135.5580 O   0  0  0  0  0  1  0  0  0  0  0  0
  193.8830  175.9040  136.6250 C   0  0  2  0  0  3  0  0  0  0  0  0
  194.7860  174.6750  136.6600 C   0  0  0  0  0  2  0  0  0  0  0  0
  197.0490  174.1130  136.3250 C   0  0  1  0  0  3  0  0  0  0  0  0
  196.5470  174.1800  138.4800 S   0  0  0  0  0  0  0  0  0  0  0  0
  197.3250  175.0050  139.4660 O   0  0  0  0  0  0  0  0  0  0  0  0
  198.2040  174.8930  135.7220 C   0  0  0  0  0  1  0  0  0  0  0  0
  197.5370  173.2680  137.4330 N   0  0  0  0  0  2  0  0  0  0  0  0
  196.1460  175.0300  137.0490 N   0  0  0  0  0  0  0  0  0  0  0  0
  195.4260  173.3830  139.0910 O   0  0  0  0  0  0  0  0  0  0  0  0
  1 29  1  1  0  0  0
  1  7  1  0  0  0  0
  4 10  2  0  0  0  0
  5 17  2  0  0  0  0
  5  2  1  0  0  0  0
  6  3  1  6  0  0  0
  6 13  1  0  0  0  0
  7  2  2  0  0  0  0
  8  4  1  0  0  0  0
 10 16  1  0  0  0  0
 11 22  1  0  0  0  0
 11 20  2  0  0  0  0
 14  6  1  0  0  0  0
 15 12  1  6  0  0  0
 15 20  1  0  0  0  0
 15  9  1  0  0  0  0
 18 15  1  0  0  0  0
 18 13  1  0  0  0  0
 19 14  1  6  0  0  0
 19  1  1  0  0  0  0
 20 16  1  0  0  0  0
 21 10  1  1  0  0  0
 21 19  1  0  0  0  0
 21  5  1  0  0  0  0
 22  8  2  0  0  0  0
 24 22  1  1  0  0  0
 24 27  1  0  0  0  0
 25 23  1  6  0  0  0
 26 24  1  0  0  0  0
 26 25  1  0  0  0  0
 28 25  1  0  0  0  0
 28 27  1  0  0  0  0
 30 29  1  0  0  0  0
 30 31  2  0  0  0  0
 33 32  1  6  0  0  0
 33 34  1  0  0  0  0
 33 30  1  0  0  0  0
 34 40  1  0  0  0  0
 35 38  1  1  0  0  0
 35 40  1  0  0  0  0
 35 39  1  0  0  0  0
 36 41  2  0  0  0  0
 36 37  2  0  0  0  0
 39 36  1  0  0  0  0
 40 36  1  0  0  0  0
M  END
>  <MODEL>
6

>  <REMARK>
 VINA RESULT:      -7.2      5.143      6.826
  Name = 
  6 active torsions:
  status: ('A' for Active; 'I' for Inactive)
    1  A    between atoms: C_1  and  C_28
    2  A    between atoms: C_4  and  C_28
    3  A    between atoms: C_4  and  C_34
    4  A    between atoms: C_19  and  C_40
    5  A    between atoms: N_33  and  C_38
    6  A    between atoms: C_34  and  C_38
                            x       y       z     vdW  Elec       q    Type
                         _______ _______ _______ _____ _____    ______ ____

>  <TORSDO>
F 6

$$$$
=
 OpenBabel11062415543D

 41 45  0  0  1  0  0  0  0  0999 V2000
  183.0910  177.5980  137.2770 C   0  0  2  0  0  3  0  0  0  0  0  0
  182.5380  179.6160  138.6200 C   0  0  0  0  0  3  0  0  0  0  0  0
  186.0900  175.4940  135.5030 C   0  0  0  0  0  1  0  0  0  0  0  0
  186.0150  178.0980  141.1540 C   0  0  0  0  0  3  0  0  0  0  0  0
  183.7040  179.3610  139.4780 C   0  0  0  0  0  0  0  0  0  0  0  0
  185.9000  176.8360  136.1900 C   0  0  2  0  0  3  0  0  0  0  0  0
  182.2610  178.8170  137.5890 C   0  0  0  0  0  3  0  0  0  0  0  0
  187.1790  178.2410  142.0300 C   0  0  0  0  0  3  0  0  0  0  0  0
  189.4020  179.0370  137.2190 O   0  0  0  0  0  1  0  0  0  0  0  0
  185.9440  178.2550  139.8310 C   0  0  0  0  0  0  0  0  0  0  0  0
  188.9800  178.0350  140.3380 C   0  0  0  0  0  3  0  0  0  0  0  0
  190.4560  177.1270  138.1400 C   0  0  0  0  0  1  0  0  0  0  0  0
  187.1980  177.6410  136.2400 C   0  0  0  0  0  2  0  0  0  0  0  0
  185.3340  176.6580  137.4640 O   0  0  0  0  0  0  0  0  0  0  0  0
  189.1290  177.8370  137.8830 C   0  0  2  0  0  0  0  0  0  0  0  0
  187.0340  178.5740  139.0150 O   0  0  0  0  0  0  0  0  0  0  0  0
  183.9290  180.1280  140.4520 O   0  0  0  0  0  0  0  0  0  0  0  0
  188.3060  176.9090  136.9890 C   0  0  0  0  0  2  0  0  0  0  0  0
  184.5590  177.8060  137.7110 C   0  0  2  0  0  3  0  0  0  0  0  0
  188.3590  178.1340  139.1580 C   0  0  0  0  0  0  0  0  0  0  0  0
  184.5710  178.1480  139.2150 C   0  0  2  0  0  3  0  0  0  0  0  0
  188.4630  178.2700  141.6930 C   0  0  0  0  0  0  0  0  0  0  0  0
  191.0020  176.7690  145.8340 C   0  0  0  0  0  1  0  0  0  0  0  0
  189.4480  178.3850  142.8140 C   0  0  1  0  0  3  0  0  0  0  0  0
  190.5460  176.7530  144.3910 C   0  0  1  0  0  3  0  0  0  0  0  0
  188.8870  177.4570  144.2660 S   0  0  0  0  0  0  0  0  0  0  0  0
  190.7510  177.8780  142.4070 N   0  0  0  0  0  2  0  0  0  0  0  0
  191.4460  177.5590  143.5830 N   0  0  0  0  0  2  0  0  0  0  0  0
  182.9680  177.2780  135.7910 C   0  0  0  0  0  2  0  0  0  0  0  0
  182.1580  176.0420  135.5700 C   0  0  0  0  0  0  0  0  0  0  0  0
  182.7010  174.9480  135.5780 O   0  0  0  0  0  0  0  0  0  0  0  0
  180.3730  177.4340  134.8400 O   0  0  0  0  0  1  0  0  0  0  0  0
  180.6850  176.1630  135.3230 C   0  0  2  0  0  3  0  0  0  0  0  0
  179.8700  175.8410  136.5720 C   0  0  0  0  0  2  0  0  0  0  0  0
  179.7170  173.9360  137.9480 C   0  0  1  0  0  3  0  0  0  0  0  0
  180.5010  175.6770  139.0680 S   0  0  0  0  0  0  0  0  0  0  0  0
  181.7870  175.6270  139.8430 O   0  0  0  0  0  0  0  0  0  0  0  0
  180.4300  172.5960  137.9000 C   0  0  0  0  0  1  0  0  0  0  0  0
  179.4890  174.3350  139.3520 N   0  0  0  0  0  2  0  0  0  0  0  0
  180.6270  175.0080  137.4980 N   0  0  0  0  0  0  0  0  0  0  0  0
  179.7830  176.9970  139.1490 O   0  0  0  0  0  0  0  0  0  0  0  0
  1 29  1  6  0  0  0
  1  7  1  0  0  0  0
  1 19  1  0  0  0  0
  2  5  1  0  0  0  0
  4  8  1  0  0  0  0
  5 17  2  0  0  0  0
  6  3  1  1  0  0  0
  6 13  1  0  0  0  0
  6 14  1  0  0  0  0
  7  2  2  0  0  0  0
  9 15  1  0  0  0  0
 10  4  2  0  0  0  0
 11 22  1  0  0  0  0
 13 18  1  0  0  0  0
 15 12  1  1  0  0  0
 15 20  1  0  0  0  0
 16 20  1  0  0  0  0
 16 10  1  0  0  0  0
 18 15  1  0  0  0  0
 19 14  1  1  0  0  0
 19 21  1  0  0  0  0
 20 11  2  0  0  0  0
 21  5  1  6  0  0  0
 21 10  1  0  0  0  0
 22  8  2  0  0  0  0
 24 22  1  6  0  0  0
 24 26  1  0  0  0  0
 25 23  1  1  0  0  0
 26 25  1  0  0  0  0
 27 24  1  0  0  0  0
 27 28  1  0  0  0  0
 28 25  1  0  0  0  0
 30 31  2  0  0  0  0
 30 29  1  0  0  0  0
 33 32  1  1  0  0  0
 33 30  1  0  0  0  0
 33 34  1  0  0  0  0
 34 40  1  0  0  0  0
 35 38  1  1  0  0  0
 35 39  1  0  0  0  0
 36 41  2  0  0  0  0
 36 39  1  0  0  0  0
 36 37  2  0  0  0  0
 40 35  1  0  0  0  0
 40 36  1  0  0  0  0
M  END
>  <MODEL>
7

>  <REMARK>
 VINA RESULT:      -7.1      3.416      9.329
  Name = 
  6 active torsions:
  status: ('A' for Active; 'I' for Inactive)
    1  A    between atoms: C_1  and  C_28
    2  A    between atoms: C_4  and  C_28
    3  A    between atoms: C_4  and  C_34
    4  A    between atoms: C_19  and  C_40
    5  A    between atoms: N_33  and  C_38
    6  A    between atoms: C_34  and  C_38
                            x       y       z     vdW  Elec       q    Type
                         _______ _______ _______ _____ _____    ______ ____

>  <TORSDO>
F 6

$$$$
=
 OpenBabel11062415543D

 41 45  0  0  1  0  0  0  0  0999 V2000
  186.9580  175.7520  134.8530 C   0  0  2  0  0  3  0  0  0  0  0  0
  187.0810  173.2690  134.8250 C   0  0  0  0  0  3  0  0  0  0  0  0
  187.9670  179.1160  136.9120 C   0  0  0  0  0  1  0  0  0  0  0  0
  191.4730  174.1140  135.7260 C   0  0  0  0  0  3  0  0  0  0  0  0
  188.4880  173.3370  135.2450 C   0  0  0  0  0  0  0  0  0  0  0  0
  187.9960  177.6110  137.1170 C   0  0  2  0  0  3  0  0  0  0  0  0
  186.3630  174.3810  134.6620 C   0  0  0  0  0  3  0  0  0  0  0  0
  192.7800  173.8410  136.3280 C   0  0  0  0  0  3  0  0  0  0  0  0
  190.2070  176.1170  140.4400 O   0  0  0  0  0  1  0  0  0  0  0  0
  190.3830  174.6260  136.3010 C   0  0  0  0  0  0  0  0  0  0  0  0
  192.6110  175.2930  138.3300 C   0  0  0  0  0  3  0  0  0  0  0  0
  192.0650  177.5030  139.9590 C   0  0  0  0  0  1  0  0  0  0  0  0
  188.5670  177.2310  138.4820 C   0  0  0  0  0  2  0  0  0  0  0  0
  188.6820  176.9870  136.0610 O   0  0  0  0  0  0  0  0  0  0  0  0
  190.8910  176.7180  139.3800 C   0  0  2  0  0  0  0  0  0  0  0  0
  190.3130  175.0320  137.6380 O   0  0  0  0  0  0  0  0  0  0  0  0
  189.1420  172.2680  135.3760 O   0  0  0  0  0  0  0  0  0  0  0  0
  189.9930  177.7360  138.6760 C   0  0  0  0  0  2  0  0  0  0  0  0
  188.0900  175.7190  135.9050 C   0  0  2  0  0  3  0  0  0  0  0  0
  191.3230  175.6480  138.3920 C   0  0  0  0  0  0  0  0  0  0  0  0
  189.1410  174.6880  135.4470 C   0  0  2  0  0  3  0  0  0  0  0  0
  193.2690  174.2970  137.4750 C   0  0  0  0  0  0  0  0  0  0  0  0
  198.3090  173.9660  136.8960 C   0  0  0  0  0  1  0  0  0  0  0  0
  194.6640  173.8810  137.8210 C   0  0  1  0  0  3  0  0  0  0  0  0
  196.9680  174.6310  137.1230 C   0  0  1  0  0  3  0  0  0  0  0  0
  195.6650  173.6660  136.3260 S   0  0  0  0  0  0  0  0  0  0  0  0
  195.3000  174.8770  138.6730 N   0  0  0  0  0  2  0  0  0  0  0  0
  196.6850  174.6910  138.5460 N   0  0  0  0  0  2  0  0  0  0  0  0
  185.8490  176.7290  135.2280 C   0  0  0  0  0  2  0  0  0  0  0  0
  184.7410  176.0360  135.9520 C   0  0  0  0  0  0  0  0  0  0  0  0
  183.8980  175.4140  135.3250 O   0  0  0  0  0  0  0  0  0  0  0  0
  183.8480  175.1230  137.9600 O   0  0  0  0  0  1  0  0  0  0  0  0
  184.6700  176.1280  137.4470 C   0  0  2  0  0  3  0  0  0  0  0  0
  184.2020  177.5030  137.9130 C   0  0  0  0  0  2  0  0  0  0  0  0
  182.1900  177.9850  139.0380 C   0  0  1  0  0  3  0  0  0  0  0  0
  183.9330  178.8310  140.1080 S   0  0  0  0  0  0  0  0  0  0  0  0
  184.2010  178.5580  141.5610 O   0  0  0  0  0  0  0  0  0  0  0  0
  181.1680  177.0830  139.7090 C   0  0  0  0  0  1  0  0  0  0  0  0
  182.3120  179.2510  139.7880 N   0  0  0  0  0  2  0  0  0  0  0  0
  183.5450  177.4250  139.2120 N   0  0  0  0  0  0  0  0  0  0  0  0
  184.9310  179.7530  139.4590 O   0  0  0  0  0  0  0  0  0  0  0  0
  1 29  1  1  0  0  0
  1 19  1  0  0  0  0
  2  5  1  0  0  0  0
  4 10  2  0  0  0  0
  4  8  1  0  0  0  0
  5 17  2  0  0  0  0
  6  3  1  6  0  0  0
  6 13  1  0  0  0  0
  7  2  2  0  0  0  0
  7  1  1  0  0  0  0
  8 22  2  0  0  0  0
 10 16  1  0  0  0  0
 11 20  2  0  0  0  0
 13 18  1  0  0  0  0
 14  6  1  0  0  0  0
 15 12  1  1  0  0  0
 15  9  1  0  0  0  0
 16 20  1  0  0  0  0
 18 15  1  0  0  0  0
 19 14  1  6  0  0  0
 20 15  1  0  0  0  0
 21  5  1  1  0  0  0
 21 19  1  0  0  0  0
 21 10  1  0  0  0  0
 22 11  1  0  0  0  0
 24 22  1  6  0  0  0
 24 27  1  0  0  0  0
 25 23  1  1  0  0  0
 25 28  1  0  0  0  0
 26 25  1  0  0  0  0
 26 24  1  0  0  0  0
 28 27  1  0  0  0  0
 29 30  1  0  0  0  0
 30 33  1  0  0  0  0
 31 30  2  0  0  0  0
 33 34  1  0  0  0  0
 33 32  1  6  0  0  0
 34 40  1  0  0  0  0
 35 40  1  0  0  0  0
 35 38  1  1  0  0  0
 35 39  1  0  0  0  0
 36 37  2  0  0  0  0
 39 36  1  0  0  0  0
 40 36  1  0  0  0  0
 41 36  2  0  0  0  0
M  END
>  <MODEL>
8

>  <REMARK>
 VINA RESULT:      -6.9      4.801     10.223
  Name = 
  6 active torsions:
  status: ('A' for Active; 'I' for Inactive)
    1  A    between atoms: C_1  and  C_28
    2  A    between atoms: C_4  and  C_28
    3  A    between atoms: C_4  and  C_34
    4  A    between atoms: C_19  and  C_40
    5  A    between atoms: N_33  and  C_38
    6  A    between atoms: C_34  and  C_38
                            x       y       z     vdW  Elec       q    Type
                         _______ _______ _______ _____ _____    ______ ____

>  <TORSDO>
F 6

$$$$
=
 OpenBabel11062415543D

 41 45  0  0  1  0  0  0  0  0999 V2000
  189.4740  176.9900  138.6900 C   0  0  2  0  0  3  0  0  0  0  0  0
  188.9090  177.7740  140.9810 C   0  0  0  0  0  3  0  0  0  0  0  0
  188.0730  175.0670  135.3870 C   0  0  0  0  0  1  0  0  0  0  0  0
  185.2300  179.4010  138.8300 C   0  0  0  0  0  3  0  0  0  0  0  0
  187.6080  178.2510  140.4950 C   0  0  0  0  0  0  0  0  0  0  0  0
  187.6240  175.3460  136.8110 C   0  0  2  0  0  3  0  0  0  0  0  0
  189.7680  177.1720  140.1570 C   0  0  0  0  0  3  0  0  0  0  0  0
  183.8200  179.7760  138.7130 C   0  0  0  0  0  3  0  0  0  0  0  0
  183.5640  174.5020  137.7970 O   0  0  0  0  0  1  0  0  0  0  0  0
  185.7770  178.1860  138.7590 C   0  0  0  0  0  0  0  0  0  0  0  0
  182.9560  177.7420  137.5880 C   0  0  0  0  0  3  0  0  0  0  0  0
  182.7610  175.5650  135.8400 C   0  0  0  0  0  1  0  0  0  0  0  0
  186.2540  174.7380  137.1070 C   0  0  0  0  0  2  0  0  0  0  0  0
  187.6630  176.7250  137.0750 O   0  0  0  0  0  0  0  0  0  0  0  0
  183.8500  175.5440  136.9100 C   0  0  2  0  0  0  0  0  0  0  0  0
  185.0580  177.0090  138.5240 O   0  0  0  0  0  0  0  0  0  0  0  0
  186.8260  178.8270  141.2980 O   0  0  0  0  0  0  0  0  0  0  0  0
  185.1680  175.2770  136.1820 C   0  0  0  0  0  2  0  0  0  0  0  0
  187.9540  176.8520  138.4470 C   0  0  2  0  0  3  0  0  0  0  0  0
  183.9460  176.8480  137.6820 C   0  0  0  0  0  0  0  0  0  0  0  0
  187.2590  178.1000  139.0300 C   0  0  2  0  0  3  0  0  0  0  0  0
  182.8140  179.0560  138.2300 C   0  0  0  0  0  0  0  0  0  0  0  0
  179.5140  182.8600  137.5390 C   0  0  0  0  0  1  0  0  0  0  0  0
  181.4720  179.7160  138.1950 C   0  0  1  0  0  3  0  0  0  0  0  0
  180.5570  181.8280  137.1660 C   0  0  1  0  0  3  0  0  0  0  0  0
  181.6090  181.4790  138.5930 S   0  0  0  0  0  0  0  0  0  0  0  0
  180.8650  179.5770  136.8780 N   0  0  0  0  0  2  0  0  0  0  0  0
  179.9040  180.5930  136.7670 N   0  0  0  0  0  2  0  0  0  0  0  0
  190.2530  175.7880  138.1700 C   0  0  0  0  0  2  0  0  0  0  0  0
  191.5320  176.2120  137.5230 C   0  0  0  0  0  0  0  0  0  0  0  0
  191.5120  176.7550  136.4300 O   0  0  0  0  0  0  0  0  0  0  0  0
  193.5550  177.1310  138.3740 O   0  0  0  0  0  1  0  0  0  0  0  0
  192.8310  175.9480  138.2230 C   0  0  2  0  0  3  0  0  0  0  0  0
  193.6630  174.8910  137.5030 C   0  0  0  0  0  2  0  0  0  0  0  0
  195.6400  174.6540  136.2450 C   0  0  1  0  0  3  0  0  0  0  0  0
  195.9680  174.1200  138.3670 S   0  0  0  0  0  0  0  0  0  0  0  0
  197.0580  174.7360  139.1970 O   0  0  0  0  0  0  0  0  0  0  0  0
  196.4950  175.6700  135.5080 C   0  0  0  0  0  1  0  0  0  0  0  0
  196.4980  173.6060  136.8310 N   0  0  0  0  0  2  0  0  0  0  0  0
  195.0720  175.2640  137.4640 N   0  0  0  0  0  0  0  0  0  0  0  0
  195.1480  173.0890  139.0950 O   0  0  0  0  0  0  0  0  0  0  0  0
  1 29  1  1  0  0  0
  1  7  1  0  0  0  0
  5  2  1  0  0  0  0
  5 17  2  0  0  0  0
  6  3  1  6  0  0  0
  6 14  1  0  0  0  0
  6 13  1  0  0  0  0
  7  2  2  0  0  0  0
  8  4  1  0  0  0  0
 10  4  2  0  0  0  0
 11 20  2  0  0  0  0
 11 22  1  0  0  0  0
 15 12  1  6  0  0  0
 15 20  1  0  0  0  0
 15  9  1  0  0  0  0
 16 10  1  0  0  0  0
 18 15  1  0  0  0  0
 18 13  1  0  0  0  0
 19 14  1  6  0  0  0
 19  1  1  0  0  0  0
 19 21  1  0  0  0  0
 20 16  1  0  0  0  0
 21 10  1  1  0  0  0
 21  5  1  0  0  0  0
 22  8  2  0  0  0  0
 24 22  1  6  0  0  0
 24 26  1  0  0  0  0
 25 23  1  1  0  0  0
 25 26  1  0  0  0  0
 27 24  1  0  0  0  0
 28 27  1  0  0  0  0
 28 25  1  0  0  0  0
 30 29  1  0  0  0  0
 30 33  1  0  0  0  0
 31 30  2  0  0  0  0
 33 32  1  6  0  0  0
 34 33  1  0  0  0  0
 35 38  1  1  0  0  0
 35 39  1  0  0  0  0
 35 40  1  0  0  0  0
 36 41  2  0  0  0  0
 36 37  2  0  0  0  0
 39 36  1  0  0  0  0
 40 34  1  0  0  0  0
 40 36  1  0  0  0  0
M  END
>  <MODEL>
9

>  <REMARK>
 VINA RESULT:      -6.9      4.346      5.801
  Name = 
  6 active torsions:
  status: ('A' for Active; 'I' for Inactive)
    1  A    between atoms: C_1  and  C_28
    2  A    between atoms: C_4  and  C_28
    3  A    between atoms: C_4  and  C_34
    4  A    between atoms: C_19  and  C_40
    5  A    between atoms: N_33  and  C_38
    6  A    between atoms: C_34  and  C_38
                            x       y       z     vdW  Elec       q    Type
                         _______ _______ _______ _____ _____    ______ ____

>  <TORSDO>
F 6

$$$$
