=
 OpenBabel11062414153D

 60 68  0  0  1  0  0  0  0  0999 V2000
  190.6600  176.0190  139.2930 C   0  0  0  0  0  2  0  0  0  0  0  0
  186.1440  177.5160  143.1980 O   0  0  0  0  0  0  0  0  0  0  0  0
  190.4620  176.6800  140.6450 C   0  0  0  0  0  0  0  0  0  0  0  0
  191.2240  176.3020  141.5420 O   0  0  0  0  0  0  0  0  0  0  0  0
  186.4160  177.8960  141.8130 C   0  0  1  0  0  3  0  0  0  0  0  0
  183.2800  178.1300  138.7340 C   0  0  0  0  0  2  0  0  0  0  0  0
  184.4430  177.0380  138.7320 C   0  0  2  0  0  3  0  0  0  0  0  0
  183.1670  178.9210  140.0990 C   0  0  0  0  0  2  0  0  0  0  0  0
  189.7130  176.0510  138.0950 C   0  0  2  0  0  3  0  0  0  0  0  0
  186.5150  178.0990  146.4020 C   0  0  0  0  0  0  0  0  0  0  0  0
  184.7100  175.6470  134.6820 O   0  0  0  0  0  0  0  0  0  0  0  0
  188.5170  179.4510  142.2200 C   0  0  0  0  0  2  0  0  0  0  0  0
  184.2970  180.4340  144.3790 C   0  0  0  0  0  2  0  0  0  0  0  0
  185.8650  176.4670  134.5950 C   0  0  0  0  0  2  0  0  0  0  0  0
  189.4030  177.6580  140.9040 N   0  0  0  0  0  2  0  0  0  0  0  0
  184.2230  174.9960  136.7800 O   0  0  0  0  0  1  0  0  0  0  0  0
  189.1520  178.1040  142.2750 C   0  0  0  0  0  2  0  0  0  0  0  0
  185.4070  178.3320  144.0790 C   0  0  0  0  0  0  0  0  0  0  0  0
  186.7590  177.3420  147.6710 O   0  0  0  0  0  0  0  0  0  0  0  0
  187.8540  179.0210  134.6710 O   0  0  0  0  0  0  0  0  0  0  0  0
  183.4440  179.0030  142.5610 N   0  0  0  0  0  0  0  0  0  0  0  0
  185.1250  176.7910  140.0060 N   0  0  0  0  0  2  0  0  0  0  0  0
  186.9560  179.5600  136.8950 O   0  0  0  0  0  0  0  0  0  0  0  0
  188.6860  177.2230  137.9050 C   0  0  1  0  0  3  0  0  0  0  0  0
  187.1930  178.4520  135.9140 S   0  0  0  0  0  0  0  0  0  0  0  0
  184.4100  179.2950  143.6470 C   0  0  0  0  0  0  0  0  0  0  0  0
  184.0920  176.0070  135.8740 C   0  0  0  0  0  0  0  0  0  0  0  0
  187.3730  178.4750  147.3290 C   0  0  2  0  0  3  0  0  0  0  0  0
  188.2400  177.1430  136.5010 N   0  0  0  0  0  0  0  0  0  0  0  0
  188.2880  175.8570  138.5220 C   0  0  0  0  0  2  0  0  0  0  0  0
  185.9190  178.3340  145.2880 C   0  0  0  0  0  0  0  0  0  0  0  0
  185.3530  177.2060  137.6530 O   0  0  0  0  0  0  0  0  0  0  0  0
  182.6840  176.1170  135.5630 O   0  0  0  0  0  1  0  0  0  0  0  0
  185.5630  177.7560  135.3230 C   0  0  2  0  0  3  0  0  0  0  0  0
  185.2070  177.9930  140.8460 C   0  0  1  0  0  3  0  0  0  0  0  0
  183.7650  178.1890  141.3280 C   0  0  2  0  0  3  0  0  0  0  0  0
  187.0820  179.3220  141.7220 C   0  0  0  0  0  2  0  0  0  0  0  0
  184.6170  177.3340  136.4000 C   0  0  1  0  0  3  0  0  0  0  0  0
  181.9490  178.8950  142.7040 C   0  0  2  0  0  3  0  0  0  0  0  0
  181.5530  179.7010  143.8470 O   0  0  0  0  0  0  0  0  0  0  0  0
  179.7410  178.3750  143.6110 C   0  0  0  0  0  1  0  0  0  0  0  0
  181.1750  178.3690  143.9530 C   0  0  1  0  0  3  0  0  0  0  0  0
  186.7750  179.3320  148.3370 O   0  0  0  0  0  0  0  0  0  0  0  0
  186.1840  180.3670  147.5500 C   0  0  0  0  0  1  0  0  0  0  0  0
  189.3410  176.8880  135.5490 C   0  0  0  0  0  2  0  0  0  0  0  0
  189.6280  175.4340  135.2070 C   0  0  0  0  0  0  0  0  0  0  0  0
  188.7340  174.5970  135.1960 O   0  0  0  0  0  0  0  0  0  0  0  0
  190.9960  175.1420  134.5940 C   0  0  1  0  0  3  0  0  0  0  0  0
  191.8650  176.4630  134.5980 C   0  0  0  0  0  1  0  0  0  0  0  0
  195.2730  171.8100  137.8280 C   0  0  1  0  0  3  0  0  0  0  0  0
  194.2650  171.0660  136.9370 C   0  0  1  0  0  3  0  0  0  0  0  0
  193.5480  173.2950  136.6950 C   0  0  1  0  0  3  0  0  0  0  0  0
  196.6370  171.3670  137.4650 N   0  0  0  0  0  1  0  0  0  0  0  0
  191.6860  173.9920  135.4070 C   0  0  2  0  0  3  0  0  0  0  0  0
  193.1480  174.2980  135.6670 C   0  0  0  0  0  2  0  0  0  0  0  0
  193.6040  172.0100  135.9630 C   0  0  2  0  0  3  0  0  0  0  0  0
  194.7370  169.7230  136.3490 C   0  0  0  0  0  1  0  0  0  0  0  0
  191.5620  172.6380  134.6910 C   0  0  0  0  0  2  0  0  0  0  0  0
  192.1980  171.5870  135.6400 C   0  0  0  0  0  2  0  0  0  0  0  0
  195.2320  173.5410  137.3590 S   0  0  0  0  0  0  0  0  0  0  0  0
  1  3  1  0  0  0  0
  2 18  1  0  0  0  0
  3 15  1  0  0  0  0
  3  4  2  0  0  0  0
  5 37  1  1  0  0  0
  5  2  1  0  0  0  0
  6  8  1  0  0  0  0
  7  6  1  1  0  0  0
  7 22  1  0  0  0  0
  9 30  1  1  0  0  0
  9  1  1  0  0  0  0
 10 28  1  0  0  0  0
 10 19  1  0  0  0  0
 11 27  1  0  0  0  0
 12 17  1  0  0  0  0
 14 11  1  0  0  0  0
 15 17  1  0  0  0  0
 18 31  2  0  0  0  0
 20 25  2  0  0  0  0
 21 26  1  0  0  0  0
 24  9  1  0  0  0  0
 24 30  1  1  0  0  0
 25 29  1  0  0  0  0
 25 23  2  0  0  0  0
 26 18  1  0  0  0  0
 26 13  2  0  0  0  0
 27 38  1  0  0  0  0
 27 16  1  0  0  0  0
 28 19  1  0  0  0  0
 28 43  1  1  0  0  0
 29 24  1  0  0  0  0
 31 10  2  0  0  0  0
 32  7  1  0  0  0  0
 33 27  1  0  0  0  0
 34 14  1  6  0  0  0
 34 25  1  0  0  0  0
 34 38  1  0  0  0  0
 35 22  1  1  0  0  0
 35 36  1  0  0  0  0
 35  5  1  0  0  0  0
 36  8  1  6  0  0  0
 36 21  1  0  0  0  0
 37 12  1  0  0  0  0
 38 32  1  1  0  0  0
 39 21  1  1  0  0  0
 39 40  1  0  0  0  0
 39 42  1  0  0  0  0
 40 42  1  0  0  0  0
 42 41  1  6  0  0  0
 44 43  1  0  0  0  0
 45 29  1  0  0  0  0
 46 45  1  0  0  0  0
 47 46  2  0  0  0  0
 48 49  1  1  0  0  0
 48 46  1  0  0  0  0
 50 53  1  6  0  0  0
 51 57  1  6  0  0  0
 51 50  1  0  0  0  0
 52 55  1  6  0  0  0
 52 60  1  0  0  0  0
 54 48  1  6  0  0  0
 54 55  1  0  0  0  0
 56 59  1  1  0  0  0
 56 52  1  0  0  0  0
 56 51  1  0  0  0  0
 58 54  1  0  0  0  0
 58 59  1  0  0  0  0
 60 50  1  0  0  0  0
M  END
>  <MODEL>
1

>  <REMARK>
 VINA RESULT:      -0.7      0.000      0.000
  Name = 
  6 active torsions:
  status: ('A' for Active; 'I' for Inactive)
    1  A    between atoms: C_1  and  N_33
    2  A    between atoms: O_10  and  C_45
    3  A    between atoms: C_14  and  C_19
    4  A    between atoms: C_14  and  C_28
    5  A    between atoms: C_19  and  C_35
    6  A    between atoms: C_28  and  N_46
                            x       y       z     vdW  Elec       q    Type
                         _______ _______ _______ _____ _____    ______ ____

>  <TORSDO>
F 6

$$$$
=
 OpenBabel11062414153D

 60 68  0  0  1  0  0  0  0  0999 V2000
  183.0040  179.2390  141.3420 C   0  0  0  0  0  2  0  0  0  0  0  0
  188.7680  178.3890  143.3270 O   0  0  0  0  0  0  0  0  0  0  0  0
  183.7540  178.8370  142.5980 C   0  0  0  0  0  0  0  0  0  0  0  0
  183.3900  179.3940  143.6390 O   0  0  0  0  0  0  0  0  0  0  0  0
  187.9910  177.7640  142.2580 C   0  0  1  0  0  3  0  0  0  0  0  0
  189.6630  176.8840  138.2830 C   0  0  0  0  0  2  0  0  0  0  0  0
  188.5380  177.9850  138.5470 C   0  0  2  0  0  3  0  0  0  0  0  0
  190.3480  176.3590  139.6090 C   0  0  0  0  0  2  0  0  0  0  0  0
  183.4010  178.9610  139.8930 C   0  0  2  0  0  3  0  0  0  0  0  0
  189.7240  178.4240  146.4620 C   0  0  0  0  0  0  0  0  0  0  0  0
  186.6200  178.6010  134.7590 O   0  0  0  0  0  0  0  0  0  0  0  0
  186.3070  176.3630  143.7420 C   0  0  0  0  0  2  0  0  0  0  0  0
  191.0820  175.7000  144.1820 C   0  0  0  0  0  2  0  0  0  0  0  0
  185.5690  177.8070  135.2890 C   0  0  0  0  0  2  0  0  0  0  0  0
  184.8800  177.9000  142.5860 N   0  0  0  0  0  2  0  0  0  0  0  0
  187.8610  179.6210  136.3350 O   0  0  0  0  0  1  0  0  0  0  0  0
  185.6750  177.7110  143.8000 C   0  0  0  0  0  2  0  0  0  0  0  0
  189.8350  177.7350  143.9740 C   0  0  0  0  0  0  0  0  0  0  0  0
  189.9610  179.4100  147.5640 O   0  0  0  0  0  0  0  0  0  0  0  0
  183.9100  175.3600  136.6090 O   0  0  0  0  0  0  0  0  0  0  0  0
  191.0710  176.7460  141.9490 N   0  0  0  0  0  0  0  0  0  0  0  0
  188.4030  178.4820  139.9200 N   0  0  0  0  0  2  0  0  0  0  0  0
  185.6410  175.2250  138.3500 O   0  0  0  0  0  0  0  0  0  0  0  0
  184.3300  177.7500  139.5240 C   0  0  1  0  0  3  0  0  0  0  0  0
  184.9770  176.1350  137.3620 S   0  0  0  0  0  0  0  0  0  0  0  0
  190.6290  176.6840  143.3630 C   0  0  0  0  0  0  0  0  0  0  0  0
  187.6760  178.4550  135.6500 C   0  0  0  0  0  0  0  0  0  0  0  0
  189.3230  178.2470  147.7060 C   0  0  2  0  0  3  0  0  0  0  0  0
  184.1790  177.5560  138.0700 N   0  0  0  0  0  0  0  0  0  0  0  0
  184.8660  179.1970  139.6750 C   0  0  0  0  0  2  0  0  0  0  0  0
  189.8430  177.9700  145.2650 C   0  0  0  0  0  0  0  0  0  0  0  0
  187.2860  177.6400  137.9690 O   0  0  0  0  0  0  0  0  0  0  0  0
  188.8500  178.2560  134.8310 O   0  0  0  0  0  1  0  0  0  0  0  0
  186.2020  176.6700  136.0560 C   0  0  2  0  0  3  0  0  0  0  0  0
  188.7230  177.4590  140.9250 C   0  0  1  0  0  3  0  0  0  0  0  0
  190.2460  177.3220  140.8200 C   0  0  2  0  0  3  0  0  0  0  0  0
  187.4190  176.3620  142.6990 C   0  0  0  0  0  2  0  0  0  0  0  0
  187.4730  177.2630  136.5720 C   0  0  1  0  0  3  0  0  0  0  0  0
  192.4930  176.8430  141.4630 C   0  0  2  0  0  3  0  0  0  0  0  0
  192.6810  178.1720  140.9040 O   0  0  0  0  0  0  0  0  0  0  0  0
  194.4250  177.0710  139.9850 C   0  0  0  0  0  1  0  0  0  0  0  0
  192.9520  177.1510  140.0030 C   0  0  1  0  0  3  0  0  0  0  0  0
  190.3160  177.5800  148.5290 O   0  0  0  0  0  0  0  0  0  0  0  0
  191.0170  176.7790  147.5770 C   0  0  0  0  0  1  0  0  0  0  0  0
  182.7810  177.6550  137.6060 C   0  0  0  0  0  2  0  0  0  0  0  0
  181.7910  176.6620  138.1940 C   0  0  0  0  0  0  0  0  0  0  0  0
  182.0290  176.0750  139.2420 O   0  0  0  0  0  0  0  0  0  0  0  0
  180.3890  176.6660  137.5880 C   0  0  1  0  0  3  0  0  0  0  0  0
  179.4060  175.8690  138.5360 C   0  0  0  0  0  1  0  0  0  0  0  0
  179.8550  182.5330  135.3190 C   0  0  1  0  0  3  0  0  0  0  0  0
  179.6480  182.2920  136.8230 C   0  0  1  0  0  3  0  0  0  0  0  0
  179.9870  180.0980  136.0410 C   0  0  1  0  0  3  0  0  0  0  0  0
  180.8610  183.6040  135.1480 N   0  0  0  0  0  1  0  0  0  0  0  0
  179.9230  178.1500  137.3850 C   0  0  2  0  0  3  0  0  0  0  0  0
  180.7510  178.8510  136.3270 C   0  0  0  0  0  2  0  0  0  0  0  0
  180.1920  180.9470  137.2350 C   0  0  2  0  0  3  0  0  0  0  0  0
  179.9980  183.4680  137.7550 C   0  0  0  0  0  1  0  0  0  0  0  0
  179.9830  178.9470  138.6980 C   0  0  0  0  0  2  0  0  0  0  0  0
  179.4120  180.3540  138.3760 C   0  0  0  0  0  2  0  0  0  0  0  0
  180.6480  181.0720  134.6430 S   0  0  0  0  0  0  0  0  0  0  0  0
  1  3  1  0  0  0  0
  2 18  1  0  0  0  0
  3  4  2  0  0  0  0
  5 37  1  1  0  0  0
  5  2  1  0  0  0  0
  6  8  1  0  0  0  0
  7  6  1  1  0  0  0
  7 22  1  0  0  0  0
  9 30  1  1  0  0  0
  9  1  1  0  0  0  0
 10 19  1  0  0  0  0
 10 28  1  0  0  0  0
 11 14  1  0  0  0  0
 11 27  1  0  0  0  0
 12 17  1  0  0  0  0
 15  3  1  0  0  0  0
 15 17  1  0  0  0  0
 18 31  2  0  0  0  0
 19 28  1  0  0  0  0
 20 25  2  0  0  0  0
 21 26  1  0  0  0  0
 24 30  1  6  0  0  0
 24  9  1  0  0  0  0
 25 29  1  0  0  0  0
 25 23  2  0  0  0  0
 26 18  1  0  0  0  0
 26 13  2  0  0  0  0
 27 16  1  0  0  0  0
 27 38  1  0  0  0  0
 28 43  1  1  0  0  0
 29 24  1  0  0  0  0
 31 10  2  0  0  0  0
 32  7  1  0  0  0  0
 33 27  1  0  0  0  0
 34 14  1  6  0  0  0
 34 38  1  0  0  0  0
 34 25  1  0  0  0  0
 35 22  1  6  0  0  0
 35  5  1  0  0  0  0
 36  8  1  6  0  0  0
 36 35  1  0  0  0  0
 36 21  1  0  0  0  0
 37 12  1  0  0  0  0
 38 32  1  1  0  0  0
 39 21  1  6  0  0  0
 40 39  1  0  0  0  0
 42 41  1  1  0  0  0
 42 40  1  0  0  0  0
 42 39  1  0  0  0  0
 44 43  1  0  0  0  0
 45 29  1  0  0  0  0
 45 46  1  0  0  0  0
 46 47  2  0  0  0  0
 48 46  1  0  0  0  0
 48 49  1  1  0  0  0
 50 53  1  1  0  0  0
 50 51  1  0  0  0  0
 51 56  1  0  0  0  0
 51 57  1  1  0  0  0
 52 55  1  1  0  0  0
 52 56  1  0  0  0  0
 54 48  1  1  0  0  0
 54 58  1  0  0  0  0
 55 54  1  0  0  0  0
 56 59  1  1  0  0  0
 59 58  1  0  0  0  0
 60 50  1  0  0  0  0
 60 52  1  0  0  0  0
M  END
>  <MODEL>
2

>  <REMARK>
 VINA RESULT:      -0.0      3.617      9.342
  Name = 
  6 active torsions:
  status: ('A' for Active; 'I' for Inactive)
    1  A    between atoms: C_1  and  N_33
    2  A    between atoms: O_10  and  C_45
    3  A    between atoms: C_14  and  C_19
    4  A    between atoms: C_14  and  C_28
    5  A    between atoms: C_19  and  C_35
    6  A    between atoms: C_28  and  N_46
                            x       y       z     vdW  Elec       q    Type
                         _______ _______ _______ _____ _____    ______ ____

>  <TORSDO>
F 6

$$$$
=
 OpenBabel11062414153D

 60 68  0  0  1  0  0  0  0  0999 V2000
  189.4140  179.0110  138.3310 C   0  0  0  0  0  2  0  0  0  0  0  0
  183.5300  180.0020  139.8420 O   0  0  0  0  0  0  0  0  0  0  0  0
  188.0360  179.0190  137.6960 C   0  0  0  0  0  0  0  0  0  0  0  0
  187.9460  179.6190  136.6200 O   0  0  0  0  0  0  0  0  0  0  0  0
  184.5210  179.0370  140.3170 C   0  0  1  0  0  3  0  0  0  0  0  0
  185.0160  178.0060  144.5660 C   0  0  0  0  0  2  0  0  0  0  0  0
  186.1040  178.8060  143.7160 C   0  0  2  0  0  3  0  0  0  0  0  0
  183.6150  177.8910  143.8390 C   0  0  0  0  0  2  0  0  0  0  0  0
  189.7760  178.6210  139.7620 C   0  0  2  0  0  3  0  0  0  0  0  0
  181.1320  180.7740  137.7450 C   0  0  0  0  0  0  0  0  0  0  0  0
  189.8070  178.3040  145.8240 O   0  0  0  0  0  0  0  0  0  0  0  0
  184.6570  177.5000  138.1680 C   0  0  0  0  0  2  0  0  0  0  0  0
  180.4280  178.1700  140.4260 C   0  0  0  0  0  2  0  0  0  0  0  0
  190.1250  177.3580  144.8140 C   0  0  0  0  0  2  0  0  0  0  0  0
  186.8640  178.4140  138.3340 N   0  0  0  0  0  2  0  0  0  0  0  0
  188.3000  179.8430  145.1770 O   0  0  0  0  0  1  0  0  0  0  0  0
  185.5360  178.6310  137.7570 C   0  0  0  0  0  2  0  0  0  0  0  0
  182.1440  179.7550  139.8930 C   0  0  0  0  0  0  0  0  0  0  0  0
  180.6620  181.9480  136.9430 O   0  0  0  0  0  0  0  0  0  0  0  0
  190.0100  174.8050  142.8260 O   0  0  0  0  0  0  0  0  0  0  0  0
  181.9270  178.8140  142.2760 N   0  0  0  0  0  0  0  0  0  0  0  0
  185.6400  179.4600  142.4890 N   0  0  0  0  0  2  0  0  0  0  0  0
  187.6770  175.3960  142.3220 O   0  0  0  0  0  0  0  0  0  0  0  0
  188.8660  177.6490  140.5930 C   0  0  1  0  0  3  0  0  0  0  0  0
  189.0000  175.9370  142.7740 S   0  0  0  0  0  0  0  0  0  0  0  0
  181.5160  178.8630  140.8520 C   0  0  0  0  0  0  0  0  0  0  0  0
  188.4550  178.5770  145.6600 C   0  0  0  0  0  0  0  0  0  0  0  0
  180.7440  180.6980  136.4880 C   0  0  2  0  0  3  0  0  0  0  0  0
  189.6910  177.1960  141.7290 N   0  0  0  0  0  0  0  0  0  0  0  0
  188.7970  179.1900  140.7460 C   0  0  0  0  0  2  0  0  0  0  0  0
  181.5300  180.1850  138.8160 C   0  0  0  0  0  0  0  0  0  0  0  0
  187.2990  178.0640  143.5170 O   0  0  0  0  0  0  0  0  0  0  0  0
  187.8910  178.5610  146.9920 O   0  0  0  0  0  1  0  0  0  0  0  0
  188.8740  176.5580  144.5320 C   0  0  2  0  0  3  0  0  0  0  0  0
  184.5480  178.7270  141.8350 C   0  0  1  0  0  3  0  0  0  0  0  0
  183.3510  178.9730  142.7600 C   0  0  2  0  0  3  0  0  0  0  0  0
  184.3200  177.6230  139.6500 C   0  0  0  0  0  2  0  0  0  0  0  0
  187.7710  177.5330  144.7910 C   0  0  1  0  0  3  0  0  0  0  0  0
  181.0810  179.1970  143.4610 C   0  0  2  0  0  3  0  0  0  0  0  0
  180.7040  177.9740  144.1510 O   0  0  0  0  0  0  0  0  0  0  0  0
  179.1730  179.4170  144.9700 C   0  0  0  0  0  1  0  0  0  0  0  0
  179.6170  178.7350  143.7400 C   0  0  1  0  0  3  0  0  0  0  0  0
  179.3200  180.4470  136.3510 O   0  0  0  0  0  0  0  0  0  0  0  0
  179.2910  179.1200  135.8240 C   0  0  0  0  0  1  0  0  0  0  0  0
  191.0770  176.8570  141.3490 C   0  0  0  0  0  2  0  0  0  0  0  0
  191.2950  176.3480  139.9320 C   0  0  0  0  0  0  0  0  0  0  0  0
  190.4320  175.7000  139.3520 O   0  0  0  0  0  0  0  0  0  0  0  0
  192.4880  176.9340  139.1800 C   0  0  1  0  0  3  0  0  0  0  0  0
  193.5730  177.4270  140.2200 C   0  0  0  0  0  1  0  0  0  0  0  0
  195.9920  172.2300  136.8460 C   0  0  1  0  0  3  0  0  0  0  0  0
  195.4790  173.3220  135.8940 C   0  0  1  0  0  3  0  0  0  0  0  0
  194.4980  173.9780  137.9300 C   0  0  1  0  0  3  0  0  0  0  0  0
  197.4550  172.1020  136.6710 N   0  0  0  0  0  1  0  0  0  0  0  0
  193.0670  175.8450  138.2110 C   0  0  2  0  0  3  0  0  0  0  0  0
  194.2840  175.1660  138.8060 C   0  0  0  0  0  2  0  0  0  0  0  0
  195.0170  174.5360  136.6620 C   0  0  2  0  0  3  0  0  0  0  0  0
  196.3490  173.6080  134.6540 C   0  0  0  0  0  1  0  0  0  0  0  0
  193.4260  176.4380  136.8400 C   0  0  0  0  0  2  0  0  0  0  0  0
  193.8930  175.2470  135.9620 C   0  0  0  0  0  2  0  0  0  0  0  0
  195.7990  172.8410  138.5210 S   0  0  0  0  0  0  0  0  0  0  0  0
  2 18  1  0  0  0  0
  2  5  1  0  0  0  0
  3  1  1  0  0  0  0
  3 15  1  0  0  0  0
  4  3  2  0  0  0  0
  5 37  1  6  0  0  0
  5 35  1  0  0  0  0
  7  6  1  6  0  0  0
  8  6  1  0  0  0  0
  9  1  1  6  0  0  0
  9 24  1  0  0  0  0
  9 30  1  0  0  0  0
 10 31  2  0  0  0  0
 12 37  1  0  0  0  0
 13 26  2  0  0  0  0
 14 11  1  0  0  0  0
 16 27  1  0  0  0  0
 17 12  1  0  0  0  0
 17 15  1  0  0  0  0
 18 26  1  0  0  0  0
 19 10  1  0  0  0  0
 21 36  1  0  0  0  0
 22  7  1  0  0  0  0
 23 25  2  0  0  0  0
 24 30  1  1  0  0  0
 24 29  1  0  0  0  0
 25 20  2  0  0  0  0
 25 34  1  0  0  0  0
 26 21  1  0  0  0  0
 27 11  1  0  0  0  0
 27 33  1  0  0  0  0
 28 43  1  1  0  0  0
 28 19  1  0  0  0  0
 28 10  1  0  0  0  0
 29 25  1  0  0  0  0
 31 18  2  0  0  0  0
 32  7  1  0  0  0  0
 34 38  1  0  0  0  0
 34 14  1  6  0  0  0
 35 22  1  1  0  0  0
 35 36  1  0  0  0  0
 36  8  1  1  0  0  0
 38 32  1  6  0  0  0
 38 27  1  0  0  0  0
 39 21  1  6  0  0  0
 39 42  1  0  0  0  0
 39 40  1  0  0  0  0
 42 40  1  0  0  0  0
 42 41  1  1  0  0  0
 44 43  1  0  0  0  0
 45 29  1  0  0  0  0
 46 45  1  0  0  0  0
 47 46  2  0  0  0  0
 48 46  1  0  0  0  0
 48 49  1  1  0  0  0
 50 53  1  6  0  0  0
 50 60  1  0  0  0  0
 51 57  1  6  0  0  0
 51 56  1  0  0  0  0
 51 50  1  0  0  0  0
 52 60  1  0  0  0  0
 52 55  1  1  0  0  0
 54 55  1  0  0  0  0
 54 48  1  1  0  0  0
 56 59  1  6  0  0  0
 56 52  1  0  0  0  0
 58 54  1  0  0  0  0
 59 58  1  0  0  0  0
M  END
>  <MODEL>
3

>  <REMARK>
 VINA RESULT:       1.2      2.718      6.720
  Name = 
  6 active torsions:
  status: ('A' for Active; 'I' for Inactive)
    1  A    between atoms: C_1  and  N_33
    2  A    between atoms: O_10  and  C_45
    3  A    between atoms: C_14  and  C_19
    4  A    between atoms: C_14  and  C_28
    5  A    between atoms: C_19  and  C_35
    6  A    between atoms: C_28  and  N_46
                            x       y       z     vdW  Elec       q    Type
                         _______ _______ _______ _____ _____    ______ ____

>  <TORSDO>
F 6

$$$$
=
 OpenBabel11062414153D

 60 68  0  0  1  0  0  0  0  0999 V2000
  182.8920  179.0170  141.7840 C   0  0  0  0  0  2  0  0  0  0  0  0
  188.7960  178.3280  143.3830 O   0  0  0  0  0  0  0  0  0  0  0  0
  183.7340  178.6260  142.9840 C   0  0  0  0  0  0  0  0  0  0  0  0
  183.4210  179.1610  144.0540 O   0  0  0  0  0  0  0  0  0  0  0  0
  187.9710  177.6890  142.3590 C   0  0  1  0  0  3  0  0  0  0  0  0
  189.4070  176.9030  138.2740 C   0  0  0  0  0  2  0  0  0  0  0  0
  188.2680  177.9650  138.6230 C   0  0  2  0  0  3  0  0  0  0  0  0
  190.1930  176.3870  139.5460 C   0  0  0  0  0  2  0  0  0  0  0  0
  183.2020  178.7660  140.3100 C   0  0  2  0  0  3  0  0  0  0  0  0
  189.9520  178.3610  146.4500 C   0  0  0  0  0  0  0  0  0  0  0  0
  186.0910  178.5600  134.9750 O   0  0  0  0  0  0  0  0  0  0  0  0
  186.4300  176.2210  143.9310 C   0  0  0  0  0  2  0  0  0  0  0  0
  191.2420  175.7040  144.0540 C   0  0  0  0  0  2  0  0  0  0  0  0
  185.1010  177.7280  135.5610 C   0  0  0  0  0  2  0  0  0  0  0  0
  184.8850  177.7240  142.8890 N   0  0  0  0  0  2  0  0  0  0  0  0
  187.3990  179.6020  136.4790 O   0  0  0  0  0  1  0  0  0  0  0  0
  185.7620  177.5480  144.0470 C   0  0  0  0  0  2  0  0  0  0  0  0
  189.9220  177.7010  143.9520 C   0  0  0  0  0  0  0  0  0  0  0  0
  190.2300  179.3420  147.5460 O   0  0  0  0  0  0  0  0  0  0  0  0
  183.6080  175.2170  136.9560 O   0  0  0  0  0  0  0  0  0  0  0  0
  191.0530  176.7720  141.8390 N   0  0  0  0  0  0  0  0  0  0  0  0
  188.2070  178.4440  140.0080 N   0  0  0  0  0  2  0  0  0  0  0  0
  185.4510  175.1180  138.5810 O   0  0  0  0  0  0  0  0  0  0  0  0
  184.1420  177.5890  139.8670 C   0  0  1  0  0  3  0  0  0  0  0  0
  184.6960  176.0170  137.6480 S   0  0  0  0  0  0  0  0  0  0  0  0
  190.7070  176.6820  143.2780 C   0  0  0  0  0  0  0  0  0  0  0  0
  187.2070  178.4380  135.7940 C   0  0  0  0  0  0  0  0  0  0  0  0
  189.6380  178.1590  147.7150 C   0  0  2  0  0  3  0  0  0  0  0  0
  183.9030  177.4050  138.4230 N   0  0  0  0  0  0  0  0  0  0  0  0
  184.6420  179.0500  140.0000 C   0  0  0  0  0  2  0  0  0  0  0  0
  190.0070  177.9230  145.2430 C   0  0  0  0  0  0  0  0  0  0  0  0
  186.9930  177.5880  138.1230 O   0  0  0  0  0  0  0  0  0  0  0  0
  188.3310  178.2840  134.8980 O   0  0  0  0  0  1  0  0  0  0  0  0
  185.8170  176.6040  136.2730 C   0  0  2  0  0  3  0  0  0  0  0  0
  188.6230  177.4220  140.9780 C   0  0  1  0  0  3  0  0  0  0  0  0
  190.1400  177.3340  140.7730 C   0  0  2  0  0  3  0  0  0  0  0  0
  187.4720  176.2660  142.8190 C   0  0  0  0  0  2  0  0  0  0  0  0
  187.1000  177.2300  136.7130 C   0  0  1  0  0  3  0  0  0  0  0  0
  192.4380  176.9180  141.2630 C   0  0  2  0  0  3  0  0  0  0  0  0
  192.4940  178.1910  140.5640 O   0  0  0  0  0  0  0  0  0  0  0  0
  194.2680  177.1270  139.6600 C   0  0  0  0  0  1  0  0  0  0  0  0
  192.7970  177.1030  139.7560 C   0  0  1  0  0  3  0  0  0  0  0  0
  190.7020  177.5150  148.4640 O   0  0  0  0  0  0  0  0  0  0  0  0
  191.0760  176.4380  147.6030 C   0  0  0  0  0  1  0  0  0  0  0  0
  182.4760  177.4650  138.0520 C   0  0  0  0  0  2  0  0  0  0  0  0
  181.9700  178.7810  137.4800 C   0  0  0  0  0  0  0  0  0  0  0  0
  182.7480  179.6600  137.1300 O   0  0  0  0  0  0  0  0  0  0  0  0
  180.4950  178.8250  137.0900 C   0  0  1  0  0  3  0  0  0  0  0  0
  180.2750  179.9510  136.0010 C   0  0  0  0  0  1  0  0  0  0  0  0
  179.0300  172.6890  136.8630 C   0  0  1  0  0  3  0  0  0  0  0  0
  179.7010  173.3420  135.6450 C   0  0  1  0  0  3  0  0  0  0  0  0
  179.4390  175.1890  137.0790 C   0  0  1  0  0  3  0  0  0  0  0  0
  179.8070  171.4890  137.2430 N   0  0  0  0  0  1  0  0  0  0  0  0
  180.0630  177.4140  136.5590 C   0  0  2  0  0  3  0  0  0  0  0  0
  180.1750  176.3580  137.6400 C   0  0  0  0  0  2  0  0  0  0  0  0
  180.3220  174.6660  136.0140 C   0  0  2  0  0  3  0  0  0  0  0  0
  180.5700  172.4180  134.7690 C   0  0  0  0  0  1  0  0  0  0  0  0
  180.8910  176.9900  135.3360 C   0  0  0  0  0  2  0  0  0  0  0  0
  180.3010  175.6340  134.8640 C   0  0  0  0  0  2  0  0  0  0  0  0
  179.2340  173.8050  138.2530 S   0  0  0  0  0  0  0  0  0  0  0  0
  1  3  1  0  0  0  0
  2 18  1  0  0  0  0
  3  4  2  0  0  0  0
  5 37  1  1  0  0  0
  5  2  1  0  0  0  0
  6  8  1  0  0  0  0
  7  6  1  1  0  0  0
  7 22  1  0  0  0  0
  9 30  1  1  0  0  0
  9  1  1  0  0  0  0
 10 19  1  0  0  0  0
 10 28  1  0  0  0  0
 11 14  1  0  0  0  0
 11 27  1  0  0  0  0
 12 17  1  0  0  0  0
 15  3  1  0  0  0  0
 15 17  1  0  0  0  0
 18 31  2  0  0  0  0
 19 28  1  0  0  0  0
 20 25  2  0  0  0  0
 21 26  1  0  0  0  0
 24 30  1  6  0  0  0
 24  9  1  0  0  0  0
 25 29  1  0  0  0  0
 25 23  2  0  0  0  0
 26 18  1  0  0  0  0
 26 13  2  0  0  0  0
 27 16  1  0  0  0  0
 27 38  1  0  0  0  0
 28 43  1  1  0  0  0
 29 24  1  0  0  0  0
 31 10  2  0  0  0  0
 32  7  1  0  0  0  0
 33 27  1  0  0  0  0
 34 14  1  1  0  0  0
 34 38  1  0  0  0  0
 34 25  1  0  0  0  0
 35 22  1  6  0  0  0
 35  5  1  0  0  0  0
 36  8  1  6  0  0  0
 36 35  1  0  0  0  0
 36 21  1  0  0  0  0
 37 12  1  0  0  0  0
 38 32  1  1  0  0  0
 39 21  1  6  0  0  0
 40 39  1  0  0  0  0
 42 41  1  1  0  0  0
 42 40  1  0  0  0  0
 42 39  1  0  0  0  0
 44 43  1  0  0  0  0
 45 29  1  0  0  0  0
 46 45  1  0  0  0  0
 47 46  2  0  0  0  0
 48 49  1  6  0  0  0
 48 46  1  0  0  0  0
 50 53  1  1  0  0  0
 50 60  1  0  0  0  0
 51 57  1  1  0  0  0
 51 56  1  0  0  0  0
 51 50  1  0  0  0  0
 52 55  1  1  0  0  0
 52 60  1  0  0  0  0
 54 48  1  1  0  0  0
 54 55  1  0  0  0  0
 56 59  1  6  0  0  0
 56 52  1  0  0  0  0
 58 54  1  0  0  0  0
 59 58  1  0  0  0  0
M  END
>  <MODEL>
4

>  <REMARK>
 VINA RESULT:       1.5      3.637      8.589
  Name = 
  6 active torsions:
  status: ('A' for Active; 'I' for Inactive)
    1  A    between atoms: C_1  and  N_33
    2  A    between atoms: O_10  and  C_45
    3  A    between atoms: C_14  and  C_19
    4  A    between atoms: C_14  and  C_28
    5  A    between atoms: C_19  and  C_35
    6  A    between atoms: C_28  and  N_46
                            x       y       z     vdW  Elec       q    Type
                         _______ _______ _______ _____ _____    ______ ____

>  <TORSDO>
F 6

$$$$
=
 OpenBabel11062414153D

 60 68  0  0  1  0  0  0  0  0999 V2000
  189.1290  179.1720  139.0540 C   0  0  0  0  0  2  0  0  0  0  0  0
  183.0110  179.6720  139.5030 O   0  0  0  0  0  0  0  0  0  0  0  0
  187.8840  179.0220  138.1990 C   0  0  0  0  0  0  0  0  0  0  0  0
  187.9290  179.5640  137.0890 O   0  0  0  0  0  0  0  0  0  0  0  0
  183.9840  178.8260  140.1920 C   0  0  1  0  0  3  0  0  0  0  0  0
  183.8300  178.0350  144.5190 C   0  0  0  0  0  2  0  0  0  0  0  0
  184.9760  178.8950  143.8160 C   0  0  2  0  0  3  0  0  0  0  0  0
  182.5890  177.7570  143.5770 C   0  0  0  0  0  2  0  0  0  0  0  0
  189.2730  178.8810  140.5460 C   0  0  2  0  0  3  0  0  0  0  0  0
  180.9500  180.1230  136.9940 C   0  0  0  0  0  0  0  0  0  0  0  0
  188.2920  178.8350  146.5360 O   0  0  0  0  0  0  0  0  0  0  0  0
  184.6160  177.2150  138.1910 C   0  0  0  0  0  2  0  0  0  0  0  0
  180.0210  177.5850  139.6700 C   0  0  0  0  0  2  0  0  0  0  0  0
  188.8580  177.8800  145.6510 C   0  0  0  0  0  2  0  0  0  0  0  0
  186.6760  178.3390  138.6680 N   0  0  0  0  0  2  0  0  0  0  0  0
  186.7940  180.1970  145.5570 O   0  0  0  0  0  1  0  0  0  0  0  0
  185.4530  178.4040  137.8660 C   0  0  0  0  0  2  0  0  0  0  0  0
  181.6630  179.2990  139.3380 C   0  0  0  0  0  0  0  0  0  0  0  0
  180.5260  181.2110  136.0570 O   0  0  0  0  0  0  0  0  0  0  0  0
  189.3020  175.2420  143.8270 O   0  0  0  0  0  0  0  0  0  0  0  0
  181.1220  178.4470  141.7020 N   0  0  0  0  0  0  0  0  0  0  0  0
  184.6750  179.4480  142.4920 N   0  0  0  0  0  2  0  0  0  0  0  0
  187.0490  175.5890  142.9070 O   0  0  0  0  0  0  0  0  0  0  0  0
  188.3190  177.8650  141.2700 C   0  0  1  0  0  3  0  0  0  0  0  0
  188.2240  176.2710  143.5400 S   0  0  0  0  0  0  0  0  0  0  0  0
  180.9580  178.3950  140.2300 C   0  0  0  0  0  0  0  0  0  0  0  0
  186.9700  178.9730  146.1340 C   0  0  0  0  0  0  0  0  0  0  0  0
  180.7910  179.9550  135.6960 C   0  0  2  0  0  3  0  0  0  0  0  0
  188.9740  177.5420  142.5520 N   0  0  0  0  0  0  0  0  0  0  0  0
  188.0950  179.3980  141.3180 C   0  0  0  0  0  2  0  0  0  0  0  0
  181.2070  179.6210  138.1490 C   0  0  0  0  0  0  0  0  0  0  0  0
  186.2460  178.2600  143.8620 O   0  0  0  0  0  0  0  0  0  0  0  0
  186.1900  178.9630  147.3520 O   0  0  0  0  0  1  0  0  0  0  0  0
  187.7460  176.9550  145.2130 C   0  0  2  0  0  3  0  0  0  0  0  0
  183.7770  178.5870  141.7100 C   0  0  1  0  0  3  0  0  0  0  0  0
  182.4230  178.7600  142.4070 C   0  0  2  0  0  3  0  0  0  0  0  0
  184.0210  177.3710  139.5860 C   0  0  0  0  0  2  0  0  0  0  0  0
  186.5370  177.8320  145.2260 C   0  0  1  0  0  3  0  0  0  0  0  0
  180.0560  178.8020  142.7050 C   0  0  2  0  0  3  0  0  0  0  0  0
  179.8250  180.2350  142.6190 O   0  0  0  0  0  0  0  0  0  0  0  0
  178.9310  179.7780  144.6410 C   0  0  0  0  0  1  0  0  0  0  0  0
  180.1990  179.8100  143.8870 C   0  0  1  0  0  3  0  0  0  0  0  0
  179.4380  179.5670  135.3400 O   0  0  0  0  0  0  0  0  0  0  0  0
  178.9320  180.7500  134.7190 C   0  0  0  0  0  1  0  0  0  0  0  0
  190.4280  177.3180  142.4290 C   0  0  0  0  0  2  0  0  0  0  0  0
  190.9140  176.6600  141.1470 C   0  0  0  0  0  0  0  0  0  0  0  0
  190.3650  175.6600  140.7000 O   0  0  0  0  0  0  0  0  0  0  0  0
  191.9010  177.4660  140.3050 C   0  0  1  0  0  3  0  0  0  0  0  0
  193.3600  177.2800  140.8860 C   0  0  0  0  0  1  0  0  0  0  0  0
  189.8400  174.7680  134.9830 C   0  0  1  0  0  3  0  0  0  0  0  0
  191.3530  174.8540  135.2390 C   0  0  1  0  0  3  0  0  0  0  0  0
  190.4960  175.9910  137.1130 C   0  0  1  0  0  3  0  0  0  0  0  0
  189.4930  173.3620  134.6760 N   0  0  0  0  0  1  0  0  0  0  0  0
  191.8070  176.9920  138.8130 C   0  0  2  0  0  3  0  0  0  0  0  0
  190.6190  176.0760  138.5970 C   0  0  0  0  0  2  0  0  0  0  0  0
  191.6400  175.1530  136.6900 C   0  0  2  0  0  3  0  0  0  0  0  0
  192.2150  173.7460  134.6030 C   0  0  0  0  0  1  0  0  0  0  0  0
  193.0930  176.2830  138.3610 C   0  0  0  0  0  2  0  0  0  0  0  0
  192.9010  175.9540  136.8570 C   0  0  0  0  0  2  0  0  0  0  0  0
  189.0100  175.0970  136.5390 S   0  0  0  0  0  0  0  0  0  0  0  0
  2  5  1  0  0  0  0
  3 15  1  0  0  0  0
  3  1  1  0  0  0  0
  4  3  2  0  0  0  0
  5 37  1  6  0  0  0
  5 35  1  0  0  0  0
  7 32  1  0  0  0  0
  7  6  1  6  0  0  0
  8  6  1  0  0  0  0
  9  1  1  6  0  0  0
  9 24  1  0  0  0  0
  9 30  1  0  0  0  0
 10 31  2  0  0  0  0
 12 37  1  0  0  0  0
 13 26  2  0  0  0  0
 14 11  1  0  0  0  0
 16 27  1  0  0  0  0
 17 12  1  0  0  0  0
 17 15  1  0  0  0  0
 18  2  1  0  0  0  0
 18 26  1  0  0  0  0
 19 10  1  0  0  0  0
 21 36  1  0  0  0  0
 22  7  1  0  0  0  0
 23 25  2  0  0  0  0
 24 30  1  1  0  0  0
 24 29  1  0  0  0  0
 25 20  2  0  0  0  0
 25 34  1  0  0  0  0
 26 21  1  0  0  0  0
 27 11  1  0  0  0  0
 27 33  1  0  0  0  0
 28 43  1  1  0  0  0
 28 19  1  0  0  0  0
 28 10  1  0  0  0  0
 29 25  1  0  0  0  0
 31 18  2  0  0  0  0
 34 38  1  0  0  0  0
 34 14  1  6  0  0  0
 35 36  1  0  0  0  0
 35 22  1  1  0  0  0
 36  8  1  1  0  0  0
 38 32  1  6  0  0  0
 38 27  1  0  0  0  0
 39 21  1  6  0  0  0
 39 42  1  0  0  0  0
 40 39  1  0  0  0  0
 40 42  1  0  0  0  0
 42 41  1  1  0  0  0
 44 43  1  0  0  0  0
 45 29  1  0  0  0  0
 46 45  1  0  0  0  0
 47 46  2  0  0  0  0
 48 49  1  1  0  0  0
 48 46  1  0  0  0  0
 50 53  1  1  0  0  0
 50 51  1  0  0  0  0
 50 60  1  0  0  0  0
 51 57  1  1  0  0  0
 51 56  1  0  0  0  0
 52 55  1  1  0  0  0
 54 48  1  1  0  0  0
 55 54  1  0  0  0  0
 56 59  1  6  0  0  0
 56 52  1  0  0  0  0
 58 54  1  0  0  0  0
 59 58  1  0  0  0  0
 60 52  1  0  0  0  0
M  END
>  <MODEL>
5

>  <REMARK>
 VINA RESULT:       2.1      2.759      7.287
  Name = 
  6 active torsions:
  status: ('A' for Active; 'I' for Inactive)
    1  A    between atoms: C_1  and  N_33
    2  A    between atoms: O_10  and  C_45
    3  A    between atoms: C_14  and  C_19
    4  A    between atoms: C_14  and  C_28
    5  A    between atoms: C_19  and  C_35
    6  A    between atoms: C_28  and  N_46
                            x       y       z     vdW  Elec       q    Type
                         _______ _______ _______ _____ _____    ______ ____

>  <TORSDO>
F 6

$$$$
