=
 OpenBabel11062417103D

 36 41  0  0  1  0  0  0  0  0999 V2000
  186.5670  178.4600  147.1360 N   0  0  0  0  0  0  0  0  0  0  0  0
  185.7150  178.2610  144.4990 C   0  0  0  0  0  0  0  0  0  0  0  0
  186.9560  177.5270  144.9170 C   0  0  1  0  0  3  0  0  0  0  0  0
  189.9540  176.2090  143.6300 C   0  0  2  0  0  3  0  0  0  0  0  0
  189.3430  178.0690  145.0140 N   0  0  2  0  0  0  0  0  0  0  0  0
  188.7680  178.1970  146.2890 N   0  0  0  0  0  2  0  0  0  0  0  0
  185.5360  178.5900  143.2660 N   0  0  0  0  0  0  0  0  0  0  0  0
  184.6210  178.3930  145.5340 C   0  0  0  0  0  2  0  0  0  0  0  0
  185.1880  178.5670  146.8770 N   0  0  0  0  0  2  0  0  0  0  0  0
  188.2130  177.8230  144.0870 C   0  0  1  0  0  3  0  0  0  0  0  0
  188.5500  176.6080  143.2390 C   0  0  0  0  0  2  0  0  0  0  0  0
  187.3790  177.9860  146.2440 C   0  0  0  0  0  0  0  0  0  0  0  0
  190.1280  176.8430  145.0040 C   0  0  2  0  0  3  0  0  0  0  0  0
  190.8520  176.7620  142.7080 O   0  0  0  0  0  0  0  0  0  0  0  0
  190.2150  176.6380  141.4720 C   0  0  0  0  0  1  0  0  0  0  0  0
  184.3250  179.2140  142.7900 C   0  0  0  0  0  2  0  0  0  0  0  0
  183.6000  178.2620  141.8600 C   0  0  0  0  0  2  0  0  0  0  0  0
  183.3050  178.3020  137.9280 C   0  0  1  0  0  3  0  0  0  0  0  0
  184.7840  178.5660  138.2950 C   0  0  1  0  0  3  0  0  0  0  0  0
  184.9740  175.7590  136.1760 O   0  0  0  0  0  0  0  0  0  0  0  0
  183.6430  178.7840  140.4370 C   0  0  1  0  0  3  0  0  0  0  0  0
  184.9500  178.3970  139.7940 C   0  0  0  0  0  2  0  0  0  0  0  0
  184.6330  176.7230  136.9090 C   0  0  0  0  0  0  0  0  0  0  0  0
  183.2880  177.1020  137.1020 N   0  0  0  0  0  2  0  0  0  0  0  0
  185.5550  177.5430  137.5950 N   0  0  0  0  0  0  0  0  0  0  0  0
  182.3320  178.0280  139.4400 S   0  0  0  0  0  0  0  0  0  0  0  0
  187.3640  179.0860  137.3530 N   0  0  0  0  0  2  0  0  0  0  0  0
  189.5020  177.5820  137.9190 S   0  0  0  0  0  0  0  0  0  0  0  0
  187.8670  176.8050  137.9300 C   0  0  0  0  0  2  0  0  0  0  0  0
  188.8050  179.0850  137.1700 C   0  0  0  0  0  2  0  0  0  0  0  0
  186.9370  177.7130  137.1560 C   0  0  1  0  0  3  0  0  0  0  0  0
  191.5820  177.1280  145.3740 C   0  0  0  0  0  2  0  0  0  0  0  0
  192.8020  175.6620  148.7450 C   0  0  0  0  0  1  0  0  0  0  0  0
  192.3390  176.5800  147.7180 N   0  0  0  0  0  2  0  0  0  0  0  0
  192.2220  174.9390  146.0590 O   0  0  0  0  0  0  0  0  0  0  0  0
  192.0680  176.1470  146.3850 C   0  0  0  0  0  0  0  0  0  0  0  0
  2  8  1  0  0  0  0
  3  2  1  6  0  0  0
  3 12  1  0  0  0  0
  4 14  1  6  0  0  0
  4 13  1  0  0  0  0
  5  6  1  1  0  0  0
  7  2  2  0  0  0  0
  8  9  1  0  0  0  0
  9  1  1  0  0  0  0
 10 11  1  6  0  0  0
 10  3  1  0  0  0  0
 10  5  1  0  0  0  0
 11  4  1  0  0  0  0
 12  6  1  0  0  0  0
 12  1  2  0  0  0  0
 13  5  1  0  0  0  0
 13 32  1  6  0  0  0
 15 14  1  0  0  0  0
 16  7  1  0  0  0  0
 17 16  1  0  0  0  0
 18 24  1  6  0  0  0
 18 19  1  0  0  0  0
 18 26  1  0  0  0  0
 19 22  1  1  0  0  0
 20 23  2  0  0  0  0
 21 17  1  1  0  0  0
 22 21  1  0  0  0  0
 23 24  1  0  0  0  0
 23 25  1  0  0  0  0
 25 19  1  0  0  0  0
 26 21  1  0  0  0  0
 28 29  1  0  0  0  0
 30 27  1  0  0  0  0
 30 28  1  0  0  0  0
 31 27  1  0  0  0  0
 31 25  1  1  0  0  0
 31 29  1  0  0  0  0
 32 36  1  0  0  0  0
 34 33  1  0  0  0  0
 35 36  2  0  0  0  0
 36 34  1  0  0  0  0
M  END
>  <MODEL>
1

>  <REMARK>
 VINA RESULT:      -8.7      0.000      0.000
  Name = 
  7 active torsions:
  status: ('A' for Active; 'I' for Inactive)
    1  A    between atoms: C_5  and  O_16
    2  A    between atoms: N_10  and  C_23
    3  A    between atoms: C_14  and  C_17
    4  A    between atoms: C_14  and  C_23
    5  A    between atoms: C_27  and  C_34
    6  A    between atoms: C_32  and  C_34
    7  A    between atoms: N_33  and  C_35
                            x       y       z     vdW  Elec       q    Type
                         _______ _______ _______ _____ _____    ______ ____

>  <TORSDO>
F 7

$$$$
=
 OpenBabel11062417103D

 36 41  0  0  1  0  0  0  0  0999 V2000
  187.1320  178.1950  147.5730 N   0  0  0  0  0  0  0  0  0  0  0  0
  185.6530  178.4500  145.2350 C   0  0  0  0  0  0  0  0  0  0  0  0
  186.8650  177.5640  145.2320 C   0  0  1  0  0  3  0  0  0  0  0  0
  189.2940  176.2070  143.0780 C   0  0  2  0  0  3  0  0  0  0  0  0
  189.2510  177.8900  144.7840 N   0  0  2  0  0  0  0  0  0  0  0  0
  189.0180  177.8780  146.1690 N   0  0  0  0  0  2  0  0  0  0  0  0
  185.2210  178.9680  144.1360 N   0  0  0  0  0  0  0  0  0  0  0  0
  184.8630  178.5200  146.5220 C   0  0  0  0  0  2  0  0  0  0  0  0
  185.7520  178.4500  147.6870 N   0  0  0  0  0  2  0  0  0  0  0  0
  187.9110  177.8740  144.1520 C   0  0  1  0  0  3  0  0  0  0  0  0
  187.8920  176.7710  143.1060 C   0  0  0  0  0  2  0  0  0  0  0  0
  187.6450  177.7910  146.4530 C   0  0  0  0  0  0  0  0  0  0  0  0
  189.8650  176.6190  144.4280 C   0  0  2  0  0  3  0  0  0  0  0  0
  190.0000  176.8120  142.0310 O   0  0  0  0  0  0  0  0  0  0  0  0
  189.0400  177.0620  141.0490 C   0  0  0  0  0  1  0  0  0  0  0  0
  184.0120  179.7500  144.0610 C   0  0  0  0  0  2  0  0  0  0  0  0
  182.8100  178.8320  144.1630 C   0  0  0  0  0  2  0  0  0  0  0  0
  179.7310  178.3980  141.7390 C   0  0  1  0  0  3  0  0  0  0  0  0
  181.0180  178.3530  140.8820 C   0  0  1  0  0  3  0  0  0  0  0  0
  179.4210  175.3160  140.0870 O   0  0  0  0  0  0  0  0  0  0  0  0
  181.8280  179.1280  143.0460 C   0  0  1  0  0  3  0  0  0  0  0  0
  182.2190  178.3590  141.8090 C   0  0  0  0  0  2  0  0  0  0  0  0
  179.7870  176.4250  140.5560 C   0  0  0  0  0  0  0  0  0  0  0  0
  179.0400  177.1340  141.5200 N   0  0  0  0  0  2  0  0  0  0  0  0
  180.9640  177.0910  140.1520 N   0  0  0  0  0  0  0  0  0  0  0  0
  180.1630  178.5720  143.4970 S   0  0  0  0  0  0  0  0  0  0  0  0
  182.0970  178.1170  138.3140 N   0  0  0  0  0  2  0  0  0  0  0  0
  183.8810  176.2530  137.6060 S   0  0  0  0  0  0  0  0  0  0  0  0
  182.7380  175.8890  138.9630 C   0  0  0  0  0  2  0  0  0  0  0  0
  182.9410  177.7520  137.1890 C   0  0  0  0  0  2  0  0  0  0  0  0
  181.5880  176.8670  138.8510 C   0  0  1  0  0  3  0  0  0  0  0  0
  191.3870  176.7270  144.4480 C   0  0  0  0  0  2  0  0  0  0  0  0
  192.5770  175.7590  148.0040 C   0  0  0  0  0  1  0  0  0  0  0  0
  192.0430  176.5000  146.8740 N   0  0  0  0  0  2  0  0  0  0  0  0
  192.3420  174.7460  145.3600 O   0  0  0  0  0  0  0  0  0  0  0  0
  191.9560  175.9270  145.5690 C   0  0  0  0  0  0  0  0  0  0  0  0
  1  9  1  0  0  0  0
  2  8  1  0  0  0  0
  3  2  1  1  0  0  0
  3 12  1  0  0  0  0
  4 14  1  6  0  0  0
  4 11  1  0  0  0  0
  4 13  1  0  0  0  0
  5  6  1  1  0  0  0
  6 12  1  0  0  0  0
  7  2  2  0  0  0  0
  8  9  1  0  0  0  0
 10 11  1  6  0  0  0
 10  5  1  0  0  0  0
 10  3  1  0  0  0  0
 12  1  2  0  0  0  0
 13 32  1  6  0  0  0
 13  5  1  0  0  0  0
 15 14  1  0  0  0  0
 16  7  1  0  0  0  0
 16 17  1  0  0  0  0
 18 24  1  1  0  0  0
 18 26  1  0  0  0  0
 19 18  1  0  0  0  0
 19 22  1  1  0  0  0
 20 23  2  0  0  0  0
 21 26  1  0  0  0  0
 21 17  1  1  0  0  0
 22 21  1  0  0  0  0
 23 24  1  0  0  0  0
 25 23  1  0  0  0  0
 25 19  1  0  0  0  0
 27 31  1  0  0  0  0
 28 29  1  0  0  0  0
 30 28  1  0  0  0  0
 30 27  1  0  0  0  0
 31 29  1  1  0  0  0
 31 25  1  0  0  0  0
 32 36  1  0  0  0  0
 34 33  1  0  0  0  0
 35 36  2  0  0  0  0
 36 34  1  0  0  0  0
M  END
>  <MODEL>
2

>  <REMARK>
 VINA RESULT:      -8.4      2.495      3.420
  Name = 
  7 active torsions:
  status: ('A' for Active; 'I' for Inactive)
    1  A    between atoms: C_5  and  O_16
    2  A    between atoms: N_10  and  C_23
    3  A    between atoms: C_14  and  C_17
    4  A    between atoms: C_14  and  C_23
    5  A    between atoms: C_27  and  C_34
    6  A    between atoms: C_32  and  C_34
    7  A    between atoms: N_33  and  C_35
                            x       y       z     vdW  Elec       q    Type
                         _______ _______ _______ _____ _____    ______ ____

>  <TORSDO>
F 7

$$$$
=
 OpenBabel11062417103D

 36 41  0  0  1  0  0  0  0  0999 V2000
  191.1720  177.4460  145.5190 N   0  0  0  0  0  0  0  0  0  0  0  0
  188.5420  177.3590  144.6270 C   0  0  0  0  0  0  0  0  0  0  0  0
  189.6420  176.9760  143.6790 C   0  0  1  0  0  3  0  0  0  0  0  0
  190.3940  176.7880  140.2470 C   0  0  2  0  0  3  0  0  0  0  0  0
  191.0560  178.1800  142.0820 N   0  0  2  0  0  0  0  0  0  0  0  0
  191.7590  177.9610  143.2780 N   0  0  0  0  0  2  0  0  0  0  0  0
  187.4110  177.7830  144.1770 N   0  0  0  0  0  0  0  0  0  0  0  0
  188.7520  177.0220  146.0850 C   0  0  0  0  0  2  0  0  0  0  0  0
  190.1620  177.1740  146.4610 N   0  0  0  0  0  2  0  0  0  0  0  0
  189.6660  177.7380  142.3480 C   0  0  1  0  0  3  0  0  0  0  0  0
  189.2440  176.8020  141.2270 C   0  0  0  0  0  2  0  0  0  0  0  0
  190.9390  177.3570  144.2470 C   0  0  0  0  0  0  0  0  0  0  0  0
  191.5760  177.2550  141.0870 C   0  0  2  0  0  3  0  0  0  0  0  0
  190.1200  177.6990  139.2190 O   0  0  0  0  0  0  0  0  0  0  0  0
  188.9490  177.2260  138.6250 C   0  0  0  0  0  1  0  0  0  0  0  0
  186.2890  178.0780  145.0330 C   0  0  0  0  0  2  0  0  0  0  0  0
  185.2090  178.7720  144.2270 C   0  0  0  0  0  2  0  0  0  0  0  0
  185.0790  178.5950  140.2890 C   0  0  1  0  0  3  0  0  0  0  0  0
  183.7470  178.0260  140.8340 C   0  0  1  0  0  3  0  0  0  0  0  0
  182.6940  180.6050  138.6780 O   0  0  0  0  0  0  0  0  0  0  0  0
  185.1330  178.1800  142.8320 C   0  0  1  0  0  3  0  0  0  0  0  0
  183.7100  178.2300  142.3360 C   0  0  0  0  0  2  0  0  0  0  0  0
  183.3230  179.7810  139.3920 C   0  0  0  0  0  0  0  0  0  0  0  0
  184.7310  179.7240  139.4360 N   0  0  0  0  0  2  0  0  0  0  0  0
  182.6930  178.8120  140.2020 N   0  0  0  0  0  0  0  0  0  0  0  0
  186.1210  179.1590  141.6690 S   0  0  0  0  0  0  0  0  0  0  0  0
  181.3180  176.8650  140.0220 N   0  0  0  0  0  2  0  0  0  0  0  0
  178.9850  177.6950  141.0370 S   0  0  0  0  0  0  0  0  0  0  0  0
  180.3520  178.8770  140.9220 C   0  0  0  0  0  2  0  0  0  0  0  0
  179.9130  176.4960  140.0320 C   0  0  0  0  0  2  0  0  0  0  0  0
  181.3470  178.3140  139.9320 C   0  0  1  0  0  3  0  0  0  0  0  0
  192.6930  177.9040  140.2740 C   0  0  0  0  0  2  0  0  0  0  0  0
  194.0260  175.3700  137.6660 C   0  0  0  0  0  1  0  0  0  0  0  0
  193.2170  176.3730  138.3390 N   0  0  0  0  0  2  0  0  0  0  0  0
  194.5710  176.4410  140.2410 O   0  0  0  0  0  0  0  0  0  0  0  0
  193.5500  176.8650  139.6360 C   0  0  0  0  0  0  0  0  0  0  0  0
  1  9  1  0  0  0  0
  2  8  1  0  0  0  0
  3 12  1  1  0  0  0
  3  2  1  0  0  0  0
  4 14  1  6  0  0  0
  4 13  1  0  0  0  0
  4 11  1  0  0  0  0
  5 10  1  0  0  0  0
  5  6  1  1  0  0  0
  6 12  1  0  0  0  0
  7  2  2  0  0  0  0
  7 16  1  0  0  0  0
  8  9  1  0  0  0  0
 10 11  1  6  0  0  0
 10  3  1  0  0  0  0
 12  1  2  0  0  0  0
 13 32  1  6  0  0  0
 13  5  1  0  0  0  0
 15 14  1  0  0  0  0
 17 16  1  0  0  0  0
 18 24  1  6  0  0  0
 18 19  1  0  0  0  0
 18 26  1  0  0  0  0
 19 22  1  1  0  0  0
 20 23  2  0  0  0  0
 21 17  1  1  0  0  0
 22 21  1  0  0  0  0
 23 24  1  0  0  0  0
 23 25  1  0  0  0  0
 25 19  1  0  0  0  0
 26 21  1  0  0  0  0
 27 30  1  0  0  0  0
 29 28  1  0  0  0  0
 30 28  1  0  0  0  0
 31 27  1  0  0  0  0
 31 25  1  1  0  0  0
 31 29  1  0  0  0  0
 33 34  1  0  0  0  0
 34 36  1  0  0  0  0
 36 35  2  0  0  0  0
 36 32  1  0  0  0  0
M  END
>  <MODEL>
3

>  <REMARK>
 VINA RESULT:      -7.7      2.996      5.430
  Name = 
  7 active torsions:
  status: ('A' for Active; 'I' for Inactive)
    1  A    between atoms: C_5  and  O_16
    2  A    between atoms: N_10  and  C_23
    3  A    between atoms: C_14  and  C_17
    4  A    between atoms: C_14  and  C_23
    5  A    between atoms: C_27  and  C_34
    6  A    between atoms: C_32  and  C_34
    7  A    between atoms: N_33  and  C_35
                            x       y       z     vdW  Elec       q    Type
                         _______ _______ _______ _____ _____    ______ ____

>  <TORSDO>
F 7

$$$$
=
 OpenBabel11062417103D

 36 41  0  0  1  0  0  0  0  0999 V2000
  186.3360  178.4830  146.7940 N   0  0  0  0  0  0  0  0  0  0  0  0
  185.4640  178.2030  144.1710 C   0  0  0  0  0  0  0  0  0  0  0  0
  186.7270  177.5100  144.5930 C   0  0  1  0  0  3  0  0  0  0  0  0
  189.7450  176.2380  143.3050 C   0  0  2  0  0  3  0  0  0  0  0  0
  189.1010  178.1120  144.6530 N   0  0  2  0  0  0  0  0  0  0  0  0
  188.5350  178.2550  145.9300 N   0  0  0  0  0  2  0  0  0  0  0  0
  185.2640  178.5000  142.9330 N   0  0  0  0  0  0  0  0  0  0  0  0
  184.3770  178.3320  145.2140 C   0  0  0  0  0  2  0  0  0  0  0  0
  184.9530  178.5500  146.5460 N   0  0  0  0  0  2  0  0  0  0  0  0
  187.9680  177.8180  143.7430 C   0  0  1  0  0  3  0  0  0  0  0  0
  188.3280  176.5920  142.9190 C   0  0  0  0  0  2  0  0  0  0  0  0
  187.1520  178.0090  145.9040 C   0  0  0  0  0  0  0  0  0  0  0  0
  189.9160  176.9070  144.6620 C   0  0  2  0  0  3  0  0  0  0  0  0
  190.6190  176.7910  142.3610 O   0  0  0  0  0  0  0  0  0  0  0  0
  189.9690  176.6340  141.1360 C   0  0  0  0  0  1  0  0  0  0  0  0
  184.0350  179.0820  142.4550 C   0  0  0  0  0  2  0  0  0  0  0  0
  183.1670  177.9990  141.8450 C   0  0  0  0  0  2  0  0  0  0  0  0
  183.0260  178.3750  137.9220 C   0  0  1  0  0  3  0  0  0  0  0  0
  182.7240  176.8970  138.2680 C   0  0  1  0  0  3  0  0  0  0  0  0
  179.9130  177.8690  136.3810 O   0  0  0  0  0  0  0  0  0  0  0  0
  183.5260  177.8010  140.3840 C   0  0  1  0  0  3  0  0  0  0  0  0
  182.6170  176.7630  139.7750 C   0  0  0  0  0  2  0  0  0  0  0  0
  180.9860  177.7890  137.0340 C   0  0  0  0  0  0  0  0  0  0  0  0
  181.8680  178.8780  137.1950 N   0  0  0  0  0  2  0  0  0  0  0  0
  181.4350  176.6020  137.6530 N   0  0  0  0  0  0  0  0  0  0  0  0
  183.2620  179.3320  139.4500 S   0  0  0  0  0  0  0  0  0  0  0  0
  182.1580  174.3690  137.2010 N   0  0  0  0  0  2  0  0  0  0  0  0
  180.0670  172.9000  137.9920 S   0  0  0  0  0  0  0  0  0  0  0  0
  179.9530  174.7040  138.1050 C   0  0  0  0  0  2  0  0  0  0  0  0
  181.6040  173.0380  137.0300 C   0  0  0  0  0  2  0  0  0  0  0  0
  181.0240  175.2760  137.2020 C   0  0  1  0  0  3  0  0  0  0  0  0
  191.3660  177.2360  145.0100 C   0  0  0  0  0  2  0  0  0  0  0  0
  192.6380  175.6750  148.3190 C   0  0  0  0  0  1  0  0  0  0  0  0
  192.1190  176.6120  147.3360 N   0  0  0  0  0  2  0  0  0  0  0  0
  192.1770  175.0710  145.5810 O   0  0  0  0  0  0  0  0  0  0  0  0
  191.9130  176.2390  145.9730 C   0  0  0  0  0  0  0  0  0  0  0  0
  2  8  1  0  0  0  0
  3  2  1  6  0  0  0
  3 12  1  0  0  0  0
  4 14  1  6  0  0  0
  4 13  1  0  0  0  0
  5 13  1  0  0  0  0
  5  6  1  1  0  0  0
  7  2  2  0  0  0  0
  8  9  1  0  0  0  0
  9  1  1  0  0  0  0
 10 11  1  1  0  0  0
 10  3  1  0  0  0  0
 10  5  1  0  0  0  0
 11  4  1  0  0  0  0
 12  6  1  0  0  0  0
 12  1  2  0  0  0  0
 13 32  1  6  0  0  0
 15 14  1  0  0  0  0
 16  7  1  0  0  0  0
 17 16  1  0  0  0  0
 18 24  1  1  0  0  0
 18 19  1  0  0  0  0
 18 26  1  0  0  0  0
 19 22  1  1  0  0  0
 20 23  2  0  0  0  0
 21 17  1  1  0  0  0
 22 21  1  0  0  0  0
 23 24  1  0  0  0  0
 23 25  1  0  0  0  0
 25 19  1  0  0  0  0
 26 21  1  0  0  0  0
 27 31  1  0  0  0  0
 28 29  1  0  0  0  0
 30 27  1  0  0  0  0
 30 28  1  0  0  0  0
 31 25  1  1  0  0  0
 31 29  1  0  0  0  0
 32 36  1  0  0  0  0
 34 33  1  0  0  0  0
 35 36  2  0  0  0  0
 36 34  1  0  0  0  0
M  END
>  <MODEL>
4

>  <REMARK>
 VINA RESULT:      -7.7      2.343      3.525
  Name = 
  7 active torsions:
  status: ('A' for Active; 'I' for Inactive)
    1  A    between atoms: C_5  and  O_16
    2  A    between atoms: N_10  and  C_23
    3  A    between atoms: C_14  and  C_17
    4  A    between atoms: C_14  and  C_23
    5  A    between atoms: C_27  and  C_34
    6  A    between atoms: C_32  and  C_34
    7  A    between atoms: N_33  and  C_35
                            x       y       z     vdW  Elec       q    Type
                         _______ _______ _______ _____ _____    ______ ____

>  <TORSDO>
F 7

$$$$
=
 OpenBabel11062417103D

 36 41  0  0  1  0  0  0  0  0999 V2000
  190.0610  177.2360  141.4800 N   0  0  0  0  0  0  0  0  0  0  0  0
  188.0970  178.2410  139.7920 C   0  0  0  0  0  0  0  0  0  0  0  0
  187.9470  178.4340  141.2730 C   0  0  1  0  0  3  0  0  0  0  0  0
  185.5140  178.9550  143.7610 C   0  0  2  0  0  3  0  0  0  0  0  0
  186.9400  177.1460  143.0980 N   0  0  2  0  0  0  0  0  0  0  0  0
  188.3300  176.9480  143.0780 N   0  0  0  0  0  2  0  0  0  0  0  0
  187.0610  178.2510  139.0240 N   0  0  0  0  0  0  0  0  0  0  0  0
  189.5050  178.2550  139.2430 C   0  0  0  0  0  2  0  0  0  0  0  0
  190.4420  177.6340  140.1850 N   0  0  0  0  0  2  0  0  0  0  0  0
  186.6300  177.9290  141.8770 C   0  0  1  0  0  3  0  0  0  0  0  0
  185.7750  179.1200  142.2820 C   0  0  0  0  0  2  0  0  0  0  0  0
  188.9210  177.5980  141.9820 C   0  0  0  0  0  0  0  0  0  0  0  0
  186.6340  178.0290  144.2140 C   0  0  2  0  0  3  0  0  0  0  0  0
  184.2630  178.3480  143.9310 O   0  0  0  0  0  0  0  0  0  0  0  0
  183.4240  179.3750  144.3680 C   0  0  0  0  0  1  0  0  0  0  0  0
  187.1510  178.1620  137.5880 C   0  0  0  0  0  2  0  0  0  0  0  0
  185.7800  177.8610  137.0150 C   0  0  0  0  0  2  0  0  0  0  0  0
  183.0120  175.3870  138.3440 C   0  0  1  0  0  3  0  0  0  0  0  0
  182.8050  176.7500  139.0450 C   0  0  1  0  0  3  0  0  0  0  0  0
  179.6780  176.1400  137.5420 O   0  0  0  0  0  0  0  0  0  0  0  0
  184.9830  177.0070  137.9820 C   0  0  1  0  0  3  0  0  0  0  0  0
  183.7570  177.7600  138.4330 C   0  0  0  0  0  2  0  0  0  0  0  0
  180.8720  176.1300  137.9420 C   0  0  0  0  0  0  0  0  0  0  0  0
  181.7750  175.0930  137.6310 N   0  0  0  0  0  2  0  0  0  0  0  0
  181.4270  177.1360  138.7620 N   0  0  0  0  0  0  0  0  0  0  0  0
  184.3930  175.5000  137.1660 S   0  0  0  0  0  0  0  0  0  0  0  0
  181.2920  178.1950  140.9000 N   0  0  0  0  0  2  0  0  0  0  0  0
  180.0640  180.5050  140.3380 S   0  0  0  0  0  0  0  0  0  0  0  0
  180.3470  179.3230  138.9960 C   0  0  0  0  0  2  0  0  0  0  0  0
  180.5600  179.2590  141.5660 C   0  0  0  0  0  2  0  0  0  0  0  0
  180.6140  177.9770  139.6350 C   0  0  1  0  0  3  0  0  0  0  0  0
  186.3000  177.2220  145.4670 C   0  0  0  0  0  2  0  0  0  0  0  0
  188.5170  178.2500  148.4710 C   0  0  0  0  0  1  0  0  0  0  0  0
  188.0120  177.5780  147.2860 N   0  0  0  0  0  2  0  0  0  0  0  0
  186.0600  178.8580  147.1800 O   0  0  0  0  0  0  0  0  0  0  0  0
  186.7650  177.9350  146.6900 C   0  0  0  0  0  0  0  0  0  0  0  0
  1 12  2  0  0  0  0
  3  2  1  6  0  0  0
  3 10  1  0  0  0  0
  3 12  1  0  0  0  0
  4 14  1  6  0  0  0
  4 13  1  0  0  0  0
  5  6  1  6  0  0  0
  5 13  1  0  0  0  0
  7  2  2  0  0  0  0
  8  2  1  0  0  0  0
  8  9  1  0  0  0  0
  9  1  1  0  0  0  0
 10 11  1  1  0  0  0
 10  5  1  0  0  0  0
 11  4  1  0  0  0  0
 12  6  1  0  0  0  0
 13 32  1  1  0  0  0
 14 15  1  0  0  0  0
 16  7  1  0  0  0  0
 17 16  1  0  0  0  0
 18 26  1  6  0  0  0
 18 19  1  0  0  0  0
 19 22  1  6  0  0  0
 20 23  2  0  0  0  0
 21 17  1  6  0  0  0
 21 22  1  0  0  0  0
 23 25  1  0  0  0  0
 24 23  1  0  0  0  0
 24 18  1  0  0  0  0
 25 19  1  0  0  0  0
 26 21  1  0  0  0  0
 27 30  1  0  0  0  0
 28 30  1  0  0  0  0
 29 31  1  0  0  0  0
 29 28  1  0  0  0  0
 31 25  1  6  0  0  0
 31 27  1  0  0  0  0
 32 36  1  0  0  0  0
 34 33  1  0  0  0  0
 36 35  2  0  0  0  0
 36 34  1  0  0  0  0
M  END
>  <MODEL>
5

>  <REMARK>
 VINA RESULT:      -7.6      3.151      5.663
  Name = 
  7 active torsions:
  status: ('A' for Active; 'I' for Inactive)
    1  A    between atoms: C_5  and  O_16
    2  A    between atoms: N_10  and  C_23
    3  A    between atoms: C_14  and  C_17
    4  A    between atoms: C_14  and  C_23
    5  A    between atoms: C_27  and  C_34
    6  A    between atoms: C_32  and  C_34
    7  A    between atoms: N_33  and  C_35
                            x       y       z     vdW  Elec       q    Type
                         _______ _______ _______ _____ _____    ______ ____

>  <TORSDO>
F 7

$$$$
=
 OpenBabel11062417103D

 36 41  0  0  1  0  0  0  0  0999 V2000
  191.0820  177.2470  143.9470 N   0  0  0  0  0  0  0  0  0  0  0  0
  190.2150  177.3160  141.3090 C   0  0  0  0  0  0  0  0  0  0  0  0
  189.3350  177.8990  142.3760 C   0  0  1  0  0  3  0  0  0  0  0  0
  185.9690  178.6400  143.0840 C   0  0  2  0  0  3  0  0  0  0  0  0
  187.5740  177.0280  143.8400 N   0  0  2  0  0  0  0  0  0  0  0  0
  188.7890  177.1070  144.5410 N   0  0  0  0  0  2  0  0  0  0  0  0
  189.7080  176.9010  140.1990 N   0  0  0  0  0  0  0  0  0  0  0  0
  191.7080  177.4420  141.5130 C   0  0  0  0  0  2  0  0  0  0  0  0
  192.0550  177.3170  142.9330 N   0  0  0  0  0  2  0  0  0  0  0  0
  187.9040  177.3460  142.4300 C   0  0  1  0  0  3  0  0  0  0  0  0
  186.9360  178.4140  141.9460 C   0  0  0  0  0  2  0  0  0  0  0  0
  189.8370  177.5110  143.6980 C   0  0  0  0  0  0  0  0  0  0  0  0
  186.7280  178.1200  144.2980 C   0  0  2  0  0  3  0  0  0  0  0  0
  184.8160  177.8780  142.8520 O   0  0  0  0  0  0  0  0  0  0  0  0
  184.2520  178.4250  141.6990 C   0  0  0  0  0  1  0  0  0  0  0  0
  190.5110  176.4170  139.1030 C   0  0  0  0  0  2  0  0  0  0  0  0
  189.8140  176.7250  137.7930 C   0  0  0  0  0  2  0  0  0  0  0  0
  191.4990  174.6230  134.9130 C   0  0  1  0  0  3  0  0  0  0  0  0
  192.6000  174.9980  135.9330 C   0  0  1  0  0  3  0  0  0  0  0  0
  192.8090  171.4850  135.7840 O   0  0  0  0  0  0  0  0  0  0  0  0
  190.7200  176.3850  136.6240 C   0  0  1  0  0  3  0  0  0  0  0  0
  191.9480  175.6690  137.1270 C   0  0  0  0  0  2  0  0  0  0  0  0
  192.5130  172.7030  135.6750 C   0  0  0  0  0  0  0  0  0  0  0  0
  191.4710  173.1680  134.8460 N   0  0  0  0  0  2  0  0  0  0  0  0
  193.2040  173.7350  136.3450 N   0  0  0  0  0  0  0  0  0  0  0  0
  189.8890  175.2490  135.4830 S   0  0  0  0  0  0  0  0  0  0  0  0
  195.3820  174.7200  136.3410 N   0  0  0  0  0  2  0  0  0  0  0  0
  196.3000  174.1320  138.7850 S   0  0  0  0  0  0  0  0  0  0  0  0
  194.6600  173.5320  138.3060 C   0  0  0  0  0  2  0  0  0  0  0  0
  196.6350  174.6420  137.0720 C   0  0  0  0  0  2  0  0  0  0  0  0
  194.5860  173.5940  136.7960 C   0  0  1  0  0  3  0  0  0  0  0  0
  185.8260  177.6650  145.4420 C   0  0  0  0  0  2  0  0  0  0  0  0
  187.9380  178.2530  148.6350 C   0  0  0  0  0  1  0  0  0  0  0  0
  187.4410  177.7140  147.3800 N   0  0  0  0  0  2  0  0  0  0  0  0
  185.6550  179.2140  147.2420 O   0  0  0  0  0  0  0  0  0  0  0  0
  186.2840  178.2460  146.7350 C   0  0  0  0  0  0  0  0  0  0  0  0
  2  8  1  0  0  0  0
  3  2  1  6  0  0  0
  3 10  1  0  0  0  0
  3 12  1  0  0  0  0
  4 14  1  6  0  0  0
  4 13  1  0  0  0  0
  5 13  1  0  0  0  0
  5  6  1  1  0  0  0
  7  2  2  0  0  0  0
  8  9  1  0  0  0  0
  9  1  1  0  0  0  0
 10 11  1  1  0  0  0
 10  5  1  0  0  0  0
 11  4  1  0  0  0  0
 12  1  2  0  0  0  0
 12  6  1  0  0  0  0
 13 32  1  1  0  0  0
 15 14  1  0  0  0  0
 16  7  1  0  0  0  0
 17 16  1  0  0  0  0
 18 24  1  1  0  0  0
 18 26  1  0  0  0  0
 18 19  1  0  0  0  0
 19 25  1  0  0  0  0
 19 22  1  1  0  0  0
 21 22  1  0  0  0  0
 21 17  1  1  0  0  0
 23 20  2  0  0  0  0
 23 25  1  0  0  0  0
 24 23  1  0  0  0  0
 26 21  1  0  0  0  0
 27 31  1  0  0  0  0
 27 30  1  0  0  0  0
 29 28  1  0  0  0  0
 30 28  1  0  0  0  0
 31 25  1  1  0  0  0
 31 29  1  0  0  0  0
 32 36  1  0  0  0  0
 34 33  1  0  0  0  0
 36 35  2  0  0  0  0
 36 34  1  0  0  0  0
M  END
>  <MODEL>
6

>  <REMARK>
 VINA RESULT:      -7.5      4.751      6.975
  Name = 
  7 active torsions:
  status: ('A' for Active; 'I' for Inactive)
    1  A    between atoms: C_5  and  O_16
    2  A    between atoms: N_10  and  C_23
    3  A    between atoms: C_14  and  C_17
    4  A    between atoms: C_14  and  C_23
    5  A    between atoms: C_27  and  C_34
    6  A    between atoms: C_32  and  C_34
    7  A    between atoms: N_33  and  C_35
                            x       y       z     vdW  Elec       q    Type
                         _______ _______ _______ _____ _____    ______ ____

>  <TORSDO>
F 7

$$$$
=
 OpenBabel11062417103D

 36 41  0  0  1  0  0  0  0  0999 V2000
  190.7240  177.1410  143.4700 N   0  0  0  0  0  0  0  0  0  0  0  0
  189.6250  177.4210  140.9340 C   0  0  0  0  0  0  0  0  0  0  0  0
  188.8820  177.9820  142.1120 C   0  0  1  0  0  3  0  0  0  0  0  0
  185.6440  178.8540  143.1780 C   0  0  2  0  0  3  0  0  0  0  0  0
  187.2150  177.1160  143.6840 N   0  0  2  0  0  0  0  0  0  0  0  0
  188.4910  177.0850  144.2700 N   0  0  0  0  0  2  0  0  0  0  0  0
  188.9940  177.1040  139.8550 N   0  0  0  0  0  0  0  0  0  0  0  0
  191.1350  177.4550  141.0020 C   0  0  0  0  0  2  0  0  0  0  0  0
  191.6030  177.2230  142.3730 N   0  0  0  0  0  2  0  0  0  0  0  0
  187.4320  177.5030  142.2700 C   0  0  1  0  0  3  0  0  0  0  0  0
  186.4880  178.6490  141.9420 C   0  0  0  0  0  2  0  0  0  0  0  0
  189.4800  177.4860  143.3550 C   0  0  0  0  0  0  0  0  0  0  0  0
  186.4790  178.2200  144.2820 C   0  0  2  0  0  3  0  0  0  0  0  0
  184.4320  178.1710  143.0130 O   0  0  0  0  0  0  0  0  0  0  0  0
  183.9400  178.6080  141.7820 C   0  0  0  0  0  1  0  0  0  0  0  0
  189.6640  176.6480  138.6620 C   0  0  0  0  0  2  0  0  0  0  0  0
  189.6530  177.7530  137.6250 C   0  0  0  0  0  2  0  0  0  0  0  0
  186.0500  177.2490  136.1040 C   0  0  1  0  0  3  0  0  0  0  0  0
  186.8300  175.9250  135.9220 C   0  0  1  0  0  3  0  0  0  0  0  0
  183.9560  174.9220  137.6950 O   0  0  0  0  0  0  0  0  0  0  0  0
  188.5670  177.4960  136.5970 C   0  0  1  0  0  3  0  0  0  0  0  0
  188.1610  176.0440  136.6400 C   0  0  0  0  0  2  0  0  0  0  0  0
  184.8830  175.5350  137.1020 C   0  0  0  0  0  0  0  0  0  0  0  0
  184.8700  176.9300  136.8980 N   0  0  0  0  0  2  0  0  0  0  0  0
  186.0170  174.8940  136.5580 N   0  0  0  0  0  0  0  0  0  0  0  0
  187.0810  178.4590  136.9850 S   0  0  0  0  0  0  0  0  0  0  0  0
  186.4770  173.3520  134.7910 N   0  0  0  0  0  2  0  0  0  0  0  0
  187.4580  171.2330  136.0990 S   0  0  0  0  0  0  0  0  0  0  0  0
  186.9130  172.6700  137.0580 C   0  0  0  0  0  2  0  0  0  0  0  0
  186.7150  171.9320  134.5940 C   0  0  0  0  0  2  0  0  0  0  0  0
  186.0120  173.4900  136.1600 C   0  0  1  0  0  3  0  0  0  0  0  0
  185.6610  177.7420  145.4790 C   0  0  0  0  0  2  0  0  0  0  0  0
  187.9600  178.3630  148.5330 C   0  0  0  0  0  1  0  0  0  0  0  0
  187.3960  177.8190  147.3100 N   0  0  0  0  0  2  0  0  0  0  0  0
  185.5720  179.2790  147.2950 O   0  0  0  0  0  0  0  0  0  0  0  0
  186.1890  178.3280  146.7430 C   0  0  0  0  0  0  0  0  0  0  0  0
  2  8  1  0  0  0  0
  3  2  1  6  0  0  0
  3 10  1  0  0  0  0
  3 12  1  0  0  0  0
  4 14  1  6  0  0  0
  4 13  1  0  0  0  0
  5  6  1  1  0  0  0
  5 13  1  0  0  0  0
  7  2  2  0  0  0  0
  8  9  1  0  0  0  0
  9  1  1  0  0  0  0
 10 11  1  1  0  0  0
 10  5  1  0  0  0  0
 11  4  1  0  0  0  0
 12  1  2  0  0  0  0
 12  6  1  0  0  0  0
 13 32  1  1  0  0  0
 15 14  1  0  0  0  0
 16  7  1  0  0  0  0
 17 16  1  0  0  0  0
 18 24  1  1  0  0  0
 18 26  1  0  0  0  0
 19 18  1  0  0  0  0
 19 25  1  0  0  0  0
 19 22  1  1  0  0  0
 21 22  1  0  0  0  0
 21 26  1  0  0  0  0
 21 17  1  1  0  0  0
 23 20  2  0  0  0  0
 24 23  1  0  0  0  0
 25 23  1  0  0  0  0
 27 31  1  0  0  0  0
 28 29  1  0  0  0  0
 30 27  1  0  0  0  0
 30 28  1  0  0  0  0
 31 25  1  1  0  0  0
 31 29  1  0  0  0  0
 32 36  1  0  0  0  0
 34 33  1  0  0  0  0
 36 35  2  0  0  0  0
 36 34  1  0  0  0  0
M  END
>  <MODEL>
7

>  <REMARK>
 VINA RESULT:      -7.5      3.098      5.339
  Name = 
  7 active torsions:
  status: ('A' for Active; 'I' for Inactive)
    1  A    between atoms: C_5  and  O_16
    2  A    between atoms: N_10  and  C_23
    3  A    between atoms: C_14  and  C_17
    4  A    between atoms: C_14  and  C_23
    5  A    between atoms: C_27  and  C_34
    6  A    between atoms: C_32  and  C_34
    7  A    between atoms: N_33  and  C_35
                            x       y       z     vdW  Elec       q    Type
                         _______ _______ _______ _____ _____    ______ ____

>  <TORSDO>
F 7

$$$$
=
 OpenBabel11062417103D

 36 41  0  0  1  0  0  0  0  0999 V2000
  182.0200  179.1260  143.8020 N   0  0  0  0  0  0  0  0  0  0  0  0
  184.7330  178.5410  143.9250 C   0  0  0  0  0  0  0  0  0  0  0  0
  184.1540  179.0240  142.6270 C   0  0  1  0  0  3  0  0  0  0  0  0
  184.6970  178.9270  139.1520 C   0  0  2  0  0  3  0  0  0  0  0  0
  183.1280  177.9510  140.6780 N   0  0  2  0  0  0  0  0  0  0  0  0
  182.1320  178.4650  141.5260 N   0  0  0  0  0  2  0  0  0  0  0  0
  185.8110  177.8340  143.9360 N   0  0  0  0  0  0  0  0  0  0  0  0
  184.1230  179.0970  145.1910 C   0  0  0  0  0  2  0  0  0  0  0  0
  182.6780  179.2960  145.0340 N   0  0  0  0  0  2  0  0  0  0  0  0
  184.4040  178.1200  141.4120 C   0  0  1  0  0  3  0  0  0  0  0  0
  185.4000  178.7950  140.4820 C   0  0  0  0  0  2  0  0  0  0  0  0
  182.6900  179.0000  142.6990 C   0  0  0  0  0  0  0  0  0  0  0  0
  183.2230  178.8320  139.5230 C   0  0  2  0  0  3  0  0  0  0  0  0
  185.0770  177.8560  138.3340 O   0  0  0  0  0  0  0  0  0  0  0  0
  186.0560  178.3800  137.4890 C   0  0  0  0  0  1  0  0  0  0  0  0
  186.4630  177.4190  145.1530 C   0  0  0  0  0  2  0  0  0  0  0  0
  187.9260  177.8120  145.1010 C   0  0  0  0  0  2  0  0  0  0  0  0
  190.9510  176.0970  143.2420 C   0  0  1  0  0  3  0  0  0  0  0  0
  189.7820  176.2140  142.2360 C   0  0  1  0  0  3  0  0  0  0  0  0
  192.4170  177.8790  140.5970 O   0  0  0  0  0  0  0  0  0  0  0  0
  188.7270  176.7550  144.3650 C   0  0  1  0  0  3  0  0  0  0  0  0
  188.6640  177.0120  142.8810 C   0  0  0  0  0  2  0  0  0  0  0  0
  191.6550  177.2720  141.3930 C   0  0  0  0  0  0  0  0  0  0  0  0
  192.0710  176.8290  142.6660 N   0  0  0  0  0  2  0  0  0  0  0  0
  190.3150  176.9450  141.0920 N   0  0  0  0  0  0  0  0  0  0  0  0
  190.4770  176.8410  144.8320 S   0  0  0  0  0  0  0  0  0  0  0  0
  189.6280  178.1010  139.1160 N   0  0  0  0  0  2  0  0  0  0  0  0
  190.5680  176.5350  137.1600 S   0  0  0  0  0  0  0  0  0  0  0  0
  190.8150  176.0210  138.8790 C   0  0  0  0  0  2  0  0  0  0  0  0
  189.4360  177.8540  137.6970 C   0  0  0  0  0  2  0  0  0  0  0  0
  189.8290  176.7980  139.7230 C   0  0  1  0  0  3  0  0  0  0  0  0
  182.3300  178.3350  138.3880 C   0  0  0  0  0  2  0  0  0  0  0  0
  180.5490  181.7650  138.1390 C   0  0  0  0  0  1  0  0  0  0  0  0
  181.3500  180.6490  138.6140 N   0  0  0  0  0  2  0  0  0  0  0  0
  180.9090  179.3130  136.7480 O   0  0  0  0  0  0  0  0  0  0  0  0
  181.4850  179.4440  137.8610 C   0  0  0  0  0  0  0  0  0  0  0  0
  1  9  1  0  0  0  0
  2  7  2  0  0  0  0
  2  8  1  0  0  0  0
  3 12  1  1  0  0  0
  3  2  1  0  0  0  0
  4 14  1  6  0  0  0
  4 13  1  0  0  0  0
  4 11  1  0  0  0  0
  5 10  1  0  0  0  0
  5  6  1  1  0  0  0
  6 12  1  0  0  0  0
  7 16  1  0  0  0  0
  9  8  1  0  0  0  0
 10 11  1  6  0  0  0
 10  3  1  0  0  0  0
 12  1  2  0  0  0  0
 13 32  1  6  0  0  0
 13  5  1  0  0  0  0
 15 14  1  0  0  0  0
 17 16  1  0  0  0  0
 18 24  1  6  0  0  0
 18 26  1  0  0  0  0
 19 22  1  1  0  0  0
 19 18  1  0  0  0  0
 20 23  2  0  0  0  0
 21 26  1  0  0  0  0
 21 17  1  1  0  0  0
 22 21  1  0  0  0  0
 23 24  1  0  0  0  0
 25 23  1  0  0  0  0
 25 19  1  0  0  0  0
 27 31  1  0  0  0  0
 28 30  1  0  0  0  0
 28 29  1  0  0  0  0
 30 27  1  0  0  0  0
 31 29  1  6  0  0  0
 31 25  1  0  0  0  0
 33 34  1  0  0  0  0
 35 36  2  0  0  0  0
 36 32  1  0  0  0  0
 36 34  1  0  0  0  0
M  END
>  <MODEL>
8

>  <REMARK>
 VINA RESULT:      -7.4      3.009      7.919
  Name = 
  7 active torsions:
  status: ('A' for Active; 'I' for Inactive)
    1  A    between atoms: C_5  and  O_16
    2  A    between atoms: N_10  and  C_23
    3  A    between atoms: C_14  and  C_17
    4  A    between atoms: C_14  and  C_23
    5  A    between atoms: C_27  and  C_34
    6  A    between atoms: C_32  and  C_34
    7  A    between atoms: N_33  and  C_35
                            x       y       z     vdW  Elec       q    Type
                         _______ _______ _______ _____ _____    ______ ____

>  <TORSDO>
F 7

$$$$
=
 OpenBabel11062417103D

 36 41  0  0  1  0  0  0  0  0999 V2000
  180.1400  177.8890  141.5690 N   0  0  0  0  0  0  0  0  0  0  0  0
  182.4460  178.7090  142.8820 C   0  0  0  0  0  0  0  0  0  0  0  0
  182.4190  178.7330  141.3810 C   0  0  1  0  0  3  0  0  0  0  0  0
  184.5390  178.6070  138.5750 C   0  0  2  0  0  3  0  0  0  0  0  0
  182.9590  177.1310  139.6090 N   0  0  2  0  0  0  0  0  0  0  0  0
  181.5700  177.1680  139.8180 N   0  0  0  0  0  2  0  0  0  0  0  0
  183.5670  178.6180  143.5130 N   0  0  0  0  0  0  0  0  0  0  0  0
  181.1460  179.0080  143.5920 C   0  0  0  0  0  2  0  0  0  0  0  0
  180.0050  178.4650  142.8460 N   0  0  0  0  0  2  0  0  0  0  0  0
  183.5490  177.9620  140.6850 C   0  0  1  0  0  3  0  0  0  0  0  0
  184.5110  178.9510  140.0460 C   0  0  0  0  0  2  0  0  0  0  0  0
  181.2410  178.0080  140.8960 C   0  0  0  0  0  0  0  0  0  0  0  0
  183.2390  177.8400  138.3700 C   0  0  2  0  0  3  0  0  0  0  0  0
  185.6470  177.7880  138.3260 O   0  0  0  0  0  0  0  0  0  0  0  0
  186.3800  178.4640  137.3510 C   0  0  0  0  0  1  0  0  0  0  0  0
  183.6630  178.6820  144.9500 C   0  0  0  0  0  2  0  0  0  0  0  0
  185.0550  179.1380  145.3430 C   0  0  0  0  0  2  0  0  0  0  0  0
  188.4370  177.1200  145.5310 C   0  0  1  0  0  3  0  0  0  0  0  0
  188.1430  177.4140  144.0410 C   0  0  1  0  0  3  0  0  0  0  0  0
  191.3520  178.7890  144.5090 O   0  0  0  0  0  0  0  0  0  0  0  0
  186.0520  178.0130  145.1400 C   0  0  1  0  0  3  0  0  0  0  0  0
  186.9320  178.3240  143.9550 C   0  0  0  0  0  2  0  0  0  0  0  0
  190.2160  178.2570  144.6160 C   0  0  0  0  0  0  0  0  0  0  0  0
  189.7290  177.7250  145.8280 N   0  0  0  0  0  2  0  0  0  0  0  0
  189.3210  178.1090  143.5340 N   0  0  0  0  0  0  0  0  0  0  0  0
  187.1490  177.8660  146.5750 S   0  0  0  0  0  0  0  0  0  0  0  0
  190.3950  176.7910  141.8550 N   0  0  0  0  0  2  0  0  0  0  0  0
  189.0450  177.4430  139.6390 S   0  0  0  0  0  0  0  0  0  0  0  0
  188.6010  178.2540  141.1970 C   0  0  0  0  0  2  0  0  0  0  0  0
  190.5310  176.7330  140.4100 C   0  0  0  0  0  2  0  0  0  0  0  0
  189.7660  178.0670  142.1440 C   0  0  1  0  0  3  0  0  0  0  0  0
  183.2710  176.8750  137.1870 C   0  0  0  0  0  2  0  0  0  0  0  0
  180.9720  179.1100  135.0150 C   0  0  0  0  0  1  0  0  0  0  0  0
  181.6090  178.4660  136.1510 N   0  0  0  0  0  2  0  0  0  0  0  0
  183.0360  177.1650  134.8360 O   0  0  0  0  0  0  0  0  0  0  0  0
  182.6410  177.4940  135.9870 C   0  0  0  0  0  0  0  0  0  0  0  0
  1  9  1  0  0  0  0
  2  7  2  0  0  0  0
  2  8  1  0  0  0  0
  3 12  1  6  0  0  0
  3  2  1  0  0  0  0
  4 14  1  1  0  0  0
  4 11  1  0  0  0  0
  5  6  1  1  0  0  0
  5 10  1  0  0  0  0
  6 12  1  0  0  0  0
  7 16  1  0  0  0  0
  9  8  1  0  0  0  0
 10 11  1  6  0  0  0
 10  3  1  0  0  0  0
 12  1  2  0  0  0  0
 13 32  1  6  0  0  0
 13  4  1  0  0  0  0
 13  5  1  0  0  0  0
 15 14  1  0  0  0  0
 16 17  1  0  0  0  0
 18 24  1  1  0  0  0
 18 26  1  0  0  0  0
 19 22  1  1  0  0  0
 19 18  1  0  0  0  0
 20 23  2  0  0  0  0
 21 17  1  1  0  0  0
 21 26  1  0  0  0  0
 22 21  1  0  0  0  0
 23 24  1  0  0  0  0
 25 19  1  0  0  0  0
 25 23  1  0  0  0  0
 27 31  1  0  0  0  0
 28 30  1  0  0  0  0
 28 29  1  0  0  0  0
 30 27  1  0  0  0  0
 31 29  1  6  0  0  0
 31 25  1  0  0  0  0
 33 34  1  0  0  0  0
 35 36  2  0  0  0  0
 36 34  1  0  0  0  0
 36 32  1  0  0  0  0
M  END
>  <MODEL>
9

>  <REMARK>
 VINA RESULT:      -7.4      2.728      8.528
  Name = 
  7 active torsions:
  status: ('A' for Active; 'I' for Inactive)
    1  A    between atoms: C_5  and  O_16
    2  A    between atoms: N_10  and  C_23
    3  A    between atoms: C_14  and  C_17
    4  A    between atoms: C_14  and  C_23
    5  A    between atoms: C_27  and  C_34
    6  A    between atoms: C_32  and  C_34
    7  A    between atoms: N_33  and  C_35
                            x       y       z     vdW  Elec       q    Type
                         _______ _______ _______ _____ _____    ______ ____

>  <TORSDO>
F 7

$$$$
