=
 OpenBabel11062415113D

 55 63  0  0  1  0  0  0  0  0999 V2000
  189.9400  176.7810  144.1860 C   0  0  0  0  0  0  0  0  0  0  0  0
  185.9900  178.1720  143.5460 C   0  0  0  0  0  0  0  0  0  0  0  0
  187.8580  177.7100  145.0420 C   0  0  0  0  0  0  0  0  0  0  0  0
  188.6210  177.2210  143.9630 C   0  0  0  0  0  0  0  0  0  0  0  0
  186.7530  177.6760  142.4780 C   0  0  0  0  0  3  0  0  0  0  0  0
  191.7850  176.3930  145.7650 N   0  0  0  0  0  1  0  0  0  0  0  0
  188.4140  177.7240  146.3190 C   0  0  0  0  0  3  0  0  0  0  0  0
  190.4540  176.8270  145.4920 C   0  0  0  0  0  0  0  0  0  0  0  0
  189.6830  177.2840  146.5150 N   0  0  0  0  0  0  0  0  0  0  0  0
  188.0520  177.2030  142.6830 C   0  0  0  0  0  3  0  0  0  0  0  0
  186.5640  178.1950  144.8280 C   0  0  0  0  0  3  0  0  0  0  0  0
  184.6190  180.1350  143.6720 O   0  0  0  0  0  1  0  0  0  0  0  0
  184.6200  178.7850  143.2770 C   0  0  1  0  0  0  0  0  0  0  0  0
  181.1550  180.3060  137.5950 S   0  0  0  0  0  0  0  0  0  0  0  0
  180.1370  179.2880  138.7420 C   0  0  0  0  0  2  0  0  0  0  0  0
  183.3340  177.8670  141.2330 C   0  0  0  0  0  3  0  0  0  0  0  0
  182.5860  179.5250  138.2980 C   0  0  0  0  0  0  0  0  0  0  0  0
  182.3260  178.3520  138.9700 C   0  0  0  0  0  0  0  0  0  0  0  0
  184.0890  179.3640  139.7830 N   0  0  0  0  0  0  0  0  0  0  0  0
  183.3090  178.3170  139.9320 C   0  0  0  0  0  0  0  0  0  0  0  0
  184.6710  179.6970  140.9150 N   0  0  0  0  0  2  0  0  0  0  0  0
  184.2820  178.7390  141.8040 C   0  0  0  0  0  0  0  0  0  0  0  0
  183.6280  180.1900  138.8590 N   0  0  0  0  0  0  0  0  0  0  0  0
  180.8940  178.0000  139.1000 C   0  0  0  0  0  2  0  0  0  0  0  0
  183.6050  178.0690  143.9630 O   0  0  0  0  0  0  0  0  0  0  0  0
  182.7110  178.9670  144.5750 C   0  0  0  0  0  2  0  0  0  0  0  0
  180.5050  178.0780  144.1320 C   0  0  0  0  0  0  0  0  0  0  0  0
  181.4100  178.9720  143.8470 C   0  0  0  0  0  0  0  0  0  0  0  0
  179.6420  177.2310  144.4100 O   0  0  0  0  0  0  0  0  0  0  0  0
  181.1200  179.9940  142.9010 N   0  0  0  0  0  1  0  0  0  0  0  0
  190.8090  176.3370  143.0450 C   0  0  0  0  0  2  0  0  0  0  0  0
  190.9660  177.4780  142.0470 C   0  0  0  0  0  2  0  0  0  0  0  0
  191.2940  176.9970  140.6300 C   0  0  1  0  0  3  0  0  0  0  0  0
  190.3830  177.6080  139.5520 C   0  0  2  0  0  3  0  0  0  0  0  0
  189.1880  178.0490  140.1090 F   0  0  0  0  0  0  0  0  0  0  0  0
  187.3780  175.4950  134.8480 O   0  0  0  0  0  0  0  0  0  0  0  0
  191.0930  175.4420  138.2870 C   0  0  0  0  0  2  0  0  0  0  0  0
  188.7680  175.2640  134.6350 C   0  0  0  0  0  2  0  0  0  0  0  0
  189.5250  175.2970  135.9590 C   0  0  2  0  0  3  0  0  0  0  0  0
  191.1710  176.6050  137.2870 C   0  0  1  0  0  3  0  0  0  0  0  0
  188.6970  176.3490  137.9960 C   0  0  0  0  0  3  0  0  0  0  0  0
  188.4660  175.7230  136.8480 C   0  0  0  0  0  0  0  0  0  0  0  0
  190.6030  176.2950  135.9470 N   0  0  0  0  0  2  0  0  0  0  0  0
  187.2280  175.6580  136.1920 N   0  0  0  0  0  0  0  0  0  0  0  0
  190.1220  176.6120  138.4130 C   0  0  2  0  0  0  0  0  0  0  0  0
  186.0460  175.1720  136.9010 C   0  0  1  0  0  3  0  0  0  0  0  0
  183.5340  174.1680  137.6040 C   0  0  1  0  0  3  0  0  0  0  0  0
  186.5160  173.0060  137.8150 O   0  0  0  0  0  1  0  0  0  0  0  0
  184.8980  175.8520  136.4570 O   0  0  0  0  0  0  0  0  0  0  0  0
  182.0710  173.9780  137.2570 C   0  0  0  0  0  1  0  0  0  0  0  0
  184.3940  173.2560  136.7230 C   0  0  0  0  0  2  0  0  0  0  0  0
  183.9190  175.6520  137.4530 C   0  0  0  0  0  2  0  0  0  0  0  0
  185.8740  173.6520  136.7570 C   0  0  1  0  0  3  0  0  0  0  0  0
  193.8330  177.4120  140.0780 N   0  0  0  0  0  0  0  0  0  0  0  0
  192.7160  177.2290  140.3230 C   0  0  0  0  0  0  0  0  0  0  0  0
  1  8  1  0  0  0  0
  2 11  2  0  0  0  0
  3  7  2  0  0  0  0
  4  1  2  0  0  0  0
  4  3  1  0  0  0  0
  5 10  2  0  0  0  0
  5  2  1  0  0  0  0
  7  9  1  0  0  0  0
  8  6  1  0  0  0  0
  8  9  2  0  0  0  0
 10  4  1  0  0  0  0
 11  3  1  0  0  0  0
 13  2  1  0  0  0  0
 13 12  1  1  0  0  0
 13 25  1  0  0  0  0
 14 17  1  0  0  0  0
 14 15  1  0  0  0  0
 15 24  1  0  0  0  0
 16 22  2  0  0  0  0
 17 23  2  0  0  0  0
 17 18  1  0  0  0  0
 18 24  1  0  0  0  0
 18 20  2  0  0  0  0
 19 20  1  0  0  0  0
 19 21  1  0  0  0  0
 20 16  1  0  0  0  0
 21 22  1  0  0  0  0
 22 13  1  0  0  0  0
 23 19  1  0  0  0  0
 25 26  1  0  0  0  0
 27 29  2  0  0  0  0
 28 27  2  0  0  0  0
 28 26  1  0  0  0  0
 30 28  1  0  0  0  0
 31  1  1  0  0  0  0
 32 31  1  0  0  0  0
 33 55  1  6  0  0  0
 33 32  1  0  0  0  0
 34 35  1  1  0  0  0
 34 33  1  0  0  0  0
 36 44  1  0  0  0  0
 37 45  1  0  0  0  0
 38 36  1  0  0  0  0
 39 38  1  6  0  0  0
 39 42  1  0  0  0  0
 40 37  1  1  0  0  0
 40 45  1  0  0  0  0
 41 45  1  0  0  0  0
 42 41  2  0  0  0  0
 43 39  1  0  0  0  0
 43 40  1  0  0  0  0
 44 42  1  0  0  0  0
 45 34  1  1  0  0  0
 46 44  1  6  0  0  0
 47 50  1  6  0  0  0
 49 46  1  0  0  0  0
 49 52  1  0  0  0  0
 51 53  1  0  0  0  0
 51 47  1  0  0  0  0
 52 47  1  0  0  0  0
 53 46  1  0  0  0  0
 53 48  1  1  0  0  0
 54 55  3  0  0  0  0
M  END
>  <MODEL>
1

>  <REMARK>
 VINA RESULT:      -9.4      0.000      0.000
  Name = 
  12 active torsions:
  status: ('A' for Active; 'I' for Inactive)
    1  A    between atoms: C_3  and  C_29
    2  A    between atoms: C_3  and  C_39
    3  A    between atoms: C_5  and  C_39
    4  A    between atoms: C_5  and  C_48
    5  A    between atoms: C_9  and  N_44
    6  A    between atoms: C_10  and  C_49
    7  A    between atoms: C_11  and  C_29
    8  A    between atoms: C_16  and  O_21
    9  A    between atoms: C_16  and  C_24
   10  A    between atoms: C_16  and  C_45
   11  A    between atoms: O_21  and  C_49
   12  A    between atoms: C_39  and  C_53
                            x       y       z     vdW  Elec       q    Type
                         _______ _______ _______ _____ _____    ______ ____

>  <TORSDO>
F 12

$$$$
=
 OpenBabel11062415113D

 55 63  0  0  1  0  0  0  0  0999 V2000
  190.1970  178.2430  142.7870 C   0  0  0  0  0  0  0  0  0  0  0  0
  188.8140  177.3490  138.8840 C   0  0  0  0  0  0  0  0  0  0  0  0
  190.6050  177.4060  140.5370 C   0  0  0  0  0  0  0  0  0  0  0  0
  189.7300  177.9710  141.4870 C   0  0  0  0  0  0  0  0  0  0  0  0
  187.9520  177.9180  139.8330 C   0  0  0  0  0  3  0  0  0  0  0  0
  192.0540  178.2180  144.3990 N   0  0  0  0  0  1  0  0  0  0  0  0
  191.9280  177.1540  140.8930 C   0  0  0  0  0  3  0  0  0  0  0  0
  191.5370  177.9600  143.0950 C   0  0  0  0  0  0  0  0  0  0  0  0
  192.3620  177.4360  142.1480 N   0  0  0  0  0  0  0  0  0  0  0  0
  188.4030  178.2290  141.1180 C   0  0  0  0  0  3  0  0  0  0  0  0
  190.1430  177.0850  139.2570 C   0  0  0  0  0  3  0  0  0  0  0  0
  188.0770  178.0460  136.7120 O   0  0  0  0  0  1  0  0  0  0  0  0
  188.2680  176.9170  137.5270 C   0  0  1  0  0  0  0  0  0  0  0  0
  194.2800  173.9630  136.2140 S   0  0  0  0  0  0  0  0  0  0  0  0
  194.3040  175.7490  135.7650 C   0  0  0  0  0  2  0  0  0  0  0  0
  190.0570  176.3860  135.7410 C   0  0  0  0  0  3  0  0  0  0  0  0
  192.5350  173.9860  135.8920 C   0  0  0  0  0  0  0  0  0  0  0  0
  192.1070  175.0490  135.1270 C   0  0  0  0  0  0  0  0  0  0  0  0
  190.5300  174.3490  136.4740 N   0  0  0  0  0  0  0  0  0  0  0  0
  190.8210  175.2530  135.5670 C   0  0  0  0  0  0  0  0  0  0  0  0
  189.5990  174.7750  137.3000 N   0  0  0  0  0  2  0  0  0  0  0  0
  189.2360  175.9970  136.8180 C   0  0  0  0  0  0  0  0  0  0  0  0
  191.5830  173.6100  136.7830 N   0  0  0  0  0  0  0  0  0  0  0  0
  193.1440  176.0550  134.8040 C   0  0  0  0  0  2  0  0  0  0  0  0
  187.0490  176.2070  137.6790 O   0  0  0  0  0  0  0  0  0  0  0  0
  186.4390  176.0190  136.4250 C   0  0  0  0  0  2  0  0  0  0  0  0
  186.1950  173.6850  137.0130 C   0  0  0  0  0  0  0  0  0  0  0  0
  185.6990  174.7250  136.4040 C   0  0  0  0  0  0  0  0  0  0  0  0
  186.6650  172.6980  137.6000 O   0  0  0  0  0  0  0  0  0  0  0  0
  184.4180  174.6400  135.7900 N   0  0  0  0  0  1  0  0  0  0  0  0
  189.2700  178.7620  143.8470 C   0  0  0  0  0  2  0  0  0  0  0  0
  189.0880  177.7050  144.9310 C   0  0  0  0  0  2  0  0  0  0  0  0
  187.7940  177.8800  145.7310 C   0  0  1  0  0  3  0  0  0  0  0  0
  186.5940  177.1360  145.1200 C   0  0  2  0  0  3  0  0  0  0  0  0
  187.0070  176.2910  144.0960 F   0  0  0  0  0  0  0  0  0  0  0  0
  181.5870  178.6090  142.2250 O   0  0  0  0  0  0  0  0  0  0  0  0
  185.7160  179.5870  144.9870 C   0  0  0  0  0  2  0  0  0  0  0  0
  181.6920  179.4270  143.3870 C   0  0  0  0  0  2  0  0  0  0  0  0
  183.1360  179.4780  143.8780 C   0  0  2  0  0  3  0  0  0  0  0  0
  184.6490  178.7540  145.7140 C   0  0  1  0  0  3  0  0  0  0  0  0
  184.8470  177.8380  143.3040 C   0  0  0  0  0  3  0  0  0  0  0  0
  183.7390  178.5040  142.9940 C   0  0  0  0  0  0  0  0  0  0  0  0
  183.2560  179.0330  145.2720 N   0  0  0  0  0  2  0  0  0  0  0  0
  182.8490  178.1660  141.9640 N   0  0  0  0  0  0  0  0  0  0  0  0
  185.5250  178.1180  144.6200 C   0  0  2  0  0  0  0  0  0  0  0  0
  183.3380  177.9890  140.5990 C   0  0  1  0  0  3  0  0  0  0  0  0
  183.6220  177.8580  137.8210 C   0  0  1  0  0  3  0  0  0  0  0  0
  184.8820  179.7490  140.0840 O   0  0  0  0  0  1  0  0  0  0  0  0
  182.4540  177.1770  139.8670 O   0  0  0  0  0  0  0  0  0  0  0  0
  182.9790  177.6870  136.4600 C   0  0  0  0  0  1  0  0  0  0  0  0
  183.2620  179.2340  138.3910 C   0  0  0  0  0  2  0  0  0  0  0  0
  183.1860  176.7120  138.7540 C   0  0  0  0  0  2  0  0  0  0  0  0
  183.5630  179.3340  139.8900 C   0  0  1  0  0  3  0  0  0  0  0  0
  188.1650  177.1980  148.2450 N   0  0  0  0  0  0  0  0  0  0  0  0
  188.0020  177.4960  147.1370 C   0  0  0  0  0  0  0  0  0  0  0  0
  1  8  1  0  0  0  0
  1 31  1  0  0  0  0
  2 11  2  0  0  0  0
  2  5  1  0  0  0  0
  3  7  2  0  0  0  0
  3  4  1  0  0  0  0
  4  1  2  0  0  0  0
  5 10  2  0  0  0  0
  7  9  1  0  0  0  0
  8  6  1  0  0  0  0
  9  8  2  0  0  0  0
 10  4  1  0  0  0  0
 11  3  1  0  0  0  0
 13 12  1  6  0  0  0
 13 25  1  0  0  0  0
 13  2  1  0  0  0  0
 15 14  1  0  0  0  0
 16 22  2  0  0  0  0
 17 14  1  0  0  0  0
 17 23  2  0  0  0  0
 18 20  2  0  0  0  0
 18 17  1  0  0  0  0
 19 23  1  0  0  0  0
 19 21  1  0  0  0  0
 20 16  1  0  0  0  0
 20 19  1  0  0  0  0
 22 21  1  0  0  0  0
 22 13  1  0  0  0  0
 24 18  1  0  0  0  0
 24 15  1  0  0  0  0
 26 25  1  0  0  0  0
 27 29  2  0  0  0  0
 28 26  1  0  0  0  0
 28 27  2  0  0  0  0
 30 28  1  0  0  0  0
 31 32  1  0  0  0  0
 33 32  1  6  0  0  0
 33 55  1  0  0  0  0
 34 35  1  6  0  0  0
 34 33  1  0  0  0  0
 36 38  1  0  0  0  0
 39 38  1  6  0  0  0
 39 43  1  0  0  0  0
 40 37  1  6  0  0  0
 41 45  1  0  0  0  0
 42 41  2  0  0  0  0
 42 39  1  0  0  0  0
 43 40  1  0  0  0  0
 44 36  1  0  0  0  0
 44 42  1  0  0  0  0
 45 37  1  0  0  0  0
 45 34  1  1  0  0  0
 45 40  1  0  0  0  0
 46 44  1  1  0  0  0
 47 50  1  6  0  0  0
 47 51  1  0  0  0  0
 47 52  1  0  0  0  0
 49 46  1  0  0  0  0
 51 53  1  0  0  0  0
 52 49  1  0  0  0  0
 53 48  1  6  0  0  0
 53 46  1  0  0  0  0
 55 54  3  0  0  0  0
M  END
>  <MODEL>
2

>  <REMARK>
 VINA RESULT:      -9.3      2.878      8.175
  Name = 
  12 active torsions:
  status: ('A' for Active; 'I' for Inactive)
    1  A    between atoms: C_3  and  C_29
    2  A    between atoms: C_3  and  C_39
    3  A    between atoms: C_5  and  C_39
    4  A    between atoms: C_5  and  C_48
    5  A    between atoms: C_9  and  N_44
    6  A    between atoms: C_10  and  C_49
    7  A    between atoms: C_11  and  C_29
    8  A    between atoms: C_16  and  O_21
    9  A    between atoms: C_16  and  C_24
   10  A    between atoms: C_16  and  C_45
   11  A    between atoms: O_21  and  C_49
   12  A    between atoms: C_39  and  C_53
                            x       y       z     vdW  Elec       q    Type
                         _______ _______ _______ _____ _____    ______ ____

>  <TORSDO>
F 12

$$$$
=
 OpenBabel11062415113D

 55 63  0  0  1  0  0  0  0  0999 V2000
  186.8350  177.9030  144.6060 C   0  0  0  0  0  0  0  0  0  0  0  0
  183.8130  178.5470  141.7070 C   0  0  0  0  0  0  0  0  0  0  0  0
  184.5410  178.4860  144.0340 C   0  0  0  0  0  0  0  0  0  0  0  0
  185.8350  178.0930  143.6340 C   0  0  0  0  0  0  0  0  0  0  0  0
  185.1010  178.1480  141.3190 C   0  0  0  0  0  3  0  0  0  0  0  0
  187.4880  177.9140  146.9770 N   0  0  0  0  0  1  0  0  0  0  0  0
  184.2670  178.6520  145.3880 C   0  0  0  0  0  3  0  0  0  0  0  0
  186.5070  178.0940  145.9580 C   0  0  0  0  0  0  0  0  0  0  0  0
  185.2430  178.4510  146.3110 N   0  0  0  0  0  0  0  0  0  0  0  0
  186.1000  177.9200  142.2690 C   0  0  0  0  0  3  0  0  0  0  0  0
  183.5500  178.7250  143.0760 C   0  0  0  0  0  3  0  0  0  0  0  0
  183.0890  180.1410  140.0700 O   0  0  0  0  0  1  0  0  0  0  0  0
  182.7760  178.8970  140.6450 C   0  0  1  0  0  0  0  0  0  0  0  0
  185.4190  174.3590  136.2840 S   0  0  0  0  0  0  0  0  0  0  0  0
  185.9480  176.0710  135.8640 C   0  0  0  0  0  2  0  0  0  0  0  0
  182.9970  178.1640  138.1790 C   0  0  0  0  0  3  0  0  0  0  0  0
  183.9470  175.0680  136.9790 C   0  0  0  0  0  0  0  0  0  0  0  0
  183.6760  176.3510  136.5590 C   0  0  0  0  0  0  0  0  0  0  0  0
  182.8820  175.9840  138.5650 N   0  0  0  0  0  0  0  0  0  0  0  0
  183.0140  176.8990  137.6320 C   0  0  0  0  0  0  0  0  0  0  0  0
  182.7760  176.5250  139.7600 N   0  0  0  0  0  2  0  0  0  0  0  0
  182.7640  177.8700  139.5370 C   0  0  0  0  0  0  0  0  0  0  0  0
  183.5270  174.8720  138.2550 N   0  0  0  0  0  0  0  0  0  0  0  0
  184.7110  176.9680  135.6980 C   0  0  0  0  0  2  0  0  0  0  0  0
  181.4730  178.9250  141.2060 O   0  0  0  0  0  0  0  0  0  0  0  0
  180.6660  179.8410  140.5060 C   0  0  0  0  0  2  0  0  0  0  0  0
  179.3460  179.7970  142.5320 C   0  0  0  0  0  0  0  0  0  0  0  0
  179.6220  180.4010  141.4110 C   0  0  0  0  0  0  0  0  0  0  0  0
  179.0890  179.2240  143.6030 O   0  0  0  0  0  0  0  0  0  0  0  0
  178.9840  181.6330  141.0960 N   0  0  0  0  0  1  0  0  0  0  0  0
  188.2440  177.5710  144.2090 C   0  0  0  0  0  2  0  0  0  0  0  0
  188.2310  176.5130  143.1120 C   0  0  0  0  0  2  0  0  0  0  0  0
  189.5540  176.4250  142.3450 C   0  0  1  0  0  3  0  0  0  0  0  0
  189.8670  177.6850  141.5210 C   0  0  2  0  0  3  0  0  0  0  0  0
  188.9510  178.6940  141.7960 F   0  0  0  0  0  0  0  0  0  0  0  0
  190.8890  174.2050  136.7810 O   0  0  0  0  0  0  0  0  0  0  0  0
  189.4600  178.4880  139.0740 C   0  0  0  0  0  2  0  0  0  0  0  0
  189.7360  175.0010  136.5150 C   0  0  0  0  0  2  0  0  0  0  0  0
  189.7170  176.2320  137.4150 C   0  0  2  0  0  3  0  0  0  0  0  0
  188.5300  177.2920  139.3270 C   0  0  1  0  0  3  0  0  0  0  0  0
  190.9640  176.4370  139.5000 C   0  0  0  0  0  3  0  0  0  0  0  0
  190.8420  175.9370  138.2750 C   0  0  0  0  0  0  0  0  0  0  0  0
  188.4840  176.3100  138.2100 N   0  0  0  0  0  2  0  0  0  0  0  0
  191.5730  174.8550  137.7630 N   0  0  0  0  0  0  0  0  0  0  0  0
  189.9020  177.3730  140.0180 C   0  0  2  0  0  0  0  0  0  0  0  0
  193.0340  174.8700  137.8050 C   0  0  1  0  0  3  0  0  0  0  0  0
  195.7600  174.5050  137.3040 C   0  0  1  0  0  3  0  0  0  0  0  0
  193.8130  177.0520  137.1880 O   0  0  0  0  0  1  0  0  0  0  0  0
  193.5360  173.5590  137.7240 O   0  0  0  0  0  0  0  0  0  0  0  0
  196.8640  173.6670  136.6940 C   0  0  0  0  0  1  0  0  0  0  0  0
  194.9640  175.1970  136.1920 C   0  0  0  0  0  2  0  0  0  0  0  0
  194.8650  173.6240  138.1960 C   0  0  0  0  0  2  0  0  0  0  0  0
  193.6310  175.7560  136.7000 C   0  0  1  0  0  3  0  0  0  0  0  0
  191.5320  175.8430  143.9800 N   0  0  0  0  0  0  0  0  0  0  0  0
  190.6600  176.0970  143.2620 C   0  0  0  0  0  0  0  0  0  0  0  0
  1  8  1  0  0  0  0
  2 11  2  0  0  0  0
  3  7  2  0  0  0  0
  4  3  1  0  0  0  0
  4  1  2  0  0  0  0
  5  2  1  0  0  0  0
  5 10  2  0  0  0  0
  7  9  1  0  0  0  0
  8  9  2  0  0  0  0
  8  6  1  0  0  0  0
 10  4  1  0  0  0  0
 11  3  1  0  0  0  0
 13 12  1  6  0  0  0
 13 25  1  0  0  0  0
 13  2  1  0  0  0  0
 14 17  1  0  0  0  0
 15 14  1  0  0  0  0
 16 22  2  0  0  0  0
 17 23  2  0  0  0  0
 18 17  1  0  0  0  0
 18 20  2  0  0  0  0
 19 21  1  0  0  0  0
 20 16  1  0  0  0  0
 20 19  1  0  0  0  0
 22 21  1  0  0  0  0
 22 13  1  0  0  0  0
 23 19  1  0  0  0  0
 24 15  1  0  0  0  0
 24 18  1  0  0  0  0
 26 25  1  0  0  0  0
 26 28  1  0  0  0  0
 27 29  2  0  0  0  0
 28 27  2  0  0  0  0
 30 28  1  0  0  0  0
 31  1  1  0  0  0  0
 32 31  1  0  0  0  0
 33 32  1  1  0  0  0
 33 55  1  0  0  0  0
 34 35  1  6  0  0  0
 34 33  1  0  0  0  0
 36 44  1  0  0  0  0
 37 45  1  0  0  0  0
 38 36  1  0  0  0  0
 39 38  1  6  0  0  0
 39 43  1  0  0  0  0
 39 42  1  0  0  0  0
 40 37  1  6  0  0  0
 40 45  1  0  0  0  0
 41 45  1  0  0  0  0
 42 41  2  0  0  0  0
 43 40  1  0  0  0  0
 44 42  1  0  0  0  0
 45 34  1  1  0  0  0
 46 44  1  6  0  0  0
 47 50  1  6  0  0  0
 47 52  1  0  0  0  0
 49 46  1  0  0  0  0
 49 52  1  0  0  0  0
 51 53  1  0  0  0  0
 51 47  1  0  0  0  0
 53 48  1  1  0  0  0
 53 46  1  0  0  0  0
 55 54  3  0  0  0  0
M  END
>  <MODEL>
3

>  <REMARK>
 VINA RESULT:      -9.1      2.920      5.279
  Name = 
  12 active torsions:
  status: ('A' for Active; 'I' for Inactive)
    1  A    between atoms: C_3  and  C_29
    2  A    between atoms: C_3  and  C_39
    3  A    between atoms: C_5  and  C_39
    4  A    between atoms: C_5  and  C_48
    5  A    between atoms: C_9  and  N_44
    6  A    between atoms: C_10  and  C_49
    7  A    between atoms: C_11  and  C_29
    8  A    between atoms: C_16  and  O_21
    9  A    between atoms: C_16  and  C_24
   10  A    between atoms: C_16  and  C_45
   11  A    between atoms: O_21  and  C_49
   12  A    between atoms: C_39  and  C_53
                            x       y       z     vdW  Elec       q    Type
                         _______ _______ _______ _____ _____    ______ ____

>  <TORSDO>
F 12

$$$$
=
 OpenBabel11062415113D

 55 63  0  0  1  0  0  0  0  0999 V2000
  184.7520  178.6690  143.2450 C   0  0  0  0  0  0  0  0  0  0  0  0
  188.7060  177.2820  142.6180 C   0  0  0  0  0  0  0  0  0  0  0  0
  186.8240  177.7220  144.1050 C   0  0  0  0  0  0  0  0  0  0  0  0
  186.0720  178.2310  143.0270 C   0  0  0  0  0  0  0  0  0  0  0  0
  187.9530  177.7980  141.5520 C   0  0  0  0  0  3  0  0  0  0  0  0
  182.8930  179.0330  144.8130 N   0  0  0  0  0  1  0  0  0  0  0  0
  186.2560  177.6870  145.3760 C   0  0  0  0  0  3  0  0  0  0  0  0
  184.2260  178.6020  144.5450 C   0  0  0  0  0  0  0  0  0  0  0  0
  184.9860  178.1260  145.5680 N   0  0  0  0  0  0  0  0  0  0  0  0
  186.6540  178.2700  141.7520 C   0  0  0  0  0  3  0  0  0  0  0  0
  188.1190  177.2390  143.8940 C   0  0  0  0  0  3  0  0  0  0  0  0
  190.0910  175.3330  142.7800 O   0  0  0  0  0  1  0  0  0  0  0  0
  190.0770  176.6710  142.3510 C   0  0  1  0  0  0  0  0  0  0  0  0
  192.6990  174.3390  136.4960 S   0  0  0  0  0  0  0  0  0  0  0  0
  194.0290  174.8310  137.6700 C   0  0  0  0  0  2  0  0  0  0  0  0
  191.6020  177.1760  140.3280 C   0  0  0  0  0  3  0  0  0  0  0  0
  191.6640  175.5480  137.2830 C   0  0  0  0  0  0  0  0  0  0  0  0
  192.3460  176.4960  138.0130 C   0  0  0  0  0  0  0  0  0  0  0  0
  190.3370  176.1600  138.8170 N   0  0  0  0  0  0  0  0  0  0  0  0
  191.4510  176.8310  139.0020 C   0  0  0  0  0  0  0  0  0  0  0  0
  189.6790  175.9960  139.9440 N   0  0  0  0  0  2  0  0  0  0  0  0
  190.4000  176.6830  140.8750 C   0  0  0  0  0  0  0  0  0  0  0  0
  190.4530  175.2820  137.8340 N   0  0  0  0  0  0  0  0  0  0  0  0
  193.8070  176.2830  138.1230 C   0  0  0  0  0  2  0  0  0  0  0  0
  191.0930  177.4110  143.0090 O   0  0  0  0  0  0  0  0  0  0  0  0
  191.7350  176.6040  143.9670 C   0  0  0  0  0  2  0  0  0  0  0  0
  191.7990  176.3950  146.3760 C   0  0  0  0  0  0  0  0  0  0  0  0
  191.4200  177.0900  145.3410 C   0  0  0  0  0  0  0  0  0  0  0  0
  192.1670  175.7350  147.3610 O   0  0  0  0  0  0  0  0  0  0  0  0
  190.7800  178.3470  145.5290 N   0  0  0  0  0  1  0  0  0  0  0  0
  183.8940  179.1340  142.1040 C   0  0  0  0  0  2  0  0  0  0  0  0
  183.5830  177.9590  141.1850 C   0  0  0  0  0  2  0  0  0  0  0  0
  182.3290  178.1780  140.3330 C   0  0  1  0  0  3  0  0  0  0  0  0
  181.6850  176.8670  139.8480 C   0  0  2  0  0  3  0  0  0  0  0  0
  182.2630  175.7710  140.4780 F   0  0  0  0  0  0  0  0  0  0  0  0
  183.8390  174.5620  134.7820 O   0  0  0  0  0  0  0  0  0  0  0  0
  180.8740  177.6410  137.4950 C   0  0  0  0  0  2  0  0  0  0  0  0
  182.4500  174.8270  134.6000 C   0  0  0  0  0  2  0  0  0  0  0  0
  181.9640  175.8530  135.6190 C   0  0  2  0  0  3  0  0  0  0  0  0
  180.5330  176.1500  137.6310 C   0  0  1  0  0  3  0  0  0  0  0  0
  183.1080  176.3730  137.7090 C   0  0  0  0  0  3  0  0  0  0  0  0
  183.1490  175.9780  136.4400 C   0  0  0  0  0  0  0  0  0  0  0  0
  180.8470  175.3410  136.4220 N   0  0  0  0  0  2  0  0  0  0  0  0
  184.2370  175.3480  135.8200 N   0  0  0  0  0  0  0  0  0  0  0  0
  181.7790  176.7330  138.3210 C   0  0  2  0  0  0  0  0  0  0  0  0
  185.5620  175.9650  135.8570 C   0  0  1  0  0  3  0  0  0  0  0  0
  187.7960  177.5470  136.4240 C   0  0  1  0  0  3  0  0  0  0  0  0
  187.1040  174.4510  136.8940 O   0  0  0  0  0  1  0  0  0  0  0  0
  185.4510  177.3610  135.7270 O   0  0  0  0  0  0  0  0  0  0  0  0
  188.3590  178.8590  136.9300 C   0  0  0  0  0  1  0  0  0  0  0  0
  187.2330  176.7410  137.5990 C   0  0  0  0  0  2  0  0  0  0  0  0
  186.7310  177.8160  135.3430 C   0  0  0  0  0  2  0  0  0  0  0  0
  186.3340  175.5910  137.1310 C   0  0  1  0  0  3  0  0  0  0  0  0
  180.5900  179.6730  141.6220 N   0  0  0  0  0  0  0  0  0  0  0  0
  181.3570  179.0170  141.0530 C   0  0  0  0  0  0  0  0  0  0  0  0
  1  8  1  0  0  0  0
  2 11  2  0  0  0  0
  3  7  2  0  0  0  0
  4  1  2  0  0  0  0
  4  3  1  0  0  0  0
  5 10  2  0  0  0  0
  5  2  1  0  0  0  0
  7  9  1  0  0  0  0
  8  6  1  0  0  0  0
  8  9  2  0  0  0  0
 10  4  1  0  0  0  0
 11  3  1  0  0  0  0
 13  2  1  0  0  0  0
 13 12  1  1  0  0  0
 13 25  1  0  0  0  0
 14 17  1  0  0  0  0
 14 15  1  0  0  0  0
 15 24  1  0  0  0  0
 16 22  2  0  0  0  0
 17 23  2  0  0  0  0
 17 18  1  0  0  0  0
 18 24  1  0  0  0  0
 18 20  2  0  0  0  0
 19 20  1  0  0  0  0
 19 21  1  0  0  0  0
 20 16  1  0  0  0  0
 21 22  1  0  0  0  0
 22 13  1  0  0  0  0
 23 19  1  0  0  0  0
 25 26  1  0  0  0  0
 26 28  1  0  0  0  0
 27 29  2  0  0  0  0
 28 30  1  0  0  0  0
 28 27  2  0  0  0  0
 31  1  1  0  0  0  0
 32 31  1  0  0  0  0
 33 55  1  1  0  0  0
 33 32  1  0  0  0  0
 34 33  1  0  0  0  0
 34 35  1  1  0  0  0
 36 44  1  0  0  0  0
 37 45  1  0  0  0  0
 38 36  1  0  0  0  0
 39 38  1  6  0  0  0
 39 43  1  0  0  0  0
 39 42  1  0  0  0  0
 40 37  1  6  0  0  0
 40 45  1  0  0  0  0
 41 45  1  0  0  0  0
 42 41  2  0  0  0  0
 43 40  1  0  0  0  0
 44 42  1  0  0  0  0
 45 34  1  1  0  0  0
 46 44  1  1  0  0  0
 46 53  1  0  0  0  0
 47 50  1  1  0  0  0
 47 51  1  0  0  0  0
 49 46  1  0  0  0  0
 52 49  1  0  0  0  0
 52 47  1  0  0  0  0
 53 48  1  6  0  0  0
 53 51  1  0  0  0  0
 55 54  3  0  0  0  0
M  END
>  <MODEL>
4

>  <REMARK>
 VINA RESULT:      -8.7      3.422      7.887
  Name = 
  12 active torsions:
  status: ('A' for Active; 'I' for Inactive)
    1  A    between atoms: C_3  and  C_29
    2  A    between atoms: C_3  and  C_39
    3  A    between atoms: C_5  and  C_39
    4  A    between atoms: C_5  and  C_48
    5  A    between atoms: C_9  and  N_44
    6  A    between atoms: C_10  and  C_49
    7  A    between atoms: C_11  and  C_29
    8  A    between atoms: C_16  and  O_21
    9  A    between atoms: C_16  and  C_24
   10  A    between atoms: C_16  and  C_45
   11  A    between atoms: O_21  and  C_49
   12  A    between atoms: C_39  and  C_53
                            x       y       z     vdW  Elec       q    Type
                         _______ _______ _______ _____ _____    ______ ____

>  <TORSDO>
F 12

$$$$
=
 OpenBabel11062415113D

 55 63  0  0  1  0  0  0  0  0999 V2000
  190.0310  176.5970  138.2630 C   0  0  0  0  0  0  0  0  0  0  0  0
  185.9370  176.4620  137.1830 C   0  0  0  0  0  0  0  0  0  0  0  0
  188.1430  175.4270  137.2660 C   0  0  0  0  0  0  0  0  0  0  0  0
  188.6740  176.5740  137.8900 C   0  0  0  0  0  0  0  0  0  0  0  0
  186.4750  177.6030  137.7970 C   0  0  0  0  0  3  0  0  0  0  0  0
  192.2060  175.4530  138.3430 N   0  0  0  0  0  1  0  0  0  0  0  0
  188.9790  174.3450  137.0020 C   0  0  0  0  0  3  0  0  0  0  0  0
  190.8270  175.4740  137.9830 C   0  0  0  0  0  0  0  0  0  0  0  0
  190.2880  174.3930  137.3580 N   0  0  0  0  0  0  0  0  0  0  0  0
  187.8270  177.6610  138.1440 C   0  0  0  0  0  3  0  0  0  0  0  0
  186.7860  175.3700  136.9330 C   0  0  0  0  0  3  0  0  0  0  0  0
  184.1110  177.1760  135.8030 O   0  0  0  0  0  1  0  0  0  0  0  0
  184.4370  176.3820  136.9170 C   0  0  1  0  0  0  0  0  0  0  0  0
  180.1800  171.3800  135.0570 S   0  0  0  0  0  0  0  0  0  0  0  0
  179.7070  172.0820  136.6920 C   0  0  0  0  0  2  0  0  0  0  0  0
  183.4050  174.0970  137.5380 C   0  0  0  0  0  3  0  0  0  0  0  0
  181.8530  171.8460  135.4280 C   0  0  0  0  0  0  0  0  0  0  0  0
  182.0990  172.0810  136.7630 C   0  0  0  0  0  0  0  0  0  0  0  0
  183.4320  173.2570  135.4860 N   0  0  0  0  0  0  0  0  0  0  0  0
  183.1050  173.0180  136.7360 C   0  0  0  0  0  0  0  0  0  0  0  0
  183.9480  174.4590  135.3440 N   0  0  0  0  0  2  0  0  0  0  0  0
  184.0150  174.9640  136.6090 C   0  0  0  0  0  0  0  0  0  0  0  0
  182.6230  172.6390  134.6420 N   0  0  0  0  0  0  0  0  0  0  0  0
  180.9110  172.0260  137.6460 C   0  0  0  0  0  2  0  0  0  0  0  0
  183.7020  176.8020  138.0550 O   0  0  0  0  0  0  0  0  0  0  0  0
  183.0790  178.0370  137.7990 C   0  0  0  0  0  2  0  0  0  0  0  0
  182.3940  178.9020  139.9520 C   0  0  0  0  0  0  0  0  0  0  0  0
  183.2460  178.9480  138.9670 C   0  0  0  0  0  0  0  0  0  0  0  0
  181.5850  178.8520  140.8920 O   0  0  0  0  0  0  0  0  0  0  0  0
  184.3750  179.8100  139.0500 N   0  0  0  0  0  1  0  0  0  0  0  0
  190.6070  177.7660  139.0080 C   0  0  0  0  0  2  0  0  0  0  0  0
  191.1000  177.3100  140.3760 C   0  0  0  0  0  2  0  0  0  0  0  0
  189.9860  176.7330  141.2550 C   0  0  1  0  0  3  0  0  0  0  0  0
  190.5110  175.9640  142.4790 C   0  0  2  0  0  3  0  0  0  0  0  0
  189.8270  174.7640  142.6390 F   0  0  0  0  0  0  0  0  0  0  0  0
  188.0410  177.6870  147.6310 O   0  0  0  0  0  0  0  0  0  0  0  0
  191.5140  177.8670  143.9510 C   0  0  0  0  0  2  0  0  0  0  0  0
  189.4580  177.7620  147.7650 C   0  0  0  0  0  2  0  0  0  0  0  0
  190.1220  177.8380  146.3930 C   0  0  2  0  0  3  0  0  0  0  0  0
  191.5400  176.5770  144.7860 C   0  0  1  0  0  3  0  0  0  0  0  0
  189.0630  177.1480  144.3080 C   0  0  0  0  0  3  0  0  0  0  0  0
  188.9700  177.6330  145.5420 C   0  0  0  0  0  0  0  0  0  0  0  0
  191.0930  176.7550  146.1940 N   0  0  0  0  0  2  0  0  0  0  0  0
  187.7890  177.7210  146.2940 N   0  0  0  0  0  0  0  0  0  0  0  0
  190.4250  176.8170  143.7520 C   0  0  2  0  0  0  0  0  0  0  0  0
  186.6180  178.4020  145.7450 C   0  0  1  0  0  3  0  0  0  0  0  0
  184.0830  179.0710  144.7770 C   0  0  1  0  0  3  0  0  0  0  0  0
  185.7360  179.8980  147.3980 O   0  0  0  0  0  1  0  0  0  0  0  0
  186.0960  177.6750  144.6610 O   0  0  0  0  0  0  0  0  0  0  0  0
  182.7880  178.6320  144.1250 C   0  0  0  0  0  1  0  0  0  0  0  0
  184.1320  178.5580  146.2200 C   0  0  0  0  0  2  0  0  0  0  0  0
  185.2820  178.5780  143.9450 C   0  0  0  0  0  2  0  0  0  0  0  0
  185.5420  178.6440  146.8150 C   0  0  1  0  0  3  0  0  0  0  0  0
  188.3000  178.6260  141.9620 N   0  0  0  0  0  0  0  0  0  0  0  0
  189.0430  177.7930  141.6530 C   0  0  0  0  0  0  0  0  0  0  0  0
  1 31  1  0  0  0  0
  2  5  1  0  0  0  0
  3  4  1  0  0  0  0
  4 10  1  0  0  0  0
  4  1  2  0  0  0  0
  5 10  2  0  0  0  0
  7  3  2  0  0  0  0
  7  9  1  0  0  0  0
  8  1  1  0  0  0  0
  8  6  1  0  0  0  0
  9  8  2  0  0  0  0
 11  2  2  0  0  0  0
 11  3  1  0  0  0  0
 13 12  1  6  0  0  0
 13  2  1  0  0  0  0
 13 25  1  0  0  0  0
 14 17  1  0  0  0  0
 14 15  1  0  0  0  0
 15 24  1  0  0  0  0
 17 18  1  0  0  0  0
 18 24  1  0  0  0  0
 19 20  1  0  0  0  0
 20 18  2  0  0  0  0
 20 16  1  0  0  0  0
 21 19  1  0  0  0  0
 21 22  1  0  0  0  0
 22 13  1  0  0  0  0
 22 16  2  0  0  0  0
 23 17  2  0  0  0  0
 23 19  1  0  0  0  0
 26 25  1  0  0  0  0
 26 28  1  0  0  0  0
 27 29  2  0  0  0  0
 28 30  1  0  0  0  0
 28 27  2  0  0  0  0
 31 32  1  0  0  0  0
 33 32  1  1  0  0  0
 33 55  1  0  0  0  0
 33 34  1  0  0  0  0
 34 35  1  1  0  0  0
 36 38  1  0  0  0  0
 39 38  1  1  0  0  0
 40 37  1  6  0  0  0
 40 43  1  0  0  0  0
 41 42  2  0  0  0  0
 42 44  1  0  0  0  0
 42 39  1  0  0  0  0
 43 39  1  0  0  0  0
 44 36  1  0  0  0  0
 45 34  1  6  0  0  0
 45 37  1  0  0  0  0
 45 41  1  0  0  0  0
 45 40  1  0  0  0  0
 46 44  1  1  0  0  0
 46 53  1  0  0  0  0
 47 50  1  6  0  0  0
 47 51  1  0  0  0  0
 49 46  1  0  0  0  0
 51 53  1  0  0  0  0
 52 49  1  0  0  0  0
 52 47  1  0  0  0  0
 53 48  1  6  0  0  0
 55 54  3  0  0  0  0
M  END
>  <MODEL>
5

>  <REMARK>
 VINA RESULT:      -8.6      2.575      7.689
  Name = 
  12 active torsions:
  status: ('A' for Active; 'I' for Inactive)
    1  A    between atoms: C_3  and  C_29
    2  A    between atoms: C_3  and  C_39
    3  A    between atoms: C_5  and  C_39
    4  A    between atoms: C_5  and  C_48
    5  A    between atoms: C_9  and  N_44
    6  A    between atoms: C_10  and  C_49
    7  A    between atoms: C_11  and  C_29
    8  A    between atoms: C_16  and  O_21
    9  A    between atoms: C_16  and  C_24
   10  A    between atoms: C_16  and  C_45
   11  A    between atoms: O_21  and  C_49
   12  A    between atoms: C_39  and  C_53
                            x       y       z     vdW  Elec       q    Type
                         _______ _______ _______ _____ _____    ______ ____

>  <TORSDO>
F 12

$$$$
=
 OpenBabel11062415113D

 55 63  0  0  1  0  0  0  0  0999 V2000
  182.4690  178.5610  142.7860 C   0  0  0  0  0  0  0  0  0  0  0  0
  186.6500  177.8770  142.7630 C   0  0  0  0  0  0  0  0  0  0  0  0
  184.6200  178.5620  143.9270 C   0  0  0  0  0  0  0  0  0  0  0  0
  183.8610  178.3500  142.7580 C   0  0  0  0  0  0  0  0  0  0  0  0
  185.8880  177.6760  141.6020 C   0  0  0  0  0  3  0  0  0  0  0  0
  180.4700  179.2230  144.0560 N   0  0  0  0  0  1  0  0  0  0  0  0
  183.9830  179.0040  145.0830 C   0  0  0  0  0  3  0  0  0  0  0  0
  181.8770  178.9970  143.9810 C   0  0  0  0  0  0  0  0  0  0  0  0
  182.6420  179.2140  145.0850 N   0  0  0  0  0  0  0  0  0  0  0  0
  184.5110  177.9120  141.5970 C   0  0  0  0  0  3  0  0  0  0  0  0
  185.9960  178.3110  143.9290 C   0  0  0  0  0  3  0  0  0  0  0  0
  188.2690  176.1270  143.0150 O   0  0  0  0  0  1  0  0  0  0  0  0
  188.1290  177.5050  142.7720 C   0  0  1  0  0  0  0  0  0  0  0  0
  188.9110  177.2380  135.9960 S   0  0  0  0  0  0  0  0  0  0  0  0
  189.2530  175.6030  136.7700 C   0  0  0  0  0  2  0  0  0  0  0  0
  189.7260  176.9730  140.8130 C   0  0  0  0  0  3  0  0  0  0  0  0
  189.4290  177.9810  137.5230 C   0  0  0  0  0  0  0  0  0  0  0  0
  190.1760  177.1570  138.3360 C   0  0  0  0  0  0  0  0  0  0  0  0
  189.0610  178.6350  139.5050 N   0  0  0  0  0  0  0  0  0  0  0  0
  189.8760  177.6090  139.6000 C   0  0  0  0  0  0  0  0  0  0  0  0
  188.3240  178.7670  140.5860 N   0  0  0  0  0  2  0  0  0  0  0  0
  188.7740  177.8030  141.4380 C   0  0  0  0  0  0  0  0  0  0  0  0
  188.6750  178.8390  138.2560 N   0  0  0  0  0  0  0  0  0  0  0  0
  190.3210  175.7620  137.8630 C   0  0  0  0  0  2  0  0  0  0  0  0
  188.8290  178.2520  143.7540 O   0  0  0  0  0  0  0  0  0  0  0  0
  189.3480  177.3910  144.7380 C   0  0  0  0  0  2  0  0  0  0  0  0
  191.4540  177.0990  145.8920 C   0  0  0  0  0  0  0  0  0  0  0  0
  190.8230  177.5780  144.8570 C   0  0  0  0  0  0  0  0  0  0  0  0
  192.0550  176.6350  146.8740 O   0  0  0  0  0  0  0  0  0  0  0  0
  191.5540  178.2060  143.8110 N   0  0  0  0  0  1  0  0  0  0  0  0
  181.6200  178.2600  141.5850 C   0  0  0  0  0  2  0  0  0  0  0  0
  181.5690  179.4820  140.6750 C   0  0  0  0  0  2  0  0  0  0  0  0
  182.0890  179.2010  139.2620 C   0  0  1  0  0  3  0  0  0  0  0  0
  181.0540  179.4940  138.1620 C   0  0  2  0  0  3  0  0  0  0  0  0
  179.7680  179.5210  138.6890 F   0  0  0  0  0  0  0  0  0  0  0  0
  181.4670  173.9900  135.8910 O   0  0  0  0  0  0  0  0  0  0  0  0
  181.1810  179.0370  135.5990 C   0  0  0  0  0  2  0  0  0  0  0  0
  180.6500  174.7740  135.0240 C   0  0  0  0  0  2  0  0  0  0  0  0
  180.9120  176.2610  135.2440 C   0  0  2  0  0  3  0  0  0  0  0  0
  179.9070  178.3590  136.1250 C   0  0  1  0  0  3  0  0  0  0  0  0
  181.9280  177.2030  137.2500 C   0  0  0  0  0  3  0  0  0  0  0  0
  181.7920  176.1990  136.3900 C   0  0  0  0  0  0  0  0  0  0  0  0
  179.6840  176.9870  135.5920 N   0  0  0  0  0  2  0  0  0  0  0  0
  182.2070  174.8770  136.6110 N   0  0  0  0  0  0  0  0  0  0  0  0
  181.1550  178.4760  137.0170 C   0  0  2  0  0  0  0  0  0  0  0  0
  183.5890  174.5960  136.9970 C   0  0  1  0  0  3  0  0  0  0  0  0
  186.1880  173.5910  137.2090 C   0  0  1  0  0  3  0  0  0  0  0  0
  184.9810  176.4230  136.3090 O   0  0  0  0  0  1  0  0  0  0  0  0
  183.7640  173.2170  137.2060 O   0  0  0  0  0  0  0  0  0  0  0  0
  187.1560  172.4460  136.9900 C   0  0  0  0  0  1  0  0  0  0  0  0
  185.8250  174.2220  135.8600 C   0  0  0  0  0  2  0  0  0  0  0  0
  184.9450  173.0880  137.9680 C   0  0  0  0  0  2  0  0  0  0  0  0
  184.5930  175.1270  135.9620 C   0  0  1  0  0  3  0  0  0  0  0  0
  184.3350  180.5010  138.8280 N   0  0  0  0  0  0  0  0  0  0  0  0
  183.3460  179.9300  139.0220 C   0  0  0  0  0  0  0  0  0  0  0  0
  1  8  1  0  0  0  0
  2 13  1  0  0  0  0
  2 11  2  0  0  0  0
  3 11  1  0  0  0  0
  3  7  2  0  0  0  0
  4  1  2  0  0  0  0
  4  3  1  0  0  0  0
  5  2  1  0  0  0  0
  7  9  1  0  0  0  0
  8  6  1  0  0  0  0
  8  9  2  0  0  0  0
 10  5  2  0  0  0  0
 10  4  1  0  0  0  0
 13 12  1  1  0  0  0
 13 25  1  0  0  0  0
 14 15  1  0  0  0  0
 14 17  1  0  0  0  0
 15 24  1  0  0  0  0
 16 22  2  0  0  0  0
 17 23  2  0  0  0  0
 17 18  1  0  0  0  0
 18 20  2  0  0  0  0
 19 20  1  0  0  0  0
 19 21  1  0  0  0  0
 20 16  1  0  0  0  0
 21 22  1  0  0  0  0
 22 13  1  0  0  0  0
 23 19  1  0  0  0  0
 24 18  1  0  0  0  0
 25 26  1  0  0  0  0
 26 28  1  0  0  0  0
 27 29  2  0  0  0  0
 28 27  2  0  0  0  0
 30 28  1  0  0  0  0
 31  1  1  0  0  0  0
 32 31  1  0  0  0  0
 33 55  1  6  0  0  0
 33 32  1  0  0  0  0
 34 35  1  1  0  0  0
 34 33  1  0  0  0  0
 36 44  1  0  0  0  0
 37 45  1  0  0  0  0
 38 36  1  0  0  0  0
 39 38  1  1  0  0  0
 39 43  1  0  0  0  0
 39 42  1  0  0  0  0
 40 37  1  6  0  0  0
 40 45  1  0  0  0  0
 42 44  1  0  0  0  0
 42 41  2  0  0  0  0
 43 40  1  0  0  0  0
 45 41  1  0  0  0  0
 45 34  1  1  0  0  0
 46 44  1  6  0  0  0
 46 49  1  0  0  0  0
 47 50  1  6  0  0  0
 47 52  1  0  0  0  0
 49 52  1  0  0  0  0
 51 53  1  0  0  0  0
 51 47  1  0  0  0  0
 53 48  1  1  0  0  0
 53 46  1  0  0  0  0
 54 55  3  0  0  0  0
M  END
>  <MODEL>
6

>  <REMARK>
 VINA RESULT:      -8.4      3.130      7.475
  Name = 
  12 active torsions:
  status: ('A' for Active; 'I' for Inactive)
    1  A    between atoms: C_3  and  C_29
    2  A    between atoms: C_3  and  C_39
    3  A    between atoms: C_5  and  C_39
    4  A    between atoms: C_5  and  C_48
    5  A    between atoms: C_9  and  N_44
    6  A    between atoms: C_10  and  C_49
    7  A    between atoms: C_11  and  C_29
    8  A    between atoms: C_16  and  O_21
    9  A    between atoms: C_16  and  C_24
   10  A    between atoms: C_16  and  C_45
   11  A    between atoms: O_21  and  C_49
   12  A    between atoms: C_39  and  C_53
                            x       y       z     vdW  Elec       q    Type
                         _______ _______ _______ _____ _____    ______ ____

>  <TORSDO>
F 12

$$$$
=
 OpenBabel11062415113D

 55 63  0  0  1  0  0  0  0  0999 V2000
  188.5990  178.1040  140.5200 C   0  0  0  0  0  0  0  0  0  0  0  0
  191.0170  176.0590  137.7060 C   0  0  0  0  0  0  0  0  0  0  0  0
  188.9710  177.2610  138.2660 C   0  0  0  0  0  0  0  0  0  0  0  0
  189.4030  177.4040  139.6000 C   0  0  0  0  0  0  0  0  0  0  0  0
  191.4350  176.1980  139.0370 C   0  0  0  0  0  3  0  0  0  0  0  0
  186.5260  179.3450  140.9780 N   0  0  0  0  0  1  0  0  0  0  0  0
  187.7410  177.7920  137.8870 C   0  0  0  0  0  3  0  0  0  0  0  0
  187.3730  178.6280  140.0810 C   0  0  0  0  0  0  0  0  0  0  0  0
  186.9750  178.4530  138.7920 N   0  0  0  0  0  0  0  0  0  0  0  0
  190.6380  176.8590  139.9760 C   0  0  0  0  0  3  0  0  0  0  0  0
  189.7800  176.6100  137.3290 C   0  0  0  0  0  3  0  0  0  0  0  0
  192.3380  176.4020  135.7350 O   0  0  0  0  0  1  0  0  0  0  0  0
  191.9540  175.4330  136.6790 C   0  0  1  0  0  0  0  0  0  0  0  0
  198.2860  172.8970  136.9580 S   0  0  0  0  0  0  0  0  0  0  0  0
  197.1080  171.6670  136.2580 C   0  0  0  0  0  2  0  0  0  0  0  0
  193.4760  173.5470  137.5730 C   0  0  0  0  0  3  0  0  0  0  0  0
  196.9180  173.5780  137.8610 C   0  0  0  0  0  0  0  0  0  0  0  0
  195.8330  172.7370  137.9770 C   0  0  0  0  0  0  0  0  0  0  0  0
  195.2220  174.8390  138.0170 N   0  0  0  0  0  0  0  0  0  0  0  0
  194.7690  173.6060  138.0450 C   0  0  0  0  0  0  0  0  0  0  0  0
  194.3230  175.6730  137.5410 N   0  0  0  0  0  2  0  0  0  0  0  0
  193.2110  174.9110  137.3360 C   0  0  0  0  0  0  0  0  0  0  0  0
  196.5270  174.8760  137.8010 N   0  0  0  0  0  0  0  0  0  0  0  0
  195.9370  171.4620  137.2330 C   0  0  0  0  0  2  0  0  0  0  0  0
  191.3310  174.3340  136.0330 O   0  0  0  0  0  0  0  0  0  0  0  0
  190.4410  173.6960  136.9160 C   0  0  0  0  0  2  0  0  0  0  0  0
  188.2160  172.7520  136.8190 C   0  0  0  0  0  0  0  0  0  0  0  0
  189.2660  173.1670  136.1670 C   0  0  0  0  0  0  0  0  0  0  0  0
  187.2150  172.3630  137.4410 O   0  0  0  0  0  0  0  0  0  0  0  0
  189.2520  173.1880  134.7440 N   0  0  0  0  0  1  0  0  0  0  0  0
  189.0690  178.3490  141.9240 C   0  0  0  0  0  2  0  0  0  0  0  0
  188.4690  177.3020  142.8560 C   0  0  0  0  0  2  0  0  0  0  0  0
  188.0750  177.8680  144.2230 C   0  0  1  0  0  3  0  0  0  0  0  0
  186.7220  177.3430  144.7330 C   0  0  2  0  0  3  0  0  0  0  0  0
  186.5120  176.0340  144.3170 F   0  0  0  0  0  0  0  0  0  0  0  0
  181.5050  178.4770  142.0660 O   0  0  0  0  0  0  0  0  0  0  0  0
  185.6750  179.7290  144.6500 C   0  0  0  0  0  2  0  0  0  0  0  0
  181.6040  179.2980  143.2260 C   0  0  0  0  0  2  0  0  0  0  0  0
  183.0610  179.4460  143.6540 C   0  0  2  0  0  3  0  0  0  0  0  0
  184.7000  178.8240  145.4190 C   0  0  1  0  0  3  0  0  0  0  0  0
  184.8530  177.9280  142.9980 C   0  0  0  0  0  3  0  0  0  0  0  0
  183.6900  178.5180  142.7400 C   0  0  0  0  0  0  0  0  0  0  0  0
  183.2720  179.0080  145.0400 N   0  0  0  0  0  2  0  0  0  0  0  0
  182.7810  178.1210  141.7490 N   0  0  0  0  0  0  0  0  0  0  0  0
  185.5680  178.2510  144.2850 C   0  0  2  0  0  0  0  0  0  0  0  0
  183.2210  177.9790  140.3620 C   0  0  1  0  0  3  0  0  0  0  0  0
  183.3740  177.6150  137.5950 C   0  0  1  0  0  3  0  0  0  0  0  0
  183.8730  180.1290  139.5230 O   0  0  0  0  0  1  0  0  0  0  0  0
  182.7080  176.7940  139.8080 O   0  0  0  0  0  0  0  0  0  0  0  0
  182.7810  177.0260  136.3320 C   0  0  0  0  0  1  0  0  0  0  0  0
  182.5140  178.7920  138.0660 C   0  0  0  0  0  2  0  0  0  0  0  0
  183.5010  176.5210  138.6730 C   0  0  0  0  0  2  0  0  0  0  0  0
  182.8330  179.1980  139.5090 C   0  0  1  0  0  3  0  0  0  0  0  0
  189.9920  177.4450  145.9760 N   0  0  0  0  0  0  0  0  0  0  0  0
  189.1460  177.6310  145.2070 C   0  0  0  0  0  0  0  0  0  0  0  0
  1 31  1  0  0  0  0
  2  5  1  0  0  0  0
  3  4  1  0  0  0  0
  4 10  1  0  0  0  0
  4  1  2  0  0  0  0
  5 10  2  0  0  0  0
  7  3  2  0  0  0  0
  7  9  1  0  0  0  0
  8  1  1  0  0  0  0
  8  6  1  0  0  0  0
  9  8  2  0  0  0  0
 11  2  2  0  0  0  0
 11  3  1  0  0  0  0
 13 12  1  6  0  0  0
 13 22  1  0  0  0  0
 13  2  1  0  0  0  0
 14 17  1  0  0  0  0
 15 14  1  0  0  0  0
 15 24  1  0  0  0  0
 16 20  1  0  0  0  0
 17 18  1  0  0  0  0
 18 20  2  0  0  0  0
 19 20  1  0  0  0  0
 21 19  1  0  0  0  0
 22 21  1  0  0  0  0
 22 16  2  0  0  0  0
 23 17  2  0  0  0  0
 23 19  1  0  0  0  0
 24 18  1  0  0  0  0
 25 13  1  0  0  0  0
 25 26  1  0  0  0  0
 27 29  2  0  0  0  0
 28 27  2  0  0  0  0
 28 26  1  0  0  0  0
 30 28  1  0  0  0  0
 31 32  1  0  0  0  0
 33 32  1  6  0  0  0
 33 34  1  0  0  0  0
 33 55  1  0  0  0  0
 34 35  1  6  0  0  0
 36 38  1  0  0  0  0
 39 38  1  6  0  0  0
 39 43  1  0  0  0  0
 40 37  1  6  0  0  0
 41 45  1  0  0  0  0
 42 41  2  0  0  0  0
 42 39  1  0  0  0  0
 43 40  1  0  0  0  0
 44 36  1  0  0  0  0
 44 42  1  0  0  0  0
 45 37  1  0  0  0  0
 45 34  1  1  0  0  0
 45 40  1  0  0  0  0
 46 44  1  1  0  0  0
 47 50  1  6  0  0  0
 47 51  1  0  0  0  0
 47 52  1  0  0  0  0
 49 46  1  0  0  0  0
 51 53  1  0  0  0  0
 52 49  1  0  0  0  0
 53 48  1  6  0  0  0
 53 46  1  0  0  0  0
 55 54  3  0  0  0  0
M  END
>  <MODEL>
7

>  <REMARK>
 VINA RESULT:      -8.2      3.847      9.790
  Name = 
  12 active torsions:
  status: ('A' for Active; 'I' for Inactive)
    1  A    between atoms: C_3  and  C_29
    2  A    between atoms: C_3  and  C_39
    3  A    between atoms: C_5  and  C_39
    4  A    between atoms: C_5  and  C_48
    5  A    between atoms: C_9  and  N_44
    6  A    between atoms: C_10  and  C_49
    7  A    between atoms: C_11  and  C_29
    8  A    between atoms: C_16  and  O_21
    9  A    between atoms: C_16  and  C_24
   10  A    between atoms: C_16  and  C_45
   11  A    between atoms: O_21  and  C_49
   12  A    between atoms: C_39  and  C_53
                            x       y       z     vdW  Elec       q    Type
                         _______ _______ _______ _____ _____    ______ ____

>  <TORSDO>
F 12

$$$$
=
 OpenBabel11062415113D

 55 63  0  0  1  0  0  0  0  0999 V2000
  188.1630  178.1230  139.9230 C   0  0  0  0  0  0  0  0  0  0  0  0
  189.9080  176.0020  136.6980 C   0  0  0  0  0  0  0  0  0  0  0  0
  188.0110  177.1720  137.6860 C   0  0  0  0  0  0  0  0  0  0  0  0
  188.7470  177.3980  138.8670 C   0  0  0  0  0  0  0  0  0  0  0  0
  190.6310  176.2240  137.8790 C   0  0  0  0  0  3  0  0  0  0  0  0
  186.2130  179.3250  140.8170 N   0  0  0  0  0  1  0  0  0  0  0  0
  186.7050  177.6460  137.5950 C   0  0  0  0  0  3  0  0  0  0  0  0
  186.8460  178.5860  139.7740 C   0  0  0  0  0  0  0  0  0  0  0  0
  186.1550  178.3310  138.6300 N   0  0  0  0  0  0  0  0  0  0  0  0
  190.0580  176.9110  138.9530 C   0  0  0  0  0  3  0  0  0  0  0  0
  188.5950  176.4960  136.6100 C   0  0  0  0  0  3  0  0  0  0  0  0
  191.0100  176.3410  134.5960 O   0  0  0  0  0  1  0  0  0  0  0  0
  190.5940  175.3500  135.5020 C   0  0  1  0  0  0  0  0  0  0  0  0
  197.0590  174.4810  137.5160 S   0  0  0  0  0  0  0  0  0  0  0  0
  196.9790  175.0650  135.7720 C   0  0  0  0  0  2  0  0  0  0  0  0
  192.8420  174.1570  135.0560 C   0  0  0  0  0  3  0  0  0  0  0  0
  195.4700  173.7310  137.2550 C   0  0  0  0  0  0  0  0  0  0  0  0
  195.1310  173.5540  135.9320 C   0  0  0  0  0  0  0  0  0  0  0  0
  193.3540  173.8100  137.1850 N   0  0  0  0  0  0  0  0  0  0  0  0
  193.7590  173.6430  135.9460 C   0  0  0  0  0  0  0  0  0  0  0  0
  192.1930  174.4270  137.2340 N   0  0  0  0  0  2  0  0  0  0  0  0
  191.8210  174.5780  135.9320 C   0  0  0  0  0  0  0  0  0  0  0  0
  194.3720  173.9740  138.0140 N   0  0  0  0  0  0  0  0  0  0  0  0
  196.0830  174.1230  134.9520 C   0  0  0  0  0  2  0  0  0  0  0  0
  189.7230  174.4310  134.8620 O   0  0  0  0  0  0  0  0  0  0  0  0
  189.5940  173.2660  135.6400 C   0  0  0  0  0  2  0  0  0  0  0  0
  187.2160  173.4540  135.2370 C   0  0  0  0  0  0  0  0  0  0  0  0
  188.2370  172.6750  135.4580 C   0  0  0  0  0  0  0  0  0  0  0  0
  186.2460  174.1980  135.0200 O   0  0  0  0  0  0  0  0  0  0  0  0
  188.0650  171.2630  135.4440 N   0  0  0  0  0  1  0  0  0  0  0  0
  188.9480  178.4570  141.1570 C   0  0  0  0  0  2  0  0  0  0  0  0
  189.6410  177.2030  141.6790 C   0  0  0  0  0  2  0  0  0  0  0  0
  190.9950  177.4920  142.3330 C   0  0  1  0  0  3  0  0  0  0  0  0
  191.3310  176.5340  143.4890 C   0  0  2  0  0  3  0  0  0  0  0  0
  190.7990  175.2710  143.2530 F   0  0  0  0  0  0  0  0  0  0  0  0
  187.4370  177.0870  147.9770 O   0  0  0  0  0  0  0  0  0  0  0  0
  191.7650  178.0790  145.5430 C   0  0  0  0  0  2  0  0  0  0  0  0
  188.7550  177.1390  148.5160 C   0  0  0  0  0  2  0  0  0  0  0  0
  189.7620  177.5140  147.4340 C   0  0  2  0  0  3  0  0  0  0  0  0
  191.6460  176.6390  146.0660 C   0  0  1  0  0  3  0  0  0  0  0  0
  189.3630  177.2870  145.0390 C   0  0  0  0  0  3  0  0  0  0  0  0
  188.9040  177.4920  146.2690 C   0  0  0  0  0  0  0  0  0  0  0  0
  190.8200  176.5050  147.2970 N   0  0  0  0  0  2  0  0  0  0  0  0
  187.5590  177.4080  146.6590 N   0  0  0  0  0  0  0  0  0  0  0  0
  190.8430  177.0910  144.8330 C   0  0  2  0  0  0  0  0  0  0  0  0
  186.5410  178.1860  145.9560 C   0  0  1  0  0  3  0  0  0  0  0  0
  184.2160  179.0830  144.6890 C   0  0  1  0  0  3  0  0  0  0  0  0
  185.6790  179.8670  147.4340 O   0  0  0  0  0  1  0  0  0  0  0  0
  186.0480  177.4610  144.8570 O   0  0  0  0  0  0  0  0  0  0  0  0
  182.9520  178.7570  143.9210 C   0  0  0  0  0  1  0  0  0  0  0  0
  184.0550  178.6520  146.1510 C   0  0  0  0  0  2  0  0  0  0  0  0
  185.4260  178.4080  144.0150 C   0  0  0  0  0  2  0  0  0  0  0  0
  185.3970  178.6120  146.8900 C   0  0  1  0  0  3  0  0  0  0  0  0
  192.9070  177.5100  140.5250 N   0  0  0  0  0  0  0  0  0  0  0  0
  192.0640  177.5050  141.3200 C   0  0  0  0  0  0  0  0  0  0  0  0
  1 31  1  0  0  0  0
  2  5  1  0  0  0  0
  3  4  1  0  0  0  0
  4 10  1  0  0  0  0
  4  1  2  0  0  0  0
  5 10  2  0  0  0  0
  7  3  2  0  0  0  0
  7  9  1  0  0  0  0
  8  1  1  0  0  0  0
  8  6  1  0  0  0  0
  9  8  2  0  0  0  0
 11  2  2  0  0  0  0
 11  3  1  0  0  0  0
 13 12  1  6  0  0  0
 13 22  1  0  0  0  0
 13  2  1  0  0  0  0
 15 14  1  0  0  0  0
 16 22  2  0  0  0  0
 16 20  1  0  0  0  0
 17 14  1  0  0  0  0
 17 23  2  0  0  0  0
 18 20  2  0  0  0  0
 18 17  1  0  0  0  0
 19 21  1  0  0  0  0
 19 23  1  0  0  0  0
 20 19  1  0  0  0  0
 22 21  1  0  0  0  0
 24 15  1  0  0  0  0
 24 18  1  0  0  0  0
 25 13  1  0  0  0  0
 25 26  1  0  0  0  0
 27 28  2  0  0  0  0
 28 26  1  0  0  0  0
 29 27  2  0  0  0  0
 30 28  1  0  0  0  0
 31 32  1  0  0  0  0
 32 33  1  0  0  0  0
 33 55  1  6  0  0  0
 33 34  1  0  0  0  0
 34 35  1  6  0  0  0
 36 38  1  0  0  0  0
 39 38  1  1  0  0  0
 40 37  1  1  0  0  0
 40 43  1  0  0  0  0
 41 42  2  0  0  0  0
 42 44  1  0  0  0  0
 42 39  1  0  0  0  0
 43 39  1  0  0  0  0
 44 36  1  0  0  0  0
 45 34  1  6  0  0  0
 45 41  1  0  0  0  0
 45 37  1  0  0  0  0
 45 40  1  0  0  0  0
 46 44  1  1  0  0  0
 46 53  1  0  0  0  0
 47 50  1  6  0  0  0
 47 51  1  0  0  0  0
 49 46  1  0  0  0  0
 51 53  1  0  0  0  0
 52 47  1  0  0  0  0
 52 49  1  0  0  0  0
 53 48  1  6  0  0  0
 54 55  3  0  0  0  0
M  END
>  <MODEL>
8

>  <REMARK>
 VINA RESULT:      -8.0      3.617     10.125
  Name = 
  12 active torsions:
  status: ('A' for Active; 'I' for Inactive)
    1  A    between atoms: C_3  and  C_29
    2  A    between atoms: C_3  and  C_39
    3  A    between atoms: C_5  and  C_39
    4  A    between atoms: C_5  and  C_48
    5  A    between atoms: C_9  and  N_44
    6  A    between atoms: C_10  and  C_49
    7  A    between atoms: C_11  and  C_29
    8  A    between atoms: C_16  and  O_21
    9  A    between atoms: C_16  and  C_24
   10  A    between atoms: C_16  and  C_45
   11  A    between atoms: O_21  and  C_49
   12  A    between atoms: C_39  and  C_53
                            x       y       z     vdW  Elec       q    Type
                         _______ _______ _______ _____ _____    ______ ____

>  <TORSDO>
F 12

$$$$
=
 OpenBabel11062415113D

 55 63  0  0  1  0  0  0  0  0999 V2000
  183.3720  178.7760  141.5800 C   0  0  0  0  0  0  0  0  0  0  0  0
  187.2310  178.2520  139.9110 C   0  0  0  0  0  0  0  0  0  0  0  0
  185.7790  178.5290  141.8500 C   0  0  0  0  0  0  0  0  0  0  0  0
  184.6510  178.6230  141.0110 C   0  0  0  0  0  0  0  0  0  0  0  0
  186.1030  178.3550  139.0820 C   0  0  0  0  0  3  0  0  0  0  0  0
  181.9850  179.0020  143.5980 N   0  0  0  0  0  1  0  0  0  0  0  0
  185.6130  178.6160  143.2300 C   0  0  0  0  0  3  0  0  0  0  0  0
  183.2600  178.8480  142.9770 C   0  0  0  0  0  0  0  0  0  0  0  0
  184.3720  178.7770  143.7580 N   0  0  0  0  0  0  0  0  0  0  0  0
  184.8290  178.5420  139.6230 C   0  0  0  0  0  3  0  0  0  0  0  0
  187.0500  178.3290  141.3030 C   0  0  0  0  0  3  0  0  0  0  0  0
  189.1320  179.0990  138.7220 O   0  0  0  0  0  1  0  0  0  0  0  0
  188.5920  177.9370  139.3010 C   0  0  1  0  0  0  0  0  0  0  0  0
  190.9070  176.7690  145.6160 S   0  0  0  0  0  0  0  0  0  0  0  0
  190.8600  178.5730  145.2470 C   0  0  0  0  0  2  0  0  0  0  0  0
  190.5300  178.2730  140.9750 C   0  0  0  0  0  3  0  0  0  0  0  0
  191.1360  176.5000  143.8760 C   0  0  0  0  0  0  0  0  0  0  0  0
  191.5680  177.6050  143.1770 C   0  0  0  0  0  0  0  0  0  0  0  0
  190.3930  176.2660  141.9050 N   0  0  0  0  0  0  0  0  0  0  0  0
  191.0350  177.4120  141.9240 C   0  0  0  0  0  0  0  0  0  0  0  0
  189.4440  176.2590  140.9940 N   0  0  0  0  0  2  0  0  0  0  0  0
  189.5630  177.4570  140.3550 C   0  0  0  0  0  0  0  0  0  0  0  0
  190.3390  175.7160  143.1070 N   0  0  0  0  0  0  0  0  0  0  0  0
  191.6530  178.8580  143.9620 C   0  0  0  0  0  2  0  0  0  0  0  0
  188.4820  176.9080  138.3310 O   0  0  0  0  0  0  0  0  0  0  0  0
  189.4650  177.0730  137.3380 C   0  0  0  0  0  2  0  0  0  0  0  0
  191.7640  176.3440  137.5280 C   0  0  0  0  0  0  0  0  0  0  0  0
  190.5060  176.0120  137.4640 C   0  0  0  0  0  0  0  0  0  0  0  0
  192.9620  176.6630  137.5950 O   0  0  0  0  0  0  0  0  0  0  0  0
  190.1270  174.6470  137.5970 N   0  0  0  0  0  1  0  0  0  0  0  0
  182.1420  178.7910  140.7200 C   0  0  0  0  0  2  0  0  0  0  0  0
  181.6090  177.3720  140.5620 C   0  0  0  0  0  2  0  0  0  0  0  0
  181.1880  177.0430  139.1260 C   0  0  1  0  0  3  0  0  0  0  0  0
  179.9520  176.1320  139.0470 C   0  0  2  0  0  3  0  0  0  0  0  0
  179.6720  175.5710  140.2870 F   0  0  0  0  0  0  0  0  0  0  0  0
  182.6420  171.3960  136.6080 O   0  0  0  0  0  0  0  0  0  0  0  0
  179.1380  175.0450  136.8220 C   0  0  0  0  0  2  0  0  0  0  0  0
  181.2380  171.2790  136.3870 C   0  0  0  0  0  2  0  0  0  0  0  0
  180.5620  172.6410  136.5120 C   0  0  2  0  0  3  0  0  0  0  0  0
  179.0160  173.9830  137.9250 C   0  0  1  0  0  3  0  0  0  0  0  0
  181.5240  174.5590  137.6700 C   0  0  0  0  0  3  0  0  0  0  0  0
  181.6780  173.4390  136.9720 C   0  0  0  0  0  0  0  0  0  0  0  0
  179.4990  172.6330  137.5250 N   0  0  0  0  0  2  0  0  0  0  0  0
  182.8740  172.7160  136.8470 N   0  0  0  0  0  0  0  0  0  0  0  0
  180.1300  175.0420  137.9810 C   0  0  2  0  0  0  0  0  0  0  0  0
  184.0890  173.3830  136.3850 C   0  0  1  0  0  3  0  0  0  0  0  0
  186.0590  175.2390  135.6830 C   0  0  1  0  0  3  0  0  0  0  0  0
  185.8460  173.0000  137.9710 O   0  0  0  0  0  1  0  0  0  0  0  0
  183.7690  174.3910  135.4580 O   0  0  0  0  0  0  0  0  0  0  0  0
  186.4180  176.6450  135.2510 C   0  0  0  0  0  1  0  0  0  0  0  0
  185.6290  175.2460  137.1540 C   0  0  0  0  0  2  0  0  0  0  0  0
  184.9630  174.6710  134.7610 C   0  0  0  0  0  2  0  0  0  0  0  0
  184.9130  173.9510  137.5510 C   0  0  1  0  0  3  0  0  0  0  0  0
  180.8340  179.2540  137.7430 N   0  0  0  0  0  0  0  0  0  0  0  0
  180.9930  178.2800  138.3510 C   0  0  0  0  0  0  0  0  0  0  0  0
  1  8  1  0  0  0  0
  2 11  2  0  0  0  0
  3  7  2  0  0  0  0
  4  1  2  0  0  0  0
  4  3  1  0  0  0  0
  5 10  2  0  0  0  0
  5  2  1  0  0  0  0
  7  9  1  0  0  0  0
  8  6  1  0  0  0  0
  8  9  2  0  0  0  0
 10  4  1  0  0  0  0
 11  3  1  0  0  0  0
 13 12  1  6  0  0  0
 13  2  1  0  0  0  0
 13 22  1  0  0  0  0
 15 14  1  0  0  0  0
 16 20  1  0  0  0  0
 17 14  1  0  0  0  0
 18 17  1  0  0  0  0
 18 24  1  0  0  0  0
 19 20  1  0  0  0  0
 19 23  1  0  0  0  0
 20 18  2  0  0  0  0
 21 19  1  0  0  0  0
 22 16  2  0  0  0  0
 22 21  1  0  0  0  0
 23 17  2  0  0  0  0
 24 15  1  0  0  0  0
 25 13  1  0  0  0  0
 26 28  1  0  0  0  0
 26 25  1  0  0  0  0
 27 29  2  0  0  0  0
 28 27  2  0  0  0  0
 28 30  1  0  0  0  0
 31  1  1  0  0  0  0
 32 31  1  0  0  0  0
 33 55  1  6  0  0  0
 33 32  1  0  0  0  0
 34 33  1  0  0  0  0
 34 35  1  1  0  0  0
 36 44  1  0  0  0  0
 37 45  1  0  0  0  0
 38 36  1  0  0  0  0
 39 38  1  1  0  0  0
 39 42  1  0  0  0  0
 39 43  1  0  0  0  0
 40 37  1  6  0  0  0
 40 45  1  0  0  0  0
 41 45  1  0  0  0  0
 42 41  2  0  0  0  0
 43 40  1  0  0  0  0
 44 42  1  0  0  0  0
 45 34  1  1  0  0  0
 46 44  1  1  0  0  0
 46 53  1  0  0  0  0
 47 50  1  6  0  0  0
 47 51  1  0  0  0  0
 49 46  1  0  0  0  0
 51 53  1  0  0  0  0
 52 49  1  0  0  0  0
 52 47  1  0  0  0  0
 53 48  1  6  0  0  0
 54 55  3  0  0  0  0
M  END
>  <MODEL>
9

>  <REMARK>
 VINA RESULT:      -8.0      3.537      8.586
  Name = 
  12 active torsions:
  status: ('A' for Active; 'I' for Inactive)
    1  A    between atoms: C_3  and  C_29
    2  A    between atoms: C_3  and  C_39
    3  A    between atoms: C_5  and  C_39
    4  A    between atoms: C_5  and  C_48
    5  A    between atoms: C_9  and  N_44
    6  A    between atoms: C_10  and  C_49
    7  A    between atoms: C_11  and  C_29
    8  A    between atoms: C_16  and  O_21
    9  A    between atoms: C_16  and  C_24
   10  A    between atoms: C_16  and  C_45
   11  A    between atoms: O_21  and  C_49
   12  A    between atoms: C_39  and  C_53
                            x       y       z     vdW  Elec       q    Type
                         _______ _______ _______ _____ _____    ______ ____

>  <TORSDO>
F 12

$$$$
