=
 OpenBabel11062412263D

 37 40  0  0  1  0  0  0  0  0999 V2000
  192.2050  177.5450  142.3340 C   0  0  0  0  0  2  0  0  0  0  0  0
  188.2290  177.9500  144.0010 C   0  0  1  0  0  3  0  0  0  0  0  0
  187.6680  178.0600  141.6820 O   0  0  0  0  0  0  0  0  0  0  0  0
  189.8630  177.3670  142.1090 N   0  0  0  0  0  0  0  0  0  0  0  0
  189.3960  177.6050  144.9470 C   0  0  2  0  0  3  0  0  0  0  0  0
  190.3470  177.5930  140.7560 C   0  0  1  0  0  3  0  0  0  0  0  0
  189.2640  178.3170  146.1390 O   0  0  0  0  0  1  0  0  0  0  0  0
  190.9430  177.0960  143.0490 C   0  0  2  0  0  0  0  0  0  0  0  0
  191.8640  177.5830  140.8510 C   0  0  0  0  0  2  0  0  0  0  0  0
  188.5490  177.7710  142.5370 C   0  0  0  0  0  0  0  0  0  0  0  0
  190.7560  177.9090  144.3280 C   0  0  0  0  0  2  0  0  0  0  0  0
  190.1540  174.8320  142.9170 O   0  0  0  0  0  0  0  0  0  0  0  0
  191.0340  175.6210  143.3520 C   0  0  0  0  0  0  0  0  0  0  0  0
  192.0890  175.1170  144.1030 O   0  0  0  0  0  1  0  0  0  0  0  0
  186.9380  177.2110  144.3780 C   0  0  1  0  0  3  0  0  0  0  0  0
  186.4900  177.5200  145.8010 C   0  0  0  0  0  1  0  0  0  0  0  0
  185.9150  177.5210  143.4780 O   0  0  0  0  0  0  0  0  0  0  0  0
  185.1810  178.5290  144.1060 C   0  0  0  0  0  2  0  0  0  0  0  0
  183.8500  178.6950  143.4030 C   0  0  0  0  0  2  0  0  0  0  0  0
  184.3590  178.5800  140.0530 C   0  0  0  0  0  2  0  0  0  0  0  0
  183.6340  177.8130  140.9670 N   0  0  0  0  0  0  0  0  0  0  0  0
  184.0550  178.6460  141.9300 C   0  0  0  0  0  0  0  0  0  0  0  0
  184.8470  179.4620  140.9910 N   0  0  0  0  0  2  0  0  0  0  0  0
  189.9130  176.4560  139.8390 C   0  0  0  0  0  2  0  0  0  0  0  0
  190.8240  176.3350  138.6270 C   0  0  0  0  0  2  0  0  0  0  0  0
  190.4000  175.1850  137.7250 C   0  0  0  0  0  2  0  0  0  0  0  0
  189.9400  175.6820  136.3640 C   0  0  1  0  0  3  0  0  0  0  0  0
  190.0910  177.1940  136.3260 C   0  0  0  0  0  2  0  0  0  0  0  0
  186.8180  177.0150  137.6250 C   0  0  0  0  0  2  0  0  0  0  0  0
  188.9870  179.8450  137.3890 O   0  0  0  0  0  0  0  0  0  0  0  0
  187.4280  176.6200  135.9460 S   0  0  0  0  0  0  0  0  0  0  0  0
  187.3420  178.3110  138.0030 N   0  0  0  0  0  2  0  0  0  0  0  0
  188.3970  178.7540  137.1710 C   0  0  0  0  0  0  0  0  0  0  0  0
  188.7580  177.8720  136.0400 C   0  0  1  0  0  3  0  0  0  0  0  0
  190.7820  175.0620  135.2580 C   0  0  0  0  0  2  0  0  0  0  0  0
  191.9960  174.6130  135.7780 O   0  0  0  0  0  0  0  0  0  0  0  0
  192.9630  175.3460  135.0900 C   0  0  0  0  0  1  0  0  0  0  0  0
  1  8  1  0  0  0  0
  2 15  1  1  0  0  0
  2  5  1  0  0  0  0
  3 10  2  0  0  0  0
  4 10  1  0  0  0  0
  4  8  1  0  0  0  0
  5  7  1  1  0  0  0
  6 24  1  6  0  0  0
  6  9  1  0  0  0  0
  6  4  1  0  0  0  0
  8 13  1  1  0  0  0
  8 11  1  0  0  0  0
  9  1  1  0  0  0  0
 10  2  1  0  0  0  0
 11  5  1  0  0  0  0
 12 13  2  0  0  0  0
 13 14  1  0  0  0  0
 15 16  1  1  0  0  0
 17 18  1  0  0  0  0
 17 15  1  0  0  0  0
 19 18  1  0  0  0  0
 20 21  1  0  0  0  0
 20 23  1  0  0  0  0
 21 22  2  0  0  0  0
 22 19  1  0  0  0  0
 23 22  1  0  0  0  0
 25 24  1  0  0  0  0
 26 25  1  0  0  0  0
 27 35  1  6  0  0  0
 27 26  1  0  0  0  0
 28 27  1  0  0  0  0
 29 32  1  0  0  0  0
 31 34  1  0  0  0  0
 31 29  1  0  0  0  0
 33 30  2  0  0  0  0
 33 32  1  0  0  0  0
 34 28  1  1  0  0  0
 34 33  1  0  0  0  0
 35 36  1  0  0  0  0
 37 36  1  0  0  0  0
M  END
>  <MODEL>
1

>  <REMARK>
 VINA RESULT:      -6.7      0.000      0.000
  Name = 
  14 active torsions:
  status: ('A' for Active; 'I' for Inactive)
    1  A    between atoms: O_2  and  C_20
    2  A    between atoms: C_10  and  C_11
    3  A    between atoms: C_10  and  O_13
    4  A    between atoms: O_13  and  C_28
    5  A    between atoms: C_14  and  C_22
    6  A    between atoms: C_16  and  C_35
    7  A    between atoms: C_16  and  C_36
    8  A    between atoms: C_17  and  C_30
    9  A    between atoms: C_18  and  C_21
   10  A    between atoms: C_18  and  C_37
   11  A    between atoms: C_20  and  C_35
   12  A    between atoms: C_21  and  C_35
   13  A    between atoms: C_22  and  C_28
   14  A    between atoms: C_25  and  C_37
                            x       y       z     vdW  Elec       q    Type
                         _______ _______ _______ _____ _____    ______ ____

>  <TORSDO>
F 14

$$$$
=
 OpenBabel11062412263D

 37 40  0  0  1  0  0  0  0  0999 V2000
  181.5450  178.3630  139.5300 C   0  0  0  0  0  2  0  0  0  0  0  0
  185.2470  177.8260  137.3490 C   0  0  1  0  0  3  0  0  0  0  0  0
  186.1360  178.7660  139.3560 O   0  0  0  0  0  0  0  0  0  0  0  0
  183.8920  178.1190  139.5090 N   0  0  0  0  0  0  0  0  0  0  0  0
  183.9510  177.2330  136.7630 C   0  0  2  0  0  3  0  0  0  0  0  0
  183.6100  178.8740  140.7210 C   0  0  1  0  0  3  0  0  0  0  0  0
  183.9230  177.4290  135.3830 O   0  0  0  0  0  1  0  0  0  0  0  0
  182.6840  177.5890  138.8900 C   0  0  2  0  0  0  0  0  0  0  0  0
  182.0960  178.9350  140.8290 C   0  0  0  0  0  2  0  0  0  0  0  0
  185.1380  178.2380  138.7960 C   0  0  0  0  0  0  0  0  0  0  0  0
  182.6990  177.8430  137.3840 C   0  0  0  0  0  2  0  0  0  0  0  0
  181.5280  175.7120  139.8410 O   0  0  0  0  0  1  0  0  0  0  0  0
  182.5270  176.1190  139.1910 C   0  0  0  0  0  0  0  0  0  0  0  0
  183.4700  175.2010  138.7450 O   0  0  0  0  0  0  0  0  0  0  0  0
  186.4580  176.9110  137.1250 C   0  0  1  0  0  3  0  0  0  0  0  0
  186.0490  175.4760  136.8170 C   0  0  0  0  0  1  0  0  0  0  0  0
  187.2650  177.4070  136.0980 O   0  0  0  0  0  0  0  0  0  0  0  0
  188.2730  178.1220  136.7470 C   0  0  0  0  0  2  0  0  0  0  0  0
  189.5190  177.2670  136.8380 C   0  0  0  0  0  2  0  0  0  0  0  0
  190.3660  176.7740  140.0840 C   0  0  0  0  0  2  0  0  0  0  0  0
  189.6700  177.7620  139.3850 N   0  0  0  0  0  0  0  0  0  0  0  0
  189.8720  177.0510  138.2670 C   0  0  0  0  0  0  0  0  0  0  0  0
  190.6290  176.0010  138.9750 N   0  0  0  0  0  2  0  0  0  0  0  0
  184.1520  178.1410  141.9420 C   0  0  0  0  0  2  0  0  0  0  0  0
  185.3430  178.8660  142.5480 C   0  0  0  0  0  2  0  0  0  0  0  0
  186.4970  177.9110  142.8180 C   0  0  0  0  0  2  0  0  0  0  0  0
  186.5400  177.4830  144.2760 C   0  0  1  0  0  3  0  0  0  0  0  0
  187.9140  176.9040  144.5690 C   0  0  0  0  0  2  0  0  0  0  0  0
  190.8790  176.7810  146.4710 C   0  0  0  0  0  2  0  0  0  0  0  0
  190.1930  178.6480  143.5030 O   0  0  0  0  0  0  0  0  0  0  0  0
  189.1930  177.2830  146.9730 S   0  0  0  0  0  0  0  0  0  0  0  0
  191.2070  177.4690  145.2390 N   0  0  0  0  0  2  0  0  0  0  0  0
  190.0840  178.0480  144.6030 C   0  0  0  0  0  0  0  0  0  0  0  0
  188.7880  177.9100  145.3050 C   0  0  1  0  0  3  0  0  0  0  0  0
  186.2890  178.6750  145.1890 C   0  0  0  0  0  2  0  0  0  0  0  0
  185.4270  178.3120  146.2240 O   0  0  0  0  0  0  0  0  0  0  0  0
  184.1610  178.6800  145.7700 C   0  0  0  0  0  1  0  0  0  0  0  0
  1  9  1  0  0  0  0
  2 15  1  1  0  0  0
  2 10  1  0  0  0  0
  4  6  1  0  0  0  0
  5  7  1  6  0  0  0
  5  2  1  0  0  0  0
  5 11  1  0  0  0  0
  6  9  1  0  0  0  0
  6 24  1  1  0  0  0
  8 13  1  1  0  0  0
  8  4  1  0  0  0  0
  8  1  1  0  0  0  0
 10  3  2  0  0  0  0
 10  4  1  0  0  0  0
 11  8  1  0  0  0  0
 13 12  1  0  0  0  0
 14 13  2  0  0  0  0
 15 16  1  6  0  0  0
 17 18  1  0  0  0  0
 17 15  1  0  0  0  0
 18 19  1  0  0  0  0
 19 22  1  0  0  0  0
 21 20  1  0  0  0  0
 22 23  1  0  0  0  0
 22 21  2  0  0  0  0
 23 20  1  0  0  0  0
 24 25  1  0  0  0  0
 25 26  1  0  0  0  0
 27 26  1  6  0  0  0
 27 28  1  0  0  0  0
 27 35  1  0  0  0  0
 29 31  1  0  0  0  0
 30 33  2  0  0  0  0
 32 29  1  0  0  0  0
 33 32  1  0  0  0  0
 33 34  1  0  0  0  0
 34 28  1  6  0  0  0
 34 31  1  0  0  0  0
 35 36  1  0  0  0  0
 37 36  1  0  0  0  0
M  END
>  <MODEL>
2

>  <REMARK>
 VINA RESULT:      -6.6      3.203      8.841
  Name = 
  14 active torsions:
  status: ('A' for Active; 'I' for Inactive)
    1  A    between atoms: O_2  and  C_20
    2  A    between atoms: C_10  and  C_11
    3  A    between atoms: C_10  and  O_13
    4  A    between atoms: O_13  and  C_28
    5  A    between atoms: C_14  and  C_22
    6  A    between atoms: C_16  and  C_35
    7  A    between atoms: C_16  and  C_36
    8  A    between atoms: C_17  and  C_30
    9  A    between atoms: C_18  and  C_21
   10  A    between atoms: C_18  and  C_37
   11  A    between atoms: C_20  and  C_35
   12  A    between atoms: C_21  and  C_35
   13  A    between atoms: C_22  and  C_28
   14  A    between atoms: C_25  and  C_37
                            x       y       z     vdW  Elec       q    Type
                         _______ _______ _______ _____ _____    ______ ____

>  <TORSDO>
F 14

$$$$
=
 OpenBabel11062412263D

 37 40  0  0  1  0  0  0  0  0999 V2000
  181.2020  178.6630  139.0960 C   0  0  0  0  0  2  0  0  0  0  0  0
  184.6960  177.5530  136.7910 C   0  0  1  0  0  3  0  0  0  0  0  0
  185.7930  178.4020  138.7350 O   0  0  0  0  0  0  0  0  0  0  0  0
  183.4880  178.0870  138.9930 N   0  0  0  0  0  0  0  0  0  0  0  0
  183.3050  177.1370  136.2730 C   0  0  2  0  0  3  0  0  0  0  0  0
  183.3680  178.9020  140.1910 C   0  0  1  0  0  3  0  0  0  0  0  0
  183.2470  177.3030  134.8900 O   0  0  0  0  0  1  0  0  0  0  0  0
  182.1920  177.7200  138.4360 C   0  0  2  0  0  0  0  0  0  0  0  0
  181.8830  179.1810  140.3550 C   0  0  0  0  0  2  0  0  0  0  0  0
  184.7070  178.0100  138.2290 C   0  0  0  0  0  0  0  0  0  0  0  0
  182.1800  177.9340  136.9230 C   0  0  0  0  0  2  0  0  0  0  0  0
  182.6670  175.5750  139.4040 O   0  0  0  0  0  1  0  0  0  0  0  0
  181.8400  176.2960  138.7840 C   0  0  0  0  0  0  0  0  0  0  0  0
  180.6020  175.7670  138.4390 O   0  0  0  0  0  0  0  0  0  0  0  0
  185.7540  176.4690  136.5480 C   0  0  1  0  0  3  0  0  0  0  0  0
  185.1920  175.0630  136.7240 C   0  0  0  0  0  1  0  0  0  0  0  0
  186.3100  176.6040  135.2730 O   0  0  0  0  0  0  0  0  0  0  0  0
  186.8920  177.8720  135.2690 C   0  0  0  0  0  2  0  0  0  0  0  0
  188.3860  177.7430  135.4780 C   0  0  0  0  0  2  0  0  0  0  0  0
  189.2320  178.7980  138.5870 C   0  0  0  0  0  2  0  0  0  0  0  0
  188.9050  179.4290  137.3860 N   0  0  0  0  0  0  0  0  0  0  0  0
  188.7410  178.2150  136.8440 C   0  0  0  0  0  0  0  0  0  0  0  0
  189.1020  177.5190  138.0930 N   0  0  0  0  0  2  0  0  0  0  0  0
  183.8510  178.1270  141.4110 C   0  0  0  0  0  2  0  0  0  0  0  0
  185.2420  178.5670  141.8400 C   0  0  0  0  0  2  0  0  0  0  0  0
  185.5290  178.1780  143.2830 C   0  0  0  0  0  2  0  0  0  0  0  0
  187.0230  178.0790  143.5490 C   0  0  1  0  0  3  0  0  0  0  0  0
  187.2340  177.2720  144.8190 C   0  0  0  0  0  2  0  0  0  0  0  0
  188.2030  176.8310  148.1790 C   0  0  0  0  0  2  0  0  0  0  0  0
  190.2590  177.2840  145.2920 O   0  0  0  0  0  0  0  0  0  0  0  0
  187.1580  178.1320  147.4300 S   0  0  0  0  0  0  0  0  0  0  0  0
  189.4070  176.7040  147.3820 N   0  0  0  0  0  2  0  0  0  0  0  0
  189.3130  177.3350  146.1200 C   0  0  0  0  0  0  0  0  0  0  0  0
  188.0520  178.0550  145.8370 C   0  0  1  0  0  3  0  0  0  0  0  0
  187.7260  177.3890  142.3880 C   0  0  0  0  0  2  0  0  0  0  0  0
  188.9440  178.0160  142.1280 O   0  0  0  0  0  0  0  0  0  0  0  0
  189.7860  176.9830  141.7150 C   0  0  0  0  0  1  0  0  0  0  0  0
  1  9  1  0  0  0  0
  2 15  1  1  0  0  0
  2 10  1  0  0  0  0
  4  6  1  0  0  0  0
  5  7  1  6  0  0  0
  5  2  1  0  0  0  0
  5 11  1  0  0  0  0
  6  9  1  0  0  0  0
  6 24  1  1  0  0  0
  8 13  1  1  0  0  0
  8  4  1  0  0  0  0
  8  1  1  0  0  0  0
 10  3  2  0  0  0  0
 10  4  1  0  0  0  0
 11  8  1  0  0  0  0
 13 12  1  0  0  0  0
 14 13  2  0  0  0  0
 15 16  1  6  0  0  0
 17 15  1  0  0  0  0
 18 17  1  0  0  0  0
 18 19  1  0  0  0  0
 19 22  1  0  0  0  0
 21 20  1  0  0  0  0
 22 21  2  0  0  0  0
 22 23  1  0  0  0  0
 23 20  1  0  0  0  0
 24 25  1  0  0  0  0
 25 26  1  0  0  0  0
 26 27  1  0  0  0  0
 27 35  1  6  0  0  0
 27 28  1  0  0  0  0
 30 33  2  0  0  0  0
 31 29  1  0  0  0  0
 32 29  1  0  0  0  0
 33 32  1  0  0  0  0
 34 28  1  6  0  0  0
 34 33  1  0  0  0  0
 34 31  1  0  0  0  0
 36 35  1  0  0  0  0
 37 36  1  0  0  0  0
M  END
>  <MODEL>
3

>  <REMARK>
 VINA RESULT:      -6.4      3.538      8.851
  Name = 
  14 active torsions:
  status: ('A' for Active; 'I' for Inactive)
    1  A    between atoms: O_2  and  C_20
    2  A    between atoms: C_10  and  C_11
    3  A    between atoms: C_10  and  O_13
    4  A    between atoms: O_13  and  C_28
    5  A    between atoms: C_14  and  C_22
    6  A    between atoms: C_16  and  C_35
    7  A    between atoms: C_16  and  C_36
    8  A    between atoms: C_17  and  C_30
    9  A    between atoms: C_18  and  C_21
   10  A    between atoms: C_18  and  C_37
   11  A    between atoms: C_20  and  C_35
   12  A    between atoms: C_21  and  C_35
   13  A    between atoms: C_22  and  C_28
   14  A    between atoms: C_25  and  C_37
                            x       y       z     vdW  Elec       q    Type
                         _______ _______ _______ _____ _____    ______ ____

>  <TORSDO>
F 14

$$$$
=
 OpenBabel11062412263D

 37 40  0  0  1  0  0  0  0  0999 V2000
  189.3570  177.8440  136.5130 C   0  0  0  0  0  2  0  0  0  0  0  0
  189.3850  177.7950  140.8430 C   0  0  1  0  0  3  0  0  0  0  0  0
  187.1680  178.6150  140.4990 O   0  0  0  0  0  0  0  0  0  0  0  0
  188.1960  177.7860  138.5670 N   0  0  0  0  0  0  0  0  0  0  0  0
  190.5670  177.1580  140.0880 C   0  0  2  0  0  3  0  0  0  0  0  0
  187.2650  178.4040  137.6350 C   0  0  1  0  0  3  0  0  0  0  0  0
  191.7630  177.4760  140.7310 O   0  0  0  0  0  1  0  0  0  0  0  0
  189.3620  177.2220  137.8980 C   0  0  2  0  0  0  0  0  0  0  0  0
  187.9370  178.3380  136.2730 C   0  0  0  0  0  2  0  0  0  0  0  0
  188.1760  178.0640  139.9800 C   0  0  0  0  0  0  0  0  0  0  0  0
  190.6420  177.6110  138.6340 C   0  0  0  0  0  2  0  0  0  0  0  0
  188.1500  175.2060  137.4170 O   0  0  0  0  0  0  0  0  0  0  0  0
  189.2400  175.7240  137.7770 C   0  0  0  0  0  0  0  0  0  0  0  0
  190.3270  174.9010  138.0490 O   0  0  0  0  0  1  0  0  0  0  0  0
  189.0000  176.9990  142.0970 C   0  0  1  0  0  3  0  0  0  0  0  0
  190.0500  175.9580  142.4650 C   0  0  0  0  0  1  0  0  0  0  0  0
  188.7840  177.8610  143.1760 O   0  0  0  0  0  0  0  0  0  0  0  0
  188.8310  177.0400  144.3040 C   0  0  0  0  0  2  0  0  0  0  0  0
  189.3170  177.8410  145.4920 C   0  0  0  0  0  2  0  0  0  0  0  0
  191.9140  176.2170  146.9460 C   0  0  0  0  0  2  0  0  0  0  0  0
  191.6850  176.7880  145.6930 N   0  0  0  0  0  0  0  0  0  0  0  0
  190.4680  177.1440  146.1280 C   0  0  0  0  0  0  0  0  0  0  0  0
  190.6730  176.5310  147.4540 N   0  0  0  0  0  2  0  0  0  0  0  0
  185.9680  177.6070  137.5740 C   0  0  0  0  0  2  0  0  0  0  0  0
  184.8060  178.3820  138.1750 C   0  0  0  0  0  2  0  0  0  0  0  0
  183.8950  177.4750  138.9890 C   0  0  0  0  0  2  0  0  0  0  0  0
  182.9270  178.2770  139.8450 C   0  0  1  0  0  3  0  0  0  0  0  0
  183.7110  178.9460  140.9610 C   0  0  0  0  0  2  0  0  0  0  0  0
  184.6630  179.4640  144.3160 C   0  0  0  0  0  2  0  0  0  0  0  0
  181.3850  179.0680  142.9480 O   0  0  0  0  0  0  0  0  0  0  0  0
  185.1200  178.1130  143.1710 S   0  0  0  0  0  0  0  0  0  0  0  0
  183.2250  179.6340  144.2630 N   0  0  0  0  0  2  0  0  0  0  0  0
  182.6230  178.9860  143.1590 C   0  0  0  0  0  0  0  0  0  0  0  0
  183.5260  178.2100  142.2810 C   0  0  1  0  0  3  0  0  0  0  0  0
  182.2320  179.3410  139.0070 C   0  0  0  0  0  2  0  0  0  0  0  0
  180.9910  179.6520  139.5640 O   0  0  0  0  0  0  0  0  0  0  0  0
  180.3240  178.4290  139.6340 C   0  0  0  0  0  1  0  0  0  0  0  0
  1  8  1  0  0  0  0
  2 15  1  1  0  0  0
  4 10  1  0  0  0  0
  5  7  1  1  0  0  0
  5  2  1  0  0  0  0
  6 24  1  6  0  0  0
  6  4  1  0  0  0  0
  8 13  1  6  0  0  0
  8  4  1  0  0  0  0
  8 11  1  0  0  0  0
  9  1  1  0  0  0  0
  9  6  1  0  0  0  0
 10  3  2  0  0  0  0
 10  2  1  0  0  0  0
 11  5  1  0  0  0  0
 12 13  2  0  0  0  0
 13 14  1  0  0  0  0
 15 16  1  1  0  0  0
 15 17  1  0  0  0  0
 17 18  1  0  0  0  0
 18 19  1  0  0  0  0
 19 22  1  0  0  0  0
 20 23  1  0  0  0  0
 21 22  2  0  0  0  0
 21 20  1  0  0  0  0
 22 23  1  0  0  0  0
 24 25  1  0  0  0  0
 25 26  1  0  0  0  0
 27 26  1  6  0  0  0
 27 28  1  0  0  0  0
 30 33  2  0  0  0  0
 31 29  1  0  0  0  0
 32 29  1  0  0  0  0
 33 32  1  0  0  0  0
 34 28  1  6  0  0  0
 34 33  1  0  0  0  0
 34 31  1  0  0  0  0
 35 36  1  0  0  0  0
 35 27  1  0  0  0  0
 36 37  1  0  0  0  0
M  END
>  <MODEL>
4

>  <REMARK>
 VINA RESULT:      -6.4      2.873      7.173
  Name = 
  14 active torsions:
  status: ('A' for Active; 'I' for Inactive)
    1  A    between atoms: O_2  and  C_20
    2  A    between atoms: C_10  and  C_11
    3  A    between atoms: C_10  and  O_13
    4  A    between atoms: O_13  and  C_28
    5  A    between atoms: C_14  and  C_22
    6  A    between atoms: C_16  and  C_35
    7  A    between atoms: C_16  and  C_36
    8  A    between atoms: C_17  and  C_30
    9  A    between atoms: C_18  and  C_21
   10  A    between atoms: C_18  and  C_37
   11  A    between atoms: C_20  and  C_35
   12  A    between atoms: C_21  and  C_35
   13  A    between atoms: C_22  and  C_28
   14  A    between atoms: C_25  and  C_37
                            x       y       z     vdW  Elec       q    Type
                         _______ _______ _______ _____ _____    ______ ____

>  <TORSDO>
F 14

$$$$
=
 OpenBabel11062412263D

 37 40  0  0  1  0  0  0  0  0999 V2000
  192.2380  177.5930  142.4840 C   0  0  0  0  0  2  0  0  0  0  0  0
  188.2520  177.9710  144.1320 C   0  0  1  0  0  3  0  0  0  0  0  0
  187.7170  178.2210  141.8180 O   0  0  0  0  0  0  0  0  0  0  0  0
  189.8960  177.4680  142.2260 N   0  0  0  0  0  0  0  0  0  0  0  0
  189.4020  177.5550  145.0680 C   0  0  2  0  0  3  0  0  0  0  0  0
  190.3980  177.7620  140.8920 C   0  0  1  0  0  3  0  0  0  0  0  0
  189.2690  178.2000  146.2970 O   0  0  0  0  0  1  0  0  0  0  0  0
  190.9610  177.1260  143.1590 C   0  0  2  0  0  0  0  0  0  0  0  0
  191.9130  177.7200  141.0020 C   0  0  0  0  0  2  0  0  0  0  0  0
  188.5840  177.8700  142.6630 C   0  0  0  0  0  0  0  0  0  0  0  0
  190.7730  177.8690  144.4800 C   0  0  0  0  0  2  0  0  0  0  0  0
  190.1390  174.8860  142.8890 O   0  0  0  0  0  0  0  0  0  0  0  0
  191.0240  175.6350  143.3810 C   0  0  0  0  0  0  0  0  0  0  0  0
  192.0600  175.0720  144.1160 O   0  0  0  0  0  1  0  0  0  0  0  0
  186.9440  177.2340  144.4540 C   0  0  1  0  0  3  0  0  0  0  0  0
  186.4400  177.5410  145.8590 C   0  0  0  0  0  1  0  0  0  0  0  0
  185.9600  177.5510  143.5150 O   0  0  0  0  0  0  0  0  0  0  0  0
  185.1810  178.5320  144.1290 C   0  0  0  0  0  2  0  0  0  0  0  0
  183.8580  178.6540  143.4040 C   0  0  0  0  0  2  0  0  0  0  0  0
  184.4330  178.6200  140.0630 C   0  0  0  0  0  2  0  0  0  0  0  0
  183.7030  177.8230  140.9460 N   0  0  0  0  0  0  0  0  0  0  0  0
  184.0920  178.6410  141.9350 C   0  0  0  0  0  0  0  0  0  0  0  0
  184.8890  179.4900  141.0290 N   0  0  0  0  0  2  0  0  0  0  0  0
  189.9560  176.6850  139.9090 C   0  0  0  0  0  2  0  0  0  0  0  0
  191.0900  176.2700  138.9850 C   0  0  0  0  0  2  0  0  0  0  0  0
  190.7420  176.5290  137.5260 C   0  0  0  0  0  2  0  0  0  0  0  0
  190.9650  175.2930  136.6700 C   0  0  1  0  0  3  0  0  0  0  0  0
  191.9450  174.3800  137.3880 C   0  0  0  0  0  2  0  0  0  0  0  0
  194.4560  176.2920  135.8180 C   0  0  0  0  0  2  0  0  0  0  0  0
  194.8050  173.6730  138.2240 O   0  0  0  0  0  0  0  0  0  0  0  0
  193.1810  175.2110  135.0760 S   0  0  0  0  0  0  0  0  0  0  0  0
  195.1030  175.5600  136.8880 N   0  0  0  0  0  2  0  0  0  0  0  0
  194.3950  174.4000  137.2810 C   0  0  0  0  0  0  0  0  0  0  0  0
  193.1630  174.0920  136.5220 C   0  0  1  0  0  3  0  0  0  0  0  0
  189.6540  174.5530  136.4490 C   0  0  0  0  0  2  0  0  0  0  0  0
  189.5370  173.5060  137.3630 O   0  0  0  0  0  0  0  0  0  0  0  0
  188.4480  172.7640  136.9060 C   0  0  0  0  0  1  0  0  0  0  0  0
  1  8  1  0  0  0  0
  2 15  1  6  0  0  0
  2  5  1  0  0  0  0
  3 10  2  0  0  0  0
  4 10  1  0  0  0  0
  4  8  1  0  0  0  0
  5  7  1  1  0  0  0
  6 24  1  6  0  0  0
  6  9  1  0  0  0  0
  6  4  1  0  0  0  0
  8 13  1  1  0  0  0
  8 11  1  0  0  0  0
  9  1  1  0  0  0  0
 10  2  1  0  0  0  0
 11  5  1  0  0  0  0
 12 13  2  0  0  0  0
 13 14  1  0  0  0  0
 15 16  1  1  0  0  0
 17 18  1  0  0  0  0
 17 15  1  0  0  0  0
 19 18  1  0  0  0  0
 20 21  1  0  0  0  0
 20 23  1  0  0  0  0
 21 22  2  0  0  0  0
 22 19  1  0  0  0  0
 23 22  1  0  0  0  0
 25 24  1  0  0  0  0
 26 25  1  0  0  0  0
 27 35  1  1  0  0  0
 27 28  1  0  0  0  0
 27 26  1  0  0  0  0
 29 32  1  0  0  0  0
 31 29  1  0  0  0  0
 31 34  1  0  0  0  0
 32 33  1  0  0  0  0
 33 30  2  0  0  0  0
 34 33  1  0  0  0  0
 34 28  1  1  0  0  0
 35 36  1  0  0  0  0
 37 36  1  0  0  0  0
M  END
>  <MODEL>
5

>  <REMARK>
 VINA RESULT:      -6.4      2.023      3.238
  Name = 
  14 active torsions:
  status: ('A' for Active; 'I' for Inactive)
    1  A    between atoms: O_2  and  C_20
    2  A    between atoms: C_10  and  C_11
    3  A    between atoms: C_10  and  O_13
    4  A    between atoms: O_13  and  C_28
    5  A    between atoms: C_14  and  C_22
    6  A    between atoms: C_16  and  C_35
    7  A    between atoms: C_16  and  C_36
    8  A    between atoms: C_17  and  C_30
    9  A    between atoms: C_18  and  C_21
   10  A    between atoms: C_18  and  C_37
   11  A    between atoms: C_20  and  C_35
   12  A    between atoms: C_21  and  C_35
   13  A    between atoms: C_22  and  C_28
   14  A    between atoms: C_25  and  C_37
                            x       y       z     vdW  Elec       q    Type
                         _______ _______ _______ _____ _____    ______ ____

>  <TORSDO>
F 14

$$$$
=
 OpenBabel11062412263D

 37 40  0  0  1  0  0  0  0  0999 V2000
  189.3300  177.6200  136.3880 C   0  0  0  0  0  2  0  0  0  0  0  0
  189.5300  177.8410  140.7080 C   0  0  1  0  0  3  0  0  0  0  0  0
  187.3050  178.6530  140.4010 O   0  0  0  0  0  0  0  0  0  0  0  0
  188.2520  177.6970  138.4850 N   0  0  0  0  0  0  0  0  0  0  0  0
  190.6790  177.1500  139.9490 C   0  0  2  0  0  3  0  0  0  0  0  0
  187.2880  178.2620  137.5550 C   0  0  1  0  0  3  0  0  0  0  0  0
  191.9010  177.4990  140.5230 O   0  0  0  0  0  1  0  0  0  0  0  0
  189.3880  177.0850  137.8080 C   0  0  2  0  0  0  0  0  0  0  0  0
  187.9040  178.1060  136.1740 C   0  0  0  0  0  2  0  0  0  0  0  0
  188.2890  178.0640  139.8780 C   0  0  0  0  0  0  0  0  0  0  0  0
  190.6980  177.5110  138.4670 C   0  0  0  0  0  2  0  0  0  0  0  0
  188.1290  175.0510  137.5940 O   0  0  0  0  0  0  0  0  0  0  0  0
  189.2550  175.5830  137.7860 C   0  0  0  0  0  0  0  0  0  0  0  0
  190.3690  174.7710  137.9660 O   0  0  0  0  0  1  0  0  0  0  0  0
  189.1920  177.1280  142.0240 C   0  0  1  0  0  3  0  0  0  0  0  0
  190.1700  176.0030  142.3400 C   0  0  0  0  0  1  0  0  0  0  0  0
  189.1590  178.0410  143.0810 O   0  0  0  0  0  0  0  0  0  0  0  0
  188.3800  177.4250  144.0620 C   0  0  0  0  0  2  0  0  0  0  0  0
  186.9190  177.5150  143.6770 C   0  0  0  0  0  2  0  0  0  0  0  0
  185.1340  178.6280  146.3360 C   0  0  0  0  0  2  0  0  0  0  0  0
  184.8500  178.3780  144.9920 N   0  0  0  0  0  0  0  0  0  0  0  0
  186.1240  177.9890  144.8420 C   0  0  0  0  0  0  0  0  0  0  0  0
  186.4600  178.2640  146.2510 N   0  0  0  0  0  2  0  0  0  0  0  0
  185.9850  177.4720  137.5940 C   0  0  0  0  0  2  0  0  0  0  0  0
  184.8300  178.3220  138.0980 C   0  0  0  0  0  2  0  0  0  0  0  0
  183.4930  177.6280  137.8810 C   0  0  0  0  0  2  0  0  0  0  0  0
  183.3710  176.3700  138.7280 C   0  0  1  0  0  3  0  0  0  0  0  0
  182.5130  176.6870  139.9410 C   0  0  0  0  0  2  0  0  0  0  0  0
  180.5480  178.7960  141.9710 C   0  0  0  0  0  2  0  0  0  0  0  0
  184.1030  178.6920  141.6230 O   0  0  0  0  0  0  0  0  0  0  0  0
  180.5340  178.5840  140.1540 S   0  0  0  0  0  0  0  0  0  0  0  0
  181.9210  178.9790  142.3930 N   0  0  0  0  0  2  0  0  0  0  0  0
  182.8660  178.6270  141.4010 C   0  0  0  0  0  0  0  0  0  0  0  0
  182.3180  178.1890  140.0980 C   0  0  1  0  0  3  0  0  0  0  0  0
  182.7220  175.2500  137.9280 C   0  0  0  0  0  2  0  0  0  0  0  0
  183.5890  174.8140  136.9260 O   0  0  0  0  0  0  0  0  0  0  0  0
  184.5040  173.9960  137.5880 C   0  0  0  0  0  1  0  0  0  0  0  0
  1  8  1  0  0  0  0
  2 15  1  1  0  0  0
  4 10  1  0  0  0  0
  5  7  1  1  0  0  0
  5  2  1  0  0  0  0
  6 24  1  6  0  0  0
  6  4  1  0  0  0  0
  8 13  1  1  0  0  0
  8 11  1  0  0  0  0
  8  4  1  0  0  0  0
  9  1  1  0  0  0  0
  9  6  1  0  0  0  0
 10  3  2  0  0  0  0
 10  2  1  0  0  0  0
 11  5  1  0  0  0  0
 12 13  2  0  0  0  0
 13 14  1  0  0  0  0
 15 16  1  1  0  0  0
 15 17  1  0  0  0  0
 17 18  1  0  0  0  0
 19 18  1  0  0  0  0
 19 22  1  0  0  0  0
 21 20  1  0  0  0  0
 22 21  2  0  0  0  0
 22 23  1  0  0  0  0
 23 20  1  0  0  0  0
 24 25  1  0  0  0  0
 26 25  1  0  0  0  0
 27 26  1  6  0  0  0
 27 28  1  0  0  0  0
 29 32  1  0  0  0  0
 31 29  1  0  0  0  0
 33 30  2  0  0  0  0
 33 32  1  0  0  0  0
 34 28  1  1  0  0  0
 34 31  1  0  0  0  0
 34 33  1  0  0  0  0
 35 27  1  0  0  0  0
 36 37  1  0  0  0  0
 36 35  1  0  0  0  0
M  END
>  <MODEL>
6

>  <REMARK>
 VINA RESULT:      -6.1      2.989      6.018
  Name = 
  14 active torsions:
  status: ('A' for Active; 'I' for Inactive)
    1  A    between atoms: O_2  and  C_20
    2  A    between atoms: C_10  and  C_11
    3  A    between atoms: C_10  and  O_13
    4  A    between atoms: O_13  and  C_28
    5  A    between atoms: C_14  and  C_22
    6  A    between atoms: C_16  and  C_35
    7  A    between atoms: C_16  and  C_36
    8  A    between atoms: C_17  and  C_30
    9  A    between atoms: C_18  and  C_21
   10  A    between atoms: C_18  and  C_37
   11  A    between atoms: C_20  and  C_35
   12  A    between atoms: C_21  and  C_35
   13  A    between atoms: C_22  and  C_28
   14  A    between atoms: C_25  and  C_37
                            x       y       z     vdW  Elec       q    Type
                         _______ _______ _______ _____ _____    ______ ____

>  <TORSDO>
F 14

$$$$
=
 OpenBabel11062412263D

 37 40  0  0  1  0  0  0  0  0999 V2000
  192.2090  177.5400  142.4380 C   0  0  0  0  0  2  0  0  0  0  0  0
  188.3000  177.9370  144.2590 C   0  0  1  0  0  3  0  0  0  0  0  0
  187.6570  178.1180  141.9650 O   0  0  0  0  0  0  0  0  0  0  0  0
  189.8580  177.3920  142.2920 N   0  0  0  0  0  0  0  0  0  0  0  0
  189.4960  177.5540  145.1510 C   0  0  2  0  0  3  0  0  0  0  0  0
  190.2960  177.6510  140.9300 C   0  0  1  0  0  3  0  0  0  0  0  0
  189.4140  178.2330  146.3660 O   0  0  0  0  0  1  0  0  0  0  0  0
  190.9680  177.0830  143.1850 C   0  0  2  0  0  0  0  0  0  0  0  0
  191.8150  177.6230  140.9700 C   0  0  0  0  0  2  0  0  0  0  0  0
  188.5650  177.7970  142.7790 C   0  0  0  0  0  0  0  0  0  0  0  0
  190.8360  177.8620  144.4920 C   0  0  0  0  0  2  0  0  0  0  0  0
  190.2240  174.8170  142.9090 O   0  0  0  0  0  0  0  0  0  0  0  0
  191.0530  175.6000  143.4440 C   0  0  0  0  0  0  0  0  0  0  0  0
  192.0500  175.0800  144.2620 O   0  0  0  0  0  1  0  0  0  0  0  0
  187.0150  177.2000  144.6610 C   0  0  1  0  0  3  0  0  0  0  0  0
  186.6310  177.4620  146.1120 C   0  0  0  0  0  1  0  0  0  0  0  0
  185.9610  177.5580  143.8170 O   0  0  0  0  0  0  0  0  0  0  0  0
  185.3310  178.6240  144.4620 C   0  0  0  0  0  2  0  0  0  0  0  0
  183.9710  178.8570  143.8420 C   0  0  0  0  0  2  0  0  0  0  0  0
  184.2420  178.5930  140.4730 C   0  0  0  0  0  2  0  0  0  0  0  0
  183.4560  177.9800  141.4500 N   0  0  0  0  0  0  0  0  0  0  0  0
  184.0720  178.7460  142.3610 C   0  0  0  0  0  0  0  0  0  0  0  0
  184.9300  179.3970  141.3540 N   0  0  0  0  0  2  0  0  0  0  0  0
  189.8170  176.5450  139.9980 C   0  0  0  0  0  2  0  0  0  0  0  0
  189.6970  177.0330  138.5630 C   0  0  0  0  0  2  0  0  0  0  0  0
  188.3100  176.7630  137.9980 C   0  0  0  0  0  2  0  0  0  0  0  0
  188.2620  176.9990  136.4960 C   0  0  1  0  0  3  0  0  0  0  0  0
  188.4190  175.6620  135.7930 C   0  0  0  0  0  2  0  0  0  0  0  0
  187.5510  172.2730  135.3530 C   0  0  0  0  0  2  0  0  0  0  0  0
  190.1360  173.6830  137.3780 O   0  0  0  0  0  0  0  0  0  0  0  0
  186.5380  173.6640  135.9750 S   0  0  0  0  0  0  0  0  0  0  0  0
  188.8180  172.2870  136.0560 N   0  0  0  0  0  2  0  0  0  0  0  0
  189.0620  173.4960  136.7490 C   0  0  0  0  0  0  0  0  0  0  0  0
  187.9890  174.5130  136.6950 C   0  0  1  0  0  3  0  0  0  0  0  0
  186.9340  177.6270  136.0980 C   0  0  0  0  0  2  0  0  0  0  0  0
  186.2750  178.1080  137.2290 O   0  0  0  0  0  0  0  0  0  0  0  0
  185.0310  177.4790  137.2020 C   0  0  0  0  0  1  0  0  0  0  0  0
  1  8  1  0  0  0  0
  2 15  1  1  0  0  0
  2  5  1  0  0  0  0
  3 10  2  0  0  0  0
  4 10  1  0  0  0  0
  4  8  1  0  0  0  0
  5  7  1  1  0  0  0
  6 24  1  6  0  0  0
  6  9  1  0  0  0  0
  6  4  1  0  0  0  0
  8 13  1  1  0  0  0
  8 11  1  0  0  0  0
  9  1  1  0  0  0  0
 10  2  1  0  0  0  0
 11  5  1  0  0  0  0
 12 13  2  0  0  0  0
 13 14  1  0  0  0  0
 15 16  1  1  0  0  0
 17 18  1  0  0  0  0
 17 15  1  0  0  0  0
 19 18  1  0  0  0  0
 20 23  1  0  0  0  0
 20 21  1  0  0  0  0
 21 22  2  0  0  0  0
 22 19  1  0  0  0  0
 23 22  1  0  0  0  0
 25 24  1  0  0  0  0
 26 25  1  0  0  0  0
 27 28  1  6  0  0  0
 27 26  1  0  0  0  0
 29 31  1  0  0  0  0
 29 32  1  0  0  0  0
 31 34  1  0  0  0  0
 32 33  1  0  0  0  0
 33 30  2  0  0  0  0
 34 28  1  6  0  0  0
 34 33  1  0  0  0  0
 35 27  1  0  0  0  0
 35 36  1  0  0  0  0
 37 36  1  0  0  0  0
M  END
>  <MODEL>
7

>  <REMARK>
 VINA RESULT:      -6.0      1.760      2.949
  Name = 
  14 active torsions:
  status: ('A' for Active; 'I' for Inactive)
    1  A    between atoms: O_2  and  C_20
    2  A    between atoms: C_10  and  C_11
    3  A    between atoms: C_10  and  O_13
    4  A    between atoms: O_13  and  C_28
    5  A    between atoms: C_14  and  C_22
    6  A    between atoms: C_16  and  C_35
    7  A    between atoms: C_16  and  C_36
    8  A    between atoms: C_17  and  C_30
    9  A    between atoms: C_18  and  C_21
   10  A    between atoms: C_18  and  C_37
   11  A    between atoms: C_20  and  C_35
   12  A    between atoms: C_21  and  C_35
   13  A    between atoms: C_22  and  C_28
   14  A    between atoms: C_25  and  C_37
                            x       y       z     vdW  Elec       q    Type
                         _______ _______ _______ _____ _____    ______ ____

>  <TORSDO>
F 14

$$$$
=
 OpenBabel11062412263D

 37 40  0  0  1  0  0  0  0  0999 V2000
  189.3740  177.7110  136.5090 C   0  0  0  0  0  2  0  0  0  0  0  0
  189.4290  177.7800  140.8380 C   0  0  1  0  0  3  0  0  0  0  0  0
  187.2110  178.5940  140.4860 O   0  0  0  0  0  0  0  0  0  0  0  0
  188.2270  177.7110  138.5710 N   0  0  0  0  0  0  0  0  0  0  0  0
  190.6060  177.1220  140.0940 C   0  0  2  0  0  3  0  0  0  0  0  0
  187.2910  178.3040  137.6290 C   0  0  1  0  0  3  0  0  0  0  0  0
  191.8060  177.4550  140.7210 O   0  0  0  0  0  1  0  0  0  0  0  0
  189.3870  177.1270  137.9100 C   0  0  2  0  0  0  0  0  0  0  0  0
  187.9530  178.2000  136.2650 C   0  0  0  0  0  2  0  0  0  0  0  0
  188.2150  178.0280  139.9760 C   0  0  0  0  0  0  0  0  0  0  0  0
  190.6720  177.5340  138.6280 C   0  0  0  0  0  2  0  0  0  0  0  0
  190.2830  174.9000  137.9700 O   0  0  0  0  0  1  0  0  0  0  0  0
  189.2630  175.6260  137.8320 C   0  0  0  0  0  0  0  0  0  0  0  0
  188.0260  175.0280  137.6180 O   0  0  0  0  0  0  0  0  0  0  0  0
  189.0510  177.0200  142.1170 C   0  0  1  0  0  3  0  0  0  0  0  0
  190.1470  176.0600  142.5630 C   0  0  0  0  0  1  0  0  0  0  0  0
  188.7520  177.9140  143.1480 O   0  0  0  0  0  0  0  0  0  0  0  0
  189.0030  177.2030  144.3220 C   0  0  0  0  0  2  0  0  0  0  0  0
  187.7890  177.2740  145.2240 C   0  0  0  0  0  2  0  0  0  0  0  0
  188.7390  177.9030  148.4170 C   0  0  0  0  0  2  0  0  0  0  0  0
  189.3560  177.3450  147.2960 N   0  0  0  0  0  0  0  0  0  0  0  0
  188.2200  177.5610  146.6190 C   0  0  0  0  0  0  0  0  0  0  0  0
  187.5350  178.1360  147.7920 N   0  0  0  0  0  2  0  0  0  0  0  0
  185.9920  177.5080  137.5970 C   0  0  0  0  0  2  0  0  0  0  0  0
  184.8280  178.3130  138.1520 C   0  0  0  0  0  2  0  0  0  0  0  0
  183.5600  177.4740  138.2330 C   0  0  0  0  0  2  0  0  0  0  0  0
  182.5950  178.0180  139.2760 C   0  0  1  0  0  3  0  0  0  0  0  0
  181.8580  176.8490  139.9070 C   0  0  0  0  0  2  0  0  0  0  0  0
  179.1040  174.6490  139.9680 C   0  0  0  0  0  2  0  0  0  0  0  0
  179.6550  177.6100  141.8920 O   0  0  0  0  0  0  0  0  0  0  0  0
  179.7810  175.6290  138.5800 S   0  0  0  0  0  0  0  0  0  0  0  0
  178.9570  175.5270  141.1110 N   0  0  0  0  0  2  0  0  0  0  0  0
  179.6500  176.7520  140.9700 C   0  0  0  0  0  0  0  0  0  0  0  0
  180.3560  176.9650  139.6880 C   0  0  1  0  0  3  0  0  0  0  0  0
  183.3520  178.7810  140.3540 C   0  0  0  0  0  2  0  0  0  0  0  0
  183.7050  177.9170  141.3910 O   0  0  0  0  0  0  0  0  0  0  0  0
  183.4900  178.6580  142.5520 C   0  0  0  0  0  1  0  0  0  0  0  0
  1  8  1  0  0  0  0
  2 15  1  1  0  0  0
  4 10  1  0  0  0  0
  5  7  1  1  0  0  0
  5  2  1  0  0  0  0
  6 24  1  6  0  0  0
  6  4  1  0  0  0  0
  8 13  1  6  0  0  0
  8  4  1  0  0  0  0
  8 11  1  0  0  0  0
  9  1  1  0  0  0  0
  9  6  1  0  0  0  0
 10  3  2  0  0  0  0
 10  2  1  0  0  0  0
 11  5  1  0  0  0  0
 13 12  1  0  0  0  0
 14 13  2  0  0  0  0
 15 16  1  1  0  0  0
 15 17  1  0  0  0  0
 17 18  1  0  0  0  0
 18 19  1  0  0  0  0
 19 22  1  0  0  0  0
 21 20  1  0  0  0  0
 22 21  2  0  0  0  0
 22 23  1  0  0  0  0
 23 20  1  0  0  0  0
 24 25  1  0  0  0  0
 25 26  1  0  0  0  0
 27 26  1  6  0  0  0
 27 28  1  0  0  0  0
 27 35  1  0  0  0  0
 29 32  1  0  0  0  0
 31 34  1  0  0  0  0
 31 29  1  0  0  0  0
 33 32  1  0  0  0  0
 33 30  2  0  0  0  0
 34 28  1  1  0  0  0
 34 33  1  0  0  0  0
 35 36  1  0  0  0  0
 36 37  1  0  0  0  0
M  END
>  <MODEL>
8

>  <REMARK>
 VINA RESULT:      -6.0      3.312      7.081
  Name = 
  14 active torsions:
  status: ('A' for Active; 'I' for Inactive)
    1  A    between atoms: O_2  and  C_20
    2  A    between atoms: C_10  and  C_11
    3  A    between atoms: C_10  and  O_13
    4  A    between atoms: O_13  and  C_28
    5  A    between atoms: C_14  and  C_22
    6  A    between atoms: C_16  and  C_35
    7  A    between atoms: C_16  and  C_36
    8  A    between atoms: C_17  and  C_30
    9  A    between atoms: C_18  and  C_21
   10  A    between atoms: C_18  and  C_37
   11  A    between atoms: C_20  and  C_35
   12  A    between atoms: C_21  and  C_35
   13  A    between atoms: C_22  and  C_28
   14  A    between atoms: C_25  and  C_37
                            x       y       z     vdW  Elec       q    Type
                         _______ _______ _______ _____ _____    ______ ____

>  <TORSDO>
F 14

$$$$
=
 OpenBabel11062412263D

 37 40  0  0  1  0  0  0  0  0999 V2000
  189.4220  178.0310  136.9110 C   0  0  0  0  0  2  0  0  0  0  0  0
  189.2810  177.8330  141.2350 C   0  0  1  0  0  3  0  0  0  0  0  0
  187.0800  178.6700  140.8340 O   0  0  0  0  0  0  0  0  0  0  0  0
  188.1830  177.9050  138.9160 N   0  0  0  0  0  0  0  0  0  0  0  0
  190.4920  177.2200  140.5060 C   0  0  2  0  0  3  0  0  0  0  0  0
  187.2890  178.5570  137.9710 C   0  0  1  0  0  3  0  0  0  0  0  0
  191.6620  177.5130  141.2050 O   0  0  0  0  0  1  0  0  0  0  0  0
  189.3730  177.3620  138.2740 C   0  0  2  0  0  0  0  0  0  0  0  0
  188.0130  178.5350  136.6340 C   0  0  0  0  0  2  0  0  0  0  0  0
  188.1070  178.1350  140.3360 C   0  0  0  0  0  0  0  0  0  0  0  0
  190.6240  177.7230  139.0720 C   0  0  0  0  0  2  0  0  0  0  0  0
  188.1240  175.3410  137.9230 O   0  0  0  0  0  0  0  0  0  0  0  0
  189.2540  175.8680  138.0970 C   0  0  0  0  0  0  0  0  0  0  0  0
  190.3860  175.0620  138.1130 O   0  0  0  0  0  1  0  0  0  0  0  0
  188.8470  176.9970  142.4460 C   0  0  1  0  0  3  0  0  0  0  0  0
  189.7770  175.8160  142.6950 C   0  0  0  0  0  1  0  0  0  0  0  0
  188.7730  177.7940  143.5910 O   0  0  0  0  0  0  0  0  0  0  0  0
  189.2300  176.9770  144.6270 C   0  0  0  0  0  2  0  0  0  0  0  0
  189.8730  177.8320  145.6970 C   0  0  0  0  0  2  0  0  0  0  0  0
  187.9260  177.8810  148.4730 C   0  0  0  0  0  2  0  0  0  0  0  0
  187.7410  177.4930  147.1450 N   0  0  0  0  0  0  0  0  0  0  0  0
  189.0160  177.8350  146.9140 C   0  0  0  0  0  0  0  0  0  0  0  0
  189.2360  178.2720  148.3050 N   0  0  0  0  0  2  0  0  0  0  0  0
  185.9950  177.7650  137.8310 C   0  0  0  0  0  2  0  0  0  0  0  0
  185.7240  177.3840  136.3840 C   0  0  0  0  0  2  0  0  0  0  0  0
  184.3630  176.7220  136.2280 C   0  0  0  0  0  2  0  0  0  0  0  0
  183.9680  175.9540  137.4800 C   0  0  1  0  0  3  0  0  0  0  0  0
  182.6260  176.4780  137.9640 C   0  0  0  0  0  2  0  0  0  0  0  0
  181.5110  178.4500  140.6660 C   0  0  0  0  0  2  0  0  0  0  0  0
  180.3040  175.2740  139.5560 O   0  0  0  0  0  0  0  0  0  0  0  0
  183.1670  177.7420  140.3460 S   0  0  0  0  0  0  0  0  0  0  0  0
  180.5290  177.4000  140.4880 N   0  0  0  0  0  2  0  0  0  0  0  0
  181.0400  176.2600  139.8230 C   0  0  0  0  0  0  0  0  0  0  0  0
  182.4760  176.2950  139.4680 C   0  0  1  0  0  3  0  0  0  0  0  0
  183.8500  174.4670  137.1770 C   0  0  0  0  0  2  0  0  0  0  0  0
  184.8780  173.7680  137.8110 O   0  0  0  0  0  0  0  0  0  0  0  0
  185.5610  173.1360  136.7730 C   0  0  0  0  0  1  0  0  0  0  0  0
  1  8  1  0  0  0  0
  2 15  1  1  0  0  0
  4 10  1  0  0  0  0
  5  7  1  1  0  0  0
  5  2  1  0  0  0  0
  6 24  1  6  0  0  0
  6  4  1  0  0  0  0
  8 13  1  6  0  0  0
  8  4  1  0  0  0  0
  8 11  1  0  0  0  0
  9  1  1  0  0  0  0
  9  6  1  0  0  0  0
 10  3  2  0  0  0  0
 10  2  1  0  0  0  0
 11  5  1  0  0  0  0
 12 13  2  0  0  0  0
 13 14  1  0  0  0  0
 15 16  1  1  0  0  0
 15 17  1  0  0  0  0
 17 18  1  0  0  0  0
 18 19  1  0  0  0  0
 19 22  1  0  0  0  0
 21 20  1  0  0  0  0
 22 21  2  0  0  0  0
 22 23  1  0  0  0  0
 23 20  1  0  0  0  0
 25 24  1  0  0  0  0
 26 25  1  0  0  0  0
 27 26  1  6  0  0  0
 27 28  1  0  0  0  0
 30 33  2  0  0  0  0
 31 29  1  0  0  0  0
 32 29  1  0  0  0  0
 33 32  1  0  0  0  0
 34 28  1  6  0  0  0
 34 33  1  0  0  0  0
 34 31  1  0  0  0  0
 35 27  1  0  0  0  0
 35 36  1  0  0  0  0
 37 36  1  0  0  0  0
M  END
>  <MODEL>
9

>  <REMARK>
 VINA RESULT:      -6.0      3.269      6.150
  Name = 
  14 active torsions:
  status: ('A' for Active; 'I' for Inactive)
    1  A    between atoms: O_2  and  C_20
    2  A    between atoms: C_10  and  C_11
    3  A    between atoms: C_10  and  O_13
    4  A    between atoms: O_13  and  C_28
    5  A    between atoms: C_14  and  C_22
    6  A    between atoms: C_16  and  C_35
    7  A    between atoms: C_16  and  C_36
    8  A    between atoms: C_17  and  C_30
    9  A    between atoms: C_18  and  C_21
   10  A    between atoms: C_18  and  C_37
   11  A    between atoms: C_20  and  C_35
   12  A    between atoms: C_21  and  C_35
   13  A    between atoms: C_22  and  C_28
   14  A    between atoms: C_25  and  C_37
                            x       y       z     vdW  Elec       q    Type
                         _______ _______ _______ _____ _____    ______ ____

>  <TORSDO>
F 14

$$$$
