=
 OpenBabel11062414493D

 33 38  0  0  1  0  0  0  0  0999 V2000
  181.6160  178.9350  141.1860 C   0  0  1  0  0  3  0  0  0  0  0  0
  180.8660  176.2880  136.7130 C   0  0  0  0  0  2  0  0  0  0  0  0
  182.9930  176.8470  138.3500 C   0  0  1  0  0  3  0  0  0  0  0  0
  184.6650  178.9230  138.4240 C   0  0  0  0  0  2  0  0  0  0  0  0
  183.0590  178.2530  143.1590 C   0  0  0  0  0  2  0  0  0  0  0  0
  182.9830  179.0850  141.8780 C   0  0  1  0  0  3  0  0  0  0  0  0
  184.1220  179.1090  144.3630 S   0  0  0  0  0  0  0  0  0  0  0  0
  181.2780  179.0150  137.4660 C   0  0  0  0  0  0  0  0  0  0  0  0
  184.1460  175.3350  135.5700 O   0  0  0  0  0  1  0  0  0  0  0  0
  184.4000  176.6880  135.8190 C   0  0  2  0  0  3  0  0  0  0  0  0
  184.1460  178.7680  140.9180 C   0  0  2  0  0  3  0  0  0  0  0  0
  185.5120  179.0290  141.5440 C   0  0  0  0  0  2  0  0  0  0  0  0
  181.3380  177.5020  140.7470 C   0  0  0  0  0  2  0  0  0  0  0  0
  180.8260  177.4600  139.3090 C   0  0  0  0  0  2  0  0  0  0  0  0
  182.4200  177.3920  134.6700 O   0  0  0  0  0  1  0  0  0  0  0  0
  184.4470  177.4050  138.3000 C   0  0  2  0  0  3  0  0  0  0  0  0
  185.6840  178.2390  143.9460 C   0  0  0  0  0  2  0  0  0  0  0  0
  185.2400  176.8740  137.1010 C   0  0  1  0  0  3  0  0  0  0  0  0
  179.8990  177.3800  136.1610 C   0  0  0  0  0  2  0  0  0  0  0  0
  181.8870  177.9220  138.2920 C   0  0  2  0  0  0  0  0  0  0  0  0
  179.8500  179.8600  136.0500 N   0  0  0  0  0  0  0  0  0  0  0  0
  180.5210  180.8560  136.6650 C   0  0  0  0  0  0  0  0  0  0  0  0
  182.2070  176.9470  137.0840 C   0  0  2  0  0  0  0  0  0  0  0  0
  180.2920  182.2330  136.3940 N   0  0  0  0  0  1  0  0  0  0  0  0
  180.3160  178.7380  136.5600 N   0  0  0  0  0  0  0  0  0  0  0  0
  184.0100  179.5840  139.6380 C   0  0  0  0  0  2  0  0  0  0  0  0
  185.8670  177.8790  142.4720 C   0  0  0  0  0  2  0  0  0  0  0  0
  183.0840  177.4640  135.8980 C   0  0  1  0  0  3  0  0  0  0  0  0
  181.4400  180.3820  137.5960 C   0  0  0  0  0  3  0  0  0  0  0  0
  187.2690  175.9960  137.2190 C   0  0  0  0  0  1  0  0  0  0  0  0
  185.9240  175.7050  137.4490 O   0  0  0  0  0  0  0  0  0  0  0  0
  180.0560  180.7040  141.5570 O   0  0  0  0  0  1  0  0  0  0  0  0
  180.4740  179.4650  142.0400 C   0  0  0  0  0  2  0  0  0  0  0  0
  1  6  1  0  0  0  0
  1 33  1  1  0  0  0
  2 23  1  0  0  0  0
  4 26  1  0  0  0  0
  5  7  1  0  0  0  0
  6  5  1  0  0  0  0
  8 29  2  0  0  0  0
  8 20  1  0  0  0  0
  9 10  1  0  0  0  0
 10 28  1  0  0  0  0
 10 18  1  0  0  0  0
 11 12  1  0  0  0  0
 11  6  1  0  0  0  0
 12 27  1  0  0  0  0
 13  1  1  0  0  0  0
 14 13  1  0  0  0  0
 15 28  1  0  0  0  0
 16  3  1  0  0  0  0
 16  4  1  0  0  0  0
 17  7  1  0  0  0  0
 18 31  1  0  0  0  0
 18 16  1  0  0  0  0
 19 25  1  0  0  0  0
 19  2  1  0  0  0  0
 20  3  1  0  0  0  0
 20 14  1  0  0  0  0
 21 25  1  0  0  0  0
 21 22  2  0  0  0  0
 22 29  1  0  0  0  0
 23 20  1  0  0  0  0
 23  3  1  0  0  0  0
 24 22  1  0  0  0  0
 25  8  1  0  0  0  0
 26 11  1  0  0  0  0
 27 17  1  0  0  0  0
 28 23  1  0  0  0  0
 30 31  1  0  0  0  0
 32 33  1  0  0  0  0
M  END
>  <MODEL>
1

>  <REMARK>
 VINA RESULT:      -5.8      0.000      0.000
  Name = 
  2 active torsions:
  status: ('A' for Active; 'I' for Inactive)
    1  A    between atoms: C_1  and  C_31
    2  A    between atoms: C_20  and  O_24
                            x       y       z     vdW  Elec       q    Type
                         _______ _______ _______ _____ _____    ______ ____

>  <TORSDO>
F 2

$$$$
=
 OpenBabel11062414493D

 33 38  0  0  1  0  0  0  0  0999 V2000
  182.7150  175.2590  135.8400 C   0  0  1  0  0  3  0  0  0  0  0  0
  187.4870  177.0620  134.5940 C   0  0  0  0  0  2  0  0  0  0  0  0
  186.3950  174.6310  135.2400 C   0  0  1  0  0  3  0  0  0  0  0  0
  185.9700  173.4590  137.5980 C   0  0  0  0  0  2  0  0  0  0  0  0
  181.6260  173.1050  135.0560 C   0  0  0  0  0  2  0  0  0  0  0  0
  182.4120  173.7880  136.1770 C   0  0  1  0  0  3  0  0  0  0  0  0
  180.5160  171.8590  135.7820 S   0  0  0  0  0  0  0  0  0  0  0  0
  185.8730  176.9180  136.9500 C   0  0  0  0  0  0  0  0  0  0  0  0
  189.7430  174.2950  135.0760 O   0  0  0  0  0  1  0  0  0  0  0  0
  189.0650  174.2230  136.2980 C   0  0  2  0  0  3  0  0  0  0  0  0
  183.6920  173.0100  136.5360 C   0  0  2  0  0  3  0  0  0  0  0  0
  183.4040  171.5830  136.9940 C   0  0  0  0  0  2  0  0  0  0  0  0
  183.5850  175.4070  134.5970 C   0  0  0  0  0  2  0  0  0  0  0  0
  184.7320  176.3830  134.8440 C   0  0  0  0  0  2  0  0  0  0  0  0
  189.2750  176.5770  136.6860 O   0  0  0  0  0  1  0  0  0  0  0  0
  186.6110  173.4220  136.1990 C   0  0  2  0  0  3  0  0  0  0  0  0
  181.6390  170.4180  135.5970 C   0  0  0  0  0  2  0  0  0  0  0  0
  188.0870  173.0280  136.3270 C   0  0  1  0  0  3  0  0  0  0  0  0
  187.2910  178.3460  135.4560 C   0  0  0  0  0  2  0  0  0  0  0  0
  185.7330  175.8620  135.8940 C   0  0  2  0  0  0  0  0  0  0  0  0
  186.4120  178.8890  137.7140 N   0  0  0  0  0  0  0  0  0  0  0  0
  185.6620  178.2380  138.6270 C   0  0  0  0  0  0  0  0  0  0  0  0
  187.2620  175.8230  135.4810 C   0  0  2  0  0  0  0  0  0  0  0  0
  185.3040  178.8000  139.8840 N   0  0  0  0  0  1  0  0  0  0  0  0
  186.5230  178.0720  136.6860 N   0  0  0  0  0  0  0  0  0  0  0  0
  184.4670  173.7440  137.6240 C   0  0  0  0  0  2  0  0  0  0  0  0
  183.1280  170.7130  135.7790 C   0  0  0  0  0  2  0  0  0  0  0  0
  188.3420  175.5420  136.5750 C   0  0  1  0  0  3  0  0  0  0  0  0
  185.2710  176.9760  138.1920 C   0  0  0  0  0  3  0  0  0  0  0  0
  187.6570  170.9440  135.7180 C   0  0  0  0  0  1  0  0  0  0  0  0
  188.4170  172.0620  135.3720 O   0  0  0  0  0  0  0  0  0  0  0  0
  181.6330  177.3300  136.3320 O   0  0  0  0  0  1  0  0  0  0  0  0
  181.4510  176.0950  135.7110 C   0  0  0  0  0  2  0  0  0  0  0  0
  1 33  1  6  0  0  0
  1  6  1  0  0  0  0
  2 19  1  0  0  0  0
  2 23  1  0  0  0  0
  3 23  1  0  0  0  0
  3 20  1  0  0  0  0
  3 16  1  0  0  0  0
  4 26  1  0  0  0  0
  5  7  1  0  0  0  0
  5  6  1  0  0  0  0
  6 11  1  0  0  0  0
  8 29  2  0  0  0  0
  9 10  1  0  0  0  0
 10 18  1  0  0  0  0
 10 28  1  0  0  0  0
 11 12  1  0  0  0  0
 11 26  1  0  0  0  0
 13 14  1  0  0  0  0
 13  1  1  0  0  0  0
 14 20  1  0  0  0  0
 16 18  1  0  0  0  0
 16  4  1  0  0  0  0
 17 27  1  0  0  0  0
 17  7  1  0  0  0  0
 19 25  1  0  0  0  0
 20  8  1  0  0  0  0
 21 22  2  0  0  0  0
 22 24  1  0  0  0  0
 23 20  1  0  0  0  0
 23 28  1  0  0  0  0
 25  8  1  0  0  0  0
 25 21  1  0  0  0  0
 27 12  1  0  0  0  0
 28 15  1  0  0  0  0
 29 22  1  0  0  0  0
 31 30  1  0  0  0  0
 31 18  1  0  0  0  0
 33 32  1  0  0  0  0
M  END
>  <MODEL>
2

>  <REMARK>
 VINA RESULT:      -5.0      4.414      7.014
  Name = 
  2 active torsions:
  status: ('A' for Active; 'I' for Inactive)
    1  A    between atoms: C_1  and  C_31
    2  A    between atoms: C_20  and  O_24
                            x       y       z     vdW  Elec       q    Type
                         _______ _______ _______ _____ _____    ______ ____

>  <TORSDO>
F 2

$$$$
=
 OpenBabel11062414493D

 33 38  0  0  1  0  0  0  0  0999 V2000
  184.2670  178.3300  138.3450 C   0  0  1  0  0  3  0  0  0  0  0  0
  180.2460  175.1250  139.4140 C   0  0  0  0  0  2  0  0  0  0  0  0
  182.7250  174.8780  138.2660 C   0  0  1  0  0  3  0  0  0  0  0  0
  183.5470  175.2170  135.7520 C   0  0  0  0  0  2  0  0  0  0  0  0
  186.7420  177.8500  138.6350 C   0  0  0  0  0  2  0  0  0  0  0  0
  185.5680  177.8780  137.6550 C   0  0  1  0  0  3  0  0  0  0  0  0
  188.2720  178.2700  137.7430 S   0  0  0  0  0  0  0  0  0  0  0  0
  180.9360  176.9680  137.3390 C   0  0  0  0  0  0  0  0  0  0  0  0
  181.0760  171.9640  137.8980 O   0  0  0  0  0  1  0  0  0  0  0  0
  181.3390  172.7940  136.8020 C   0  0  2  0  0  3  0  0  0  0  0  0
  185.3910  176.5290  136.9330 C   0  0  2  0  0  3  0  0  0  0  0  0
  186.6290  176.1210  136.1400 C   0  0  0  0  0  2  0  0  0  0  0  0
  183.8350  177.3810  139.4570 C   0  0  0  0  0  2  0  0  0  0  0  0
  182.3500  177.0440  139.3430 C   0  0  0  0  0  2  0  0  0  0  0  0
  179.2750  173.9810  137.0560 O   0  0  0  0  0  1  0  0  0  0  0  0
  183.4190  174.3130  136.9910 C   0  0  2  0  0  3  0  0  0  0  0  0
  188.8000  176.5500  137.3760 C   0  0  0  0  0  2  0  0  0  0  0  0
  182.8580  172.9510  136.5700 C   0  0  1  0  0  3  0  0  0  0  0  0
  179.2010  176.1950  138.9730 C   0  0  0  0  0  2  0  0  0  0  0  0
  182.0240  176.2390  138.0700 C   0  0  2  0  0  0  0  0  0  0  0  0
  178.9310  177.7870  137.0860 N   0  0  0  0  0  0  0  0  0  0  0  0
  179.7460  178.2840  136.1340 C   0  0  0  0  0  0  0  0  0  0  0  0
  181.2310  174.8800  138.2550 C   0  0  2  0  0  0  0  0  0  0  0  0
  179.3120  179.2020  135.1390 N   0  0  0  0  0  1  0  0  0  0  0  0
  179.6770  176.9900  137.8250 N   0  0  0  0  0  0  0  0  0  0  0  0
  184.1870  176.5840  136.0000 C   0  0  0  0  0  2  0  0  0  0  0  0
  187.6720  175.5590  137.0920 C   0  0  0  0  0  2  0  0  0  0  0  0
  180.6610  174.1500  136.9960 C   0  0  1  0  0  3  0  0  0  0  0  0
  181.0490  177.8110  136.2500 C   0  0  0  0  0  3  0  0  0  0  0  0
  184.1090  171.1860  136.1040 C   0  0  0  0  0  1  0  0  0  0  0  0
  183.5850  171.9180  137.1690 O   0  0  0  0  0  0  0  0  0  0  0  0
  184.6750  179.7530  140.2180 O   0  0  0  0  0  1  0  0  0  0  0  0
  184.3520  179.7580  138.8620 C   0  0  0  0  0  2  0  0  0  0  0  0
  1 33  1  1  0  0  0
  1 13  1  0  0  0  0
  4 26  1  0  0  0  0
  4 16  1  0  0  0  0
  6  1  1  0  0  0  0
  6  5  1  0  0  0  0
  7  5  1  0  0  0  0
  8 25  1  0  0  0  0
  8 20  1  0  0  0  0
 10 28  1  0  0  0  0
 10  9  1  0  0  0  0
 11  6  1  0  0  0  0
 12 11  1  0  0  0  0
 12 27  1  0  0  0  0
 14 13  1  0  0  0  0
 16  3  1  0  0  0  0
 17  7  1  0  0  0  0
 18 10  1  0  0  0  0
 18 16  1  0  0  0  0
 18 31  1  0  0  0  0
 19  2  1  0  0  0  0
 20 23  1  0  0  0  0
 20  3  1  0  0  0  0
 20 14  1  0  0  0  0
 21 25  1  0  0  0  0
 22 29  1  0  0  0  0
 22 21  2  0  0  0  0
 23  3  1  0  0  0  0
 23  2  1  0  0  0  0
 24 22  1  0  0  0  0
 25 19  1  0  0  0  0
 26 11  1  0  0  0  0
 27 17  1  0  0  0  0
 28 15  1  0  0  0  0
 28 23  1  0  0  0  0
 29  8  2  0  0  0  0
 30 31  1  0  0  0  0
 33 32  1  0  0  0  0
M  END
>  <MODEL>
3

>  <REMARK>
 VINA RESULT:      -4.9      3.014      4.461
  Name = 
  2 active torsions:
  status: ('A' for Active; 'I' for Inactive)
    1  A    between atoms: C_1  and  C_31
    2  A    between atoms: C_20  and  O_24
                            x       y       z     vdW  Elec       q    Type
                         _______ _______ _______ _____ _____    ______ ____

>  <TORSDO>
F 2

$$$$
=
 OpenBabel11062414493D

 33 38  0  0  1  0  0  0  0  0999 V2000
  184.5160  176.9390  136.6490 C   0  0  1  0  0  3  0  0  0  0  0  0
  181.6490  179.3620  140.3220 C   0  0  0  0  0  2  0  0  0  0  0  0
  181.8430  176.8160  139.3210 C   0  0  1  0  0  3  0  0  0  0  0  0
  180.6560  175.6430  137.2410 C   0  0  0  0  0  2  0  0  0  0  0  0
  185.5800  174.6390  136.7910 C   0  0  0  0  0  2  0  0  0  0  0  0
  184.3780  175.4470  136.2960 C   0  0  1  0  0  3  0  0  0  0  0  0
  185.8890  173.2650  135.6380 S   0  0  0  0  0  0  0  0  0  0  0  0
  181.5420  179.0420  137.4820 C   0  0  0  0  0  0  0  0  0  0  0  0
  179.2180  176.9450  141.4280 O   0  0  0  0  0  1  0  0  0  0  0  0
  179.0350  176.8040  140.0470 C   0  0  2  0  0  3  0  0  0  0  0  0
  183.0460  174.8610  136.8030 C   0  0  2  0  0  3  0  0  0  0  0  0
  182.8320  173.4180  136.3580 C   0  0  0  0  0  2  0  0  0  0  0  0
  184.5660  177.1820  138.1530 C   0  0  0  0  0  2  0  0  0  0  0  0
  183.6240  178.3120  138.5570 C   0  0  0  0  0  2  0  0  0  0  0  0
  178.9310  179.1710  139.7000 O   0  0  0  0  0  1  0  0  0  0  0  0
  180.9580  175.6680  138.7500 C   0  0  2  0  0  3  0  0  0  0  0  0
  184.9200  171.9920  136.5380 C   0  0  0  0  0  2  0  0  0  0  0  0
  179.6530  175.4860  139.5320 C   0  0  1  0  0  3  0  0  0  0  0  0
  181.4590  180.6240  139.4240 C   0  0  0  0  0  2  0  0  0  0  0  0
  182.1420  177.9560  138.3240 C   0  0  2  0  0  0  0  0  0  0  0  0
  180.9070  181.0830  137.0470 N   0  0  0  0  0  0  0  0  0  0  0  0
  180.8910  180.3530  135.9130 C   0  0  0  0  0  0  0  0  0  0  0  0
  181.1550  178.1220  139.5530 C   0  0  2  0  0  0  0  0  0  0  0  0
  180.5110  180.8830  134.6500 N   0  0  0  0  0  1  0  0  0  0  0  0
  181.3190  180.2690  137.9980 N   0  0  0  0  0  0  0  0  0  0  0  0
  181.8790  175.7170  136.3250 C   0  0  0  0  0  2  0  0  0  0  0  0
  183.6580  172.4940  137.2380 C   0  0  0  0  0  2  0  0  0  0  0  0
  179.6140  178.0150  139.3140 C   0  0  1  0  0  3  0  0  0  0  0  0
  181.3030  179.0400  136.1210 C   0  0  0  0  0  3  0  0  0  0  0  0
  179.1140  173.4300  140.1520 C   0  0  0  0  0  1  0  0  0  0  0  0
  179.8290  174.5560  140.5620 O   0  0  0  0  0  0  0  0  0  0  0  0
  185.6690  177.3230  134.5940 O   0  0  0  0  0  1  0  0  0  0  0  0
  185.7070  177.5890  135.9620 C   0  0  0  0  0  2  0  0  0  0  0  0
  1 33  1  6  0  0  0
  1 13  1  0  0  0  0
  3 23  1  0  0  0  0
  4 16  1  0  0  0  0
  6  1  1  0  0  0  0
  6  5  1  0  0  0  0
  6 11  1  0  0  0  0
  7 17  1  0  0  0  0
  7  5  1  0  0  0  0
  8 25  1  0  0  0  0
  8 20  1  0  0  0  0
 10  9  1  0  0  0  0
 12 11  1  0  0  0  0
 12 27  1  0  0  0  0
 13 14  1  0  0  0  0
 16  3  1  0  0  0  0
 16 18  1  0  0  0  0
 17 27  1  0  0  0  0
 18 10  1  0  0  0  0
 18 31  1  0  0  0  0
 19  2  1  0  0  0  0
 20 14  1  0  0  0  0
 20  3  1  0  0  0  0
 20 23  1  0  0  0  0
 21 25  1  0  0  0  0
 22 29  1  0  0  0  0
 22 21  2  0  0  0  0
 23  2  1  0  0  0  0
 24 22  1  0  0  0  0
 25 19  1  0  0  0  0
 26 11  1  0  0  0  0
 26  4  1  0  0  0  0
 28 23  1  0  0  0  0
 28 15  1  0  0  0  0
 28 10  1  0  0  0  0
 29  8  2  0  0  0  0
 30 31  1  0  0  0  0
 32 33  1  0  0  0  0
M  END
>  <MODEL>
4

>  <REMARK>
 VINA RESULT:      -4.6      3.060      5.993
  Name = 
  2 active torsions:
  status: ('A' for Active; 'I' for Inactive)
    1  A    between atoms: C_1  and  C_31
    2  A    between atoms: C_20  and  O_24
                            x       y       z     vdW  Elec       q    Type
                         _______ _______ _______ _____ _____    ______ ____

>  <TORSDO>
F 2

$$$$
=
 OpenBabel11062414493D

 33 38  0  0  1  0  0  0  0  0999 V2000
  184.8840  178.8530  141.5100 C   0  0  1  0  0  3  0  0  0  0  0  0
  181.0700  176.4920  138.7790 C   0  0  0  0  0  2  0  0  0  0  0  0
  183.8060  176.6280  138.6490 C   0  0  1  0  0  3  0  0  0  0  0  0
  185.4320  178.3760  137.4610 C   0  0  0  0  0  2  0  0  0  0  0  0
  187.1280  177.8780  142.1860 C   0  0  0  0  0  2  0  0  0  0  0  0
  186.3820  178.7430  141.1690 C   0  0  1  0  0  3  0  0  0  0  0  0
  188.8280  178.5040  142.3650 S   0  0  0  0  0  0  0  0  0  0  0  0
  182.2740  179.0850  138.8470 C   0  0  0  0  0  0  0  0  0  0  0  0
  182.6800  175.0070  135.9190 O   0  0  0  0  0  1  0  0  0  0  0  0
  183.2360  176.2880  135.8260 C   0  0  2  0  0  3  0  0  0  0  0  0
  186.6030  178.2510  139.7260 C   0  0  2  0  0  3  0  0  0  0  0  0
  188.0740  178.2520  139.3240 C   0  0  0  0  0  2  0  0  0  0  0  0
  184.1770  177.5030  141.4800 C   0  0  0  0  0  2  0  0  0  0  0  0
  182.8690  177.5870  140.6970 C   0  0  0  0  0  2  0  0  0  0  0  0
  181.1140  177.3580  136.1220 O   0  0  0  0  0  1  0  0  0  0  0  0
  184.9590  176.9230  137.6430 C   0  0  2  0  0  3  0  0  0  0  0  0
  189.6120  177.3830  141.1410 C   0  0  0  0  0  2  0  0  0  0  0  0
  184.7160  176.2910  136.2680 C   0  0  1  0  0  3  0  0  0  0  0  0
  180.1530  177.7510  138.8610 C   0  0  0  0  0  2  0  0  0  0  0  0
  183.0950  177.8820  139.2010 C   0  0  2  0  0  0  0  0  0  0  0  0
  180.4210  180.2040  138.5760 N   0  0  0  0  0  0  0  0  0  0  0  0
  181.4710  181.0500  138.5350 C   0  0  0  0  0  0  0  0  0  0  0  0
  182.4210  176.8970  138.1590 C   0  0  2  0  0  0  0  0  0  0  0  0
  181.3330  182.4520  138.3430 N   0  0  0  0  0  1  0  0  0  0  0  0
  180.9280  179.0040  138.7790 N   0  0  0  0  0  0  0  0  0  0  0  0
  185.8090  179.1100  138.7480 C   0  0  0  0  0  2  0  0  0  0  0  0
  188.7590  177.0350  139.9220 C   0  0  0  0  0  2  0  0  0  0  0  0
  182.4080  177.2800  136.6440 C   0  0  1  0  0  3  0  0  0  0  0  0
  182.6860  180.3980  138.7190 C   0  0  0  0  0  3  0  0  0  0  0  0
  186.6020  175.1870  136.6160 C   0  0  0  0  0  1  0  0  0  0  0  0
  185.2770  175.0120  136.2140 O   0  0  0  0  0  0  0  0  0  0  0  0
  184.1050  178.6540  143.7580 O   0  0  0  0  0  1  0  0  0  0  0  0
  184.6440  179.5530  142.8390 C   0  0  0  0  0  2  0  0  0  0  0  0
  1 33  1  1  0  0  0
  2 19  1  0  0  0  0
  3 20  1  0  0  0  0
  4 16  1  0  0  0  0
  4 26  1  0  0  0  0
  5  7  1  0  0  0  0
  6  1  1  0  0  0  0
  6  5  1  0  0  0  0
  8 20  1  0  0  0  0
 10  9  1  0  0  0  0
 10 18  1  0  0  0  0
 10 28  1  0  0  0  0
 11  6  1  0  0  0  0
 12 11  1  0  0  0  0
 12 27  1  0  0  0  0
 13  1  1  0  0  0  0
 14 13  1  0  0  0  0
 15 28  1  0  0  0  0
 16  3  1  0  0  0  0
 17  7  1  0  0  0  0
 18 16  1  0  0  0  0
 20 14  1  0  0  0  0
 21 25  1  0  0  0  0
 22 21  2  0  0  0  0
 22 29  1  0  0  0  0
 23  3  1  0  0  0  0
 23  2  1  0  0  0  0
 23 20  1  0  0  0  0
 24 22  1  0  0  0  0
 25  8  1  0  0  0  0
 25 19  1  0  0  0  0
 26 11  1  0  0  0  0
 27 17  1  0  0  0  0
 28 23  1  0  0  0  0
 29  8  2  0  0  0  0
 31 18  1  0  0  0  0
 31 30  1  0  0  0  0
 33 32  1  0  0  0  0
M  END
>  <MODEL>
5

>  <REMARK>
 VINA RESULT:      -4.3      2.108      2.747
  Name = 
  2 active torsions:
  status: ('A' for Active; 'I' for Inactive)
    1  A    between atoms: C_1  and  C_31
    2  A    between atoms: C_20  and  O_24
                            x       y       z     vdW  Elec       q    Type
                         _______ _______ _______ _____ _____    ______ ____

>  <TORSDO>
F 2

$$$$
=
 OpenBabel11062414493D

 33 38  0  0  1  0  0  0  0  0999 V2000
  188.4920  177.1990  136.1070 C   0  0  1  0  0  3  0  0  0  0  0  0
  193.2840  175.4960  134.7980 C   0  0  0  0  0  2  0  0  0  0  0  0
  190.7980  174.3780  135.0970 C   0  0  1  0  0  3  0  0  0  0  0  0
  189.5550  173.3900  137.2390 C   0  0  0  0  0  2  0  0  0  0  0  0
  186.2790  176.5420  135.0520 C   0  0  0  0  0  2  0  0  0  0  0  0
  187.2520  176.2900  136.2050 C   0  0  1  0  0  3  0  0  0  0  0  0
  184.5780  176.2660  135.6380 S   0  0  0  0  0  0  0  0  0  0  0  0
  191.8660  176.0450  137.2200 C   0  0  0  0  0  0  0  0  0  0  0  0
  193.0330  171.9090  134.5940 O   0  0  0  0  0  1  0  0  0  0  0  0
  192.4160  172.0880  135.8370 C   0  0  2  0  0  3  0  0  0  0  0  0
  187.6430  174.8040  136.3120 C   0  0  2  0  0  3  0  0  0  0  0  0
  186.4380  173.8950  136.5340 C   0  0  0  0  0  2  0  0  0  0  0  0
  189.3010  176.9490  134.8400 C   0  0  0  0  0  2  0  0  0  0  0  0
  190.7900  176.8250  135.1570 C   0  0  0  0  0  2  0  0  0  0  0  0
  194.1430  173.5540  136.6140 O   0  0  0  0  0  1  0  0  0  0  0  0
  190.0810  173.1910  135.8070 C   0  0  2  0  0  3  0  0  0  0  0  0
  184.4360  174.5140  135.1080 C   0  0  0  0  0  2  0  0  0  0  0  0
  190.8880  171.8900  135.7390 C   0  0  1  0  0  3  0  0  0  0  0  0
  193.9600  176.3850  135.8860 C   0  0  0  0  0  2  0  0  0  0  0  0
  191.1090  175.5820  136.0110 C   0  0  2  0  0  0  0  0  0  0  0  0
  193.5520  176.9460  138.2700 N   0  0  0  0  0  0  0  0  0  0  0  0
  192.5080  176.8180  139.1150 C   0  0  0  0  0  0  0  0  0  0  0  0
  192.2280  174.5990  135.4690 C   0  0  2  0  0  0  0  0  0  0  0  0
  192.5530  177.2270  140.4760 N   0  0  0  0  0  1  0  0  0  0  0  0
  193.1400  176.4790  137.1090 N   0  0  0  0  0  0  0  0  0  0  0  0
  188.6450  174.6020  137.4420 C   0  0  0  0  0  2  0  0  0  0  0  0
  185.7160  173.6860  135.2130 C   0  0  0  0  0  2  0  0  0  0  0  0
  192.7640  173.4650  136.4020 C   0  0  1  0  0  3  0  0  0  0  0  0
  191.3920  176.2620  138.4990 C   0  0  0  0  0  3  0  0  0  0  0  0
  189.1430  171.0350  134.6790 C   0  0  0  0  0  1  0  0  0  0  0  0
  190.5310  171.1540  134.6040 O   0  0  0  0  0  0  0  0  0  0  0  0
  188.2940  179.0860  137.5570 O   0  0  0  0  0  1  0  0  0  0  0  0
  188.1390  178.6730  136.2340 C   0  0  0  0  0  2  0  0  0  0  0  0
  1  6  1  0  0  0  0
  1 33  1  6  0  0  0
  2 23  1  0  0  0  0
  2 19  1  0  0  0  0
  3 23  1  0  0  0  0
  3 16  1  0  0  0  0
  3 20  1  0  0  0  0
  4 26  1  0  0  0  0
  5  7  1  0  0  0  0
  5  6  1  0  0  0  0
  6 11  1  0  0  0  0
  8 29  2  0  0  0  0
  9 10  1  0  0  0  0
 10 28  1  0  0  0  0
 11 12  1  0  0  0  0
 11 26  1  0  0  0  0
 13 14  1  0  0  0  0
 13  1  1  0  0  0  0
 14 20  1  0  0  0  0
 16  4  1  0  0  0  0
 17 27  1  0  0  0  0
 17  7  1  0  0  0  0
 18 16  1  0  0  0  0
 18 10  1  0  0  0  0
 19 25  1  0  0  0  0
 20  8  1  0  0  0  0
 21 22  2  0  0  0  0
 22 24  1  0  0  0  0
 23 20  1  0  0  0  0
 23 28  1  0  0  0  0
 25  8  1  0  0  0  0
 25 21  1  0  0  0  0
 27 12  1  0  0  0  0
 28 15  1  0  0  0  0
 29 22  1  0  0  0  0
 31 30  1  0  0  0  0
 31 18  1  0  0  0  0
 33 32  1  0  0  0  0
M  END
>  <MODEL>
6

>  <REMARK>
 VINA RESULT:      -4.1      7.162     10.020
  Name = 
  2 active torsions:
  status: ('A' for Active; 'I' for Inactive)
    1  A    between atoms: C_1  and  C_31
    2  A    between atoms: C_20  and  O_24
                            x       y       z     vdW  Elec       q    Type
                         _______ _______ _______ _____ _____    ______ ____

>  <TORSDO>
F 2

$$$$
=
 OpenBabel11062414493D

 33 38  0  0  1  0  0  0  0  0999 V2000
  181.5930  177.9180  140.7810 C   0  0  1  0  0  3  0  0  0  0  0  0
  181.1520  174.1840  137.1150 C   0  0  0  0  0  2  0  0  0  0  0  0
  183.1980  175.6150  138.2470 C   0  0  1  0  0  3  0  0  0  0  0  0
  184.2400  177.9920  137.6330 C   0  0  0  0  0  2  0  0  0  0  0  0
  183.3550  178.0950  142.5990 C   0  0  0  0  0  2  0  0  0  0  0  0
  182.9290  178.5560  141.2040 C   0  0  1  0  0  3  0  0  0  0  0  0
  184.2590  179.4440  143.4200 S   0  0  0  0  0  0  0  0  0  0  0  0
  180.8780  177.0290  137.2240 C   0  0  0  0  0  0  0  0  0  0  0  0
  184.4370  173.8130  135.6860 O   0  0  0  0  0  1  0  0  0  0  0  0
  184.3370  175.2070  135.6120 C   0  0  2  0  0  3  0  0  0  0  0  0
  184.0330  178.3120  140.1570 C   0  0  2  0  0  3  0  0  0  0  0  0
  185.3320  179.0380  140.4930 C   0  0  0  0  0  2  0  0  0  0  0  0
  181.6730  176.3980  140.6920 C   0  0  0  0  0  2  0  0  0  0  0  0
  181.0520  175.8930  139.3920 C   0  0  0  0  0  2  0  0  0  0  0  0
  182.1360  175.1150  134.6710 O   0  0  0  0  0  1  0  0  0  0  0  0
  184.4330  176.4810  137.8560 C   0  0  2  0  0  3  0  0  0  0  0  0
  185.9490  178.9060  142.9480 C   0  0  0  0  0  2  0  0  0  0  0  0
  185.2180  175.8900  136.6800 C   0  0  1  0  0  3  0  0  0  0  0  0
  179.8740  174.8460  136.5120 C   0  0  0  0  0  2  0  0  0  0  0  0
  181.8410  176.3440  138.1480 C   0  0  2  0  0  0  0  0  0  0  0  0
  179.1420  177.1400  135.9090 N   0  0  0  0  0  0  0  0  0  0  0  0
  179.5740  178.3860  136.1950 C   0  0  0  0  0  0  0  0  0  0  0  0
  182.2930  175.2180  137.1280 C   0  0  2  0  0  0  0  0  0  0  0  0
  178.9530  179.5610  135.6900 N   0  0  0  0  0  1  0  0  0  0  0  0
  179.9440  176.3190  136.5560 N   0  0  0  0  0  0  0  0  0  0  0  0
  183.5540  178.7420  138.7760 C   0  0  0  0  0  2  0  0  0  0  0  0
  186.0760  178.2630  141.5680 C   0  0  0  0  0  2  0  0  0  0  0  0
  182.8740  175.6350  135.7380 C   0  0  1  0  0  3  0  0  0  0  0  0
  180.6740  178.3840  137.0460 C   0  0  0  0  0  3  0  0  0  0  0  0
  187.3980  175.5250  136.5680 C   0  0  0  0  0  1  0  0  0  0  0  0
  186.2240  175.0390  137.1460 O   0  0  0  0  0  0  0  0  0  0  0  0
  179.4950  177.3190  141.7530 O   0  0  0  0  0  1  0  0  0  0  0  0
  180.4400  178.3410  141.6790 C   0  0  0  0  0  2  0  0  0  0  0  0
  1  6  1  0  0  0  0
  1 33  1  1  0  0  0
  2 23  1  0  0  0  0
  4 16  1  0  0  0  0
  4 26  1  0  0  0  0
  5  7  1  0  0  0  0
  6  5  1  0  0  0  0
  8 20  1  0  0  0  0
 10  9  1  0  0  0  0
 10 28  1  0  0  0  0
 10 18  1  0  0  0  0
 11 12  1  0  0  0  0
 11  6  1  0  0  0  0
 12 27  1  0  0  0  0
 13  1  1  0  0  0  0
 14 13  1  0  0  0  0
 15 28  1  0  0  0  0
 16  3  1  0  0  0  0
 17  7  1  0  0  0  0
 18 31  1  0  0  0  0
 18 16  1  0  0  0  0
 19 25  1  0  0  0  0
 19  2  1  0  0  0  0
 20  3  1  0  0  0  0
 20 14  1  0  0  0  0
 21 22  2  0  0  0  0
 21 25  1  0  0  0  0
 22 29  1  0  0  0  0
 23 20  1  0  0  0  0
 23  3  1  0  0  0  0
 24 22  1  0  0  0  0
 25  8  1  0  0  0  0
 26 11  1  0  0  0  0
 27 17  1  0  0  0  0
 28 23  1  0  0  0  0
 29  8  2  0  0  0  0
 30 31  1  0  0  0  0
 33 32  1  0  0  0  0
M  END
>  <MODEL>
7

>  <REMARK>
 VINA RESULT:      -3.8      1.523      1.766
  Name = 
  2 active torsions:
  status: ('A' for Active; 'I' for Inactive)
    1  A    between atoms: C_1  and  C_31
    2  A    between atoms: C_20  and  O_24
                            x       y       z     vdW  Elec       q    Type
                         _______ _______ _______ _____ _____    ______ ____

>  <TORSDO>
F 2

$$$$
=
 OpenBabel11062414493D

 33 38  0  0  1  0  0  0  0  0999 V2000
  186.6750  177.6310  136.2050 C   0  0  1  0  0  3  0  0  0  0  0  0
  191.2490  175.4290  134.8610 C   0  0  0  0  0  2  0  0  0  0  0  0
  188.6540  174.5890  135.1430 C   0  0  1  0  0  3  0  0  0  0  0  0
  187.3060  173.7070  137.2690 C   0  0  0  0  0  2  0  0  0  0  0  0
  184.4040  177.2430  135.1410 C   0  0  0  0  0  2  0  0  0  0  0  0
  185.3420  176.8640  136.2880 C   0  0  1  0  0  3  0  0  0  0  0  0
  182.6830  177.1480  135.7240 S   0  0  0  0  0  0  0  0  0  0  0  0
  189.8990  176.0890  137.2940 C   0  0  0  0  0  0  0  0  0  0  0  0
  190.6010  171.8960  134.5940 O   0  0  0  0  0  1  0  0  0  0  0  0
  190.0070  172.1200  135.8410 C   0  0  2  0  0  3  0  0  0  0  0  0
  185.5650  175.3420  136.3690 C   0  0  2  0  0  3  0  0  0  0  0  0
  184.2660  174.5690  136.5760 C   0  0  0  0  0  2  0  0  0  0  0  0
  187.4530  177.3140  134.9330 C   0  0  0  0  0  2  0  0  0  0  0  0
  188.9180  177.0200  135.2470 C   0  0  0  0  0  2  0  0  0  0  0  0
  191.8850  173.3710  136.6420 O   0  0  0  0  0  1  0  0  0  0  0  0
  187.8090  173.4760  135.8320 C   0  0  2  0  0  3  0  0  0  0  0  0
  182.3470  175.4330  135.1640 C   0  0  0  0  0  2  0  0  0  0  0  0
  188.4660  172.0950  135.7400 C   0  0  1  0  0  3  0  0  0  0  0  0
  192.0200  176.2170  135.9640 C   0  0  0  0  0  2  0  0  0  0  0  0
  189.0960  175.7350  136.0780 C   0  0  2  0  0  0  0  0  0  0  0  0
  191.6740  176.7780  138.3590 N   0  0  0  0  0  0  0  0  0  0  0  0
  190.6220  176.7520  139.2020 C   0  0  0  0  0  0  0  0  0  0  0  0
  190.0990  174.6430  135.5180 C   0  0  2  0  0  0  0  0  0  0  0  0
  190.7110  177.1290  140.5700 N   0  0  0  0  0  1  0  0  0  0  0  0
  191.2140  176.3800  137.1900 N   0  0  0  0  0  0  0  0  0  0  0  0
  186.5370  175.0100  137.4940 C   0  0  0  0  0  2  0  0  0  0  0  0
  183.5270  174.4660  135.2520 C   0  0  0  0  0  2  0  0  0  0  0  0
  190.5050  173.4400  136.4300 C   0  0  1  0  0  3  0  0  0  0  0  0
  189.4510  176.3350  138.5780 C   0  0  0  0  0  3  0  0  0  0  0  0
  187.2720  170.3550  135.0720 C   0  0  0  0  0  1  0  0  0  0  0  0
  188.0300  171.4240  134.5930 O   0  0  0  0  0  0  0  0  0  0  0  0
  187.6660  179.7110  136.8320 O   0  0  0  0  0  1  0  0  0  0  0  0
  186.4890  179.1330  136.3590 C   0  0  0  0  0  2  0  0  0  0  0  0
  1  6  1  0  0  0  0
  1 33  1  6  0  0  0
  2 23  1  0  0  0  0
  2 19  1  0  0  0  0
  3 23  1  0  0  0  0
  3 16  1  0  0  0  0
  3 20  1  0  0  0  0
  4 26  1  0  0  0  0
  5  7  1  0  0  0  0
  5  6  1  0  0  0  0
  6 11  1  0  0  0  0
  8 29  2  0  0  0  0
  9 10  1  0  0  0  0
 10 28  1  0  0  0  0
 11 12  1  0  0  0  0
 11 26  1  0  0  0  0
 13 14  1  0  0  0  0
 13  1  1  0  0  0  0
 14 20  1  0  0  0  0
 16  4  1  0  0  0  0
 17 27  1  0  0  0  0
 17  7  1  0  0  0  0
 18 16  1  0  0  0  0
 18 10  1  0  0  0  0
 19 25  1  0  0  0  0
 20  8  1  0  0  0  0
 21 22  2  0  0  0  0
 22 24  1  0  0  0  0
 23 20  1  0  0  0  0
 23 28  1  0  0  0  0
 25  8  1  0  0  0  0
 25 21  1  0  0  0  0
 27 12  1  0  0  0  0
 28 15  1  0  0  0  0
 29 22  1  0  0  0  0
 31 30  1  0  0  0  0
 31 18  1  0  0  0  0
 33 32  1  0  0  0  0
M  END
>  <MODEL>
8

>  <REMARK>
 VINA RESULT:      -3.4      6.074      8.602
  Name = 
  2 active torsions:
  status: ('A' for Active; 'I' for Inactive)
    1  A    between atoms: C_1  and  C_31
    2  A    between atoms: C_20  and  O_24
                            x       y       z     vdW  Elec       q    Type
                         _______ _______ _______ _____ _____    ______ ____

>  <TORSDO>
F 2

$$$$
=
 OpenBabel11062414493D

 33 38  0  0  1  0  0  0  0  0999 V2000
  185.3900  177.7960  137.3680 C   0  0  1  0  0  3  0  0  0  0  0  0
  181.3570  177.0040  140.6380 C   0  0  0  0  0  2  0  0  0  0  0  0
  182.4560  175.6920  138.4950 C   0  0  1  0  0  3  0  0  0  0  0  0
  182.0380  175.9370  135.8730 C   0  0  0  0  0  2  0  0  0  0  0  0
  187.0410  176.0710  136.5090 C   0  0  0  0  0  2  0  0  0  0  0  0
  185.7580  176.8490  136.2110 C   0  0  1  0  0  3  0  0  0  0  0  0
  187.9300  175.7710  134.9490 S   0  0  0  0  0  0  0  0  0  0  0  0
  181.8340  178.5180  138.2590 C   0  0  0  0  0  0  0  0  0  0  0  0
  179.5910  174.1420  139.3490 O   0  0  0  0  0  1  0  0  0  0  0  0
  179.6950  174.8720  138.1600 C   0  0  2  0  0  3  0  0  0  0  0  0
  184.5900  175.9120  135.8470 C   0  0  2  0  0  3  0  0  0  0  0  0
  184.8880  175.0500  134.6240 C   0  0  0  0  0  2  0  0  0  0  0  0
  185.1100  177.0500  138.6680 C   0  0  0  0  0  2  0  0  0  0  0  0
  183.8230  177.5480  139.3190 C   0  0  0  0  0  2  0  0  0  0  0  0
  178.9620  176.8990  139.2030 O   0  0  0  0  0  1  0  0  0  0  0  0
  182.0580  175.0520  137.1320 C   0  0  2  0  0  3  0  0  0  0  0  0
  187.2390  174.1050  134.6100 C   0  0  0  0  0  2  0  0  0  0  0  0
  180.7500  174.2570  137.2150 C   0  0  1  0  0  3  0  0  0  0  0  0
  180.9620  178.5130  140.6080 C   0  0  0  0  0  2  0  0  0  0  0  0
  182.5740  177.2310  138.4750 C   0  0  2  0  0  0  0  0  0  0  0  0
  180.7120  180.2810  138.8830 N   0  0  0  0  0  0  0  0  0  0  0  0
  181.1040  180.4250  137.6010 C   0  0  0  0  0  0  0  0  0  0  0  0
  181.3870  176.4660  139.1950 C   0  0  2  0  0  0  0  0  0  0  0  0
  180.8050  181.5740  136.8190 N   0  0  0  0  0  1  0  0  0  0  0  0
  181.1760  179.1130  139.2770 N   0  0  0  0  0  0  0  0  0  0  0  0
  183.3220  176.7210  135.6010 C   0  0  0  0  0  2  0  0  0  0  0  0
  185.7860  173.8940  135.0320 C   0  0  0  0  0  2  0  0  0  0  0  0
  180.0100  176.3360  138.4690 C   0  0  1  0  0  3  0  0  0  0  0  0
  181.8410  179.3360  137.1450 C   0  0  0  0  0  3  0  0  0  0  0  0
  181.3020  172.3160  136.3050 C   0  0  0  0  0  1  0  0  0  0  0  0
  181.0130  172.9200  137.5290 O   0  0  0  0  0  0  0  0  0  0  0  0
  187.0180  179.2270  136.3680 O   0  0  0  0  0  1  0  0  0  0  0  0
  186.4370  178.8770  137.5860 C   0  0  0  0  0  2  0  0  0  0  0  0
  1 33  1  1  0  0  0
  1 13  1  0  0  0  0
  3 23  1  0  0  0  0
  4 16  1  0  0  0  0
  6  5  1  0  0  0  0
  6  1  1  0  0  0  0
  7  5  1  0  0  0  0
  8 20  1  0  0  0  0
  8 25  1  0  0  0  0
 10 28  1  0  0  0  0
 10  9  1  0  0  0  0
 11  6  1  0  0  0  0
 12 27  1  0  0  0  0
 12 11  1  0  0  0  0
 13 14  1  0  0  0  0
 16 18  1  0  0  0  0
 16  3  1  0  0  0  0
 17  7  1  0  0  0  0
 17 27  1  0  0  0  0
 18 31  1  0  0  0  0
 18 10  1  0  0  0  0
 19  2  1  0  0  0  0
 20  3  1  0  0  0  0
 20 23  1  0  0  0  0
 20 14  1  0  0  0  0
 21 25  1  0  0  0  0
 22 21  2  0  0  0  0
 23  2  1  0  0  0  0
 24 22  1  0  0  0  0
 25 19  1  0  0  0  0
 26 11  1  0  0  0  0
 26  4  1  0  0  0  0
 28 23  1  0  0  0  0
 28 15  1  0  0  0  0
 29 22  1  0  0  0  0
 29  8  2  0  0  0  0
 30 31  1  0  0  0  0
 32 33  1  0  0  0  0
M  END
>  <MODEL>
9

>  <REMARK>
 VINA RESULT:      -3.2      3.069      5.630
  Name = 
  2 active torsions:
  status: ('A' for Active; 'I' for Inactive)
    1  A    between atoms: C_1  and  C_31
    2  A    between atoms: C_20  and  O_24
                            x       y       z     vdW  Elec       q    Type
                         _______ _______ _______ _____ _____    ______ ____

>  <TORSDO>
F 2

$$$$
