=
 OpenBabel11062416443D

 28 32  0  0  1  0  0  0  0  0999 V2000
  185.0810  177.8790  143.7730 C   0  0  0  0  0  3  0  0  0  0  0  0
  191.1990  177.8410  144.8450 C   0  0  1  0  0  3  0  0  0  0  0  0
  188.5090  177.8360  142.2390 C   0  0  0  0  0  0  0  0  0  0  0  0
  189.3360  177.9280  143.3760 C   0  0  0  0  0  0  0  0  0  0  0  0
  185.9130  179.2400  146.3320 C   0  0  0  0  0  2  0  0  0  0  0  0
  192.2690  174.8690  146.6630 O   0  0  0  0  0  0  0  0  0  0  0  0
  184.6020  178.8270  145.9810 O   0  0  0  0  0  0  0  0  0  0  0  0
  189.7600  177.3110  146.9630 C   0  0  1  0  0  3  0  0  0  0  0  0
  191.0820  176.7340  147.4580 C   0  0  0  0  0  2  0  0  0  0  0  0
  191.7150  175.9180  146.3830 C   0  0  0  0  0  0  0  0  0  0  0  0
  186.5600  177.9080  143.7250 C   0  0  0  0  0  0  0  0  0  0  0  0
  189.2270  178.2090  148.0630 C   0  0  0  0  0  1  0  0  0  0  0  0
  184.2480  178.2550  144.7540 C   0  0  0  0  0  3  0  0  0  0  0  0
  189.9120  178.1330  145.6620 C   0  0  2  0  0  3  0  0  0  0  0  0
  187.4120  177.9860  144.8560 C   0  0  0  0  0  0  0  0  0  0  0  0
  188.8080  177.9690  144.6540 C   0  0  0  0  0  0  0  0  0  0  0  0
  191.6860  176.3900  144.9640 C   0  0  0  0  0  2  0  0  0  0  0  0
  187.1230  177.8220  142.4450 C   0  0  0  0  0  3  0  0  0  0  0  0
  190.8160  178.0660  143.3880 C   0  0  0  0  0  2  0  0  0  0  0  0
  186.8530  178.0640  146.2350 C   0  0  0  0  0  2  0  0  0  0  0  0
  191.2170  175.6550  138.6930 O   0  0  0  0  0  1  0  0  0  0  0  0
  190.0580  176.3460  139.0400 C   0  0  2  0  0  3  0  0  0  0  0  0
  188.6400  178.6450  139.9110 C   0  0  0  0  0  3  0  0  0  0  0  0
  189.1710  178.5870  138.5360 C   0  0  0  0  0  0  0  0  0  0  0  0
  188.9460  179.6420  137.6630 O   0  0  0  0  0  1  0  0  0  0  0  0
  189.0280  177.7640  140.8460 C   0  0  0  0  0  0  0  0  0  0  0  0
  189.8770  177.5280  138.1310 C   0  0  0  0  0  3  0  0  0  0  0  0
  190.1300  176.7830  140.5070 C   0  0  0  0  0  2  0  0  0  0  0  0
  1 13  2  0  0  0  0
  2 19  1  6  0  0  0
  2 17  1  0  0  0  0
  2 14  1  0  0  0  0
  3 18  2  0  0  0  0
  3  4  1  0  0  0  0
  4 19  1  0  0  0  0
  4 16  2  0  0  0  0
  7  5  1  0  0  0  0
  8  9  1  0  0  0  0
  8 12  1  1  0  0  0
 10  6  2  0  0  0  0
 10  9  1  0  0  0  0
 11  1  1  0  0  0  0
 11 15  2  0  0  0  0
 13  7  1  0  0  0  0
 14 16  1  6  0  0  0
 14  8  1  0  0  0  0
 15 20  1  0  0  0  0
 16 15  1  0  0  0  0
 17 10  1  0  0  0  0
 18 11  1  0  0  0  0
 20  5  1  0  0  0  0
 22 21  1  6  0  0  0
 22 28  1  0  0  0  0
 23 26  2  0  0  0  0
 24 23  1  0  0  0  0
 25 24  1  0  0  0  0
 26  3  1  0  0  0  0
 27 24  2  0  0  0  0
 27 22  1  0  0  0  0
 28 26  1  0  0  0  0
M  END
>  <MODEL>
1

>  <REMARK>
 VINA RESULT:     -12.0      0.000      0.000
  Name = 
  1 active torsions:
  status: ('A' for Active; 'I' for Inactive)
    1  A    between atoms: C_4  and  C_25
                            x       y       z     vdW  Elec       q    Type
                         _______ _______ _______ _____ _____    ______ ____

>  <TORSDO>
F 1

$$$$
=
 OpenBabel11062416443D

 28 32  0  0  1  0  0  0  0  0999 V2000
  185.0270  177.9050  144.1880 C   0  0  0  0  0  3  0  0  0  0  0  0
  191.1870  177.8070  144.9750 C   0  0  1  0  0  3  0  0  0  0  0  0
  188.3790  177.7740  142.4980 C   0  0  0  0  0  0  0  0  0  0  0  0
  189.2590  177.8840  143.5920 C   0  0  0  0  0  0  0  0  0  0  0  0
  185.9950  179.3190  146.6690 C   0  0  0  0  0  2  0  0  0  0  0  0
  192.3020  174.8680  146.8190 O   0  0  0  0  0  0  0  0  0  0  0  0
  184.6640  178.9150  146.3900 O   0  0  0  0  0  0  0  0  0  0  0  0
  189.8410  177.3520  147.1710 C   0  0  1  0  0  3  0  0  0  0  0  0
  191.1780  176.7690  147.6190 C   0  0  0  0  0  2  0  0  0  0  0  0
  191.7490  175.9170  146.5370 C   0  0  0  0  0  0  0  0  0  0  0  0
  186.5020  177.9120  144.0710 C   0  0  0  0  0  0  0  0  0  0  0  0
  189.3720  178.2850  148.2700 C   0  0  0  0  0  1  0  0  0  0  0  0
  184.2450  178.3170  145.1960 C   0  0  0  0  0  3  0  0  0  0  0  0
  189.9440  178.1380  145.8430 C   0  0  2  0  0  3  0  0  0  0  0  0
  187.4060  178.0060  145.1580 C   0  0  0  0  0  0  0  0  0  0  0  0
  188.7920  177.9650  144.8920 C   0  0  0  0  0  0  0  0  0  0  0  0
  191.6600  176.3540  145.1100 C   0  0  0  0  0  2  0  0  0  0  0  0
  187.0030  177.7850  142.7690 C   0  0  0  0  0  3  0  0  0  0  0  0
  190.7390  178.0010  143.5320 C   0  0  0  0  0  2  0  0  0  0  0  0
  186.9140  178.1270  146.5600 C   0  0  0  0  0  2  0  0  0  0  0  0
  188.2920  179.2340  137.7520 O   0  0  0  0  0  1  0  0  0  0  0  0
  189.0350  178.7590  138.8310 C   0  0  2  0  0  3  0  0  0  0  0  0
  189.7790  176.7800  140.7250 C   0  0  0  0  0  3  0  0  0  0  0  0
  190.2110  176.6510  139.3200 C   0  0  0  0  0  0  0  0  0  0  0  0
  191.0070  175.5810  138.9370 O   0  0  0  0  0  1  0  0  0  0  0  0
  188.8300  177.6590  141.0850 C   0  0  0  0  0  0  0  0  0  0  0  0
  189.8290  177.5540  138.4130 C   0  0  0  0  0  3  0  0  0  0  0  0
  188.1040  178.4280  140.0020 C   0  0  0  0  0  2  0  0  0  0  0  0
  1 13  2  0  0  0  0
  2 19  1  6  0  0  0
  2 17  1  0  0  0  0
  2 14  1  0  0  0  0
  3 18  2  0  0  0  0
  3  4  1  0  0  0  0
  4 16  2  0  0  0  0
  7  5  1  0  0  0  0
  8  9  1  0  0  0  0
  8 12  1  1  0  0  0
 10  6  2  0  0  0  0
 10  9  1  0  0  0  0
 11  1  1  0  0  0  0
 11 15  2  0  0  0  0
 13  7  1  0  0  0  0
 14 16  1  6  0  0  0
 14  8  1  0  0  0  0
 15 20  1  0  0  0  0
 16 15  1  0  0  0  0
 17 10  1  0  0  0  0
 18 11  1  0  0  0  0
 19  4  1  0  0  0  0
 20  5  1  0  0  0  0
 22 21  1  6  0  0  0
 22 28  1  0  0  0  0
 23 26  2  0  0  0  0
 24 23  1  0  0  0  0
 25 24  1  0  0  0  0
 26  3  1  0  0  0  0
 27 22  1  0  0  0  0
 27 24  2  0  0  0  0
 28 26  1  0  0  0  0
M  END
>  <MODEL>
2

>  <REMARK>
 VINA RESULT:     -12.0      0.348      1.596
  Name = 
  1 active torsions:
  status: ('A' for Active; 'I' for Inactive)
    1  A    between atoms: C_4  and  C_25
                            x       y       z     vdW  Elec       q    Type
                         _______ _______ _______ _____ _____    ______ ____

>  <TORSDO>
F 1

$$$$
=
 OpenBabel11062416443D

 28 32  0  0  1  0  0  0  0  0999 V2000
  185.3280  177.9800  145.2180 C   0  0  0  0  0  3  0  0  0  0  0  0
  191.3690  177.2490  143.9720 C   0  0  1  0  0  3  0  0  0  0  0  0
  187.9650  177.8800  142.5450 C   0  0  0  0  0  0  0  0  0  0  0  0
  189.1410  177.7230  143.3040 C   0  0  0  0  0  0  0  0  0  0  0  0
  187.1790  178.8510  147.4340 C   0  0  0  0  0  2  0  0  0  0  0  0
  192.5920  173.9500  144.9240 O   0  0  0  0  0  0  0  0  0  0  0  0
  185.7840  178.6110  147.5410 O   0  0  0  0  0  0  0  0  0  0  0  0
  190.7020  176.5230  146.3940 C   0  0  1  0  0  3  0  0  0  0  0  0
  192.0230  175.7650  146.3040 C   0  0  0  0  0  2  0  0  0  0  0  0
  192.1230  175.0740  144.9870 C   0  0  0  0  0  0  0  0  0  0  0  0
  186.6870  177.8880  144.6370 C   0  0  0  0  0  0  0  0  0  0  0  0
  190.7150  177.2820  147.7070 C   0  0  0  0  0  1  0  0  0  0  0  0
  184.9490  178.2690  146.4710 C   0  0  0  0  0  3  0  0  0  0  0  0
  190.5010  177.5210  145.2300 C   0  0  2  0  0  3  0  0  0  0  0  0
  187.8820  177.7160  145.3810 C   0  0  0  0  0  0  0  0  0  0  0  0
  189.1040  177.6110  144.6820 C   0  0  0  0  0  0  0  0  0  0  0  0
  191.6650  175.7610  143.7400 C   0  0  0  0  0  2  0  0  0  0  0  0
  186.7500  177.9540  143.2400 C   0  0  0  0  0  3  0  0  0  0  0  0
  190.5360  177.7300  142.7910 C   0  0  0  0  0  2  0  0  0  0  0  0
  187.8560  177.6270  146.8680 C   0  0  0  0  0  2  0  0  0  0  0  0
  190.1610  177.4340  138.1130 O   0  0  0  0  0  1  0  0  0  0  0  0
  189.0050  177.3000  138.8800 C   0  0  2  0  0  3  0  0  0  0  0  0
  186.8330  178.3200  140.3960 C   0  0  0  0  0  3  0  0  0  0  0  0
  186.8240  178.4400  138.9250 C   0  0  0  0  0  0  0  0  0  0  0  0
  185.7370  179.0220  138.2870 O   0  0  0  0  0  1  0  0  0  0  0  0
  187.9490  177.9800  141.0610 C   0  0  0  0  0  0  0  0  0  0  0  0
  187.8610  178.0030  138.2070 C   0  0  0  0  0  3  0  0  0  0  0  0
  189.2460  177.8560  140.2870 C   0  0  0  0  0  2  0  0  0  0  0  0
  1 13  2  0  0  0  0
  2 19  1  6  0  0  0
  2 14  1  0  0  0  0
  3 18  2  0  0  0  0
  3  4  1  0  0  0  0
  4 16  2  0  0  0  0
  5  7  1  0  0  0  0
  6 10  2  0  0  0  0
  8 12  1  1  0  0  0
  9  8  1  0  0  0  0
 10  9  1  0  0  0  0
 11  1  1  0  0  0  0
 11 15  2  0  0  0  0
 13  7  1  0  0  0  0
 14 16  1  6  0  0  0
 14  8  1  0  0  0  0
 15 20  1  0  0  0  0
 16 15  1  0  0  0  0
 17  2  1  0  0  0  0
 17 10  1  0  0  0  0
 18 11  1  0  0  0  0
 19  4  1  0  0  0  0
 20  5  1  0  0  0  0
 22 21  1  6  0  0  0
 22 28  1  0  0  0  0
 23 26  2  0  0  0  0
 24 23  1  0  0  0  0
 25 24  1  0  0  0  0
 26  3  1  0  0  0  0
 27 22  1  0  0  0  0
 27 24  2  0  0  0  0
 28 26  1  0  0  0  0
M  END
>  <MODEL>
3

>  <REMARK>
 VINA RESULT:     -10.0      1.389      1.592
  Name = 
  1 active torsions:
  status: ('A' for Active; 'I' for Inactive)
    1  A    between atoms: C_4  and  C_25
                            x       y       z     vdW  Elec       q    Type
                         _______ _______ _______ _____ _____    ______ ____

>  <TORSDO>
F 1

$$$$
=
 OpenBabel11062416443D

 28 32  0  0  1  0  0  0  0  0999 V2000
  189.4990  176.7610  145.7970 C   0  0  0  0  0  3  0  0  0  0  0  0
  188.7020  178.2560  139.8220 C   0  0  1  0  0  3  0  0  0  0  0  0
  187.0760  177.9400  143.1800 C   0  0  0  0  0  0  0  0  0  0  0  0
  187.9080  178.0660  142.0510 C   0  0  0  0  0  0  0  0  0  0  0  0
  191.9620  177.8450  144.4380 C   0  0  0  0  0  2  0  0  0  0  0  0
  189.3210  175.4390  137.5940 O   0  0  0  0  0  0  0  0  0  0  0  0
  191.9150  177.1470  145.6720 O   0  0  0  0  0  0  0  0  0  0  0  0
  190.9420  176.9930  140.2970 C   0  0  1  0  0  3  0  0  0  0  0  0
  190.8700  176.7340  138.7960 C   0  0  0  0  0  2  0  0  0  0  0  0
  189.4880  176.3220  138.4170 C   0  0  0  0  0  0  0  0  0  0  0  0
  189.0320  177.2100  144.4660 C   0  0  0  0  0  0  0  0  0  0  0  0
  192.3380  177.5050  140.5940 C   0  0  0  0  0  1  0  0  0  0  0  0
  190.7400  176.7160  146.3000 C   0  0  0  0  0  3  0  0  0  0  0  0
  189.9030  178.0330  140.7790 C   0  0  2  0  0  3  0  0  0  0  0  0
  189.8480  177.3300  143.3140 C   0  0  0  0  0  0  0  0  0  0  0  0
  189.2520  177.7400  142.1020 C   0  0  0  0  0  0  0  0  0  0  0  0
  188.3050  177.0010  139.0320 C   0  0  0  0  0  2  0  0  0  0  0  0
  187.6660  177.5040  144.3750 C   0  0  0  0  0  3  0  0  0  0  0  0
  187.5250  178.6080  140.7220 C   0  0  0  0  0  2  0  0  0  0  0  0
  191.3030  177.0140  143.3650 C   0  0  0  0  0  2  0  0  0  0  0  0
  182.8920  179.3250  145.4680 O   0  0  0  0  0  1  0  0  0  0  0  0
  183.6900  179.3780  144.3270 C   0  0  2  0  0  3  0  0  0  0  0  0
  184.9120  178.2410  142.0320 C   0  0  0  0  0  3  0  0  0  0  0  0
  183.4650  178.5310  142.0260 C   0  0  0  0  0  0  0  0  0  0  0  0
  182.7140  178.2770  140.8870 O   0  0  0  0  0  1  0  0  0  0  0  0
  185.6220  178.2530  143.1720 C   0  0  0  0  0  0  0  0  0  0  0  0
  182.8730  179.0250  143.1170 C   0  0  0  0  0  3  0  0  0  0  0  0
  184.8860  178.4330  144.4830 C   0  0  0  0  0  2  0  0  0  0  0  0
  1 13  2  0  0  0  0
  2 17  1  1  0  0  0
  2 19  1  0  0  0  0
  2 14  1  0  0  0  0
  3 18  1  0  0  0  0
  4 16  1  0  0  0  0
  4  3  2  0  0  0  0
  5  7  1  0  0  0  0
  6 10  2  0  0  0  0
  7 13  1  0  0  0  0
  8 12  1  6  0  0  0
  8 14  1  0  0  0  0
  9  8  1  0  0  0  0
 10  9  1  0  0  0  0
 10 17  1  0  0  0  0
 11  1  1  0  0  0  0
 14 16  1  1  0  0  0
 15 20  1  0  0  0  0
 15 11  1  0  0  0  0
 16 15  2  0  0  0  0
 18 11  2  0  0  0  0
 19  4  1  0  0  0  0
 20  5  1  0  0  0  0
 22 28  1  0  0  0  0
 22 21  1  1  0  0  0
 23 26  2  0  0  0  0
 24 23  1  0  0  0  0
 24 27  2  0  0  0  0
 25 24  1  0  0  0  0
 26  3  1  0  0  0  0
 26 28  1  0  0  0  0
 27 22  1  0  0  0  0
M  END
>  <MODEL>
4

>  <REMARK>
 VINA RESULT:      -9.8      1.740      6.439
  Name = 
  1 active torsions:
  status: ('A' for Active; 'I' for Inactive)
    1  A    between atoms: C_4  and  C_25
                            x       y       z     vdW  Elec       q    Type
                         _______ _______ _______ _____ _____    ______ ____

>  <TORSDO>
F 1

$$$$
=
 OpenBabel11062416443D

 28 32  0  0  1  0  0  0  0  0999 V2000
  189.1860  177.0940  145.5750 C   0  0  0  0  0  3  0  0  0  0  0  0
  188.8710  178.1050  139.4550 C   0  0  1  0  0  3  0  0  0  0  0  0
  186.9720  178.0100  142.6820 C   0  0  0  0  0  0  0  0  0  0  0  0
  187.8950  178.0690  141.6190 C   0  0  0  0  0  0  0  0  0  0  0  0
  191.7360  178.1290  144.3440 C   0  0  0  0  0  2  0  0  0  0  0  0
  189.7240  175.1400  137.5150 O   0  0  0  0  0  0  0  0  0  0  0  0
  191.5970  177.5270  145.6210 O   0  0  0  0  0  0  0  0  0  0  0  0
  191.0840  176.9360  140.2120 C   0  0  1  0  0  3  0  0  0  0  0  0
  191.1430  176.5610  138.7350 C   0  0  0  0  0  2  0  0  0  0  0  0
  189.8050  176.0880  138.2770 C   0  0  0  0  0  0  0  0  0  0  0  0
  188.8260  177.4290  144.1790 C   0  0  0  0  0  0  0  0  0  0  0  0
  192.4410  177.5030  140.5820 C   0  0  0  0  0  1  0  0  0  0  0  0
  190.3810  177.1180  146.1810 C   0  0  0  0  0  3  0  0  0  0  0  0
  189.9900  177.9850  140.5230 C   0  0  2  0  0  3  0  0  0  0  0  0
  189.7340  177.4790  143.0920 C   0  0  0  0  0  0  0  0  0  0  0  0
  189.2350  177.7800  141.8070 C   0  0  0  0  0  0  0  0  0  0  0  0
  188.5640  176.7840  138.7360 C   0  0  0  0  0  2  0  0  0  0  0  0
  187.4670  177.6810  143.9520 C   0  0  0  0  0  3  0  0  0  0  0  0
  187.6160  178.4980  140.2240 C   0  0  0  0  0  2  0  0  0  0  0  0
  191.1850  177.2020  143.2880 C   0  0  0  0  0  2  0  0  0  0  0  0
  182.9600  178.8560  139.8820 O   0  0  0  0  0  1  0  0  0  0  0  0
  183.5060  178.2630  141.0180 C   0  0  2  0  0  3  0  0  0  0  0  0
  184.7000  178.3320  143.5910 C   0  0  0  0  0  3  0  0  0  0  0  0
  183.2630  178.6280  143.4400 C   0  0  0  0  0  0  0  0  0  0  0  0
  182.4930  178.9060  144.5610 O   0  0  0  0  0  1  0  0  0  0  0  0
  185.5190  178.2870  142.5280 C   0  0  0  0  0  0  0  0  0  0  0  0
  182.7020  178.6410  142.2290 C   0  0  0  0  0  3  0  0  0  0  0  0
  184.9710  178.6830  141.1730 C   0  0  0  0  0  2  0  0  0  0  0  0
  1 13  2  0  0  0  0
  2 17  1  1  0  0  0
  2 19  1  0  0  0  0
  2 14  1  0  0  0  0
  3 18  1  0  0  0  0
  4 16  1  0  0  0  0
  4  3  2  0  0  0  0
  5  7  1  0  0  0  0
  6 10  2  0  0  0  0
  7 13  1  0  0  0  0
  8 14  1  0  0  0  0
  8 12  1  6  0  0  0
  9  8  1  0  0  0  0
 10  9  1  0  0  0  0
 10 17  1  0  0  0  0
 11  1  1  0  0  0  0
 14 16  1  1  0  0  0
 15 20  1  0  0  0  0
 15 11  1  0  0  0  0
 16 15  2  0  0  0  0
 18 11  2  0  0  0  0
 19  4  1  0  0  0  0
 20  5  1  0  0  0  0
 22 21  1  6  0  0  0
 22 28  1  0  0  0  0
 22 27  1  0  0  0  0
 24 23  1  0  0  0  0
 24 25  1  0  0  0  0
 26  3  1  0  0  0  0
 26 23  2  0  0  0  0
 27 24  2  0  0  0  0
 28 26  1  0  0  0  0
M  END
>  <MODEL>
5

>  <REMARK>
 VINA RESULT:      -9.6      1.998      6.315
  Name = 
  1 active torsions:
  status: ('A' for Active; 'I' for Inactive)
    1  A    between atoms: C_4  and  C_25
                            x       y       z     vdW  Elec       q    Type
                         _______ _______ _______ _____ _____    ______ ____

>  <TORSDO>
F 1

$$$$
=
 OpenBabel11062416443D

 28 32  0  0  1  0  0  0  0  0999 V2000
  191.4840  177.5970  145.2050 C   0  0  0  0  0  3  0  0  0  0  0  0
  185.6300  177.7850  143.1360 C   0  0  1  0  0  3  0  0  0  0  0  0
  189.2490  177.6080  142.1860 C   0  0  0  0  0  0  0  0  0  0  0  0
  187.9690  177.5900  142.7740 C   0  0  0  0  0  0  0  0  0  0  0  0
  189.4530  176.3900  147.0800 C   0  0  0  0  0  2  0  0  0  0  0  0
  183.9270  180.8670  144.0740 O   0  0  0  0  0  0  0  0  0  0  0  0
  190.7840  176.7640  147.4000 O   0  0  0  0  0  0  0  0  0  0  0  0
  185.8700  178.4080  145.6640 C   0  0  1  0  0  3  0  0  0  0  0  0
  184.4980  179.0300  145.4240 C   0  0  0  0  0  2  0  0  0  0  0  0
  184.5050  179.7960  144.1450 C   0  0  0  0  0  0  0  0  0  0  0  0
  190.2170  177.5870  144.4390 C   0  0  0  0  0  0  0  0  0  0  0  0
  185.7610  177.5640  146.9190 C   0  0  0  0  0  1  0  0  0  0  0  0
  191.7160  177.2630  146.4820 C   0  0  0  0  0  3  0  0  0  0  0  0
  186.3410  177.5180  144.4900 C   0  0  2  0  0  3  0  0  0  0  0  0
  188.9190  177.5840  145.0090 C   0  0  0  0  0  0  0  0  0  0  0  0
  187.8020  177.6100  144.1470 C   0  0  0  0  0  0  0  0  0  0  0  0
  185.2060  179.2470  142.9430 C   0  0  0  0  0  2  0  0  0  0  0  0
  190.3560  177.6120  143.0450 C   0  0  0  0  0  3  0  0  0  0  0  0
  186.6680  177.4750  142.0650 C   0  0  0  0  0  2  0  0  0  0  0  0
  188.7280  177.5730  146.4870 C   0  0  0  0  0  2  0  0  0  0  0  0
  191.2110  175.6430  138.0700 O   0  0  0  0  0  1  0  0  0  0  0  0
  190.1410  176.2990  138.6730 C   0  0  2  0  0  3  0  0  0  0  0  0
  188.9110  178.5320  139.9220 C   0  0  0  0  0  3  0  0  0  0  0  0
  189.1590  178.5480  138.4680 C   0  0  0  0  0  0  0  0  0  0  0  0
  188.7600  179.6410  137.7110 O   0  0  0  0  0  1  0  0  0  0  0  0
  189.4810  177.6110  140.7170 C   0  0  0  0  0  0  0  0  0  0  0  0
  189.7770  177.5210  137.8790 C   0  0  0  0  0  3  0  0  0  0  0  0
  190.5000  176.6650  140.1170 C   0  0  0  0  0  2  0  0  0  0  0  0
  1 13  2  0  0  0  0
  2 19  1  6  0  0  0
  2 14  1  0  0  0  0
  3  4  2  0  0  0  0
  3 18  1  0  0  0  0
  4 16  1  0  0  0  0
  5  7  1  0  0  0  0
  6 10  2  0  0  0  0
  8 12  1  1  0  0  0
  9  8  1  0  0  0  0
 10  9  1  0  0  0  0
 11 15  1  0  0  0  0
 11  1  1  0  0  0  0
 13  7  1  0  0  0  0
 14 16  1  6  0  0  0
 14  8  1  0  0  0  0
 15 20  1  0  0  0  0
 16 15  2  0  0  0  0
 17  2  1  0  0  0  0
 17 10  1  0  0  0  0
 18 11  2  0  0  0  0
 19  4  1  0  0  0  0
 20  5  1  0  0  0  0
 22 21  1  6  0  0  0
 22 28  1  0  0  0  0
 23 26  2  0  0  0  0
 24 23  1  0  0  0  0
 25 24  1  0  0  0  0
 26  3  1  0  0  0  0
 27 24  2  0  0  0  0
 27 22  1  0  0  0  0
 28 26  1  0  0  0  0
M  END
>  <MODEL>
6

>  <REMARK>
 VINA RESULT:      -9.5      1.135      4.614
  Name = 
  1 active torsions:
  status: ('A' for Active; 'I' for Inactive)
    1  A    between atoms: C_4  and  C_25
                            x       y       z     vdW  Elec       q    Type
                         _______ _______ _______ _____ _____    ______ ____

>  <TORSDO>
F 1

$$$$
=
 OpenBabel11062416443D

 28 32  0  0  1  0  0  0  0  0999 V2000
  191.4530  177.4750  145.4000 C   0  0  0  0  0  3  0  0  0  0  0  0
  185.6010  177.7280  143.3360 C   0  0  1  0  0  3  0  0  0  0  0  0
  189.2110  177.4370  142.3860 C   0  0  0  0  0  0  0  0  0  0  0  0
  187.9330  177.4670  142.9760 C   0  0  0  0  0  0  0  0  0  0  0  0
  189.4000  176.3780  147.3170 C   0  0  0  0  0  2  0  0  0  0  0  0
  183.9700  180.8780  144.1740 O   0  0  0  0  0  0  0  0  0  0  0  0
  190.7400  176.7320  147.6220 O   0  0  0  0  0  0  0  0  0  0  0  0
  185.8600  178.4290  145.8420 C   0  0  1  0  0  3  0  0  0  0  0  0
  184.5030  179.0740  145.5830 C   0  0  0  0  0  2  0  0  0  0  0  0
  184.5240  179.7970  144.2790 C   0  0  0  0  0  0  0  0  0  0  0  0
  190.1850  177.4690  144.6370 C   0  0  0  0  0  0  0  0  0  0  0  0
  185.7350  177.6290  147.1240 C   0  0  0  0  0  1  0  0  0  0  0  0
  191.6810  177.1780  146.6870 C   0  0  0  0  0  3  0  0  0  0  0  0
  186.3080  177.4910  144.6970 C   0  0  2  0  0  3  0  0  0  0  0  0
  188.8890  177.5140  145.2090 C   0  0  0  0  0  0  0  0  0  0  0  0
  187.7700  177.5380  144.3480 C   0  0  0  0  0  0  0  0  0  0  0  0
  185.2090  179.1920  143.0950 C   0  0  0  0  0  2  0  0  0  0  0  0
  190.3210  177.4440  143.2430 C   0  0  0  0  0  3  0  0  0  0  0  0
  186.6280  177.3590  142.2730 C   0  0  0  0  0  2  0  0  0  0  0  0
  188.7010  177.5570  146.6860 C   0  0  0  0  0  2  0  0  0  0  0  0
  188.5930  179.2490  137.8050 O   0  0  0  0  0  1  0  0  0  0  0  0
  189.4310  178.6280  138.7280 C   0  0  2  0  0  3  0  0  0  0  0  0
  190.2310  176.4520  140.3650 C   0  0  0  0  0  3  0  0  0  0  0  0
  190.4400  176.3890  138.9060 C   0  0  0  0  0  0  0  0  0  0  0  0
  191.0580  175.2810  138.3440 O   0  0  0  0  0  1  0  0  0  0  0  0
  189.4400  177.3870  140.9170 C   0  0  0  0  0  0  0  0  0  0  0  0
  190.0270  177.3890  138.1230 C   0  0  0  0  0  3  0  0  0  0  0  0
  188.6490  178.2990  140.0040 C   0  0  0  0  0  2  0  0  0  0  0  0
  1 13  2  0  0  0  0
  2 19  1  6  0  0  0
  2 14  1  0  0  0  0
  3  4  2  0  0  0  0
  3 18  1  0  0  0  0
  4 16  1  0  0  0  0
  5  7  1  0  0  0  0
  6 10  2  0  0  0  0
  8 12  1  1  0  0  0
  9  8  1  0  0  0  0
 10  9  1  0  0  0  0
 11 15  1  0  0  0  0
 11  1  1  0  0  0  0
 13  7  1  0  0  0  0
 14 16  1  6  0  0  0
 14  8  1  0  0  0  0
 15 20  1  0  0  0  0
 16 15  2  0  0  0  0
 17  2  1  0  0  0  0
 17 10  1  0  0  0  0
 18 11  2  0  0  0  0
 19  4  1  0  0  0  0
 20  5  1  0  0  0  0
 22 21  1  6  0  0  0
 22 28  1  0  0  0  0
 23 26  2  0  0  0  0
 24 23  1  0  0  0  0
 25 24  1  0  0  0  0
 26  3  1  0  0  0  0
 27 22  1  0  0  0  0
 27 24  2  0  0  0  0
 28 26  1  0  0  0  0
M  END
>  <MODEL>
7

>  <REMARK>
 VINA RESULT:      -9.5      1.140      4.860
  Name = 
  1 active torsions:
  status: ('A' for Active; 'I' for Inactive)
    1  A    between atoms: C_4  and  C_25
                            x       y       z     vdW  Elec       q    Type
                         _______ _______ _______ _____ _____    ______ ____

>  <TORSDO>
F 1

$$$$
=
 OpenBabel11062416443D

 28 32  0  0  1  0  0  0  0  0999 V2000
  190.1000  177.9470  141.4900 C   0  0  0  0  0  3  0  0  0  0  0  0
  185.8240  177.7740  145.9920 C   0  0  1  0  0  3  0  0  0  0  0  0
  186.4390  178.1160  142.3130 C   0  0  0  0  0  0  0  0  0  0  0  0
  186.4440  177.8820  143.7020 C   0  0  0  0  0  0  0  0  0  0  0  0
  190.8730  176.2910  143.8880 C   0  0  0  0  0  2  0  0  0  0  0  0
  186.2110  180.5030  148.3760 O   0  0  0  0  0  0  0  0  0  0  0  0
  191.7400  176.7610  142.8690 O   0  0  0  0  0  0  0  0  0  0  0  0
  188.2660  178.0790  146.8750 C   0  0  1  0  0  3  0  0  0  0  0  0
  187.5300  178.5760  148.1160 C   0  0  0  0  0  2  0  0  0  0  0  0
  186.4310  179.5010  147.7180 C   0  0  0  0  0  0  0  0  0  0  0  0
  188.8810  177.9020  142.3300 C   0  0  0  0  0  0  0  0  0  0  0  0
  189.2960  177.0700  147.3440 C   0  0  0  0  0  1  0  0  0  0  0  0
  191.3290  177.4740  141.7370 C   0  0  0  0  0  3  0  0  0  0  0  0
  187.3260  177.4090  145.8470 C   0  0  2  0  0  3  0  0  0  0  0  0
  188.8640  177.6840  143.7300 C   0  0  0  0  0  0  0  0  0  0  0  0
  187.6230  177.7030  144.4020 C   0  0  0  0  0  0  0  0  0  0  0  0
  185.5860  179.1940  146.5220 C   0  0  0  0  0  2  0  0  0  0  0  0
  187.6750  178.1260  141.6530 C   0  0  0  0  0  3  0  0  0  0  0  0
  185.2550  177.7220  144.5800 C   0  0  0  0  0  2  0  0  0  0  0  0
  190.1260  177.4570  144.4890 C   0  0  0  0  0  2  0  0  0  0  0  0
  184.0620  178.6550  137.9870 O   0  0  0  0  0  1  0  0  0  0  0  0
  184.0540  178.1540  139.2870 C   0  0  2  0  0  3  0  0  0  0  0  0
  183.9990  178.4300  142.1110 C   0  0  0  0  0  3  0  0  0  0  0  0
  182.7740  178.6730  141.3260 C   0  0  0  0  0  0  0  0  0  0  0  0
  181.5910  179.0020  141.9740 O   0  0  0  0  0  1  0  0  0  0  0  0
  185.2010  178.3390  141.5190 C   0  0  0  0  0  0  0  0  0  0  0  0
  182.8010  178.5880  139.9930 C   0  0  0  0  0  3  0  0  0  0  0  0
  185.3030  178.6280  140.0360 C   0  0  0  0  0  2  0  0  0  0  0  0
  1 13  2  0  0  0  0
  1 11  1  0  0  0  0
  2 19  1  6  0  0  0
  2 17  1  0  0  0  0
  3  4  1  0  0  0  0
  4 16  2  0  0  0  0
  4 19  1  0  0  0  0
  5 20  1  0  0  0  0
  7  5  1  0  0  0  0
  8 12  1  1  0  0  0
  8  9  1  0  0  0  0
 10  9  1  0  0  0  0
 10  6  2  0  0  0  0
 11 15  2  0  0  0  0
 13  7  1  0  0  0  0
 14 16  1  6  0  0  0
 14  2  1  0  0  0  0
 14  8  1  0  0  0  0
 15 16  1  0  0  0  0
 15 20  1  0  0  0  0
 17 10  1  0  0  0  0
 18  3  2  0  0  0  0
 18 11  1  0  0  0  0
 22 21  1  6  0  0  0
 22 27  1  0  0  0  0
 22 28  1  0  0  0  0
 24 25  1  0  0  0  0
 24 23  1  0  0  0  0
 26 23  2  0  0  0  0
 26  3  1  0  0  0  0
 27 24  2  0  0  0  0
 28 26  1  0  0  0  0
M  END
>  <MODEL>
8

>  <REMARK>
 VINA RESULT:      -9.2      2.474      5.453
  Name = 
  1 active torsions:
  status: ('A' for Active; 'I' for Inactive)
    1  A    between atoms: C_4  and  C_25
                            x       y       z     vdW  Elec       q    Type
                         _______ _______ _______ _____ _____    ______ ____

>  <TORSDO>
F 1

$$$$
=
 OpenBabel11062416443D

 28 32  0  0  1  0  0  0  0  0999 V2000
  188.7150  178.6820  139.3830 C   0  0  0  0  0  3  0  0  0  0  0  0
  187.7190  176.7180  145.1910 C   0  0  1  0  0  3  0  0  0  0  0  0
  186.1800  178.1920  142.1120 C   0  0  0  0  0  0  0  0  0  0  0  0
  186.9480  177.5630  143.1100 C   0  0  0  0  0  0  0  0  0  0  0  0
  190.5730  176.4900  140.3010 C   0  0  0  0  0  2  0  0  0  0  0  0
  189.5920  178.6510  147.6480 O   0  0  0  0  0  0  0  0  0  0  0  0
  190.7490  177.3330  139.1730 O   0  0  0  0  0  0  0  0  0  0  0  0
  190.2500  177.0200  144.6050 C   0  0  1  0  0  3  0  0  0  0  0  0
  190.3810  177.0460  146.1250 C   0  0  0  0  0  2  0  0  0  0  0  0
  189.3240  177.9180  146.7120 C   0  0  0  0  0  0  0  0  0  0  0  0
  188.1830  178.2570  140.6970 C   0  0  0  0  0  0  0  0  0  0  0  0
  191.2820  176.0390  144.0860 C   0  0  0  0  0  1  0  0  0  0  0  0
  189.8290  178.2970  138.7450 C   0  0  0  0  0  3  0  0  0  0  0  0
  188.8450  176.5820  144.1310 C   0  0  2  0  0  3  0  0  0  0  0  0
  188.9400  177.6360  141.7220 C   0  0  0  0  0  0  0  0  0  0  0  0
  188.2990  177.3180  142.9390 C   0  0  0  0  0  0  0  0  0  0  0  0
  187.9330  177.8840  146.1660 C   0  0  0  0  0  2  0  0  0  0  0  0
  186.8270  178.5330  140.9150 C   0  0  0  0  0  3  0  0  0  0  0  0
  186.4520  177.0210  144.4020 C   0  0  0  0  0  2  0  0  0  0  0  0
  190.3880  177.3380  141.5360 C   0  0  0  0  0  2  0  0  0  0  0  0
  181.6830  179.0490  140.1880 O   0  0  0  0  0  1  0  0  0  0  0  0
  182.4460  178.4780  141.2040 C   0  0  2  0  0  3  0  0  0  0  0  0
  184.1570  178.5970  143.4660 C   0  0  0  0  0  3  0  0  0  0  0  0
  182.7250  178.9230  143.6090 C   0  0  0  0  0  0  0  0  0  0  0  0
  182.2130  179.2550  144.8560 O   0  0  0  0  0  1  0  0  0  0  0  0
  184.7320  178.5000  142.2560 C   0  0  0  0  0  0  0  0  0  0  0  0
  181.9210  178.9120  142.5430 C   0  0  0  0  0  3  0  0  0  0  0  0
  183.9180  178.8670  141.0330 C   0  0  0  0  0  2  0  0  0  0  0  0
  1 11  1  0  0  0  0
  2 19  1  6  0  0  0
  2 17  1  0  0  0  0
  3 26  1  0  0  0  0
  3  4  1  0  0  0  0
  4 19  1  0  0  0  0
  5 20  1  0  0  0  0
  7  5  1  0  0  0  0
  8 12  1  6  0  0  0
  8  9  1  0  0  0  0
  9 10  1  0  0  0  0
 10  6  2  0  0  0  0
 11 18  1  0  0  0  0
 11 15  2  0  0  0  0
 13  7  1  0  0  0  0
 13  1  2  0  0  0  0
 14 16  1  6  0  0  0
 14  8  1  0  0  0  0
 14  2  1  0  0  0  0
 15 16  1  0  0  0  0
 16  4  2  0  0  0  0
 17 10  1  0  0  0  0
 18  3  2  0  0  0  0
 20 15  1  0  0  0  0
 22 21  1  6  0  0  0
 22 27  1  0  0  0  0
 23 24  1  0  0  0  0
 24 25  1  0  0  0  0
 26 23  2  0  0  0  0
 27 24  2  0  0  0  0
 28 22  1  0  0  0  0
 28 26  1  0  0  0  0
M  END
>  <MODEL>
9

>  <REMARK>
 VINA RESULT:      -9.2      2.222      5.890
  Name = 
  1 active torsions:
  status: ('A' for Active; 'I' for Inactive)
    1  A    between atoms: C_4  and  C_25
                            x       y       z     vdW  Elec       q    Type
                         _______ _______ _______ _____ _____    ______ ____

>  <TORSDO>
F 1

$$$$
