=
 OpenBabel11062417573D

 40 43  0  0  1  0  0  0  0  0999 V2000
  182.1950  179.1460  141.8130 C   0  0  1  0  0  3  0  0  0  0  0  0
  183.3240  178.4370  145.3980 C   0  0  0  0  0  3  0  0  0  0  0  0
  183.0600  178.9420  143.0340 C   0  0  0  0  0  0  0  0  0  0  0  0
  183.4070  178.1900  139.9510 C   0  0  2  0  0  3  0  0  0  0  0  0
  184.7230  178.4590  145.2700 C   0  0  0  0  0  0  0  0  0  0  0  0
  185.1050  179.2140  141.5700 C   0  0  0  0  0  2  0  0  0  0  0  0
  182.3070  178.0020  140.9090 N   0  0  0  0  0  2  0  0  0  0  0  0
  184.7970  178.0740  140.6010 C   0  0  0  0  0  2  0  0  0  0  0  0
  182.5030  178.6620  144.2920 C   0  0  0  0  0  3  0  0  0  0  0  0
  184.4610  178.9710  142.8970 C   0  0  0  0  0  0  0  0  0  0  0  0
  185.2770  178.7440  144.0090 C   0  0  0  0  0  3  0  0  0  0  0  0
  185.6700  179.6180  147.2760 C   0  0  0  0  0  2  0  0  0  0  0  0
  187.8470  178.8290  148.2130 C   0  0  0  0  0  2  0  0  0  0  0  0
  188.0590  177.7600  147.1300 C   0  0  2  0  0  0  0  0  0  0  0  0
  187.0850  180.0340  147.6810 C   0  0  0  0  0  2  0  0  0  0  0  0
  185.5990  178.2850  146.4970 C   0  0  1  0  0  0  0  0  0  0  0  0
  185.0100  177.2430  147.4470 C   0  0  0  0  0  1  0  0  0  0  0  0
  186.9860  177.8120  146.0270 C   0  0  0  0  0  2  0  0  0  0  0  0
  188.0190  176.4990  147.7280 O   0  0  0  0  0  1  0  0  0  0  0  0
  189.4160  177.9640  146.4530 C   0  0  0  0  0  2  0  0  0  0  0  0
  189.6020  177.1290  145.1890 C   0  0  0  0  0  2  0  0  0  0  0  0
  190.3390  176.6320  142.0430 C   0  0  0  0  0  2  0  0  0  0  0  0
  191.6000  177.2340  142.6460 C   0  0  0  0  0  2  0  0  0  0  0  0
  191.1590  178.2920  143.6410 C   0  0  0  0  0  2  0  0  0  0  0  0
  189.6980  178.0150  143.9420 C   0  0  1  0  0  3  0  0  0  0  0  0
  188.0200  176.3670  142.9280 C   0  0  0  0  0  1  0  0  0  0  0  0
  188.6610  178.4170  141.7200 C   0  0  0  0  0  1  0  0  0  0  0  0
  189.1590  177.3450  142.6740 C   0  0  0  0  0  0  0  0  0  0  0  0
  179.8050  178.4260  142.0480 O   0  0  0  0  0  0  0  0  0  0  0  0
  180.7580  179.4340  142.1160 C   0  0  0  0  0  0  0  0  0  0  0  0
  180.4160  180.5960  142.4590 O   0  0  0  0  0  1  0  0  0  0  0  0
  183.2280  179.3940  139.0580 C   0  0  0  0  0  0  0  0  0  0  0  0
  184.1670  180.2830  138.9920 N   0  0  0  0  0  2  0  0  0  0  0  0
  181.9430  179.6700  138.4930 N   0  0  0  0  0  2  0  0  0  0  0  0
  181.6770  180.8430  137.6750 C   0  0  0  0  0  2  0  0  0  0  0  0
  181.2280  181.9940  138.5570 C   0  0  0  0  0  2  0  0  0  0  0  0
  180.4240  182.9750  137.7670 C   0  0  0  0  0  0  0  0  0  0  0  0
  179.2190  182.7250  137.5010 O   0  0  0  0  0  0  0  0  0  0  0  0
  180.9980  184.2070  137.3380 N   0  0  0  0  0  2  0  0  0  0  0  0
  182.2980  184.4950  137.5830 O   0  0  0  0  0  1  0  0  0  0  0  0
  1 30  1  1  0  0  0
  1  3  1  0  0  0  0
  3  9  1  0  0  0  0
  4 32  1  1  0  0  0
  4  8  1  0  0  0  0
  4  7  1  0  0  0  0
  5  2  1  0  0  0  0
  5 16  1  0  0  0  0
  6 10  1  0  0  0  0
  7  1  1  0  0  0  0
  8  6  1  0  0  0  0
  9  2  2  0  0  0  0
 10  3  2  0  0  0  0
 10 11  1  0  0  0  0
 11  5  2  0  0  0  0
 12 15  1  0  0  0  0
 14 19  1  1  0  0  0
 14 13  1  0  0  0  0
 15 13  1  0  0  0  0
 16 12  1  0  0  0  0
 16 17  1  1  0  0  0
 18 16  1  0  0  0  0
 18 14  1  0  0  0  0
 20 14  1  0  0  0  0
 21 20  1  0  0  0  0
 22 23  1  0  0  0  0
 22 28  1  0  0  0  0
 23 24  1  0  0  0  0
 24 25  1  0  0  0  0
 25 21  1  1  0  0  0
 27 28  1  0  0  0  0
 28 26  1  0  0  0  0
 28 25  1  0  0  0  0
 29 30  2  0  0  0  0
 30 31  1  0  0  0  0
 33 32  2  0  0  0  0
 34 32  1  0  0  0  0
 35 34  1  0  0  0  0
 35 36  1  0  0  0  0
 37 36  1  0  0  0  0
 38 37  2  0  0  0  0
 39 40  1  0  0  0  0
 39 37  1  0  0  0  0
M  END
>  <MODEL>
1

>  <REMARK>
 VINA RESULT:      -7.7      0.000      0.000
  Name = 
  9 active torsions:
  status: ('A' for Active; 'I' for Inactive)
    1  A    between atoms: C_2  and  C_13
    2  A    between atoms: C_2  and  C_39
    3  A    between atoms: CA_3  and  C_16
    4  A    between atoms: C_6  and  C_17
    5  A    between atoms: C_14  and  C_39
    6  A    between atoms: C_17  and  C_20
    7  A    between atoms: C_19  and  C_27
    8  A    between atoms: C_20  and  N_37
    9  A    between atoms: C_21  and  C_28
                            x       y       z     vdW  Elec       q    Type
                         _______ _______ _______ _____ _____    ______ ____

>  <TORSDO>
F 9

$$$$
=
 OpenBabel11062417573D

 40 43  0  0  1  0  0  0  0  0999 V2000
  189.9580  178.0570  143.7610 C   0  0  1  0  0  3  0  0  0  0  0  0
  191.4210  177.3920  140.2910 C   0  0  0  0  0  3  0  0  0  0  0  0
  190.0810  177.7420  142.2900 C   0  0  0  0  0  0  0  0  0  0  0  0
  188.1750  176.6620  144.6110 C   0  0  2  0  0  3  0  0  0  0  0  0
  190.2760  177.0380  139.5570 C   0  0  0  0  0  0  0  0  0  0  0  0
  187.5840  177.3460  142.2160 C   0  0  0  0  0  2  0  0  0  0  0  0
  189.6310  176.8490  144.5190 N   0  0  0  0  0  2  0  0  0  0  0  0
  187.5360  176.2450  143.2750 C   0  0  0  0  0  2  0  0  0  0  0  0
  191.3270  177.7260  141.6420 C   0  0  0  0  0  3  0  0  0  0  0  0
  188.9280  177.3930  141.5630 C   0  0  0  0  0  0  0  0  0  0  0  0
  189.0290  177.0590  140.2090 C   0  0  0  0  0  3  0  0  0  0  0  0
  189.8960  177.9740  137.2680 C   0  0  0  0  0  2  0  0  0  0  0  0
  189.4050  176.4070  135.3860 C   0  0  0  0  0  2  0  0  0  0  0  0
  189.4100  175.1530  136.2750 C   0  0  2  0  0  0  0  0  0  0  0  0
  188.9200  177.6370  136.1400 C   0  0  0  0  0  2  0  0  0  0  0  0
  190.3870  176.7490  138.0720 C   0  0  1  0  0  0  0  0  0  0  0  0
  191.8390  176.5020  137.6690 C   0  0  0  0  0  1  0  0  0  0  0  0
  189.5580  175.4870  137.7700 C   0  0  0  0  0  2  0  0  0  0  0  0
  190.4780  174.3380  135.8950 O   0  0  0  0  0  1  0  0  0  0  0  0
  188.0950  174.3890  136.1080 C   0  0  0  0  0  2  0  0  0  0  0  0
  186.9840  174.8730  137.0370 C   0  0  0  0  0  2  0  0  0  0  0  0
  183.9120  175.6500  137.8410 C   0  0  0  0  0  2  0  0  0  0  0  0
  183.8490  174.1820  137.4460 C   0  0  0  0  0  2  0  0  0  0  0  0
  184.7900  173.9950  136.2690 C   0  0  0  0  0  2  0  0  0  0  0  0
  185.7070  175.2040  136.2570 C   0  0  1  0  0  3  0  0  0  0  0  0
  185.7100  177.3680  137.6270 C   0  0  0  0  0  1  0  0  0  0  0  0
  184.0900  177.0340  135.8010 C   0  0  0  0  0  1  0  0  0  0  0  0
  184.8800  176.3270  136.8890 C   0  0  0  0  0  0  0  0  0  0  0  0
  192.0880  178.0100  145.0850 O   0  0  0  0  0  1  0  0  0  0  0  0
  191.1560  178.7340  144.3500 C   0  0  0  0  0  0  0  0  0  0  0  0
  191.3330  179.9650  144.1570 O   0  0  0  0  0  0  0  0  0  0  0  0
  187.4670  177.7890  145.3230 C   0  0  0  0  0  0  0  0  0  0  0  0
  187.9000  178.1850  146.4770 N   0  0  0  0  0  2  0  0  0  0  0  0
  186.1950  178.2370  144.8460 N   0  0  0  0  0  2  0  0  0  0  0  0
  185.4230  179.2730  145.5140 C   0  0  0  0  0  2  0  0  0  0  0  0
  184.5960  180.0370  144.4940 C   0  0  0  0  0  2  0  0  0  0  0  0
  183.6970  179.1060  143.7470 C   0  0  0  0  0  0  0  0  0  0  0  0
  182.7410  178.5460  144.3450 O   0  0  0  0  0  0  0  0  0  0  0  0
  183.8910  178.8690  142.3550 N   0  0  0  0  0  2  0  0  0  0  0  0
  184.9240  179.4330  141.6870 O   0  0  0  0  0  1  0  0  0  0  0  0
  1 30  1  1  0  0  0
  1  7  1  0  0  0  0
  2  9  1  0  0  0  0
  3  1  1  0  0  0  0
  4 32  1  6  0  0  0
  5 11  1  0  0  0  0
  5  2  2  0  0  0  0
  6  8  1  0  0  0  0
  7  4  1  0  0  0  0
  8  4  1  0  0  0  0
  9  3  2  0  0  0  0
 10  6  1  0  0  0  0
 10  3  1  0  0  0  0
 11 10  2  0  0  0  0
 12 16  1  0  0  0  0
 13 15  1  0  0  0  0
 13 14  1  0  0  0  0
 14 19  1  6  0  0  0
 14 18  1  0  0  0  0
 15 12  1  0  0  0  0
 16 17  1  6  0  0  0
 16  5  1  0  0  0  0
 18 16  1  0  0  0  0
 20 14  1  0  0  0  0
 20 21  1  0  0  0  0
 23 22  1  0  0  0  0
 24 23  1  0  0  0  0
 25 24  1  0  0  0  0
 25 28  1  0  0  0  0
 25 21  1  1  0  0  0
 27 28  1  0  0  0  0
 28 26  1  0  0  0  0
 28 22  1  0  0  0  0
 30 29  1  0  0  0  0
 31 30  2  0  0  0  0
 32 33  2  0  0  0  0
 34 32  1  0  0  0  0
 34 35  1  0  0  0  0
 36 35  1  0  0  0  0
 37 38  2  0  0  0  0
 37 36  1  0  0  0  0
 39 37  1  0  0  0  0
 40 39  1  0  0  0  0
M  END
>  <MODEL>
2

>  <REMARK>
 VINA RESULT:      -7.5      4.595      9.025
  Name = 
  9 active torsions:
  status: ('A' for Active; 'I' for Inactive)
    1  A    between atoms: C_2  and  C_13
    2  A    between atoms: C_2  and  C_39
    3  A    between atoms: CA_3  and  C_16
    4  A    between atoms: C_6  and  C_17
    5  A    between atoms: C_14  and  C_39
    6  A    between atoms: C_17  and  C_20
    7  A    between atoms: C_19  and  C_27
    8  A    between atoms: C_20  and  N_37
    9  A    between atoms: C_21  and  C_28
                            x       y       z     vdW  Elec       q    Type
                         _______ _______ _______ _____ _____    ______ ____

>  <TORSDO>
F 9

$$$$
=
 OpenBabel11062417573D

 40 43  0  0  1  0  0  0  0  0999 V2000
  182.5630  177.3980  137.5720 C   0  0  1  0  0  3  0  0  0  0  0  0
  186.2780  176.7190  136.9660 C   0  0  0  0  0  3  0  0  0  0  0  0
  184.0670  177.4020  137.7130 C   0  0  0  0  0  0  0  0  0  0  0  0
  181.8190  179.6260  138.1490 C   0  0  2  0  0  3  0  0  0  0  0  0
  186.8830  177.5260  137.9440 C   0  0  0  0  0  0  0  0  0  0  0  0
  183.8350  179.0510  139.6170 C   0  0  0  0  0  2  0  0  0  0  0  0
  182.0940  178.6830  137.0540 N   0  0  0  0  0  2  0  0  0  0  0  0
  183.0960  180.1370  138.8370 C   0  0  0  0  0  2  0  0  0  0  0  0
  184.8890  176.6680  136.8430 C   0  0  0  0  0  3  0  0  0  0  0  0
  184.6630  178.2110  138.6990 C   0  0  0  0  0  0  0  0  0  0  0  0
  186.0550  178.2570  138.8160 C   0  0  0  0  0  3  0  0  0  0  0  0
  189.0030  176.4260  137.2000 C   0  0  0  0  0  2  0  0  0  0  0  0
  190.9460  176.3560  138.7680 C   0  0  0  0  0  2  0  0  0  0  0  0
  190.1890  177.0370  139.9200 C   0  0  2  0  0  0  0  0  0  0  0  0
  190.0210  175.5210  137.8960 C   0  0  0  0  0  2  0  0  0  0  0  0
  188.3910  177.5120  138.1120 C   0  0  1  0  0  0  0  0  0  0  0  0
  189.0020  178.8470  137.6900 C   0  0  0  0  0  1  0  0  0  0  0  0
  188.7010  177.2640  139.5990 C   0  0  0  0  0  2  0  0  0  0  0  0
  190.7810  178.2740  140.1780 O   0  0  0  0  0  1  0  0  0  0  0  0
  190.2550  176.1640  141.1750 C   0  0  0  0  0  2  0  0  0  0  0  0
  189.4620  176.7250  142.3540 C   0  0  0  0  0  2  0  0  0  0  0  0
  190.3430  178.8900  144.6390 C   0  0  0  0  0  2  0  0  0  0  0  0
  191.5860  178.7070  143.7800 C   0  0  0  0  0  2  0  0  0  0  0  0
  191.6550  177.2380  143.4030 C   0  0  0  0  0  2  0  0  0  0  0  0
  190.2730  176.6650  143.6530 C   0  0  1  0  0  3  0  0  0  0  0  0
  188.1740  177.6590  144.7340 C   0  0  0  0  0  1  0  0  0  0  0  0
  190.0790  176.9260  146.1160 C   0  0  0  0  0  1  0  0  0  0  0  0
  189.6910  177.5280  144.7760 C   0  0  0  0  0  0  0  0  0  0  0  0
  181.7380  175.0440  137.3250 O   0  0  0  0  0  1  0  0  0  0  0  0
  182.0230  176.2740  136.7460 C   0  0  0  0  0  0  0  0  0  0  0  0
  181.8030  176.4530  135.5190 O   0  0  0  0  0  0  0  0  0  0  0  0
  180.7410  179.1540  139.0930 C   0  0  0  0  0  0  0  0  0  0  0  0
  179.6530  178.6420  138.6130 N   0  0  0  0  0  2  0  0  0  0  0  0
  180.8170  179.4970  140.4800 N   0  0  0  0  0  2  0  0  0  0  0  0
  179.7860  179.1330  141.4400 C   0  0  0  0  0  2  0  0  0  0  0  0
  180.0820  179.7770  142.7830 C   0  0  0  0  0  2  0  0  0  0  0  0
  180.5230  178.7470  143.7710 C   0  0  0  0  0  0  0  0  0  0  0  0
  179.6760  177.9700  144.2840 O   0  0  0  0  0  0  0  0  0  0  0  0
  181.9000  178.6130  144.1150 N   0  0  0  0  0  2  0  0  0  0  0  0
  182.8340  179.4480  143.6030 O   0  0  0  0  0  1  0  0  0  0  0  0
  1 30  1  6  0  0  0
  1  3  1  0  0  0  0
  2  5  1  0  0  0  0
  3 10  2  0  0  0  0
  4  8  1  0  0  0  0
  4 32  1  1  0  0  0
  5 16  1  0  0  0  0
  5 11  2  0  0  0  0
  7  1  1  0  0  0  0
  7  4  1  0  0  0  0
  8  6  1  0  0  0  0
  9  2  2  0  0  0  0
  9  3  1  0  0  0  0
 10 11  1  0  0  0  0
 10  6  1  0  0  0  0
 12 15  1  0  0  0  0
 12 16  1  0  0  0  0
 13 14  1  0  0  0  0
 14 19  1  1  0  0  0
 14 20  1  0  0  0  0
 15 13  1  0  0  0  0
 16 17  1  6  0  0  0
 16 18  1  0  0  0  0
 18 14  1  0  0  0  0
 20 21  1  0  0  0  0
 22 28  1  0  0  0  0
 23 22  1  0  0  0  0
 24 25  1  0  0  0  0
 24 23  1  0  0  0  0
 25 21  1  6  0  0  0
 25 28  1  0  0  0  0
 26 28  1  0  0  0  0
 28 27  1  0  0  0  0
 30 29  1  0  0  0  0
 31 30  2  0  0  0  0
 32 34  1  0  0  0  0
 33 32  2  0  0  0  0
 34 35  1  0  0  0  0
 35 36  1  0  0  0  0
 36 37  1  0  0  0  0
 37 39  1  0  0  0  0
 37 38  2  0  0  0  0
 40 39  1  0  0  0  0
M  END
>  <MODEL>
3

>  <REMARK>
 VINA RESULT:      -7.1      3.223      6.401
  Name = 
  9 active torsions:
  status: ('A' for Active; 'I' for Inactive)
    1  A    between atoms: C_2  and  C_13
    2  A    between atoms: C_2  and  C_39
    3  A    between atoms: CA_3  and  C_16
    4  A    between atoms: C_6  and  C_17
    5  A    between atoms: C_14  and  C_39
    6  A    between atoms: C_17  and  C_20
    7  A    between atoms: C_19  and  C_27
    8  A    between atoms: C_20  and  N_37
    9  A    between atoms: C_21  and  C_28
                            x       y       z     vdW  Elec       q    Type
                         _______ _______ _______ _____ _____    ______ ____

>  <TORSDO>
F 9

$$$$
=
 OpenBabel11062417573D

 40 43  0  0  1  0  0  0  0  0999 V2000
  190.3850  176.6480  138.4630 C   0  0  1  0  0  3  0  0  0  0  0  0
  191.7300  177.1540  142.0070 C   0  0  0  0  0  3  0  0  0  0  0  0
  190.4620  176.9300  139.9440 C   0  0  0  0  0  0  0  0  0  0  0  0
  188.7410  178.1770  137.5630 C   0  0  2  0  0  3  0  0  0  0  0  0
  190.5800  177.5740  142.6960 C   0  0  0  0  0  0  0  0  0  0  0  0
  187.9970  177.4970  139.9150 C   0  0  0  0  0  2  0  0  0  0  0  0
  190.1750  177.8880  137.7160 N   0  0  0  0  0  2  0  0  0  0  0  0
  188.0730  178.6150  138.8770 C   0  0  0  0  0  2  0  0  0  0  0  0
  191.6760  176.8500  140.6460 C   0  0  0  0  0  3  0  0  0  0  0  0
  189.3030  177.3450  140.6270 C   0  0  0  0  0  0  0  0  0  0  0  0
  189.3650  177.6490  141.9900 C   0  0  0  0  0  3  0  0  0  0  0  0
  191.5500  176.7730  144.8590 C   0  0  0  0  0  2  0  0  0  0  0  0
  190.2940  177.1920  146.9770 C   0  0  0  0  0  2  0  0  0  0  0  0
  189.0970  177.8510  146.2730 C   0  0  2  0  0  0  0  0  0  0  0  0
  190.9480  176.1270  146.1080 C   0  0  0  0  0  2  0  0  0  0  0  0
  190.6430  177.8300  144.1900 C   0  0  1  0  0  0  0  0  0  0  0  0
  191.2550  179.1970  144.4870 C   0  0  0  0  0  1  0  0  0  0  0  0
  189.2050  177.7910  144.7390 C   0  0  0  0  0  2  0  0  0  0  0  0
  189.0290  179.1900  146.6610 O   0  0  0  0  0  1  0  0  0  0  0  0
  187.8020  177.1360  146.6660 C   0  0  0  0  0  2  0  0  0  0  0  0
  186.8750  176.8550  145.4850 C   0  0  0  0  0  2  0  0  0  0  0  0
  185.5460  179.8290  145.2050 C   0  0  0  0  0  2  0  0  0  0  0  0
  185.7860  179.6500  146.6970 C   0  0  0  0  0  2  0  0  0  0  0  0
  185.4730  178.2030  147.0310 C   0  0  0  0  0  2  0  0  0  0  0  0
  185.4810  177.4480  145.7150 C   0  0  1  0  0  3  0  0  0  0  0  0
  185.6720  178.2380  143.2850 C   0  0  0  0  0  1  0  0  0  0  0  0
  183.5670  178.5080  144.5380 C   0  0  0  0  0  1  0  0  0  0  0  0
  185.0800  178.4900  144.6660 C   0  0  0  0  0  0  0  0  0  0  0  0
  192.6430  176.5830  137.3740 O   0  0  0  0  0  0  0  0  0  0  0  0
  191.5590  175.9010  137.9150 C   0  0  0  0  0  0  0  0  0  0  0  0
  191.5750  174.6430  137.9660 O   0  0  0  0  0  1  0  0  0  0  0  0
  187.9910  177.1140  136.7980 C   0  0  0  0  0  0  0  0  0  0  0  0
  188.5610  176.5310  135.7920 N   0  0  0  0  0  2  0  0  0  0  0  0
  186.5900  176.9350  137.0270 N   0  0  0  0  0  2  0  0  0  0  0  0
  185.7860  175.9760  136.2860 C   0  0  0  0  0  2  0  0  0  0  0  0
  184.6830  175.4310  137.1770 C   0  0  0  0  0  2  0  0  0  0  0  0
  183.9890  174.2890  136.5100 C   0  0  0  0  0  0  0  0  0  0  0  0
  183.2360  174.5060  135.5240 O   0  0  0  0  0  0  0  0  0  0  0  0
  184.1940  172.9520  136.9570 N   0  0  0  0  0  2  0  0  0  0  0  0
  184.9750  172.6860  138.0300 O   0  0  0  0  0  1  0  0  0  0  0  0
  1 30  1  6  0  0  0
  1  3  1  0  0  0  0
  2  5  1  0  0  0  0
  3 10  2  0  0  0  0
  3  9  1  0  0  0  0
  4 32  1  1  0  0  0
  4  7  1  0  0  0  0
  4  8  1  0  0  0  0
  5 16  1  0  0  0  0
  6 10  1  0  0  0  0
  7  1  1  0  0  0  0
  8  6  1  0  0  0  0
  9  2  2  0  0  0  0
 10 11  1  0  0  0  0
 11  5  2  0  0  0  0
 12 15  1  0  0  0  0
 14 19  1  1  0  0  0
 14 20  1  0  0  0  0
 14 13  1  0  0  0  0
 15 13  1  0  0  0  0
 16 17  1  1  0  0  0
 16 18  1  0  0  0  0
 16 12  1  0  0  0  0
 18 14  1  0  0  0  0
 21 20  1  0  0  0  0
 22 23  1  0  0  0  0
 23 24  1  0  0  0  0
 25 21  1  6  0  0  0
 25 24  1  0  0  0  0
 26 28  1  0  0  0  0
 27 28  1  0  0  0  0
 28 22  1  0  0  0  0
 28 25  1  0  0  0  0
 29 30  2  0  0  0  0
 30 31  1  0  0  0  0
 32 34  1  0  0  0  0
 33 32  2  0  0  0  0
 35 34  1  0  0  0  0
 35 36  1  0  0  0  0
 37 39  1  0  0  0  0
 37 36  1  0  0  0  0
 38 37  2  0  0  0  0
 39 40  1  0  0  0  0
M  END
>  <MODEL>
4

>  <REMARK>
 VINA RESULT:      -7.0      4.493      7.389
  Name = 
  9 active torsions:
  status: ('A' for Active; 'I' for Inactive)
    1  A    between atoms: C_2  and  C_13
    2  A    between atoms: C_2  and  C_39
    3  A    between atoms: CA_3  and  C_16
    4  A    between atoms: C_6  and  C_17
    5  A    between atoms: C_14  and  C_39
    6  A    between atoms: C_17  and  C_20
    7  A    between atoms: C_19  and  C_27
    8  A    between atoms: C_20  and  N_37
    9  A    between atoms: C_21  and  C_28
                            x       y       z     vdW  Elec       q    Type
                         _______ _______ _______ _____ _____    ______ ____

>  <TORSDO>
F 9

$$$$
=
 OpenBabel11062417573D

 40 43  0  0  1  0  0  0  0  0999 V2000
  181.2920  176.7930  138.7350 C   0  0  1  0  0  3  0  0  0  0  0  0
  184.7220  176.0590  137.2100 C   0  0  0  0  0  3  0  0  0  0  0  0
  182.7420  176.9170  138.3300 C   0  0  0  0  0  0  0  0  0  0  0  0
  180.3470  179.0140  138.5770 C   0  0  2  0  0  3  0  0  0  0  0  0
  185.4260  177.2410  137.4990 C   0  0  0  0  0  0  0  0  0  0  0  0
  182.7770  179.2310  139.3520 C   0  0  0  0  0  2  0  0  0  0  0  0
  180.4590  177.6940  137.9380 N   0  0  0  0  0  2  0  0  0  0  0  0
  181.6520  179.8270  138.5090 C   0  0  0  0  0  2  0  0  0  0  0  0
  183.3930  175.9050  137.6070 C   0  0  0  0  0  3  0  0  0  0  0  0
  183.4400  178.1020  138.6300 C   0  0  0  0  0  0  0  0  0  0  0  0
  184.7700  178.2500  138.2280 C   0  0  0  0  0  3  0  0  0  0  0  0
  187.3940  176.0130  136.5600 C   0  0  0  0  0  2  0  0  0  0  0  0
  189.6930  176.7050  137.2480 C   0  0  0  0  0  2  0  0  0  0  0  0
  189.2000  177.7840  138.2260 C   0  0  2  0  0  0  0  0  0  0  0  0
  188.7210  175.5380  137.1530 C   0  0  0  0  0  2  0  0  0  0  0  0
  186.8910  177.3610  137.1230 C   0  0  1  0  0  0  0  0  0  0  0  0
  187.0920  178.4070  136.0290 C   0  0  0  0  0  1  0  0  0  0  0  0
  187.6690  177.7900  138.3800 C   0  0  0  0  0  2  0  0  0  0  0  0
  189.6040  179.0350  137.7550 O   0  0  0  0  0  1  0  0  0  0  0  0
  189.7970  177.5410  139.6140 C   0  0  0  0  0  2  0  0  0  0  0  0
  188.7730  177.0740  140.6470 C   0  0  0  0  0  2  0  0  0  0  0  0
  187.7670  176.7280  143.7380 C   0  0  0  0  0  2  0  0  0  0  0  0
  186.7100  177.6050  143.0820 C   0  0  0  0  0  2  0  0  0  0  0  0
  187.4340  178.5450  142.1350 C   0  0  0  0  0  2  0  0  0  0  0  0
  188.8100  177.9470  141.9050 C   0  0  1  0  0  3  0  0  0  0  0  0
  190.0130  175.9520  142.9710 C   0  0  0  0  0  1  0  0  0  0  0  0
  189.7840  178.0830  144.1870 C   0  0  0  0  0  1  0  0  0  0  0  0
  189.1110  177.1610  143.1850 C   0  0  0  0  0  0  0  0  0  0  0  0
  180.4680  174.7980  137.4590 O   0  0  0  0  0  0  0  0  0  0  0  0
  180.7530  175.3980  138.6790 C   0  0  0  0  0  0  0  0  0  0  0  0
  180.5800  174.7550  139.7470 O   0  0  0  0  0  1  0  0  0  0  0  0
  179.7040  178.9690  139.9420 C   0  0  0  0  0  0  0  0  0  0  0  0
  178.9310  177.9770  140.2490 N   0  0  0  0  0  2  0  0  0  0  0  0
  179.7490  180.1270  140.7820 N   0  0  0  0  0  2  0  0  0  0  0  0
  179.0990  180.1830  142.0820 C   0  0  0  0  0  2  0  0  0  0  0  0
  180.1470  180.2650  143.1780 C   0  0  0  0  0  2  0  0  0  0  0  0
  180.5150  178.8970  143.6530 C   0  0  0  0  0  0  0  0  0  0  0  0
  179.6190  178.0230  143.7960 O   0  0  0  0  0  0  0  0  0  0  0  0
  181.8740  178.5600  143.9160 N   0  0  0  0  0  2  0  0  0  0  0  0
  182.8590  179.4820  143.7990 O   0  0  0  0  0  1  0  0  0  0  0  0
  1 30  1  6  0  0  0
  2  5  2  0  0  0  0
  2  9  1  0  0  0  0
  3 10  1  0  0  0  0
  3  1  1  0  0  0  0
  4 32  1  1  0  0  0
  5 11  1  0  0  0  0
  7  4  1  0  0  0  0
  7  1  1  0  0  0  0
  8  4  1  0  0  0  0
  8  6  1  0  0  0  0
  9  3  2  0  0  0  0
 10  6  1  0  0  0  0
 11 10  2  0  0  0  0
 12 16  1  0  0  0  0
 12 15  1  0  0  0  0
 13 14  1  0  0  0  0
 14 19  1  6  0  0  0
 14 18  1  0  0  0  0
 14 20  1  0  0  0  0
 15 13  1  0  0  0  0
 16 17  1  6  0  0  0
 16  5  1  0  0  0  0
 16 18  1  0  0  0  0
 20 21  1  0  0  0  0
 23 22  1  0  0  0  0
 24 23  1  0  0  0  0
 25 21  1  6  0  0  0
 25 24  1  0  0  0  0
 25 28  1  0  0  0  0
 26 28  1  0  0  0  0
 28 22  1  0  0  0  0
 28 27  1  0  0  0  0
 29 30  2  0  0  0  0
 30 31  1  0  0  0  0
 32 33  2  0  0  0  0
 32 34  1  0  0  0  0
 34 35  1  0  0  0  0
 35 36  1  0  0  0  0
 36 37  1  0  0  0  0
 37 38  2  0  0  0  0
 37 39  1  0  0  0  0
 40 39  1  0  0  0  0
M  END
>  <MODEL>
5

>  <REMARK>
 VINA RESULT:      -7.0      3.456      6.723
  Name = 
  9 active torsions:
  status: ('A' for Active; 'I' for Inactive)
    1  A    between atoms: C_2  and  C_13
    2  A    between atoms: C_2  and  C_39
    3  A    between atoms: CA_3  and  C_16
    4  A    between atoms: C_6  and  C_17
    5  A    between atoms: C_14  and  C_39
    6  A    between atoms: C_17  and  C_20
    7  A    between atoms: C_19  and  C_27
    8  A    between atoms: C_20  and  N_37
    9  A    between atoms: C_21  and  C_28
                            x       y       z     vdW  Elec       q    Type
                         _______ _______ _______ _____ _____    ______ ____

>  <TORSDO>
F 9

$$$$
=
 OpenBabel11062417573D

 40 43  0  0  1  0  0  0  0  0999 V2000
  190.3650  176.6350  138.3990 C   0  0  1  0  0  3  0  0  0  0  0  0
  191.7530  177.1210  141.9290 C   0  0  0  0  0  3  0  0  0  0  0  0
  190.4610  176.9130  139.8800 C   0  0  0  0  0  0  0  0  0  0  0  0
  188.7270  178.1810  137.5180 C   0  0  2  0  0  3  0  0  0  0  0  0
  190.6140  177.5500  142.6310 C   0  0  0  0  0  0  0  0  0  0  0  0
  188.0010  177.5030  139.8780 C   0  0  0  0  0  2  0  0  0  0  0  0
  190.1600  177.8780  137.6560 N   0  0  0  0  0  2  0  0  0  0  0  0
  188.0770  178.6230  138.8410 C   0  0  0  0  0  2  0  0  0  0  0  0
  191.6810  176.8190  140.5690 C   0  0  0  0  0  3  0  0  0  0  0  0
  189.3130  177.3380  140.5750 C   0  0  0  0  0  0  0  0  0  0  0  0
  189.3930  177.6390  141.9380 C   0  0  0  0  0  3  0  0  0  0  0  0
  191.6270  176.7570  144.7770 C   0  0  0  0  0  2  0  0  0  0  0  0
  190.3960  177.1510  146.9150 C   0  0  0  0  0  2  0  0  0  0  0  0
  189.1790  177.7950  146.2300 C   0  0  2  0  0  0  0  0  0  0  0  0
  191.0530  176.0990  146.0330 C   0  0  0  0  0  2  0  0  0  0  0  0
  190.6950  177.8020  144.1250 C   0  0  1  0  0  0  0  0  0  0  0  0
  191.2910  179.1780  144.4170 C   0  0  0  0  0  1  0  0  0  0  0  0
  189.2660  177.7410  144.6950 C   0  0  0  0  0  2  0  0  0  0  0  0
  189.0980  179.1320  146.6240 O   0  0  0  0  0  1  0  0  0  0  0  0
  187.9010  177.0600  146.6400 C   0  0  0  0  0  2  0  0  0  0  0  0
  186.9160  176.8590  145.4900 C   0  0  0  0  0  2  0  0  0  0  0  0
  185.6790  179.8780  145.2760 C   0  0  0  0  0  2  0  0  0  0  0  0
  185.9990  179.6940  146.7520 C   0  0  0  0  0  2  0  0  0  0  0  0
  185.6550  178.2600  147.1090 C   0  0  0  0  0  2  0  0  0  0  0  0
  185.5590  177.5020  145.7980 C   0  0  1  0  0  3  0  0  0  0  0  0
  185.6370  178.2800  143.3580 C   0  0  0  0  0  1  0  0  0  0  0  0
  183.6190  178.6280  144.7290 C   0  0  0  0  0  1  0  0  0  0  0  0
  185.1360  178.5550  144.7700 C   0  0  0  0  0  0  0  0  0  0  0  0
  191.5210  174.4870  137.8130 O   0  0  0  0  0  1  0  0  0  0  0  0
  191.5270  175.8770  137.8360 C   0  0  0  0  0  0  0  0  0  0  0  0
  192.5070  176.5060  137.3590 O   0  0  0  0  0  0  0  0  0  0  0  0
  187.9590  177.1260  136.7600 C   0  0  0  0  0  0  0  0  0  0  0  0
  188.5780  176.3810  135.9010 N   0  0  0  0  0  2  0  0  0  0  0  0
  186.5290  177.1220  136.8090 N   0  0  0  0  0  2  0  0  0  0  0  0
  185.7170  176.1780  136.0560 C   0  0  0  0  0  2  0  0  0  0  0  0
  184.2440  176.4800  136.2720 C   0  0  0  0  0  2  0  0  0  0  0  0
  183.8190  176.0560  137.6400 C   0  0  0  0  0  0  0  0  0  0  0  0
  183.7920  174.8320  137.9350 O   0  0  0  0  0  0  0  0  0  0  0  0
  183.4740  177.0250  138.6260 N   0  0  0  0  0  2  0  0  0  0  0  0
  183.4670  178.3470  138.3360 O   0  0  0  0  0  1  0  0  0  0  0  0
  1 30  1  6  0  0  0
  1  3  1  0  0  0  0
  2  5  1  0  0  0  0
  3  9  1  0  0  0  0
  3 10  2  0  0  0  0
  4 32  1  1  0  0  0
  4  7  1  0  0  0  0
  4  8  1  0  0  0  0
  5 16  1  0  0  0  0
  6 10  1  0  0  0  0
  7  1  1  0  0  0  0
  8  6  1  0  0  0  0
  9  2  2  0  0  0  0
 10 11  1  0  0  0  0
 11  5  2  0  0  0  0
 12 15  1  0  0  0  0
 14 19  1  1  0  0  0
 14 20  1  0  0  0  0
 14 13  1  0  0  0  0
 15 13  1  0  0  0  0
 16 17  1  1  0  0  0
 16 18  1  0  0  0  0
 16 12  1  0  0  0  0
 18 14  1  0  0  0  0
 21 20  1  0  0  0  0
 22 23  1  0  0  0  0
 23 24  1  0  0  0  0
 25 21  1  6  0  0  0
 25 24  1  0  0  0  0
 26 28  1  0  0  0  0
 27 28  1  0  0  0  0
 28 22  1  0  0  0  0
 28 25  1  0  0  0  0
 29 30  1  0  0  0  0
 31 30  2  0  0  0  0
 32 34  1  0  0  0  0
 33 32  2  0  0  0  0
 35 36  1  0  0  0  0
 35 34  1  0  0  0  0
 36 37  1  0  0  0  0
 37 38  2  0  0  0  0
 37 39  1  0  0  0  0
 40 39  1  0  0  0  0
M  END
>  <MODEL>
6

>  <REMARK>
 VINA RESULT:      -7.0      3.926      6.976
  Name = 
  9 active torsions:
  status: ('A' for Active; 'I' for Inactive)
    1  A    between atoms: C_2  and  C_13
    2  A    between atoms: C_2  and  C_39
    3  A    between atoms: CA_3  and  C_16
    4  A    between atoms: C_6  and  C_17
    5  A    between atoms: C_14  and  C_39
    6  A    between atoms: C_17  and  C_20
    7  A    between atoms: C_19  and  C_27
    8  A    between atoms: C_20  and  N_37
    9  A    between atoms: C_21  and  C_28
                            x       y       z     vdW  Elec       q    Type
                         _______ _______ _______ _____ _____    ______ ____

>  <TORSDO>
F 9

$$$$
=
 OpenBabel11062417573D

 40 43  0  0  1  0  0  0  0  0999 V2000
  181.4350  177.5060  139.1300 C   0  0  1  0  0  3  0  0  0  0  0  0
  184.4140  176.0930  137.1930 C   0  0  0  0  0  3  0  0  0  0  0  0
  182.8100  177.3390  138.5300 C   0  0  0  0  0  0  0  0  0  0  0  0
  180.9170  179.8650  139.0020 C   0  0  2  0  0  3  0  0  0  0  0  0
  185.3630  177.1200  137.3320 C   0  0  0  0  0  0  0  0  0  0  0  0
  183.4280  179.6190  139.4330 C   0  0  0  0  0  2  0  0  0  0  0  0
  180.6850  178.5380  138.4130 N   0  0  0  0  0  2  0  0  0  0  0  0
  182.3300  180.4080  138.7230 C   0  0  0  0  0  2  0  0  0  0  0  0
  183.1500  176.2070  137.7720 C   0  0  0  0  0  3  0  0  0  0  0  0
  183.7560  178.3710  138.6790 C   0  0  0  0  0  0  0  0  0  0  0  0
  185.0210  178.2500  138.0960 C   0  0  0  0  0  3  0  0  0  0  0  0
  187.0670  175.4410  136.5970 C   0  0  0  0  0  2  0  0  0  0  0  0
  189.4890  176.0350  136.7360 C   0  0  0  0  0  2  0  0  0  0  0  0
  189.2350  177.4120  137.3710 C   0  0  2  0  0  0  0  0  0  0  0  0
  188.4330  175.0180  137.1410 C   0  0  0  0  0  2  0  0  0  0  0  0
  186.7570  176.9460  136.7580 C   0  0  1  0  0  0  0  0  0  0  0  0
  186.8610  177.5760  135.3710 C   0  0  0  0  0  1  0  0  0  0  0  0
  187.7510  177.6450  137.7040 C   0  0  0  0  0  2  0  0  0  0  0  0
  189.6490  178.4010  136.4780 O   0  0  0  0  0  1  0  0  0  0  0  0
  190.0200  177.5370  138.6780 C   0  0  0  0  0  2  0  0  0  0  0  0
  189.1540  177.9110  139.8790 C   0  0  0  0  0  2  0  0  0  0  0  0
  189.8150  178.2440  143.0630 C   0  0  0  0  0  2  0  0  0  0  0  0
  191.1480  177.8770  142.4270 C   0  0  0  0  0  2  0  0  0  0  0  0
  190.8600  176.8540  141.3430 C   0  0  0  0  0  2  0  0  0  0  0  0
  189.3740  176.9470  141.0490 C   0  0  1  0  0  3  0  0  0  0  0  0
  187.4810  178.2530  142.1770 C   0  0  0  0  0  1  0  0  0  0  0  0
  188.4050  176.2200  143.2180 C   0  0  0  0  0  1  0  0  0  0  0  0
  188.7470  177.4270  142.3610 C   0  0  0  0  0  0  0  0  0  0  0  0
  180.8910  175.3080  140.2060 O   0  0  0  0  0  1  0  0  0  0  0  0
  180.6380  176.2420  139.2100 C   0  0  0  0  0  0  0  0  0  0  0  0
  179.7140  176.0360  138.3800 O   0  0  0  0  0  0  0  0  0  0  0  0
  180.4750  179.9720  140.4410 C   0  0  0  0  0  0  0  0  0  0  0  0
  179.5170  180.7850  140.7540 N   0  0  0  0  0  2  0  0  0  0  0  0
  181.2670  179.3710  141.4700 N   0  0  0  0  0  2  0  0  0  0  0  0
  180.9410  179.4840  142.8830 C   0  0  0  0  0  2  0  0  0  0  0  0
  181.6050  178.3580  143.6560 C   0  0  0  0  0  2  0  0  0  0  0  0
  182.9510  178.7820  144.1450 C   0  0  0  0  0  0  0  0  0  0  0  0
  183.0560  179.3780  145.2500 O   0  0  0  0  0  0  0  0  0  0  0  0
  184.1240  178.4920  143.3890 N   0  0  0  0  0  2  0  0  0  0  0  0
  184.0470  177.8780  142.1860 O   0  0  0  0  0  1  0  0  0  0  0  0
  1 30  1  6  0  0  0
  2  5  2  0  0  0  0
  2  9  1  0  0  0  0
  3 10  1  0  0  0  0
  3  1  1  0  0  0  0
  4 32  1  1  0  0  0
  5 11  1  0  0  0  0
  7  4  1  0  0  0  0
  7  1  1  0  0  0  0
  8  4  1  0  0  0  0
  8  6  1  0  0  0  0
  9  3  2  0  0  0  0
 10  6  1  0  0  0  0
 11 10  2  0  0  0  0
 12 16  1  0  0  0  0
 12 15  1  0  0  0  0
 13 15  1  0  0  0  0
 13 14  1  0  0  0  0
 14 19  1  6  0  0  0
 14 18  1  0  0  0  0
 14 20  1  0  0  0  0
 16 17  1  6  0  0  0
 16  5  1  0  0  0  0
 16 18  1  0  0  0  0
 20 21  1  0  0  0  0
 23 22  1  0  0  0  0
 24 23  1  0  0  0  0
 25 21  1  6  0  0  0
 25 24  1  0  0  0  0
 25 28  1  0  0  0  0
 26 28  1  0  0  0  0
 28 22  1  0  0  0  0
 28 27  1  0  0  0  0
 30 29  1  0  0  0  0
 31 30  2  0  0  0  0
 32 33  2  0  0  0  0
 32 34  1  0  0  0  0
 34 35  1  0  0  0  0
 35 36  1  0  0  0  0
 36 37  1  0  0  0  0
 37 38  2  0  0  0  0
 39 37  1  0  0  0  0
 40 39  1  0  0  0  0
M  END
>  <MODEL>
7

>  <REMARK>
 VINA RESULT:      -6.9      3.381      6.861
  Name = 
  9 active torsions:
  status: ('A' for Active; 'I' for Inactive)
    1  A    between atoms: C_2  and  C_13
    2  A    between atoms: C_2  and  C_39
    3  A    between atoms: CA_3  and  C_16
    4  A    between atoms: C_6  and  C_17
    5  A    between atoms: C_14  and  C_39
    6  A    between atoms: C_17  and  C_20
    7  A    between atoms: C_19  and  C_27
    8  A    between atoms: C_20  and  N_37
    9  A    between atoms: C_21  and  C_28
                            x       y       z     vdW  Elec       q    Type
                         _______ _______ _______ _____ _____    ______ ____

>  <TORSDO>
F 9

$$$$
=
 OpenBabel11062417573D

 40 43  0  0  1  0  0  0  0  0999 V2000
  183.4870  178.8440  142.3080 C   0  0  1  0  0  3  0  0  0  0  0  0
  186.5090  177.8040  144.4090 C   0  0  0  0  0  3  0  0  0  0  0  0
  184.9020  178.5420  142.7390 C   0  0  0  0  0  0  0  0  0  0  0  0
  183.3060  178.1220  140.0070 C   0  0  2  0  0  3  0  0  0  0  0  0
  187.5530  177.8800  143.4710 C   0  0  0  0  0  0  0  0  0  0  0  0
  185.6720  179.0240  140.3790 C   0  0  0  0  0  2  0  0  0  0  0  0
  182.9910  177.8030  141.4080 N   0  0  0  0  0  2  0  0  0  0  0  0
  184.8020  177.9810  139.6800 C   0  0  0  0  0  2  0  0  0  0  0  0
  185.1990  178.1170  144.0440 C   0  0  0  0  0  3  0  0  0  0  0  0
  185.9420  178.6260  141.7940 C   0  0  0  0  0  0  0  0  0  0  0  0
  187.2520  178.3110  142.1660 C   0  0  0  0  0  3  0  0  0  0  0  0
  189.6450  178.9260  144.3600 C   0  0  0  0  0  2  0  0  0  0  0  0
  191.8470  177.8810  143.8130 C   0  0  0  0  0  2  0  0  0  0  0  0
  191.2370  176.7880  142.9210 C   0  0  2  0  0  0  0  0  0  0  0  0
  191.0350  179.1680  143.7700 C   0  0  0  0  0  2  0  0  0  0  0  0
  188.9810  177.6080  143.9040 C   0  0  1  0  0  0  0  0  0  0  0  0
  189.0200  176.6520  145.0950 C   0  0  0  0  0  1  0  0  0  0  0  0
  189.7220  176.9650  142.7180 C   0  0  0  0  0  2  0  0  0  0  0  0
  191.4620  175.5450  143.5160 O   0  0  0  0  0  1  0  0  0  0  0  0
  191.8890  176.8200  141.5370 C   0  0  0  0  0  2  0  0  0  0  0  0
  191.0380  177.5140  140.4760 C   0  0  0  0  0  2  0  0  0  0  0  0
  190.3250  177.3610  137.2890 C   0  0  0  0  0  2  0  0  0  0  0  0
  189.0180  177.7560  137.9600 C   0  0  0  0  0  2  0  0  0  0  0  0
  188.9340  176.9850  139.2660 C   0  0  0  0  0  2  0  0  0  0  0  0
  190.3390  176.4980  139.5670 C   0  0  1  0  0  3  0  0  0  0  0  0
  192.5090  176.5730  138.2070 C   0  0  0  0  0  1  0  0  0  0  0  0
  190.7340  174.9520  137.6620 C   0  0  0  0  0  1  0  0  0  0  0  0
  191.0020  176.3490  138.1940 C   0  0  0  0  0  0  0  0  0  0  0  0
  181.2070  179.4040  143.1900 O   0  0  0  0  0  0  0  0  0  0  0  0
  182.5290  179.0560  143.4380 C   0  0  0  0  0  0  0  0  0  0  0  0
  182.9200  178.8940  144.6240 O   0  0  0  0  0  1  0  0  0  0  0  0
  182.6740  179.4050  139.5260 C   0  0  0  0  0  0  0  0  0  0  0  0
  183.4240  180.3400  139.0370 N   0  0  0  0  0  2  0  0  0  0  0  0
  181.3040  179.6780  139.8360 N   0  0  0  0  0  2  0  0  0  0  0  0
  180.6430  180.9190  139.4620 C   0  0  0  0  0  2  0  0  0  0  0  0
  179.7440  180.6810  138.2620 C   0  0  0  0  0  2  0  0  0  0  0  0
  180.4350  181.0890  137.0020 C   0  0  0  0  0  0  0  0  0  0  0  0
  181.0890  180.2370  136.3440 O   0  0  0  0  0  0  0  0  0  0  0  0
  180.3360  182.4260  136.5180 N   0  0  0  0  0  2  0  0  0  0  0  0
  179.6650  183.3730  137.2130 O   0  0  0  0  0  1  0  0  0  0  0  0
  1  3  1  0  0  0  0
  1 30  1  1  0  0  0
  3  9  2  0  0  0  0
  4 32  1  1  0  0  0
  4  7  1  0  0  0  0
  5 16  1  0  0  0  0
  5  2  2  0  0  0  0
  6 10  1  0  0  0  0
  7  1  1  0  0  0  0
  8  4  1  0  0  0  0
  8  6  1  0  0  0  0
  9  2  1  0  0  0  0
 10 11  2  0  0  0  0
 10  3  1  0  0  0  0
 11  5  1  0  0  0  0
 14 19  1  1  0  0  0
 14 13  1  0  0  0  0
 15 13  1  0  0  0  0
 15 12  1  0  0  0  0
 16 12  1  0  0  0  0
 16 17  1  1  0  0  0
 18 14  1  0  0  0  0
 18 16  1  0  0  0  0
 20 14  1  0  0  0  0
 21 20  1  0  0  0  0
 22 23  1  0  0  0  0
 22 28  1  0  0  0  0
 23 24  1  0  0  0  0
 24 25  1  0  0  0  0
 25 21  1  1  0  0  0
 27 28  1  0  0  0  0
 28 26  1  0  0  0  0
 28 25  1  0  0  0  0
 29 30  2  0  0  0  0
 30 31  1  0  0  0  0
 32 34  1  0  0  0  0
 33 32  2  0  0  0  0
 35 34  1  0  0  0  0
 36 35  1  0  0  0  0
 37 36  1  0  0  0  0
 38 37  2  0  0  0  0
 39 37  1  0  0  0  0
 39 40  1  0  0  0  0
M  END
>  <MODEL>
8

>  <REMARK>
 VINA RESULT:      -6.9      2.278      3.809
  Name = 
  9 active torsions:
  status: ('A' for Active; 'I' for Inactive)
    1  A    between atoms: C_2  and  C_13
    2  A    between atoms: C_2  and  C_39
    3  A    between atoms: CA_3  and  C_16
    4  A    between atoms: C_6  and  C_17
    5  A    between atoms: C_14  and  C_39
    6  A    between atoms: C_17  and  C_20
    7  A    between atoms: C_19  and  C_27
    8  A    between atoms: C_20  and  N_37
    9  A    between atoms: C_21  and  C_28
                            x       y       z     vdW  Elec       q    Type
                         _______ _______ _______ _____ _____    ______ ____

>  <TORSDO>
F 9

$$$$
=
 OpenBabel11062417573D

 40 43  0  0  1  0  0  0  0  0999 V2000
  183.0020  178.9980  141.9370 C   0  0  1  0  0  3  0  0  0  0  0  0
  186.4770  177.8390  143.0350 C   0  0  0  0  0  3  0  0  0  0  0  0
  184.4800  178.6870  141.9380 C   0  0  0  0  0  0  0  0  0  0  0  0
  182.1960  178.4720  139.7180 C   0  0  2  0  0  3  0  0  0  0  0  0
  187.2260  178.0160  141.8590 C   0  0  0  0  0  0  0  0  0  0  0  0
  184.5780  179.3840  139.5080 C   0  0  0  0  0  2  0  0  0  0  0  0
  182.2740  178.0280  141.1180 N   0  0  0  0  0  2  0  0  0  0  0  0
  183.5450  178.3880  138.9840 C   0  0  0  0  0  2  0  0  0  0  0  0
  185.1190  178.1570  143.0700 C   0  0  0  0  0  3  0  0  0  0  0  0
  185.2220  178.8710  140.7560 C   0  0  0  0  0  0  0  0  0  0  0  0
  186.5820  178.5500  140.7280 C   0  0  0  0  0  3  0  0  0  0  0  0
  188.9570  176.2090  141.8210 C   0  0  0  0  0  2  0  0  0  0  0  0
  191.1780  176.6380  142.8790 C   0  0  0  0  0  2  0  0  0  0  0  0
  190.7990  178.0430  143.3760 C   0  0  2  0  0  0  0  0  0  0  0  0
  189.9770  175.7050  142.8440 C   0  0  0  0  0  2  0  0  0  0  0  0
  188.7170  177.7340  141.8610 C   0  0  1  0  0  0  0  0  0  0  0  0
  189.3880  178.3250  140.6220 C   0  0  0  0  0  1  0  0  0  0  0  0
  189.3210  178.3840  143.1190 C   0  0  0  0  0  2  0  0  0  0  0  0
  191.5930  178.9820  142.7160 O   0  0  0  0  0  1  0  0  0  0  0  0
  191.0330  178.1430  144.8850 C   0  0  0  0  0  2  0  0  0  0  0  0
  189.7480  178.3050  145.6940 C   0  0  0  0  0  2  0  0  0  0  0  0
  188.7650  178.2530  148.8120 C   0  0  0  0  0  2  0  0  0  0  0  0
  190.2850  178.2500  148.8840 C   0  0  0  0  0  2  0  0  0  0  0  0
  190.7850  177.3740  147.7500 C   0  0  0  0  0  2  0  0  0  0  0  0
  189.6300  177.2290  146.7780 C   0  0  1  0  0  3  0  0  0  0  0  0
  187.1780  177.9590  146.9070 C   0  0  0  0  0  1  0  0  0  0  0  0
  187.9780  175.9990  148.1700 C   0  0  0  0  0  1  0  0  0  0  0  0
  188.3730  177.3680  147.6430 C   0  0  0  0  0  0  0  0  0  0  0  0
  183.0640  179.7310  144.3340 O   0  0  0  0  0  1  0  0  0  0  0  0
  182.3900  179.0940  143.2990 C   0  0  0  0  0  0  0  0  0  0  0  0
  181.2450  178.6140  143.5010 O   0  0  0  0  0  0  0  0  0  0  0  0
  181.4630  179.7790  139.5410 C   0  0  0  0  0  0  0  0  0  0  0  0
  180.6880  180.2080  140.4860 N   0  0  0  0  0  2  0  0  0  0  0  0
  181.4320  180.4030  138.2540 N   0  0  0  0  0  2  0  0  0  0  0  0
  180.6950  181.6290  137.9900 C   0  0  0  0  0  2  0  0  0  0  0  0
  181.1620  182.2370  136.6790 C   0  0  0  0  0  2  0  0  0  0  0  0
  180.6760  183.6450  136.5540 C   0  0  0  0  0  0  0  0  0  0  0  0
  179.5540  183.8740  136.0300 O   0  0  0  0  0  0  0  0  0  0  0  0
  181.4560  184.7300  137.0500 N   0  0  0  0  0  2  0  0  0  0  0  0
  182.6780  184.5220  137.5940 O   0  0  0  0  0  1  0  0  0  0  0  0
  1  3  1  0  0  0  0
  1 30  1  1  0  0  0
  2  9  1  0  0  0  0
  3  9  2  0  0  0  0
  4 32  1  1  0  0  0
  4  7  1  0  0  0  0
  5 16  1  0  0  0  0
  5  2  2  0  0  0  0
  6 10  1  0  0  0  0
  7  1  1  0  0  0  0
  8  6  1  0  0  0  0
  8  4  1  0  0  0  0
 10  3  1  0  0  0  0
 11 10  2  0  0  0  0
 11  5  1  0  0  0  0
 12 16  1  0  0  0  0
 12 15  1  0  0  0  0
 13 14  1  0  0  0  0
 14 19  1  6  0  0  0
 14 20  1  0  0  0  0
 15 13  1  0  0  0  0
 16 17  1  6  0  0  0
 16 18  1  0  0  0  0
 18 14  1  0  0  0  0
 20 21  1  0  0  0  0
 22 23  1  0  0  0  0
 24 23  1  0  0  0  0
 25 21  1  6  0  0  0
 25 28  1  0  0  0  0
 25 24  1  0  0  0  0
 26 28  1  0  0  0  0
 28 27  1  0  0  0  0
 28 22  1  0  0  0  0
 30 31  2  0  0  0  0
 30 29  1  0  0  0  0
 32 33  2  0  0  0  0
 34 32  1  0  0  0  0
 35 34  1  0  0  0  0
 36 35  1  0  0  0  0
 37 36  1  0  0  0  0
 37 39  1  0  0  0  0
 38 37  2  0  0  0  0
 39 40  1  0  0  0  0
M  END
>  <MODEL>
9

>  <REMARK>
 VINA RESULT:      -6.8      1.771      4.111
  Name = 
  9 active torsions:
  status: ('A' for Active; 'I' for Inactive)
    1  A    between atoms: C_2  and  C_13
    2  A    between atoms: C_2  and  C_39
    3  A    between atoms: CA_3  and  C_16
    4  A    between atoms: C_6  and  C_17
    5  A    between atoms: C_14  and  C_39
    6  A    between atoms: C_17  and  C_20
    7  A    between atoms: C_19  and  C_27
    8  A    between atoms: C_20  and  N_37
    9  A    between atoms: C_21  and  C_28
                            x       y       z     vdW  Elec       q    Type
                         _______ _______ _______ _____ _____    ______ ____

>  <TORSDO>
F 9

$$$$
