=
 OpenBabel11062413263D

 30 35  0  0  1  0  0  0  0  0999 V2000
  191.4610  177.8720  145.6570 N   0  0  0  0  0  1  0  0  0  0  0  0
  190.8160  178.5360  143.5340 C   0  0  0  0  0  2  0  0  0  0  0  0
  190.8910  175.9640  142.6440 C   0  0  0  0  0  2  0  0  0  0  0  0
  189.4670  177.9160  143.1250 C   0  0  1  0  0  3  0  0  0  0  0  0
  189.6030  176.6270  142.4130 N   0  0  0  0  0  0  0  0  0  0  0  0
  191.6840  177.6200  144.2970 N   0  0  0  0  0  0  0  0  0  0  0  0
  191.3830  176.2020  144.0690 C   0  0  0  0  0  2  0  0  0  0  0  0
  185.0290  178.1020  142.6190 C   0  0  2  0  0  3  0  0  0  0  0  0
  186.7110  179.1480  141.7770 C   0  0  0  0  0  2  0  0  0  0  0  0
  188.5370  177.7940  144.3340 C   0  0  2  0  0  3  0  0  0  0  0  0
  186.5330  177.8160  142.4860 C   0  0  1  0  0  3  0  0  0  0  0  0
  187.6800  176.5380  144.2720 C   0  0  0  0  0  2  0  0  0  0  0  0
  187.0740  177.8730  143.9030 C   0  0  1  0  0  0  0  0  0  0  0  0
  185.9810  178.2230  144.8220 C   0  0  0  0  0  0  0  0  0  0  0  0
  185.2210  179.4230  141.8940 C   0  0  1  0  0  3  0  0  0  0  0  0
  184.6920  178.3550  144.1020 C   0  0  0  0  0  2  0  0  0  0  0  0
  184.6100  179.3470  140.5790 N   0  0  0  0  0  1  0  0  0  0  0  0
  186.1120  178.4070  146.0220 O   0  0  0  0  0  0  0  0  0  0  0  0
  189.5200  176.8870  140.9800 C   0  0  0  0  0  2  0  0  0  0  0  0
  190.5660  176.2430  140.3090 O   0  0  0  0  0  0  0  0  0  0  0  0
  190.9960  174.9660  137.3300 C   0  0  0  0  0  0  0  0  0  0  0  0
  192.2860  176.6850  138.6920 C   0  0  0  0  0  2  0  0  0  0  0  0
  189.8770  177.0690  138.1630 C   0  0  0  0  0  2  0  0  0  0  0  0
  192.1620  173.0870  136.3330 C   0  0  0  0  0  3  0  0  0  0  0  0
  190.9800  173.7940  136.5650 C   0  0  0  0  0  3  0  0  0  0  0  0
  193.3670  173.5420  136.8720 C   0  0  0  0  0  3  0  0  0  0  0  0
  189.6900  175.6490  137.6230 C   0  0  0  0  0  2  0  0  0  0  0  0
  190.9320  177.1010  139.2670 C   0  0  1  0  0  3  0  0  0  0  0  0
  193.3910  174.7030  137.6480 C   0  0  0  0  0  3  0  0  0  0  0  0
  192.2110  175.4120  137.8960 C   0  0  0  0  0  0  0  0  0  0  0  0
  2  6  1  0  0  0  0
  3  7  1  0  0  0  0
  4  2  1  1  0  0  0
  4 10  1  0  0  0  0
  5  3  1  0  0  0  0
  5  4  1  0  0  0  0
  6  1  1  0  0  0  0
  7  6  1  0  0  0  0
  8 16  1  1  0  0  0
  9 15  1  0  0  0  0
 10 12  1  6  0  0  0
 11  9  1  6  0  0  0
 11  8  1  0  0  0  0
 11 13  1  0  0  0  0
 13 12  1  1  0  0  0
 13 10  1  0  0  0  0
 13 14  1  0  0  0  0
 14 18  2  0  0  0  0
 15 17  1  6  0  0  0
 15  8  1  0  0  0  0
 16 14  1  0  0  0  0
 19  5  1  0  0  0  0
 20 19  1  0  0  0  0
 21 27  1  0  0  0  0
 21 30  1  0  0  0  0
 22 28  1  0  0  0  0
 23 28  1  0  0  0  0
 24 25  1  0  0  0  0
 24 26  2  0  0  0  0
 25 21  2  0  0  0  0
 26 29  1  0  0  0  0
 27 23  1  0  0  0  0
 28 20  1  1  0  0  0
 29 30  2  0  0  0  0
 30 22  1  0  0  0  0
M  END
>  <MODEL>
1

>  <REMARK>
 VINA RESULT:      -8.6      0.000      0.000
  Name = 
  4 active torsions:
  status: ('A' for Active; 'I' for Inactive)
    1  A    between atoms: C_7  and  C_17
    2  A    between atoms: C_9  and  O_16
    3  A    between atoms: C_9  and  N_19
    4  A    between atoms: O_16  and  C_27
                            x       y       z     vdW  Elec       q    Type
                         _______ _______ _______ _____ _____    ______ ____

>  <TORSDO>
F 4

$$$$
=
 OpenBabel11062413263D

 30 35  0  0  1  0  0  0  0  0999 V2000
  187.3400  178.6180  136.1550 N   0  0  0  0  0  1  0  0  0  0  0  0
  189.2510  178.8750  137.4360 C   0  0  0  0  0  2  0  0  0  0  0  0
  187.9180  178.1100  139.6830 C   0  0  0  0  0  2  0  0  0  0  0  0
  189.6960  177.5460  138.0740 C   0  0  1  0  0  3  0  0  0  0  0  0
  189.1240  177.3170  139.4180 N   0  0  0  0  0  0  0  0  0  0  0  0
  187.7890  179.0590  137.4060 N   0  0  0  0  0  0  0  0  0  0  0  0
  187.0780  178.2710  138.4200 C   0  0  0  0  0  2  0  0  0  0  0  0
  192.7430  174.3360  137.4460 C   0  0  2  0  0  3  0  0  0  0  0  0
  192.7950  176.4790  137.6350 C   0  0  0  0  0  2  0  0  0  0  0  0
  189.4120  176.3710  137.1360 C   0  0  2  0  0  3  0  0  0  0  0  0
  191.7980  175.4000  138.0250 C   0  0  1  0  0  3  0  0  0  0  0  0
  189.3510  175.0450  137.8800 C   0  0  0  0  0  2  0  0  0  0  0  0
  190.5950  175.4050  137.1010 C   0  0  1  0  0  0  0  0  0  0  0  0
  190.8220  174.4490  136.0080 C   0  0  0  0  0  0  0  0  0  0  0  0
  193.7360  175.4250  137.0780 C   0  0  1  0  0  3  0  0  0  0  0  0
  192.1140  173.7400  136.1710 C   0  0  0  0  0  2  0  0  0  0  0  0
  194.9070  175.3220  137.9300 N   0  0  0  0  0  1  0  0  0  0  0  0
  190.0630  174.2710  135.0680 O   0  0  0  0  0  0  0  0  0  0  0  0
  190.1140  177.7210  140.4110 C   0  0  0  0  0  2  0  0  0  0  0  0
  189.5200  177.8230  141.6740 O   0  0  0  0  0  0  0  0  0  0  0  0
  189.2970  177.0820  144.8510 C   0  0  0  0  0  0  0  0  0  0  0  0
  190.2690  175.8620  142.8410 C   0  0  0  0  0  2  0  0  0  0  0  0
  187.8660  176.5360  142.8450 C   0  0  0  0  0  2  0  0  0  0  0  0
  190.6290  177.3650  146.8590 C   0  0  0  0  0  3  0  0  0  0  0  0
  189.4360  177.5610  146.1590 C   0  0  0  0  0  3  0  0  0  0  0  0
  191.6940  176.6970  146.2520 C   0  0  0  0  0  3  0  0  0  0  0  0
  188.0280  177.3870  144.1070 C   0  0  0  0  0  2  0  0  0  0  0  0
  189.1550  176.5190  142.0270 C   0  0  1  0  0  3  0  0  0  0  0  0
  191.5700  176.2260  144.9420 C   0  0  0  0  0  3  0  0  0  0  0  0
  190.3830  176.4280  144.2290 C   0  0  0  0  0  0  0  0  0  0  0  0
  1  6  1  0  0  0  0
  4  2  1  6  0  0  0
  4  5  1  0  0  0  0
  5  3  1  0  0  0  0
  5 19  1  0  0  0  0
  6  2  1  0  0  0  0
  6  7  1  0  0  0  0
  7  3  1  0  0  0  0
  8 16  1  6  0  0  0
  8 11  1  0  0  0  0
 10 12  1  1  0  0  0
 10  4  1  0  0  0  0
 11  9  1  6  0  0  0
 13 10  1  0  0  0  0
 13 12  1  1  0  0  0
 13 11  1  0  0  0  0
 14 16  1  0  0  0  0
 14 13  1  0  0  0  0
 15  8  1  0  0  0  0
 15  9  1  0  0  0  0
 15 17  1  1  0  0  0
 18 14  2  0  0  0  0
 19 20  1  0  0  0  0
 21 25  1  0  0  0  0
 22 30  1  0  0  0  0
 23 27  1  0  0  0  0
 25 24  2  0  0  0  0
 26 24  1  0  0  0  0
 27 21  1  0  0  0  0
 28 20  1  1  0  0  0
 28 22  1  0  0  0  0
 28 23  1  0  0  0  0
 29 26  2  0  0  0  0
 30 21  2  0  0  0  0
 30 29  1  0  0  0  0
M  END
>  <MODEL>
2

>  <REMARK>
 VINA RESULT:      -8.3      2.681      8.114
  Name = 
  4 active torsions:
  status: ('A' for Active; 'I' for Inactive)
    1  A    between atoms: C_7  and  C_17
    2  A    between atoms: C_9  and  O_16
    3  A    between atoms: C_9  and  N_19
    4  A    between atoms: O_16  and  C_27
                            x       y       z     vdW  Elec       q    Type
                         _______ _______ _______ _____ _____    ______ ____

>  <TORSDO>
F 4

$$$$
=
 OpenBabel11062413263D

 30 35  0  0  1  0  0  0  0  0999 V2000
  191.2960  177.6260  145.9460 N   0  0  0  0  0  1  0  0  0  0  0  0
  190.8740  178.6580  143.9170 C   0  0  0  0  0  2  0  0  0  0  0  0
  191.1580  176.2970  142.5910 C   0  0  0  0  0  2  0  0  0  0  0  0
  189.6090  178.0990  143.2410 C   0  0  1  0  0  3  0  0  0  0  0  0
  189.8790  176.9660  142.3290 N   0  0  0  0  0  0  0  0  0  0  0  0
  191.6850  177.6340  144.6000 N   0  0  0  0  0  0  0  0  0  0  0  0
  191.4710  176.2770  144.0840 C   0  0  0  0  0  2  0  0  0  0  0  0
  185.2670  178.0640  142.1770 C   0  0  2  0  0  3  0  0  0  0  0  0
  186.9450  179.3330  141.7200 C   0  0  0  0  0  2  0  0  0  0  0  0
  188.5510  177.7360  144.2850 C   0  0  2  0  0  3  0  0  0  0  0  0
  186.7940  177.9010  142.2080 C   0  0  1  0  0  3  0  0  0  0  0  0
  187.8160  176.4500  143.9360 C   0  0  0  0  0  2  0  0  0  0  0  0
  187.1500  177.7820  143.6780 C   0  0  1  0  0  0  0  0  0  0  0  0
  185.9270  177.9190  144.4820 C   0  0  0  0  0  0  0  0  0  0  0  0
  185.4340  179.4880  141.6740 C   0  0  1  0  0  3  0  0  0  0  0  0
  184.7300  178.0720  143.6210 C   0  0  0  0  0  2  0  0  0  0  0  0
  184.9980  179.5690  140.2920 N   0  0  0  0  0  1  0  0  0  0  0  0
  185.8930  177.9310  145.7020 O   0  0  0  0  0  0  0  0  0  0  0  0
  189.9520  177.4850  140.9670 C   0  0  0  0  0  2  0  0  0  0  0  0
  189.2510  176.6480  140.0920 O   0  0  0  0  0  0  0  0  0  0  0  0
  187.1650  177.0780  137.6100 C   0  0  0  0  0  0  0  0  0  0  0  0
  189.3550  175.8040  137.8450 C   0  0  0  0  0  2  0  0  0  0  0  0
  189.2850  178.2560  138.3100 C   0  0  0  0  0  2  0  0  0  0  0  0
  185.2110  175.9710  136.6940 C   0  0  0  0  0  3  0  0  0  0  0  0
  185.8200  177.1100  137.2280 C   0  0  0  0  0  3  0  0  0  0  0  0
  185.9420  174.7900  136.5480 C   0  0  0  0  0  3  0  0  0  0  0  0
  187.7570  178.3000  138.2550 C   0  0  0  0  0  2  0  0  0  0  0  0
  189.7760  176.9030  138.8210 C   0  0  1  0  0  3  0  0  0  0  0  0
  187.2830  174.7450  136.9390 C   0  0  0  0  0  3  0  0  0  0  0  0
  187.8980  175.8770  137.4850 C   0  0  0  0  0  0  0  0  0  0  0  0
  2  6  1  0  0  0  0
  3  7  1  0  0  0  0
  4  2  1  1  0  0  0
  4 10  1  0  0  0  0
  5  3  1  0  0  0  0
  5  4  1  0  0  0  0
  6  1  1  0  0  0  0
  7  6  1  0  0  0  0
  8 11  1  0  0  0  0
  8 16  1  1  0  0  0
 10 12  1  6  0  0  0
 11  9  1  1  0  0  0
 11 13  1  0  0  0  0
 13 12  1  6  0  0  0
 13 10  1  0  0  0  0
 13 14  1  0  0  0  0
 14 18  2  0  0  0  0
 15 17  1  6  0  0  0
 15  9  1  0  0  0  0
 15  8  1  0  0  0  0
 16 14  1  0  0  0  0
 19  5  1  0  0  0  0
 20 19  1  0  0  0  0
 21 27  1  0  0  0  0
 22 28  1  0  0  0  0
 23 28  1  0  0  0  0
 24 25  1  0  0  0  0
 25 21  2  0  0  0  0
 26 24  2  0  0  0  0
 26 29  1  0  0  0  0
 27 23  1  0  0  0  0
 28 20  1  1  0  0  0
 29 30  2  0  0  0  0
 30 21  1  0  0  0  0
 30 22  1  0  0  0  0
M  END
>  <MODEL>
3

>  <REMARK>
 VINA RESULT:      -8.2      1.746      2.930
  Name = 
  4 active torsions:
  status: ('A' for Active; 'I' for Inactive)
    1  A    between atoms: C_7  and  C_17
    2  A    between atoms: C_9  and  O_16
    3  A    between atoms: C_9  and  N_19
    4  A    between atoms: O_16  and  C_27
                            x       y       z     vdW  Elec       q    Type
                         _______ _______ _______ _____ _____    ______ ____

>  <TORSDO>
F 4

$$$$
=
 OpenBabel11062413263D

 30 35  0  0  1  0  0  0  0  0999 V2000
  191.9660  178.0010  145.3320 N   0  0  0  0  0  1  0  0  0  0  0  0
  190.4940  178.6760  143.6780 C   0  0  0  0  0  2  0  0  0  0  0  0
  190.1300  176.1010  142.8700 C   0  0  0  0  0  2  0  0  0  0  0  0
  189.0860  178.0870  143.8880 C   0  0  1  0  0  3  0  0  0  0  0  0
  188.8800  176.7940  143.2000 N   0  0  0  0  0  0  0  0  0  0  0  0
  191.5840  177.7410  144.0090 N   0  0  0  0  0  0  0  0  0  0  0  0
  191.1850  176.3300  143.9470 C   0  0  0  0  0  2  0  0  0  0  0  0
  184.8430  178.1050  145.2940 C   0  0  2  0  0  3  0  0  0  0  0  0
  185.9630  179.1670  143.7930 C   0  0  0  0  0  2  0  0  0  0  0  0
  188.7570  177.9880  145.3790 C   0  0  2  0  0  3  0  0  0  0  0  0
  186.1640  177.8620  144.5470 C   0  0  1  0  0  3  0  0  0  0  0  0
  188.0140  176.7040  145.7180 C   0  0  0  0  0  2  0  0  0  0  0  0
  187.2450  178.0010  145.6030 C   0  0  1  0  0  0  0  0  0  0  0  0
  186.6240  178.3560  146.8870 C   0  0  0  0  0  0  0  0  0  0  0  0
  184.6480  179.3980  144.5200 C   0  0  1  0  0  3  0  0  0  0  0  0
  185.1470  178.4140  146.7730 C   0  0  0  0  0  2  0  0  0  0  0  0
  183.5460  179.2430  143.5870 N   0  0  0  0  0  1  0  0  0  0  0  0
  187.2370  178.5980  147.9140 O   0  0  0  0  0  0  0  0  0  0  0  0
  188.2000  177.0530  141.9360 C   0  0  0  0  0  2  0  0  0  0  0  0
  188.9750  176.5900  140.8660 O   0  0  0  0  0  0  0  0  0  0  0  0
  189.8440  176.1450  137.7450 C   0  0  0  0  0  0  0  0  0  0  0  0
  190.7090  177.6620  139.5970 C   0  0  0  0  0  2  0  0  0  0  0  0
  188.3160  177.7930  138.8960 C   0  0  0  0  0  2  0  0  0  0  0  0
  191.3910  174.7600  136.4920 C   0  0  0  0  0  3  0  0  0  0  0  0
  190.0900  175.2030  136.7400 C   0  0  0  0  0  3  0  0  0  0  0  0
  192.4550  175.2490  137.2540 C   0  0  0  0  0  3  0  0  0  0  0  0
  188.4210  176.5330  138.0330 C   0  0  0  0  0  2  0  0  0  0  0  0
  189.2630  177.7180  140.0920 C   0  0  1  0  0  3  0  0  0  0  0  0
  192.2170  176.1800  138.2690 C   0  0  0  0  0  3  0  0  0  0  0  0
  190.9170  176.6220  138.5320 C   0  0  0  0  0  0  0  0  0  0  0  0
  2  6  1  0  0  0  0
  3  5  1  0  0  0  0
  3  7  1  0  0  0  0
  4  2  1  1  0  0  0
  4 10  1  0  0  0  0
  5  4  1  0  0  0  0
  6  1  1  0  0  0  0
  7  6  1  0  0  0  0
  8 16  1  1  0  0  0
  9 15  1  0  0  0  0
 10 13  1  0  0  0  0
 10 12  1  6  0  0  0
 11  9  1  6  0  0  0
 11  8  1  0  0  0  0
 11 13  1  0  0  0  0
 13 12  1  1  0  0  0
 13 14  1  0  0  0  0
 14 18  2  0  0  0  0
 15 17  1  6  0  0  0
 15  8  1  0  0  0  0
 16 14  1  0  0  0  0
 19  5  1  0  0  0  0
 20 19  1  0  0  0  0
 21 27  1  0  0  0  0
 21 30  1  0  0  0  0
 22 28  1  0  0  0  0
 23 28  1  0  0  0  0
 24 25  1  0  0  0  0
 24 26  2  0  0  0  0
 25 21  2  0  0  0  0
 26 29  1  0  0  0  0
 27 23  1  0  0  0  0
 28 20  1  6  0  0  0
 29 30  2  0  0  0  0
 30 22  1  0  0  0  0
M  END
>  <MODEL>
4

>  <REMARK>
 VINA RESULT:      -7.8      1.387      1.830
  Name = 
  4 active torsions:
  status: ('A' for Active; 'I' for Inactive)
    1  A    between atoms: C_7  and  C_17
    2  A    between atoms: C_9  and  O_16
    3  A    between atoms: C_9  and  N_19
    4  A    between atoms: O_16  and  C_27
                            x       y       z     vdW  Elec       q    Type
                         _______ _______ _______ _____ _____    ______ ____

>  <TORSDO>
F 4

$$$$
=
 OpenBabel11062413263D

 30 35  0  0  1  0  0  0  0  0999 V2000
  187.8300  178.9440  136.9480 N   0  0  0  0  0  1  0  0  0  0  0  0
  189.7420  178.7350  138.2370 C   0  0  0  0  0  2  0  0  0  0  0  0
  188.3520  177.4580  140.1980 C   0  0  0  0  0  2  0  0  0  0  0  0
  190.1090  177.2600  138.4830 C   0  0  1  0  0  3  0  0  0  0  0  0
  189.5140  176.7030  139.7180 N   0  0  0  0  0  0  0  0  0  0  0  0
  188.2930  179.0000  138.2690 N   0  0  0  0  0  0  0  0  0  0  0  0
  187.5320  178.0040  139.0330 C   0  0  0  0  0  2  0  0  0  0  0  0
  193.0900  174.3790  136.8100 C   0  0  2  0  0  3  0  0  0  0  0  0
  193.1730  176.3770  137.6060 C   0  0  0  0  0  2  0  0  0  0  0  0
  189.7680  176.4040  137.2620 C   0  0  2  0  0  3  0  0  0  0  0  0
  192.1840  175.2270  137.7160 C   0  0  1  0  0  3  0  0  0  0  0  0
  189.7290  174.9200  137.5940 C   0  0  0  0  0  2  0  0  0  0  0  0
  190.9390  175.4940  136.8920 C   0  0  1  0  0  0  0  0  0  0  0  0
  191.1040  174.8950  135.5600 C   0  0  0  0  0  0  0  0  0  0  0  0
  194.0760  175.5320  136.7240 C   0  0  1  0  0  3  0  0  0  0  0  0
  192.3950  174.1740  135.4500 C   0  0  0  0  0  2  0  0  0  0  0  0
  195.2840  175.1920  137.4530 N   0  0  0  0  0  1  0  0  0  0  0  0
  190.3000  174.9920  134.6470 O   0  0  0  0  0  0  0  0  0  0  0  0
  190.5170  176.7650  140.7750 C   0  0  0  0  0  2  0  0  0  0  0  0
  189.8970  176.8730  142.0250 O   0  0  0  0  0  0  0  0  0  0  0  0
  190.5120  177.3390  145.2030 C   0  0  0  0  0  0  0  0  0  0  0  0
  189.1120  178.6030  143.4950 C   0  0  0  0  0  2  0  0  0  0  0  0
  191.5500  178.2510  143.0900 C   0  0  0  0  0  2  0  0  0  0  0  0
  189.5420  176.7010  147.3330 C   0  0  0  0  0  3  0  0  0  0  0  0
  190.6300  176.7280  146.4560 C   0  0  0  0  0  3  0  0  0  0  0  0
  188.3270  177.2780  146.9580 C   0  0  0  0  0  3  0  0  0  0  0  0
  191.6810  177.2730  144.2600 C   0  0  0  0  0  2  0  0  0  0  0  0
  190.1580  178.1750  142.4660 C   0  0  1  0  0  3  0  0  0  0  0  0
  188.1960  177.8790  145.7030 C   0  0  0  0  0  3  0  0  0  0  0  0
  189.2760  177.9020  144.8140 C   0  0  0  0  0  0  0  0  0  0  0  0
  1  6  1  0  0  0  0
  2  6  1  0  0  0  0
  4  2  1  6  0  0  0
  4  5  1  0  0  0  0
  5  3  1  0  0  0  0
  5 19  1  0  0  0  0
  6  7  1  0  0  0  0
  7  3  1  0  0  0  0
  8 16  1  6  0  0  0
  8 11  1  0  0  0  0
 10 12  1  1  0  0  0
 10  4  1  0  0  0  0
 11  9  1  6  0  0  0
 13 10  1  0  0  0  0
 13 12  1  1  0  0  0
 13 11  1  0  0  0  0
 14 13  1  0  0  0  0
 15  8  1  0  0  0  0
 15 17  1  1  0  0  0
 15  9  1  0  0  0  0
 16 14  1  0  0  0  0
 18 14  2  0  0  0  0
 19 20  1  0  0  0  0
 21 25  1  0  0  0  0
 22 30  1  0  0  0  0
 23 27  1  0  0  0  0
 25 24  2  0  0  0  0
 26 24  1  0  0  0  0
 27 21  1  0  0  0  0
 28 20  1  1  0  0  0
 28 23  1  0  0  0  0
 28 22  1  0  0  0  0
 29 26  2  0  0  0  0
 30 21  2  0  0  0  0
 30 29  1  0  0  0  0
M  END
>  <MODEL>
5

>  <REMARK>
 VINA RESULT:      -7.7      2.756      8.408
  Name = 
  4 active torsions:
  status: ('A' for Active; 'I' for Inactive)
    1  A    between atoms: C_7  and  C_17
    2  A    between atoms: C_9  and  O_16
    3  A    between atoms: C_9  and  N_19
    4  A    between atoms: O_16  and  C_27
                            x       y       z     vdW  Elec       q    Type
                         _______ _______ _______ _____ _____    ______ ____

>  <TORSDO>
F 4

$$$$
=
 OpenBabel11062413263D

 30 35  0  0  1  0  0  0  0  0999 V2000
  191.6930  175.8010  143.6180 N   0  0  0  0  0  1  0  0  0  0  0  0
  189.6080  175.8960  142.6160 C   0  0  0  0  0  2  0  0  0  0  0  0
  189.5260  178.6020  142.9090 C   0  0  0  0  0  2  0  0  0  0  0  0
  189.6320  176.7240  141.3180 C   0  0  1  0  0  3  0  0  0  0  0  0
  189.3250  178.1560  141.5260 N   0  0  0  0  0  0  0  0  0  0  0  0
  190.4530  176.4490  143.6900 N   0  0  0  0  0  0  0  0  0  0  0  0
  190.7120  177.8870  143.5500 C   0  0  0  0  0  2  0  0  0  0  0  0
  189.8270  177.0020  136.8600 C   0  0  2  0  0  3  0  0  0  0  0  0
  188.4550  176.1490  138.2820 C   0  0  0  0  0  2  0  0  0  0  0  0
  190.9600  176.5380  140.5800 C   0  0  2  0  0  3  0  0  0  0  0  0
  189.5380  177.2130  138.3550 C   0  0  1  0  0  3  0  0  0  0  0  0
  191.4050  177.8080  139.8700 C   0  0  0  0  0  2  0  0  0  0  0  0
  190.7700  176.6920  139.0720 C   0  0  1  0  0  0  0  0  0  0  0  0
  191.7140  176.1550  138.0820 C   0  0  0  0  0  0  0  0  0  0  0  0
  188.7300  175.9530  136.8010 C   0  0  1  0  0  3  0  0  0  0  0  0
  191.2070  176.3350  136.7010 C   0  0  0  0  0  2  0  0  0  0  0  0
  187.6110  176.4650  136.0290 N   0  0  0  0  0  1  0  0  0  0  0  0
  192.7710  175.6080  138.3520 O   0  0  0  0  0  0  0  0  0  0  0  0
  187.9140  178.3690  141.2210 C   0  0  0  0  0  2  0  0  0  0  0  0
  187.2230  178.7620  142.3720 O   0  0  0  0  0  0  0  0  0  0  0  0
  185.7780  178.7000  145.3050 C   0  0  0  0  0  0  0  0  0  0  0  0
  186.8210  176.9010  143.8380 C   0  0  0  0  0  2  0  0  0  0  0  0
  184.9430  178.2920  142.9580 C   0  0  0  0  0  2  0  0  0  0  0  0
  186.4310  178.8940  147.6330 C   0  0  0  0  0  3  0  0  0  0  0  0
  185.6670  179.3320  146.5490 C   0  0  0  0  0  3  0  0  0  0  0  0
  187.3190  177.8270  147.4790 C   0  0  0  0  0  3  0  0  0  0  0  0
  184.9990  179.2550  144.1460 C   0  0  0  0  0  2  0  0  0  0  0  0
  186.3260  177.7240  142.6480 C   0  0  1  0  0  3  0  0  0  0  0  0
  187.4470  177.1990  146.2380 C   0  0  0  0  0  3  0  0  0  0  0  0
  186.6940  177.6360  145.1430 C   0  0  0  0  0  0  0  0  0  0  0  0
  1  6  1  0  0  0  0
  2  6  1  0  0  0  0
  3  7  1  0  0  0  0
  4  5  1  0  0  0  0
  4  2  1  1  0  0  0
  5  3  1  0  0  0  0
  7  6  1  0  0  0  0
  8 16  1  1  0  0  0
  8 11  1  0  0  0  0
 10 12  1  1  0  0  0
 10  4  1  0  0  0  0
 11  9  1  1  0  0  0
 11 13  1  0  0  0  0
 13 12  1  6  0  0  0
 13 10  1  0  0  0  0
 14 18  2  0  0  0  0
 14 13  1  0  0  0  0
 15 17  1  6  0  0  0
 15  8  1  0  0  0  0
 15  9  1  0  0  0  0
 16 14  1  0  0  0  0
 19  5  1  0  0  0  0
 19 20  1  0  0  0  0
 21 25  1  0  0  0  0
 22 30  1  0  0  0  0
 23 27  1  0  0  0  0
 25 24  2  0  0  0  0
 26 24  1  0  0  0  0
 27 21  1  0  0  0  0
 28 20  1  1  0  0  0
 28 23  1  0  0  0  0
 28 22  1  0  0  0  0
 29 26  2  0  0  0  0
 30 21  2  0  0  0  0
 30 29  1  0  0  0  0
M  END
>  <MODEL>
6

>  <REMARK>
 VINA RESULT:      -7.6      1.999      7.524
  Name = 
  4 active torsions:
  status: ('A' for Active; 'I' for Inactive)
    1  A    between atoms: C_7  and  C_17
    2  A    between atoms: C_9  and  O_16
    3  A    between atoms: C_9  and  N_19
    4  A    between atoms: O_16  and  C_27
                            x       y       z     vdW  Elec       q    Type
                         _______ _______ _______ _____ _____    ______ ____

>  <TORSDO>
F 4

$$$$
=
 OpenBabel11062413263D

 30 35  0  0  1  0  0  0  0  0999 V2000
  178.9310  178.8670  138.7100 N   0  0  0  0  0  1  0  0  0  0  0  0
  181.2360  178.9700  138.5250 C   0  0  0  0  0  2  0  0  0  0  0  0
  181.5240  178.6450  141.2130 C   0  0  0  0  0  2  0  0  0  0  0  0
  181.9070  177.6640  138.9870 C   0  0  1  0  0  3  0  0  0  0  0  0
  182.2690  177.6610  140.4210 N   0  0  0  0  0  0  0  0  0  0  0  0
  180.0760  179.3630  139.3460 N   0  0  0  0  0  0  0  0  0  0  0  0
  180.0960  178.7970  140.6990 C   0  0  0  0  0  2  0  0  0  0  0  0
  183.7620  173.9620  137.3000 C   0  0  2  0  0  3  0  0  0  0  0  0
  184.0490  176.0780  137.0290 C   0  0  0  0  0  2  0  0  0  0  0  0
  181.0450  176.4530  138.6240 C   0  0  2  0  0  3  0  0  0  0  0  0
  183.4210  175.2190  138.1150 C   0  0  1  0  0  3  0  0  0  0  0  0
  181.3610  175.2430  139.4910 C   0  0  0  0  0  2  0  0  0  0  0  0
  181.9070  175.3140  138.0830 C   0  0  1  0  0  0  0  0  0  0  0  0
  181.3730  174.2190  137.2590 C   0  0  0  0  0  0  0  0  0  0  0  0
  184.3990  174.8330  136.2310 C   0  0  1  0  0  3  0  0  0  0  0  0
  182.4580  173.3370  136.7660 C   0  0  0  0  0  2  0  0  0  0  0  0
  185.8380  174.6400  136.2430 N   0  0  0  0  0  1  0  0  0  0  0  0
  180.1930  174.0620  136.9900 O   0  0  0  0  0  0  0  0  0  0  0  0
  183.6800  178.0150  140.5360 C   0  0  0  0  0  2  0  0  0  0  0  0
  184.0690  178.0210  141.8800 O   0  0  0  0  0  0  0  0  0  0  0  0
  186.4080  178.0800  144.1650 C   0  0  0  0  0  0  0  0  0  0  0  0
  184.5960  179.7320  143.4820 C   0  0  0  0  0  2  0  0  0  0  0  0
  186.2770  178.9620  141.8030 C   0  0  0  0  0  2  0  0  0  0  0  0
  186.6590  177.4520  146.4940 C   0  0  0  0  0  3  0  0  0  0  0  0
  187.0650  177.3500  145.1610 C   0  0  0  0  0  3  0  0  0  0  0  0
  185.5880  178.2790  146.8380 C   0  0  0  0  0  3  0  0  0  0  0  0
  186.8230  177.8780  142.7350 C   0  0  0  0  0  2  0  0  0  0  0  0
  184.7910  179.2060  142.0590 C   0  0  1  0  0  3  0  0  0  0  0  0
  184.9170  179.0030  145.8480 C   0  0  0  0  0  3  0  0  0  0  0  0
  185.3090  178.8980  144.5100 C   0  0  0  0  0  0  0  0  0  0  0  0
  1  6  1  0  0  0  0
  2  6  1  0  0  0  0
  4  2  1  1  0  0  0
  4  5  1  0  0  0  0
  5 19  1  0  0  0  0
  5  3  1  0  0  0  0
  6  7  1  0  0  0  0
  7  3  1  0  0  0  0
  8 16  1  6  0  0  0
  8 11  1  0  0  0  0
 10  4  1  0  0  0  0
 10 12  1  1  0  0  0
 11  9  1  6  0  0  0
 13 11  1  0  0  0  0
 13 10  1  0  0  0  0
 13 12  1  1  0  0  0
 14 13  1  0  0  0  0
 15 17  1  1  0  0  0
 15  9  1  0  0  0  0
 15  8  1  0  0  0  0
 16 14  1  0  0  0  0
 18 14  2  0  0  0  0
 19 20  1  0  0  0  0
 21 30  2  0  0  0  0
 21 25  1  0  0  0  0
 22 30  1  0  0  0  0
 23 28  1  0  0  0  0
 23 27  1  0  0  0  0
 24 26  1  0  0  0  0
 25 24  2  0  0  0  0
 27 21  1  0  0  0  0
 28 20  1  1  0  0  0
 28 22  1  0  0  0  0
 29 26  2  0  0  0  0
 30 29  1  0  0  0  0
M  END
>  <MODEL>
7

>  <REMARK>
 VINA RESULT:      -7.4      5.614      9.459
  Name = 
  4 active torsions:
  status: ('A' for Active; 'I' for Inactive)
    1  A    between atoms: C_7  and  C_17
    2  A    between atoms: C_9  and  O_16
    3  A    between atoms: C_9  and  N_19
    4  A    between atoms: O_16  and  C_27
                            x       y       z     vdW  Elec       q    Type
                         _______ _______ _______ _____ _____    ______ ____

>  <TORSDO>
F 4

$$$$
=
 OpenBabel11062413263D

 30 35  0  0  1  0  0  0  0  0999 V2000
  192.4720  175.6670  135.9240 N   0  0  0  0  0  1  0  0  0  0  0  0
  191.1200  174.9920  137.6780 C   0  0  0  0  0  2  0  0  0  0  0  0
  192.3600  176.7210  139.3760 C   0  0  0  0  0  2  0  0  0  0  0  0
  190.2620  176.1510  138.2190 C   0  0  1  0  0  3  0  0  0  0  0  0
  190.9040  176.8940  139.3240 N   0  0  0  0  0  0  0  0  0  0  0  0
  192.4870  175.3930  137.2980 N   0  0  0  0  0  0  0  0  0  0  0  0
  192.9500  176.6100  137.9740 C   0  0  0  0  0  2  0  0  0  0  0  0
  186.0390  176.1950  136.7500 C   0  0  2  0  0  3  0  0  0  0  0  0
  187.4310  174.6710  137.3630 C   0  0  0  0  0  2  0  0  0  0  0  0
  189.8380  177.0870  137.0860 C   0  0  2  0  0  3  0  0  0  0  0  0
  187.3230  176.1700  137.5950 C   0  0  1  0  0  3  0  0  0  0  0  0
  188.8340  178.1320  137.5500 C   0  0  0  0  0  2  0  0  0  0  0  0
  188.3510  176.9270  136.7750 C   0  0  1  0  0  0  0  0  0  0  0  0
  187.7450  177.3350  135.4990 C   0  0  0  0  0  0  0  0  0  0  0  0
  186.1530  174.6950  136.5410 C   0  0  1  0  0  3  0  0  0  0  0  0
  186.3190  176.9360  135.4280 C   0  0  0  0  0  2  0  0  0  0  0  0
  185.0950  174.0220  137.2730 N   0  0  0  0  0  1  0  0  0  0  0  0
  188.3380  177.9050  134.5980 O   0  0  0  0  0  0  0  0  0  0  0  0
  190.3790  176.3810  140.5850 C   0  0  0  0  0  2  0  0  0  0  0  0
  189.0870  176.8720  140.8070 O   0  0  0  0  0  0  0  0  0  0  0  0
  187.1080  178.0320  143.1370 C   0  0  0  0  0  0  0  0  0  0  0  0
  187.9750  178.9960  140.9470 C   0  0  0  0  0  2  0  0  0  0  0  0
  189.5850  178.2540  142.7060 C   0  0  0  0  0  2  0  0  0  0  0  0
  184.7310  178.0680  143.6200 C   0  0  0  0  0  3  0  0  0  0  0  0
  186.0380  177.7410  143.9910 C   0  0  0  0  0  3  0  0  0  0  0  0
  184.4850  178.6800  142.3890 C   0  0  0  0  0  3  0  0  0  0  0  0
  188.4870  177.5890  143.5380 C   0  0  0  0  0  2  0  0  0  0  0  0
  189.2520  178.1990  141.2160 C   0  0  1  0  0  3  0  0  0  0  0  0
  185.5460  178.9630  141.5250 C   0  0  0  0  0  3  0  0  0  0  0  0
  186.8560  178.6290  141.8810 C   0  0  0  0  0  0  0  0  0  0  0  0
  1  6  1  0  0  0  0
  4  2  1  6  0  0  0
  4  5  1  0  0  0  0
  5  3  1  0  0  0  0
  5 19  1  0  0  0  0
  6  2  1  0  0  0  0
  6  7  1  0  0  0  0
  7  3  1  0  0  0  0
  8 16  1  6  0  0  0
  8 11  1  0  0  0  0
 10 12  1  1  0  0  0
 10  4  1  0  0  0  0
 11  9  1  6  0  0  0
 13 10  1  0  0  0  0
 13 12  1  1  0  0  0
 13 11  1  0  0  0  0
 14 13  1  0  0  0  0
 15  8  1  0  0  0  0
 15 17  1  1  0  0  0
 15  9  1  0  0  0  0
 16 14  1  0  0  0  0
 18 14  2  0  0  0  0
 19 20  1  0  0  0  0
 21 27  1  0  0  0  0
 21 25  1  0  0  0  0
 22 28  1  0  0  0  0
 22 30  1  0  0  0  0
 23 27  1  0  0  0  0
 24 25  2  0  0  0  0
 26 24  1  0  0  0  0
 28 20  1  1  0  0  0
 28 23  1  0  0  0  0
 29 30  1  0  0  0  0
 29 26  2  0  0  0  0
 30 21  2  0  0  0  0
M  END
>  <MODEL>
8

>  <REMARK>
 VINA RESULT:      -7.2      3.007      7.373
  Name = 
  4 active torsions:
  status: ('A' for Active; 'I' for Inactive)
    1  A    between atoms: C_7  and  C_17
    2  A    between atoms: C_9  and  O_16
    3  A    between atoms: C_9  and  N_19
    4  A    between atoms: O_16  and  C_27
                            x       y       z     vdW  Elec       q    Type
                         _______ _______ _______ _____ _____    ______ ____

>  <TORSDO>
F 4

$$$$
=
 OpenBabel11062413263D

 30 35  0  0  1  0  0  0  0  0999 V2000
  181.3760  178.1350  141.0060 N   0  0  0  0  0  1  0  0  0  0  0  0
  183.4990  177.2270  140.8430 C   0  0  0  0  0  2  0  0  0  0  0  0
  184.4090  179.4400  139.5430 C   0  0  0  0  0  2  0  0  0  0  0  0
  184.5440  178.0760  141.5900 C   0  0  1  0  0  3  0  0  0  0  0  0
  185.1860  179.1020  140.7410 N   0  0  0  0  0  0  0  0  0  0  0  0
  182.4750  178.0250  140.1450 N   0  0  0  0  0  0  0  0  0  0  0  0
  182.9110  179.3900  139.8290 C   0  0  0  0  0  2  0  0  0  0  0  0
  186.9710  178.4630  145.3250 C   0  0  2  0  0  3  0  0  0  0  0  0
  186.7380  176.9620  143.8000 C   0  0  0  0  0  2  0  0  0  0  0  0
  183.9410  178.6910  142.8540 C   0  0  2  0  0  3  0  0  0  0  0  0
  186.4560  178.4540  143.8770 C   0  0  1  0  0  3  0  0  0  0  0  0
  184.6240  179.9950  143.2400 C   0  0  0  0  0  2  0  0  0  0  0  0
  184.9670  178.7260  143.9850 C   0  0  1  0  0  0  0  0  0  0  0  0
  184.5990  178.8370  145.4040 C   0  0  0  0  0  0  0  0  0  0  0  0
  187.2620  176.9760  145.2260 C   0  0  1  0  0  3  0  0  0  0  0  0
  185.7870  178.7090  146.2810 C   0  0  0  0  0  2  0  0  0  0  0  0
  188.6980  176.7630  145.2150 N   0  0  0  0  0  1  0  0  0  0  0  0
  183.4610  178.9910  145.8190 O   0  0  0  0  0  0  0  0  0  0  0  0
  186.4630  178.5750  140.2730 C   0  0  0  0  0  2  0  0  0  0  0  0
  186.5260  178.6260  138.8760 O   0  0  0  0  0  0  0  0  0  0  0  0
  187.0400  177.0170  136.0760 C   0  0  0  0  0  0  0  0  0  0  0  0
  187.9680  176.7570  138.4310 C   0  0  0  0  0  2  0  0  0  0  0  0
  188.2370  178.9230  137.2180 C   0  0  0  0  0  2  0  0  0  0  0  0
  186.1230  175.0940  134.9150 C   0  0  0  0  0  3  0  0  0  0  0  0
  186.4410  176.4550  134.9430 C   0  0  0  0  0  3  0  0  0  0  0  0
  186.3940  174.2890  136.0230 C   0  0  0  0  0  3  0  0  0  0  0  0
  187.2890  178.4990  136.0950 C   0  0  0  0  0  2  0  0  0  0  0  0
  187.8390  178.2760  138.5440 C   0  0  1  0  0  3  0  0  0  0  0  0
  186.9800  174.8450  137.1640 C   0  0  0  0  0  3  0  0  0  0  0  0
  187.2910  176.2080  137.2060 C   0  0  0  0  0  0  0  0  0  0  0  0
  3  7  1  0  0  0  0
  3  5  1  0  0  0  0
  4  2  1  6  0  0  0
  4 10  1  0  0  0  0
  5  4  1  0  0  0  0
  6  2  1  0  0  0  0
  6  1  1  0  0  0  0
  7  6  1  0  0  0  0
  8 16  1  1  0  0  0
  9 15  1  0  0  0  0
 10 12  1  6  0  0  0
 10 13  1  0  0  0  0
 11  9  1  1  0  0  0
 11 13  1  0  0  0  0
 11  8  1  0  0  0  0
 13 12  1  6  0  0  0
 13 14  1  0  0  0  0
 14 18  2  0  0  0  0
 14 16  1  0  0  0  0
 15 17  1  6  0  0  0
 15  8  1  0  0  0  0
 19  5  1  0  0  0  0
 20 19  1  0  0  0  0
 21 27  1  0  0  0  0
 21 30  1  0  0  0  0
 22 28  1  0  0  0  0
 23 28  1  0  0  0  0
 24 25  1  0  0  0  0
 24 26  2  0  0  0  0
 25 21  2  0  0  0  0
 26 29  1  0  0  0  0
 27 23  1  0  0  0  0
 28 20  1  6  0  0  0
 29 30  2  0  0  0  0
 30 22  1  0  0  0  0
M  END
>  <MODEL>
9

>  <REMARK>
 VINA RESULT:      -7.1      3.388      5.669
  Name = 
  4 active torsions:
  status: ('A' for Active; 'I' for Inactive)
    1  A    between atoms: C_7  and  C_17
    2  A    between atoms: C_9  and  O_16
    3  A    between atoms: C_9  and  N_19
    4  A    between atoms: O_16  and  C_27
                            x       y       z     vdW  Elec       q    Type
                         _______ _______ _______ _____ _____    ______ ____

>  <TORSDO>
F 4

$$$$
