=
 OpenBabel11062414093D

 32 35  0  0  1  0  0  0  0  0999 V2000
  186.7140  178.0820  145.2410 C   0  0  0  0  0  3  0  0  0  0  0  0
  189.1270  177.4190  145.5740 C   0  0  0  0  0  0  0  0  0  0  0  0
  191.2630  176.5830  142.6070 O   0  0  0  0  0  0  0  0  0  0  0  0
  191.2950  176.4590  146.2640 C   0  0  0  0  0  0  0  0  0  0  0  0
  189.5380  177.2350  144.1400 C   0  0  0  0  0  0  0  0  0  0  0  0
  190.0660  177.0500  146.5560 O   0  0  0  0  0  0  0  0  0  0  0  0
  187.9400  177.8840  146.0260 C   0  0  0  0  0  0  0  0  0  0  0  0
  189.3690  177.5400  141.6800 O   0  0  0  0  0  0  0  0  0  0  0  0
  191.6510  176.2810  144.9980 C   0  0  0  0  0  3  0  0  0  0  0  0
  186.4560  178.0900  143.9370 C   0  0  0  0  0  0  0  0  0  0  0  0
  187.4650  177.9370  142.8900 C   0  0  0  0  0  3  0  0  0  0  0  0
  190.7700  176.7160  143.9070 C   0  0  0  0  0  0  0  0  0  0  0  0
  190.7750  177.3990  141.5560 C   0  0  0  0  0  2  0  0  0  0  0  0
  188.7460  177.6020  142.9300 C   0  0  0  0  0  0  0  0  0  0  0  0
  183.3700  178.5160  141.7330 C   0  0  0  0  0  0  0  0  0  0  0  0
  182.7310  178.8350  144.0520 C   0  0  0  0  0  3  0  0  0  0  0  0
  185.0500  178.3300  143.5050 C   0  0  0  0  0  0  0  0  0  0  0  0
  182.3910  178.7800  142.7000 C   0  0  0  0  0  3  0  0  0  0  0  0
  184.6900  178.2800  142.1450 C   0  0  0  0  0  3  0  0  0  0  0  0
  184.0510  178.6140  144.4510 C   0  0  0  0  0  3  0  0  0  0  0  0
  182.5950  177.1120  139.9960 F   0  0  0  0  0  0  0  0  0  0  0  0
  181.9180  179.2650  139.9910 O   0  0  0  0  0  1  0  0  0  0  0  0
  182.9880  178.4110  140.2770 C   0  0  1  0  0  0  0  0  0  0  0  0
  184.0740  178.1360  138.1630 F   0  0  0  0  0  0  0  0  0  0  0  0
  184.1830  178.7650  139.3900 C   0  0  1  0  0  3  0  0  0  0  0  0
  184.2650  180.1470  139.1950 O   0  0  0  0  0  1  0  0  0  0  0  0
  192.3980  176.8890  148.4850 N   0  0  0  0  0  1  0  0  0  0  0  0
  192.1790  176.0410  147.3610 C   0  0  0  0  0  0  0  0  0  0  0  0
  192.7520  174.9210  147.3110 O   0  0  0  0  0  0  0  0  0  0  0  0
  187.7400  178.1310  147.4780 C   0  0  0  0  0  0  0  0  0  0  0  0
  188.8920  178.3280  148.4070 C   0  0  0  0  0  1  0  0  0  0  0  0
  186.5740  178.2420  147.9430 O   0  0  0  0  0  0  0  0  0  0  0  0
  1  7  1  0  0  0  0
  2  7  2  0  0  0  0
  2  6  1  0  0  0  0
  3 12  1  0  0  0  0
  4  6  1  0  0  0  0
  4 28  1  0  0  0  0
  5  2  1  0  0  0  0
  7 30  1  0  0  0  0
  8 14  1  0  0  0  0
  9  4  2  0  0  0  0
 10  1  2  0  0  0  0
 11 14  2  0  0  0  0
 11 10  1  0  0  0  0
 12  5  2  0  0  0  0
 12  9  1  0  0  0  0
 13  8  1  0  0  0  0
 13  3  1  0  0  0  0
 14  5  1  0  0  0  0
 15 19  2  0  0  0  0
 15 18  1  0  0  0  0
 16 20  1  0  0  0  0
 17 10  1  0  0  0  0
 17 20  2  0  0  0  0
 18 16  2  0  0  0  0
 19 17  1  0  0  0  0
 21 23  1  0  0  0  0
 23 22  1  6  0  0  0
 23 15  1  0  0  0  0
 25 24  1  6  0  0  0
 25 23  1  0  0  0  0
 26 25  1  0  0  0  0
 28 27  1  0  0  0  0
 29 28  2  0  0  0  0
 30 32  2  0  0  0  0
 30 31  1  0  0  0  0
M  END
>  <MODEL>
1

>  <REMARK>
 VINA RESULT:     -10.8      0.000      0.000
  Name = 
  5 active torsions:
  status: ('A' for Active; 'I' for Inactive)
    1  A    between atoms: C_6  and  C_10
    2  A    between atoms: C_9  and  C_25
    3  A    between atoms: C_12  and  C_20
    4  A    between atoms: C_15  and  C_19
    5  A    between atoms: C_24  and  C_25
                            x       y       z     vdW  Elec       q    Type
                         _______ _______ _______ _____ _____    ______ ____

>  <TORSDO>
F 5

$$$$
=
 OpenBabel11062414093D

 32 35  0  0  1  0  0  0  0  0999 V2000
  184.3550  178.7440  142.0340 C   0  0  0  0  0  3  0  0  0  0  0  0
  182.1590  178.8800  140.7970 C   0  0  0  0  0  0  0  0  0  0  0  0
  178.9310  178.5270  142.6740 O   0  0  0  0  0  0  0  0  0  0  0  0
  180.2360  178.6850  139.2590 C   0  0  0  0  0  0  0  0  0  0  0  0
  181.2090  178.7270  141.9520 C   0  0  0  0  0  0  0  0  0  0  0  0
  181.5940  178.8900  139.5080 O   0  0  0  0  0  0  0  0  0  0  0  0
  183.5050  178.9890  140.8610 C   0  0  0  0  0  0  0  0  0  0  0  0
  180.5190  178.7860  144.3390 O   0  0  0  0  0  0  0  0  0  0  0  0
  179.4000  178.5340  140.2780 C   0  0  0  0  0  3  0  0  0  0  0  0
  184.1000  178.5760  143.3280 C   0  0  0  0  0  0  0  0  0  0  0  0
  182.7700  178.6660  143.9300 C   0  0  0  0  0  3  0  0  0  0  0  0
  179.8900  178.5960  141.6610 C   0  0  0  0  0  0  0  0  0  0  0  0
  179.1850  179.0740  143.9560 C   0  0  0  0  0  2  0  0  0  0  0  0
  181.5570  178.7440  143.4020 C   0  0  0  0  0  0  0  0  0  0  0  0
  187.5390  177.5530  144.6270 C   0  0  0  0  0  0  0  0  0  0  0  0
  186.2390  178.4580  146.4660 C   0  0  0  0  0  3  0  0  0  0  0  0
  185.2520  178.3410  144.2420 C   0  0  0  0  0  0  0  0  0  0  0  0
  187.4250  177.9080  145.9780 C   0  0  0  0  0  3  0  0  0  0  0  0
  186.4550  177.7850  143.7670 C   0  0  0  0  0  3  0  0  0  0  0  0
  185.1610  178.6700  145.6050 C   0  0  0  0  0  3  0  0  0  0  0  0
  189.6000  176.5200  145.1480 F   0  0  0  0  0  0  0  0  0  0  0  0
  188.5950  175.9480  143.2090 O   0  0  0  0  0  1  0  0  0  0  0  0
  188.8390  177.0030  144.0950 C   0  0  1  0  0  0  0  0  0  0  0  0
  190.1850  178.9700  144.3060 F   0  0  0  0  0  0  0  0  0  0  0  0
  189.6280  178.1030  143.3830 C   0  0  1  0  0  3  0  0  0  0  0  0
  190.6410  177.5560  142.5920 O   0  0  0  0  0  1  0  0  0  0  0  0
  179.1380  177.4650  137.3510 N   0  0  0  0  0  1  0  0  0  0  0  0
  179.7500  178.6410  137.8730 C   0  0  0  0  0  0  0  0  0  0  0  0
  179.8740  179.6520  137.1340 O   0  0  0  0  0  0  0  0  0  0  0  0
  184.2900  179.2680  139.6290 C   0  0  0  0  0  0  0  0  0  0  0  0
  185.1190  178.2140  138.9720 C   0  0  0  0  0  1  0  0  0  0  0  0
  184.2140  180.3980  139.0770 O   0  0  0  0  0  0  0  0  0  0  0  0
  1 10  2  0  0  0  0
  2  7  2  0  0  0  0
  2  5  1  0  0  0  0
  3 13  1  0  0  0  0
  4  6  1  0  0  0  0
  4  9  2  0  0  0  0
  5 14  1  0  0  0  0
  6  2  1  0  0  0  0
  7  1  1  0  0  0  0
  9 12  1  0  0  0  0
 10 11  1  0  0  0  0
 10 17  1  0  0  0  0
 12  5  2  0  0  0  0
 12  3  1  0  0  0  0
 13  8  1  0  0  0  0
 14 11  2  0  0  0  0
 14  8  1  0  0  0  0
 15 18  1  0  0  0  0
 17 20  2  0  0  0  0
 18 16  2  0  0  0  0
 19 17  1  0  0  0  0
 19 15  2  0  0  0  0
 20 16  1  0  0  0  0
 23 22  1  6  0  0  0
 23 15  1  0  0  0  0
 23 21  1  0  0  0  0
 25 26  1  1  0  0  0
 25 23  1  0  0  0  0
 25 24  1  0  0  0  0
 27 28  1  0  0  0  0
 28  4  1  0  0  0  0
 29 28  2  0  0  0  0
 30  7  1  0  0  0  0
 31 30  1  0  0  0  0
 32 30  2  0  0  0  0
M  END
>  <MODEL>
2

>  <REMARK>
 VINA RESULT:     -10.3      4.372      9.458
  Name = 
  5 active torsions:
  status: ('A' for Active; 'I' for Inactive)
    1  A    between atoms: C_6  and  C_10
    2  A    between atoms: C_9  and  C_25
    3  A    between atoms: C_12  and  C_20
    4  A    between atoms: C_15  and  C_19
    5  A    between atoms: C_24  and  C_25
                            x       y       z     vdW  Elec       q    Type
                         _______ _______ _______ _____ _____    ______ ____

>  <TORSDO>
F 5

$$$$
=
 OpenBabel11062414093D

 32 35  0  0  1  0  0  0  0  0999 V2000
  186.9450  178.0950  142.8880 C   0  0  0  0  0  3  0  0  0  0  0  0
  185.0610  178.4020  141.2350 C   0  0  0  0  0  0  0  0  0  0  0  0
  181.5270  178.6840  142.4590 O   0  0  0  0  0  0  0  0  0  0  0  0
  183.4480  178.3140  139.3670 C   0  0  0  0  0  0  0  0  0  0  0  0
  183.9030  178.4980  142.1880 C   0  0  0  0  0  0  0  0  0  0  0  0
  184.7520  178.3570  139.8630 O   0  0  0  0  0  0  0  0  0  0  0  0
  186.3730  178.3330  141.5560 C   0  0  0  0  0  0  0  0  0  0  0  0
  182.8020  178.8930  144.3810 O   0  0  0  0  0  0  0  0  0  0  0  0
  182.4260  178.3830  140.2090 C   0  0  0  0  0  3  0  0  0  0  0  0
  186.4330  178.0970  144.1150 C   0  0  0  0  0  0  0  0  0  0  0  0
  185.0440  178.4270  144.4340 C   0  0  0  0  0  3  0  0  0  0  0  0
  182.6560  178.5190  141.6530 C   0  0  0  0  0  0  0  0  0  0  0  0
  181.6210  179.3200  143.7220 C   0  0  0  0  0  2  0  0  0  0  0  0
  183.9760  178.6150  143.6740 C   0  0  0  0  0  0  0  0  0  0  0  0
  189.5500  177.1500  146.1020 C   0  0  0  0  0  0  0  0  0  0  0  0
  187.7380  177.6110  147.6500 C   0  0  0  0  0  3  0  0  0  0  0  0
  187.3470  177.8020  145.2540 C   0  0  0  0  0  0  0  0  0  0  0  0
  189.0670  177.2530  147.4130 C   0  0  0  0  0  3  0  0  0  0  0  0
  188.6890  177.4380  145.0330 C   0  0  0  0  0  3  0  0  0  0  0  0
  186.8860  177.8810  146.5790 C   0  0  0  0  0  3  0  0  0  0  0  0
  191.0960  176.0090  144.7260 F   0  0  0  0  0  0  0  0  0  0  0  0
  191.7420  177.9730  145.6320 O   0  0  0  0  0  1  0  0  0  0  0  0
  190.9980  176.8090  145.8530 C   0  0  1  0  0  0  0  0  0  0  0  0
  192.4490  175.0660  146.6150 F   0  0  0  0  0  0  0  0  0  0  0  0
  191.5750  176.0480  147.0470 C   0  0  1  0  0  3  0  0  0  0  0  0
  192.2460  176.9150  147.9130 O   0  0  0  0  0  1  0  0  0  0  0  0
  182.0230  178.6740  137.3240 N   0  0  0  0  0  1  0  0  0  0  0  0
  183.2260  178.1950  137.9200 C   0  0  0  0  0  0  0  0  0  0  0  0
  184.1070  177.6660  137.1920 O   0  0  0  0  0  0  0  0  0  0  0  0
  187.4050  178.3750  140.4860 C   0  0  0  0  0  0  0  0  0  0  0  0
  188.8270  178.0040  140.7510 C   0  0  0  0  0  1  0  0  0  0  0  0
  187.0750  178.6670  139.3050 O   0  0  0  0  0  0  0  0  0  0  0  0
  1 10  2  0  0  0  0
  2  7  2  0  0  0  0
  2  5  1  0  0  0  0
  3 13  1  0  0  0  0
  4  6  1  0  0  0  0
  4  9  2  0  0  0  0
  5 14  1  0  0  0  0
  6  2  1  0  0  0  0
  7  1  1  0  0  0  0
  9 12  1  0  0  0  0
 10 11  1  0  0  0  0
 10 17  1  0  0  0  0
 12  5  2  0  0  0  0
 12  3  1  0  0  0  0
 13  8  1  0  0  0  0
 14  8  1  0  0  0  0
 14 11  2  0  0  0  0
 15 18  1  0  0  0  0
 17 20  2  0  0  0  0
 18 16  2  0  0  0  0
 19 17  1  0  0  0  0
 19 15  2  0  0  0  0
 20 16  1  0  0  0  0
 22 23  1  0  0  0  0
 23 21  1  6  0  0  0
 23 15  1  0  0  0  0
 23 25  1  0  0  0  0
 25 24  1  6  0  0  0
 25 26  1  0  0  0  0
 27 28  1  0  0  0  0
 28  4  1  0  0  0  0
 29 28  2  0  0  0  0
 30 31  1  0  0  0  0
 30  7  1  0  0  0  0
 32 30  2  0  0  0  0
M  END
>  <MODEL>
3

>  <REMARK>
 VINA RESULT:     -10.3      4.207      8.819
  Name = 
  5 active torsions:
  status: ('A' for Active; 'I' for Inactive)
    1  A    between atoms: C_6  and  C_10
    2  A    between atoms: C_9  and  C_25
    3  A    between atoms: C_12  and  C_20
    4  A    between atoms: C_15  and  C_19
    5  A    between atoms: C_24  and  C_25
                            x       y       z     vdW  Elec       q    Type
                         _______ _______ _______ _____ _____    ______ ____

>  <TORSDO>
F 5

$$$$
=
 OpenBabel11062414093D

 32 35  0  0  1  0  0  0  0  0999 V2000
  186.2590  178.0410  144.1220 C   0  0  0  0  0  3  0  0  0  0  0  0
  188.6680  177.5270  144.6750 C   0  0  0  0  0  0  0  0  0  0  0  0
  191.1450  176.9790  141.9120 O   0  0  0  0  0  0  0  0  0  0  0  0
  190.8200  176.6850  145.5450 C   0  0  0  0  0  0  0  0  0  0  0  0
  189.2320  177.4400  143.2850 C   0  0  0  0  0  0  0  0  0  0  0  0
  189.5280  177.1770  145.7330 O   0  0  0  0  0  0  0  0  0  0  0  0
  187.4110  177.8890  145.0200 C   0  0  0  0  0  0  0  0  0  0  0  0
  189.2890  177.8490  140.8340 O   0  0  0  0  0  0  0  0  0  0  0  0
  191.3130  176.5920  144.3170 C   0  0  0  0  0  3  0  0  0  0  0  0
  186.1320  178.0920  142.8000 C   0  0  0  0  0  0  0  0  0  0  0  0
  187.2500  178.0580  141.8570 C   0  0  0  0  0  3  0  0  0  0  0  0
  190.5160  177.0170  143.1590 C   0  0  0  0  0  0  0  0  0  0  0  0
  190.7060  177.8090  140.8500 C   0  0  0  0  0  2  0  0  0  0  0  0
  188.5410  177.8090  142.0150 C   0  0  0  0  0  0  0  0  0  0  0  0
  182.3700  178.6750  142.5410 C   0  0  0  0  0  0  0  0  0  0  0  0
  183.2640  178.3020  140.3160 C   0  0  0  0  0  3  0  0  0  0  0  0
  184.7630  178.2570  142.2350 C   0  0  0  0  0  0  0  0  0  0  0  0
  182.1830  178.5740  141.1560 C   0  0  0  0  0  3  0  0  0  0  0  0
  183.6620  178.5290  143.0680 C   0  0  0  0  0  3  0  0  0  0  0  0
  184.5430  178.1430  140.8520 C   0  0  0  0  0  3  0  0  0  0  0  0
  181.6390  179.0600  144.7560 F   0  0  0  0  0  0  0  0  0  0  0  0
  180.6820  180.2670  143.1060 O   0  0  0  0  0  1  0  0  0  0  0  0
  181.2060  179.0140  143.4400 C   0  0  1  0  0  0  0  0  0  0  0  0
  179.7620  177.4770  144.5690 F   0  0  0  0  0  0  0  0  0  0  0  0
  180.1150  177.9500  143.3180 C   0  0  1  0  0  3  0  0  0  0  0  0
  178.9840  178.4680  142.6830 O   0  0  0  0  0  1  0  0  0  0  0  0
  191.6090  177.0480  147.9080 N   0  0  0  0  0  1  0  0  0  0  0  0
  191.6180  176.2770  146.7100 C   0  0  0  0  0  0  0  0  0  0  0  0
  192.3190  175.2330  146.6530 O   0  0  0  0  0  0  0  0  0  0  0  0
  187.0500  178.0530  146.4530 C   0  0  0  0  0  0  0  0  0  0  0  0
  185.9170  178.9250  146.8830 C   0  0  0  0  0  1  0  0  0  0  0  0
  187.6650  177.3960  147.3360 O   0  0  0  0  0  0  0  0  0  0  0  0
  1  7  1  0  0  0  0
  2  7  2  0  0  0  0
  2  6  1  0  0  0  0
  3 12  1  0  0  0  0
  4  6  1  0  0  0  0
  4 28  1  0  0  0  0
  5  2  1  0  0  0  0
  7 30  1  0  0  0  0
  8 13  1  0  0  0  0
  8 14  1  0  0  0  0
  9  4  2  0  0  0  0
 10  1  2  0  0  0  0
 11 14  2  0  0  0  0
 11 10  1  0  0  0  0
 12  5  2  0  0  0  0
 12  9  1  0  0  0  0
 13  3  1  0  0  0  0
 14  5  1  0  0  0  0
 15 19  1  0  0  0  0
 15 23  1  0  0  0  0
 16 20  2  0  0  0  0
 16 18  1  0  0  0  0
 17 10  1  0  0  0  0
 17 19  2  0  0  0  0
 18 15  2  0  0  0  0
 20 17  1  0  0  0  0
 23 22  1  6  0  0  0
 23 21  1  0  0  0  0
 25 26  1  1  0  0  0
 25 23  1  0  0  0  0
 25 24  1  0  0  0  0
 28 27  1  0  0  0  0
 29 28  2  0  0  0  0
 30 31  1  0  0  0  0
 30 32  2  0  0  0  0
M  END
>  <MODEL>
4

>  <REMARK>
 VINA RESULT:     -10.2      2.170      2.827
  Name = 
  5 active torsions:
  status: ('A' for Active; 'I' for Inactive)
    1  A    between atoms: C_6  and  C_10
    2  A    between atoms: C_9  and  C_25
    3  A    between atoms: C_12  and  C_20
    4  A    between atoms: C_15  and  C_19
    5  A    between atoms: C_24  and  C_25
                            x       y       z     vdW  Elec       q    Type
                         _______ _______ _______ _____ _____    ______ ____

>  <TORSDO>
F 5

$$$$
=
 OpenBabel11062414093D

 32 35  0  0  1  0  0  0  0  0999 V2000
  188.2940  177.6920  142.0710 C   0  0  0  0  0  3  0  0  0  0  0  0
  189.7320  177.1920  140.0560 C   0  0  0  0  0  0  0  0  0  0  0  0
  188.3370  177.6490  136.6050 O   0  0  0  0  0  0  0  0  0  0  0  0
  191.2470  176.2670  138.3400 C   0  0  0  0  0  0  0  0  0  0  0  0
  188.7680  177.5580  138.9630 C   0  0  0  0  0  0  0  0  0  0  0  0
  190.9450  176.5980  139.6620 O   0  0  0  0  0  0  0  0  0  0  0  0
  189.5490  177.3530  141.3870 C   0  0  0  0  0  0  0  0  0  0  0  0
  186.7820  178.6800  137.9760 O   0  0  0  0  0  0  0  0  0  0  0  0
  190.3900  176.5750  137.3760 C   0  0  0  0  0  3  0  0  0  0  0  0
  187.1120  178.1260  141.6470 C   0  0  0  0  0  0  0  0  0  0  0  0
  186.7950  178.4460  140.2550 C   0  0  0  0  0  3  0  0  0  0  0  0
  189.1360  177.2740  137.6870 C   0  0  0  0  0  0  0  0  0  0  0  0
  187.4240  178.7280  136.7130 C   0  0  0  0  0  2  0  0  0  0  0  0
  187.4530  178.2430  139.1230 C   0  0  0  0  0  0  0  0  0  0  0  0
  185.3520  178.6020  145.0000 C   0  0  0  0  0  0  0  0  0  0  0  0
  183.7170  178.7990  143.2170 C   0  0  0  0  0  3  0  0  0  0  0  0
  186.0490  178.3640  142.6640 C   0  0  0  0  0  0  0  0  0  0  0  0
  184.0350  178.8220  144.5760 C   0  0  0  0  0  3  0  0  0  0  0  0
  186.3520  178.3890  144.0380 C   0  0  0  0  0  3  0  0  0  0  0  0
  184.7160  178.5700  142.2690 C   0  0  0  0  0  3  0  0  0  0  0  0
  185.9940  179.9850  146.8060 F   0  0  0  0  0  0  0  0  0  0  0  0
  184.6150  178.2530  147.2440 O   0  0  0  0  0  1  0  0  0  0  0  0
  185.6980  178.6750  146.4660 C   0  0  1  0  0  0  0  0  0  0  0  0
  188.0130  178.2420  146.0420 F   0  0  0  0  0  0  0  0  0  0  0  0
  186.9180  177.8030  146.7650 C   0  0  1  0  0  3  0  0  0  0  0  0
  187.2240  177.8270  148.1280 O   0  0  0  0  0  1  0  0  0  0  0  0
  193.7610  176.2450  138.2090 N   0  0  0  0  0  1  0  0  0  0  0  0
  192.5110  175.5830  138.0340 C   0  0  0  0  0  0  0  0  0  0  0  0
  192.4940  174.3970  137.6130 O   0  0  0  0  0  0  0  0  0  0  0  0
  190.6590  177.0600  142.3320 C   0  0  0  0  0  0  0  0  0  0  0  0
  190.6750  175.8200  143.1630 C   0  0  0  0  0  1  0  0  0  0  0  0
  191.6500  177.8360  142.3990 O   0  0  0  0  0  0  0  0  0  0  0  0
  2  7  2  0  0  0  0
  3 13  1  0  0  0  0
  3 12  1  0  0  0  0
  4  6  1  0  0  0  0
  5 14  1  0  0  0  0
  5  2  1  0  0  0  0
  6  2  1  0  0  0  0
  7  1  1  0  0  0  0
  7 30  1  0  0  0  0
  8 14  1  0  0  0  0
  9 12  1  0  0  0  0
  9  4  2  0  0  0  0
 10  1  2  0  0  0  0
 10 17  1  0  0  0  0
 11 10  1  0  0  0  0
 12  5  2  0  0  0  0
 13  8  1  0  0  0  0
 14 11  2  0  0  0  0
 15 23  1  0  0  0  0
 16 18  2  0  0  0  0
 17 19  1  0  0  0  0
 18 15  1  0  0  0  0
 19 15  2  0  0  0  0
 20 17  2  0  0  0  0
 20 16  1  0  0  0  0
 23 25  1  0  0  0  0
 23 21  1  1  0  0  0
 23 22  1  0  0  0  0
 25 24  1  6  0  0  0
 25 26  1  0  0  0  0
 28 27  1  0  0  0  0
 28  4  1  0  0  0  0
 29 28  2  0  0  0  0
 30 32  2  0  0  0  0
 30 31  1  0  0  0  0
M  END
>  <MODEL>
5

>  <REMARK>
 VINA RESULT:     -10.1      3.777      6.384
  Name = 
  5 active torsions:
  status: ('A' for Active; 'I' for Inactive)
    1  A    between atoms: C_6  and  C_10
    2  A    between atoms: C_9  and  C_25
    3  A    between atoms: C_12  and  C_20
    4  A    between atoms: C_15  and  C_19
    5  A    between atoms: C_24  and  C_25
                            x       y       z     vdW  Elec       q    Type
                         _______ _______ _______ _____ _____    ______ ____

>  <TORSDO>
F 5

$$$$
=
 OpenBabel11062414093D

 32 35  0  0  1  0  0  0  0  0999 V2000
  187.9900  177.4440  142.3820 C   0  0  0  0  0  3  0  0  0  0  0  0
  188.8660  177.1560  144.7320 C   0  0  0  0  0  0  0  0  0  0  0  0
  186.8020  178.2980  147.6490 O   0  0  0  0  0  0  0  0  0  0  0  0
  190.1550  177.0770  146.8370 C   0  0  0  0  0  0  0  0  0  0  0  0
  187.7000  177.7070  145.5040 C   0  0  0  0  0  0  0  0  0  0  0  0
  190.0210  176.8350  145.4690 O   0  0  0  0  0  0  0  0  0  0  0  0
  188.9320  176.9540  143.3960 C   0  0  0  0  0  0  0  0  0  0  0  0
  185.3340  178.3790  145.8600 O   0  0  0  0  0  0  0  0  0  0  0  0
  189.1320  177.5790  147.5150 C   0  0  0  0  0  3  0  0  0  0  0  0
  186.7790  177.9880  142.4470 C   0  0  0  0  0  0  0  0  0  0  0  0
  186.0230  178.1860  143.6840 C   0  0  0  0  0  3  0  0  0  0  0  0
  187.8580  177.8650  146.8430 C   0  0  0  0  0  0  0  0  0  0  0  0
  185.4560  178.1110  147.2470 C   0  0  0  0  0  2  0  0  0  0  0  0
  186.3580  178.0680  144.9610 C   0  0  0  0  0  0  0  0  0  0  0  0
  186.1240  178.5160  138.7250 C   0  0  0  0  0  0  0  0  0  0  0  0
  184.2100  179.3180  139.9830 C   0  0  0  0  0  3  0  0  0  0  0  0
  186.1140  178.3700  141.1700 C   0  0  0  0  0  0  0  0  0  0  0  0
  184.8460  179.0890  138.7620 C   0  0  0  0  0  3  0  0  0  0  0  0
  186.7430  178.1490  139.9300 C   0  0  0  0  0  3  0  0  0  0  0  0
  184.8400  178.9630  141.1770 C   0  0  0  0  0  3  0  0  0  0  0  0
  185.8270  177.8480  136.4780 F   0  0  0  0  0  0  0  0  0  0  0  0
  187.4300  179.3740  136.9190 O   0  0  0  0  0  1  0  0  0  0  0  0
  186.7880  178.2290  137.4010 C   0  0  1  0  0  0  0  0  0  0  0  0
  187.2160  175.8810  137.2360 F   0  0  0  0  0  0  0  0  0  0  0  0
  187.8010  177.0940  137.5530 C   0  0  1  0  0  3  0  0  0  0  0  0
  188.9090  177.3030  136.7270 O   0  0  0  0  0  1  0  0  0  0  0  0
  192.2120  175.6520  147.1100 N   0  0  0  0  0  1  0  0  0  0  0  0
  191.4270  176.7740  147.5060 C   0  0  0  0  0  0  0  0  0  0  0  0
  191.8340  177.5110  148.4420 O   0  0  0  0  0  0  0  0  0  0  0  0
  190.1150  176.2760  142.8040 C   0  0  0  0  0  0  0  0  0  0  0  0
  191.2500  177.0470  142.2150 C   0  0  0  0  0  1  0  0  0  0  0  0
  190.2070  175.0190  142.8480 O   0  0  0  0  0  0  0  0  0  0  0  0
  1 10  2  0  0  0  0
  1  7  1  0  0  0  0
  2  6  1  0  0  0  0
  2  5  1  0  0  0  0
  4 28  1  0  0  0  0
  4  9  2  0  0  0  0
  5 12  2  0  0  0  0
  6  4  1  0  0  0  0
  7  2  2  0  0  0  0
  8 13  1  0  0  0  0
 10 11  1  0  0  0  0
 11 14  2  0  0  0  0
 12  9  1  0  0  0  0
 12  3  1  0  0  0  0
 13  3  1  0  0  0  0
 14  5  1  0  0  0  0
 14  8  1  0  0  0  0
 15 18  2  0  0  0  0
 15 19  1  0  0  0  0
 16 20  2  0  0  0  0
 17 20  1  0  0  0  0
 17 10  1  0  0  0  0
 18 16  1  0  0  0  0
 19 17  2  0  0  0  0
 22 23  1  0  0  0  0
 23 21  1  6  0  0  0
 23 25  1  0  0  0  0
 23 15  1  0  0  0  0
 24 25  1  0  0  0  0
 25 26  1  6  0  0  0
 27 28  1  0  0  0  0
 28 29  2  0  0  0  0
 30 32  2  0  0  0  0
 30  7  1  0  0  0  0
 31 30  1  0  0  0  0
M  END
>  <MODEL>
6

>  <REMARK>
 VINA RESULT:     -10.1      2.240      4.334
  Name = 
  5 active torsions:
  status: ('A' for Active; 'I' for Inactive)
    1  A    between atoms: C_6  and  C_10
    2  A    between atoms: C_9  and  C_25
    3  A    between atoms: C_12  and  C_20
    4  A    between atoms: C_15  and  C_19
    5  A    between atoms: C_24  and  C_25
                            x       y       z     vdW  Elec       q    Type
                         _______ _______ _______ _____ _____    ______ ____

>  <TORSDO>
F 5

$$$$
=
 OpenBabel11062414093D

 32 35  0  0  1  0  0  0  0  0999 V2000
  185.5300  178.1980  144.1450 C   0  0  0  0  0  3  0  0  0  0  0  0
  187.9920  177.7030  143.8900 C   0  0  0  0  0  0  0  0  0  0  0  0
  189.5490  177.6680  140.4780 O   0  0  0  0  0  0  0  0  0  0  0  0
  190.3000  176.8260  143.9590 C   0  0  0  0  0  0  0  0  0  0  0  0
  188.1250  177.8450  142.4000 C   0  0  0  0  0  0  0  0  0  0  0  0
  189.1220  177.2330  144.5860 O   0  0  0  0  0  0  0  0  0  0  0  0
  186.8930  177.9600  144.6360 C   0  0  0  0  0  0  0  0  0  0  0  0
  187.4640  178.6140  140.1310 O   0  0  0  0  0  0  0  0  0  0  0  0
  190.4100  176.9350  142.6420 C   0  0  0  0  0  3  0  0  0  0  0  0
  185.0220  178.4400  142.9400 C   0  0  0  0  0  0  0  0  0  0  0  0
  185.8150  178.5900  141.7200 C   0  0  0  0  0  3  0  0  0  0  0  0
  189.3120  177.4960  141.8430 C   0  0  0  0  0  0  0  0  0  0  0  0
  188.8240  178.6280  139.7290 C   0  0  0  0  0  2  0  0  0  0  0  0
  187.0940  178.3710  141.4570 C   0  0  0  0  0  0  0  0  0  0  0  0
  181.5230  178.8190  141.4650 C   0  0  0  0  0  0  0  0  0  0  0  0
  181.3840  179.0030  143.8810 C   0  0  0  0  0  3  0  0  0  0  0  0
  183.5490  178.6330  142.8290 C   0  0  0  0  0  0  0  0  0  0  0  0
  180.7640  178.9930  142.6300 C   0  0  0  0  0  3  0  0  0  0  0  0
  182.9080  178.6270  141.5750 C   0  0  0  0  0  3  0  0  0  0  0  0
  182.7650  178.8270  143.9790 C   0  0  0  0  0  3  0  0  0  0  0  0
  181.1540  177.5640  139.4970 F   0  0  0  0  0  0  0  0  0  0  0  0
  179.4540  178.8300  140.2730 O   0  0  0  0  0  1  0  0  0  0  0  0
  180.8430  178.7620  140.1200 C   0  0  1  0  0  0  0  0  0  0  0  0
  182.3030  179.4770  138.3650 F   0  0  0  0  0  0  0  0  0  0  0  0
  181.3210  179.9140  139.2360 C   0  0  1  0  0  3  0  0  0  0  0  0
  180.2600  180.4530  138.5040 O   0  0  0  0  0  1  0  0  0  0  0  0
  191.7380  176.8580  146.0240 N   0  0  0  0  0  1  0  0  0  0  0  0
  191.4000  176.2810  144.7650 C   0  0  0  0  0  0  0  0  0  0  0  0
  192.0560  175.2920  144.3430 O   0  0  0  0  0  0  0  0  0  0  0  0
  186.9680  177.8950  146.1190 C   0  0  0  0  0  0  0  0  0  0  0  0
  186.0270  178.6640  146.9870 C   0  0  0  0  0  1  0  0  0  0  0  0
  187.8000  177.1280  146.6740 O   0  0  0  0  0  0  0  0  0  0  0  0
  1  7  1  0  0  0  0
  2  6  1  0  0  0  0
  2  7  2  0  0  0  0
  3 12  1  0  0  0  0
  4  6  1  0  0  0  0
  4 28  1  0  0  0  0
  5  2  1  0  0  0  0
  7 30  1  0  0  0  0
  8 14  1  0  0  0  0
  9  4  2  0  0  0  0
 10  1  2  0  0  0  0
 11 10  1  0  0  0  0
 12  5  2  0  0  0  0
 12  9  1  0  0  0  0
 13  8  1  0  0  0  0
 13  3  1  0  0  0  0
 14 11  2  0  0  0  0
 14  5  1  0  0  0  0
 15 19  2  0  0  0  0
 15 18  1  0  0  0  0
 16 20  1  0  0  0  0
 17 10  1  0  0  0  0
 17 20  2  0  0  0  0
 18 16  2  0  0  0  0
 19 17  1  0  0  0  0
 23 21  1  6  0  0  0
 23 22  1  0  0  0  0
 23 15  1  0  0  0  0
 25 24  1  6  0  0  0
 25 23  1  0  0  0  0
 26 25  1  0  0  0  0
 28 27  1  0  0  0  0
 29 28  2  0  0  0  0
 30 32  2  0  0  0  0
 30 31  1  0  0  0  0
M  END
>  <MODEL>
7

>  <REMARK>
 VINA RESULT:      -9.8      1.800      2.374
  Name = 
  5 active torsions:
  status: ('A' for Active; 'I' for Inactive)
    1  A    between atoms: C_6  and  C_10
    2  A    between atoms: C_9  and  C_25
    3  A    between atoms: C_12  and  C_20
    4  A    between atoms: C_15  and  C_19
    5  A    between atoms: C_24  and  C_25
                            x       y       z     vdW  Elec       q    Type
                         _______ _______ _______ _____ _____    ______ ____

>  <TORSDO>
F 5

$$$$
=
 OpenBabel11062414093D

 32 35  0  0  1  0  0  0  0  0999 V2000
  187.8200  177.8900  142.2720 C   0  0  0  0  0  3  0  0  0  0  0  0
  187.6210  177.8880  139.7550 C   0  0  0  0  0  0  0  0  0  0  0  0
  184.3760  178.8450  138.1360 O   0  0  0  0  0  0  0  0  0  0  0  0
  187.6500  177.4220  137.3300 C   0  0  0  0  0  0  0  0  0  0  0  0
  186.2020  178.3640  139.6150 C   0  0  0  0  0  0  0  0  0  0  0  0
  188.2740  177.4800  138.5770 O   0  0  0  0  0  0  0  0  0  0  0  0
  188.3350  177.7890  140.9000 C   0  0  0  0  0  0  0  0  0  0  0  0
  184.1040  179.4750  140.3480 O   0  0  0  0  0  0  0  0  0  0  0  0
  186.3920  177.8270  137.2090 C   0  0  0  0  0  3  0  0  0  0  0  0
  186.6620  178.2930  142.7860 C   0  0  0  0  0  0  0  0  0  0  0  0
  185.5500  178.8320  142.0040 C   0  0  0  0  0  3  0  0  0  0  0  0
  185.6610  178.3490  138.3700 C   0  0  0  0  0  0  0  0  0  0  0  0
  183.7970  179.8050  139.0030 C   0  0  0  0  0  2  0  0  0  0  0  0
  185.3270  178.8950  140.6990 C   0  0  0  0  0  0  0  0  0  0  0  0
  187.4270  177.8420  146.4970 C   0  0  0  0  0  0  0  0  0  0  0  0
  185.1160  178.5390  146.2480 C   0  0  0  0  0  3  0  0  0  0  0  0
  186.5030  178.2510  144.2660 C   0  0  0  0  0  0  0  0  0  0  0  0
  186.1910  178.1820  147.0630 C   0  0  0  0  0  3  0  0  0  0  0  0
  187.5760  177.8920  145.1030 C   0  0  0  0  0  3  0  0  0  0  0  0
  185.2700  178.5700  144.8610 C   0  0  0  0  0  3  0  0  0  0  0  0
  188.9940  178.6350  148.0790 F   0  0  0  0  0  0  0  0  0  0  0  0
  188.2390  176.5210  148.3130 O   0  0  0  0  0  1  0  0  0  0  0  0
  188.5990  177.5030  147.3840 C   0  0  1  0  0  0  0  0  0  0  0  0
  190.3560  178.0640  145.8600 F   0  0  0  0  0  0  0  0  0  0  0  0
  189.7760  177.0090  146.5420 C   0  0  1  0  0  3  0  0  0  0  0  0
  190.7380  176.3910  147.3450 O   0  0  0  0  0  1  0  0  0  0  0  0
  187.7210  176.2390  135.1100 N   0  0  0  0  0  1  0  0  0  0  0  0
  188.3930  176.9150  136.1690 C   0  0  0  0  0  0  0  0  0  0  0  0
  189.6400  177.0770  136.1040 O   0  0  0  0  0  0  0  0  0  0  0  0
  189.7750  177.4240  140.8510 C   0  0  0  0  0  0  0  0  0  0  0  0
  190.3990  176.5490  141.8870 C   0  0  0  0  0  1  0  0  0  0  0  0
  190.4870  177.8010  139.8810 O   0  0  0  0  0  0  0  0  0  0  0  0
  1 10  2  0  0  0  0
  2  7  2  0  0  0  0
  3 12  1  0  0  0  0
  3 13  1  0  0  0  0
  4  6  1  0  0  0  0
  5  2  1  0  0  0  0
  5 14  1  0  0  0  0
  6  2  1  0  0  0  0
  7  1  1  0  0  0  0
  8 14  1  0  0  0  0
  9  4  2  0  0  0  0
  9 12  1  0  0  0  0
 10 17  1  0  0  0  0
 11 10  1  0  0  0  0
 12  5  2  0  0  0  0
 13  8  1  0  0  0  0
 14 11  2  0  0  0  0
 15 18  1  0  0  0  0
 15 23  1  0  0  0  0
 16 18  2  0  0  0  0
 17 20  2  0  0  0  0
 17 19  1  0  0  0  0
 19 15  2  0  0  0  0
 20 16  1  0  0  0  0
 23 21  1  1  0  0  0
 23 22  1  0  0  0  0
 25 24  1  1  0  0  0
 25 26  1  0  0  0  0
 25 23  1  0  0  0  0
 27 28  1  0  0  0  0
 28  4  1  0  0  0  0
 29 28  2  0  0  0  0
 30  7  1  0  0  0  0
 30 31  1  0  0  0  0
 32 30  2  0  0  0  0
M  END
>  <MODEL>
8

>  <REMARK>
 VINA RESULT:      -9.7      4.210      7.881
  Name = 
  5 active torsions:
  status: ('A' for Active; 'I' for Inactive)
    1  A    between atoms: C_6  and  C_10
    2  A    between atoms: C_9  and  C_25
    3  A    between atoms: C_12  and  C_20
    4  A    between atoms: C_15  and  C_19
    5  A    between atoms: C_24  and  C_25
                            x       y       z     vdW  Elec       q    Type
                         _______ _______ _______ _____ _____    ______ ____

>  <TORSDO>
F 5

$$$$
=
 OpenBabel11062414093D

 32 35  0  0  1  0  0  0  0  0999 V2000
  186.8620  177.6700  142.4250 C   0  0  0  0  0  3  0  0  0  0  0  0
  188.1860  177.3460  144.5490 C   0  0  0  0  0  0  0  0  0  0  0  0
  186.7440  178.4350  147.8360 O   0  0  0  0  0  0  0  0  0  0  0  0
  189.8670  177.2350  146.3550 C   0  0  0  0  0  0  0  0  0  0  0  0
  187.1970  177.8820  145.5460 C   0  0  0  0  0  0  0  0  0  0  0  0
  189.4640  177.0140  145.0370 O   0  0  0  0  0  0  0  0  0  0  0  0
  187.9860  177.1650  143.2240 C   0  0  0  0  0  0  0  0  0  0  0  0
  184.9500  178.5440  146.3750 O   0  0  0  0  0  0  0  0  0  0  0  0
  189.0000  177.7230  147.2310 C   0  0  0  0  0  3  0  0  0  0  0  0
  185.6890  178.2110  142.7380 C   0  0  0  0  0  0  0  0  0  0  0  0
  185.1940  178.3870  144.1030 C   0  0  0  0  0  3  0  0  0  0  0  0
  187.6180  178.0180  146.8300 C   0  0  0  0  0  0  0  0  0  0  0  0
  185.3440  178.2530  147.7060 C   0  0  0  0  0  2  0  0  0  0  0  0
  185.7750  178.2490  145.2850 C   0  0  0  0  0  0  0  0  0  0  0  0
  182.5310  178.9760  140.7370 C   0  0  0  0  0  0  0  0  0  0  0  0
  184.4700  179.3860  139.3360 C   0  0  0  0  0  3  0  0  0  0  0  0
  184.7840  178.6120  141.6240 C   0  0  0  0  0  0  0  0  0  0  0  0
  183.0850  179.3790  139.5150 C   0  0  0  0  0  3  0  0  0  0  0  0
  183.3860  178.6090  141.7860 C   0  0  0  0  0  3  0  0  0  0  0  0
  185.3110  179.0040  140.3820 C   0  0  0  0  0  3  0  0  0  0  0  0
  180.5450  180.2380  140.5120 F   0  0  0  0  0  0  0  0  0  0  0  0
  180.4170  178.0070  140.1940 O   0  0  0  0  0  1  0  0  0  0  0  0
  181.0360  179.0150  140.9400 C   0  0  1  0  0  0  0  0  0  0  0  0
  180.3110  180.0490  142.9710 F   0  0  0  0  0  0  0  0  0  0  0  0
  180.6990  178.8410  142.4210 C   0  0  1  0  0  3  0  0  0  0  0  0
  179.6760  177.9050  142.5910 O   0  0  0  0  0  1  0  0  0  0  0  0
  191.6830  177.1270  148.0950 N   0  0  0  0  0  1  0  0  0  0  0  0
  191.2460  176.9220  146.7540 C   0  0  0  0  0  0  0  0  0  0  0  0
  192.0560  176.4670  145.9040 O   0  0  0  0  0  0  0  0  0  0  0  0
  189.0260  176.4980  142.3970 C   0  0  0  0  0  0  0  0  0  0  0  0
  189.4510  177.0480  141.0750 C   0  0  0  0  0  1  0  0  0  0  0  0
  189.6210  175.4780  142.8380 O   0  0  0  0  0  0  0  0  0  0  0  0
  1 10  2  0  0  0  0
  1  7  1  0  0  0  0
  2  6  1  0  0  0  0
  2  5  1  0  0  0  0
  4 28  1  0  0  0  0
  4  9  2  0  0  0  0
  5 12  2  0  0  0  0
  6  4  1  0  0  0  0
  7  2  2  0  0  0  0
  8 13  1  0  0  0  0
 10 11  1  0  0  0  0
 11 14  2  0  0  0  0
 12  9  1  0  0  0  0
 12  3  1  0  0  0  0
 13  3  1  0  0  0  0
 14  5  1  0  0  0  0
 14  8  1  0  0  0  0
 15 23  1  0  0  0  0
 15 19  1  0  0  0  0
 16 18  1  0  0  0  0
 16 20  2  0  0  0  0
 17 19  2  0  0  0  0
 17 10  1  0  0  0  0
 18 15  2  0  0  0  0
 20 17  1  0  0  0  0
 21 23  1  0  0  0  0
 23 22  1  6  0  0  0
 23 25  1  0  0  0  0
 25 26  1  6  0  0  0
 25 24  1  0  0  0  0
 28 27  1  0  0  0  0
 29 28  2  0  0  0  0
 30 32  2  0  0  0  0
 30  7  1  0  0  0  0
 31 30  1  0  0  0  0
M  END
>  <MODEL>
9

>  <REMARK>
 VINA RESULT:      -9.6      1.880      4.231
  Name = 
  5 active torsions:
  status: ('A' for Active; 'I' for Inactive)
    1  A    between atoms: C_6  and  C_10
    2  A    between atoms: C_9  and  C_25
    3  A    between atoms: C_12  and  C_20
    4  A    between atoms: C_15  and  C_19
    5  A    between atoms: C_24  and  C_25
                            x       y       z     vdW  Elec       q    Type
                         _______ _______ _______ _____ _____    ______ ____

>  <TORSDO>
F 5

$$$$
