=
 OpenBabel11062416383D

 62 70  0  0  1  0  0  0  0  0999 V2000
  184.4030  177.7020  137.0540 C   0  0  0  0  0  2  0  0  0  0  0  0
  183.1510  177.6530  137.5520 C   0  0  1  0  0  3  0  0  0  0  0  0
  186.1760  175.9320  136.6170 C   0  0  2  0  0  3  0  0  0  0  0  0
  188.7060  177.8350  137.1860 C   0  0  0  0  0  2  0  0  0  0  0  0
  188.4150  177.5960  139.6490 C   0  0  0  0  0  0  0  0  0  0  0  0
  187.4650  178.3550  140.2980 C   0  0  0  0  0  0  0  0  0  0  0  0
  188.2850  177.4260  135.7490 C   0  0  2  0  0  0  0  0  0  0  0  0
  187.4170  175.4200  134.5940 F   0  0  0  0  0  0  0  0  0  0  0  0
  185.5370  176.9090  137.6170 C   0  0  1  0  0  3  0  0  0  0  0  0
  186.3870  177.5730  134.6840 C   0  0  0  0  0  2  0  0  0  0  0  0
  186.3710  178.5740  139.3860 C   0  0  0  0  0  0  0  0  0  0  0  0
  188.8340  178.4870  142.2600 C   0  0  0  0  0  3  0  0  0  0  0  0
  187.6320  178.8250  141.5980 C   0  0  0  0  0  3  0  0  0  0  0  0
  189.6290  177.2700  140.2770 C   0  0  0  0  0  3  0  0  0  0  0  0
  185.8530  179.6980  139.2680 O   0  0  0  0  0  0  0  0  0  0  0  0
  187.4840  178.5540  135.0970 C   0  0  0  0  0  2  0  0  0  0  0  0
  187.9180  177.1660  138.2960 C   0  0  1  0  0  3  0  0  0  0  0  0
  186.5660  177.7200  138.2460 N   0  0  0  0  0  0  0  0  0  0  0  0
  189.8200  177.7150  141.5970 C   0  0  0  0  0  3  0  0  0  0  0  0
  187.0780  176.4630  135.4600 C   0  0  1  0  0  0  0  0  0  0  0  0
  184.1280  175.0990  135.6290 O   0  0  0  0  0  1  0  0  0  0  0  0
  185.0210  173.8180  137.4300 C   0  0  0  0  0  1  0  0  0  0  0  0
  185.3200  174.7000  136.2360 C   0  0  2  0  0  3  0  0  0  0  0  0
  189.5070  177.1470  135.0520 O   0  0  0  0  0  0  0  0  0  0  0  0
  190.3650  176.2570  135.7230 C   0  0  0  0  0  2  0  0  0  0  0  0
  190.7900  174.0910  135.9610 C   0  0  0  0  0  1  0  0  0  0  0  0
  190.5260  175.0730  134.9890 O   0  0  0  0  0  0  0  0  0  0  0  0
  180.6220  178.3110  137.0920 C   0  0  2  0  0  3  0  0  0  0  0  0
  181.5340  179.4380  136.6460 C   0  0  1  0  0  0  0  0  0  0  0  0
  182.0560  180.2580  137.6560 O   0  0  0  0  0  1  0  0  0  0  0  0
  180.4650  178.3790  138.4830 O   0  0  0  0  0  1  0  0  0  0  0  0
  182.0550  178.0070  136.5650 C   0  0  1  0  0  3  0  0  0  0  0  0
  181.1850  180.0910  135.3170 C   0  0  0  0  0  1  0  0  0  0  0  0
  182.1750  175.6610  138.3910 O   0  0  0  0  0  0  0  0  0  0  0  0
  182.8200  176.7140  138.6550 C   0  0  0  0  0  0  0  0  0  0  0  0
  183.2850  177.0110  140.0570 C   0  0  0  0  0  2  0  0  0  0  0  0
  182.3660  178.8810  142.9790 C   0  0  2  0  0  0  0  0  0  0  0  0
  182.2680  180.2500  143.2570 O   0  0  0  0  0  1  0  0  0  0  0  0
  182.2540  177.4330  141.1340 C   0  0  2  0  0  3  0  0  0  0  0  0
  180.0790  178.4230  142.7510 C   0  0  2  0  0  3  0  0  0  0  0  0
  180.8350  177.2800  140.6250 C   0  0  0  0  0  2  0  0  0  0  0  0
  182.4360  178.7610  141.5590 O   0  0  0  0  0  0  0  0  0  0  0  0
  179.8640  177.2280  141.8000 C   0  0  0  0  0  2  0  0  0  0  0  0
  181.2300  178.2410  143.5520 O   0  0  0  0  0  0  0  0  0  0  0  0
  184.7700  179.3470  143.3980 C   0  0  0  0  0  2  0  0  0  0  0  0
  183.6630  178.3850  143.7040 C   0  0  2  0  0  0  0  0  0  0  0  0
  183.3310  178.1880  145.1590 C   0  0  0  0  0  2  0  0  0  0  0  0
  184.2940  179.2990  144.8430 C   0  0  2  0  0  0  0  0  0  0  0  0
  185.4030  178.3960  147.0550 C   0  0  0  0  0  2  0  0  0  0  0  0
  186.5090  178.0820  144.8020 C   0  0  0  0  0  3  0  0  0  0  0  0
  187.6500  177.2290  146.8640 C   0  0  1  0  0  3  0  0  0  0  0  0
  185.5590  178.9140  145.6230 C   0  0  1  0  0  3  0  0  0  0  0  0
  187.4290  179.5110  147.7190 O   0  0  0  0  0  1  0  0  0  0  0  0
  186.8030  178.2560  147.6600 C   0  0  1  0  0  3  0  0  0  0  0  0
  187.4780  177.3510  145.3670 C   0  0  0  0  0  3  0  0  0  0  0  0
  189.0080  177.3470  147.1770 O   0  0  0  0  0  0  0  0  0  0  0  0
  189.7090  177.1100  146.0220 N   0  0  0  0  0  2  0  0  0  0  0  0
  191.8500  176.9050  147.1740 O   0  0  0  0  0  1  0  0  0  0  0  0
  191.6740  176.6740  144.9030 O   0  0  0  0  0  0  0  0  0  0  0  0
  191.1090  176.9340  145.9920 C   0  0  0  0  0  0  0  0  0  0  0  0
  178.9320  178.7050  143.5440 O   0  0  0  0  0  0  0  0  0  0  0  0
  179.0870  179.9840  144.1190 C   0  0  0  0  0  1  0  0  0  0  0  0
  2  1  1  6  0  0  0
  2 35  1  0  0  0  0
  3 23  1  6  0  0  0
  3  9  1  0  0  0  0
  5 14  2  0  0  0  0
  5  6  1  0  0  0  0
  6 13  2  0  0  0  0
  7 24  1  6  0  0  0
  7  4  1  0  0  0  0
  9  1  1  6  0  0  0
  9 18  1  0  0  0  0
 10 16  1  0  0  0  0
 10 20  1  0  0  0  0
 11  6  1  0  0  0  0
 13 12  1  0  0  0  0
 14 19  1  0  0  0  0
 15 11  2  0  0  0  0
 16  7  1  0  0  0  0
 17  4  1  6  0  0  0
 17  5  1  0  0  0  0
 18 17  1  0  0  0  0
 18 11  1  0  0  0  0
 19 12  2  0  0  0  0
 20  8  1  6  0  0  0
 20  7  1  0  0  0  0
 20  3  1  0  0  0  0
 21 23  1  0  0  0  0
 23 22  1  1  0  0  0
 24 25  1  0  0  0  0
 27 25  1  0  0  0  0
 27 26  1  0  0  0  0
 28 31  1  1  0  0  0
 29 33  1  6  0  0  0
 29 28  1  0  0  0  0
 29 30  1  0  0  0  0
 32 29  1  0  0  0  0
 32 28  1  0  0  0  0
 32  2  1  1  0  0  0
 34 35  2  0  0  0  0
 35 36  1  0  0  0  0
 37 38  1  1  0  0  0
 37 44  1  0  0  0  0
 37 46  1  0  0  0  0
 39 36  1  6  0  0  0
 39 42  1  0  0  0  0
 40 61  1  1  0  0  0
 40 44  1  0  0  0  0
 41 39  1  0  0  0  0
 41 43  1  0  0  0  0
 42 37  1  0  0  0  0
 43 40  1  0  0  0  0
 46 45  1  6  0  0  0
 46 48  1  0  0  0  0
 46 47  1  0  0  0  0
 48 45  1  1  0  0  0
 48 47  1  0  0  0  0
 48 52  1  0  0  0  0
 49 54  1  0  0  0  0
 50 55  2  0  0  0  0
 51 56  1  6  0  0  0
 51 54  1  0  0  0  0
 52 50  1  6  0  0  0
 52 49  1  0  0  0  0
 54 53  1  6  0  0  0
 55 51  1  0  0  0  0
 57 56  1  0  0  0  0
 59 60  2  0  0  0  0
 60 57  1  0  0  0  0
 60 58  1  0  0  0  0
 61 62  1  0  0  0  0
M  END
>  <MODEL>
1

>  <REMARK>
 VINA RESULT:      -7.3      0.000      0.000
  Name = 
  14 active torsions:
  status: ('A' for Active; 'I' for Inactive)
    1  A    between atoms: N_1  and  O_62
    2  A    between atoms: C_2  and  C_19
    3  A    between atoms: C_3  and  C_28
    4  A    between atoms: C_11  and  O_46
    5  A    between atoms: C_13  and  C_18
    6  A    between atoms: C_14  and  C_34
    7  A    between atoms: C_14  and  C_55
    8  A    between atoms: C_16  and  C_55
    9  A    between atoms: C_23  and  O_62
   10  A    between atoms: C_24  and  C_58
   11  A    between atoms: O_32  and  C_36
   12  A    between atoms: C_34  and  C_53
   13  A    between atoms: C_38  and  O_44
   14  A    between atoms: C_38  and  O_46
                            x       y       z     vdW  Elec       q    Type
                         _______ _______ _______ _____ _____    ______ ____

>  <TORSDO>
F 14

$$$$
=
 OpenBabel11062416383D

 62 70  0  0  1  0  0  0  0  0999 V2000
  185.2050  176.9760  136.8410 C   0  0  0  0  0  2  0  0  0  0  0  0
  184.0400  177.3290  137.4210 C   0  0  1  0  0  3  0  0  0  0  0  0
  186.9040  175.0860  136.7420 C   0  0  2  0  0  3  0  0  0  0  0  0
  189.5030  176.9430  137.1140 C   0  0  0  0  0  2  0  0  0  0  0  0
  189.1240  177.0930  139.5720 C   0  0  0  0  0  0  0  0  0  0  0  0
  188.1930  177.9820  140.0640 C   0  0  0  0  0  0  0  0  0  0  0  0
  189.1080  176.3390  135.7400 C   0  0  2  0  0  0  0  0  0  0  0  0
  188.1810  174.2200  134.8680 F   0  0  0  0  0  0  0  0  0  0  0  0
  186.2810  176.2290  137.5600 C   0  0  1  0  0  3  0  0  0  0  0  0
  187.2530  176.4040  134.5940 C   0  0  0  0  0  2  0  0  0  0  0  0
  187.1390  178.1070  139.0890 C   0  0  0  0  0  0  0  0  0  0  0  0
  189.5050  178.3520  142.0340 C   0  0  0  0  0  3  0  0  0  0  0  0
  188.3420  178.6360  141.2840 C   0  0  0  0  0  3  0  0  0  0  0  0
  190.3020  176.8140  140.2870 C   0  0  0  0  0  3  0  0  0  0  0  0
  186.6790  179.2210  138.7840 O   0  0  0  0  0  0  0  0  0  0  0  0
  188.3820  177.3890  134.8960 C   0  0  0  0  0  2  0  0  0  0  0  0
  188.6500  176.4850  138.2820 C   0  0  1  0  0  3  0  0  0  0  0  0
  187.3280  177.0810  138.0970 N   0  0  0  0  0  0  0  0  0  0  0  0
  190.4730  177.4460  141.5320 C   0  0  0  0  0  3  0  0  0  0  0  0
  187.8650  175.3960  135.5530 C   0  0  1  0  0  0  0  0  0  0  0  0
  185.2310  173.5910  137.6550 O   0  0  0  0  0  1  0  0  0  0  0  0
  186.8000  172.6160  136.1470 C   0  0  0  0  0  1  0  0  0  0  0  0
  186.0020  173.8480  136.5190 C   0  0  2  0  0  3  0  0  0  0  0  0
  190.3360  175.9060  135.1390 O   0  0  0  0  0  0  0  0  0  0  0  0
  191.3950  175.7360  136.0480 C   0  0  0  0  0  2  0  0  0  0  0  0
  193.3690  175.3470  135.1080 C   0  0  0  0  0  1  0  0  0  0  0  0
  192.2410  174.6950  135.6390 O   0  0  0  0  0  0  0  0  0  0  0  0
  183.0350  177.0780  134.9790 C   0  0  2  0  0  3  0  0  0  0  0  0
  182.2340  176.2350  135.9520 C   0  0  1  0  0  0  0  0  0  0  0  0
  182.8090  175.0200  136.3500 O   0  0  0  0  0  1  0  0  0  0  0  0
  184.2110  176.3910  134.6470 O   0  0  0  0  0  1  0  0  0  0  0  0
  182.8790  177.5180  136.4640 C   0  0  1  0  0  3  0  0  0  0  0  0
  180.7220  176.2770  135.7820 C   0  0  0  0  0  1  0  0  0  0  0  0
  183.4210  175.6940  139.0240 O   0  0  0  0  0  0  0  0  0  0  0  0
  183.7350  176.8980  138.8110 C   0  0  0  0  0  0  0  0  0  0  0  0
  183.8380  177.8880  139.9420 C   0  0  0  0  0  2  0  0  0  0  0  0
  182.4070  179.1110  142.9980 C   0  0  2  0  0  0  0  0  0  0  0  0
  182.2370  180.3920  143.5390 O   0  0  0  0  0  1  0  0  0  0  0  0
  182.6340  178.0890  140.8960 C   0  0  2  0  0  3  0  0  0  0  0  0
  180.2010  178.7470  142.3000 C   0  0  2  0  0  3  0  0  0  0  0  0
  181.3230  178.0700  140.1370 C   0  0  0  0  0  2  0  0  0  0  0  0
  182.7150  179.2930  141.6170 O   0  0  0  0  0  0  0  0  0  0  0  0
  180.1710  177.7850  141.0960 C   0  0  0  0  0  2  0  0  0  0  0  0
  181.2050  178.3820  143.2250 O   0  0  0  0  0  0  0  0  0  0  0  0
  184.8740  178.8840  143.1960 C   0  0  0  0  0  2  0  0  0  0  0  0
  183.5760  178.4520  143.8080 C   0  0  2  0  0  0  0  0  0  0  0  0
  183.3770  178.7900  145.2610 C   0  0  0  0  0  2  0  0  0  0  0  0
  184.5810  179.4000  144.5980 C   0  0  2  0  0  0  0  0  0  0  0  0
  185.4540  178.1040  146.7190 C   0  0  0  0  0  2  0  0  0  0  0  0
  186.7970  178.1830  144.5760 C   0  0  0  0  0  3  0  0  0  0  0  0
  187.7180  176.9640  146.5630 C   0  0  1  0  0  3  0  0  0  0  0  0
  185.7580  178.8670  145.4270 C   0  0  1  0  0  3  0  0  0  0  0  0
  187.3890  179.0590  147.7830 O   0  0  0  0  0  1  0  0  0  0  0  0
  186.7830  177.8420  147.4340 C   0  0  1  0  0  3  0  0  0  0  0  0
  187.7050  177.3520  145.1020 C   0  0  0  0  0  3  0  0  0  0  0  0
  189.0340  177.0080  147.0350 O   0  0  0  0  0  0  0  0  0  0  0  0
  189.8520  176.7270  145.9700 N   0  0  0  0  0  2  0  0  0  0  0  0
  191.9000  176.9920  147.2700 O   0  0  0  0  0  1  0  0  0  0  0  0
  191.9420  176.4420  145.0480 O   0  0  0  0  0  0  0  0  0  0  0  0
  191.2610  176.7560  146.0520 C   0  0  0  0  0  0  0  0  0  0  0  0
  178.9320  178.8730  142.9320 O   0  0  0  0  0  0  0  0  0  0  0  0
  179.1150  178.7900  144.3290 C   0  0  0  0  0  1  0  0  0  0  0  0
  2  1  1  6  0  0  0
  2 35  1  0  0  0  0
  3 23  1  6  0  0  0
  3  9  1  0  0  0  0
  5  6  2  0  0  0  0
  5 14  1  0  0  0  0
  6 13  1  0  0  0  0
  7 24  1  6  0  0  0
  7  4  1  0  0  0  0
  9  1  1  6  0  0  0
  9 18  1  0  0  0  0
 10 16  1  0  0  0  0
 10 20  1  0  0  0  0
 11  6  1  0  0  0  0
 13 12  2  0  0  0  0
 14 19  2  0  0  0  0
 15 11  2  0  0  0  0
 16  7  1  0  0  0  0
 17  4  1  6  0  0  0
 17  5  1  0  0  0  0
 18 17  1  0  0  0  0
 18 11  1  0  0  0  0
 19 12  1  0  0  0  0
 20  8  1  6  0  0  0
 20  7  1  0  0  0  0
 20  3  1  0  0  0  0
 23 22  1  1  0  0  0
 23 21  1  0  0  0  0
 24 25  1  0  0  0  0
 26 27  1  0  0  0  0
 27 25  1  0  0  0  0
 28 31  1  1  0  0  0
 28 29  1  0  0  0  0
 28 32  1  0  0  0  0
 29 33  1  6  0  0  0
 29 30  1  0  0  0  0
 29 32  1  0  0  0  0
 32  2  1  1  0  0  0
 35 34  2  0  0  0  0
 35 36  1  0  0  0  0
 37 44  1  0  0  0  0
 37 38  1  1  0  0  0
 37 46  1  0  0  0  0
 39 36  1  6  0  0  0
 39 42  1  0  0  0  0
 40 61  1  1  0  0  0
 40 44  1  0  0  0  0
 41 39  1  0  0  0  0
 41 43  1  0  0  0  0
 42 37  1  0  0  0  0
 43 40  1  0  0  0  0
 46 45  1  6  0  0  0
 46 48  1  0  0  0  0
 46 47  1  0  0  0  0
 48 45  1  6  0  0  0
 48 47  1  0  0  0  0
 48 52  1  0  0  0  0
 49 54  1  0  0  0  0
 50 55  2  0  0  0  0
 51 56  1  1  0  0  0
 51 54  1  0  0  0  0
 52 50  1  6  0  0  0
 52 49  1  0  0  0  0
 54 53  1  6  0  0  0
 55 51  1  0  0  0  0
 57 60  1  0  0  0  0
 57 56  1  0  0  0  0
 59 60  2  0  0  0  0
 60 58  1  0  0  0  0
 61 62  1  0  0  0  0
M  END
>  <MODEL>
2

>  <REMARK>
 VINA RESULT:      -7.1      1.272      1.648
  Name = 
  14 active torsions:
  status: ('A' for Active; 'I' for Inactive)
    1  A    between atoms: N_1  and  O_62
    2  A    between atoms: C_2  and  C_19
    3  A    between atoms: C_3  and  C_28
    4  A    between atoms: C_11  and  O_46
    5  A    between atoms: C_13  and  C_18
    6  A    between atoms: C_14  and  C_34
    7  A    between atoms: C_14  and  C_55
    8  A    between atoms: C_16  and  C_55
    9  A    between atoms: C_23  and  O_62
   10  A    between atoms: C_24  and  C_58
   11  A    between atoms: O_32  and  C_36
   12  A    between atoms: C_34  and  C_53
   13  A    between atoms: C_38  and  O_44
   14  A    between atoms: C_38  and  O_46
                            x       y       z     vdW  Elec       q    Type
                         _______ _______ _______ _____ _____    ______ ____

>  <TORSDO>
F 14

$$$$
=
 OpenBabel11062416383D

 62 70  0  0  1  0  0  0  0  0999 V2000
  181.8770  178.3690  140.5890 C   0  0  0  0  0  2  0  0  0  0  0  0
  182.6210  178.6920  141.6680 C   0  0  1  0  0  3  0  0  0  0  0  0
  181.2070  176.5740  138.9180 C   0  0  2  0  0  3  0  0  0  0  0  0
  182.1860  178.1640  136.2990 C   0  0  0  0  0  2  0  0  0  0  0  0
  184.5590  177.5340  136.7230 C   0  0  0  0  0  0  0  0  0  0  0  0
  185.2940  178.2400  137.6510 C   0  0  0  0  0  0  0  0  0  0  0  0
  180.6850  178.0350  136.6760 C   0  0  2  0  0  0  0  0  0  0  0  0
  179.1730  176.3220  137.6170 F   0  0  0  0  0  0  0  0  0  0  0  0
  182.3370  177.4110  139.5390 C   0  0  1  0  0  3  0  0  0  0  0  0
  179.5940  178.4990  138.5070 C   0  0  0  0  0  2  0  0  0  0  0  0
  184.3940  178.6890  138.6830 C   0  0  0  0  0  0  0  0  0  0  0  0
  187.2980  177.9390  136.3720 C   0  0  0  0  0  3  0  0  0  0  0  0
  186.6610  178.4700  137.5160 C   0  0  0  0  0  3  0  0  0  0  0  0
  185.1650  177.0190  135.5640 C   0  0  0  0  0  3  0  0  0  0  0  0
  184.4530  179.8520  139.1200 O   0  0  0  0  0  0  0  0  0  0  0  0
  180.2090  179.3130  137.3690 C   0  0  0  0  0  2  0  0  0  0  0  0
  183.1350  177.3760  137.1810 C   0  0  1  0  0  3  0  0  0  0  0  0
  183.1320  178.0280  138.4900 N   0  0  0  0  0  0  0  0  0  0  0  0
  186.5480  177.2190  135.4080 C   0  0  0  0  0  3  0  0  0  0  0  0
  180.1920  177.2260  137.9290 C   0  0  1  0  0  0  0  0  0  0  0  0
  180.5370  174.2610  139.1720 O   0  0  0  0  0  1  0  0  0  0  0  0
  179.2090  175.8710  140.3240 C   0  0  0  0  0  1  0  0  0  0  0  0
  180.5900  175.4900  139.8330 C   0  0  2  0  0  3  0  0  0  0  0  0
  179.9950  177.7900  135.4430 O   0  0  0  0  0  0  0  0  0  0  0  0
  180.6370  176.8700  134.5950 C   0  0  0  0  0  2  0  0  0  0  0  0
  181.3500  174.7980  134.9550 C   0  0  0  0  0  1  0  0  0  0  0  0
  180.1780  175.5670  134.8350 O   0  0  0  0  0  0  0  0  0  0  0  0
  180.6620  180.1710  142.6760 C   0  0  2  0  0  3  0  0  0  0  0  0
  180.3760  178.7020  142.9240 C   0  0  1  0  0  0  0  0  0  0  0  0
  179.8930  177.9650  141.8330 O   0  0  0  0  0  1  0  0  0  0  0  0
  180.3180  180.4820  141.3540 O   0  0  0  0  0  1  0  0  0  0  0  0
  181.8290  179.1590  142.8740 C   0  0  1  0  0  3  0  0  0  0  0  0
  179.8390  178.3510  144.3040 C   0  0  0  0  0  1  0  0  0  0  0  0
  184.0280  176.7830  141.6720 O   0  0  0  0  0  0  0  0  0  0  0  0
  183.9240  178.0200  141.9060 C   0  0  0  0  0  0  0  0  0  0  0  0
  185.1050  178.8220  142.3880 C   0  0  0  0  0  2  0  0  0  0  0  0
  188.2760  178.0480  143.8800 C   0  0  2  0  0  0  0  0  0  0  0  0
  189.3810  178.8230  144.2550 O   0  0  0  0  0  1  0  0  0  0  0  0
  185.9620  178.2940  143.5650 C   0  0  2  0  0  3  0  0  0  0  0  0
  187.3700  177.7040  146.0130 C   0  0  2  0  0  3  0  0  0  0  0  0
  185.2270  178.4300  144.8830 C   0  0  0  0  0  2  0  0  0  0  0  0
  187.1970  178.9570  143.6710 O   0  0  0  0  0  0  0  0  0  0  0  0
  185.8450  177.4980  145.9210 C   0  0  0  0  0  2  0  0  0  0  0  0
  188.0360  177.1050  144.9200 O   0  0  0  0  0  0  0  0  0  0  0  0
  188.6680  178.2590  141.4350 C   0  0  0  0  0  2  0  0  0  0  0  0
  188.7030  177.2890  142.5770 C   0  0  2  0  0  0  0  0  0  0  0  0
  190.0250  176.6200  142.8460 C   0  0  0  0  0  2  0  0  0  0  0  0
  190.0400  177.7380  141.8410 C   0  0  2  0  0  0  0  0  0  0  0  0
  189.8360  177.3560  139.2420 C   0  0  0  0  0  2  0  0  0  0  0  0
  192.0570  177.1490  140.4350 C   0  0  0  0  0  3  0  0  0  0  0  0
  191.9400  176.7280  137.9670 C   0  0  1  0  0  3  0  0  0  0  0  0
  190.5580  177.0660  140.5610 C   0  0  1  0  0  3  0  0  0  0  0  0
  190.1990  175.0960  138.5030 O   0  0  0  0  0  1  0  0  0  0  0  0
  190.4300  176.4390  138.1690 C   0  0  1  0  0  3  0  0  0  0  0  0
  192.6800  176.9570  139.2650 C   0  0  0  0  0  3  0  0  0  0  0  0
  192.5620  175.6910  137.2650 O   0  0  0  0  0  0  0  0  0  0  0  0
  193.9150  175.8490  137.4300 N   0  0  0  0  0  2  0  0  0  0  0  0
  194.3970  173.4870  137.0490 O   0  0  0  0  0  0  0  0  0  0  0  0
  196.0560  175.0040  137.4850 O   0  0  0  0  0  1  0  0  0  0  0  0
  194.8290  174.7750  137.3720 C   0  0  0  0  0  0  0  0  0  0  0  0
  187.9090  177.2630  147.2550 O   0  0  0  0  0  0  0  0  0  0  0  0
  189.1940  176.7270  147.0230 C   0  0  0  0  0  1  0  0  0  0  0  0
  2  1  1  1  0  0  0
  2 35  1  0  0  0  0
  3  9  1  0  0  0  0
  3 23  1  1  0  0  0
  4  7  1  0  0  0  0
  5 17  1  0  0  0  0
  5  6  1  0  0  0  0
  6 11  1  0  0  0  0
  7 24  1  6  0  0  0
  7 16  1  0  0  0  0
  7 20  1  0  0  0  0
  9  1  1  1  0  0  0
 11 15  2  0  0  0  0
 12 13  1  0  0  0  0
 13  6  2  0  0  0  0
 14  5  2  0  0  0  0
 16 10  1  0  0  0  0
 17  4  1  6  0  0  0
 17 18  1  0  0  0  0
 18 11  1  0  0  0  0
 18  9  1  0  0  0  0
 19 14  1  0  0  0  0
 19 12  2  0  0  0  0
 20  8  1  6  0  0  0
 20 10  1  0  0  0  0
 20  3  1  0  0  0  0
 21 23  1  0  0  0  0
 23 22  1  6  0  0  0
 25 27  1  0  0  0  0
 25 24  1  0  0  0  0
 27 26  1  0  0  0  0
 28 31  1  6  0  0  0
 28 32  1  0  0  0  0
 28 29  1  0  0  0  0
 29 33  1  1  0  0  0
 30 29  1  0  0  0  0
 32  2  1  6  0  0  0
 32 29  1  0  0  0  0
 34 35  2  0  0  0  0
 35 36  1  0  0  0  0
 37 38  1  1  0  0  0
 37 44  1  0  0  0  0
 39 36  1  6  0  0  0
 39 42  1  0  0  0  0
 39 41  1  0  0  0  0
 40 61  1  1  0  0  0
 41 43  1  0  0  0  0
 42 37  1  0  0  0  0
 43 40  1  0  0  0  0
 44 40  1  0  0  0  0
 46 45  1  6  0  0  0
 46 47  1  0  0  0  0
 46 37  1  0  0  0  0
 48 45  1  1  0  0  0
 48 46  1  0  0  0  0
 48 47  1  0  0  0  0
 50 52  1  0  0  0  0
 51 56  1  1  0  0  0
 51 54  1  0  0  0  0
 51 55  1  0  0  0  0
 52 49  1  6  0  0  0
 52 48  1  0  0  0  0
 54 53  1  1  0  0  0
 54 49  1  0  0  0  0
 55 50  2  0  0  0  0
 56 57  1  0  0  0  0
 58 60  2  0  0  0  0
 60 57  1  0  0  0  0
 60 59  1  0  0  0  0
 62 61  1  0  0  0  0
M  END
>  <MODEL>
3

>  <REMARK>
 VINA RESULT:      -6.0      2.694      7.194
  Name = 
  14 active torsions:
  status: ('A' for Active; 'I' for Inactive)
    1  A    between atoms: N_1  and  O_62
    2  A    between atoms: C_2  and  C_19
    3  A    between atoms: C_3  and  C_28
    4  A    between atoms: C_11  and  O_46
    5  A    between atoms: C_13  and  C_18
    6  A    between atoms: C_14  and  C_34
    7  A    between atoms: C_14  and  C_55
    8  A    between atoms: C_16  and  C_55
    9  A    between atoms: C_23  and  O_62
   10  A    between atoms: C_24  and  C_58
   11  A    between atoms: O_32  and  C_36
   12  A    between atoms: C_34  and  C_53
   13  A    between atoms: C_38  and  O_44
   14  A    between atoms: C_38  and  O_46
                            x       y       z     vdW  Elec       q    Type
                         _______ _______ _______ _____ _____    ______ ____

>  <TORSDO>
F 14

$$$$
=
 OpenBabel11062416383D

 62 70  0  0  1  0  0  0  0  0999 V2000
  187.1890  177.1800  137.0350 C   0  0  0  0  0  2  0  0  0  0  0  0
  186.0800  177.9300  137.1970 C   0  0  1  0  0  3  0  0  0  0  0  0
  188.2290  174.9360  137.6250 C   0  0  2  0  0  3  0  0  0  0  0  0
  191.0300  176.1210  138.6710 C   0  0  0  0  0  2  0  0  0  0  0  0
  190.0210  176.7510  140.8600 C   0  0  0  0  0  0  0  0  0  0  0  0
  189.2820  177.9100  140.9610 C   0  0  0  0  0  0  0  0  0  0  0  0
  190.8910  175.4240  137.2910 C   0  0  2  0  0  0  0  0  0  0  0  0
  189.6870  173.4920  136.3270 F   0  0  0  0  0  0  0  0  0  0  0  0
  187.7530  176.3130  138.1140 C   0  0  1  0  0  3  0  0  0  0  0  0
  189.5430  175.7660  135.6110 C   0  0  0  0  0  2  0  0  0  0  0  0
  188.6350  178.1360  139.6930 C   0  0  0  0  0  0  0  0  0  0  0  0
  190.0210  178.2500  143.2140 C   0  0  0  0  0  3  0  0  0  0  0  0
  189.2550  178.6920  142.1120 C   0  0  0  0  0  3  0  0  0  0  0  0
  190.8120  176.3050  141.9330 C   0  0  0  0  0  3  0  0  0  0  0  0
  188.6210  179.2670  139.1760 O   0  0  0  0  0  0  0  0  0  0  0  0
  190.7700  176.4730  136.1840 C   0  0  0  0  0  2  0  0  0  0  0  0
  189.7830  176.0820  139.5350 C   0  0  1  0  0  3  0  0  0  0  0  0
  188.7990  176.9520  138.8930 N   0  0  0  0  0  0  0  0  0  0  0  0
  190.7910  177.0640  143.1170 C   0  0  0  0  0  3  0  0  0  0  0  0
  189.5380  174.8030  136.7870 C   0  0  1  0  0  0  0  0  0  0  0  0
  187.3030  172.7090  137.8450 O   0  0  0  0  0  1  0  0  0  0  0  0
  187.0370  173.7510  135.7170 C   0  0  0  0  0  1  0  0  0  0  0  0
  187.1150  173.9420  137.2170 C   0  0  2  0  0  3  0  0  0  0  0  0
  192.0620  174.6080  137.1490 O   0  0  0  0  0  0  0  0  0  0  0  0
  193.2700  175.2880  137.3830 C   0  0  0  0  0  2  0  0  0  0  0  0
  194.8060  175.7420  135.8440 C   0  0  0  0  0  1  0  0  0  0  0  0
  194.3190  174.7030  136.6580 O   0  0  0  0  0  0  0  0  0  0  0  0
  185.7460  177.5440  134.5940 C   0  0  2  0  0  3  0  0  0  0  0  0
  184.5000  177.1080  135.3420 C   0  0  1  0  0  0  0  0  0  0  0  0
  184.5620  175.8700  135.9950 O   0  0  0  0  0  1  0  0  0  0  0  0
  186.7110  176.5330  134.6960 O   0  0  0  0  0  1  0  0  0  0  0  0
  185.3310  178.2490  135.9180 C   0  0  1  0  0  3  0  0  0  0  0  0
  183.1720  177.5080  134.7140 C   0  0  0  0  0  1  0  0  0  0  0  0
  185.5840  178.6450  139.4030 O   0  0  0  0  0  0  0  0  0  0  0  0
  185.3030  177.8530  138.4610 C   0  0  0  0  0  0  0  0  0  0  0  0
  184.1750  176.8620  138.5880 C   0  0  0  0  0  2  0  0  0  0  0  0
  182.3410  178.6420  141.1090 C   0  0  2  0  0  0  0  0  0  0  0  0
  182.2080  179.9990  141.4280 O   0  0  0  0  0  1  0  0  0  0  0  0
  182.8430  177.2980  139.2500 C   0  0  2  0  0  3  0  0  0  0  0  0
  180.2750  178.3450  140.0450 C   0  0  2  0  0  3  0  0  0  0  0  0
  181.6990  177.2620  138.2570 C   0  0  0  0  0  2  0  0  0  0  0  0
  182.9150  178.5880  139.8040 O   0  0  0  0  0  0  0  0  0  0  0  0
  180.3680  177.2150  139.0000 C   0  0  0  0  0  2  0  0  0  0  0  0
  181.0490  178.0500  141.1910 O   0  0  0  0  0  0  0  0  0  0  0  0
  184.6650  178.5110  141.9800 C   0  0  0  0  0  2  0  0  0  0  0  0
  183.2660  178.0280  142.2140 C   0  0  2  0  0  0  0  0  0  0  0  0
  182.6620  178.3540  143.5540 C   0  0  0  0  0  2  0  0  0  0  0  0
  183.9780  179.0110  143.2430 C   0  0  2  0  0  0  0  0  0  0  0  0
  186.3700  178.2450  144.0360 C   0  0  0  0  0  2  0  0  0  0  0  0
  184.7310  179.3180  145.6360 C   0  0  0  0  0  3  0  0  0  0  0  0
  186.9730  178.5780  146.4800 C   0  0  1  0  0  3  0  0  0  0  0  0
  184.9010  178.5230  144.3680 C   0  0  1  0  0  3  0  0  0  0  0  0
  186.4010  176.3840  145.5600 O   0  0  0  0  0  1  0  0  0  0  0  0
  187.0190  177.6100  145.2690 C   0  0  1  0  0  3  0  0  0  0  0  0
  185.6550  179.3080  146.6050 C   0  0  0  0  0  3  0  0  0  0  0  0
  187.2350  177.9020  147.6750 O   0  0  0  0  0  0  0  0  0  0  0  0
  188.5040  178.2490  148.0640 N   0  0  0  0  0  2  0  0  0  0  0  0
  189.5380  176.3380  146.9540 O   0  0  0  0  0  0  0  0  0  0  0  0
  190.7760  177.8800  148.1080 O   0  0  0  0  0  1  0  0  0  0  0  0
  189.6430  177.4740  147.7590 C   0  0  0  0  0  0  0  0  0  0  0  0
  178.9320  178.6610  140.3920 O   0  0  0  0  0  0  0  0  0  0  0  0
  178.9410  179.7780  141.2560 C   0  0  0  0  0  1  0  0  0  0  0  0
  2  1  1  6  0  0  0
  2 35  1  0  0  0  0
  3 23  1  6  0  0  0
  3  9  1  0  0  0  0
  5  6  2  0  0  0  0
  5 14  1  0  0  0  0
  6 13  1  0  0  0  0
  7 24  1  6  0  0  0
  7  4  1  0  0  0  0
  9  1  1  6  0  0  0
  9 18  1  0  0  0  0
 10 16  1  0  0  0  0
 10 20  1  0  0  0  0
 11  6  1  0  0  0  0
 13 12  2  0  0  0  0
 14 19  2  0  0  0  0
 15 11  2  0  0  0  0
 16  7  1  0  0  0  0
 17  4  1  6  0  0  0
 17  5  1  0  0  0  0
 18 17  1  0  0  0  0
 18 11  1  0  0  0  0
 19 12  1  0  0  0  0
 20  8  1  6  0  0  0
 20  7  1  0  0  0  0
 20  3  1  0  0  0  0
 23 22  1  6  0  0  0
 23 21  1  0  0  0  0
 24 25  1  0  0  0  0
 26 27  1  0  0  0  0
 27 25  1  0  0  0  0
 28 31  1  1  0  0  0
 28 29  1  0  0  0  0
 28 32  1  0  0  0  0
 29 33  1  6  0  0  0
 29 32  1  0  0  0  0
 29 30  1  0  0  0  0
 32  2  1  1  0  0  0
 35 36  1  0  0  0  0
 35 34  2  0  0  0  0
 37 44  1  0  0  0  0
 37 38  1  1  0  0  0
 37 46  1  0  0  0  0
 39 36  1  6  0  0  0
 39 42  1  0  0  0  0
 40 61  1  1  0  0  0
 40 44  1  0  0  0  0
 41 43  1  0  0  0  0
 41 39  1  0  0  0  0
 42 37  1  0  0  0  0
 43 40  1  0  0  0  0
 46 45  1  6  0  0  0
 46 48  1  0  0  0  0
 46 47  1  0  0  0  0
 48 45  1  6  0  0  0
 48 47  1  0  0  0  0
 48 52  1  0  0  0  0
 49 54  1  0  0  0  0
 50 55  2  0  0  0  0
 51 55  1  0  0  0  0
 51 56  1  1  0  0  0
 52 49  1  6  0  0  0
 52 50  1  0  0  0  0
 54 53  1  1  0  0  0
 54 51  1  0  0  0  0
 56 57  1  0  0  0  0
 58 60  2  0  0  0  0
 60 57  1  0  0  0  0
 60 59  1  0  0  0  0
 61 62  1  0  0  0  0
M  END
>  <MODEL>
4

>  <REMARK>
 VINA RESULT:      -5.2      1.959      3.099
  Name = 
  14 active torsions:
  status: ('A' for Active; 'I' for Inactive)
    1  A    between atoms: N_1  and  O_62
    2  A    between atoms: C_2  and  C_19
    3  A    between atoms: C_3  and  C_28
    4  A    between atoms: C_11  and  O_46
    5  A    between atoms: C_13  and  C_18
    6  A    between atoms: C_14  and  C_34
    7  A    between atoms: C_14  and  C_55
    8  A    between atoms: C_16  and  C_55
    9  A    between atoms: C_23  and  O_62
   10  A    between atoms: C_24  and  C_58
   11  A    between atoms: O_32  and  C_36
   12  A    between atoms: C_34  and  C_53
   13  A    between atoms: C_38  and  O_44
   14  A    between atoms: C_38  and  O_46
                            x       y       z     vdW  Elec       q    Type
                         _______ _______ _______ _____ _____    ______ ____

>  <TORSDO>
F 14

$$$$
=
 OpenBabel11062416383D

 62 70  0  0  1  0  0  0  0  0999 V2000
  190.5660  177.6740  141.1980 C   0  0  0  0  0  2  0  0  0  0  0  0
  190.4980  177.6220  139.8510 C   0  0  1  0  0  3  0  0  0  0  0  0
  190.1120  176.3670  143.3310 C   0  0  2  0  0  3  0  0  0  0  0  0
  188.3880  178.6640  144.7780 C   0  0  0  0  0  2  0  0  0  0  0  0
  186.3670  178.0810  143.4420 C   0  0  0  0  0  0  0  0  0  0  0  0
  186.2470  178.5480  142.1510 C   0  0  0  0  0  0  0  0  0  0  0  0
  189.8540  178.3510  145.1830 C   0  0  2  0  0  0  0  0  0  0  0  0
  191.2960  176.3620  145.4500 F   0  0  0  0  0  0  0  0  0  0  0  0
  189.5330  177.0670  142.0910 C   0  0  1  0  0  3  0  0  0  0  0  0
  191.6960  178.2340  144.0220 C   0  0  0  0  0  2  0  0  0  0  0  0
  187.5700  178.6460  141.5890 C   0  0  0  0  0  0  0  0  0  0  0  0
  183.8680  178.7240  142.3770 C   0  0  0  0  0  3  0  0  0  0  0  0
  185.0230  178.8850  141.5790 C   0  0  0  0  0  3  0  0  0  0  0  0
  185.2360  177.9370  144.2640 C   0  0  0  0  0  3  0  0  0  0  0  0
  187.9150  179.6470  140.9360 O   0  0  0  0  0  0  0  0  0  0  0  0
  190.8020  179.3620  144.5350 C   0  0  0  0  0  2  0  0  0  0  0  0
  187.7950  177.7230  143.7470 C   0  0  1  0  0  3  0  0  0  0  0  0
  188.4840  177.9910  142.4860 N   0  0  0  0  0  0  0  0  0  0  0  0
  183.9830  178.2530  143.7100 C   0  0  0  0  0  3  0  0  0  0  0  0
  190.6920  177.2040  144.5130 C   0  0  1  0  0  0  0  0  0  0  0  0
  190.0030  173.9500  143.2170 O   0  0  0  0  0  1  0  0  0  0  0  0
  192.0680  174.8740  143.9700 C   0  0  0  0  0  1  0  0  0  0  0  0
  190.8640  175.0400  143.0670 C   0  0  2  0  0  3  0  0  0  0  0  0
  189.8820  178.4120  146.6150 O   0  0  0  0  0  0  0  0  0  0  0  0
  189.2490  177.3290  147.2520 C   0  0  0  0  0  2  0  0  0  0  0  0
  187.6240  178.2550  148.4500 C   0  0  0  0  0  1  0  0  0  0  0  0
  188.8950  177.6630  148.5670 O   0  0  0  0  0  0  0  0  0  0  0  0
  193.1160  177.1910  139.8380 C   0  0  2  0  0  3  0  0  0  0  0  0
  192.4600  176.4020  138.7200 C   0  0  1  0  0  0  0  0  0  0  0  0
  191.7940  175.2260  139.0910 O   0  0  0  0  0  1  0  0  0  0  0  0
  192.9330  176.5030  141.0440 O   0  0  0  0  0  1  0  0  0  0  0  0
  191.8320  177.7280  139.1390 C   0  0  1  0  0  3  0  0  0  0  0  0
  193.1890  176.4080  137.3840 C   0  0  0  0  0  1  0  0  0  0  0  0
  188.5220  176.3120  139.8980 O   0  0  0  0  0  0  0  0  0  0  0  0
  189.4100  176.8590  139.1860 C   0  0  0  0  0  0  0  0  0  0  0  0
  189.3610  176.7800  137.6820 C   0  0  0  0  0  2  0  0  0  0  0  0
  186.3460  175.7320  136.0400 C   0  0  2  0  0  0  0  0  0  0  0  0
  185.7360  176.0820  134.8290 O   0  0  0  0  0  1  0  0  0  0  0  0
  188.4890  175.6960  137.0000 C   0  0  2  0  0  3  0  0  0  0  0  0
  187.2320  173.6650  135.3820 C   0  0  2  0  0  3  0  0  0  0  0  0
  189.3450  174.5860  136.4230 C   0  0  0  0  0  2  0  0  0  0  0  0
  187.6850  176.2200  135.9730 O   0  0  0  0  0  0  0  0  0  0  0  0
  188.4960  173.3380  136.2010 C   0  0  0  0  0  2  0  0  0  0  0  0
  186.2600  174.3170  136.1740 O   0  0  0  0  0  0  0  0  0  0  0  0
  185.4890  177.8920  136.9180 C   0  0  0  0  0  2  0  0  0  0  0  0
  185.4970  176.4150  137.1650 C   0  0  2  0  0  0  0  0  0  0  0  0
  184.1530  175.7360  137.2040 C   0  0  0  0  0  2  0  0  0  0  0  0
  184.1580  177.1700  136.7540 C   0  0  2  0  0  0  0  0  0  0  0  0
  181.9980  178.5920  137.2520 C   0  0  0  0  0  2  0  0  0  0  0  0
  182.9660  177.0160  138.9770 C   0  0  0  0  0  3  0  0  0  0  0  0
  180.9310  178.3650  139.5450 C   0  0  1  0  0  3  0  0  0  0  0  0
  183.2450  177.8720  137.7700 C   0  0  1  0  0  3  0  0  0  0  0  0
  182.2600  180.3170  138.9080 O   0  0  0  0  0  1  0  0  0  0  0  0
  181.3680  179.3460  138.4270 C   0  0  1  0  0  3  0  0  0  0  0  0
  181.9380  177.2670  139.7990 C   0  0  0  0  0  3  0  0  0  0  0  0
  180.6850  179.0430  140.7430 O   0  0  0  0  0  0  0  0  0  0  0  0
  180.2860  178.1050  141.6620 N   0  0  0  0  0  2  0  0  0  0  0  0
  180.2100  179.7070  143.5010 O   0  0  0  0  0  0  0  0  0  0  0  0
  179.6800  177.5000  143.7990 O   0  0  0  0  0  1  0  0  0  0  0  0
  180.0900  178.3990  143.0280 C   0  0  0  0  0  0  0  0  0  0  0  0
  186.6910  172.5210  134.7300 O   0  0  0  0  0  0  0  0  0  0  0  0
  186.3750  171.5540  135.7090 C   0  0  0  0  0  1  0  0  0  0  0  0
  2  1  1  1  0  0  0
  3 23  1  6  0  0  0
  3 20  1  0  0  0  0
  4  7  1  0  0  0  0
  5 17  1  0  0  0  0
  5 14  1  0  0  0  0
  6  5  2  0  0  0  0
  7 24  1  1  0  0  0
  9  1  1  1  0  0  0
  9 18  1  0  0  0  0
  9  3  1  0  0  0  0
 10 20  1  0  0  0  0
 10 16  1  0  0  0  0
 11  6  1  0  0  0  0
 11 18  1  0  0  0  0
 12 19  1  0  0  0  0
 13  6  1  0  0  0  0
 13 12  2  0  0  0  0
 15 11  2  0  0  0  0
 16  7  1  0  0  0  0
 17  4  1  1  0  0  0
 18 17  1  0  0  0  0
 19 14  2  0  0  0  0
 20  7  1  0  0  0  0
 20  8  1  1  0  0  0
 23 21  1  0  0  0  0
 23 22  1  1  0  0  0
 24 25  1  0  0  0  0
 25 27  1  0  0  0  0
 26 27  1  0  0  0  0
 28 31  1  1  0  0  0
 29 33  1  6  0  0  0
 29 30  1  0  0  0  0
 29 32  1  0  0  0  0
 29 28  1  0  0  0  0
 32 28  1  0  0  0  0
 32  2  1  1  0  0  0
 35  2  1  0  0  0  0
 35 34  2  0  0  0  0
 36 35  1  0  0  0  0
 37 38  1  6  0  0  0
 37 44  1  0  0  0  0
 37 46  1  0  0  0  0
 39 36  1  6  0  0  0
 40 61  1  1  0  0  0
 40 44  1  0  0  0  0
 40 43  1  0  0  0  0
 41 39  1  0  0  0  0
 42 37  1  0  0  0  0
 42 39  1  0  0  0  0
 43 41  1  0  0  0  0
 46 45  1  1  0  0  0
 46 47  1  0  0  0  0
 48 45  1  6  0  0  0
 48 46  1  0  0  0  0
 48 47  1  0  0  0  0
 48 52  1  0  0  0  0
 49 54  1  0  0  0  0
 50 55  2  0  0  0  0
 51 55  1  0  0  0  0
 51 56  1  1  0  0  0
 52 49  1  6  0  0  0
 52 50  1  0  0  0  0
 54 53  1  1  0  0  0
 54 51  1  0  0  0  0
 56 57  1  0  0  0  0
 57 60  1  0  0  0  0
 60 58  2  0  0  0  0
 60 59  1  0  0  0  0
 61 62  1  0  0  0  0
M  END
>  <MODEL>
5

>  <REMARK>
 VINA RESULT:      -4.4      2.761      9.421
  Name = 
  14 active torsions:
  status: ('A' for Active; 'I' for Inactive)
    1  A    between atoms: N_1  and  O_62
    2  A    between atoms: C_2  and  C_19
    3  A    between atoms: C_3  and  C_28
    4  A    between atoms: C_11  and  O_46
    5  A    between atoms: C_13  and  C_18
    6  A    between atoms: C_14  and  C_34
    7  A    between atoms: C_14  and  C_55
    8  A    between atoms: C_16  and  C_55
    9  A    between atoms: C_23  and  O_62
   10  A    between atoms: C_24  and  C_58
   11  A    between atoms: O_32  and  C_36
   12  A    between atoms: C_34  and  C_53
   13  A    between atoms: C_38  and  O_44
   14  A    between atoms: C_38  and  O_46
                            x       y       z     vdW  Elec       q    Type
                         _______ _______ _______ _____ _____    ______ ____

>  <TORSDO>
F 14

$$$$
