=
 OpenBabel11062411013D

 49 57  0  0  1  0  0  0  0  0999 V2000
  184.0060  178.2510  138.2130 N   0  0  0  0  0  0  0  0  0  0  0  0
  190.3520  176.9420  144.8370 C   0  0  2  0  0  3  0  0  0  0  0  0
  190.8260  176.3620  146.1780 C   0  0  2  0  0  3  0  0  0  0  0  0
  187.7200  177.9520  139.2010 C   0  0  1  0  0  3  0  0  0  0  0  0
  185.1770  179.0790  140.2960 C   0  0  2  0  0  3  0  0  0  0  0  0
  188.7980  178.8830  141.1880 O   0  0  0  0  0  0  0  0  0  0  0  0
  189.8090  175.6430  146.8020 O   0  0  0  0  0  0  0  0  0  0  0  0
  191.2140  177.4570  147.1280 C   0  0  0  0  0  2  0  0  0  0  0  0
  188.8370  177.2960  144.7710 C   0  0  1  0  0  3  0  0  0  0  0  0
  187.6750  176.4130  136.8330 N   0  0  0  0  0  2  0  0  0  0  0  0
  188.3660  178.1190  145.9670 C   0  0  0  0  0  2  0  0  0  0  0  0
  188.6980  176.7610  139.0290 C   0  0  2  0  0  3  0  0  0  0  0  0
  190.4940  178.9790  142.7800 C   0  0  0  0  0  1  0  0  0  0  0  0
  183.0080  178.1740  141.1390 C   0  0  0  0  0  2  0  0  0  0  0  0
  186.3360  177.5710  138.6290 C   0  0  1  0  0  3  0  0  0  0  0  0
  188.0330  177.2310  147.1650 C   0  0  0  0  0  2  0  0  0  0  0  0
  184.5200  178.0000  141.1400 C   0  0  0  0  0  2  0  0  0  0  0  0
  188.3220  177.9770  143.4800 C   0  0  1  0  0  3  0  0  0  0  0  0
  189.8500  175.7340  142.7620 O   0  0  0  0  0  0  0  0  0  0  0  0
  185.2800  178.6660  138.8220 C   0  0  1  0  0  3  0  0  0  0  0  0
  189.3220  178.1350  142.2830 C   0  0  1  0  0  0  0  0  0  0  0  0
  187.5890  178.3630  140.6860 C   0  0  1  0  0  3  0  0  0  0  0  0
  190.0910  177.2090  138.5920 C   0  0  0  0  0  2  0  0  0  0  0  0
  189.2750  176.5440  147.7380 C   0  0  2  0  0  3  0  0  0  0  0  0
  187.1520  177.3130  143.1040 O   0  0  0  0  0  1  0  0  0  0  0  0
  190.8470  176.0240  143.7110 C   0  0  0  0  0  2  0  0  0  0  0  0
  182.7900  178.3490  138.6760 C   0  0  0  0  0  0  0  0  0  0  0  0
  186.5410  179.4670  140.8480 C   0  0  0  0  0  2  0  0  0  0  0  0
  182.5330  178.8300  139.9640 O   0  0  0  0  0  0  0  0  0  0  0  0
  188.1960  175.7290  138.0150 C   0  0  0  0  0  2  0  0  0  0  0  0
  191.0890  176.7640  140.8860 C   0  0  0  0  0  2  0  0  0  0  0  0
  190.9450  177.7520  139.7300 C   0  0  0  0  0  2  0  0  0  0  0  0
  190.2370  177.4980  148.1230 O   0  0  0  0  0  0  0  0  0  0  0  0
  186.4430  177.1470  137.1520 C   0  0  0  0  0  2  0  0  0  0  0  0
  189.8370  176.7520  141.7830 C   0  0  1  0  0  3  0  0  0  0  0  0
  180.1020  176.2090  136.8670 C   0  0  0  0  0  0  0  0  0  0  0  0
  181.0560  174.9590  139.8620 C   0  0  0  0  0  1  0  0  0  0  0  0
  181.6470  177.9430  137.8270 C   0  0  0  0  0  0  0  0  0  0  0  0
  180.8220  176.6890  138.1020 C   0  0  2  0  0  3  0  0  0  0  0  0
  181.2570  178.7800  136.8550 C   0  0  0  0  0  3  0  0  0  0  0  0
  180.0190  178.5300  136.0390 C   0  0  2  0  0  3  0  0  0  0  0  0
  178.9320  179.1030  136.6730 F   0  0  0  0  0  0  0  0  0  0  0  0
  180.0520  174.4320  136.6830 S   0  0  0  0  0  0  0  0  0  0  0  0
  181.6890  174.4530  137.4620 C   0  0  1  0  0  3  0  0  0  0  0  0
  181.6670  175.5060  138.5790 C   0  0  2  0  0  3  0  0  0  0  0  0
  179.7750  177.0560  135.8710 C   0  0  0  0  0  0  0  0  0  0  0  0
  179.1710  176.5710  134.5940 C   0  0  0  0  0  1  0  0  0  0  0  0
  181.2090  172.3060  137.2280 C   0  0  0  0  0  1  0  0  0  0  0  0
  182.0240  173.1840  137.9430 O   0  0  0  0  0  0  0  0  0  0  0  0
  1 27  2  0  0  0  0
  1 20  1  0  0  0  0
  2 26  1  6  0  0  0
  2  3  1  0  0  0  0
  3  7  1  0  0  0  0
  3  8  1  1  0  0  0
  4 22  1  0  0  0  0
  5 28  1  0  0  0  0
  5 17  1  0  0  0  0
  6 21  1  0  0  0  0
  7 24  1  0  0  0  0
  8 33  1  0  0  0  0
  9  2  1  0  0  0  0
  9 11  1  0  0  0  0
 10 34  1  0  0  0  0
 10 30  1  0  0  0  0
 11 16  1  0  0  0  0
 12  4  1  0  0  0  0
 14 17  1  0  0  0  0
 15 20  1  0  0  0  0
 15  4  1  0  0  0  0
 16 24  1  0  0  0  0
 18  9  1  0  0  0  0
 19 26  1  0  0  0  0
 20  5  1  0  0  0  0
 21 13  1  0  0  0  0
 21 18  1  0  0  0  0
 22 28  1  0  0  0  0
 22  6  1  0  0  0  0
 23 12  1  0  0  0  0
 23 32  1  0  0  0  0
 24 33  1  0  0  0  0
 25 18  1  0  0  0  0
 27 29  1  0  0  0  0
 29 14  1  0  0  0  0
 30 12  1  0  0  0  0
 31 35  1  0  0  0  0
 32 31  1  0  0  0  0
 34 15  1  0  0  0  0
 35 21  1  0  0  0  0
 35 19  1  0  0  0  0
 36 39  1  0  0  0  0
 38 39  1  0  0  0  0
 38 27  1  0  0  0  0
 39 45  1  0  0  0  0
 40 38  2  0  0  0  0
 41 42  1  0  0  0  0
 41 40  1  0  0  0  0
 43 36  1  0  0  0  0
 43 44  1  0  0  0  0
 44 49  1  0  0  0  0
 44 45  1  0  0  0  0
 45 37  1  0  0  0  0
 46 41  1  0  0  0  0
 46 36  2  0  0  0  0
 47 46  1  0  0  0  0
 48 49  1  0  0  0  0
M  END
>  <MODEL>
1

>  <REMARK>
 VINA RESULT:      -7.5      0.000      0.000
  Name = 
  2 active torsions:
  status: ('A' for Active; 'I' for Inactive)
    1  A    between atoms: C_10  and  C_37
    2  A    between atoms: O_27  and  C_43
                            x       y       z     vdW  Elec       q    Type
                         _______ _______ _______ _____ _____    ______ ____

>  <TORSDO>
F 2

$$$$
=
 OpenBabel11062411013D

 49 57  0  0  1  0  0  0  0  0999 V2000
  184.3700  178.0960  138.0670 N   0  0  0  0  0  0  0  0  0  0  0  0
  190.0730  177.1330  145.3050 C   0  0  2  0  0  3  0  0  0  0  0  0
  190.4320  176.5950  146.6990 C   0  0  2  0  0  3  0  0  0  0  0  0
  187.9760  177.9440  139.4190 C   0  0  1  0  0  3  0  0  0  0  0  0
  185.3030  179.0030  140.2350 C   0  0  2  0  0  3  0  0  0  0  0  0
  188.8220  178.9490  141.4810 O   0  0  0  0  0  0  0  0  0  0  0  0
  189.3830  175.8530  147.2370 O   0  0  0  0  0  0  0  0  0  0  0  0
  190.6900  177.7200  147.6580 C   0  0  0  0  0  2  0  0  0  0  0  0
  188.5620  177.4330  145.0850 C   0  0  1  0  0  3  0  0  0  0  0  0
  188.2140  176.3600  137.0930 N   0  0  0  0  0  2  0  0  0  0  0  0
  187.9480  178.2620  146.2100 C   0  0  0  0  0  2  0  0  0  0  0  0
  189.0050  176.7840  139.3700 C   0  0  2  0  0  3  0  0  0  0  0  0
  190.3500  179.1340  143.2280 C   0  0  0  0  0  1  0  0  0  0  0  0
  183.0910  178.0400  140.8830 C   0  0  0  0  0  2  0  0  0  0  0  0
  186.6680  177.5050  138.7230 C   0  0  1  0  0  3  0  0  0  0  0  0
  187.5290  177.3850  147.3900 C   0  0  0  0  0  2  0  0  0  0  0  0
  184.6010  177.9180  141.0350 C   0  0  0  0  0  2  0  0  0  0  0  0
  188.1540  178.0700  143.7350 C   0  0  1  0  0  3  0  0  0  0  0  0
  189.8170  175.8690  143.2190 O   0  0  0  0  0  0  0  0  0  0  0  0
  185.5630  178.5660  138.7880 C   0  0  1  0  0  3  0  0  0  0  0  0
  189.2610  178.2400  142.6380 C   0  0  1  0  0  0  0  0  0  0  0  0
  187.6870  178.3780  140.8750 C   0  0  1  0  0  3  0  0  0  0  0  0
  190.4180  177.2730  139.0600 C   0  0  0  0  0  2  0  0  0  0  0  0
  188.7310  176.7530  148.0960 C   0  0  2  0  0  3  0  0  0  0  0  0
  187.0490  177.3600  143.2610 O   0  0  0  0  0  1  0  0  0  0  0  0
  190.7060  176.2110  144.2540 C   0  0  0  0  0  2  0  0  0  0  0  0
  183.1110  178.1600  138.4070 C   0  0  0  0  0  0  0  0  0  0  0  0
  186.5930  179.4480  140.9090 C   0  0  0  0  0  2  0  0  0  0  0  0
  182.7140  178.6560  139.6530 O   0  0  0  0  0  0  0  0  0  0  0  0
  188.6380  175.7170  138.3340 C   0  0  0  0  0  2  0  0  0  0  0  0
  191.2000  176.9050  141.4500 C   0  0  0  0  0  2  0  0  0  0  0  0
  191.1390  177.8660  140.2640 C   0  0  0  0  0  2  0  0  0  0  0  0
  189.6180  177.7460  148.5520 O   0  0  0  0  0  0  0  0  0  0  0  0
  186.9330  177.0570  137.2740 C   0  0  0  0  0  2  0  0  0  0  0  0
  189.8670  176.8680  142.2210 C   0  0  1  0  0  3  0  0  0  0  0  0
  180.0130  176.3690  136.9000 C   0  0  0  0  0  0  0  0  0  0  0  0
  179.7000  177.1100  140.1850 C   0  0  0  0  0  1  0  0  0  0  0  0
  182.0710  177.6990  137.4600 C   0  0  0  0  0  0  0  0  0  0  0  0
  180.6800  177.2650  137.9130 C   0  0  2  0  0  3  0  0  0  0  0  0
  182.3310  177.7860  136.1470 C   0  0  0  0  0  3  0  0  0  0  0  0
  181.2880  177.4850  135.1070 C   0  0  2  0  0  3  0  0  0  0  0  0
  180.5810  178.6400  134.8240 F   0  0  0  0  0  0  0  0  0  0  0  0
  179.0670  175.0270  137.6050 S   0  0  0  0  0  0  0  0  0  0  0  0
  180.3300  175.0160  138.9060 C   0  0  1  0  0  3  0  0  0  0  0  0
  180.6940  176.4740  139.2230 C   0  0  2  0  0  3  0  0  0  0  0  0
  180.3350  176.4270  135.5920 C   0  0  0  0  0  0  0  0  0  0  0  0
  179.7700  175.4630  134.6000 C   0  0  0  0  0  1  0  0  0  0  0  0
  178.9840  173.3780  139.5360 C   0  0  0  0  0  1  0  0  0  0  0  0
  179.8720  174.3310  140.0350 O   0  0  0  0  0  0  0  0  0  0  0  0
  1 27  2  0  0  0  0
  1 20  1  0  0  0  0
  2 26  1  6  0  0  0
  2  3  1  0  0  0  0
  3  7  1  0  0  0  0
  3  8  1  1  0  0  0
  4 22  1  0  0  0  0
  5 28  1  0  0  0  0
  5 17  1  0  0  0  0
  6 21  1  0  0  0  0
  7 24  1  0  0  0  0
  8 33  1  0  0  0  0
  9  2  1  0  0  0  0
  9 11  1  0  0  0  0
 10 34  1  0  0  0  0
 10 30  1  0  0  0  0
 11 16  1  0  0  0  0
 12  4  1  0  0  0  0
 14 17  1  0  0  0  0
 15 20  1  0  0  0  0
 15  4  1  0  0  0  0
 16 24  1  0  0  0  0
 18  9  1  0  0  0  0
 19 26  1  0  0  0  0
 20  5  1  0  0  0  0
 21 13  1  0  0  0  0
 21 18  1  0  0  0  0
 22 28  1  0  0  0  0
 22  6  1  0  0  0  0
 23 12  1  0  0  0  0
 23 32  1  0  0  0  0
 24 33  1  0  0  0  0
 25 18  1  0  0  0  0
 27 29  1  0  0  0  0
 29 14  1  0  0  0  0
 30 12  1  0  0  0  0
 31 35  1  0  0  0  0
 32 31  1  0  0  0  0
 34 15  1  0  0  0  0
 35 21  1  0  0  0  0
 35 19  1  0  0  0  0
 36 43  1  0  0  0  0
 36 39  1  0  0  0  0
 38 39  1  0  0  0  0
 38 27  1  0  0  0  0
 39 45  1  0  0  0  0
 40 38  2  0  0  0  0
 41 46  1  0  0  0  0
 41 40  1  0  0  0  0
 42 41  1  0  0  0  0
 43 44  1  0  0  0  0
 44 45  1  0  0  0  0
 44 49  1  0  0  0  0
 45 37  1  0  0  0  0
 46 36  2  0  0  0  0
 47 46  1  0  0  0  0
 48 49  1  0  0  0  0
M  END
>  <MODEL>
2

>  <REMARK>
 VINA RESULT:      -7.5      1.058      1.117
  Name = 
  2 active torsions:
  status: ('A' for Active; 'I' for Inactive)
    1  A    between atoms: C_10  and  C_37
    2  A    between atoms: O_27  and  C_43
                            x       y       z     vdW  Elec       q    Type
                         _______ _______ _______ _____ _____    ______ ____

>  <TORSDO>
F 2

$$$$
=
 OpenBabel11062411013D

 49 57  0  0  1  0  0  0  0  0999 V2000
  184.8490  177.9810  137.9900 N   0  0  0  0  0  0  0  0  0  0  0  0
  190.0650  177.2050  145.6080 C   0  0  2  0  0  3  0  0  0  0  0  0
  190.3360  176.6940  147.0310 C   0  0  2  0  0  3  0  0  0  0  0  0
  188.3580  177.8960  139.5820 C   0  0  1  0  0  3  0  0  0  0  0  0
  185.6240  178.9340  140.2000 C   0  0  2  0  0  3  0  0  0  0  0  0
  189.0530  178.9440  141.6780 O   0  0  0  0  0  0  0  0  0  0  0  0
  189.2620  175.9470  147.5100 O   0  0  0  0  0  0  0  0  0  0  0  0
  190.5160  177.8380  147.9860 C   0  0  0  0  0  2  0  0  0  0  0  0
  188.5690  177.4820  145.2820 C   0  0  1  0  0  3  0  0  0  0  0  0
  188.7700  176.2780  137.3040 N   0  0  0  0  0  2  0  0  0  0  0  0
  187.8720  178.3210  146.3500 C   0  0  0  0  0  2  0  0  0  0  0  0
  189.4010  176.7490  139.6210 C   0  0  2  0  0  3  0  0  0  0  0  0
  190.4580  179.1770  143.5210 C   0  0  0  0  0  1  0  0  0  0  0  0
  183.3850  177.9530  140.7140 C   0  0  0  0  0  2  0  0  0  0  0  0
  187.1040  177.4290  138.8080 C   0  0  1  0  0  3  0  0  0  0  0  0
  187.3850  177.4580  147.5130 C   0  0  0  0  0  2  0  0  0  0  0  0
  184.8830  177.8520  140.9690 C   0  0  0  0  0  2  0  0  0  0  0  0
  188.2440  178.0930  143.8970 C   0  0  1  0  0  3  0  0  0  0  0  0
  189.9650  175.9050  143.5300 O   0  0  0  0  0  0  0  0  0  0  0  0
  185.9860  178.4780  138.7810 C   0  0  1  0  0  3  0  0  0  0  0  0
  189.4210  178.2600  142.8740 C   0  0  1  0  0  0  0  0  0  0  0  0
  187.9670  178.3490  141.0080 C   0  0  1  0  0  3  0  0  0  0  0  0
  190.8260  177.2510  139.3980 C   0  0  0  0  0  2  0  0  0  0  0  0
  188.5430  176.8520  148.3090 C   0  0  2  0  0  3  0  0  0  0  0  0
  187.1820  177.3610  143.3630 O   0  0  0  0  0  1  0  0  0  0  0  0
  190.7780  176.2750  144.6160 C   0  0  0  0  0  2  0  0  0  0  0  0
  183.5700  178.0340  138.2440 C   0  0  0  0  0  0  0  0  0  0  0  0
  186.8600  179.4060  140.9510 C   0  0  0  0  0  2  0  0  0  0  0  0
  183.0840  178.5450  139.4520 O   0  0  0  0  0  0  0  0  0  0  0  0
  189.1180  175.6610  138.5810 C   0  0  0  0  0  2  0  0  0  0  0  0
  191.4510  176.9310  141.8410 C   0  0  0  0  0  2  0  0  0  0  0  0
  191.4570  177.8720  140.6380 C   0  0  0  0  0  2  0  0  0  0  0  0
  189.3870  177.8640  148.8060 O   0  0  0  0  0  0  0  0  0  0  0  0
  187.4720  176.9620  137.3870 C   0  0  0  0  0  2  0  0  0  0  0  0
  190.0690  176.8880  142.5220 C   0  0  1  0  0  3  0  0  0  0  0  0
  180.4590  177.7500  135.9380 C   0  0  0  0  0  0  0  0  0  0  0  0
  181.3620  180.9350  136.6280 C   0  0  0  0  0  1  0  0  0  0  0  0
  182.6000  177.5450  137.2370 C   0  0  0  0  0  0  0  0  0  0  0  0
  181.6640  178.4800  136.4760 C   0  0  2  0  0  3  0  0  0  0  0  0
  182.6400  176.2470  136.9020 C   0  0  0  0  0  3  0  0  0  0  0  0
  181.8020  175.6870  135.7870 C   0  0  2  0  0  3  0  0  0  0  0  0
  182.4980  175.7930  134.5970 F   0  0  0  0  0  0  0  0  0  0  0  0
  178.9310  178.6710  136.0340 S   0  0  0  0  0  0  0  0  0  0  0  0
  179.6140  179.3600  137.5660 C   0  0  1  0  0  3  0  0  0  0  0  0
  181.1120  179.6140  137.3420 C   0  0  2  0  0  3  0  0  0  0  0  0
  180.5000  176.4300  135.6680 C   0  0  0  0  0  0  0  0  0  0  0  0
  179.2800  175.6750  135.2500 C   0  0  0  0  0  1  0  0  0  0  0  0
  178.9430  180.5170  139.3270 C   0  0  0  0  0  1  0  0  0  0  0  0
  178.9330  180.5240  137.9320 O   0  0  0  0  0  0  0  0  0  0  0  0
  1 27  2  0  0  0  0
  1 20  1  0  0  0  0
  2 26  1  6  0  0  0
  2  3  1  0  0  0  0
  3  7  1  0  0  0  0
  3  8  1  1  0  0  0
  4 12  1  0  0  0  0
  4 22  1  0  0  0  0
  5 28  1  0  0  0  0
  5 17  1  0  0  0  0
  6 21  1  0  0  0  0
  7 24  1  0  0  0  0
  8 33  1  0  0  0  0
  9  2  1  0  0  0  0
  9 11  1  0  0  0  0
 10 34  1  0  0  0  0
 10 30  1  0  0  0  0
 11 16  1  0  0  0  0
 14 17  1  0  0  0  0
 15  4  1  0  0  0  0
 16 24  1  0  0  0  0
 18  9  1  0  0  0  0
 19 26  1  0  0  0  0
 20 15  1  0  0  0  0
 20  5  1  0  0  0  0
 21 13  1  0  0  0  0
 21 18  1  0  0  0  0
 22  6  1  0  0  0  0
 23 12  1  0  0  0  0
 23 32  1  0  0  0  0
 24 33  1  0  0  0  0
 25 18  1  0  0  0  0
 27 29  1  0  0  0  0
 28 22  1  0  0  0  0
 29 14  1  0  0  0  0
 30 12  1  0  0  0  0
 31 35  1  0  0  0  0
 32 31  1  0  0  0  0
 34 15  1  0  0  0  0
 35 21  1  0  0  0  0
 35 19  1  0  0  0  0
 36 43  1  0  0  0  0
 36 39  1  0  0  0  0
 37 45  1  0  0  0  0
 38 27  1  0  0  0  0
 39 38  1  0  0  0  0
 39 45  1  0  0  0  0
 40 38  2  0  0  0  0
 41 40  1  0  0  0  0
 42 41  1  0  0  0  0
 43 44  1  0  0  0  0
 44 49  1  0  0  0  0
 45 44  1  0  0  0  0
 46 41  1  0  0  0  0
 46 36  2  0  0  0  0
 47 46  1  0  0  0  0
 49 48  1  0  0  0  0
M  END
>  <MODEL>
3

>  <REMARK>
 VINA RESULT:      -7.2      1.751      2.631
  Name = 
  2 active torsions:
  status: ('A' for Active; 'I' for Inactive)
    1  A    between atoms: C_10  and  C_37
    2  A    between atoms: O_27  and  C_43
                            x       y       z     vdW  Elec       q    Type
                         _______ _______ _______ _____ _____    ______ ____

>  <TORSDO>
F 2

$$$$
=
 OpenBabel11062411013D

 49 57  0  0  1  0  0  0  0  0999 V2000
  190.5650  176.1320  137.2640 N   0  0  0  0  0  0  0  0  0  0  0  0
  181.7080  177.8370  139.3860 C   0  0  2  0  0  3  0  0  0  0  0  0
  180.2260  177.4420  139.4820 C   0  0  2  0  0  3  0  0  0  0  0  0
  188.0060  178.0080  139.4540 C   0  0  1  0  0  3  0  0  0  0  0  0
  188.3250  177.1130  136.6200 C   0  0  2  0  0  3  0  0  0  0  0  0
  185.9080  179.0270  138.7250 O   0  0  0  0  0  0  0  0  0  0  0  0
  180.0170  176.1520  138.9990 O   0  0  0  0  0  0  0  0  0  0  0  0
  179.3740  178.3510  138.6460 C   0  0  0  0  0  2  0  0  0  0  0  0
  182.4860  177.1890  138.2040 C   0  0  1  0  0  3  0  0  0  0  0  0
  189.8970  177.2240  141.4000 N   0  0  0  0  0  2  0  0  0  0  0  0
  181.7560  177.3170  136.8690 C   0  0  0  0  0  2  0  0  0  0  0  0
  187.5520  177.7250  140.9100 C   0  0  2  0  0  3  0  0  0  0  0  0
  183.7630  179.8580  139.0910 C   0  0  0  0  0  1  0  0  0  0  0  0
  188.4040  174.9320  135.4050 C   0  0  0  0  0  2  0  0  0  0  0  0
  189.0680  176.9660  139.0320 C   0  0  1  0  0  3  0  0  0  0  0  0
  180.7120  176.2150  136.6920 C   0  0  0  0  0  2  0  0  0  0  0  0
  187.7100  175.7280  136.5010 C   0  0  0  0  0  2  0  0  0  0  0  0
  183.9560  177.6270  137.9960 C   0  0  1  0  0  3  0  0  0  0  0  0
  183.5890  176.9740  140.7020 O   0  0  0  0  0  0  0  0  0  0  0  0
  189.5240  177.1240  137.5770 C   0  0  1  0  0  3  0  0  0  0  0  0
  184.5970  178.5790  139.0650 C   0  0  1  0  0  0  0  0  0  0  0  0
  186.8100  177.9750  138.4760 C   0  0  1  0  0  3  0  0  0  0  0  0
  187.3910  179.0040  141.7280 C   0  0  0  0  0  2  0  0  0  0  0  0
  179.5560  176.3480  137.6860 C   0  0  2  0  0  3  0  0  0  0  0  0
  184.7090  176.4660  137.8070 O   0  0  0  0  0  1  0  0  0  0  0  0
  182.3520  177.6390  140.7650 C   0  0  0  0  0  2  0  0  0  0  0  0
  190.7060  175.3750  136.2100 C   0  0  0  0  0  0  0  0  0  0  0  0
  187.2910  178.1500  137.0330 C   0  0  0  0  0  2  0  0  0  0  0  0
  189.7490  175.3550  135.1900 O   0  0  0  0  0  0  0  0  0  0  0  0
  188.5210  176.8060  141.6610 C   0  0  0  0  0  2  0  0  0  0  0  0
  184.8540  178.8640  141.6740 C   0  0  0  0  0  2  0  0  0  0  0  0
  186.0850  179.7420  141.4590 C   0  0  0  0  0  2  0  0  0  0  0  0
  178.9310  177.6030  137.5550 O   0  0  0  0  0  0  0  0  0  0  0  0
  190.2660  176.9730  140.0000 C   0  0  0  0  0  2  0  0  0  0  0  0
  184.6110  177.9230  140.4780 C   0  0  1  0  0  3  0  0  0  0  0  0
  194.3920  174.1730  135.9990 C   0  0  0  0  0  0  0  0  0  0  0  0
  193.9530  176.9000  137.9520 C   0  0  0  0  0  1  0  0  0  0  0  0
  191.9030  174.5140  136.0800 C   0  0  0  0  0  0  0  0  0  0  0  0
  193.2540  174.8870  136.6850 C   0  0  2  0  0  3  0  0  0  0  0  0
  191.7530  173.3080  135.5130 C   0  0  0  0  0  3  0  0  0  0  0  0
  192.8720  172.3040  135.4700 C   0  0  2  0  0  3  0  0  0  0  0  0
  192.8340  171.5310  136.6150 F   0  0  0  0  0  0  0  0  0  0  0  0
  195.8610  175.1650  135.7730 S   0  0  0  0  0  0  0  0  0  0  0  0
  194.7130  176.5520  135.5600 C   0  0  1  0  0  3  0  0  0  0  0  0
  193.5710  176.3800  136.5720 C   0  0  2  0  0  3  0  0  0  0  0  0
  194.2060  172.9910  135.3780 C   0  0  0  0  0  0  0  0  0  0  0  0
  195.2960  172.3350  134.5940 C   0  0  0  0  0  1  0  0  0  0  0  0
  196.2520  177.8430  134.6350 C   0  0  0  0  0  1  0  0  0  0  0  0
  195.3760  177.7720  135.7190 O   0  0  0  0  0  0  0  0  0  0  0  0
  1 20  1  0  0  0  0
  2  3  1  0  0  0  0
  2 26  1  1  0  0  0
  3  8  1  6  0  0  0
  4 12  1  0  0  0  0
  5 28  1  0  0  0  0
  5 20  1  0  0  0  0
  6 21  1  0  0  0  0
  7  3  1  0  0  0  0
  9  2  1  0  0  0  0
 10 30  1  0  0  0  0
 11  9  1  0  0  0  0
 12 30  1  0  0  0  0
 12 23  1  0  0  0  0
 14 17  1  0  0  0  0
 15  4  1  0  0  0  0
 15 34  1  0  0  0  0
 16 11  1  0  0  0  0
 16 24  1  0  0  0  0
 17  5  1  0  0  0  0
 18  9  1  0  0  0  0
 18 21  1  0  0  0  0
 19 26  1  0  0  0  0
 20 15  1  0  0  0  0
 21 13  1  0  0  0  0
 21 35  1  0  0  0  0
 22  6  1  0  0  0  0
 22  4  1  0  0  0  0
 24  7  1  0  0  0  0
 25 18  1  0  0  0  0
 27  1  2  0  0  0  0
 28 22  1  0  0  0  0
 29 14  1  0  0  0  0
 29 27  1  0  0  0  0
 32 31  1  0  0  0  0
 32 23  1  0  0  0  0
 33 24  1  0  0  0  0
 33  8  1  0  0  0  0
 34 10  1  0  0  0  0
 35 19  1  0  0  0  0
 35 31  1  0  0  0  0
 36 39  1  0  0  0  0
 38 27  1  0  0  0  0
 38 39  1  0  0  0  0
 40 38  2  0  0  0  0
 41 40  1  0  0  0  0
 41 42  1  0  0  0  0
 43 36  1  0  0  0  0
 44 49  1  0  0  0  0
 44 43  1  0  0  0  0
 44 45  1  0  0  0  0
 45 39  1  0  0  0  0
 45 37  1  0  0  0  0
 46 41  1  0  0  0  0
 46 36  2  0  0  0  0
 47 46  1  0  0  0  0
 48 49  1  0  0  0  0
M  END
>  <MODEL>
4

>  <REMARK>
 VINA RESULT:      -7.1      4.835     10.268
  Name = 
  2 active torsions:
  status: ('A' for Active; 'I' for Inactive)
    1  A    between atoms: C_10  and  C_37
    2  A    between atoms: O_27  and  C_43
                            x       y       z     vdW  Elec       q    Type
                         _______ _______ _______ _____ _____    ______ ____

>  <TORSDO>
F 2

$$$$
=
 OpenBabel11062411013D

 49 57  0  0  1  0  0  0  0  0999 V2000
  188.4530  178.1110  141.6800 N   0  0  0  0  0  0  0  0  0  0  0  0
  193.1410  173.1410  135.4210 C   0  0  2  0  0  3  0  0  0  0  0  0
  193.8620  171.8690  134.9500 C   0  0  2  0  0  3  0  0  0  0  0  0
  189.2060  177.3460  137.9780 C   0  0  1  0  0  3  0  0  0  0  0  0
  190.6520  177.5080  140.5890 C   0  0  2  0  0  3  0  0  0  0  0  0
  191.3890  176.8810  136.9820 O   0  0  0  0  0  0  0  0  0  0  0  0
  193.8690  170.8960  135.9470 O   0  0  0  0  0  0  0  0  0  0  0  0
  195.2990  172.1560  134.6280 C   0  0  0  0  0  2  0  0  0  0  0  0
  193.2420  173.4280  136.9480 C   0  0  1  0  0  3  0  0  0  0  0  0
  186.3920  177.5880  137.9090 N   0  0  0  0  0  2  0  0  0  0  0  0
  194.6700  173.3320  137.4780 C   0  0  0  0  0  2  0  0  0  0  0  0
  188.3800  176.5330  136.9460 C   0  0  2  0  0  3  0  0  0  0  0  0
  192.7750  176.0140  135.3240 C   0  0  0  0  0  1  0  0  0  0  0  0
  190.6700  176.2300  142.7340 C   0  0  0  0  0  2  0  0  0  0  0  0
  188.4620  177.3680  139.3330 C   0  0  1  0  0  3  0  0  0  0  0  0
  195.0550  171.8880  137.7970 C   0  0  0  0  0  2  0  0  0  0  0  0
  190.6280  176.1230  141.2160 C   0  0  0  0  0  2  0  0  0  0  0  0
  192.6200  174.7470  137.4650 C   0  0  1  0  0  3  0  0  0  0  0  0
  190.7420  173.4530  135.8280 O   0  0  0  0  0  0  0  0  0  0  0  0
  189.2410  178.0910  140.4380 C   0  0  1  0  0  3  0  0  0  0  0  0
  191.8150  175.6290  136.4490 C   0  0  1  0  0  0  0  0  0  0  0  0
  190.6230  176.7540  138.1570 C   0  0  1  0  0  3  0  0  0  0  0  0
  188.3700  177.1860  135.5660 C   0  0  0  0  0  2  0  0  0  0  0  0
  195.1380  171.0200  136.5380 C   0  0  2  0  0  3  0  0  0  0  0  0
  191.8660  174.4310  138.5970 O   0  0  0  0  0  1  0  0  0  0  0  0
  191.7100  173.1200  134.8640 C   0  0  0  0  0  2  0  0  0  0  0  0
  188.8260  177.8770  142.9080 C   0  0  0  0  0  0  0  0  0  0  0  0
  191.3830  177.5030  139.2540 C   0  0  0  0  0  2  0  0  0  0  0  0
  190.1260  177.4590  143.2120 O   0  0  0  0  0  0  0  0  0  0  0  0
  186.9260  176.3330  137.3830 C   0  0  0  0  0  2  0  0  0  0  0  0
  189.9480  175.4450  134.5960 C   0  0  0  0  0  2  0  0  0  0  0  0
  189.6370  176.9320  134.7590 C   0  0  0  0  0  2  0  0  0  0  0  0
  196.0680  171.5560  135.6270 O   0  0  0  0  0  0  0  0  0  0  0  0
  187.0420  177.9440  139.1780 C   0  0  0  0  0  2  0  0  0  0  0  0
  190.5950  174.8580  135.8650 C   0  0  1  0  0  3  0  0  0  0  0  0
  187.2590  178.0630  146.4570 C   0  0  0  0  0  0  0  0  0  0  0  0
  190.5420  178.8700  146.3680 C   0  0  0  0  0  1  0  0  0  0  0  0
  187.8590  178.0550  144.0160 C   0  0  0  0  0  0  0  0  0  0  0  0
  188.2880  178.4540  145.4250 C   0  0  2  0  0  3  0  0  0  0  0  0
  186.5520  177.9790  143.7290 C   0  0  0  0  0  3  0  0  0  0  0  0
  185.4930  178.2930  144.7500 C   0  0  2  0  0  3  0  0  0  0  0  0
  185.2040  179.6450  144.7060 F   0  0  0  0  0  0  0  0  0  0  0  0
  187.9410  177.4590  147.9930 S   0  0  0  0  0  0  0  0  0  0  0  0
  189.2630  176.7660  146.9630 C   0  0  1  0  0  3  0  0  0  0  0  0
  189.5940  177.7890  145.8670 C   0  0  2  0  0  3  0  0  0  0  0  0
  185.9570  177.9300  146.1330 C   0  0  0  0  0  0  0  0  0  0  0  0
  184.9510  177.4260  147.1170 C   0  0  0  0  0  1  0  0  0  0  0  0
  191.3160  175.9540  146.8310 C   0  0  0  0  0  1  0  0  0  0  0  0
  190.3800  176.4470  147.7400 O   0  0  0  0  0  0  0  0  0  0  0  0
  1 27  2  0  0  0  0
  2 26  1  1  0  0  0
  2  9  1  0  0  0  0
  3  8  1  1  0  0  0
  3  2  1  0  0  0  0
  3  7  1  0  0  0  0
  4 22  1  0  0  0  0
  4 15  1  0  0  0  0
  5 17  1  0  0  0  0
  6 22  1  0  0  0  0
  7 24  1  0  0  0  0
  8 33  1  0  0  0  0
  9 18  1  0  0  0  0
  9 11  1  0  0  0  0
 10 34  1  0  0  0  0
 11 16  1  0  0  0  0
 12 30  1  0  0  0  0
 12  4  1  0  0  0  0
 13 21  1  0  0  0  0
 14 29  1  0  0  0  0
 15 20  1  0  0  0  0
 17 14  1  0  0  0  0
 18 25  1  0  0  0  0
 19 35  1  0  0  0  0
 20  5  1  0  0  0  0
 20  1  1  0  0  0  0
 21  6  1  0  0  0  0
 21 18  1  0  0  0  0
 22 28  1  0  0  0  0
 23 12  1  0  0  0  0
 24 16  1  0  0  0  0
 26 19  1  0  0  0  0
 27 29  1  0  0  0  0
 27 38  1  0  0  0  0
 28  5  1  0  0  0  0
 30 10  1  0  0  0  0
 31 32  1  0  0  0  0
 31 35  1  0  0  0  0
 32 23  1  0  0  0  0
 33 24  1  0  0  0  0
 34 15  1  0  0  0  0
 35 21  1  0  0  0  0
 36 43  1  0  0  0  0
 38 39  1  0  0  0  0
 39 45  1  0  0  0  0
 39 36  1  0  0  0  0
 40 38  2  0  0  0  0
 40 41  1  0  0  0  0
 41 46  1  0  0  0  0
 42 41  1  0  0  0  0
 44 49  1  0  0  0  0
 44 43  1  0  0  0  0
 45 37  1  0  0  0  0
 45 44  1  0  0  0  0
 46 36  2  0  0  0  0
 46 47  1  0  0  0  0
 48 49  1  0  0  0  0
M  END
>  <MODEL>
5

>  <REMARK>
 VINA RESULT:      -6.9      4.836      9.377
  Name = 
  2 active torsions:
  status: ('A' for Active; 'I' for Inactive)
    1  A    between atoms: C_10  and  C_37
    2  A    between atoms: O_27  and  C_43
                            x       y       z     vdW  Elec       q    Type
                         _______ _______ _______ _____ _____    ______ ____

>  <TORSDO>
F 2

$$$$
=
 OpenBabel11062411013D

 49 57  0  0  1  0  0  0  0  0999 V2000
  191.1240  174.3380  135.9010 N   0  0  0  0  0  0  0  0  0  0  0  0
  181.9090  174.2790  136.8710 C   0  0  2  0  0  3  0  0  0  0  0  0
  180.5830  173.6150  137.2690 C   0  0  2  0  0  3  0  0  0  0  0  0
  187.8650  176.3050  136.5100 C   0  0  1  0  0  3  0  0  0  0  0  0
  188.8340  173.9880  134.8880 C   0  0  2  0  0  3  0  0  0  0  0  0
  185.7130  175.9720  135.4010 O   0  0  0  0  0  0  0  0  0  0  0  0
  180.7880  172.3170  137.7310 O   0  0  0  0  0  0  0  0  0  0  0  0
  179.6640  173.5030  136.0870 C   0  0  0  0  0  2  0  0  0  0  0  0
  183.0000  173.3040  136.3380 C   0  0  1  0  0  3  0  0  0  0  0  0
  189.5720  177.5040  138.4140 N   0  0  0  0  0  2  0  0  0  0  0  0
  182.4750  172.3520  135.2670 C   0  0  0  0  0  2  0  0  0  0  0  0
  187.2810  176.8710  137.8310 C   0  0  2  0  0  3  0  0  0  0  0  0
  183.3970  176.1690  135.2550 C   0  0  0  0  0  1  0  0  0  0  0  0
  189.6560  171.6740  135.3430 C   0  0  0  0  0  2  0  0  0  0  0  0
  189.2110  175.6010  136.7990 C   0  0  1  0  0  3  0  0  0  0  0  0
  181.7890  171.1340  135.8850 C   0  0  0  0  0  2  0  0  0  0  0  0
  188.6210  172.7280  135.7110 C   0  0  0  0  0  2  0  0  0  0  0  0
  184.3220  173.9270  135.8290 C   0  0  1  0  0  3  0  0  0  0  0  0
  183.7250  175.0260  138.3420 O   0  0  0  0  0  0  0  0  0  0  0  0
  189.8280  174.9450  135.5580 C   0  0  1  0  0  3  0  0  0  0  0  0
  184.5250  175.4710  136.0110 C   0  0  1  0  0  0  0  0  0  0  0  0
  186.8820  175.3200  135.8360 C   0  0  1  0  0  3  0  0  0  0  0  0
  186.6730  178.2590  137.6500 C   0  0  0  0  0  2  0  0  0  0  0  0
  180.5000  171.5070  136.6190 C   0  0  2  0  0  3  0  0  0  0  0  0
  185.3670  173.1890  136.3880 O   0  0  0  0  0  1  0  0  0  0  0  0
  182.3630  175.1830  138.0260 C   0  0  0  0  0  2  0  0  0  0  0  0
  191.6150  173.1760  135.5670 C   0  0  0  0  0  0  0  0  0  0  0  0
  187.5170  174.6920  134.5940 C   0  0  0  0  0  2  0  0  0  0  0  0
  190.8640  172.2440  134.8420 O   0  0  0  0  0  0  0  0  0  0  0  0
  188.3270  176.9560  138.9470 C   0  0  0  0  0  2  0  0  0  0  0  0
  184.2970  177.3750  137.8210 C   0  0  0  0  0  2  0  0  0  0  0  0
  185.2790  178.2420  137.0360 C   0  0  0  0  0  2  0  0  0  0  0  0
  179.6010  172.1510  135.7480 O   0  0  0  0  0  0  0  0  0  0  0  0
  190.2040  176.5600  137.4810 C   0  0  0  0  0  2  0  0  0  0  0  0
  184.4900  175.8770  137.5140 C   0  0  1  0  0  3  0  0  0  0  0  0
  195.3480  173.4430  136.6010 C   0  0  0  0  0  0  0  0  0  0  0  0
  193.4480  176.0350  137.6570 C   0  0  0  0  0  1  0  0  0  0  0  0
  192.9980  172.8230  135.9600 C   0  0  0  0  0  0  0  0  0  0  0  0
  193.8840  173.7570  136.7790 C   0  0  2  0  0  3  0  0  0  0  0  0
  193.4360  171.5860  135.6820 C   0  0  0  0  0  3  0  0  0  0  0  0
  194.7670  171.0850  136.1700 C   0  0  2  0  0  3  0  0  0  0  0  0
  194.6090  170.5160  137.4200 F   0  0  0  0  0  0  0  0  0  0  0  0
  196.4100  174.8780  136.5230 S   0  0  0  0  0  0  0  0  0  0  0  0
  195.0130  175.6850  135.6960 C   0  0  1  0  0  3  0  0  0  0  0  0
  193.7240  175.2300  136.3940 C   0  0  2  0  0  3  0  0  0  0  0  0
  195.7640  172.2070  136.2580 C   0  0  0  0  0  0  0  0  0  0  0  0
  197.1990  171.9150  135.9610 C   0  0  0  0  0  1  0  0  0  0  0  0
  195.9350  177.3670  134.5950 C   0  0  0  0  0  1  0  0  0  0  0  0
  195.1610  177.0740  135.7180 O   0  0  0  0  0  0  0  0  0  0  0  0
  2  3  1  0  0  0  0
  2 26  1  1  0  0  0
  3  8  1  6  0  0  0
  3  7  1  0  0  0  0
  4 15  1  0  0  0  0
  4 12  1  0  0  0  0
  5 20  1  0  0  0  0
  5 17  1  0  0  0  0
  6 22  1  0  0  0  0
  6 21  1  0  0  0  0
  9  2  1  0  0  0  0
 10 30  1  0  0  0  0
 11 16  1  0  0  0  0
 11  9  1  0  0  0  0
 12 30  1  0  0  0  0
 13 21  1  0  0  0  0
 14 17  1  0  0  0  0
 15 34  1  0  0  0  0
 16 24  1  0  0  0  0
 18 21  1  0  0  0  0
 18  9  1  0  0  0  0
 18 25  1  0  0  0  0
 20  1  1  0  0  0  0
 20 15  1  0  0  0  0
 21 35  1  0  0  0  0
 22  4  1  0  0  0  0
 23 12  1  0  0  0  0
 24  7  1  0  0  0  0
 26 19  1  0  0  0  0
 27  1  2  0  0  0  0
 27 38  1  0  0  0  0
 28  5  1  0  0  0  0
 28 22  1  0  0  0  0
 29 14  1  0  0  0  0
 29 27  1  0  0  0  0
 32 23  1  0  0  0  0
 32 31  1  0  0  0  0
 33  8  1  0  0  0  0
 33 24  1  0  0  0  0
 34 10  1  0  0  0  0
 35 31  1  0  0  0  0
 35 19  1  0  0  0  0
 36 39  1  0  0  0  0
 38 39  1  0  0  0  0
 40 38  2  0  0  0  0
 40 41  1  0  0  0  0
 41 46  1  0  0  0  0
 41 42  1  0  0  0  0
 43 36  1  0  0  0  0
 44 49  1  0  0  0  0
 44 45  1  0  0  0  0
 44 43  1  0  0  0  0
 45 39  1  0  0  0  0
 45 37  1  0  0  0  0
 46 36  2  0  0  0  0
 47 46  1  0  0  0  0
 48 49  1  0  0  0  0
M  END
>  <MODEL>
6

>  <REMARK>
 VINA RESULT:      -6.8      5.919     11.521
  Name = 
  2 active torsions:
  status: ('A' for Active; 'I' for Inactive)
    1  A    between atoms: C_10  and  C_37
    2  A    between atoms: O_27  and  C_43
                            x       y       z     vdW  Elec       q    Type
                         _______ _______ _______ _____ _____    ______ ____

>  <TORSDO>
F 2

$$$$
=
 OpenBabel11062411013D

 49 57  0  0  1  0  0  0  0  0999 V2000
  188.9400  178.0650  142.4760 N   0  0  0  0  0  0  0  0  0  0  0  0
  193.0830  173.4870  135.5680 C   0  0  2  0  0  3  0  0  0  0  0  0
  193.7000  172.2270  134.9420 C   0  0  2  0  0  3  0  0  0  0  0  0
  189.5260  177.6470  138.6890 C   0  0  1  0  0  3  0  0  0  0  0  0
  191.0590  177.4380  141.2470 C   0  0  2  0  0  3  0  0  0  0  0  0
  191.6400  177.1480  137.5700 O   0  0  0  0  0  0  0  0  0  0  0  0
  193.6720  171.1570  135.8330 O   0  0  0  0  0  0  0  0  0  0  0  0
  195.1440  172.4530  134.5970 C   0  0  0  0  0  2  0  0  0  0  0  0
  193.2500  173.6040  137.1110 C   0  0  1  0  0  3  0  0  0  0  0  0
  186.7350  178.0770  138.7510 N   0  0  0  0  0  2  0  0  0  0  0  0
  194.6830  173.3600  137.5750 C   0  0  0  0  0  2  0  0  0  0  0  0
  188.6150  177.0020  137.6110 C   0  0  2  0  0  3  0  0  0  0  0  0
  192.9130  176.3720  135.7810 C   0  0  0  0  0  1  0  0  0  0  0  0
  191.0540  175.9430  143.2470 C   0  0  0  0  0  2  0  0  0  0  0  0
  188.8270  177.5740  140.0660 C   0  0  1  0  0  3  0  0  0  0  0  0
  194.9790  171.8690  137.7280 C   0  0  0  0  0  2  0  0  0  0  0  0
  190.9580  176.0000  141.7290 C   0  0  0  0  0  2  0  0  0  0  0  0
  192.7360  174.8990  137.7850 C   0  0  1  0  0  3  0  0  0  0  0  0
  190.7250  173.9100  136.0940 O   0  0  0  0  0  0  0  0  0  0  0  0
  189.6870  178.1240  141.2100 C   0  0  1  0  0  3  0  0  0  0  0  0
  191.9630  175.9340  136.8950 C   0  0  1  0  0  0  0  0  0  0  0  0
  190.9030  176.9480  138.7530 C   0  0  1  0  0  3  0  0  0  0  0  0
  188.6080  177.7960  136.3070 C   0  0  0  0  0  2  0  0  0  0  0  0
  194.9630  171.1350  136.3850 C   0  0  2  0  0  3  0  0  0  0  0  0
  191.9970  174.5150  138.9060 O   0  0  0  0  0  1  0  0  0  0  0  0
  191.6380  173.6180  135.0660 C   0  0  0  0  0  2  0  0  0  0  0  0
  189.3340  177.6790  143.6590 C   0  0  0  0  0  0  0  0  0  0  0  0
  191.7470  177.5260  139.8920 C   0  0  0  0  0  2  0  0  0  0  0  0
  190.6110  177.1480  143.8690 O   0  0  0  0  0  0  0  0  0  0  0  0
  187.1650  176.8520  138.0790 C   0  0  0  0  0  2  0  0  0  0  0  0
  190.0320  176.0680  135.1050 C   0  0  0  0  0  2  0  0  0  0  0  0
  189.8290  177.5460  135.4310 C   0  0  0  0  0  2  0  0  0  0  0  0
  195.8990  171.7020  135.4990 O   0  0  0  0  0  0  0  0  0  0  0  0
  187.4460  178.2550  140.0240 C   0  0  0  0  0  2  0  0  0  0  0  0
  190.6760  175.3090  136.2810 C   0  0  1  0  0  3  0  0  0  0  0  0
  186.1600  178.2860  145.8140 C   0  0  0  0  0  0  0  0  0  0  0  0
  185.5010  177.1260  142.7060 C   0  0  0  0  0  1  0  0  0  0  0  0
  188.4150  177.8030  144.8150 C   0  0  0  0  0  0  0  0  0  0  0  0
  186.9070  177.6120  144.6890 C   0  0  2  0  0  3  0  0  0  0  0  0
  188.9530  177.9680  146.0320 C   0  0  0  0  0  3  0  0  0  0  0  0
  188.1160  177.9550  147.2800 C   0  0  2  0  0  3  0  0  0  0  0  0
  188.0070  176.6550  147.7410 F   0  0  0  0  0  0  0  0  0  0  0  0
  184.6330  179.0720  145.3240 S   0  0  0  0  0  0  0  0  0  0  0  0
  185.4870  179.4280  143.7640 C   0  0  1  0  0  3  0  0  0  0  0  0
  186.3310  178.1990  143.3980 C   0  0  2  0  0  3  0  0  0  0  0  0
  186.7410  178.5010  147.0110 C   0  0  0  0  0  0  0  0  0  0  0  0
  186.0540  179.2750  148.0900 C   0  0  0  0  0  1  0  0  0  0  0  0
  183.3310  179.3680  143.2730 C   0  0  0  0  0  1  0  0  0  0  0  0
  184.5700  179.7540  142.7610 O   0  0  0  0  0  0  0  0  0  0  0  0
  1 27  2  0  0  0  0
  2 26  1  1  0  0  0
  2  9  1  0  0  0  0
  3  8  1  1  0  0  0
  3  2  1  0  0  0  0
  3  7  1  0  0  0  0
  4 22  1  0  0  0  0
  4 15  1  0  0  0  0
  5 17  1  0  0  0  0
  6 22  1  0  0  0  0
  7 24  1  0  0  0  0
  8 33  1  0  0  0  0
  9 11  1  0  0  0  0
  9 18  1  0  0  0  0
 10 34  1  0  0  0  0
 11 16  1  0  0  0  0
 12 30  1  0  0  0  0
 12  4  1  0  0  0  0
 13 21  1  0  0  0  0
 14 29  1  0  0  0  0
 15 20  1  0  0  0  0
 17 14  1  0  0  0  0
 18 25  1  0  0  0  0
 19 35  1  0  0  0  0
 20  5  1  0  0  0  0
 20  1  1  0  0  0  0
 21  6  1  0  0  0  0
 21 18  1  0  0  0  0
 22 28  1  0  0  0  0
 23 12  1  0  0  0  0
 24 16  1  0  0  0  0
 26 19  1  0  0  0  0
 27 29  1  0  0  0  0
 27 38  1  0  0  0  0
 28  5  1  0  0  0  0
 30 10  1  0  0  0  0
 31 32  1  0  0  0  0
 31 35  1  0  0  0  0
 32 23  1  0  0  0  0
 33 24  1  0  0  0  0
 34 15  1  0  0  0  0
 35 21  1  0  0  0  0
 36 46  2  0  0  0  0
 37 45  1  0  0  0  0
 38 40  2  0  0  0  0
 39 38  1  0  0  0  0
 39 36  1  0  0  0  0
 40 41  1  0  0  0  0
 41 42  1  0  0  0  0
 43 36  1  0  0  0  0
 44 43  1  0  0  0  0
 45 44  1  0  0  0  0
 45 39  1  0  0  0  0
 46 41  1  0  0  0  0
 46 47  1  0  0  0  0
 49 48  1  0  0  0  0
 49 44  1  0  0  0  0
M  END
>  <MODEL>
7

>  <REMARK>
 VINA RESULT:      -6.6      4.848      9.079
  Name = 
  2 active torsions:
  status: ('A' for Active; 'I' for Inactive)
    1  A    between atoms: C_10  and  C_37
    2  A    between atoms: O_27  and  C_43
                            x       y       z     vdW  Elec       q    Type
                         _______ _______ _______ _____ _____    ______ ____

>  <TORSDO>
F 2

$$$$
=
 OpenBabel11062411013D

 49 57  0  0  1  0  0  0  0  0999 V2000
  189.6620  177.3580  138.0220 N   0  0  0  0  0  0  0  0  0  0  0  0
  180.8030  174.6610  137.7020 C   0  0  2  0  0  3  0  0  0  0  0  0
  179.6980  173.5960  137.7580 C   0  0  2  0  0  3  0  0  0  0  0  0
  185.9450  178.1890  138.6110 C   0  0  1  0  0  3  0  0  0  0  0  0
  187.6400  176.6920  136.6560 C   0  0  2  0  0  3  0  0  0  0  0  0
  184.0560  177.6000  137.1760 O   0  0  0  0  0  0  0  0  0  0  0  0
  180.2330  172.3230  137.9400 O   0  0  0  0  0  0  0  0  0  0  0  0
  178.9310  173.5520  136.4680 C   0  0  0  0  0  2  0  0  0  0  0  0
  182.1600  174.1710  137.1160 C   0  0  1  0  0  3  0  0  0  0  0  0
  187.1070  179.2680  140.9480 N   0  0  0  0  0  2  0  0  0  0  0  0
  182.0020  173.4180  135.7980 C   0  0  0  0  0  2  0  0  0  0  0  0
  185.1360  178.2300  139.9340 C   0  0  2  0  0  3  0  0  0  0  0  0
  181.7950  177.2180  136.7670 C   0  0  0  0  0  1  0  0  0  0  0  0
  189.0550  174.6350  136.6860 C   0  0  0  0  0  2  0  0  0  0  0  0
  187.4120  177.8090  138.9130 C   0  0  1  0  0  3  0  0  0  0  0  0
  181.6520  171.9490  136.0280 C   0  0  0  0  0  2  0  0  0  0  0  0
  187.7410  175.2540  137.1390 C   0  0  0  0  0  2  0  0  0  0  0  0
  183.2810  175.2240  136.9420 C   0  0  1  0  0  3  0  0  0  0  0  0
  182.2270  175.4570  139.5340 O   0  0  0  0  0  0  0  0  0  0  0  0
  188.2730  177.6730  137.6520 C   0  0  1  0  0  3  0  0  0  0  0  0
  183.0230  176.6700  137.4920 C   0  0  1  0  0  0  0  0  0  0  0  0
  185.3300  177.1860  137.6080 C   0  0  1  0  0  3  0  0  0  0  0  0
  184.1710  179.4120  139.9900 C   0  0  0  0  0  2  0  0  0  0  0  0
  180.2630  171.7750  136.6470 C   0  0  2  0  0  3  0  0  0  0  0  0
  184.4530  174.6670  137.4570 O   0  0  0  0  0  1  0  0  0  0  0  0
  180.9020  175.3290  139.0810 C   0  0  0  0  0  2  0  0  0  0  0  0
  190.4850  176.4870  137.5040 C   0  0  0  0  0  0  0  0  0  0  0  0
  186.2010  177.0800  136.3530 C   0  0  0  0  0  2  0  0  0  0  0  0
  190.0810  175.6070  136.4940 O   0  0  0  0  0  0  0  0  0  0  0  0
  186.0360  178.2990  141.1720 C   0  0  0  0  0  2  0  0  0  0  0  0
  182.1390  177.9260  139.6360 C   0  0  0  0  0  2  0  0  0  0  0  0
  182.8840  179.1890  139.2050 C   0  0  0  0  0  2  0  0  0  0  0  0
  179.2780  172.3620  135.8290 O   0  0  0  0  0  0  0  0  0  0  0  0
  188.0430  178.7890  139.9210 C   0  0  0  0  0  2  0  0  0  0  0  0
  182.7720  176.6590  139.0290 C   0  0  1  0  0  3  0  0  0  0  0  0
  194.2700  175.6640  137.7780 C   0  0  0  0  0  0  0  0  0  0  0  0
  193.1490  175.9000  134.5950 C   0  0  0  0  0  1  0  0  0  0  0  0
  191.8830  176.4190  137.9900 C   0  0  0  0  0  0  0  0  0  0  0  0
  193.0700  176.2190  137.0530 C   0  0  2  0  0  3  0  0  0  0  0  0
  192.1100  176.6640  139.2890 C   0  0  0  0  0  3  0  0  0  0  0  0
  193.5030  176.7660  139.8460 C   0  0  2  0  0  3  0  0  0  0  0  0
  193.9400  178.0740  139.7440 F   0  0  0  0  0  0  0  0  0  0  0  0
  195.2020  174.4530  136.8510 S   0  0  0  0  0  0  0  0  0  0  0  0
  193.5980  173.9620  136.1630 C   0  0  1  0  0  3  0  0  0  0  0  0
  192.7790  175.2370  135.9150 C   0  0  2  0  0  3  0  0  0  0  0  0
  194.4480  175.8680  139.0990 C   0  0  0  0  0  0  0  0  0  0  0  0
  195.5680  175.2220  139.8490 C   0  0  0  0  0  1  0  0  0  0  0  0
  195.0840  172.7520  135.0590 C   0  0  0  0  0  1  0  0  0  0  0  0
  193.7690  173.2110  134.9970 O   0  0  0  0  0  0  0  0  0  0  0  0
  2  3  1  0  0  0  0
  2 26  1  1  0  0  0
  3  8  1  6  0  0  0
  3  7  1  0  0  0  0
  4 15  1  0  0  0  0
  4 12  1  0  0  0  0
  5 17  1  0  0  0  0
  5 20  1  0  0  0  0
  6 21  1  0  0  0  0
  6 22  1  0  0  0  0
  9  2  1  0  0  0  0
 10 30  1  0  0  0  0
 11 16  1  0  0  0  0
 11  9  1  0  0  0  0
 12 23  1  0  0  0  0
 12 30  1  0  0  0  0
 13 21  1  0  0  0  0
 14 17  1  0  0  0  0
 15 34  1  0  0  0  0
 16 24  1  0  0  0  0
 18  9  1  0  0  0  0
 18 25  1  0  0  0  0
 18 21  1  0  0  0  0
 20  1  1  0  0  0  0
 20 15  1  0  0  0  0
 21 35  1  0  0  0  0
 22  4  1  0  0  0  0
 24  7  1  0  0  0  0
 26 19  1  0  0  0  0
 27 38  1  0  0  0  0
 27  1  2  0  0  0  0
 28  5  1  0  0  0  0
 28 22  1  0  0  0  0
 29 14  1  0  0  0  0
 29 27  1  0  0  0  0
 32 31  1  0  0  0  0
 32 23  1  0  0  0  0
 33  8  1  0  0  0  0
 33 24  1  0  0  0  0
 34 10  1  0  0  0  0
 35 19  1  0  0  0  0
 35 31  1  0  0  0  0
 36 46  2  0  0  0  0
 37 45  1  0  0  0  0
 38 40  2  0  0  0  0
 39 36  1  0  0  0  0
 39 38  1  0  0  0  0
 40 41  1  0  0  0  0
 42 41  1  0  0  0  0
 43 36  1  0  0  0  0
 44 43  1  0  0  0  0
 45 44  1  0  0  0  0
 45 39  1  0  0  0  0
 46 41  1  0  0  0  0
 46 47  1  0  0  0  0
 49 48  1  0  0  0  0
 49 44  1  0  0  0  0
M  END
>  <MODEL>
8

>  <REMARK>
 VINA RESULT:      -6.4      5.105     10.688
  Name = 
  2 active torsions:
  status: ('A' for Active; 'I' for Inactive)
    1  A    between atoms: C_10  and  C_37
    2  A    between atoms: O_27  and  C_43
                            x       y       z     vdW  Elec       q    Type
                         _______ _______ _______ _____ _____    ______ ____

>  <TORSDO>
F 2

$$$$
=
 OpenBabel11062411013D

 49 57  0  0  1  0  0  0  0  0999 V2000
  191.1630  176.6850  139.3530 N   0  0  0  0  0  0  0  0  0  0  0  0
  182.5030  178.9920  141.7040 C   0  0  2  0  0  3  0  0  0  0  0  0
  180.9790  178.9460  141.5160 C   0  0  2  0  0  3  0  0  0  0  0  0
  188.6550  177.6910  142.1020 C   0  0  1  0  0  3  0  0  0  0  0  0
  189.2450  178.3300  139.2420 C   0  0  2  0  0  3  0  0  0  0  0  0
  186.8940  179.3790  141.9460 O   0  0  0  0  0  0  0  0  0  0  0  0
  180.6310  178.1710  140.4120 O   0  0  0  0  0  0  0  0  0  0  0  0
  180.4290  180.3190  141.2590 C   0  0  0  0  0  2  0  0  0  0  0  0
  183.3310  178.8870  140.3900 C   0  0  1  0  0  3  0  0  0  0  0  0
  190.0690  175.6210  143.4040 N   0  0  0  0  0  2  0  0  0  0  0  0
  182.8450  179.8390  139.3010 C   0  0  0  0  0  2  0  0  0  0  0  0
  187.9440  176.8120  143.1640 C   0  0  2  0  0  3  0  0  0  0  0  0
  184.8900  180.3600  142.6130 C   0  0  0  0  0  1  0  0  0  0  0  0
  189.1390  177.1260  137.0560 C   0  0  0  0  0  2  0  0  0  0  0  0
  189.5780  176.8060  141.2320 C   0  0  1  0  0  3  0  0  0  0  0  0
  181.6690  179.2500  138.5230 C   0  0  0  0  0  2  0  0  0  0  0  0
  188.4310  177.3800  138.3790 C   0  0  0  0  0  2  0  0  0  0  0  0
  184.8680  179.0270  140.5060 C   0  0  1  0  0  3  0  0  0  0  0  0
  183.9900  177.1820  142.4310 O   0  0  0  0  0  0  0  0  0  0  0  0
  190.2700  177.5810  140.1040 C   0  0  1  0  0  3  0  0  0  0  0  0
  185.4910  179.1260  141.9420 C   0  0  1  0  0  0  0  0  0  0  0  0
  187.6330  178.4330  141.2100 C   0  0  1  0  0  3  0  0  0  0  0  0
  187.8780  177.4910  144.5300 C   0  0  0  0  0  2  0  0  0  0  0  0
  180.4150  179.1090  139.3880 C   0  0  2  0  0  3  0  0  0  0  0  0
  185.4340  177.9940  139.7580 O   0  0  0  0  0  1  0  0  0  0  0  0
  182.8870  177.9770  142.7890 C   0  0  0  0  0  2  0  0  0  0  0  0
  191.3330  176.5670  138.0640 C   0  0  0  0  0  0  0  0  0  0  0  0
  188.3500  179.2090  140.1020 C   0  0  0  0  0  2  0  0  0  0  0  0
  190.5530  177.2870  137.1530 O   0  0  0  0  0  0  0  0  0  0  0  0
  188.6190  175.4490  143.3470 C   0  0  0  0  0  2  0  0  0  0  0  0
  185.3920  177.9680  144.3090 C   0  0  0  0  0  2  0  0  0  0  0  0
  186.7720  178.5320  144.6450 C   0  0  0  0  0  2  0  0  0  0  0  0
  180.0370  180.3570  139.9210 O   0  0  0  0  0  0  0  0  0  0  0  0
  190.5990  176.0480  142.1010 C   0  0  0  0  0  2  0  0  0  0  0  0
  185.1780  177.8560  142.7880 C   0  0  1  0  0  3  0  0  0  0  0  0
  193.1060  173.6800  136.1660 C   0  0  0  0  0  0  0  0  0  0  0  0
  190.3500  174.8580  134.5980 C   0  0  0  0  0  1  0  0  0  0  0  0
  192.3740  175.6510  137.5430 C   0  0  0  0  0  0  0  0  0  0  0  0
  192.2220  174.9010  136.2220 C   0  0  2  0  0  3  0  0  0  0  0  0
  193.5390  175.5800  138.2030 C   0  0  0  0  0  3  0  0  0  0  0  0
  194.7080  174.7970  137.6730 C   0  0  2  0  0  3  0  0  0  0  0  0
  195.4680  175.6120  136.8550 F   0  0  0  0  0  0  0  0  0  0  0  0
  192.3600  172.2600  135.3790 S   0  0  0  0  0  0  0  0  0  0  0  0
  190.8070  172.8650  136.0930 C   0  0  1  0  0  3  0  0  0  0  0  0
  190.7980  174.3960  135.9780 C   0  0  2  0  0  3  0  0  0  0  0  0
  194.2420  173.6030  136.8880 C   0  0  0  0  0  0  0  0  0  0  0  0
  195.0600  172.3530  136.9320 C   0  0  0  0  0  1  0  0  0  0  0  0
  188.6550  172.4270  136.3570 C   0  0  0  0  0  1  0  0  0  0  0  0
  189.7090  172.2830  135.4550 O   0  0  0  0  0  0  0  0  0  0  0  0
  1 20  1  0  0  0  0
  2 26  1  1  0  0  0
  3  8  1  6  0  0  0
  3  2  1  0  0  0  0
  4 12  1  0  0  0  0
  5 28  1  0  0  0  0
  5 20  1  0  0  0  0
  7  3  1  0  0  0  0
  9 18  1  0  0  0  0
  9  2  1  0  0  0  0
 11  9  1  0  0  0  0
 12 30  1  0  0  0  0
 12 23  1  0  0  0  0
 14 29  1  0  0  0  0
 14 17  1  0  0  0  0
 15 34  1  0  0  0  0
 15  4  1  0  0  0  0
 16 11  1  0  0  0  0
 16 24  1  0  0  0  0
 17  5  1  0  0  0  0
 18 21  1  0  0  0  0
 19 35  1  0  0  0  0
 19 26  1  0  0  0  0
 20 15  1  0  0  0  0
 21  6  1  0  0  0  0
 21 13  1  0  0  0  0
 21 35  1  0  0  0  0
 22  6  1  0  0  0  0
 22  4  1  0  0  0  0
 23 32  1  0  0  0  0
 24 33  1  0  0  0  0
 24  7  1  0  0  0  0
 25 18  1  0  0  0  0
 27  1  2  0  0  0  0
 28 22  1  0  0  0  0
 29 27  1  0  0  0  0
 30 10  1  0  0  0  0
 31 32  1  0  0  0  0
 33  8  1  0  0  0  0
 34 10  1  0  0  0  0
 35 31  1  0  0  0  0
 36 39  1  0  0  0  0
 36 46  2  0  0  0  0
 37 45  1  0  0  0  0
 38 27  1  0  0  0  0
 38 40  2  0  0  0  0
 39 38  1  0  0  0  0
 41 40  1  0  0  0  0
 42 41  1  0  0  0  0
 43 44  1  0  0  0  0
 43 36  1  0  0  0  0
 45 44  1  0  0  0  0
 45 39  1  0  0  0  0
 46 47  1  0  0  0  0
 46 41  1  0  0  0  0
 49 44  1  0  0  0  0
 49 48  1  0  0  0  0
M  END
>  <MODEL>
9

>  <REMARK>
 VINA RESULT:      -5.1      4.462      9.156
  Name = 
  2 active torsions:
  status: ('A' for Active; 'I' for Inactive)
    1  A    between atoms: C_10  and  C_37
    2  A    between atoms: O_27  and  C_43
                            x       y       z     vdW  Elec       q    Type
                         _______ _______ _______ _____ _____    ______ ____

>  <TORSDO>
F 2

$$$$
