=
 OpenBabel11062417483D

 64 66  0  0  1  0  0  0  0  0999 V2000
  190.3150  176.8260  139.0770 C   0  0  1  0  0  3  0  0  0  0  0  0
  190.1290  176.5790  137.5470 C   0  0  2  0  0  0  0  0  0  0  0  0
  188.0330  179.1380  139.7400 O   0  0  0  0  0  0  0  0  0  0  0  0
  189.1720  177.7160  136.9700 C   0  0  2  0  0  0  0  0  0  0  0  0
  189.7820  178.9610  137.1940 O   0  0  0  0  0  1  0  0  0  0  0  0
  187.0010  178.7850  137.2240 O   0  0  0  0  0  1  0  0  0  0  0  0
  186.8680  178.3870  140.0230 C   0  0  1  0  0  3  0  0  0  0  0  0
  191.1040  177.9520  139.3320 O   0  0  0  0  0  1  0  0  0  0  0  0
  189.0220  176.9060  139.8850 C   0  0  0  0  0  2  0  0  0  0  0  0
  187.8140  177.7460  137.7050 C   0  0  2  0  0  3  0  0  0  0  0  0
  187.9970  177.8280  139.2290 C   0  0  2  0  0  0  0  0  0  0  0  0
  188.8870  177.6400  135.4460 C   0  0  1  0  0  3  0  0  0  0  0  0
  190.0010  177.0250  134.6140 C   0  0  0  0  0  1  0  0  0  0  0  0
  187.6630  177.0560  135.1340 O   0  0  0  0  0  1  0  0  0  0  0  0
  189.5870  175.0920  137.4010 C   0  0  1  0  0  3  0  0  0  0  0  0
  188.1530  174.9110  137.9160 C   0  0  0  0  0  1  0  0  0  0  0  0
  190.9640  173.3110  136.2680 C   0  0  0  0  0  1  0  0  0  0  0  0
  189.8450  174.3220  136.0770 C   0  0  1  0  0  3  0  0  0  0  0  0
  188.3940  172.2950  135.7570 O   0  0  0  0  0  1  0  0  0  0  0  0
  187.8390  174.2680  134.7450 O   0  0  0  0  0  0  0  0  0  0  0  0
  188.6390  173.6330  135.4870 C   0  0  0  0  0  0  0  0  0  0  0  0
  191.4360  176.8000  136.9900 O   0  0  0  0  0  0  0  0  0  0  0  0
  192.7790  175.9720  137.6810 P   0  0  1  0  0  0  0  0  0  0  0  0
  193.5220  176.8050  138.6990 O   0  0  0  0  0  1  0  0  0  0  0  0
  192.2010  174.5860  138.4610 O   0  0  0  0  0  0  0  0  0  0  0  0
  193.8490  175.4850  136.4540 O   0  0  0  0  0  0  0  0  0  0  0  0
  194.0680  174.1230  136.6730 C   0  0  0  0  0  2  0  0  0  0  0  0
  195.4880  173.7630  136.2850 C   0  0  0  0  0  2  0  0  0  0  0  0
  196.4610  174.4440  137.2390 C   0  0  0  0  0  2  0  0  0  0  0  0
  196.5430  173.7460  138.5980 C   0  0  2  0  0  3  0  0  0  0  0  0
  195.8290  172.5460  138.6070 O   0  0  0  0  0  1  0  0  0  0  0  0
  197.3680  175.2810  140.4350 C   0  0  0  0  0  1  0  0  0  0  0  0
  196.1580  174.6480  139.7670 C   0  0  0  0  0  2  0  0  0  0  0  0
  186.8800  177.9590  141.4890 C   0  0  0  0  0  2  0  0  0  0  0  0
  186.2490  178.9220  142.2840 O   0  0  0  0  0  0  0  0  0  0  0  0
  186.9100  178.9140  143.4290 O   0  0  0  0  0  0  0  0  0  0  0  0
  186.8270  177.5670  145.4360 C   0  0  0  0  0  0  0  0  0  0  0  0
  186.1740  176.8130  146.2080 O   0  0  0  0  0  0  0  0  0  0  0  0
  186.2180  178.0680  144.2340 N   0  0  0  0  0  0  0  0  0  0  0  0
  188.2490  177.9300  145.7670 C   0  0  2  0  0  3  0  0  0  0  0  0
  188.6520  176.1540  144.1960 F   0  0  0  0  0  0  0  0  0  0  0  0
  189.2510  177.2240  144.8420 C   0  0  0  0  0  0  0  0  0  0  0  0
  190.3230  176.7630  145.5830 F   0  0  0  0  0  0  0  0  0  0  0  0
  189.7200  178.1160  143.8890 F   0  0  0  0  0  0  0  0  0  0  0  0
  188.0410  178.4730  148.0500 O   0  0  0  0  0  0  0  0  0  0  0  0
  188.5330  177.7180  147.2250 C   0  0  0  0  0  0  0  0  0  0  0  0
  189.2950  176.6710  147.6420 F   0  0  0  0  0  0  0  0  0  0  0  0
  184.7830  177.8720  144.0180 C   0  0  0  0  0  2  0  0  0  0  0  0
  184.5460  180.3600  144.2700 C   0  0  0  0  0  1  0  0  0  0  0  0
  183.9220  179.0090  144.5820 C   0  0  0  0  0  0  0  0  0  0  0  0
  183.7660  178.8780  146.0930 C   0  0  0  0  0  1  0  0  0  0  0  0
  182.5490  178.9710  143.9200 C   0  0  0  0  0  2  0  0  0  0  0  0
  182.6420  178.5640  142.5240 N   0  0  0  0  0  2  0  0  0  0  0  0
  180.5770  177.7000  141.8770 O   0  0  0  0  0  1  0  0  0  0  0  0
  181.3580  178.8570  141.9090 C   0  0  2  0  0  3  0  0  0  0  0  0
  181.5630  179.3830  140.5220 C   0  0  0  0  0  0  0  0  0  0  0  0
  180.7660  180.3430  140.0420 C   0  0  0  0  0  3  0  0  0  0  0  0
  181.2910  180.3320  137.5770 C   0  0  0  0  0  0  0  0  0  0  0  0
  181.4460  178.1680  136.2230 C   0  0  0  0  0  1  0  0  0  0  0  0
  181.7000  178.9080  137.4910 C   0  0  0  0  0  0  0  0  0  0  0  0
  180.8460  180.9300  138.6900 C   0  0  0  0  0  3  0  0  0  0  0  0
  181.2390  181.0490  136.4260 F   0  0  0  0  0  0  0  0  0  0  0  0
  182.7470  178.8970  139.7540 C   0  0  0  0  0  2  0  0  0  0  0  0
  182.3420  178.2590  138.4650 C   0  0  0  0  0  3  0  0  0  0  0  0
  1  8  1  6  0  0  0
  1  9  1  0  0  0  0
  2 22  1  6  0  0  0
  2  1  1  0  0  0  0
  3  7  1  0  0  0  0
  4  5  1  1  0  0  0
  4  2  1  0  0  0  0
  4 10  1  0  0  0  0
  7 34  1  1  0  0  0
 10  6  1  6  0  0  0
 10 11  1  0  0  0  0
 11  3  1  0  0  0  0
 11  9  1  1  0  0  0
 11  7  1  0  0  0  0
 12 13  1  6  0  0  0
 12  4  1  0  0  0  0
 14 12  1  0  0  0  0
 15  2  1  0  0  0  0
 15 16  1  6  0  0  0
 18 17  1  1  0  0  0
 18 15  1  0  0  0  0
 20 21  2  0  0  0  0
 21 19  1  0  0  0  0
 21 18  1  0  0  0  0
 22 23  1  0  0  0  0
 23 25  2  1  0  0  0
 23 24  1  0  0  0  0
 26 27  1  0  0  0  0
 26 23  1  0  0  0  0
 28 27  1  0  0  0  0
 28 29  1  0  0  0  0
 29 30  1  0  0  0  0
 30 31  1  6  0  0  0
 30 33  1  0  0  0  0
 33 32  1  0  0  0  0
 34 35  1  0  0  0  0
 35 36  1  0  0  0  0
 36 39  1  0  0  0  0
 37 38  2  0  0  0  0
 39 37  1  0  0  0  0
 40 37  1  6  0  0  0
 40 46  1  0  0  0  0
 41 42  1  0  0  0  0
 42 43  1  0  0  0  0
 42 40  1  0  0  0  0
 44 42  1  0  0  0  0
 46 47  1  0  0  0  0
 46 45  2  0  0  0  0
 48 39  1  0  0  0  0
 48 50  1  0  0  0  0
 49 50  1  0  0  0  0
 50 51  1  0  0  0  0
 52 50  1  0  0  0  0
 53 52  1  0  0  0  0
 55 54  1  6  0  0  0
 55 53  1  0  0  0  0
 56 55  1  0  0  0  0
 57 56  2  0  0  0  0
 58 61  2  0  0  0  0
 59 60  1  0  0  0  0
 60 58  1  0  0  0  0
 60 64  2  0  0  0  0
 61 57  1  0  0  0  0
 62 58  1  0  0  0  0
 63 56  1  0  0  0  0
 64 63  1  0  0  0  0
M  END
>  <MODEL>
1

>  <REMARK>
 VINA RESULT:      -5.4      0.000      0.000
  Name = 
  25 active torsions:
  status: ('A' for Active; 'I' for Inactive)
    1  A    between atoms: C_2  and  C_7
    2  A    between atoms: C_2  and  C_19
    3  A    between atoms: C_3  and  C_10
    4  A    between atoms: C_6  and  O_9
    5  A    between atoms: C_6  and  C_46
    6  A    between atoms: C_7  and  O_33
    7  A    between atoms: O_9  and  P_16
    8  A    between atoms: C_10  and  N_28
    9  A    between atoms: C_15  and  C_46
   10  A    between atoms: C_15  and  C_55
   11  A    between atoms: P_16  and  O_33
   12  A    between atoms: C_17  and  C_26
   13  A    between atoms: C_19  and  C_56
   14  A    between atoms: C_21  and  C_54
   15  A    between atoms: N_28  and  C_31
   16  A    between atoms: C_30  and  C_31
   17  A    between atoms: C_30  and  C_61
   18  A    between atoms: C_32  and  C_55
   19  A    between atoms: O_35  and  C_47
   20  A    between atoms: O_35  and  O_48
   21  A    between atoms: C_41  and  C_47
   22  A    between atoms: C_43  and  C_54
   23  A    between atoms: C_44  and  C_54
   24  A    between atoms: O_48  and  N_60
   25  A    between atoms: N_60  and  C_61
                            x       y       z     vdW  Elec       q    Type
                         _______ _______ _______ _____ _____    ______ ____

>  <TORSDO>
F 25

$$$$
=
 OpenBabel11062417483D

 64 66  0  0  1  0  0  0  0  0999 V2000
  182.6750  177.6730  138.1680 C   0  0  1  0  0  3  0  0  0  0  0  0
  181.1840  178.0930  138.3660 C   0  0  2  0  0  0  0  0  0  0  0  0
  184.2640  179.4670  140.4570 O   0  0  0  0  0  0  0  0  0  0  0  0
  181.1470  179.3580  139.3360 C   0  0  2  0  0  0  0  0  0  0  0  0
  181.8710  180.3980  138.7310 O   0  0  0  0  0  1  0  0  0  0  0  0
  181.8410  180.2000  141.5100 O   0  0  0  0  0  1  0  0  0  0  0  0
  184.2110  178.6560  141.6160 C   0  0  1  0  0  3  0  0  0  0  0  0
  183.3760  178.5940  137.3830 O   0  0  0  0  0  1  0  0  0  0  0  0
  183.4480  177.3920  139.4540 C   0  0  0  0  0  2  0  0  0  0  0  0
  181.8340  179.0630  140.6870 C   0  0  2  0  0  3  0  0  0  0  0  0
  183.2490  178.4950  140.4910 C   0  0  2  0  0  0  0  0  0  0  0  0
  179.7350  179.9300  139.6340 C   0  0  1  0  0  3  0  0  0  0  0  0
  178.9320  180.3340  138.4080 C   0  0  0  0  0  1  0  0  0  0  0  0
  178.9720  179.1250  140.4750 O   0  0  0  0  0  1  0  0  0  0  0  0
  180.4270  176.8020  138.9010 C   0  0  1  0  0  3  0  0  0  0  0  0
  178.9780  176.6930  138.4060 C   0  0  0  0  0  1  0  0  0  0  0  0
  181.6670  175.0950  140.2810 C   0  0  0  0  0  1  0  0  0  0  0  0
  181.1640  175.4350  138.8870 C   0  0  1  0  0  3  0  0  0  0  0  0
  179.5430  173.5380  139.1830 O   0  0  0  0  0  1  0  0  0  0  0  0
  180.4300  173.9710  137.1210 O   0  0  0  0  0  0  0  0  0  0  0  0
  180.3640  174.2770  138.3440 C   0  0  0  0  0  0  0  0  0  0  0  0
  180.7650  178.5410  137.0660 O   0  0  0  0  0  0  0  0  0  0  0  0
  181.0780  177.5330  135.7050 P   0  0  1  0  0  0  0  0  0  0  0  0
  179.8170  177.0810  135.0070 O   0  0  0  0  0  1  0  0  0  0  0  0
  182.0010  178.4160  134.5940 O   0  0  0  0  0  0  0  0  0  0  0  0
  181.9800  176.1770  136.1870 O   0  0  0  0  0  0  0  0  0  0  0  0
  182.8380  175.9030  135.1190 C   0  0  0  0  0  2  0  0  0  0  0  0
  183.5360  174.5770  135.3480 C   0  0  0  0  0  2  0  0  0  0  0  0
  185.0030  174.7050  134.9590 C   0  0  0  0  0  2  0  0  0  0  0  0
  185.8480  173.5240  135.4420 C   0  0  2  0  0  3  0  0  0  0  0  0
  185.2610  172.3000  135.1150 O   0  0  0  0  0  1  0  0  0  0  0  0
  184.9850  173.5970  137.8220 C   0  0  0  0  0  1  0  0  0  0  0  0
  186.2110  173.6050  136.9230 C   0  0  0  0  0  2  0  0  0  0  0  0
  185.3590  177.6500  141.5880 C   0  0  0  0  0  2  0  0  0  0  0  0
  186.4510  178.1340  142.3160 O   0  0  0  0  0  0  0  0  0  0  0  0
  187.2180  178.7420  141.4270 O   0  0  0  0  0  0  0  0  0  0  0  0
  189.2050  177.4990  142.0210 C   0  0  0  0  0  0  0  0  0  0  0  0
  190.0630  176.6220  141.7270 O   0  0  0  0  0  0  0  0  0  0  0  0
  188.1630  177.8290  141.0880 N   0  0  0  0  0  0  0  0  0  0  0  0
  189.2840  178.2120  143.3450 C   0  0  2  0  0  3  0  0  0  0  0  0
  190.7220  180.1020  143.7280 F   0  0  0  0  0  0  0  0  0  0  0  0
  190.7040  178.7190  143.6380 C   0  0  0  0  0  0  0  0  0  0  0  0
  191.5590  178.3200  142.6270 F   0  0  0  0  0  0  0  0  0  0  0  0
  191.1540  178.1870  144.8380 F   0  0  0  0  0  0  0  0  0  0  0  0
  188.2710  177.9020  145.4490 O   0  0  0  0  0  0  0  0  0  0  0  0
  188.7140  177.3660  144.4450 C   0  0  0  0  0  0  0  0  0  0  0  0
  188.6470  176.0120  144.3210 F   0  0  0  0  0  0  0  0  0  0  0  0
  187.9770  177.0010  139.8940 C   0  0  0  0  0  2  0  0  0  0  0  0
  189.2200  178.8610  138.7500 C   0  0  0  0  0  1  0  0  0  0  0  0
  188.1710  177.7730  138.5830 C   0  0  0  0  0  0  0  0  0  0  0  0
  186.8650  178.4150  138.1290 C   0  0  0  0  0  1  0  0  0  0  0  0
  188.6690  176.8130  137.5090 C   0  0  0  0  0  2  0  0  0  0  0  0
  189.6090  177.4650  136.6070 N   0  0  0  0  0  2  0  0  0  0  0  0
  189.1160  175.6040  135.2960 O   0  0  0  0  0  1  0  0  0  0  0  0
  190.1490  176.4340  135.7350 C   0  0  2  0  0  3  0  0  0  0  0  0
  191.1820  175.6340  136.4670 C   0  0  0  0  0  0  0  0  0  0  0  0
  192.0670  176.2460  137.2610 C   0  0  0  0  0  3  0  0  0  0  0  0
  193.7780  174.4460  137.6890 C   0  0  0  0  0  0  0  0  0  0  0  0
  194.7190  172.9820  135.8160 C   0  0  0  0  0  1  0  0  0  0  0  0
  193.5630  173.6950  136.4270 C   0  0  0  0  0  0  0  0  0  0  0  0
  193.1460  175.5810  138.0170 C   0  0  0  0  0  3  0  0  0  0  0  0
  194.7740  174.0320  138.5140 F   0  0  0  0  0  0  0  0  0  0  0  0
  191.1110  174.1460  136.3790 C   0  0  0  0  0  2  0  0  0  0  0  0
  192.3750  173.5670  135.8320 C   0  0  0  0  0  3  0  0  0  0  0  0
  1  8  1  1  0  0  0
  1  2  1  0  0  0  0
  1  9  1  0  0  0  0
  2 22  1  6  0  0  0
  2 15  1  0  0  0  0
  2  4  1  0  0  0  0
  3 11  1  0  0  0  0
  3  7  1  0  0  0  0
  4  5  1  6  0  0  0
  4 12  1  0  0  0  0
  4 10  1  0  0  0  0
  7 34  1  6  0  0  0
 10  6  1  1  0  0  0
 11  9  1  6  0  0  0
 11 10  1  0  0  0  0
 11  7  1  0  0  0  0
 12 13  1  6  0  0  0
 12 14  1  0  0  0  0
 15 16  1  6  0  0  0
 18 15  1  0  0  0  0
 18 17  1  1  0  0  0
 20 21  2  0  0  0  0
 21 18  1  0  0  0  0
 21 19  1  0  0  0  0
 23 25  2  6  0  0  0
 23 26  1  0  0  0  0
 23 22  1  0  0  0  0
 24 23  1  0  0  0  0
 27 28  1  0  0  0  0
 27 26  1  0  0  0  0
 29 28  1  0  0  0  0
 29 30  1  0  0  0  0
 30 31  1  1  0  0  0
 30 33  1  0  0  0  0
 33 32  1  0  0  0  0
 34 35  1  0  0  0  0
 36 35  1  0  0  0  0
 38 37  2  0  0  0  0
 39 36  1  0  0  0  0
 39 37  1  0  0  0  0
 40 37  1  6  0  0  0
 40 42  1  0  0  0  0
 40 46  1  0  0  0  0
 42 41  1  0  0  0  0
 42 44  1  0  0  0  0
 43 42  1  0  0  0  0
 46 45  2  0  0  0  0
 47 46  1  0  0  0  0
 48 39  1  0  0  0  0
 50 49  1  0  0  0  0
 50 48  1  0  0  0  0
 51 50  1  0  0  0  0
 52 50  1  0  0  0  0
 53 52  1  0  0  0  0
 55 54  1  1  0  0  0
 55 56  1  0  0  0  0
 55 53  1  0  0  0  0
 56 57  2  0  0  0  0
 57 61  1  0  0  0  0
 58 61  2  0  0  0  0
 58 62  1  0  0  0  0
 59 60  1  0  0  0  0
 60 58  1  0  0  0  0
 63 56  1  0  0  0  0
 64 63  1  0  0  0  0
 64 60  2  0  0  0  0
M  END
>  <MODEL>
2

>  <REMARK>
 VINA RESULT:      -5.2      3.507      9.192
  Name = 
  25 active torsions:
  status: ('A' for Active; 'I' for Inactive)
    1  A    between atoms: C_2  and  C_7
    2  A    between atoms: C_2  and  C_19
    3  A    between atoms: C_3  and  C_10
    4  A    between atoms: C_6  and  O_9
    5  A    between atoms: C_6  and  C_46
    6  A    between atoms: C_7  and  O_33
    7  A    between atoms: O_9  and  P_16
    8  A    between atoms: C_10  and  N_28
    9  A    between atoms: C_15  and  C_46
   10  A    between atoms: C_15  and  C_55
   11  A    between atoms: P_16  and  O_33
   12  A    between atoms: C_17  and  C_26
   13  A    between atoms: C_19  and  C_56
   14  A    between atoms: C_21  and  C_54
   15  A    between atoms: N_28  and  C_31
   16  A    between atoms: C_30  and  C_31
   17  A    between atoms: C_30  and  C_61
   18  A    between atoms: C_32  and  C_55
   19  A    between atoms: O_35  and  C_47
   20  A    between atoms: O_35  and  O_48
   21  A    between atoms: C_41  and  C_47
   22  A    between atoms: C_43  and  C_54
   23  A    between atoms: C_44  and  C_54
   24  A    between atoms: O_48  and  N_60
   25  A    between atoms: N_60  and  C_61
                            x       y       z     vdW  Elec       q    Type
                         _______ _______ _______ _____ _____    ______ ____

>  <TORSDO>
F 25

$$$$
=
 OpenBabel11062417483D

 64 67  0  0  1  0  0  0  0  0999 V2000
  188.0610  175.0110  137.5270 C   0  0  1  0  0  3  0  0  0  0  0  0
  189.3480  175.3080  136.6950 C   0  0  2  0  0  0  0  0  0  0  0  0
  188.4110  176.9850  140.1680 O   0  0  0  0  0  0  0  0  0  0  0  0
  190.3420  176.1650  137.6010 C   0  0  2  0  0  0  0  0  0  0  0  0
  190.6610  175.4110  138.7420 O   0  0  0  0  0  1  0  0  0  0  0  0
  190.5460  178.1880  138.9380 O   0  0  0  0  0  1  0  0  0  0  0  0
  187.8350  178.2090  139.7510 C   0  0  1  0  0  3  0  0  0  0  0  0
  188.3030  174.0910  138.5520 O   0  0  0  0  0  1  0  0  0  0  0  0
  187.3540  176.2410  138.0920 C   0  0  0  0  0  2  0  0  0  0  0  0
  189.6800  177.4690  138.0990 C   0  0  2  0  0  3  0  0  0  0  0  0
  188.3290  177.1940  138.7800 C   0  0  2  0  0  0  0  0  0  0  0  0
  191.6940  176.5410  136.9380 C   0  0  1  0  0  3  0  0  0  0  0  0
  192.9260  176.2650  137.7850 C   0  0  0  0  0  1  0  0  0  0  0  0
  191.8540  176.0190  135.6580 O   0  0  0  0  0  1  0  0  0  0  0  0
  188.8600  176.0180  135.3600 C   0  0  1  0  0  3  0  0  0  0  0  0
  187.7990  175.2160  134.5940 C   0  0  0  0  0  2  0  0  0  0  0  0
  189.6070  178.3020  134.6000 C   0  0  0  0  0  1  0  0  0  0  0  0
  188.5510  177.5390  135.3840 C   0  0  1  0  0  3  0  0  0  0  0  0
  186.1840  176.9680  134.7590 O   0  0  0  0  0  1  0  0  0  0  0  0
  186.9200  179.1260  134.5950 O   0  0  0  0  0  0  0  0  0  0  0  0
  187.1790  177.9270  134.8900 C   0  0  0  0  0  0  0  0  0  0  0  0
  189.9530  174.0180  136.5050 O   0  0  0  0  0  0  0  0  0  0  0  0
  189.0700  172.8100  135.6520 P   0  0  1  0  0  0  0  0  0  0  0  0
  188.1590  173.3860  134.5940 O   0  0  0  0  0  0  0  0  0  0  0  0
  190.1790  171.7870  134.8850 O   0  0  0  0  0  0  0  0  0  0  0  0
  188.1590  171.8830  136.7450 O   0  0  0  0  0  0  0  0  0  0  0  0
  186.9080  171.7230  136.1430 C   0  0  0  0  0  2  0  0  0  0  0  0
  185.8420  172.3850  136.9930 C   0  0  0  0  0  2  0  0  0  0  0  0
  184.4760  172.1550  136.3600 C   0  0  0  0  0  2  0  0  0  0  0  0
  183.6760  173.4480  136.1900 C   0  0  2  0  0  3  0  0  0  0  0  0
  183.5600  174.1460  137.3940 O   0  0  0  0  0  1  0  0  0  0  0  0
  181.2910  174.2640  135.9610 C   0  0  0  0  0  1  0  0  0  0  0  0
  182.3220  173.2390  135.5180 C   0  0  0  0  0  2  0  0  0  0  0  0
  186.3240  178.1620  139.9680 C   0  0  0  0  0  2  0  0  0  0  0  0
  185.6940  179.1750  139.2370 O   0  0  0  0  0  0  0  0  0  0  0  0
  184.8940  179.7780  140.0980 O   0  0  0  0  0  0  0  0  0  0  0  0
  183.0600  178.2120  139.9200 C   0  0  0  0  0  0  0  0  0  0  0  0
  182.3960  177.2610  140.4160 O   0  0  0  0  0  0  0  0  0  0  0  0
  184.1560  178.7840  140.6540 N   0  0  0  0  0  0  0  0  0  0  0  0
  182.6940  178.7570  138.5660 C   0  0  2  0  0  3  0  0  0  0  0  0
  181.9330  180.9580  137.9620 F   0  0  0  0  0  0  0  0  0  0  0  0
  181.5800  179.8100  138.6540 C   0  0  0  0  0  0  0  0  0  0  0  0
  181.3490  180.1340  139.9790 F   0  0  0  0  0  0  0  0  0  0  0  0
  180.4090  179.3020  138.1100 F   0  0  0  0  0  0  0  0  0  0  0  0
  183.2630  177.2520  136.8460 O   0  0  0  0  0  0  0  0  0  0  0  0
  182.3900  177.6470  137.6040 C   0  0  0  0  0  0  0  0  0  0  0  0
  181.1690  177.0470  137.5940 F   0  0  0  0  0  0  0  0  0  0  0  0
  184.6260  178.1260  141.8750 C   0  0  0  0  0  2  0  0  0  0  0  0
  182.6410  178.8580  143.2300 C   0  0  0  0  0  1  0  0  0  0  0  0
  184.1590  178.8220  143.1590 C   0  0  0  0  0  0  0  0  0  0  0  0
  184.6880  180.2500  143.2300 C   0  0  0  0  0  1  0  0  0  0  0  0
  184.6580  178.0320  144.3640 C   0  0  0  0  0  2  0  0  0  0  0  0
  185.8600  178.6300  144.9320 N   0  0  0  0  0  2  0  0  0  0  0  0
  186.0290  178.5530  147.2540 O   0  0  0  0  0  1  0  0  0  0  0  0
  186.2350  177.8230  146.0820 C   0  0  2  0  0  3  0  0  0  0  0  0
  187.6700  177.4100  145.9720 C   0  0  0  0  0  0  0  0  0  0  0  0
  188.4580  177.4260  147.0520 C   0  0  0  0  0  3  0  0  0  0  0  0
  190.7660  177.1810  146.0690 C   0  0  0  0  0  0  0  0  0  0  0  0
  191.5400  178.5410  144.0470 C   0  0  0  0  0  1  0  0  0  0  0  0
  190.4610  177.7950  144.7520 C   0  0  0  0  0  0  0  0  0  0  0  0
  189.8890  177.0670  147.0760 C   0  0  0  0  0  3  0  0  0  0  0  0
  192.0510  176.8270  146.3230 F   0  0  0  0  0  0  0  0  0  0  0  0
  188.1470  176.8690  144.6660 C   0  0  0  0  0  2  0  0  0  0  0  0
  189.2890  177.6670  144.1260 C   0  0  0  0  0  3  0  0  0  0  0  0
  1  9  1  0  0  0  0
  1  8  1  1  0  0  0
  2 22  1  6  0  0  0
  2  1  1  0  0  0  0
  2  4  1  0  0  0  0
  4 10  1  0  0  0  0
  4  5  1  1  0  0  0
  7 34  1  6  0  0  0
  7  3  1  0  0  0  0
 10 11  1  0  0  0  0
 10  6  1  1  0  0  0
 11  9  1  6  0  0  0
 11  7  1  0  0  0  0
 11  3  1  0  0  0  0
 12  4  1  0  0  0  0
 12 13  1  1  0  0  0
 14 12  1  0  0  0  0
 15 18  1  1  0  0  0
 15  2  1  0  0  0  0
 16 24  1  0  0  0  0
 16 15  1  0  0  0  0
 18 17  1  6  0  0  0
 19 21  1  0  0  0  0
 20 21  2  0  0  0  0
 21 18  1  0  0  0  0
 23 25  2  6  0  0  0
 23 22  1  0  0  0  0
 23 26  1  0  0  0  0
 24 23  1  0  0  0  0
 27 26  1  0  0  0  0
 27 28  1  0  0  0  0
 29 28  1  0  0  0  0
 30 29  1  0  0  0  0
 30 31  1  1  0  0  0
 33 32  1  0  0  0  0
 33 30  1  0  0  0  0
 35 34  1  0  0  0  0
 35 36  1  0  0  0  0
 36 39  1  0  0  0  0
 37 38  2  0  0  0  0
 37 39  1  0  0  0  0
 39 48  1  0  0  0  0
 40 46  1  6  0  0  0
 40 42  1  0  0  0  0
 40 37  1  0  0  0  0
 41 42  1  0  0  0  0
 42 43  1  0  0  0  0
 44 42  1  0  0  0  0
 45 46  2  0  0  0  0
 47 46  1  0  0  0  0
 48 50  1  0  0  0  0
 50 49  1  0  0  0  0
 50 51  1  0  0  0  0
 50 52  1  0  0  0  0
 52 53  1  0  0  0  0
 53 55  1  0  0  0  0
 55 54  1  1  0  0  0
 56 55  1  0  0  0  0
 56 57  2  0  0  0  0
 57 61  1  0  0  0  0
 58 62  1  0  0  0  0
 58 61  2  0  0  0  0
 59 60  1  0  0  0  0
 60 58  1  0  0  0  0
 63 56  1  0  0  0  0
 64 63  1  0  0  0  0
 64 60  2  0  0  0  0
M  END
>  <MODEL>
3

>  <REMARK>
 VINA RESULT:      -4.3      2.343      7.926
  Name = 
  25 active torsions:
  status: ('A' for Active; 'I' for Inactive)
    1  A    between atoms: C_2  and  C_7
    2  A    between atoms: C_2  and  C_19
    3  A    between atoms: C_3  and  C_10
    4  A    between atoms: C_6  and  O_9
    5  A    between atoms: C_6  and  C_46
    6  A    between atoms: C_7  and  O_33
    7  A    between atoms: O_9  and  P_16
    8  A    between atoms: C_10  and  N_28
    9  A    between atoms: C_15  and  C_46
   10  A    between atoms: C_15  and  C_55
   11  A    between atoms: P_16  and  O_33
   12  A    between atoms: C_17  and  C_26
   13  A    between atoms: C_19  and  C_56
   14  A    between atoms: C_21  and  C_54
   15  A    between atoms: N_28  and  C_31
   16  A    between atoms: C_30  and  C_31
   17  A    between atoms: C_30  and  C_61
   18  A    between atoms: C_32  and  C_55
   19  A    between atoms: O_35  and  C_47
   20  A    between atoms: O_35  and  O_48
   21  A    between atoms: C_41  and  C_47
   22  A    between atoms: C_43  and  C_54
   23  A    between atoms: C_44  and  C_54
   24  A    between atoms: O_48  and  N_60
   25  A    between atoms: N_60  and  C_61
                            x       y       z     vdW  Elec       q    Type
                         _______ _______ _______ _____ _____    ______ ____

>  <TORSDO>
F 25

$$$$
=
 OpenBabel11062417483D

 64 66  0  0  1  0  0  0  0  0999 V2000
  188.2410  177.2910  142.2940 C   0  0  1  0  0  3  0  0  0  0  0  0
  189.0240  177.8030  143.5440 C   0  0  2  0  0  0  0  0  0  0  0  0
  190.2690  178.0480  139.7840 O   0  0  0  0  0  0  0  0  0  0  0  0
  190.2530  178.6850  143.0370 C   0  0  2  0  0  0  0  0  0  0  0  0
  189.7440  179.7670  142.3020 O   0  0  0  0  0  1  0  0  0  0  0  0
  192.2180  178.6920  141.6020 O   0  0  0  0  0  1  0  0  0  0  0  0
  191.1190  176.9200  139.6870 C   0  0  1  0  0  3  0  0  0  0  0  0
  187.5460  178.3230  141.6560 O   0  0  0  0  0  1  0  0  0  0  0  0
  189.0760  176.5210  141.2740 C   0  0  0  0  0  2  0  0  0  0  0  0
  191.1700  177.8890  142.0830 C   0  0  2  0  0  3  0  0  0  0  0  0
  190.3750  177.2470  140.9350 C   0  0  2  0  0  0  0  0  0  0  0  0
  191.1410  179.2970  144.1530 C   0  0  1  0  0  3  0  0  0  0  0  0
  192.5860  178.8270  144.1560 C   0  0  0  0  0  1  0  0  0  0  0  0
  191.0770  180.6850  144.2200 O   0  0  0  0  0  1  0  0  0  0  0  0
  189.4130  176.5110  144.3830 C   0  0  1  0  0  3  0  0  0  0  0  0
  189.7410  175.2900  143.5110 C   0  0  0  0  0  1  0  0  0  0  0  0
  189.6240  176.4880  146.8950 C   0  0  0  0  0  1  0  0  0  0  0  0
  190.3820  176.6570  145.5880 C   0  0  1  0  0  3  0  0  0  0  0  0
  192.1290  175.3230  144.3690 O   0  0  0  0  0  0  0  0  0  0  0  0
  192.0800  175.3230  146.6540 O   0  0  0  0  0  1  0  0  0  0  0  0
  191.5740  175.7310  145.5730 C   0  0  0  0  0  0  0  0  0  0  0  0
  188.1050  178.6920  144.2000 O   0  0  0  0  0  0  0  0  0  0  0  0
  186.5570  178.0900  144.6560 P   0  0  1  0  0  0  0  0  0  0  0  0
  186.3870  176.6200  144.3540 O   0  0  0  0  0  0  0  0  0  0  0  0
  186.3770  178.3040  146.3250 O   0  0  0  0  0  1  0  0  0  0  0  0
  185.3390  178.9780  143.8710 O   0  0  0  0  0  0  0  0  0  0  0  0
  184.2250  178.1350  143.8450 C   0  0  0  0  0  2  0  0  0  0  0  0
  182.9900  178.9040  144.2700 C   0  0  0  0  0  2  0  0  0  0  0  0
  182.1550  179.2400  143.0410 C   0  0  0  0  0  2  0  0  0  0  0  0
  182.6300  178.5060  141.7850 C   0  0  2  0  0  3  0  0  0  0  0  0
  183.5010  179.2910  141.0260 O   0  0  0  0  0  1  0  0  0  0  0  0
  180.8470  179.0010  140.0570 C   0  0  0  0  0  1  0  0  0  0  0  0
  181.4880  177.9450  140.9430 C   0  0  0  0  0  2  0  0  0  0  0  0
  190.4470  175.8440  138.8380 C   0  0  0  0  0  2  0  0  0  0  0  0
  191.1350  175.6730  137.6320 O   0  0  0  0  0  0  0  0  0  0  0  0
  191.5960  174.4340  137.6700 O   0  0  0  0  0  0  0  0  0  0  0  0
  193.3130  173.5600  136.2090 C   0  0  0  0  0  0  0  0  0  0  0  0
  193.7050  173.2840  135.0420 O   0  0  0  0  0  0  0  0  0  0  0  0
  192.0310  174.1780  136.4100 N   0  0  0  0  0  0  0  0  0  0  0  0
  194.1950  173.2550  137.3890 C   0  0  2  0  0  3  0  0  0  0  0  0
  195.6350  174.4790  138.8780 F   0  0  0  0  0  0  0  0  0  0  0  0
  195.3250  174.2850  137.5410 C   0  0  0  0  0  0  0  0  0  0  0  0
  194.9330  175.4900  136.9890 F   0  0  0  0  0  0  0  0  0  0  0  0
  196.4590  173.8400  136.8780 F   0  0  0  0  0  0  0  0  0  0  0  0
  195.2900  171.3780  138.2990 O   0  0  0  0  0  0  0  0  0  0  0  0
  194.6840  171.8380  137.3430 C   0  0  0  0  0  0  0  0  0  0  0  0
  194.4250  171.0450  136.2670 F   0  0  0  0  0  0  0  0  0  0  0  0
  191.1020  174.2920  135.2830 C   0  0  0  0  0  2  0  0  0  0  0  0
  189.5980  172.8870  136.7240 C   0  0  0  0  0  1  0  0  0  0  0  0
  189.9970  173.2300  135.2970 C   0  0  0  0  0  0  0  0  0  0  0  0
  190.4550  171.9560  134.5950 C   0  0  0  0  0  1  0  0  0  0  0  0
  188.7630  173.7850  134.5940 C   0  0  0  0  0  2  0  0  0  0  0  0
  187.6240  173.8620  135.5000 N   0  0  0  0  0  2  0  0  0  0  0  0
  188.1700  176.1180  135.6900 O   0  0  0  0  0  1  0  0  0  0  0  0
  187.1250  175.2260  135.4430 C   0  0  2  0  0  3  0  0  0  0  0  0
  186.0330  175.4150  136.4490 C   0  0  0  0  0  0  0  0  0  0  0  0
  185.2460  174.3880  136.7860 C   0  0  0  0  0  3  0  0  0  0  0  0
  183.3600  175.5080  138.0290 C   0  0  0  0  0  0  0  0  0  0  0  0
  182.2080  177.6160  137.1510 C   0  0  0  0  0  1  0  0  0  0  0  0
  183.4530  176.8210  137.3420 C   0  0  0  0  0  0  0  0  0  0  0  0
  184.1230  174.4450  137.7430 C   0  0  0  0  0  3  0  0  0  0  0  0
  182.3510  175.3260  138.9170 F   0  0  0  0  0  0  0  0  0  0  0  0
  185.9380  176.7320  137.1450 C   0  0  0  0  0  2  0  0  0  0  0  0
  184.6010  177.3680  136.9360 C   0  0  0  0  0  3  0  0  0  0  0  0
  1  8  1  6  0  0  0
  1  2  1  0  0  0  0
  2 22  1  1  0  0  0
  2 15  1  0  0  0  0
  3 11  1  0  0  0  0
  4  5  1  6  0  0  0
  4  2  1  0  0  0  0
  4 12  1  0  0  0  0
  7 34  1  6  0  0  0
  7  3  1  0  0  0  0
  7 11  1  0  0  0  0
  9  1  1  0  0  0  0
 10  6  1  6  0  0  0
 10  4  1  0  0  0  0
 11  9  1  1  0  0  0
 11 10  1  0  0  0  0
 12 13  1  6  0  0  0
 12 14  1  0  0  0  0
 15 16  1  6  0  0  0
 15 18  1  0  0  0  0
 18 17  1  1  0  0  0
 19 21  2  0  0  0  0
 21 18  1  0  0  0  0
 21 20  1  0  0  0  0
 22 23  1  0  0  0  0
 23 24  2  6  0  0  0
 23 25  1  0  0  0  0
 26 23  1  0  0  0  0
 27 26  1  0  0  0  0
 27 28  1  0  0  0  0
 29 28  1  0  0  0  0
 30 31  1  6  0  0  0
 30 29  1  0  0  0  0
 32 33  1  0  0  0  0
 33 30  1  0  0  0  0
 35 36  1  0  0  0  0
 35 34  1  0  0  0  0
 37 39  1  0  0  0  0
 38 37  2  0  0  0  0
 39 36  1  0  0  0  0
 40 37  1  6  0  0  0
 40 42  1  0  0  0  0
 42 41  1  0  0  0  0
 43 42  1  0  0  0  0
 44 42  1  0  0  0  0
 46 40  1  0  0  0  0
 46 45  2  0  0  0  0
 47 46  1  0  0  0  0
 48 50  1  0  0  0  0
 48 39  1  0  0  0  0
 50 49  1  0  0  0  0
 51 50  1  0  0  0  0
 52 50  1  0  0  0  0
 52 53  1  0  0  0  0
 55 53  1  0  0  0  0
 55 54  1  1  0  0  0
 55 56  1  0  0  0  0
 56 57  2  0  0  0  0
 56 63  1  0  0  0  0
 57 61  1  0  0  0  0
 58 62  1  0  0  0  0
 59 60  1  0  0  0  0
 60 58  1  0  0  0  0
 61 58  2  0  0  0  0
 64 63  1  0  0  0  0
 64 60  2  0  0  0  0
M  END
>  <MODEL>
4

>  <REMARK>
 VINA RESULT:      -4.3      4.009      9.974
  Name = 
  25 active torsions:
  status: ('A' for Active; 'I' for Inactive)
    1  A    between atoms: C_2  and  C_7
    2  A    between atoms: C_2  and  C_19
    3  A    between atoms: C_3  and  C_10
    4  A    between atoms: C_6  and  O_9
    5  A    between atoms: C_6  and  C_46
    6  A    between atoms: C_7  and  O_33
    7  A    between atoms: O_9  and  P_16
    8  A    between atoms: C_10  and  N_28
    9  A    between atoms: C_15  and  C_46
   10  A    between atoms: C_15  and  C_55
   11  A    between atoms: P_16  and  O_33
   12  A    between atoms: C_17  and  C_26
   13  A    between atoms: C_19  and  C_56
   14  A    between atoms: C_21  and  C_54
   15  A    between atoms: N_28  and  C_31
   16  A    between atoms: C_30  and  C_31
   17  A    between atoms: C_30  and  C_61
   18  A    between atoms: C_32  and  C_55
   19  A    between atoms: O_35  and  C_47
   20  A    between atoms: O_35  and  O_48
   21  A    between atoms: C_41  and  C_47
   22  A    between atoms: C_43  and  C_54
   23  A    between atoms: C_44  and  C_54
   24  A    between atoms: O_48  and  N_60
   25  A    between atoms: N_60  and  C_61
                            x       y       z     vdW  Elec       q    Type
                         _______ _______ _______ _____ _____    ______ ____

>  <TORSDO>
F 25

$$$$
=
 OpenBabel11062417483D

 64 66  0  0  1  0  0  0  0  0999 V2000
  189.0890  178.5390  138.5880 C   0  0  1  0  0  3  0  0  0  0  0  0
  190.0010  177.2890  138.3850 C   0  0  2  0  0  0  0  0  0  0  0  0
  186.5990  177.9960  136.4680 O   0  0  0  0  0  0  0  0  0  0  0  0
  189.4920  176.5040  137.0930 C   0  0  2  0  0  0  0  0  0  0  0  0
  189.5890  177.3650  135.9880 O   0  0  0  0  0  1  0  0  0  0  0  0
  187.5560  175.4610  136.0520 O   0  0  0  0  0  1  0  0  0  0  0  0
  185.6790  177.2280  137.2200 C   0  0  1  0  0  3  0  0  0  0  0  0
  189.3160  179.5150  137.6120 O   0  0  0  0  0  1  0  0  0  0  0  0
  187.5940  178.2440  138.6870 C   0  0  0  0  0  2  0  0  0  0  0  0
  188.0060  176.1040  137.2170 C   0  0  2  0  0  3  0  0  0  0  0  0
  187.1220  177.3090  137.5770 C   0  0  2  0  0  0  0  0  0  0  0  0
  190.3000  175.2310  136.7240 C   0  0  1  0  0  3  0  0  0  0  0  0
  189.6050  173.9160  137.0330 C   0  0  0  0  0  1  0  0  0  0  0  0
  190.7850  175.2350  135.4190 O   0  0  0  0  0  1  0  0  0  0  0  0
  189.9420  176.4710  139.7460 C   0  0  1  0  0  3  0  0  0  0  0  0
  190.9720  175.3360  139.8220 C   0  0  0  0  0  1  0  0  0  0  0  0
  188.6220  176.7240  141.8780 C   0  0  0  0  0  1  0  0  0  0  0  0
  189.8100  177.2450  141.0860 C   0  0  1  0  0  3  0  0  0  0  0  0
  191.1030  176.4160  143.0760 O   0  0  0  0  0  1  0  0  0  0  0  0
  192.0280  177.9720  141.6800 O   0  0  0  0  0  0  0  0  0  0  0  0
  191.0410  177.2370  141.9590 C   0  0  0  0  0  0  0  0  0  0  0  0
  191.2910  177.8380  138.0680 O   0  0  0  0  0  0  0  0  0  0  0  0
  192.6590  176.7910  138.0740 P   0  0  1  0  0  0  0  0  0  0  0  0
  193.5790  177.0210  136.8980 O   0  0  0  0  0  0  0  0  0  0  0  0
  193.5390  177.0810  139.4900 O   0  0  0  0  0  1  0  0  0  0  0  0
  192.1450  175.1720  138.0880 O   0  0  0  0  0  0  0  0  0  0  0  0
  193.3050  174.4140  137.9130 C   0  0  0  0  0  2  0  0  0  0  0  0
  194.5140  175.2160  138.3530 C   0  0  0  0  0  2  0  0  0  0  0  0
  195.6840  174.2720  138.5970 C   0  0  0  0  0  2  0  0  0  0  0  0
  196.7500  174.3560  137.5020 C   0  0  2  0  0  3  0  0  0  0  0  0
  196.4990  175.4050  136.6150 O   0  0  0  0  0  1  0  0  0  0  0  0
  195.7670  172.1120  136.8610 C   0  0  0  0  0  1  0  0  0  0  0  0
  196.9730  173.0340  136.7730 C   0  0  0  0  0  2  0  0  0  0  0  0
  184.7920  178.1570  138.0460 C   0  0  0  0  0  2  0  0  0  0  0  0
  183.4430  177.8360  137.8610 O   0  0  0  0  0  0  0  0  0  0  0  0
  183.4460  176.7240  137.1470 O   0  0  0  0  0  0  0  0  0  0  0  0
  182.3260  174.5890  137.3330 C   0  0  0  0  0  0  0  0  0  0  0  0
  181.3800  173.8990  137.8020 O   0  0  0  0  0  0  0  0  0  0  0  0
  182.4030  175.9950  137.6190 N   0  0  0  0  0  0  0  0  0  0  0  0
  183.3660  173.9400  136.4600 C   0  0  2  0  0  3  0  0  0  0  0  0
  182.0150  171.9890  136.0650 F   0  0  0  0  0  0  0  0  0  0  0  0
  182.7380  172.9870  135.4320 C   0  0  0  0  0  0  0  0  0  0  0  0
  183.7340  172.4080  134.6660 F   0  0  0  0  0  0  0  0  0  0  0  0
  181.8870  173.6940  134.5950 F   0  0  0  0  0  0  0  0  0  0  0  0
  185.6130  173.5010  137.0160 O   0  0  0  0  0  0  0  0  0  0  0  0
  184.4390  173.2990  137.2890 C   0  0  0  0  0  0  0  0  0  0  0  0
  184.1230  172.5290  138.3660 F   0  0  0  0  0  0  0  0  0  0  0  0
  181.5050  176.5760  138.6200 C   0  0  0  0  0  2  0  0  0  0  0  0
  179.1220  176.0840  137.9980 C   0  0  0  0  0  1  0  0  0  0  0  0
  180.2130  177.1430  138.0220 C   0  0  0  0  0  0  0  0  0  0  0  0
  180.4420  177.6450  136.6010 C   0  0  0  0  0  1  0  0  0  0  0  0
  179.7200  178.2920  138.8960 C   0  0  0  0  0  2  0  0  0  0  0  0
  180.0440  178.0700  140.2990 N   0  0  0  0  0  2  0  0  0  0  0  0
  181.4930  179.7770  139.6550 O   0  0  0  0  0  1  0  0  0  0  0  0
  180.8220  179.2150  140.7430 C   0  0  2  0  0  3  0  0  0  0  0  0
  181.8010  178.7930  141.7950 C   0  0  0  0  0  0  0  0  0  0  0  0
  181.6080  179.1430  143.0710 C   0  0  0  0  0  3  0  0  0  0  0  0
  183.8280  178.6130  144.1410 C   0  0  0  0  0  0  0  0  0  0  0  0
  186.0530  179.2850  143.0750 C   0  0  0  0  0  1  0  0  0  0  0  0
  184.6570  178.7890  142.9220 C   0  0  0  0  0  0  0  0  0  0  0  0
  182.5040  178.8120  144.1960 C   0  0  0  0  0  3  0  0  0  0  0  0
  184.4660  178.3570  145.3110 F   0  0  0  0  0  0  0  0  0  0  0  0
  182.9090  177.8760  141.3960 C   0  0  0  0  0  2  0  0  0  0  0  0
  184.2470  178.4710  141.6920 C   0  0  0  0  0  3  0  0  0  0  0  0
  1  8  1  6  0  0  0
  1  9  1  0  0  0  0
  2 22  1  6  0  0  0
  2  1  1  0  0  0  0
  2 15  1  0  0  0  0
  3  7  1  0  0  0  0
  3 11  1  0  0  0  0
  4  5  1  6  0  0  0
  4 10  1  0  0  0  0
  4  2  1  0  0  0  0
  7 11  1  0  0  0  0
  7 34  1  1  0  0  0
 10  6  1  6  0  0  0
 10 11  1  0  0  0  0
 11  9  1  1  0  0  0
 12 13  1  6  0  0  0
 12  4  1  0  0  0  0
 14 12  1  0  0  0  0
 15 16  1  1  0  0  0
 15 18  1  0  0  0  0
 18 17  1  1  0  0  0
 18 21  1  0  0  0  0
 20 21  2  0  0  0  0
 21 19  1  0  0  0  0
 22 23  1  0  0  0  0
 23 24  2  6  0  0  0
 23 26  1  0  0  0  0
 23 25  1  0  0  0  0
 27 26  1  0  0  0  0
 27 28  1  0  0  0  0
 28 29  1  0  0  0  0
 30 31  1  6  0  0  0
 30 29  1  0  0  0  0
 33 32  1  0  0  0  0
 33 30  1  0  0  0  0
 35 34  1  0  0  0  0
 36 39  1  0  0  0  0
 36 35  1  0  0  0  0
 37 39  1  0  0  0  0
 37 38  2  0  0  0  0
 39 48  1  0  0  0  0
 40 46  1  1  0  0  0
 40 37  1  0  0  0  0
 42 41  1  0  0  0  0
 42 40  1  0  0  0  0
 43 42  1  0  0  0  0
 44 42  1  0  0  0  0
 45 46  2  0  0  0  0
 46 47  1  0  0  0  0
 49 50  1  0  0  0  0
 50 48  1  0  0  0  0
 50 52  1  0  0  0  0
 51 50  1  0  0  0  0
 52 53  1  0  0  0  0
 53 55  1  0  0  0  0
 55 54  1  6  0  0  0
 55 56  1  0  0  0  0
 56 57  2  0  0  0  0
 57 61  1  0  0  0  0
 58 61  2  0  0  0  0
 58 62  1  0  0  0  0
 60 59  1  0  0  0  0
 60 58  1  0  0  0  0
 63 64  1  0  0  0  0
 63 56  1  0  0  0  0
 64 60  2  0  0  0  0
M  END
>  <MODEL>
5

>  <REMARK>
 VINA RESULT:      -3.1      3.250      6.515
  Name = 
  25 active torsions:
  status: ('A' for Active; 'I' for Inactive)
    1  A    between atoms: C_2  and  C_7
    2  A    between atoms: C_2  and  C_19
    3  A    between atoms: C_3  and  C_10
    4  A    between atoms: C_6  and  O_9
    5  A    between atoms: C_6  and  C_46
    6  A    between atoms: C_7  and  O_33
    7  A    between atoms: O_9  and  P_16
    8  A    between atoms: C_10  and  N_28
    9  A    between atoms: C_15  and  C_46
   10  A    between atoms: C_15  and  C_55
   11  A    between atoms: P_16  and  O_33
   12  A    between atoms: C_17  and  C_26
   13  A    between atoms: C_19  and  C_56
   14  A    between atoms: C_21  and  C_54
   15  A    between atoms: N_28  and  C_31
   16  A    between atoms: C_30  and  C_31
   17  A    between atoms: C_30  and  C_61
   18  A    between atoms: C_32  and  C_55
   19  A    between atoms: O_35  and  C_47
   20  A    between atoms: O_35  and  O_48
   21  A    between atoms: C_41  and  C_47
   22  A    between atoms: C_43  and  C_54
   23  A    between atoms: C_44  and  C_54
   24  A    between atoms: O_48  and  N_60
   25  A    between atoms: N_60  and  C_61
                            x       y       z     vdW  Elec       q    Type
                         _______ _______ _______ _____ _____    ______ ____

>  <TORSDO>
F 25

$$$$
=
 OpenBabel11062417483D

 64 66  0  0  1  0  0  0  0  0999 V2000
  188.0470  177.2490  142.1910 C   0  0  1  0  0  3  0  0  0  0  0  0
  188.8130  177.8170  143.4270 C   0  0  2  0  0  0  0  0  0  0  0  0
  190.0340  178.0360  139.6570 O   0  0  0  0  0  0  0  0  0  0  0  0
  190.0030  178.7370  142.8970 C   0  0  2  0  0  0  0  0  0  0  0  0
  189.4490  179.7830  142.1420 O   0  0  0  0  0  1  0  0  0  0  0  0
  191.9610  178.7940  141.4540 O   0  0  0  0  0  1  0  0  0  0  0  0
  190.9280  176.9410  139.5800 C   0  0  1  0  0  3  0  0  0  0  0  0
  187.3080  178.2390  141.5360 O   0  0  0  0  0  1  0  0  0  0  0  0
  188.9080  176.4920  141.1830 C   0  0  0  0  0  2  0  0  0  0  0  0
  190.9490  177.9600  141.9550 C   0  0  2  0  0  3  0  0  0  0  0  0
  190.1750  177.2630  140.8240 C   0  0  2  0  0  0  0  0  0  0  0  0
  190.8700  179.4070  143.9970 C   0  0  1  0  0  3  0  0  0  0  0  0
  192.3220  178.9590  144.0330 C   0  0  0  0  0  1  0  0  0  0  0  0
  190.7850  180.7950  144.0070 O   0  0  0  0  0  1  0  0  0  0  0  0
  189.2570  176.5590  144.2900 C   0  0  1  0  0  3  0  0  0  0  0  0
  189.6670  175.3480  143.4410 C   0  0  0  0  0  1  0  0  0  0  0  0
  189.4700  176.4100  146.7970 C   0  0  0  0  0  1  0  0  0  0  0  0
  190.1930  176.7730  145.5100 C   0  0  1  0  0  3  0  0  0  0  0  0
  191.9890  175.3640  146.5610 O   0  0  0  0  0  1  0  0  0  0  0  0
  192.1880  176.0310  144.3840 O   0  0  0  0  0  0  0  0  0  0  0  0
  191.5110  176.0400  145.4490 C   0  0  0  0  0  0  0  0  0  0  0  0
  187.8610  178.6820  144.0690 O   0  0  0  0  0  0  0  0  0  0  0  0
  186.5520  177.9710  144.9340 P   0  0  1  0  0  0  0  0  0  0  0  0
  186.4210  176.4870  144.6860 O   0  0  0  0  0  0  0  0  0  0  0  0
  186.8240  178.2020  146.5880 O   0  0  0  0  0  1  0  0  0  0  0  0
  185.0990  178.7480  144.5200 O   0  0  0  0  0  0  0  0  0  0  0  0
  185.1040  178.8250  143.1250 C   0  0  0  0  0  2  0  0  0  0  0  0
  183.6970  178.6350  142.5960 C   0  0  0  0  0  2  0  0  0  0  0  0
  183.6210  179.1530  141.1660 C   0  0  0  0  0  2  0  0  0  0  0  0
  182.6150  178.3820  140.3090 C   0  0  2  0  0  3  0  0  0  0  0  0
  181.9840  177.3700  141.0370 O   0  0  0  0  0  1  0  0  0  0  0  0
  182.5330  178.4620  137.7800 C   0  0  0  0  0  1  0  0  0  0  0  0
  183.2060  177.8600  139.0030 C   0  0  0  0  0  2  0  0  0  0  0  0
  190.2960  175.8220  138.7550 C   0  0  0  0  0  2  0  0  0  0  0  0
  191.2520  175.2280  137.9240 O   0  0  0  0  0  0  0  0  0  0  0  0
  190.8700  173.9690  137.8020 O   0  0  0  0  0  0  0  0  0  0  0  0
  192.4580  173.8610  135.9810 C   0  0  0  0  0  0  0  0  0  0  0  0
  192.7260  173.5190  134.7970 O   0  0  0  0  0  0  0  0  0  0  0  0
  191.1410  173.6380  136.5140 N   0  0  0  0  0  0  0  0  0  0  0  0
  193.5130  174.5150  136.8310 C   0  0  2  0  0  3  0  0  0  0  0  0
  194.8980  176.4780  136.9710 F   0  0  0  0  0  0  0  0  0  0  0  0
  194.2290  175.6490  136.0830 C   0  0  0  0  0  0  0  0  0  0  0  0
  193.3050  176.3960  135.3760 F   0  0  0  0  0  0  0  0  0  0  0  0
  195.1480  175.1170  135.1900 F   0  0  0  0  0  0  0  0  0  0  0  0
  194.6990  172.4810  136.7690 O   0  0  0  0  0  0  0  0  0  0  0  0
  194.4510  173.4940  137.4040 C   0  0  0  0  0  0  0  0  0  0  0  0
  195.0620  173.7030  138.6030 F   0  0  0  0  0  0  0  0  0  0  0  0
  190.1840  172.8310  135.7550 C   0  0  0  0  0  2  0  0  0  0  0  0
  187.9560  172.7440  134.5980 C   0  0  0  0  0  1  0  0  0  0  0  0
  188.8100  173.4940  135.6080 C   0  0  0  0  0  0  0  0  0  0  0  0
  188.9490  174.9430  135.1550 C   0  0  0  0  0  1  0  0  0  0  0  0
  188.0870  173.4460  136.9490 C   0  0  0  0  0  2  0  0  0  0  0  0
  186.7090  172.9990  136.7960 N   0  0  0  0  0  2  0  0  0  0  0  0
  185.9030  175.0080  137.6560 O   0  0  0  0  0  1  0  0  0  0  0  0
  185.9040  174.1800  136.5320 C   0  0  2  0  0  3  0  0  0  0  0  0
  184.5040  173.7790  136.1820 C   0  0  0  0  0  0  0  0  0  0  0  0
  183.5560  174.7100  136.0320 C   0  0  0  0  0  3  0  0  0  0  0  0
  181.4320  173.3530  136.0210 C   0  0  0  0  0  0  0  0  0  0  0  0
  180.9840  171.5030  137.7280 C   0  0  0  0  0  1  0  0  0  0  0  0
  181.9390  172.2260  136.8430 C   0  0  0  0  0  0  0  0  0  0  0  0
  182.1390  174.4490  135.7120 C   0  0  0  0  0  3  0  0  0  0  0  0
  180.1230  173.3390  135.6610 F   0  0  0  0  0  0  0  0  0  0  0  0
  184.2390  172.3400  135.8860 C   0  0  0  0  0  2  0  0  0  0  0  0
  183.1950  171.7770  136.7950 C   0  0  0  0  0  3  0  0  0  0  0  0
  1  8  1  6  0  0  0
  1  2  1  0  0  0  0
  2 22  1  1  0  0  0
  2 15  1  0  0  0  0
  3 11  1  0  0  0  0
  4  5  1  6  0  0  0
  4  2  1  0  0  0  0
  4 12  1  0  0  0  0
  7 34  1  6  0  0  0
  7  3  1  0  0  0  0
  7 11  1  0  0  0  0
  9  1  1  0  0  0  0
 10  6  1  6  0  0  0
 10  4  1  0  0  0  0
 11  9  1  1  0  0  0
 11 10  1  0  0  0  0
 12 14  1  0  0  0  0
 12 13  1  6  0  0  0
 15 16  1  6  0  0  0
 15 18  1  0  0  0  0
 18 17  1  1  0  0  0
 20 21  2  0  0  0  0
 21 18  1  0  0  0  0
 21 19  1  0  0  0  0
 22 23  1  0  0  0  0
 23 24  2  6  0  0  0
 23 25  1  0  0  0  0
 26 23  1  0  0  0  0
 27 26  1  0  0  0  0
 28 27  1  0  0  0  0
 29 28  1  0  0  0  0
 30 31  1  1  0  0  0
 30 29  1  0  0  0  0
 32 33  1  0  0  0  0
 33 30  1  0  0  0  0
 35 34  1  0  0  0  0
 36 35  1  0  0  0  0
 37 39  1  0  0  0  0
 38 37  2  0  0  0  0
 39 36  1  0  0  0  0
 40 37  1  6  0  0  0
 40 46  1  0  0  0  0
 42 40  1  0  0  0  0
 42 41  1  0  0  0  0
 43 42  1  0  0  0  0
 44 42  1  0  0  0  0
 45 46  2  0  0  0  0
 46 47  1  0  0  0  0
 48 39  1  0  0  0  0
 49 50  1  0  0  0  0
 50 48  1  0  0  0  0
 50 52  1  0  0  0  0
 51 50  1  0  0  0  0
 53 52  1  0  0  0  0
 55 53  1  0  0  0  0
 55 54  1  1  0  0  0
 56 55  1  0  0  0  0
 57 56  2  0  0  0  0
 58 60  1  0  0  0  0
 60 59  1  0  0  0  0
 61 58  2  0  0  0  0
 61 57  1  0  0  0  0
 62 58  1  0  0  0  0
 63 56  1  0  0  0  0
 63 64  1  0  0  0  0
 64 60  2  0  0  0  0
M  END
>  <MODEL>
6

>  <REMARK>
 VINA RESULT:      -3.0      4.224      9.741
  Name = 
  25 active torsions:
  status: ('A' for Active; 'I' for Inactive)
    1  A    between atoms: C_2  and  C_7
    2  A    between atoms: C_2  and  C_19
    3  A    between atoms: C_3  and  C_10
    4  A    between atoms: C_6  and  O_9
    5  A    between atoms: C_6  and  C_46
    6  A    between atoms: C_7  and  O_33
    7  A    between atoms: O_9  and  P_16
    8  A    between atoms: C_10  and  N_28
    9  A    between atoms: C_15  and  C_46
   10  A    between atoms: C_15  and  C_55
   11  A    between atoms: P_16  and  O_33
   12  A    between atoms: C_17  and  C_26
   13  A    between atoms: C_19  and  C_56
   14  A    between atoms: C_21  and  C_54
   15  A    between atoms: N_28  and  C_31
   16  A    between atoms: C_30  and  C_31
   17  A    between atoms: C_30  and  C_61
   18  A    between atoms: C_32  and  C_55
   19  A    between atoms: O_35  and  C_47
   20  A    between atoms: O_35  and  O_48
   21  A    between atoms: C_41  and  C_47
   22  A    between atoms: C_43  and  C_54
   23  A    between atoms: C_44  and  C_54
   24  A    between atoms: O_48  and  N_60
   25  A    between atoms: N_60  and  C_61
                            x       y       z     vdW  Elec       q    Type
                         _______ _______ _______ _____ _____    ______ ____

>  <TORSDO>
F 25

$$$$
=
 OpenBabel11062417483D

 64 66  0  0  1  0  0  0  0  0999 V2000
  190.2680  176.0660  142.8930 C   0  0  1  0  0  3  0  0  0  0  0  0
  189.1660  177.1030  143.2740 C   0  0  2  0  0  0  0  0  0  0  0  0
  190.4380  176.3390  139.5930 O   0  0  0  0  0  0  0  0  0  0  0  0
  188.4490  177.5850  141.9340 C   0  0  2  0  0  0  0  0  0  0  0  0
  187.8710  176.4640  141.3160 O   0  0  0  0  0  1  0  0  0  0  0  0
  188.8220  178.5490  139.7320 O   0  0  0  0  0  1  0  0  0  0  0  0
  191.3760  177.3790  139.3910 C   0  0  1  0  0  3  0  0  0  0  0  0
  189.7180  174.8520  142.4690 O   0  0  0  0  0  1  0  0  0  0  0  0
  191.2950  176.5520  141.8730 C   0  0  0  0  0  2  0  0  0  0  0  0
  189.4580  178.1780  140.9270 C   0  0  2  0  0  3  0  0  0  0  0  0
  190.6330  177.2210  140.6710 C   0  0  2  0  0  0  0  0  0  0  0  0
  187.3020  178.6140  142.1230 C   0  0  1  0  0  3  0  0  0  0  0  0
  187.7250  180.0710  142.0360 C   0  0  0  0  0  1  0  0  0  0  0  0
  186.1970  178.3750  141.3130 O   0  0  0  0  0  1  0  0  0  0  0  0
  189.9000  178.2440  144.1020 C   0  0  1  0  0  3  0  0  0  0  0  0
  189.0690  178.7770  145.2780 C   0  0  0  0  0  1  0  0  0  0  0  0
  192.0410  179.4230  144.7180 C   0  0  0  0  0  1  0  0  0  0  0  0
  191.3990  178.0680  144.4660 C   0  0  1  0  0  3  0  0  0  0  0  0
  191.9970  175.8210  145.4200 O   0  0  0  0  0  0  0  0  0  0  0  0
  191.6230  177.5920  146.8160 O   0  0  0  0  0  1  0  0  0  0  0  0
  191.6760  177.1540  145.6340 C   0  0  0  0  0  0  0  0  0  0  0  0
  188.2040  176.3410  144.0220 O   0  0  0  0  0  0  0  0  0  0  0  0
  187.3320  177.1230  145.2850 P   0  0  1  0  0  0  0  0  0  0  0  0
  186.2090  176.2760  145.8340 O   0  0  0  0  0  0  0  0  0  0  0  0
  188.4090  177.4440  146.5500 O   0  0  0  0  0  1  0  0  0  0  0  0
  186.7110  178.6020  144.7270 O   0  0  0  0  0  0  0  0  0  0  0  0
  185.4380  178.7070  145.2930 C   0  0  0  0  0  2  0  0  0  0  0  0
  184.3830  178.5060  144.2240 C   0  0  0  0  0  2  0  0  0  0  0  0
  183.0540  179.0660  144.7140 C   0  0  0  0  0  2  0  0  0  0  0  0
  182.0110  179.1760  143.5990 C   0  0  2  0  0  3  0  0  0  0  0  0
  180.7860  178.6260  143.9820 O   0  0  0  0  0  1  0  0  0  0  0  0
  181.4890  178.8490  141.1430 C   0  0  0  0  0  1  0  0  0  0  0  0
  182.4930  178.6200  142.2620 C   0  0  0  0  0  2  0  0  0  0  0  0
  192.7910  176.8060  139.4300 C   0  0  0  0  0  2  0  0  0  0  0  0
  193.3190  176.7200  138.1370 O   0  0  0  0  0  0  0  0  0  0  0  0
  194.2980  175.8350  138.2200 O   0  0  0  0  0  0  0  0  0  0  0  0
  195.2200  174.3080  136.5870 C   0  0  0  0  0  0  0  0  0  0  0  0
  195.0370  173.4900  135.6460 O   0  0  0  0  0  0  0  0  0  0  0  0
  194.1000  174.9870  137.1790 N   0  0  0  0  0  0  0  0  0  0  0  0
  196.6150  174.5860  137.0810 C   0  0  2  0  0  3  0  0  0  0  0  0
  197.7760  174.5720  134.9740 F   0  0  0  0  0  0  0  0  0  0  0  0
  197.6790  173.9220  136.1940 C   0  0  0  0  0  0  0  0  0  0  0  0
  197.3430  172.5980  135.9770 F   0  0  0  0  0  0  0  0  0  0  0  0
  198.9130  173.9700  136.8260 F   0  0  0  0  0  0  0  0  0  0  0  0
  197.5130  174.8820  139.2380 O   0  0  0  0  0  0  0  0  0  0  0  0
  196.7490  174.2390  138.5340 C   0  0  0  0  0  0  0  0  0  0  0  0
  196.0000  173.2460  139.0870 F   0  0  0  0  0  0  0  0  0  0  0  0
  192.7400  174.5710  136.8300 C   0  0  0  0  0  2  0  0  0  0  0  0
  191.6600  174.1930  134.5940 C   0  0  0  0  0  1  0  0  0  0  0  0
  192.2080  175.2360  135.5550 C   0  0  0  0  0  0  0  0  0  0  0  0
  193.3070  176.0230  134.8510 C   0  0  0  0  0  1  0  0  0  0  0  0
  191.0630  176.1730  135.9210 C   0  0  0  0  0  2  0  0  0  0  0  0
  189.7680  175.5360  135.7190 N   0  0  0  0  0  2  0  0  0  0  0  0
  189.0720  177.6480  136.4120 O   0  0  0  0  0  1  0  0  0  0  0  0
  188.7940  176.5990  135.5340 C   0  0  2  0  0  3  0  0  0  0  0  0
  187.4120  176.0740  135.7750 C   0  0  0  0  0  0  0  0  0  0  0  0
  186.7180  176.4740  136.8450 C   0  0  0  0  0  3  0  0  0  0  0  0
  184.8060  174.8340  136.9220 C   0  0  0  0  0  0  0  0  0  0  0  0
  185.1530  172.3170  136.6370 C   0  0  0  0  0  1  0  0  0  0  0  0
  185.5110  173.7120  136.2540 C   0  0  0  0  0  0  0  0  0  0  0  0
  185.3620  176.0190  137.2100 C   0  0  0  0  0  3  0  0  0  0  0  0
  183.5530  174.6090  137.3910 F   0  0  0  0  0  0  0  0  0  0  0  0
  186.7990  175.2050  134.7280 C   0  0  0  0  0  2  0  0  0  0  0  0
  186.4090  173.8720  135.2810 C   0  0  0  0  0  3  0  0  0  0  0  0
  1  8  1  6  0  0  0
  1  2  1  0  0  0  0
  2 22  1  1  0  0  0
  2 15  1  0  0  0  0
  3 11  1  0  0  0  0
  4  5  1  6  0  0  0
  4 12  1  0  0  0  0
  4  2  1  0  0  0  0
  7 34  1  1  0  0  0
  7  3  1  0  0  0  0
  7 11  1  0  0  0  0
  9  1  1  0  0  0  0
 10  6  1  6  0  0  0
 10  4  1  0  0  0  0
 11 10  1  0  0  0  0
 11  9  1  1  0  0  0
 12 13  1  6  0  0  0
 14 12  1  0  0  0  0
 15 18  1  0  0  0  0
 15 16  1  1  0  0  0
 18 17  1  1  0  0  0
 18 21  1  0  0  0  0
 19 21  2  0  0  0  0
 21 20  1  0  0  0  0
 22 23  1  0  0  0  0
 23 24  2  1  0  0  0
 23 25  1  0  0  0  0
 26 23  1  0  0  0  0
 26 27  1  0  0  0  0
 28 29  1  0  0  0  0
 28 27  1  0  0  0  0
 30 31  1  1  0  0  0
 30 29  1  0  0  0  0
 32 33  1  0  0  0  0
 33 30  1  0  0  0  0
 35 36  1  0  0  0  0
 35 34  1  0  0  0  0
 37 39  1  0  0  0  0
 38 37  2  0  0  0  0
 39 36  1  0  0  0  0
 40 37  1  6  0  0  0
 40 46  1  0  0  0  0
 41 42  1  0  0  0  0
 42 44  1  0  0  0  0
 42 40  1  0  0  0  0
 43 42  1  0  0  0  0
 46 47  1  0  0  0  0
 46 45  2  0  0  0  0
 48 39  1  0  0  0  0
 49 50  1  0  0  0  0
 50 52  1  0  0  0  0
 50 48  1  0  0  0  0
 51 50  1  0  0  0  0
 53 52  1  0  0  0  0
 55 53  1  0  0  0  0
 55 56  1  0  0  0  0
 55 54  1  1  0  0  0
 56 57  2  0  0  0  0
 57 61  1  0  0  0  0
 58 61  2  0  0  0  0
 58 62  1  0  0  0  0
 60 59  1  0  0  0  0
 60 58  1  0  0  0  0
 63 64  1  0  0  0  0
 63 56  1  0  0  0  0
 64 60  2  0  0  0  0
M  END
>  <MODEL>
7

>  <REMARK>
 VINA RESULT:      -2.9      4.304     10.299
  Name = 
  25 active torsions:
  status: ('A' for Active; 'I' for Inactive)
    1  A    between atoms: C_2  and  C_7
    2  A    between atoms: C_2  and  C_19
    3  A    between atoms: C_3  and  C_10
    4  A    between atoms: C_6  and  O_9
    5  A    between atoms: C_6  and  C_46
    6  A    between atoms: C_7  and  O_33
    7  A    between atoms: O_9  and  P_16
    8  A    between atoms: C_10  and  N_28
    9  A    between atoms: C_15  and  C_46
   10  A    between atoms: C_15  and  C_55
   11  A    between atoms: P_16  and  O_33
   12  A    between atoms: C_17  and  C_26
   13  A    between atoms: C_19  and  C_56
   14  A    between atoms: C_21  and  C_54
   15  A    between atoms: N_28  and  C_31
   16  A    between atoms: C_30  and  C_31
   17  A    between atoms: C_30  and  C_61
   18  A    between atoms: C_32  and  C_55
   19  A    between atoms: O_35  and  C_47
   20  A    between atoms: O_35  and  O_48
   21  A    between atoms: C_41  and  C_47
   22  A    between atoms: C_43  and  C_54
   23  A    between atoms: C_44  and  C_54
   24  A    between atoms: O_48  and  N_60
   25  A    between atoms: N_60  and  C_61
                            x       y       z     vdW  Elec       q    Type
                         _______ _______ _______ _____ _____    ______ ____

>  <TORSDO>
F 25

$$$$
=
 OpenBabel11062417483D

 64 66  0  0  1  0  0  0  0  0999 V2000
  187.6710  177.6980  142.1440 C   0  0  1  0  0  3  0  0  0  0  0  0
  188.5020  177.9500  143.4410 C   0  0  2  0  0  0  0  0  0  0  0  0
  189.9120  178.0990  139.7340 O   0  0  0  0  0  0  0  0  0  0  0  0
  189.9170  178.5520  143.0180 C   0  0  2  0  0  0  0  0  0  0  0  0
  189.6970  179.7590  142.3360 O   0  0  0  0  0  1  0  0  0  0  0  0
  191.8850  178.1830  141.6360 O   0  0  0  0  0  1  0  0  0  0  0  0
  190.4860  176.8130  139.5920 C   0  0  1  0  0  3  0  0  0  0  0  0
  187.2530  178.8940  141.5510 O   0  0  0  0  0  1  0  0  0  0  0  0
  188.3470  176.8110  141.1010 C   0  0  0  0  0  2  0  0  0  0  0  0
  190.6650  177.6180  142.0420 C   0  0  2  0  0  3  0  0  0  0  0  0
  189.7890  177.2370  140.8380 C   0  0  2  0  0  0  0  0  0  0  0  0
  190.8790  178.8850  144.1910 C   0  0  1  0  0  3  0  0  0  0  0  0
  192.2950  178.3560  144.0320 C   0  0  0  0  0  1  0  0  0  0  0  0
  190.8950  180.2330  144.5350 O   0  0  0  0  0  1  0  0  0  0  0  0
  188.5550  176.5620  144.2110 C   0  0  1  0  0  3  0  0  0  0  0  0
  188.5460  175.3430  143.2780 C   0  0  0  0  0  1  0  0  0  0  0  0
  190.9720  176.5990  144.9230 C   0  0  0  0  0  1  0  0  0  0  0  0
  189.5420  176.3940  145.3970 C   0  0  1  0  0  3  0  0  0  0  0  0
  188.0110  177.3240  147.1600 O   0  0  0  0  0  1  0  0  0  0  0  0
  190.1980  177.9840  147.0830 O   0  0  0  0  0  0  0  0  0  0  0  0
  189.2750  177.2790  146.5900 C   0  0  0  0  0  0  0  0  0  0  0  0
  187.7850  178.9920  144.1250 O   0  0  0  0  0  0  0  0  0  0  0  0
  186.2330  178.6330  144.7800 P   0  0  1  0  0  0  0  0  0  0  0  0
  186.0240  177.1560  145.0190 O   0  0  0  0  0  0  0  0  0  0  0  0
  186.0900  179.4270  146.2670 O   0  0  0  0  0  1  0  0  0  0  0  0
  185.0210  179.2190  143.7440 O   0  0  0  0  0  0  0  0  0  0  0  0
  183.8130  178.8970  144.3680 C   0  0  0  0  0  2  0  0  0  0  0  0
  182.6530  179.3240  143.4910 C   0  0  0  0  0  2  0  0  0  0  0  0
  181.3760  178.6520  143.9790 C   0  0  0  0  0  2  0  0  0  0  0  0
  180.1330  179.1240  143.2220 C   0  0  2  0  0  3  0  0  0  0  0  0
  179.3140  178.0530  142.8550 O   0  0  0  0  0  1  0  0  0  0  0  0
  179.2330  180.7920  141.5430 C   0  0  0  0  0  1  0  0  0  0  0  0
  180.4530  180.0290  142.0360 C   0  0  0  0  0  2  0  0  0  0  0  0
  189.6190  175.9660  138.6640 C   0  0  0  0  0  2  0  0  0  0  0  0
  190.4130  175.3100  137.7170 O   0  0  0  0  0  0  0  0  0  0  0  0
  190.1180  174.0280  137.8450 O   0  0  0  0  0  0  0  0  0  0  0  0
  191.6690  173.4660  136.0780 C   0  0  0  0  0  0  0  0  0  0  0  0
  191.8860  172.9300  134.9570 O   0  0  0  0  0  0  0  0  0  0  0  0
  190.3380  173.4880  136.6200 N   0  0  0  0  0  0  0  0  0  0  0  0
  192.8030  174.0960  136.8400 C   0  0  2  0  0  3  0  0  0  0  0  0
  192.4200  175.8440  135.2330 F   0  0  0  0  0  0  0  0  0  0  0  0
  193.3510  175.3410  136.1280 C   0  0  0  0  0  0  0  0  0  0  0  0
  194.5070  175.0140  135.4430 F   0  0  0  0  0  0  0  0  0  0  0  0
  193.6500  176.3230  137.0620 F   0  0  0  0  0  0  0  0  0  0  0  0
  194.8220  173.4110  137.8440 O   0  0  0  0  0  0  0  0  0  0  0  0
  193.8600  173.0820  137.1660 C   0  0  0  0  0  0  0  0  0  0  0  0
  193.7410  171.7910  136.7510 F   0  0  0  0  0  0  0  0  0  0  0  0
  189.2820  172.7090  135.9690 C   0  0  0  0  0  2  0  0  0  0  0  0
  187.1770  172.8410  134.6050 C   0  0  0  0  0  1  0  0  0  0  0  0
  188.0200  173.5260  135.6700 C   0  0  0  0  0  0  0  0  0  0  0  0
  188.3770  174.9270  135.1880 C   0  0  0  0  0  1  0  0  0  0  0  0
  187.1750  173.6200  136.9350 C   0  0  0  0  0  2  0  0  0  0  0  0
  186.2590  174.7520  136.8810 N   0  0  0  0  0  2  0  0  0  0  0  0
  184.4770  173.3620  136.3190 O   0  0  0  0  0  1  0  0  0  0  0  0
  184.9500  174.2610  137.2770 C   0  0  2  0  0  3  0  0  0  0  0  0
  183.9970  175.4060  137.4280 C   0  0  0  0  0  0  0  0  0  0  0  0
  183.8890  176.3230  136.4610 C   0  0  0  0  0  3  0  0  0  0  0  0
  182.5980  178.1750  137.5810 C   0  0  0  0  0  0  0  0  0  0  0  0
  183.1780  179.0220  139.9230 C   0  0  0  0  0  1  0  0  0  0  0  0
  183.0450  177.8870  138.9670 C   0  0  0  0  0  0  0  0  0  0  0  0
  183.0100  177.5080  136.4940 C   0  0  0  0  0  3  0  0  0  0  0  0
  181.8190  179.2680  137.3780 F   0  0  0  0  0  0  0  0  0  0  0  0
  183.0970  175.4190  138.6190 C   0  0  0  0  0  2  0  0  0  0  0  0
  183.2790  176.6590  139.4320 C   0  0  0  0  0  3  0  0  0  0  0  0
  1  8  1  6  0  0  0
  1  2  1  0  0  0  0
  2 22  1  1  0  0  0
  2 15  1  0  0  0  0
  3 11  1  0  0  0  0
  4  5  1  6  0  0  0
  4  2  1  0  0  0  0
  4 12  1  0  0  0  0
  7 34  1  6  0  0  0
  7  3  1  0  0  0  0
  7 11  1  0  0  0  0
  9  1  1  0  0  0  0
 10  6  1  6  0  0  0
 10  4  1  0  0  0  0
 11  9  1  1  0  0  0
 11 10  1  0  0  0  0
 12 13  1  6  0  0  0
 12 14  1  0  0  0  0
 15 16  1  6  0  0  0
 15 18  1  0  0  0  0
 18 17  1  6  0  0  0
 18 21  1  0  0  0  0
 21 20  2  0  0  0  0
 21 19  1  0  0  0  0
 22 23  1  0  0  0  0
 23 24  2  1  0  0  0
 23 25  1  0  0  0  0
 26 27  1  0  0  0  0
 26 23  1  0  0  0  0
 28 29  1  0  0  0  0
 28 27  1  0  0  0  0
 30 31  1  6  0  0  0
 30 29  1  0  0  0  0
 32 33  1  0  0  0  0
 33 30  1  0  0  0  0
 35 36  1  0  0  0  0
 35 34  1  0  0  0  0
 37 39  1  0  0  0  0
 38 37  2  0  0  0  0
 39 36  1  0  0  0  0
 40 37  1  6  0  0  0
 40 46  1  0  0  0  0
 41 42  1  0  0  0  0
 42 40  1  0  0  0  0
 42 44  1  0  0  0  0
 43 42  1  0  0  0  0
 46 45  2  0  0  0  0
 47 46  1  0  0  0  0
 48 39  1  0  0  0  0
 49 50  1  0  0  0  0
 50 48  1  0  0  0  0
 50 52  1  0  0  0  0
 51 50  1  0  0  0  0
 53 52  1  0  0  0  0
 53 55  1  0  0  0  0
 55 54  1  6  0  0  0
 55 56  1  0  0  0  0
 56 63  1  0  0  0  0
 57 61  1  0  0  0  0
 57 56  2  0  0  0  0
 58 60  1  0  0  0  0
 60 64  2  0  0  0  0
 60 59  1  0  0  0  0
 61 58  2  0  0  0  0
 62 58  1  0  0  0  0
 63 64  1  0  0  0  0
M  END
>  <MODEL>
8

>  <REMARK>
 VINA RESULT:      -2.9      3.675      9.903
  Name = 
  25 active torsions:
  status: ('A' for Active; 'I' for Inactive)
    1  A    between atoms: C_2  and  C_7
    2  A    between atoms: C_2  and  C_19
    3  A    between atoms: C_3  and  C_10
    4  A    between atoms: C_6  and  O_9
    5  A    between atoms: C_6  and  C_46
    6  A    between atoms: C_7  and  O_33
    7  A    between atoms: O_9  and  P_16
    8  A    between atoms: C_10  and  N_28
    9  A    between atoms: C_15  and  C_46
   10  A    between atoms: C_15  and  C_55
   11  A    between atoms: P_16  and  O_33
   12  A    between atoms: C_17  and  C_26
   13  A    between atoms: C_19  and  C_56
   14  A    between atoms: C_21  and  C_54
   15  A    between atoms: N_28  and  C_31
   16  A    between atoms: C_30  and  C_31
   17  A    between atoms: C_30  and  C_61
   18  A    between atoms: C_32  and  C_55
   19  A    between atoms: O_35  and  C_47
   20  A    between atoms: O_35  and  O_48
   21  A    between atoms: C_41  and  C_47
   22  A    between atoms: C_43  and  C_54
   23  A    between atoms: C_44  and  C_54
   24  A    between atoms: O_48  and  N_60
   25  A    between atoms: N_60  and  C_61
                            x       y       z     vdW  Elec       q    Type
                         _______ _______ _______ _____ _____    ______ ____

>  <TORSDO>
F 25

$$$$
=
 OpenBabel11062417483D

 64 66  0  0  1  0  0  0  0  0999 V2000
  188.1910  177.0890  142.5180 C   0  0  1  0  0  3  0  0  0  0  0  0
  188.9620  177.6790  143.7400 C   0  0  2  0  0  0  0  0  0  0  0  0
  190.1150  177.9230  139.9510 O   0  0  0  0  0  0  0  0  0  0  0  0
  190.1180  178.6300  143.1900 C   0  0  2  0  0  0  0  0  0  0  0  0
  189.5240  179.6590  142.4430 O   0  0  0  0  0  1  0  0  0  0  0  0
  192.0500  178.7360  141.7150 O   0  0  0  0  0  1  0  0  0  0  0  0
  191.0370  176.8530  139.8610 C   0  0  1  0  0  3  0  0  0  0  0  0
  187.4160  178.0570  141.8730 O   0  0  0  0  0  1  0  0  0  0  0  0
  189.0560  176.3530  141.4970 C   0  0  0  0  0  2  0  0  0  0  0  0
  191.0690  177.8760  142.2340 C   0  0  2  0  0  3  0  0  0  0  0  0
  190.2960  177.1570  141.1160 C   0  0  2  0  0  0  0  0  0  0  0  0
  190.9850  179.3240  144.2740 C   0  0  1  0  0  3  0  0  0  0  0  0
  192.4530  178.9320  144.2740 C   0  0  0  0  0  1  0  0  0  0  0  0
  190.8470  180.7090  144.2980 O   0  0  0  0  0  1  0  0  0  0  0  0
  189.4530  176.4350  144.5980 C   0  0  1  0  0  3  0  0  0  0  0  0
  189.6130  175.1490  143.7750 C   0  0  0  0  0  1  0  0  0  0  0  0
  190.0560  176.5850  147.0410 C   0  0  0  0  0  1  0  0  0  0  0  0
  190.6030  176.6320  145.6230 C   0  0  1  0  0  3  0  0  0  0  0  0
  192.3660  175.1490  146.6280 O   0  0  0  0  0  1  0  0  0  0  0  0
  192.1670  175.3090  144.3560 O   0  0  0  0  0  0  0  0  0  0  0  0
  191.7530  175.6640  145.4950 C   0  0  0  0  0  0  0  0  0  0  0  0
  187.9970  178.5200  144.3960 O   0  0  0  0  0  0  0  0  0  0  0  0
  186.9160  177.8060  145.5310 P   0  0  1  0  0  0  0  0  0  0  0  0
  186.8110  176.3070  145.3790 O   0  0  0  0  0  0  0  0  0  0  0  0
  187.4930  178.1320  147.0880 O   0  0  0  0  0  1  0  0  0  0  0  0
  185.3760  178.5040  145.3770 O   0  0  0  0  0  0  0  0  0  0  0  0
  185.5800  179.7070  144.6960 C   0  0  0  0  0  2  0  0  0  0  0  0
  185.1000  179.5740  143.2650 C   0  0  0  0  0  2  0  0  0  0  0  0
  183.6000  179.8340  143.2090 C   0  0  0  0  0  2  0  0  0  0  0  0
  182.7780  178.5460  143.1290 C   0  0  2  0  0  3  0  0  0  0  0  0
  182.2730  178.3340  141.8440 O   0  0  0  0  0  1  0  0  0  0  0  0
  180.3140  178.8150  143.6470 C   0  0  0  0  0  1  0  0  0  0  0  0
  181.6880  178.4570  144.1930 C   0  0  0  0  0  2  0  0  0  0  0  0
  190.4220  175.7160  139.0480 C   0  0  0  0  0  2  0  0  0  0  0  0
  189.7680  176.2210  137.9190 O   0  0  0  0  0  0  0  0  0  0  0  0
  190.7330  176.5270  137.0680 O   0  0  0  0  0  0  0  0  0  0  0  0
  191.5440  174.8030  135.5790 C   0  0  0  0  0  0  0  0  0  0  0  0
  191.3390  174.0300  134.6040 O   0  0  0  0  0  0  0  0  0  0  0  0
  190.5230  175.7280  135.9910 N   0  0  0  0  0  0  0  0  0  0  0  0
  192.8630  174.7660  136.3030 C   0  0  2  0  0  3  0  0  0  0  0  0
  193.5760  176.3680  134.6560 F   0  0  0  0  0  0  0  0  0  0  0  0
  194.0080  175.3050  135.4340 C   0  0  0  0  0  0  0  0  0  0  0  0
  194.4770  174.3020  134.6060 F   0  0  0  0  0  0  0  0  0  0  0  0
  195.0490  175.7370  136.2430 F   0  0  0  0  0  0  0  0  0  0  0  0
  193.7500  173.2880  137.9080 O   0  0  0  0  0  0  0  0  0  0  0  0
  193.1320  173.3990  136.8610 C   0  0  0  0  0  0  0  0  0  0  0  0
  192.6590  172.2850  136.2370 F   0  0  0  0  0  0  0  0  0  0  0  0
  189.1820  175.6250  135.4130 C   0  0  0  0  0  2  0  0  0  0  0  0
  189.2410  173.5660  136.8510 C   0  0  0  0  0  1  0  0  0  0  0  0
  188.3760  174.4390  135.9570 C   0  0  0  0  0  0  0  0  0  0  0  0
  187.8260  173.5850  134.8200 C   0  0  0  0  0  1  0  0  0  0  0  0
  187.2220  174.9660  136.8030 C   0  0  0  0  0  2  0  0  0  0  0  0
  185.9490  174.8420  136.1060 N   0  0  0  0  0  2  0  0  0  0  0  0
  186.3630  177.1160  136.3940 O   0  0  0  0  0  1  0  0  0  0  0  0
  185.4640  176.1910  135.8610 C   0  0  2  0  0  3  0  0  0  0  0  0
  184.1100  176.3670  136.4760 C   0  0  0  0  0  0  0  0  0  0  0  0
  183.9800  177.0180  137.6370 C   0  0  0  0  0  3  0  0  0  0  0  0
  181.6220  176.4620  138.3330 C   0  0  0  0  0  0  0  0  0  0  0  0
  180.6930  174.0820  138.2270 C   0  0  0  0  0  1  0  0  0  0  0  0
  181.5360  175.1560  137.6320 C   0  0  0  0  0  0  0  0  0  0  0  0
  182.7120  177.2410  138.3590 C   0  0  0  0  0  3  0  0  0  0  0  0
  180.5740  176.8370  139.1090 F   0  0  0  0  0  0  0  0  0  0  0  0
  182.9200  175.9110  135.7000 C   0  0  0  0  0  2  0  0  0  0  0  0
  182.1230  174.9020  136.4600 C   0  0  0  0  0  3  0  0  0  0  0  0
  1  8  1  6  0  0  0
  1  2  1  0  0  0  0
  2 22  1  1  0  0  0
  2 15  1  0  0  0  0
  3 11  1  0  0  0  0
  4  5  1  6  0  0  0
  4  2  1  0  0  0  0
  4 12  1  0  0  0  0
  7 34  1  6  0  0  0
  7  3  1  0  0  0  0
  7 11  1  0  0  0  0
  9  1  1  0  0  0  0
 10  6  1  6  0  0  0
 10  4  1  0  0  0  0
 11  9  1  1  0  0  0
 11 10  1  0  0  0  0
 12 13  1  6  0  0  0
 12 14  1  0  0  0  0
 15 16  1  6  0  0  0
 15 18  1  0  0  0  0
 18 17  1  1  0  0  0
 20 21  2  0  0  0  0
 21 18  1  0  0  0  0
 21 19  1  0  0  0  0
 22 23  1  0  0  0  0
 23 24  2  6  0  0  0
 23 25  1  0  0  0  0
 26 23  1  0  0  0  0
 27 26  1  0  0  0  0
 28 27  1  0  0  0  0
 29 28  1  0  0  0  0
 30 31  1  6  0  0  0
 30 29  1  0  0  0  0
 30 33  1  0  0  0  0
 32 33  1  0  0  0  0
 35 34  1  0  0  0  0
 36 35  1  0  0  0  0
 37 39  1  0  0  0  0
 38 37  2  0  0  0  0
 39 36  1  0  0  0  0
 40 37  1  6  0  0  0
 40 46  1  0  0  0  0
 41 42  1  0  0  0  0
 42 44  1  0  0  0  0
 42 40  1  0  0  0  0
 43 42  1  0  0  0  0
 46 45  2  0  0  0  0
 47 46  1  0  0  0  0
 48 50  1  0  0  0  0
 48 39  1  0  0  0  0
 50 52  1  0  0  0  0
 50 49  1  0  0  0  0
 51 50  1  0  0  0  0
 53 52  1  0  0  0  0
 55 53  1  0  0  0  0
 55 54  1  1  0  0  0
 55 56  1  0  0  0  0
 56 57  2  0  0  0  0
 57 61  1  0  0  0  0
 58 61  2  0  0  0  0
 58 62  1  0  0  0  0
 60 59  1  0  0  0  0
 60 58  1  0  0  0  0
 63 64  1  0  0  0  0
 63 56  1  0  0  0  0
 64 60  2  0  0  0  0
M  END
>  <MODEL>
9

>  <REMARK>
 VINA RESULT:      -2.9      4.047      9.620
  Name = 
  25 active torsions:
  status: ('A' for Active; 'I' for Inactive)
    1  A    between atoms: C_2  and  C_7
    2  A    between atoms: C_2  and  C_19
    3  A    between atoms: C_3  and  C_10
    4  A    between atoms: C_6  and  O_9
    5  A    between atoms: C_6  and  C_46
    6  A    between atoms: C_7  and  O_33
    7  A    between atoms: O_9  and  P_16
    8  A    between atoms: C_10  and  N_28
    9  A    between atoms: C_15  and  C_46
   10  A    between atoms: C_15  and  C_55
   11  A    between atoms: P_16  and  O_33
   12  A    between atoms: C_17  and  C_26
   13  A    between atoms: C_19  and  C_56
   14  A    between atoms: C_21  and  C_54
   15  A    between atoms: N_28  and  C_31
   16  A    between atoms: C_30  and  C_31
   17  A    between atoms: C_30  and  C_61
   18  A    between atoms: C_32  and  C_55
   19  A    between atoms: O_35  and  C_47
   20  A    between atoms: O_35  and  O_48
   21  A    between atoms: C_41  and  C_47
   22  A    between atoms: C_43  and  C_54
   23  A    between atoms: C_44  and  C_54
   24  A    between atoms: O_48  and  N_60
   25  A    between atoms: N_60  and  C_61
                            x       y       z     vdW  Elec       q    Type
                         _______ _______ _______ _____ _____    ______ ____

>  <TORSDO>
F 25

$$$$
