=
 OpenBabel11062415463D

 27 31  0  0  1  0  0  0  0  0999 V2000
  188.7270  179.8100  137.3420 O   0  0  0  0  0  0  0  0  0  0  0  0
  192.2810  174.1620  137.5570 C   0  0  0  0  0  1  0  0  0  0  0  0
  189.8710  174.5650  134.6790 C   0  0  0  0  0  3  0  0  0  0  0  0
  191.4140  176.8870  137.8200 O   0  0  0  0  0  0  0  0  0  0  0  0
  187.9920  177.7370  140.7440 C   0  0  0  0  0  2  0  0  0  0  0  0
  190.7870  174.0110  135.5750 C   0  0  0  0  0  3  0  0  0  0  0  0
  189.4310  175.8780  134.8530 C   0  0  0  0  0  3  0  0  0  0  0  0
  189.8940  176.6470  135.9240 C   0  0  0  0  0  0  0  0  0  0  0  0
  188.7730  177.7290  138.5250 C   0  0  2  0  0  3  0  0  0  0  0  0
  188.9520  178.5710  137.2980 C   0  0  0  0  0  0  0  0  0  0  0  0
  187.5740  178.1100  139.3440 C   0  0  0  0  0  2  0  0  0  0  0  0
  191.2780  174.7720  136.6400 C   0  0  0  0  0  0  0  0  0  0  0  0
  190.9740  176.7790  139.1670 C   0  0  0  0  0  2  0  0  0  0  0  0
  189.4370  177.9620  140.8480 N   0  0  2  0  0  0  0  0  0  0  0  0
  190.8510  176.1020  136.8120 C   0  0  0  0  0  0  0  0  0  0  0  0
  189.9520  177.8830  139.4590 C   0  0  2  0  0  3  0  0  0  0  0  0
  189.3920  177.9830  136.0680 N   0  0  0  0  0  2  0  0  0  0  0  0
  190.0370  176.9960  141.7900 C   0  0  1  0  0  3  0  0  0  0  0  0
  190.7970  177.7350  142.8800 C   0  0  0  0  0  2  0  0  0  0  0  0
  188.9660  176.2210  142.5560 C   0  0  0  0  0  2  0  0  0  0  0  0
  189.7860  178.0240  143.9720 C   0  0  1  0  0  3  0  0  0  0  0  0
  188.6790  176.9930  143.8300 C   0  0  0  0  0  2  0  0  0  0  0  0
  189.4900  177.6040  146.3680 N   0  0  0  0  0  2  0  0  0  0  0  0
  190.2790  176.8280  147.3100 C   0  0  0  0  0  2  0  0  0  0  0  0
  191.6350  177.1030  145.4540 C   0  0  0  0  0  2  0  0  0  0  0  0
  191.4220  176.2550  146.6120 N   0  0  0  0  0  2  0  0  0  0  0  0
  190.4390  178.0280  145.3560 C   0  0  1  0  0  3  0  0  0  0  0  0
  3  7  2  0  0  0  0
  3  6  1  0  0  0  0
  4 13  1  0  0  0  0
  6 12  2  0  0  0  0
  7  8  1  0  0  0  0
  8 17  1  0  0  0  0
  8 15  2  0  0  0  0
  9 11  1  1  0  0  0
  9 16  1  0  0  0  0
 10  1  2  0  0  0  0
 10  9  1  0  0  0  0
 11  5  1  0  0  0  0
 12 15  1  0  0  0  0
 12  2  1  0  0  0  0
 14  5  1  6  0  0  0
 14 18  1  0  0  0  0
 15  4  1  0  0  0  0
 16 13  1  1  0  0  0
 16 14  1  0  0  0  0
 17 10  1  0  0  0  0
 18 20  1  1  0  0  0
 18 19  1  0  0  0  0
 20 22  1  0  0  0  0
 21 19  1  6  0  0  0
 21 27  1  0  0  0  0
 22 21  1  0  0  0  0
 23 24  1  0  0  0  0
 25 26  1  0  0  0  0
 26 24  1  0  0  0  0
 27 25  1  6  0  0  0
 27 23  1  0  0  0  0
M  END
>  <MODEL>
1

>  <REMARK>
 VINA RESULT:      -7.8      0.000      0.000
  Name = 
  2 active torsions:
  status: ('A' for Active; 'I' for Inactive)
    1  A    between atoms: C_2  and  N_22
    2  A    between atoms: C_19  and  C_24
                            x       y       z     vdW  Elec       q    Type
                         _______ _______ _______ _____ _____    ______ ____

>  <TORSDO>
F 2

$$$$
=
 OpenBabel11062415463D

 27 31  0  0  1  0  0  0  0  0999 V2000
  188.9410  179.2010  137.6990 O   0  0  0  0  0  0  0  0  0  0  0  0
  186.8460  177.4380  143.7880 C   0  0  0  0  0  1  0  0  0  0  0  0
  190.1180  175.9710  142.6070 C   0  0  0  0  0  3  0  0  0  0  0  0
  187.3570  178.8780  141.3560 O   0  0  0  0  0  0  0  0  0  0  0  0
  185.3450  177.3440  137.5380 C   0  0  0  0  0  2  0  0  0  0  0  0
  188.9740  176.2240  143.3660 C   0  0  0  0  0  3  0  0  0  0  0  0
  190.3220  176.6520  141.4060 C   0  0  0  0  0  3  0  0  0  0  0  0
  189.3870  177.5840  140.9480 C   0  0  0  0  0  0  0  0  0  0  0  0
  187.3330  177.7550  138.7250 C   0  0  2  0  0  3  0  0  0  0  0  0
  188.6660  178.4360  138.6610 C   0  0  0  0  0  0  0  0  0  0  0  0
  186.8440  177.2700  137.3920 C   0  0  0  0  0  2  0  0  0  0  0  0
  188.0380  177.1680  142.9360 C   0  0  0  0  0  0  0  0  0  0  0  0
  186.1180  178.5680  140.7310 C   0  0  0  0  0  2  0  0  0  0  0  0
  185.0420  178.4880  138.4030 N   0  0  2  0  0  0  0  0  0  0  0  0
  188.2460  177.8700  141.7350 C   0  0  0  0  0  0  0  0  0  0  0  0
  186.2650  178.7080  139.2130 C   0  0  2  0  0  3  0  0  0  0  0  0
  189.6360  178.2390  139.6970 N   0  0  0  0  0  2  0  0  0  0  0  0
  183.8160  178.2260  139.1850 C   0  0  1  0  0  3  0  0  0  0  0  0
  182.9360  179.4650  139.2040 C   0  0  0  0  0  2  0  0  0  0  0  0
  182.9400  177.1680  138.5160 C   0  0  0  0  0  2  0  0  0  0  0  0
  182.0550  179.3710  137.9750 C   0  0  1  0  0  3  0  0  0  0  0  0
  181.9720  177.8990  137.6050 C   0  0  0  0  0  2  0  0  0  0  0  0
  180.4750  180.2480  139.6290 N   0  0  0  0  0  2  0  0  0  0  0  0
  179.7500  181.5070  139.6900 C   0  0  0  0  0  2  0  0  0  0  0  0
  180.5260  181.3500  137.5150 C   0  0  0  0  0  2  0  0  0  0  0  0
  180.0810  182.3030  138.5160 N   0  0  0  0  0  2  0  0  0  0  0  0
  180.6870  180.0160  138.2130 C   0  0  1  0  0  3  0  0  0  0  0  0
  1 10  2  0  0  0  0
  3  6  1  0  0  0  0
  4 15  1  0  0  0  0
  7  3  2  0  0  0  0
  8  7  1  0  0  0  0
  8 15  2  0  0  0  0
  9 11  1  6  0  0  0
  9 16  1  0  0  0  0
 10  9  1  0  0  0  0
 10 17  1  0  0  0  0
 11  5  1  0  0  0  0
 12  6  2  0  0  0  0
 12  2  1  0  0  0  0
 13  4  1  0  0  0  0
 14  5  1  6  0  0  0
 14 18  1  0  0  0  0
 14 16  1  0  0  0  0
 15 12  1  0  0  0  0
 16 13  1  1  0  0  0
 17  8  1  0  0  0  0
 18 20  1  6  0  0  0
 18 19  1  0  0  0  0
 21 22  1  1  0  0  0
 21 27  1  0  0  0  0
 21 19  1  0  0  0  0
 22 20  1  0  0  0  0
 23 24  1  0  0  0  0
 25 26  1  0  0  0  0
 26 24  1  0  0  0  0
 27 25  1  6  0  0  0
 27 23  1  0  0  0  0
M  END
>  <MODEL>
2

>  <REMARK>
 VINA RESULT:      -7.3      4.685      8.135
  Name = 
  2 active torsions:
  status: ('A' for Active; 'I' for Inactive)
    1  A    between atoms: C_2  and  N_22
    2  A    between atoms: C_19  and  C_24
                            x       y       z     vdW  Elec       q    Type
                         _______ _______ _______ _____ _____    ______ ____

>  <TORSDO>
F 2

$$$$
=
 OpenBabel11062415463D

 27 31  0  0  1  0  0  0  0  0999 V2000
  184.5470  180.1170  139.7410 O   0  0  0  0  0  0  0  0  0  0  0  0
  188.6730  175.5450  137.1620 C   0  0  0  0  0  1  0  0  0  0  0  0
  185.0500  175.3690  136.1200 C   0  0  0  0  0  3  0  0  0  0  0  0
  187.5700  177.9600  138.2580 O   0  0  0  0  0  0  0  0  0  0  0  0
  186.2630  177.8760  142.6470 C   0  0  0  0  0  2  0  0  0  0  0  0
  186.3980  175.0520  136.2910 C   0  0  0  0  0  3  0  0  0  0  0  0
  184.5260  176.5260  136.6990 C   0  0  0  0  0  3  0  0  0  0  0  0
  185.3390  177.3720  137.4590 C   0  0  0  0  0  0  0  0  0  0  0  0
  185.6610  178.0980  140.3840 C   0  0  2  0  0  3  0  0  0  0  0  0
  184.9540  178.9760  139.3970 C   0  0  0  0  0  0  0  0  0  0  0  0
  185.0720  178.1530  141.7640 C   0  0  0  0  0  2  0  0  0  0  0  0
  187.2310  175.8960  137.0290 C   0  0  0  0  0  0  0  0  0  0  0  0
  187.9850  177.7250  139.5970 C   0  0  0  0  0  2  0  0  0  0  0  0
  187.4410  178.4570  141.9960 N   0  0  2  0  0  0  0  0  0  0  0  0
  186.7150  177.0730  137.6020 C   0  0  0  0  0  0  0  0  0  0  0  0
  187.1010  178.5300  140.5530 C   0  0  2  0  0  3  0  0  0  0  0  0
  184.7450  178.5350  138.0490 N   0  0  0  0  0  2  0  0  0  0  0  0
  188.6440  177.6600  142.3120 C   0  0  1  0  0  3  0  0  0  0  0  0
  189.5460  178.4330  143.2600 C   0  0  0  0  0  2  0  0  0  0  0  0
  188.2890  176.3980  143.0960 C   0  0  0  0  0  2  0  0  0  0  0  0
  189.0720  178.0930  144.6590 C   0  0  1  0  0  3  0  0  0  0  0  0
  188.3690  176.7480  144.5700 C   0  0  0  0  0  2  0  0  0  0  0  0
  189.8540  177.4100  146.8780 N   0  0  0  0  0  2  0  0  0  0  0  0
  191.0710  176.7340  147.3000 C   0  0  0  0  0  2  0  0  0  0  0  0
  191.4840  177.4480  145.1380 C   0  0  0  0  0  2  0  0  0  0  0  0
  191.8990  176.4750  146.1310 N   0  0  0  0  0  2  0  0  0  0  0  0
  190.2270  178.1100  145.6630 C   0  0  1  0  0  3  0  0  0  0  0  0
  3  6  2  0  0  0  0
  3  7  1  0  0  0  0
  4 13  1  0  0  0  0
  6 12  1  0  0  0  0
  7  8  2  0  0  0  0
  8 15  1  0  0  0  0
  8 17  1  0  0  0  0
  9 16  1  0  0  0  0
  9 11  1  1  0  0  0
 10  1  2  0  0  0  0
 10  9  1  0  0  0  0
 11  5  1  0  0  0  0
 12  2  1  0  0  0  0
 12 15  2  0  0  0  0
 14 18  1  0  0  0  0
 14  5  1  1  0  0  0
 15  4  1  0  0  0  0
 16 13  1  6  0  0  0
 16 14  1  0  0  0  0
 17 10  1  0  0  0  0
 18 20  1  1  0  0  0
 18 19  1  0  0  0  0
 20 22  1  0  0  0  0
 21 19  1  6  0  0  0
 21 27  1  0  0  0  0
 22 21  1  0  0  0  0
 23 24  1  0  0  0  0
 25 26  1  0  0  0  0
 26 24  1  0  0  0  0
 27 25  1  6  0  0  0
 27 23  1  0  0  0  0
M  END
>  <MODEL>
3

>  <REMARK>
 VINA RESULT:      -7.1      2.555      3.346
  Name = 
  2 active torsions:
  status: ('A' for Active; 'I' for Inactive)
    1  A    between atoms: C_2  and  N_22
    2  A    between atoms: C_19  and  C_24
                            x       y       z     vdW  Elec       q    Type
                         _______ _______ _______ _____ _____    ______ ____

>  <TORSDO>
F 2

$$$$
=
 OpenBabel11062415463D

 27 31  0  0  1  0  0  0  0  0999 V2000
  185.7130  179.8530  146.2280 O   0  0  0  0  0  0  0  0  0  0  0  0
  183.4950  178.2740  140.1320 C   0  0  0  0  0  1  0  0  0  0  0  0
  180.9380  178.4130  142.9050 C   0  0  0  0  0  3  0  0  0  0  0  0
  184.9830  179.3800  142.3240 O   0  0  0  0  0  0  0  0  0  0  0  0
  187.4880  176.4870  144.8410 C   0  0  0  0  0  2  0  0  0  0  0  0
  181.5390  178.1940  141.6650 C   0  0  0  0  0  3  0  0  0  0  0  0
  181.6930  178.9100  143.9680 C   0  0  0  0  0  3  0  0  0  0  0  0
  183.0530  179.1870  143.8070 C   0  0  0  0  0  0  0  0  0  0  0  0
  185.6830  177.9900  144.7250 C   0  0  2  0  0  3  0  0  0  0  0  0
  185.0800  179.2130  145.3470 C   0  0  0  0  0  0  0  0  0  0  0  0
  186.4270  177.1260  145.7010 C   0  0  0  0  0  2  0  0  0  0  0  0
  182.8930  178.4860  141.4780 C   0  0  0  0  0  0  0  0  0  0  0  0
  186.0270  178.4150  142.3030 C   0  0  0  0  0  2  0  0  0  0  0  0
  187.8700  177.4600  143.8130 N   0  0  2  0  0  0  0  0  0  0  0  0
  183.6560  179.0030  142.5410 C   0  0  0  0  0  0  0  0  0  0  0  0
  186.7050  178.3690  143.6760 C   0  0  2  0  0  3  0  0  0  0  0  0
  183.7860  179.6750  144.9390 N   0  0  0  0  0  2  0  0  0  0  0  0
  188.2640  176.7630  142.5720 C   0  0  1  0  0  3  0  0  0  0  0  0
  188.9730  177.7280  141.6350 C   0  0  0  0  0  2  0  0  0  0  0  0
  189.3120  175.6850  142.8430 C   0  0  0  0  0  2  0  0  0  0  0  0
  190.4400  177.6780  142.0150 C   0  0  1  0  0  3  0  0  0  0  0  0
  190.6750  176.3340  142.6840 C   0  0  0  0  0  2  0  0  0  0  0  0
  192.5950  177.2020  140.9510 N   0  0  0  0  0  2  0  0  0  0  0  0
  192.9230  176.7530  139.6070 C   0  0  0  0  0  2  0  0  0  0  0  0
  190.7220  177.4620  139.4970 C   0  0  0  0  0  2  0  0  0  0  0  0
  191.6920  176.6030  138.8440 N   0  0  0  0  0  2  0  0  0  0  0  0
  191.3420  177.9180  140.8020 C   0  0  1  0  0  3  0  0  0  0  0  0
  2 12  1  0  0  0  0
  3  7  1  0  0  0  0
  4 15  1  0  0  0  0
  5 11  1  0  0  0  0
  6  3  2  0  0  0  0
  8  7  2  0  0  0  0
  8 17  1  0  0  0  0
  9 10  1  0  0  0  0
  9 11  1  1  0  0  0
 10  1  2  0  0  0  0
 12  6  1  0  0  0  0
 12 15  2  0  0  0  0
 13  4  1  0  0  0  0
 14  5  1  1  0  0  0
 15  8  1  0  0  0  0
 16 13  1  6  0  0  0
 16 14  1  0  0  0  0
 16  9  1  0  0  0  0
 17 10  1  0  0  0  0
 18 19  1  6  0  0  0
 18 20  1  0  0  0  0
 18 14  1  0  0  0  0
 21 19  1  6  0  0  0
 21 22  1  0  0  0  0
 22 20  1  0  0  0  0
 24 23  1  0  0  0  0
 26 25  1  0  0  0  0
 26 24  1  0  0  0  0
 27 25  1  6  0  0  0
 27 23  1  0  0  0  0
 27 21  1  0  0  0  0
M  END
>  <MODEL>
4

>  <REMARK>
 VINA RESULT:      -6.5      4.373      7.817
  Name = 
  2 active torsions:
  status: ('A' for Active; 'I' for Inactive)
    1  A    between atoms: C_2  and  N_22
    2  A    between atoms: C_19  and  C_24
                            x       y       z     vdW  Elec       q    Type
                         _______ _______ _______ _____ _____    ______ ____

>  <TORSDO>
F 2

$$$$
=
 OpenBabel11062415463D

 27 31  0  0  1  0  0  0  0  0999 V2000
  187.8140  176.5980  147.7750 O   0  0  0  0  0  0  0  0  0  0  0  0
  189.5770  177.2350  141.3670 C   0  0  0  0  0  1  0  0  0  0  0  0
  192.1660  178.1480  143.9580 C   0  0  0  0  0  3  0  0  0  0  0  0
  188.3660  176.3640  143.8210 O   0  0  0  0  0  0  0  0  0  0  0  0
  185.4070  179.2190  145.8390 C   0  0  0  0  0  2  0  0  0  0  0  0
  191.5110  177.9880  142.7360 C   0  0  0  0  0  3  0  0  0  0  0  0
  191.5390  177.7570  145.1420 C   0  0  0  0  0  3  0  0  0  0  0  0
  190.2530  177.2110  145.1190 C   0  0  0  0  0  0  0  0  0  0  0  0
  187.4620  178.0770  145.9260 C   0  0  2  0  0  3  0  0  0  0  0  0
  188.2970  177.1430  146.7470 C   0  0  0  0  0  0  0  0  0  0  0  0
  186.5860  178.9780  146.7480 C   0  0  0  0  0  2  0  0  0  0  0  0
  190.2330  177.4240  142.6910 C   0  0  0  0  0  0  0  0  0  0  0  0
  187.1590  177.0970  143.6650 C   0  0  0  0  0  2  0  0  0  0  0  0
  185.1980  177.9990  145.0540 N   0  0  2  0  0  0  0  0  0  0  0  0
  189.6020  177.0120  143.8790 C   0  0  0  0  0  0  0  0  0  0  0  0
  186.5100  177.3070  145.0370 C   0  0  2  0  0  3  0  0  0  0  0  0
  189.6470  176.8470  146.3670 N   0  0  0  0  0  2  0  0  0  0  0  0
  184.6550  178.3360  143.7220 C   0  0  1  0  0  3  0  0  0  0  0  0
  183.1890  177.9410  143.6420 C   0  0  0  0  0  2  0  0  0  0  0  0
  184.6380  179.8460  143.4900 C   0  0  0  0  0  2  0  0  0  0  0  0
  182.4060  179.1340  144.1560 C   0  0  1  0  0  3  0  0  0  0  0  0
  183.2870  180.3560  143.9580 C   0  0  0  0  0  2  0  0  0  0  0  0
  181.1790  179.0630  142.0370 N   0  0  0  0  0  2  0  0  0  0  0  0
  179.9810  178.3370  141.6460 C   0  0  0  0  0  2  0  0  0  0  0  0
  180.0410  178.2230  143.9570 C   0  0  0  0  0  2  0  0  0  0  0  0
  179.5050  177.5610  142.7820 N   0  0  0  0  0  2  0  0  0  0  0  0
  181.0430  179.2490  143.4690 C   0  0  1  0  0  3  0  0  0  0  0  0
  2 12  1  0  0  0  0
  3  7  1  0  0  0  0
  4 15  1  0  0  0  0
  5 11  1  0  0  0  0
  6  3  2  0  0  0  0
  8  7  2  0  0  0  0
  8 17  1  0  0  0  0
  9 10  1  0  0  0  0
  9 11  1  1  0  0  0
 10  1  2  0  0  0  0
 12  6  1  0  0  0  0
 12 15  2  0  0  0  0
 13  4  1  0  0  0  0
 14  5  1  1  0  0  0
 15  8  1  0  0  0  0
 16 13  1  6  0  0  0
 16 14  1  0  0  0  0
 16  9  1  0  0  0  0
 17 10  1  0  0  0  0
 18 20  1  1  0  0  0
 18 14  1  0  0  0  0
 19 18  1  0  0  0  0
 20 22  1  0  0  0  0
 21 19  1  6  0  0  0
 22 21  1  0  0  0  0
 23 27  1  0  0  0  0
 24 23  1  0  0  0  0
 24 26  1  0  0  0  0
 26 25  1  0  0  0  0
 27 25  1  1  0  0  0
 27 21  1  0  0  0  0
M  END
>  <MODEL>
5

>  <REMARK>
 VINA RESULT:      -6.3      5.326      8.536
  Name = 
  2 active torsions:
  status: ('A' for Active; 'I' for Inactive)
    1  A    between atoms: C_2  and  N_22
    2  A    between atoms: C_19  and  C_24
                            x       y       z     vdW  Elec       q    Type
                         _______ _______ _______ _____ _____    ______ ____

>  <TORSDO>
F 2

$$$$
=
 OpenBabel11062415463D

 27 31  0  0  1  0  0  0  0  0999 V2000
  186.8780  177.9270  135.1190 O   0  0  0  0  0  0  0  0  0  0  0  0
  188.4460  178.1690  141.6040 C   0  0  0  0  0  1  0  0  0  0  0  0
  190.9010  176.4530  139.3080 C   0  0  0  0  0  3  0  0  0  0  0  0
  187.4100  178.7650  138.9930 O   0  0  0  0  0  0  0  0  0  0  0  0
  184.0820  176.0620  137.3810 C   0  0  0  0  0  2  0  0  0  0  0  0
  190.2630  176.9170  140.4590 C   0  0  0  0  0  3  0  0  0  0  0  0
  190.3550  176.7180  138.0520 C   0  0  0  0  0  3  0  0  0  0  0  0
  189.1640  177.4400  137.9320 C   0  0  0  0  0  0  0  0  0  0  0  0
  186.2850  176.8610  137.1790 C   0  0  2  0  0  3  0  0  0  0  0  0
  187.2610  177.5060  136.2430 C   0  0  0  0  0  0  0  0  0  0  0  0
  185.2950  175.9670  136.4900 C   0  0  0  0  0  2  0  0  0  0  0  0
  189.0830  177.6590  140.3580 C   0  0  0  0  0  0  0  0  0  0  0  0
  186.1040  178.2530  139.2260 C   0  0  0  0  0  2  0  0  0  0  0  0
  184.0480  177.4170  137.9380 N   0  0  2  0  0  0  0  0  0  0  0  0
  188.5350  177.9440  139.0940 C   0  0  0  0  0  0  0  0  0  0  0  0
  185.4480  177.9030  137.8860 C   0  0  2  0  0  3  0  0  0  0  0  0
  188.6350  177.6640  136.6180 N   0  0  0  0  0  2  0  0  0  0  0  0
  183.4440  177.4000  139.2860 C   0  0  1  0  0  3  0  0  0  0  0  0
  182.5340  178.6040  139.4640 C   0  0  0  0  0  2  0  0  0  0  0  0
  182.5080  176.2060  139.4650 C   0  0  0  0  0  2  0  0  0  0  0  0
  181.1710  178.1770  138.9550 C   0  0  1  0  0  3  0  0  0  0  0  0
  181.1180  176.6620  139.0580 C   0  0  0  0  0  2  0  0  0  0  0  0
  180.0670  178.5080  141.1170 N   0  0  0  0  0  2  0  0  0  0  0  0
  179.6860  179.7200  141.8240 C   0  0  0  0  0  2  0  0  0  0  0  0
  180.1310  180.3890  139.6530 C   0  0  0  0  0  2  0  0  0  0  0  0
  180.0570  180.8750  141.0190 N   0  0  0  0  0  2  0  0  0  0  0  0
  180.0430  178.8780  139.7150 C   0  0  1  0  0  3  0  0  0  0  0  0
  1 10  2  0  0  0  0
  3  6  1  0  0  0  0
  4 15  1  0  0  0  0
  4 13  1  0  0  0  0
  7  3  2  0  0  0  0
  8  7  1  0  0  0  0
  8 15  2  0  0  0  0
  9 11  1  6  0  0  0
  9 16  1  0  0  0  0
 10 17  1  0  0  0  0
 10  9  1  0  0  0  0
 11  5  1  0  0  0  0
 12  6  2  0  0  0  0
 12  2  1  0  0  0  0
 14  5  1  1  0  0  0
 14 18  1  0  0  0  0
 15 12  1  0  0  0  0
 16 14  1  0  0  0  0
 16 13  1  1  0  0  0
 17  8  1  0  0  0  0
 18 19  1  6  0  0  0
 18 20  1  0  0  0  0
 21 22  1  1  0  0  0
 21 19  1  0  0  0  0
 21 27  1  0  0  0  0
 22 20  1  0  0  0  0
 23 24  1  0  0  0  0
 25 26  1  0  0  0  0
 26 24  1  0  0  0  0
 27 25  1  1  0  0  0
 27 23  1  0  0  0  0
M  END
>  <MODEL>
6

>  <REMARK>
 VINA RESULT:      -6.2      4.904      7.387
  Name = 
  2 active torsions:
  status: ('A' for Active; 'I' for Inactive)
    1  A    between atoms: C_2  and  N_22
    2  A    between atoms: C_19  and  C_24
                            x       y       z     vdW  Elec       q    Type
                         _______ _______ _______ _____ _____    ______ ____

>  <TORSDO>
F 2

$$$$
=
 OpenBabel11062415463D

 27 31  0  0  1  0  0  0  0  0999 V2000
  184.2070  177.7820  143.4340 O   0  0  0  0  0  0  0  0  0  0  0  0
  190.2900  176.7230  145.9740 C   0  0  0  0  0  1  0  0  0  0  0  0
  187.8730  178.7130  148.0820 C   0  0  0  0  0  3  0  0  0  0  0  0
  187.8180  176.4630  144.5370 O   0  0  0  0  0  0  0  0  0  0  0  0
  187.0890  179.3510  141.0580 C   0  0  0  0  0  2  0  0  0  0  0  0
  189.0420  178.1080  147.6180 C   0  0  0  0  0  3  0  0  0  0  0  0
  186.6940  178.6090  147.3430 C   0  0  0  0  0  3  0  0  0  0  0  0
  186.6700  177.9090  146.1340 C   0  0  0  0  0  0  0  0  0  0  0  0
  186.4510  178.5820  143.1870 C   0  0  2  0  0  3  0  0  0  0  0  0
  185.3020  178.0590  143.9940 C   0  0  0  0  0  0  0  0  0  0  0  0
  186.0400  179.5560  142.1210 C   0  0  0  0  0  2  0  0  0  0  0  0
  189.0340  177.3850  146.4220 C   0  0  0  0  0  0  0  0  0  0  0  0
  188.3120  176.9420  143.2930 C   0  0  0  0  0  2  0  0  0  0  0  0
  187.4720  177.9360  141.0810 N   0  0  2  0  0  0  0  0  0  0  0  0
  187.8440  177.2630  145.6810 C   0  0  0  0  0  0  0  0  0  0  0  0
  187.1440  177.4590  142.4470 C   0  0  2  0  0  3  0  0  0  0  0  0
  185.4370  177.8530  145.4050 N   0  0  0  0  0  2  0  0  0  0  0  0
  188.8890  177.7840  140.6920 C   0  0  1  0  0  3  0  0  0  0  0  0
  189.0630  176.5390  139.8370 C   0  0  0  0  0  2  0  0  0  0  0  0
  189.3430  178.9190  139.7770 C   0  0  0  0  0  2  0  0  0  0  0  0
  188.8180  176.9760  138.4070 C   0  0  1  0  0  3  0  0  0  0  0  0
  189.1020  178.4680  138.3480 C   0  0  0  0  0  2  0  0  0  0  0  0
  191.0260  176.0540  137.8790 N   0  0  0  0  0  2  0  0  0  0  0  0
  191.4390  174.7130  137.4990 C   0  0  0  0  0  2  0  0  0  0  0  0
  189.1410  174.7470  137.2280 C   0  0  0  0  0  2  0  0  0  0  0  0
  190.2660  173.8540  137.4390 N   0  0  0  0  0  2  0  0  0  0  0  0
  189.6540  176.1590  137.4190 C   0  0  1  0  0  3  0  0  0  0  0  0
  1 10  2  0  0  0  0
  2 12  1  0  0  0  0
  4 15  1  0  0  0  0
  5 11  1  0  0  0  0
  6  3  1  0  0  0  0
  7  3  2  0  0  0  0
  8  7  1  0  0  0  0
  9 11  1  6  0  0  0
  9 10  1  0  0  0  0
 10 17  1  0  0  0  0
 12  6  2  0  0  0  0
 13  4  1  0  0  0  0
 14  5  1  1  0  0  0
 14 16  1  0  0  0  0
 15  8  2  0  0  0  0
 15 12  1  0  0  0  0
 16  9  1  0  0  0  0
 16 13  1  1  0  0  0
 17  8  1  0  0  0  0
 18 20  1  6  0  0  0
 18 14  1  0  0  0  0
 19 18  1  0  0  0  0
 21 22  1  1  0  0  0
 21 19  1  0  0  0  0
 22 20  1  0  0  0  0
 24 23  1  0  0  0  0
 25 26  1  0  0  0  0
 26 24  1  0  0  0  0
 27 25  1  1  0  0  0
 27 23  1  0  0  0  0
 27 21  1  0  0  0  0
M  END
>  <MODEL>
7

>  <REMARK>
 VINA RESULT:      -6.0      3.160      8.198
  Name = 
  2 active torsions:
  status: ('A' for Active; 'I' for Inactive)
    1  A    between atoms: C_2  and  N_22
    2  A    between atoms: C_19  and  C_24
                            x       y       z     vdW  Elec       q    Type
                         _______ _______ _______ _____ _____    ______ ____

>  <TORSDO>
F 2

$$$$
=
 OpenBabel11062415463D

 27 31  0  0  1  0  0  0  0  0999 V2000
  185.7870  177.1710  146.3810 O   0  0  0  0  0  0  0  0  0  0  0  0
  189.7010  177.6160  140.9900 C   0  0  0  0  0  1  0  0  0  0  0  0
  191.1900  178.6980  144.2850 C   0  0  0  0  0  3  0  0  0  0  0  0
  187.7090  176.8050  142.8940 O   0  0  0  0  0  0  0  0  0  0  0  0
  184.1900  179.6490  143.6030 C   0  0  0  0  0  2  0  0  0  0  0  0
  191.0130  178.4740  142.9190 C   0  0  0  0  0  3  0  0  0  0  0  0
  190.1890  178.3340  145.1870 C   0  0  0  0  0  3  0  0  0  0  0  0
  189.0010  177.7520  144.7360 C   0  0  0  0  0  0  0  0  0  0  0  0
  186.0950  178.5690  144.4630 C   0  0  2  0  0  3  0  0  0  0  0  0
  186.5970  177.6900  145.5670 C   0  0  0  0  0  0  0  0  0  0  0  0
  184.9730  179.4750  144.8800 C   0  0  0  0  0  2  0  0  0  0  0  0
  189.8420  177.8720  142.4510 C   0  0  0  0  0  0  0  0  0  0  0  0
  186.6260  177.4970  142.2880 C   0  0  0  0  0  2  0  0  0  0  0  0
  184.2890  178.3950  142.8500 N   0  0  2  0  0  0  0  0  0  0  0  0
  188.8350  177.4890  143.3560 C   0  0  0  0  0  0  0  0  0  0  0  0
  185.5300  177.7410  143.3300 C   0  0  2  0  0  3  0  0  0  0  0  0
  187.9970  177.4190  145.7040 N   0  0  0  0  0  2  0  0  0  0  0  0
  184.2500  178.6670  141.3990 C   0  0  1  0  0  3  0  0  0  0  0  0
  183.8750  177.4020  140.6430 C   0  0  0  0  0  2  0  0  0  0  0  0
  183.1330  179.6470  141.0420 C   0  0  0  0  0  2  0  0  0  0  0  0
  182.3610  177.3840  140.5810 C   0  0  1  0  0  3  0  0  0  0  0  0
  181.8980  178.8240  140.7270 C   0  0  0  0  0  2  0  0  0  0  0  0
  181.7430  177.6800  138.2290 N   0  0  0  0  0  2  0  0  0  0  0  0
  182.1420  176.9530  137.0340 C   0  0  0  0  0  2  0  0  0  0  0  0
  182.7730  175.6090  138.8090 C   0  0  0  0  0  2  0  0  0  0  0  0
  183.0540  175.8830  137.4120 N   0  0  0  0  0  2  0  0  0  0  0  0
  181.8580  176.7110  139.3020 C   0  0  1  0  0  3  0  0  0  0  0  0
  2 12  1  0  0  0  0
  3  7  1  0  0  0  0
  4 15  1  0  0  0  0
  5 11  1  0  0  0  0
  6  3  2  0  0  0  0
  8  7  2  0  0  0  0
  8 17  1  0  0  0  0
  9 11  1  1  0  0  0
  9 10  1  0  0  0  0
 10 17  1  0  0  0  0
 10  1  2  0  0  0  0
 12  6  1  0  0  0  0
 12 15  2  0  0  0  0
 13  4  1  0  0  0  0
 14 16  1  0  0  0  0
 14  5  1  1  0  0  0
 15  8  1  0  0  0  0
 16 13  1  6  0  0  0
 16  9  1  0  0  0  0
 18 19  1  6  0  0  0
 18 14  1  0  0  0  0
 20 18  1  0  0  0  0
 21 19  1  6  0  0  0
 21 22  1  0  0  0  0
 22 20  1  0  0  0  0
 23 27  1  0  0  0  0
 24 26  1  0  0  0  0
 24 23  1  0  0  0  0
 26 25  1  0  0  0  0
 27 25  1  6  0  0  0
 27 21  1  0  0  0  0
M  END
>  <MODEL>
8

>  <REMARK>
 VINA RESULT:      -5.8      4.662      8.533
  Name = 
  2 active torsions:
  status: ('A' for Active; 'I' for Inactive)
    1  A    between atoms: C_2  and  N_22
    2  A    between atoms: C_19  and  C_24
                            x       y       z     vdW  Elec       q    Type
                         _______ _______ _______ _____ _____    ______ ____

>  <TORSDO>
F 2

$$$$
=
 OpenBabel11062415463D

 27 31  0  0  1  0  0  0  0  0999 V2000
  189.0540  179.7560  137.9950 O   0  0  0  0  0  0  0  0  0  0  0  0
  186.9550  174.4080  134.5940 C   0  0  0  0  0  1  0  0  0  0  0  0
  184.5050  175.9860  136.9920 C   0  0  0  0  0  3  0  0  0  0  0  0
  188.2950  176.8210  135.3870 O   0  0  0  0  0  0  0  0  0  0  0  0
  191.3510  176.5140  138.7840 C   0  0  0  0  0  2  0  0  0  0  0  0
  185.0950  175.0980  136.0910 C   0  0  0  0  0  3  0  0  0  0  0  0
  185.1940  177.1300  137.3960 C   0  0  0  0  0  3  0  0  0  0  0  0
  186.4780  177.3960  136.9130 C   0  0  0  0  0  0  0  0  0  0  0  0
  189.3060  177.3750  138.0040 C   0  0  2  0  0  3  0  0  0  0  0  0
  188.5160  178.6330  137.8030 C   0  0  0  0  0  0  0  0  0  0  0  0
  190.2220  177.4270  139.1920 C   0  0  0  0  0  2  0  0  0  0  0  0
  186.3690  175.3580  135.5800 C   0  0  0  0  0  0  0  0  0  0  0  0
  189.4910  176.1940  135.8290 C   0  0  0  0  0  2  0  0  0  0  0  0
  191.5210  176.6440  137.3340 N   0  0  2  0  0  0  0  0  0  0  0  0
  187.0630  176.5180  135.9700 C   0  0  0  0  0  0  0  0  0  0  0  0
  190.2110  177.1140  136.8210 C   0  0  2  0  0  3  0  0  0  0  0  0
  187.1490  178.5750  137.3790 N   0  0  0  0  0  2  0  0  0  0  0  0
  191.9920  175.3670  136.7590 C   0  0  1  0  0  3  0  0  0  0  0  0
  193.1050  175.6270  135.7560 C   0  0  0  0  0  2  0  0  0  0  0  0
  192.6560  174.4880  137.8180 C   0  0  0  0  0  2  0  0  0  0  0  0
  194.3940  175.6320  136.5530 C   0  0  1  0  0  3  0  0  0  0  0  0
  194.1370  174.8170  137.8100 C   0  0  0  0  0  2  0  0  0  0  0  0
  196.6500  176.0830  135.7100 N   0  0  0  0  0  2  0  0  0  0  0  0
  197.8630  175.2820  135.7400 C   0  0  0  0  0  2  0  0  0  0  0  0
  196.1460  173.8160  136.2480 C   0  0  0  0  0  2  0  0  0  0  0  0
  197.5770  174.0130  136.3920 N   0  0  0  0  0  2  0  0  0  0  0  0
  195.5700  175.1140  135.7220 C   0  0  1  0  0  3  0  0  0  0  0  0
  2 12  1  0  0  0  0
  3  7  1  0  0  0  0
  4 13  1  0  0  0  0
  4 15  1  0  0  0  0
  5 11  1  0  0  0  0
  6  3  2  0  0  0  0
  8 17  1  0  0  0  0
  8  7  2  0  0  0  0
  9 11  1  1  0  0  0
 10  1  2  0  0  0  0
 10  9  1  0  0  0  0
 12 15  2  0  0  0  0
 12  6  1  0  0  0  0
 14  5  1  1  0  0  0
 15  8  1  0  0  0  0
 16 13  1  6  0  0  0
 16 14  1  0  0  0  0
 16  9  1  0  0  0  0
 17 10  1  0  0  0  0
 18 19  1  6  0  0  0
 18 14  1  0  0  0  0
 18 20  1  0  0  0  0
 21 19  1  6  0  0  0
 21 22  1  0  0  0  0
 22 20  1  0  0  0  0
 23 27  1  0  0  0  0
 23 24  1  0  0  0  0
 24 26  1  0  0  0  0
 25 26  1  0  0  0  0
 27 25  1  1  0  0  0
 27 21  1  0  0  0  0
M  END
>  <MODEL>
9

>  <REMARK>
 VINA RESULT:      -5.8      4.157      6.969
  Name = 
  2 active torsions:
  status: ('A' for Active; 'I' for Inactive)
    1  A    between atoms: C_2  and  N_22
    2  A    between atoms: C_19  and  C_24
                            x       y       z     vdW  Elec       q    Type
                         _______ _______ _______ _____ _____    ______ ____

>  <TORSDO>
F 2

$$$$
