=
 OpenBabel11062415053D

 66 74  0  0  1  0  0  0  0  0999 V2000
  188.6460  179.2080  138.8720 C   0  0  0  0  0  2  0  0  0  0  0  0
  188.9440  176.8720  146.1340 O   0  0  0  0  0  0  0  0  0  0  0  0
  184.5220  178.9570  143.4470 C   0  0  1  0  0  3  0  0  0  0  0  0
  187.7050  177.2590  144.1530 C   0  0  1  0  0  3  0  0  0  0  0  0
  188.4560  174.9480  144.7620 C   0  0  0  0  0  2  0  0  0  0  0  0
  190.2040  179.4580  142.0550 C   0  0  0  0  0  2  0  0  0  0  0  0
  188.2560  178.0620  142.9690 C   0  0  1  0  0  3  0  0  0  0  0  0
  183.0990  179.2140  138.4620 C   0  0  0  0  0  0  0  0  0  0  0  0
  186.8770  177.3720  137.3000 C   0  0  0  0  0  2  0  0  0  0  0  0
  181.9560  176.8040  137.0950 C   0  0  0  0  0  2  0  0  0  0  0  0
  188.0420  177.8750  146.3920 N   0  0  0  0  0  0  0  0  0  0  0  0
  184.4570  176.8000  137.0760 C   0  0  0  0  0  2  0  0  0  0  0  0
  188.0080  178.1820  136.6860 C   0  0  0  0  0  2  0  0  0  0  0  0
  182.9500  178.2130  139.4300 O   0  0  0  0  0  0  0  0  0  0  0  0
  187.0200  172.0440  136.1890 C   0  0  0  0  0  0  0  0  0  0  0  0
  183.2030  177.5430  136.5950 C   0  0  2  0  0  0  0  0  0  0  0  0
  188.7840  176.4240  144.8110 C   0  0  0  0  0  0  0  0  0  0  0  0
  187.2080  178.7490  142.3190 O   0  0  0  0  0  0  0  0  0  0  0  0
  183.4150  176.4300  141.8190 C   0  0  0  0  0  2  0  0  0  0  0  0
  184.8700  178.4560  144.8590 C   0  0  1  0  0  3  0  0  0  0  0  0
  186.5780  173.8150  134.5970 C   0  0  0  0  0  2  0  0  0  0  0  0
  187.6130  179.3060  141.0800 C   0  0  0  0  0  2  0  0  0  0  0  0
  185.6460  181.0570  143.9590 C   0  0  0  0  0  3  0  0  0  0  0  0
  183.2230  178.8810  137.1060 O   0  0  0  0  0  0  0  0  0  0  0  0
  183.2580  178.5210  143.0360 O   0  0  0  0  0  0  0  0  0  0  0  0
  183.0860  180.4280  138.7980 O   0  0  0  0  0  0  0  0  0  0  0  0
  184.6370  180.4460  143.3470 C   0  0  0  0  0  3  0  0  0  0  0  0
  182.4900  178.5010  140.7440 C   0  0  2  0  0  3  0  0  0  0  0  0
  185.9880  174.2750  136.9680 C   0  0  0  0  0  2  0  0  0  0  0  0
  189.1330  178.3630  137.6990 C   0  0  0  0  0  2  0  0  0  0  0  0
  182.5820  171.5540  137.1690 C   0  0  0  0  0  2  0  0  0  0  0  0
  189.4740  178.9450  143.3040 C   0  0  0  0  0  2  0  0  0  0  0  0
  186.1820  179.0770  145.3750 C   0  0  1  0  0  3  0  0  0  0  0  0
  190.0480  178.5270  140.8400 C   0  0  0  0  0  2  0  0  0  0  0  0
  187.1830  172.5520  135.0040 N   0  0  0  0  0  0  0  0  0  0  0  0
  185.7310  177.1870  136.3240 C   0  0  2  0  0  3  0  0  0  0  0  0
  180.8120  174.9130  137.2670 C   0  0  1  0  0  3  0  0  0  0  0  0
  183.4530  177.9450  141.7740 C   0  0  1  0  0  0  0  0  0  0  0  0
  188.6200  178.4950  140.2330 C   0  0  2  0  0  0  0  0  0  0  0  0
  184.9300  172.1030  137.5670 C   0  0  0  0  0  3  0  0  0  0  0  0
  179.6000  174.8670  136.3470 C   0  0  0  0  0  1  0  0  0  0  0  0
  186.2290  172.7850  137.2500 C   0  0  1  0  0  3  0  0  0  0  0  0
  181.3740  172.4020  136.7930 C   0  0  0  0  0  2  0  0  0  0  0  0
  186.0460  176.1430  135.2400 C   0  0  0  0  0  2  0  0  0  0  0  0
  183.8510  172.2400  136.7930 C   0  0  0  0  0  3  0  0  0  0  0  0
  187.3260  178.1160  145.3380 C   0  0  0  0  0  0  0  0  0  0  0  0
  181.2360  173.3410  138.9650 O   0  0  0  0  0  0  0  0  0  0  0  0
  189.7610  175.4630  144.1730 C   0  0  0  0  0  2  0  0  0  0  0  0
  186.5240  180.3320  144.7720 O   0  0  0  0  0  0  0  0  0  0  0  0
  186.6800  174.8300  135.7220 C   0  0  2  0  0  3  0  0  0  0  0  0
  182.1670  177.1980  141.4440 C   0  0  2  0  0  3  0  0  0  0  0  0
  181.1560  173.5390  137.7570 C   0  0  0  0  0  0  0  0  0  0  0  0
  181.9030  175.4900  136.6070 O   0  0  0  0  0  0  0  0  0  0  0  0
  188.3150  176.2850  139.0770 C   0  0  0  0  0  2  0  0  0  0  0  0
  188.1070  177.0720  140.1330 C   0  0  0  0  0  3  0  0  0  0  0  0
  187.6260  170.8160  136.4740 O   0  0  0  0  0  0  0  0  0  0  0  0
  188.1800  169.9810  135.4680 C   0  0  0  0  0  1  0  0  0  0  0  0
  183.1580  177.5950  135.0670 C   0  0  0  0  0  2  0  0  0  0  0  0
  181.8590  177.9380  134.5980 O   0  0  0  0  0  0  0  0  0  0  0  0
  181.1800  179.0580  135.0740 C   0  0  0  0  0  0  0  0  0  0  0  0
  181.4410  180.1890  134.5940 O   0  0  0  0  0  0  0  0  0  0  0  0
  180.1740  178.9520  136.1740 C   0  0  0  0  0  2  0  0  0  0  0  0
  179.1720  178.0510  135.8110 O   0  0  0  0  0  1  0  0  0  0  0  0
  183.7590  178.7300  145.8670 C   0  0  0  0  0  2  0  0  0  0  0  0
  185.2670  179.2400  147.6430 O   0  0  0  0  0  1  0  0  0  0  0  0
  184.2190  178.3980  147.2720 C   0  0  0  0  0  2  0  0  0  0  0  0
  1 39  1  0  0  0  0
  2 11  1  0  0  0  0
  3 27  1  1  0  0  0
  3 20  1  0  0  0  0
  4 17  1  0  0  0  0
  4 46  1  1  0  0  0
  5 17  1  0  0  0  0
  6 32  1  0  0  0  0
  7 32  1  1  0  0  0
  7  4  1  0  0  0  0
  8 26  2  0  0  0  0
  8 14  1  0  0  0  0
 13  9  1  0  0  0  0
 13 30  1  0  0  0  0
 15 56  1  0  0  0  0
 15 42  1  0  0  0  0
 16 58  1  6  0  0  0
 16 12  1  0  0  0  0
 16 10  1  0  0  0  0
 16 24  1  0  0  0  0
 17  2  1  0  0  0  0
 18  7  1  0  0  0  0
 20 33  1  0  0  0  0
 20 64  1  1  0  0  0
 21 35  1  0  0  0  0
 22 18  1  0  0  0  0
 23 49  1  0  0  0  0
 24  8  1  0  0  0  0
 25  3  1  0  0  0  0
 27 23  2  0  0  0  0
 28 14  1  6  0  0  0
 28 51  1  0  0  0  0
 28 38  1  0  0  0  0
 30  1  1  0  0  0  0
 33 49  1  6  0  0  0
 34  6  1  0  0  0  0
 35 15  2  0  0  0  0
 36 44  1  6  0  0  0
 36 12  1  0  0  0  0
 36  9  1  0  0  0  0
 37 41  1  6  0  0  0
 37 52  1  0  0  0  0
 38 19  1  6  0  0  0
 38 25  1  0  0  0  0
 39 55  1  6  0  0  0
 39 34  1  0  0  0  0
 39 22  1  0  0  0  0
 42 29  1  6  0  0  0
 42 40  1  0  0  0  0
 43 31  1  0  0  0  0
 43 52  1  0  0  0  0
 44 50  1  0  0  0  0
 45 31  1  0  0  0  0
 45 40  2  0  0  0  0
 46 33  1  0  0  0  0
 46 11  2  0  0  0  0
 48  5  1  0  0  0  0
 48 17  1  0  0  0  0
 50 21  1  6  0  0  0
 50 29  1  0  0  0  0
 51 38  1  0  0  0  0
 51 19  1  6  0  0  0
 52 47  2  0  0  0  0
 53 10  1  0  0  0  0
 53 37  1  0  0  0  0
 54 55  2  0  0  0  0
 57 56  1  0  0  0  0
 59 58  1  0  0  0  0
 59 60  1  0  0  0  0
 60 62  1  0  0  0  0
 61 60  2  0  0  0  0
 63 62  1  0  0  0  0
 64 66  1  0  0  0  0
 66 65  1  0  0  0  0
M  END
>  <MODEL>
1

>  <REMARK>
 VINA RESULT:      17.2      0.000      0.000
  Name = 
  8 active torsions:
  status: ('A' for Active; 'I' for Inactive)
    1  A    between atoms: C_15  and  O_39
    2  A    between atoms: C_16  and  C_48
    3  A    between atoms: C_18  and  C_20
    4  A    between atoms: C_20  and  O_63
    5  A    between atoms: C_22  and  C_51
    6  A    between atoms: C_44  and  C_46
    7  A    between atoms: C_45  and  C_51
    8  A    between atoms: C_48  and  O_63
                            x       y       z     vdW  Elec       q    Type
                         _______ _______ _______ _____ _____    ______ ____

>  <TORSDO>
F 8

$$$$
