=
 OpenBabel11062412523D

 50 54  0  0  1  0  0  0  0  0999 V2000
  185.2290  178.3980  143.0360 N   0  0  0  0  0  0  0  0  0  0  0  0
  180.8220  177.2860  140.0730 C   0  0  0  0  0  0  0  0  0  0  0  0
  181.5420  179.2360  143.2440 C   0  0  0  0  0  2  0  0  0  0  0  0
  183.4600  175.4260  136.5340 C   0  0  0  0  0  0  0  0  0  0  0  0
  186.6550  178.2920  138.8400 N   0  0  0  0  0  2  0  0  0  0  0  0
  182.8530  173.2510  136.2290 N   0  0  0  0  0  0  0  0  0  0  0  0
  183.8230  174.2610  135.9970 C   0  0  0  0  0  0  0  0  0  0  0  0
  183.9380  178.5980  142.7060 C   0  0  0  0  0  0  0  0  0  0  0  0
  185.4960  178.9150  139.3950 C   0  0  0  0  0  0  0  0  0  0  0  0
  184.7790  179.6590  138.6730 O   0  0  0  0  0  0  0  0  0  0  0  0
  187.1870  178.5650  137.5100 C   0  0  0  0  0  2  0  0  0  0  0  0
  183.4860  177.7550  136.2250 O   0  0  0  0  0  0  0  0  0  0  0  0
  185.5890  176.8430  136.6650 N   0  0  0  0  0  0  0  0  0  0  0  0
  182.0820  175.2650  137.1020 C   0  0  1  0  0  3  0  0  0  0  0  0
  182.5950  179.0390  140.5280 C   0  0  0  0  0  2  0  0  0  0  0  0
  186.2310  178.1310  136.3980 C   0  0  0  0  0  2  0  0  0  0  0  0
  181.8790  173.8030  136.8740 C   0  0  0  0  0  0  0  0  0  0  0  0
  185.9670  178.4530  141.9060 C   0  0  0  0  0  0  0  0  0  0  0  0
  185.1270  178.6880  140.8120 C   0  0  0  0  0  0  0  0  0  0  0  0
  186.3950  175.7230  137.1380 C   0  0  0  0  0  1  0  0  0  0  0  0
  178.9380  175.6620  139.5930 C   0  0  0  0  0  1  0  0  0  0  0  0
  181.9540  175.6370  138.5840 C   0  0  2  0  0  3  0  0  0  0  0  0
  181.4100  177.0520  138.7100 C   0  0  0  0  0  2  0  0  0  0  0  0
  182.8220  178.5670  143.7220 C   0  0  0  0  0  2  0  0  0  0  0  0
  181.4220  178.2000  140.9550 C   0  0  0  0  0  0  0  0  0  0  0  0
  183.8350  178.7510  141.3250 C   0  0  0  0  0  0  0  0  0  0  0  0
  179.1810  176.8150  141.7440 N   0  0  0  0  0  0  0  0  0  0  0  0
  179.7730  177.6550  142.5910 N   0  0  0  0  0  0  0  0  0  0  0  0
  184.9980  174.0360  135.1090 C   0  0  0  0  0  1  0  0  0  0  0  0
  184.1700  176.7190  136.4450 C   0  0  0  0  0  0  0  0  0  0  0  0
  183.1630  175.5050  139.2750 O   0  0  0  0  0  1  0  0  0  0  0  0
  180.8740  178.3630  142.2350 C   0  0  0  0  0  0  0  0  0  0  0  0
  179.6630  176.6070  140.4910 C   0  0  0  0  0  0  0  0  0  0  0  0
  180.6560  173.0510  137.2810 C   0  0  0  0  0  2  0  0  0  0  0  0
  179.4490  173.5540  136.5120 C   0  0  0  0  0  1  0  0  0  0  0  0
  187.4690  178.2870  141.9300 C   0  0  1  0  0  3  0  0  0  0  0  0
  188.0680  178.5170  143.1880 O   0  0  0  0  0  0  0  0  0  0  0  0
  188.7590  177.3600  143.5810 C   0  0  0  0  0  2  0  0  0  0  0  0
  189.8190  177.7050  144.6160 C   0  0  0  0  0  2  0  0  0  0  0  0
  190.9220  179.8440  144.0700 F   0  0  0  0  0  0  0  0  0  0  0  0
  190.9310  178.4880  143.9990 C   0  0  0  0  0  0  0  0  0  0  0  0
  191.8600  177.9140  143.4530 O   0  0  0  0  0  0  0  0  0  0  0  0
  188.0570  177.1370  141.1170 C   0  0  0  0  0  2  0  0  0  0  0  0
  189.5850  176.3630  139.1310 C   0  0  0  0  0  1  0  0  0  0  0  0
  189.6930  177.5890  140.4660 S   0  0  0  0  0  0  0  0  0  0  0  0
  185.7350  178.1390  144.3790 C   0  0  0  0  0  2  0  0  0  0  0  0
  185.3950  179.3000  145.2960 C   0  0  0  0  0  2  0  0  0  0  0  0
  185.7260  178.9480  146.7380 C   0  0  0  0  0  2  0  0  0  0  0  0
  187.6920  178.1780  147.9690 N   0  0  0  0  0  1  0  0  0  0  0  0
  186.8520  177.9260  146.8100 C   0  0  0  0  0  2  0  0  0  0  0  0
  1 46  1  0  0  0  0
  2 33  2  0  0  0  0
  2 25  1  0  0  0  0
  3 24  1  0  0  0  0
  5  9  1  0  0  0  0
  6 17  2  0  0  0  0
  7  6  1  0  0  0  0
  7  4  2  0  0  0  0
  8  1  1  0  0  0  0
  8 24  1  0  0  0  0
  9 19  1  0  0  0  0
 10  9  2  0  0  0  0
 11  5  1  0  0  0  0
 12 30  2  0  0  0  0
 13 20  1  0  0  0  0
 14  4  1  1  0  0  0
 14 22  1  0  0  0  0
 15 25  1  0  0  0  0
 15 26  1  0  0  0  0
 16 13  1  0  0  0  0
 16 11  1  0  0  0  0
 17 14  1  0  0  0  0
 17 34  1  0  0  0  0
 18 36  1  0  0  0  0
 18  1  1  0  0  0  0
 19 26  1  0  0  0  0
 19 18  2  0  0  0  0
 21 33  1  0  0  0  0
 22 23  1  0  0  0  0
 22 31  1  6  0  0  0
 23  2  1  0  0  0  0
 25 32  2  0  0  0  0
 26  8  2  0  0  0  0
 27 28  2  0  0  0  0
 29  7  1  0  0  0  0
 30  4  1  0  0  0  0
 30 13  1  0  0  0  0
 32 28  1  0  0  0  0
 32  3  1  0  0  0  0
 33 27  1  0  0  0  0
 35 34  1  0  0  0  0
 36 43  1  1  0  0  0
 36 37  1  0  0  0  0
 37 38  1  0  0  0  0
 38 39  1  0  0  0  0
 41 40  1  0  0  0  0
 41 39  1  0  0  0  0
 42 41  2  0  0  0  0
 44 45  1  0  0  0  0
 45 43  1  0  0  0  0
 46 47  1  0  0  0  0
 47 48  1  0  0  0  0
 48 50  1  0  0  0  0
 50 49  1  0  0  0  0
M  END
>  <MODEL>
1

>  <REMARK>
 VINA RESULT:      -7.7      0.000      0.000
  Name = 
  12 active torsions:
  status: ('A' for Active; 'I' for Inactive)
    1  A    between atoms: N_1  and  C_39
    2  A    between atoms: C_13  and  C_21
    3  A    between atoms: C_13  and  C_37
    4  A    between atoms: C_22  and  C_23
    5  A    between atoms: C_24  and  C_27
    6  A    between atoms: O_25  and  C_27
    7  A    between atoms: O_25  and  C_32
    8  A    between atoms: C_27  and  C_33
    9  A    between atoms: C_32  and  C_34
   10  A    between atoms: C_33  and  S_41
   11  A    between atoms: C_34  and  C_42
   12  A    between atoms: C_37  and  C_39
                            x       y       z     vdW  Elec       q    Type
                         _______ _______ _______ _____ _____    ______ ____

>  <TORSDO>
F 12

$$$$
=
 OpenBabel11062412523D

 50 54  0  0  1  0  0  0  0  0999 V2000
  185.5440  178.2080  143.2730 N   0  0  0  0  0  0  0  0  0  0  0  0
  180.9730  177.5780  140.4200 C   0  0  0  0  0  0  0  0  0  0  0  0
  181.9600  179.3850  143.6030 C   0  0  0  0  0  2  0  0  0  0  0  0
  183.3250  175.5490  136.7740 C   0  0  0  0  0  0  0  0  0  0  0  0
  186.8400  178.0530  139.0370 N   0  0  0  0  0  2  0  0  0  0  0  0
  182.5060  173.4480  136.4480 N   0  0  0  0  0  0  0  0  0  0  0  0
  183.5610  174.3670  136.2060 C   0  0  0  0  0  0  0  0  0  0  0  0
  184.2700  178.5350  142.9850 C   0  0  0  0  0  0  0  0  0  0  0  0
  185.7600  178.7720  139.6360 C   0  0  0  0  0  0  0  0  0  0  0  0
  185.0980  179.5950  138.9480 O   0  0  0  0  0  0  0  0  0  0  0  0
  187.3590  178.3020  137.6970 C   0  0  0  0  0  2  0  0  0  0  0  0
  183.5640  177.8720  136.5050 O   0  0  0  0  0  0  0  0  0  0  0  0
  185.5810  176.7560  136.8680 N   0  0  0  0  0  0  0  0  0  0  0  0
  181.9540  175.5080  137.3790 C   0  0  1  0  0  3  0  0  0  0  0  0
  182.9160  179.1450  140.8540 C   0  0  0  0  0  2  0  0  0  0  0  0
  186.3360  177.9820  136.6050 C   0  0  0  0  0  2  0  0  0  0  0  0
  181.6070  174.0760  137.1310 C   0  0  0  0  0  0  0  0  0  0  0  0
  186.2530  178.2160  142.1240 C   0  0  0  0  0  0  0  0  0  0  0  0
  185.4090  178.5510  141.0590 C   0  0  0  0  0  0  0  0  0  0  0  0
  186.2900  175.5550  137.2980 C   0  0  0  0  0  1  0  0  0  0  0  0
  178.9310  176.1480  139.9660 C   0  0  0  0  0  1  0  0  0  0  0  0
  181.9020  175.8590  138.8700 C   0  0  2  0  0  3  0  0  0  0  0  0
  181.4980  177.3170  139.0370 C   0  0  0  0  0  2  0  0  0  0  0  0
  183.1840  178.5890  144.0320 C   0  0  0  0  0  2  0  0  0  0  0  0
  181.6810  178.4120  141.3010 C   0  0  0  0  0  0  0  0  0  0  0  0
  184.1440  178.7260  141.6110 C   0  0  0  0  0  0  0  0  0  0  0  0
  179.3400  177.2290  142.1290 N   0  0  0  0  0  0  0  0  0  0  0  0
  180.0320  177.9920  142.9740 N   0  0  0  0  0  0  0  0  0  0  0  0
  184.6850  174.0500  135.2800 C   0  0  0  0  0  1  0  0  0  0  0  0
  184.1520  176.7710  136.6870 C   0  0  0  0  0  0  0  0  0  0  0  0
  183.1110  175.6000  139.5230 O   0  0  0  0  0  1  0  0  0  0  0  0
  181.1860  178.6000  142.5990 C   0  0  0  0  0  0  0  0  0  0  0  0
  179.7660  177.0020  140.8590 C   0  0  0  0  0  0  0  0  0  0  0  0
  180.3300  173.4350  137.5600 C   0  0  0  0  0  2  0  0  0  0  0  0
  180.3280  171.9640  137.1880 C   0  0  0  0  0  1  0  0  0  0  0  0
  187.7330  177.9080  142.1020 C   0  0  1  0  0  3  0  0  0  0  0  0
  188.2020  177.3510  140.8920 O   0  0  0  0  0  0  0  0  0  0  0  0
  189.3920  176.6520  141.1450 C   0  0  0  0  0  2  0  0  0  0  0  0
  190.5290  177.2290  140.3150 C   0  0  0  0  0  2  0  0  0  0  0  0
  190.5110  177.4500  137.8570 F   0  0  0  0  0  0  0  0  0  0  0  0
  190.5410  176.6360  138.9440 C   0  0  0  0  0  0  0  0  0  0  0  0
  190.6020  175.4260  138.7960 O   0  0  0  0  0  0  0  0  0  0  0  0
  188.6650  178.9150  142.7720 C   0  0  0  0  0  2  0  0  0  0  0  0
  191.1080  179.0170  143.7180 C   0  0  0  0  0  1  0  0  0  0  0  0
  189.5800  178.1270  144.1300 S   0  0  0  0  0  0  0  0  0  0  0  0
  186.0600  177.8740  144.5960 C   0  0  0  0  0  2  0  0  0  0  0  0
  185.8020  179.0210  145.5590 C   0  0  0  0  0  2  0  0  0  0  0  0
  186.0100  178.5610  146.9930 C   0  0  0  0  0  2  0  0  0  0  0  0
  187.8800  178.0040  148.4640 N   0  0  0  0  0  1  0  0  0  0  0  0
  187.3150  177.7920  147.1420 C   0  0  0  0  0  2  0  0  0  0  0  0
  1 46  1  0  0  0  0
  2 33  2  0  0  0  0
  2 25  1  0  0  0  0
  3 24  1  0  0  0  0
  5  9  1  0  0  0  0
  6 17  2  0  0  0  0
  7  6  1  0  0  0  0
  7  4  2  0  0  0  0
  8  1  1  0  0  0  0
  8 24  1  0  0  0  0
  9 19  1  0  0  0  0
 10  9  2  0  0  0  0
 11  5  1  0  0  0  0
 12 30  2  0  0  0  0
 13 20  1  0  0  0  0
 14  4  1  1  0  0  0
 14 22  1  0  0  0  0
 15 25  1  0  0  0  0
 15 26  1  0  0  0  0
 16 13  1  0  0  0  0
 16 11  1  0  0  0  0
 17 14  1  0  0  0  0
 17 34  1  0  0  0  0
 18  1  1  0  0  0  0
 19 26  1  0  0  0  0
 19 18  2  0  0  0  0
 21 33  1  0  0  0  0
 22 23  1  0  0  0  0
 22 31  1  6  0  0  0
 23  2  1  0  0  0  0
 25 32  2  0  0  0  0
 26  8  2  0  0  0  0
 27 28  2  0  0  0  0
 29  7  1  0  0  0  0
 30  4  1  0  0  0  0
 30 13  1  0  0  0  0
 32 28  1  0  0  0  0
 32  3  1  0  0  0  0
 33 27  1  0  0  0  0
 35 34  1  0  0  0  0
 36 18  1  0  0  0  0
 36 43  1  6  0  0  0
 37 38  1  0  0  0  0
 37 36  1  0  0  0  0
 39 38  1  0  0  0  0
 40 41  1  0  0  0  0
 41 39  1  0  0  0  0
 42 41  2  0  0  0  0
 43 45  1  0  0  0  0
 44 45  1  0  0  0  0
 46 47  1  0  0  0  0
 47 48  1  0  0  0  0
 48 50  1  0  0  0  0
 50 49  1  0  0  0  0
M  END
>  <MODEL>
2

>  <REMARK>
 VINA RESULT:      -7.5      1.502      1.990
  Name = 
  12 active torsions:
  status: ('A' for Active; 'I' for Inactive)
    1  A    between atoms: N_1  and  C_39
    2  A    between atoms: C_13  and  C_21
    3  A    between atoms: C_13  and  C_37
    4  A    between atoms: C_22  and  C_23
    5  A    between atoms: C_24  and  C_27
    6  A    between atoms: O_25  and  C_27
    7  A    between atoms: O_25  and  C_32
    8  A    between atoms: C_27  and  C_33
    9  A    between atoms: C_32  and  C_34
   10  A    between atoms: C_33  and  S_41
   11  A    between atoms: C_34  and  C_42
   12  A    between atoms: C_37  and  C_39
                            x       y       z     vdW  Elec       q    Type
                         _______ _______ _______ _____ _____    ______ ____

>  <TORSDO>
F 12

$$$$
=
 OpenBabel11062412523D

 50 54  0  0  1  0  0  0  0  0999 V2000
  185.5980  178.7480  140.5320 N   0  0  0  0  0  0  0  0  0  0  0  0
  181.6220  176.6280  137.5110 C   0  0  0  0  0  0  0  0  0  0  0  0
  182.1190  179.8220  139.4920 C   0  0  0  0  0  2  0  0  0  0  0  0
  184.4650  173.1110  135.9310 C   0  0  0  0  0  0  0  0  0  0  0  0
  187.6640  176.5200  137.3050 N   0  0  0  0  0  2  0  0  0  0  0  0
  183.5640  171.1080  136.5370 N   0  0  0  0  0  0  0  0  0  0  0  0
  184.7140  171.8110  136.0900 C   0  0  0  0  0  0  0  0  0  0  0  0
  184.4320  178.8470  139.8660 C   0  0  0  0  0  0  0  0  0  0  0  0
  186.5490  177.4090  137.2310 C   0  0  0  0  0  0  0  0  0  0  0  0
  186.0960  177.7530  136.1060 O   0  0  0  0  0  0  0  0  0  0  0  0
  188.4480  176.0750  136.1580 C   0  0  0  0  0  2  0  0  0  0  0  0
  184.9290  174.9880  134.5950 O   0  0  0  0  0  0  0  0  0  0  0  0
  186.7480  174.2690  135.8680 N   0  0  0  0  0  0  0  0  0  0  0  0
  183.0040  173.3390  136.1810 C   0  0  1  0  0  3  0  0  0  0  0  0
  183.5610  178.2590  137.4910 C   0  0  0  0  0  2  0  0  0  0  0  0
  187.6310  175.2180  135.1890 C   0  0  0  0  0  2  0  0  0  0  0  0
  182.6020  171.9670  136.6160 C   0  0  0  0  0  0  0  0  0  0  0  0
  186.5120  178.1980  139.7050 C   0  0  0  0  0  0  0  0  0  0  0  0
  185.9160  177.9250  138.4680 C   0  0  0  0  0  0  0  0  0  0  0  0
  187.2670  173.4700  136.9740 C   0  0  0  0  0  1  0  0  0  0  0  0
  179.6010  175.1030  137.4240 C   0  0  0  0  0  1  0  0  0  0  0  0
  182.6950  174.3910  137.2510 C   0  0  2  0  0  3  0  0  0  0  0  0
  182.3810  175.7220  136.5830 C   0  0  0  0  0  2  0  0  0  0  0  0
  183.1730  179.3880  140.4990 C   0  0  0  0  0  2  0  0  0  0  0  0
  182.2110  177.8130  137.9800 C   0  0  0  0  0  0  0  0  0  0  0  0
  184.5860  178.3150  138.5870 C   0  0  0  0  0  0  0  0  0  0  0  0
  179.6710  177.1380  138.7910 N   0  0  0  0  0  0  0  0  0  0  0  0
  180.2450  178.2440  139.2630 N   0  0  0  0  0  0  0  0  0  0  0  0
  185.9660  171.1050  135.6980 C   0  0  0  0  0  1  0  0  0  0  0  0
  185.3850  174.1470  135.4170 C   0  0  0  0  0  0  0  0  0  0  0  0
  183.7340  174.5340  138.1780 O   0  0  0  0  0  1  0  0  0  0  0  0
  181.4930  178.6140  138.8790 C   0  0  0  0  0  0  0  0  0  0  0  0
  180.3130  176.3150  137.9210 C   0  0  0  0  0  0  0  0  0  0  0  0
  181.2210  171.5910  137.0360 C   0  0  0  0  0  2  0  0  0  0  0  0
  180.2640  171.7080  135.8650 C   0  0  0  0  0  1  0  0  0  0  0  0
  187.9410  177.9660  140.1410 C   0  0  1  0  0  3  0  0  0  0  0  0
  188.9140  178.2860  139.1690 O   0  0  0  0  0  0  0  0  0  0  0  0
  190.1800  177.9370  139.6620 C   0  0  0  0  0  2  0  0  0  0  0  0
  190.5650  176.5430  139.1870 C   0  0  0  0  0  2  0  0  0  0  0  0
  191.5760  176.5780  136.9350 F   0  0  0  0  0  0  0  0  0  0  0  0
  191.7520  176.5990  138.2820 C   0  0  0  0  0  0  0  0  0  0  0  0
  192.8780  176.6890  138.7460 O   0  0  0  0  0  0  0  0  0  0  0  0
  188.2980  178.3290  141.5800 C   0  0  0  0  0  2  0  0  0  0  0  0
  189.8420  177.6630  143.5930 C   0  0  0  0  0  1  0  0  0  0  0  0
  188.6080  176.8260  142.5550 S   0  0  0  0  0  0  0  0  0  0  0  0
  185.8240  179.1430  141.9180 C   0  0  0  0  0  2  0  0  0  0  0  0
  185.0020  178.2670  142.8480 C   0  0  0  0  0  2  0  0  0  0  0  0
  185.3190  178.5950  144.2980 C   0  0  0  0  0  2  0  0  0  0  0  0
  182.8810  178.7430  144.2580 N   0  0  0  0  0  1  0  0  0  0  0  0
  184.0660  179.0070  145.0570 C   0  0  0  0  0  2  0  0  0  0  0  0
  1 46  1  0  0  0  0
  2 33  2  0  0  0  0
  2 25  1  0  0  0  0
  3 24  1  0  0  0  0
  4  7  2  0  0  0  0
  6 17  2  0  0  0  0
  7  6  1  0  0  0  0
  8 24  1  0  0  0  0
  8  1  1  0  0  0  0
  9  5  1  0  0  0  0
  9 19  1  0  0  0  0
 10  9  2  0  0  0  0
 11  5  1  0  0  0  0
 12 30  2  0  0  0  0
 13 20  1  0  0  0  0
 14  4  1  1  0  0  0
 14 17  1  0  0  0  0
 14 22  1  0  0  0  0
 15 25  1  0  0  0  0
 15 26  1  0  0  0  0
 16 13  1  0  0  0  0
 16 11  1  0  0  0  0
 17 34  1  0  0  0  0
 18 36  1  0  0  0  0
 18  1  1  0  0  0  0
 19 26  1  0  0  0  0
 19 18  2  0  0  0  0
 21 33  1  0  0  0  0
 22 31  1  1  0  0  0
 23 22  1  0  0  0  0
 23  2  1  0  0  0  0
 25 32  2  0  0  0  0
 26  8  2  0  0  0  0
 27 28  2  0  0  0  0
 29  7  1  0  0  0  0
 30 13  1  0  0  0  0
 30  4  1  0  0  0  0
 32 28  1  0  0  0  0
 32  3  1  0  0  0  0
 33 27  1  0  0  0  0
 35 34  1  0  0  0  0
 36 43  1  1  0  0  0
 37 38  1  0  0  0  0
 37 36  1  0  0  0  0
 39 38  1  0  0  0  0
 40 41  1  0  0  0  0
 41 42  2  0  0  0  0
 41 39  1  0  0  0  0
 43 45  1  0  0  0  0
 45 44  1  0  0  0  0
 46 47  1  0  0  0  0
 47 48  1  0  0  0  0
 48 50  1  0  0  0  0
 49 50  1  0  0  0  0
M  END
>  <MODEL>
3

>  <REMARK>
 VINA RESULT:      -6.6      2.481      3.373
  Name = 
  12 active torsions:
  status: ('A' for Active; 'I' for Inactive)
    1  A    between atoms: N_1  and  C_39
    2  A    between atoms: C_13  and  C_21
    3  A    between atoms: C_13  and  C_37
    4  A    between atoms: C_22  and  C_23
    5  A    between atoms: C_24  and  C_27
    6  A    between atoms: O_25  and  C_27
    7  A    between atoms: O_25  and  C_32
    8  A    between atoms: C_27  and  C_33
    9  A    between atoms: C_32  and  C_34
   10  A    between atoms: C_33  and  S_41
   11  A    between atoms: C_34  and  C_42
   12  A    between atoms: C_37  and  C_39
                            x       y       z     vdW  Elec       q    Type
                         _______ _______ _______ _____ _____    ______ ____

>  <TORSDO>
F 12

$$$$
=
 OpenBabel11062412523D

 50 54  0  0  1  0  0  0  0  0999 V2000
  185.5090  178.8180  140.5650 N   0  0  0  0  0  0  0  0  0  0  0  0
  181.7910  176.5680  137.3150 C   0  0  0  0  0  0  0  0  0  0  0  0
  182.0600  179.7720  139.3260 C   0  0  0  0  0  2  0  0  0  0  0  0
  184.8420  173.1590  135.8980 C   0  0  0  0  0  0  0  0  0  0  0  0
  187.8350  176.6730  137.4600 N   0  0  0  0  0  2  0  0  0  0  0  0
  183.9790  171.1230  136.4490 N   0  0  0  0  0  0  0  0  0  0  0  0
  185.1270  171.8680  136.0700 C   0  0  0  0  0  0  0  0  0  0  0  0
  184.3790  178.8770  139.8320 C   0  0  0  0  0  0  0  0  0  0  0  0
  186.6950  177.5230  137.3220 C   0  0  0  0  0  0  0  0  0  0  0  0
  186.2960  177.8550  136.1740 O   0  0  0  0  0  0  0  0  0  0  0  0
  188.6990  176.2600  136.3600 C   0  0  0  0  0  2  0  0  0  0  0  0
  185.3170  175.0550  134.5940 O   0  0  0  0  0  0  0  0  0  0  0  0
  187.0830  174.3970  135.9700 N   0  0  0  0  0  0  0  0  0  0  0  0
  183.3630  173.3340  136.0640 C   0  0  1  0  0  3  0  0  0  0  0  0
  183.6690  178.2660  137.4100 C   0  0  0  0  0  2  0  0  0  0  0  0
  187.9700  175.3780  135.3440 C   0  0  0  0  0  2  0  0  0  0  0  0
  182.9850  171.9480  136.4730 C   0  0  0  0  0  0  0  0  0  0  0  0
  186.4870  178.3020  139.7910 C   0  0  0  0  0  0  0  0  0  0  0  0
  185.9740  178.0130  138.5210 C   0  0  0  0  0  0  0  0  0  0  0  0
  187.5650  173.6130  137.1030 C   0  0  0  0  0  1  0  0  0  0  0  0
  179.8330  174.9740  137.1100 C   0  0  0  0  0  1  0  0  0  0  0  0
  182.9560  174.3720  137.1160 C   0  0  2  0  0  3  0  0  0  0  0  0
  182.6340  175.6930  136.4320 C   0  0  0  0  0  2  0  0  0  0  0  0
  183.0680  179.3710  140.3920 C   0  0  0  0  0  2  0  0  0  0  0  0
  182.3090  177.7720  137.8200 C   0  0  0  0  0  0  0  0  0  0  0  0
  184.6260  178.3560  138.5640 C   0  0  0  0  0  0  0  0  0  0  0  0
  179.7520  177.0050  138.4810 N   0  0  0  0  0  0  0  0  0  0  0  0
  180.2590  178.1290  138.9870 N   0  0  0  0  0  0  0  0  0  0  0  0
  186.4250  171.2080  135.7500 C   0  0  0  0  0  1  0  0  0  0  0  0
  185.7540  174.2290  135.4400 C   0  0  0  0  0  0  0  0  0  0  0  0
  183.9330  174.5480  138.1010 O   0  0  0  0  0  1  0  0  0  0  0  0
  181.5130  178.5450  138.6760 C   0  0  0  0  0  0  0  0  0  0  0  0
  180.4720  176.2090  137.6490 C   0  0  0  0  0  0  0  0  0  0  0  0
  181.5960  171.5220  136.8120 C   0  0  0  0  0  2  0  0  0  0  0  0
  180.9800  170.7620  135.6520 C   0  0  0  0  0  1  0  0  0  0  0  0
  187.8960  178.1190  140.3090 C   0  0  1  0  0  3  0  0  0  0  0  0
  188.0540  177.0570  141.2260 O   0  0  0  0  0  0  0  0  0  0  0  0
  188.2850  177.5890  142.5030 C   0  0  0  0  0  2  0  0  0  0  0  0
  188.5310  176.4700  143.5040 C   0  0  0  0  0  2  0  0  0  0  0  0
  190.5790  175.2740  142.8170 F   0  0  0  0  0  0  0  0  0  0  0  0
  189.9920  176.1860  143.6360 C   0  0  0  0  0  0  0  0  0  0  0  0
  190.6650  176.7870  144.4570 O   0  0  0  0  0  0  0  0  0  0  0  0
  189.0360  178.3100  139.3120 C   0  0  0  0  0  2  0  0  0  0  0  0
  190.9280  176.5560  138.8410 C   0  0  0  0  0  1  0  0  0  0  0  0
  190.6250  177.8570  140.0710 S   0  0  0  0  0  0  0  0  0  0  0  0
  185.6390  179.2150  141.9620 C   0  0  0  0  0  2  0  0  0  0  0  0
  184.9580  178.1950  142.8580 C   0  0  0  0  0  2  0  0  0  0  0  0
  184.6250  178.8170  144.2050 C   0  0  0  0  0  2  0  0  0  0  0  0
  185.5660  179.3500  146.3960 N   0  0  0  0  0  1  0  0  0  0  0  0
  185.6760  178.4650  145.2490 C   0  0  0  0  0  2  0  0  0  0  0  0
  1 46  1  0  0  0  0
  2 33  2  0  0  0  0
  2 25  1  0  0  0  0
  3 24  1  0  0  0  0
  4  7  2  0  0  0  0
  6 17  2  0  0  0  0
  7  6  1  0  0  0  0
  8 24  1  0  0  0  0
  8  1  1  0  0  0  0
  9  5  1  0  0  0  0
  9 19  1  0  0  0  0
 10  9  2  0  0  0  0
 11  5  1  0  0  0  0
 12 30  2  0  0  0  0
 13 20  1  0  0  0  0
 14  4  1  1  0  0  0
 14 17  1  0  0  0  0
 14 22  1  0  0  0  0
 15 25  1  0  0  0  0
 15 26  1  0  0  0  0
 16 13  1  0  0  0  0
 16 11  1  0  0  0  0
 17 34  1  0  0  0  0
 18 36  1  0  0  0  0
 18  1  1  0  0  0  0
 19 26  1  0  0  0  0
 19 18  2  0  0  0  0
 21 33  1  0  0  0  0
 22 31  1  1  0  0  0
 23 22  1  0  0  0  0
 23  2  1  0  0  0  0
 25 32  2  0  0  0  0
 26  8  2  0  0  0  0
 27 28  2  0  0  0  0
 29  7  1  0  0  0  0
 30  4  1  0  0  0  0
 30 13  1  0  0  0  0
 32 28  1  0  0  0  0
 32  3  1  0  0  0  0
 33 27  1  0  0  0  0
 35 34  1  0  0  0  0
 36 43  1  6  0  0  0
 36 37  1  0  0  0  0
 37 38  1  0  0  0  0
 38 39  1  0  0  0  0
 39 41  1  0  0  0  0
 40 41  1  0  0  0  0
 41 42  2  0  0  0  0
 43 45  1  0  0  0  0
 44 45  1  0  0  0  0
 46 47  1  0  0  0  0
 47 48  1  0  0  0  0
 48 50  1  0  0  0  0
 50 49  1  0  0  0  0
M  END
>  <MODEL>
4

>  <REMARK>
 VINA RESULT:      -6.5      2.068      2.808
  Name = 
  12 active torsions:
  status: ('A' for Active; 'I' for Inactive)
    1  A    between atoms: N_1  and  C_39
    2  A    between atoms: C_13  and  C_21
    3  A    between atoms: C_13  and  C_37
    4  A    between atoms: C_22  and  C_23
    5  A    between atoms: C_24  and  C_27
    6  A    between atoms: O_25  and  C_27
    7  A    between atoms: O_25  and  C_32
    8  A    between atoms: C_27  and  C_33
    9  A    between atoms: C_32  and  C_34
   10  A    between atoms: C_33  and  S_41
   11  A    between atoms: C_34  and  C_42
   12  A    between atoms: C_37  and  C_39
                            x       y       z     vdW  Elec       q    Type
                         _______ _______ _______ _____ _____    ______ ____

>  <TORSDO>
F 12

$$$$
=
 OpenBabel11062412523D

 50 54  0  0  1  0  0  0  0  0999 V2000
  187.2350  175.0640  136.1750 N   0  0  0  0  0  0  0  0  0  0  0  0
  190.1760  177.6970  139.8970 C   0  0  0  0  0  0  0  0  0  0  0  0
  190.7740  176.3930  136.3870 C   0  0  0  0  0  2  0  0  0  0  0  0
  186.3310  178.4530  142.6510 C   0  0  0  0  0  0  0  0  0  0  0  0
  184.3560  177.7150  138.2580 N   0  0  0  0  0  2  0  0  0  0  0  0
  186.6760  177.4770  144.6810 N   0  0  0  0  0  0  0  0  0  0  0  0
  185.7390  178.0270  143.7660 C   0  0  0  0  0  0  0  0  0  0  0  0
  188.3210  175.7670  136.5510 C   0  0  0  0  0  0  0  0  0  0  0  0
  185.6670  177.9970  137.7660 C   0  0  0  0  0  0  0  0  0  0  0  0
  186.1020  179.1800  137.7870 O   0  0  0  0  0  0  0  0  0  0  0  0
  183.3850  178.7260  138.6580 C   0  0  0  0  0  2  0  0  0  0  0  0
  186.3060  180.1290  141.0040 O   0  0  0  0  0  0  0  0  0  0  0  0
  184.4730  178.6880  140.9050 N   0  0  0  0  0  0  0  0  0  0  0  0
  187.8120  178.2930  142.8210 C   0  0  1  0  0  3  0  0  0  0  0  0
  188.7840  177.9960  137.8010 C   0  0  0  0  0  2  0  0  0  0  0  0
  183.8400  179.5220  139.8820 C   0  0  0  0  0  2  0  0  0  0  0  0
  187.8450  177.6000  144.1440 C   0  0  0  0  0  0  0  0  0  0  0  0
  186.1360  175.7370  136.5770 C   0  0  0  0  0  0  0  0  0  0  0  0
  186.5230  176.9080  137.2380 C   0  0  0  0  0  0  0  0  0  0  0  0
  183.8450  177.4300  141.2950 C   0  0  0  0  0  1  0  0  0  0  0  0
  191.6680  177.5260  141.9370 C   0  0  0  0  0  1  0  0  0  0  0  0
  188.4960  177.4680  141.7250 C   0  0  2  0  0  3  0  0  0  0  0  0
  189.1160  178.4010  140.6950 C   0  0  0  0  0  2  0  0  0  0  0  0
  189.7300  175.2900  136.2960 C   0  0  0  0  0  2  0  0  0  0  0  0
  189.9900  177.4620  138.5240 C   0  0  0  0  0  0  0  0  0  0  0  0
  187.9150  176.9060  137.2420 C   0  0  0  0  0  0  0  0  0  0  0  0
  192.2940  176.6000  139.7540 N   0  0  0  0  0  0  0  0  0  0  0  0
  192.0980  176.3460  138.4610 N   0  0  0  0  0  0  0  0  0  0  0  0
  184.3090  178.2340  144.1320 C   0  0  0  0  0  1  0  0  0  0  0  0
  185.7020  179.1420  141.5040 C   0  0  0  0  0  0  0  0  0  0  0  0
  187.6230  176.5620  141.1130 O   0  0  0  0  0  1  0  0  0  0  0  0
  190.9790  176.7640  137.8180 C   0  0  0  0  0  0  0  0  0  0  0  0
  191.3740  177.2670  140.4980 C   0  0  0  0  0  0  0  0  0  0  0  0
  189.0940  177.1500  144.8250 C   0  0  0  0  0  2  0  0  0  0  0  0
  190.0060  178.3330  145.0880 C   0  0  0  0  0  1  0  0  0  0  0  0
  184.7420  175.2250  136.2920 C   0  0  1  0  0  3  0  0  0  0  0  0
  184.0360  174.7730  137.4280 O   0  0  0  0  0  0  0  0  0  0  0  0
  184.3920  173.4420  137.6860 C   0  0  0  0  0  2  0  0  0  0  0  0
  184.0440  172.5620  136.4940 C   0  0  0  0  0  2  0  0  0  0  0  0
  183.0120  170.3620  136.9230 F   0  0  0  0  0  0  0  0  0  0  0  0
  182.8580  171.7050  136.7930 C   0  0  0  0  0  0  0  0  0  0  0  0
  181.7570  172.2080  136.9460 O   0  0  0  0  0  0  0  0  0  0  0  0
  183.9170  175.9860  135.2580 C   0  0  0  0  0  2  0  0  0  0  0  0
  181.5890  174.9790  134.5940 C   0  0  0  0  0  1  0  0  0  0  0  0
  182.1990  176.1660  135.8240 S   0  0  0  0  0  0  0  0  0  0  0  0
  187.2490  173.7810  135.4810 C   0  0  0  0  0  2  0  0  0  0  0  0
  187.7370  172.6890  136.4170 C   0  0  0  0  0  2  0  0  0  0  0  0
  188.5000  171.6290  135.6380 C   0  0  0  0  0  2  0  0  0  0  0  0
  186.5560  170.3050  134.9760 N   0  0  0  0  0  1  0  0  0  0  0  0
  187.8040  170.2780  135.7190 C   0  0  0  0  0  2  0  0  0  0  0  0
  1  8  1  0  0  0  0
  1 18  1  0  0  0  0
  2 33  1  0  0  0  0
  2 23  1  0  0  0  0
  3 32  1  0  0  0  0
  4  7  2  0  0  0  0
  5 11  1  0  0  0  0
  7 29  1  0  0  0  0
  7  6  1  0  0  0  0
  8 26  2  0  0  0  0
  9 10  2  0  0  0  0
  9  5  1  0  0  0  0
 11 16  1  0  0  0  0
 12 30  2  0  0  0  0
 13 20  1  0  0  0  0
 13 30  1  0  0  0  0
 14  4  1  6  0  0  0
 14 17  1  0  0  0  0
 15 25  1  0  0  0  0
 16 13  1  0  0  0  0
 17  6  2  0  0  0  0
 17 34  1  0  0  0  0
 18 19  2  0  0  0  0
 19 26  1  0  0  0  0
 19  9  1  0  0  0  0
 22 31  1  6  0  0  0
 22 14  1  0  0  0  0
 23 22  1  0  0  0  0
 24  3  1  0  0  0  0
 24  8  1  0  0  0  0
 25  2  2  0  0  0  0
 26 15  1  0  0  0  0
 27 33  2  0  0  0  0
 28 27  1  0  0  0  0
 30  4  1  0  0  0  0
 32 28  2  0  0  0  0
 32 25  1  0  0  0  0
 33 21  1  0  0  0  0
 34 35  1  0  0  0  0
 36 43  1  1  0  0  0
 36 18  1  0  0  0  0
 36 37  1  0  0  0  0
 37 38  1  0  0  0  0
 39 41  1  0  0  0  0
 39 38  1  0  0  0  0
 41 40  1  0  0  0  0
 41 42  2  0  0  0  0
 43 45  1  0  0  0  0
 44 45  1  0  0  0  0
 46  1  1  0  0  0  0
 46 47  1  0  0  0  0
 48 50  1  0  0  0  0
 48 47  1  0  0  0  0
 49 50  1  0  0  0  0
M  END
>  <MODEL>
5

>  <REMARK>
 VINA RESULT:      -6.4      3.561      9.531
  Name = 
  12 active torsions:
  status: ('A' for Active; 'I' for Inactive)
    1  A    between atoms: N_1  and  C_39
    2  A    between atoms: C_13  and  C_21
    3  A    between atoms: C_13  and  C_37
    4  A    between atoms: C_22  and  C_23
    5  A    between atoms: C_24  and  C_27
    6  A    between atoms: O_25  and  C_27
    7  A    between atoms: O_25  and  C_32
    8  A    between atoms: C_27  and  C_33
    9  A    between atoms: C_32  and  C_34
   10  A    between atoms: C_33  and  S_41
   11  A    between atoms: C_34  and  C_42
   12  A    between atoms: C_37  and  C_39
                            x       y       z     vdW  Elec       q    Type
                         _______ _______ _______ _____ _____    ______ ____

>  <TORSDO>
F 12

$$$$
=
 OpenBabel11062412523D

 50 54  0  0  1  0  0  0  0  0999 V2000
  186.8490  175.0650  136.2800 N   0  0  0  0  0  0  0  0  0  0  0  0
  190.0370  177.6800  139.8060 C   0  0  0  0  0  0  0  0  0  0  0  0
  190.4010  176.3790  136.2640 C   0  0  0  0  0  2  0  0  0  0  0  0
  186.3820  178.4490  142.8050 C   0  0  0  0  0  0  0  0  0  0  0  0
  184.1230  177.7260  138.5480 N   0  0  0  0  0  2  0  0  0  0  0  0
  186.8530  177.4680  144.8070 N   0  0  0  0  0  0  0  0  0  0  0  0
  185.8610  178.0230  143.9550 C   0  0  0  0  0  0  0  0  0  0  0  0
  187.9600  175.7630  136.5850 C   0  0  0  0  0  0  0  0  0  0  0  0
  185.4010  178.0030  137.9730 C   0  0  0  0  0  0  0  0  0  0  0  0
  185.8410  179.1850  137.9670 O   0  0  0  0  0  0  0  0  0  0  0  0
  183.1840  178.7410  139.0110 C   0  0  0  0  0  2  0  0  0  0  0  0
  186.2570  180.1280  141.1650 O   0  0  0  0  0  0  0  0  0  0  0  0
  184.4150  178.6950  141.1820 N   0  0  0  0  0  0  0  0  0  0  0  0
  187.8700  178.2820  142.8780 C   0  0  1  0  0  3  0  0  0  0  0  0
  188.5130  177.9880  137.8050 C   0  0  0  0  0  2  0  0  0  0  0  0
  183.7210  179.5330  140.2040 C   0  0  0  0  0  2  0  0  0  0  0  0
  187.9850  177.5870  144.1950 C   0  0  0  0  0  0  0  0  0  0  0  0
  185.7810  175.7430  136.7520 C   0  0  0  0  0  0  0  0  0  0  0  0
  186.2150  176.9110  137.3890 C   0  0  0  0  0  0  0  0  0  0  0  0
  183.8080  177.4390  141.6110 C   0  0  0  0  0  1  0  0  0  0  0  0
  191.6570  177.5000  141.7460 C   0  0  0  0  0  1  0  0  0  0  0  0
  188.4770  177.4560  141.7400 C   0  0  2  0  0  3  0  0  0  0  0  0
  189.0340  178.3880  140.6730 C   0  0  0  0  0  2  0  0  0  0  0  0
  189.3480  175.2810  136.2390 C   0  0  0  0  0  2  0  0  0  0  0  0
  189.7610  177.4480  138.4490 C   0  0  0  0  0  0  0  0  0  0  0  0
  187.6050  176.9030  137.3020 C   0  0  0  0  0  0  0  0  0  0  0  0
  192.1360  176.5740  139.5260 N   0  0  0  0  0  0  0  0  0  0  0  0
  191.8560  176.3240  138.2470 N   0  0  0  0  0  0  0  0  0  0  0  0
  184.4590  178.2360  144.4130 C   0  0  0  0  0  1  0  0  0  0  0  0
  185.6820  179.1420  141.7020 C   0  0  0  0  0  0  0  0  0  0  0  0
  187.5630  176.5550  141.1840 O   0  0  0  0  0  1  0  0  0  0  0  0
  190.6990  176.7470  137.6790 C   0  0  0  0  0  0  0  0  0  0  0  0
  191.2690  177.2440  140.3290 C   0  0  0  0  0  0  0  0  0  0  0  0
  189.2730  177.1300  144.7930 C   0  0  0  0  0  2  0  0  0  0  0  0
  190.1840  178.3160  145.0500 C   0  0  0  0  0  1  0  0  0  0  0  0
  184.3700  175.2370  136.5580 C   0  0  1  0  0  3  0  0  0  0  0  0
  183.9330  175.2080  135.2150 O   0  0  0  0  0  0  0  0  0  0  0  0
  183.3210  176.4330  134.9100 C   0  0  0  0  0  2  0  0  0  0  0  0
  182.0410  176.5980  135.7160 C   0  0  0  0  0  2  0  0  0  0  0  0
  181.8330  179.0490  135.9270 F   0  0  0  0  0  0  0  0  0  0  0  0
  181.3690  177.8910  135.3880 C   0  0  0  0  0  0  0  0  0  0  0  0
  180.4220  177.9160  134.6180 O   0  0  0  0  0  0  0  0  0  0  0  0
  183.9250  174.0620  137.4240 C   0  0  0  0  0  2  0  0  0  0  0  0
  181.5100  173.1040  137.0680 C   0  0  0  0  0  1  0  0  0  0  0  0
  183.1640  172.7680  136.3990 S   0  0  0  0  0  0  0  0  0  0  0  0
  186.8130  173.7840  135.5850 C   0  0  0  0  0  2  0  0  0  0  0  0
  187.1450  172.6590  136.5500 C   0  0  0  0  0  2  0  0  0  0  0  0
  188.2680  171.7990  135.9910 C   0  0  0  0  0  2  0  0  0  0  0  0
  186.5160  170.4000  135.0200 N   0  0  0  0  0  1  0  0  0  0  0  0
  187.7910  170.3800  135.7180 C   0  0  0  0  0  2  0  0  0  0  0  0
  1  8  1  0  0  0  0
  1 18  1  0  0  0  0
  2 33  1  0  0  0  0
  2 23  1  0  0  0  0
  3 32  1  0  0  0  0
  4  7  2  0  0  0  0
  5 11  1  0  0  0  0
  7 29  1  0  0  0  0
  7  6  1  0  0  0  0
  8 26  2  0  0  0  0
  9  5  1  0  0  0  0
 10  9  2  0  0  0  0
 11 16  1  0  0  0  0
 12 30  2  0  0  0  0
 13 20  1  0  0  0  0
 13 30  1  0  0  0  0
 14  4  1  6  0  0  0
 14 17  1  0  0  0  0
 15 25  1  0  0  0  0
 16 13  1  0  0  0  0
 17 34  1  0  0  0  0
 17  6  2  0  0  0  0
 18 19  2  0  0  0  0
 19  9  1  0  0  0  0
 22 31  1  6  0  0  0
 22 14  1  0  0  0  0
 23 22  1  0  0  0  0
 24  3  1  0  0  0  0
 24  8  1  0  0  0  0
 25  2  2  0  0  0  0
 26 19  1  0  0  0  0
 26 15  1  0  0  0  0
 27 33  2  0  0  0  0
 28 27  1  0  0  0  0
 30  4  1  0  0  0  0
 32 28  2  0  0  0  0
 32 25  1  0  0  0  0
 33 21  1  0  0  0  0
 34 35  1  0  0  0  0
 36 18  1  0  0  0  0
 36 43  1  6  0  0  0
 37 36  1  0  0  0  0
 38 37  1  0  0  0  0
 38 39  1  0  0  0  0
 41 39  1  0  0  0  0
 41 40  1  0  0  0  0
 42 41  2  0  0  0  0
 45 44  1  0  0  0  0
 45 43  1  0  0  0  0
 46  1  1  0  0  0  0
 46 47  1  0  0  0  0
 48 47  1  0  0  0  0
 49 50  1  0  0  0  0
 50 48  1  0  0  0  0
M  END
>  <MODEL>
6

>  <REMARK>
 VINA RESULT:      -6.1      3.305      9.540
  Name = 
  12 active torsions:
  status: ('A' for Active; 'I' for Inactive)
    1  A    between atoms: N_1  and  C_39
    2  A    between atoms: C_13  and  C_21
    3  A    between atoms: C_13  and  C_37
    4  A    between atoms: C_22  and  C_23
    5  A    between atoms: C_24  and  C_27
    6  A    between atoms: O_25  and  C_27
    7  A    between atoms: O_25  and  C_32
    8  A    between atoms: C_27  and  C_33
    9  A    between atoms: C_32  and  C_34
   10  A    between atoms: C_33  and  S_41
   11  A    between atoms: C_34  and  C_42
   12  A    between atoms: C_37  and  C_39
                            x       y       z     vdW  Elec       q    Type
                         _______ _______ _______ _____ _____    ______ ____

>  <TORSDO>
F 12

$$$$
=
 OpenBabel11062412523D

 50 54  0  0  1  0  0  0  0  0999 V2000
  183.8130  177.9530  140.4200 N   0  0  0  0  0  0  0  0  0  0  0  0
  183.6040  175.2090  135.7440 C   0  0  0  0  0  0  0  0  0  0  0  0
  181.1790  177.2960  137.7790 C   0  0  0  0  0  2  0  0  0  0  0  0
  188.3420  174.5050  135.7470 C   0  0  0  0  0  0  0  0  0  0  0  0
  187.8490  178.3940  138.6420 N   0  0  0  0  0  2  0  0  0  0  0  0
  188.7530  172.2640  135.7610 N   0  0  0  0  0  0  0  0  0  0  0  0
  189.2640  173.5710  135.9790 C   0  0  0  0  0  0  0  0  0  0  0  0
  183.2150  177.6350  139.2550 C   0  0  0  0  0  0  0  0  0  0  0  0
  186.5640  178.5210  138.0320 C   0  0  0  0  0  0  0  0  0  0  0  0
  186.4730  178.9260  136.8420 O   0  0  0  0  0  0  0  0  0  0  0  0
  189.1000  178.8470  138.0440 C   0  0  0  0  0  2  0  0  0  0  0  0
  187.9940  176.6620  134.8800 O   0  0  0  0  0  0  0  0  0  0  0  0
  189.1890  176.6380  136.8850 N   0  0  0  0  0  0  0  0  0  0  0  0
  187.1130  173.8250  135.2240 C   0  0  1  0  0  3  0  0  0  0  0  0
  183.9050  177.5130  136.7540 C   0  0  0  0  0  2  0  0  0  0  0  0
  189.4540  178.0720  136.7740 C   0  0  0  0  0  2  0  0  0  0  0  0
  187.5320  172.3970  135.3600 C   0  0  0  0  0  0  0  0  0  0  0  0
  185.0950  178.2850  140.1600 C   0  0  0  0  0  0  0  0  0  0  0  0
  185.3370  178.1720  138.7860 C   0  0  0  0  0  0  0  0  0  0  0  0
  189.6170  175.9180  138.0810 C   0  0  0  0  0  1  0  0  0  0  0  0
  183.2220  172.9800  134.6030 C   0  0  0  0  0  1  0  0  0  0  0  0
  185.8330  174.1220  136.0130 C   0  0  2  0  0  3  0  0  0  0  0  0
  185.0430  175.2170  135.3100 C   0  0  0  0  0  2  0  0  0  0  0  0
  181.7790  177.1770  139.1720 C   0  0  0  0  0  2  0  0  0  0  0  0
  183.0800  176.2870  136.4760 C   0  0  0  0  0  0  0  0  0  0  0  0
  184.1440  177.7320  138.2210 C   0  0  0  0  0  0  0  0  0  0  0  0
  181.4690  174.1440  135.8630 N   0  0  0  0  0  0  0  0  0  0  0  0
  180.9850  175.1510  136.5890 N   0  0  0  0  0  0  0  0  0  0  0  0
  190.7060  173.8160  136.2630 C   0  0  0  0  0  1  0  0  0  0  0  0
  188.5140  175.9720  135.7990 C   0  0  0  0  0  0  0  0  0  0  0  0
  186.0920  174.4720  137.3420 O   0  0  0  0  0  1  0  0  0  0  0  0
  181.7460  176.2290  136.9030 C   0  0  0  0  0  0  0  0  0  0  0  0
  182.7540  174.1350  135.4220 C   0  0  0  0  0  0  0  0  0  0  0  0
  186.6700  171.2320  135.0080 C   0  0  0  0  0  2  0  0  0  0  0  0
  187.4920  169.9570  134.9840 C   0  0  0  0  0  1  0  0  0  0  0  0
  186.0410  178.7150  141.2580 C   0  0  1  0  0  3  0  0  0  0  0  0
  185.4280  179.3880  142.3370 O   0  0  0  0  0  0  0  0  0  0  0  0
  185.9750  178.9130  143.5380 C   0  0  0  0  0  2  0  0  0  0  0  0
  184.8730  178.6620  144.5570 C   0  0  0  0  0  2  0  0  0  0  0  0
  186.7670  178.2810  146.0940 F   0  0  0  0  0  0  0  0  0  0  0  0
  185.4400  178.5250  145.9320 C   0  0  0  0  0  0  0  0  0  0  0  0
  184.7230  178.6570  146.9110 O   0  0  0  0  0  0  0  0  0  0  0  0
  187.1610  177.7470  141.6320 C   0  0  0  0  0  2  0  0  0  0  0  0
  189.6650  177.0900  142.0460 C   0  0  0  0  0  1  0  0  0  0  0  0
  188.7420  178.6310  141.7820 S   0  0  0  0  0  0  0  0  0  0  0  0
  183.1860  177.9140  141.7360 C   0  0  0  0  0  2  0  0  0  0  0  0
  182.3170  179.1430  141.9350 C   0  0  0  0  0  2  0  0  0  0  0  0
  180.9450  178.7410  142.4520 C   0  0  0  0  0  2  0  0  0  0  0  0
  179.6810  180.8320  142.4260 N   0  0  0  0  0  1  0  0  0  0  0  0
  179.8430  179.5430  141.7730 C   0  0  0  0  0  2  0  0  0  0  0  0
  1 46  1  0  0  0  0
  2 25  1  0  0  0  0
  3 24  1  0  0  0  0
  4 30  1  0  0  0  0
  4  7  2  0  0  0  0
  6  7  1  0  0  0  0
  7 29  1  0  0  0  0
  8  1  1  0  0  0  0
  9  5  1  0  0  0  0
  9 19  1  0  0  0  0
 10  9  2  0  0  0  0
 11  5  1  0  0  0  0
 12 30  2  0  0  0  0
 13 20  1  0  0  0  0
 14 17  1  1  0  0  0
 14  4  1  0  0  0  0
 14 22  1  0  0  0  0
 15 26  1  0  0  0  0
 16 13  1  0  0  0  0
 16 11  1  0  0  0  0
 17  6  2  0  0  0  0
 18  1  1  0  0  0  0
 18 36  1  0  0  0  0
 19 18  2  0  0  0  0
 21 33  1  0  0  0  0
 22 31  1  1  0  0  0
 23  2  1  0  0  0  0
 23 22  1  0  0  0  0
 24  8  1  0  0  0  0
 25 15  1  0  0  0  0
 25 32  2  0  0  0  0
 26 19  1  0  0  0  0
 26  8  2  0  0  0  0
 27 28  2  0  0  0  0
 28 32  1  0  0  0  0
 30 13  1  0  0  0  0
 32  3  1  0  0  0  0
 33  2  2  0  0  0  0
 33 27  1  0  0  0  0
 34 17  1  0  0  0  0
 35 34  1  0  0  0  0
 36 43  1  1  0  0  0
 36 37  1  0  0  0  0
 37 38  1  0  0  0  0
 38 39  1  0  0  0  0
 39 41  1  0  0  0  0
 41 40  1  0  0  0  0
 41 42  2  0  0  0  0
 43 45  1  0  0  0  0
 45 44  1  0  0  0  0
 46 47  1  0  0  0  0
 47 48  1  0  0  0  0
 50 49  1  0  0  0  0
 50 48  1  0  0  0  0
M  END
>  <MODEL>
7

>  <REMARK>
 VINA RESULT:      -6.0      2.595      5.106
  Name = 
  12 active torsions:
  status: ('A' for Active; 'I' for Inactive)
    1  A    between atoms: N_1  and  C_39
    2  A    between atoms: C_13  and  C_21
    3  A    between atoms: C_13  and  C_37
    4  A    between atoms: C_22  and  C_23
    5  A    between atoms: C_24  and  C_27
    6  A    between atoms: O_25  and  C_27
    7  A    between atoms: O_25  and  C_32
    8  A    between atoms: C_27  and  C_33
    9  A    between atoms: C_32  and  C_34
   10  A    between atoms: C_33  and  S_41
   11  A    between atoms: C_34  and  C_42
   12  A    between atoms: C_37  and  C_39
                            x       y       z     vdW  Elec       q    Type
                         _______ _______ _______ _____ _____    ______ ____

>  <TORSDO>
F 12

$$$$
=
 OpenBabel11062412523D

 50 54  0  0  1  0  0  0  0  0999 V2000
  187.9850  177.9430  141.2460 N   0  0  0  0  0  0  0  0  0  0  0  0
  184.2150  176.8200  137.5100 C   0  0  0  0  0  0  0  0  0  0  0  0
  184.6890  179.4720  140.1770 C   0  0  0  0  0  2  0  0  0  0  0  0
  187.0010  173.5170  135.4430 C   0  0  0  0  0  0  0  0  0  0  0  0
  190.2330  176.3050  137.7950 N   0  0  0  0  0  2  0  0  0  0  0  0
  185.9360  171.5040  135.5170 N   0  0  0  0  0  0  0  0  0  0  0  0
  187.1610  172.1990  135.3340 C   0  0  0  0  0  0  0  0  0  0  0  0
  186.8960  178.2690  140.5220 C   0  0  0  0  0  0  0  0  0  0  0  0
  189.1810  177.2710  137.8240 C   0  0  0  0  0  0  0  0  0  0  0  0
  188.8600  177.8790  136.7680 O   0  0  0  0  0  0  0  0  0  0  0  0
  191.1000  176.0580  136.6490 C   0  0  0  0  0  2  0  0  0  0  0  0
  187.6980  175.5960  134.5950 O   0  0  0  0  0  0  0  0  0  0  0  0
  189.3400  174.4880  135.8280 N   0  0  0  0  0  0  0  0  0  0  0  0
  185.5380  173.7950  135.6130 C   0  0  1  0  0  3  0  0  0  0  0  0
  186.2330  178.2670  138.0110 C   0  0  0  0  0  2  0  0  0  0  0  0
  190.3360  175.4910  135.4500 C   0  0  0  0  0  2  0  0  0  0  0  0
  185.0200  172.3970  135.7010 C   0  0  0  0  0  0  0  0  0  0  0  0
  188.9440  177.5150  140.3980 C   0  0  0  0  0  0  0  0  0  0  0  0
  188.4590  177.5570  139.0860 C   0  0  0  0  0  0  0  0  0  0  0  0
  189.7020  173.4350  136.7720 C   0  0  0  0  0  1  0  0  0  0  0  0
  182.1310  175.5050  136.9210 C   0  0  0  0  0  1  0  0  0  0  0  0
  185.1840  174.6160  136.8580 C   0  0  2  0  0  3  0  0  0  0  0  0
  185.0100  176.0780  136.4730 C   0  0  0  0  0  2  0  0  0  0  0  0
  185.6130  178.7550  141.1500 C   0  0  0  0  0  2  0  0  0  0  0  0
  184.8190  177.8310  138.2760 C   0  0  0  0  0  0  0  0  0  0  0  0
  187.1460  178.0120  139.1760 C   0  0  0  0  0  0  0  0  0  0  0  0
  182.1780  177.1910  138.7010 N   0  0  0  0  0  0  0  0  0  0  0  0
  182.7630  178.1240  139.4510 N   0  0  0  0  0  0  0  0  0  0  0  0
  188.4060  171.5010  134.9030 C   0  0  0  0  0  1  0  0  0  0  0  0
  188.0240  174.5680  135.2480 C   0  0  0  0  0  0  0  0  0  0  0  0
  186.1320  174.4800  137.8770 O   0  0  0  0  0  1  0  0  0  0  0  0
  184.0610  178.4730  139.2640 C   0  0  0  0  0  0  0  0  0  0  0  0
  182.8560  176.5270  137.7300 C   0  0  0  0  0  0  0  0  0  0  0  0
  183.5850  172.0440  135.9110 C   0  0  0  0  0  2  0  0  0  0  0  0
  183.3810  171.4750  137.3020 C   0  0  0  0  0  1  0  0  0  0  0  0
  190.3080  177.0890  140.8920 C   0  0  1  0  0  3  0  0  0  0  0  0
  190.2890  176.2670  142.0400 O   0  0  0  0  0  0  0  0  0  0  0  0
  191.2520  176.7330  142.9480 C   0  0  0  0  0  2  0  0  0  0  0  0
  191.1610  175.9600  144.2560 C   0  0  0  0  0  2  0  0  0  0  0  0
  192.0480  176.7540  146.4180 F   0  0  0  0  0  0  0  0  0  0  0  0
  191.1330  176.8910  145.4230 C   0  0  0  0  0  0  0  0  0  0  0  0
  190.3090  177.7900  145.4760 O   0  0  0  0  0  0  0  0  0  0  0  0
  191.3510  176.7300  139.8370 C   0  0  0  0  0  2  0  0  0  0  0  0
  193.8450  176.4230  139.0880 C   0  0  0  0  0  1  0  0  0  0  0  0
  192.9440  177.5130  140.2270 S   0  0  0  0  0  0  0  0  0  0  0  0
  188.0930  178.0150  142.6990 C   0  0  0  0  0  2  0  0  0  0  0  0
  187.2320  176.9400  143.3390 C   0  0  0  0  0  2  0  0  0  0  0  0
  186.3260  177.5510  144.3960 C   0  0  0  0  0  2  0  0  0  0  0  0
  186.7700  178.2860  146.6830 N   0  0  0  0  0  1  0  0  0  0  0  0
  186.7550  177.1360  145.7960 C   0  0  0  0  0  2  0  0  0  0  0  0
  1 46  1  0  0  0  0
  2 33  2  0  0  0  0
  2 25  1  0  0  0  0
  3 24  1  0  0  0  0
  5  9  1  0  0  0  0
  6 17  2  0  0  0  0
  7  4  2  0  0  0  0
  7  6  1  0  0  0  0
  8 24  1  0  0  0  0
  8  1  1  0  0  0  0
  9 19  1  0  0  0  0
 10  9  2  0  0  0  0
 11  5  1  0  0  0  0
 12 30  2  0  0  0  0
 13 20  1  0  0  0  0
 14  4  1  1  0  0  0
 14 17  1  0  0  0  0
 14 22  1  0  0  0  0
 15 25  1  0  0  0  0
 15 26  1  0  0  0  0
 16 13  1  0  0  0  0
 16 11  1  0  0  0  0
 17 34  1  0  0  0  0
 18 36  1  0  0  0  0
 18  1  1  0  0  0  0
 19 26  1  0  0  0  0
 19 18  2  0  0  0  0
 21 33  1  0  0  0  0
 22 31  1  1  0  0  0
 23 22  1  0  0  0  0
 23  2  1  0  0  0  0
 25 32  2  0  0  0  0
 26  8  2  0  0  0  0
 27 28  2  0  0  0  0
 29  7  1  0  0  0  0
 30  4  1  0  0  0  0
 30 13  1  0  0  0  0
 32 28  1  0  0  0  0
 32  3  1  0  0  0  0
 33 27  1  0  0  0  0
 34 35  1  0  0  0  0
 36 43  1  6  0  0  0
 36 37  1  0  0  0  0
 37 38  1  0  0  0  0
 38 39  1  0  0  0  0
 39 41  1  0  0  0  0
 41 42  2  0  0  0  0
 41 40  1  0  0  0  0
 43 45  1  0  0  0  0
 44 45  1  0  0  0  0
 46 47  1  0  0  0  0
 47 48  1  0  0  0  0
 48 50  1  0  0  0  0
 50 49  1  0  0  0  0
M  END
>  <MODEL>
8

>  <REMARK>
 VINA RESULT:      -5.8      2.746      3.866
  Name = 
  12 active torsions:
  status: ('A' for Active; 'I' for Inactive)
    1  A    between atoms: N_1  and  C_39
    2  A    between atoms: C_13  and  C_21
    3  A    between atoms: C_13  and  C_37
    4  A    between atoms: C_22  and  C_23
    5  A    between atoms: C_24  and  C_27
    6  A    between atoms: O_25  and  C_27
    7  A    between atoms: O_25  and  C_32
    8  A    between atoms: C_27  and  C_33
    9  A    between atoms: C_32  and  C_34
   10  A    between atoms: C_33  and  S_41
   11  A    between atoms: C_34  and  C_42
   12  A    between atoms: C_37  and  C_39
                            x       y       z     vdW  Elec       q    Type
                         _______ _______ _______ _____ _____    ______ ____

>  <TORSDO>
F 12

$$$$
=
 OpenBabel11062412523D

 50 54  0  0  1  0  0  0  0  0999 V2000
  187.8790  177.3160  139.2000 N   0  0  0  0  0  0  0  0  0  0  0  0
  183.0120  178.5550  141.2550 C   0  0  0  0  0  0  0  0  0  0  0  0
  186.5700  179.7520  141.7880 C   0  0  0  0  0  2  0  0  0  0  0  0
  180.7570  175.9040  137.9640 C   0  0  0  0  0  0  0  0  0  0  0  0
  185.0420  176.8170  135.8310 N   0  0  0  0  0  2  0  0  0  0  0  0
  179.5580  174.2800  139.0220 N   0  0  0  0  0  0  0  0  0  0  0  0
  180.1300  174.7380  137.8060 C   0  0  0  0  0  0  0  0  0  0  0  0
  187.0590  178.1110  139.9150 C   0  0  0  0  0  0  0  0  0  0  0  0
  185.1450  177.8710  136.7890 C   0  0  0  0  0  0  0  0  0  0  0  0
  184.4360  178.9050  136.6610 O   0  0  0  0  0  0  0  0  0  0  0  0
  184.2730  176.8930  134.5940 C   0  0  0  0  0  2  0  0  0  0  0  0
  181.2210  177.9700  136.9450 O   0  0  0  0  0  0  0  0  0  0  0  0
  182.2980  176.1630  135.9350 N   0  0  0  0  0  0  0  0  0  0  0  0
  180.5310  176.3660  139.3720 C   0  0  1  0  0  3  0  0  0  0  0  0
  184.7560  179.2550  139.5540 C   0  0  0  0  0  2  0  0  0  0  0  0
  182.7700  177.0190  134.8470 C   0  0  0  0  0  2  0  0  0  0  0  0
  179.8020  175.1800  139.9170 C   0  0  0  0  0  0  0  0  0  0  0  0
  187.3070  177.0920  137.9980 C   0  0  0  0  0  0  0  0  0  0  0  0
  186.0760  177.7550  137.9360 C   0  0  0  0  0  0  0  0  0  0  0  0
  182.7290  174.7700  135.9910 C   0  0  0  0  0  1  0  0  0  0  0  0
  181.2340  178.0210  142.9790 C   0  0  0  0  0  1  0  0  0  0  0  0
  181.8100  176.6630  140.1620 C   0  0  2  0  0  3  0  0  0  0  0  0
  182.0890  178.1590  140.1380 C   0  0  0  0  0  2  0  0  0  0  0  0
  187.3650  178.5380  141.3300 C   0  0  0  0  0  2  0  0  0  0  0  0
  184.3030  179.0310  140.9710 C   0  0  0  0  0  0  0  0  0  0  0  0
  185.9130  178.3780  139.1700 C   0  0  0  0  0  0  0  0  0  0  0  0
  183.4800  178.7970  143.5850 N   0  0  0  0  0  0  0  0  0  0  0  0
  184.7170  179.2140  143.3140 N   0  0  0  0  0  0  0  0  0  0  0  0
  179.8790  174.0490  136.5090 C   0  0  0  0  0  1  0  0  0  0  0  0
  181.4110  176.7230  136.9220 C   0  0  0  0  0  0  0  0  0  0  0  0
  182.9120  175.9450  139.6850 O   0  0  0  0  0  1  0  0  0  0  0  0
  185.1550  179.3510  142.0370 C   0  0  0  0  0  0  0  0  0  0  0  0
  182.6060  178.4660  142.5990 C   0  0  0  0  0  0  0  0  0  0  0  0
  179.3350  175.0580  141.3290 C   0  0  0  0  0  2  0  0  0  0  0  0
  179.3610  173.6050  141.7680 C   0  0  0  0  0  1  0  0  0  0  0  0
  187.9840  176.2470  136.9430 C   0  0  1  0  0  3  0  0  0  0  0  0
  189.1360  176.8300  136.3700 O   0  0  0  0  0  0  0  0  0  0  0  0
  190.0680  175.8180  136.0960 C   0  0  0  0  0  2  0  0  0  0  0  0
  191.4740  176.2920  136.4320 C   0  0  0  0  0  2  0  0  0  0  0  0
  193.3140  175.7470  137.9860 F   0  0  0  0  0  0  0  0  0  0  0  0
  192.0790  175.4470  137.5050 C   0  0  0  0  0  0  0  0  0  0  0  0
  191.4590  174.5030  137.9690 O   0  0  0  0  0  0  0  0  0  0  0  0
  188.0570  174.7430  137.1940 C   0  0  0  0  0  2  0  0  0  0  0  0
  187.4290  172.2390  136.7360 C   0  0  0  0  0  1  0  0  0  0  0  0
  186.9810  173.8520  136.0320 S   0  0  0  0  0  0  0  0  0  0  0  0
  189.1510  176.7700  139.6610 C   0  0  0  0  0  2  0  0  0  0  0  0
  190.2330  177.8330  139.5780 C   0  0  0  0  0  2  0  0  0  0  0  0
  191.3700  177.5020  140.5310 C   0  0  0  0  0  2  0  0  0  0  0  0
  191.6020  177.8110  142.9430 N   0  0  0  0  0  1  0  0  0  0  0  0
  190.8440  177.1280  141.9090 C   0  0  0  0  0  2  0  0  0  0  0  0
  1 46  1  0  0  0  0
  1  8  1  0  0  0  0
  2 33  1  0  0  0  0
  3 32  1  0  0  0  0
  5  9  1  0  0  0  0
  6 17  2  0  0  0  0
  7  4  2  0  0  0  0
  7  6  1  0  0  0  0
  8 24  1  0  0  0  0
  9 19  1  0  0  0  0
 10  9  2  0  0  0  0
 11 16  1  0  0  0  0
 11  5  1  0  0  0  0
 13 20  1  0  0  0  0
 13 30  1  0  0  0  0
 14  4  1  6  0  0  0
 14 17  1  0  0  0  0
 14 22  1  0  0  0  0
 15 25  1  0  0  0  0
 16 13  1  0  0  0  0
 17 34  1  0  0  0  0
 18  1  1  0  0  0  0
 19 18  2  0  0  0  0
 19 26  1  0  0  0  0
 22 31  1  6  0  0  0
 23 22  1  0  0  0  0
 23  2  1  0  0  0  0
 24  3  1  0  0  0  0
 25  2  2  0  0  0  0
 25 32  1  0  0  0  0
 26 15  1  0  0  0  0
 26  8  2  0  0  0  0
 28 27  1  0  0  0  0
 29  7  1  0  0  0  0
 30 12  2  0  0  0  0
 30  4  1  0  0  0  0
 32 28  2  0  0  0  0
 33 21  1  0  0  0  0
 33 27  2  0  0  0  0
 34 35  1  0  0  0  0
 36 43  1  1  0  0  0
 36 18  1  0  0  0  0
 37 36  1  0  0  0  0
 38 37  1  0  0  0  0
 38 39  1  0  0  0  0
 39 41  1  0  0  0  0
 41 42  2  0  0  0  0
 41 40  1  0  0  0  0
 45 44  1  0  0  0  0
 45 43  1  0  0  0  0
 47 46  1  0  0  0  0
 47 48  1  0  0  0  0
 48 50  1  0  0  0  0
 50 49  1  0  0  0  0
M  END
>  <MODEL>
9

>  <REMARK>
 VINA RESULT:      -5.5      2.857      4.958
  Name = 
  12 active torsions:
  status: ('A' for Active; 'I' for Inactive)
    1  A    between atoms: N_1  and  C_39
    2  A    between atoms: C_13  and  C_21
    3  A    between atoms: C_13  and  C_37
    4  A    between atoms: C_22  and  C_23
    5  A    between atoms: C_24  and  C_27
    6  A    between atoms: O_25  and  C_27
    7  A    between atoms: O_25  and  C_32
    8  A    between atoms: C_27  and  C_33
    9  A    between atoms: C_32  and  C_34
   10  A    between atoms: C_33  and  S_41
   11  A    between atoms: C_34  and  C_42
   12  A    between atoms: C_37  and  C_39
                            x       y       z     vdW  Elec       q    Type
                         _______ _______ _______ _____ _____    ______ ____

>  <TORSDO>
F 12

$$$$
