=
 OpenBabel11062415253D

 48 54  0  0  1  0  0  0  0  0999 V2000
  187.5100  175.7740  134.7160 C   0  0  0  0  0  2  0  0  0  0  0  0
  187.7320  175.6720  137.6200 C   0  0  0  0  0  2  0  0  0  0  0  0
  188.3570  176.7920  135.4810 C   0  0  0  0  0  2  0  0  0  0  0  0
  186.4150  175.2230  135.5370 N   0  0  0  0  0  0  0  0  0  0  0  0
  188.8900  176.1570  136.7640 C   0  0  1  0  0  3  0  0  0  0  0  0
  186.8600  174.6850  136.8340 C   0  0  1  0  0  3  0  0  0  0  0  0
  187.5670  173.3500  136.6490 C   0  0  0  0  0  1  0  0  0  0  0  0
  188.7340  177.5420  141.1200 C   0  0  0  0  0  0  0  0  0  0  0  0
  188.2300  177.4530  139.7040 C   0  0  0  0  0  3  0  0  0  0  0  0
  189.4910  177.0910  139.0000 C   0  0  0  0  0  0  0  0  0  0  0  0
  189.8070  177.0940  137.5570 C   0  0  1  0  0  3  0  0  0  0  0  0
  191.5820  176.6320  137.4450 S   0  0  0  0  0  0  0  0  0  0  0  0
  191.8430  176.8890  139.2400 C   0  0  0  0  0  2  0  0  0  0  0  0
  190.4880  176.9970  139.8240 C   0  0  0  0  0  0  0  0  0  0  0  0
  190.0430  177.2640  141.1890 C   0  0  1  0  0  3  0  0  0  0  0  0
  190.7350  177.9160  144.5740 C   0  0  2  0  0  3  0  0  0  0  0  0
  191.0710  176.0750  143.1380 C   0  0  0  0  0  2  0  0  0  0  0  0
  189.7580  178.3980  145.5380 N   0  0  0  0  0  1  0  0  0  0  0  0
  190.9360  177.3990  142.4060 C   0  0  2  0  0  0  0  0  0  0  0  0
  191.7580  175.9360  145.4060 O   0  0  0  0  0  1  0  0  0  0  0  0
  190.3750  178.3460  143.2890 O   0  0  0  0  0  0  0  0  0  0  0  0
  192.2150  177.8210  142.0270 O   0  0  0  0  0  1  0  0  0  0  0  0
  190.7530  176.4090  144.5660 C   0  0  1  0  0  3  0  0  0  0  0  0
  187.5900  176.7940  143.0570 O   0  0  0  0  0  1  0  0  0  0  0  0
  187.8680  177.9240  142.2860 C   0  0  2  0  0  3  0  0  0  0  0  0
  186.5900  178.6000  141.8800 C   0  0  0  0  0  0  0  0  0  0  0  0
  186.6020  179.5710  141.0730 O   0  0  0  0  0  0  0  0  0  0  0  0
  185.3480  178.0610  142.3250 N   0  0  0  0  0  2  0  0  0  0  0  0
  183.2040  178.8040  143.1770 C   0  0  0  0  0  1  0  0  0  0  0  0
  184.0800  178.6650  141.9570 C   0  0  0  0  0  2  0  0  0  0  0  0
  185.2340  176.0830  135.7320 C   0  0  1  0  0  3  0  0  0  0  0  0
  184.2180  176.0690  134.5950 C   0  0  0  0  0  1  0  0  0  0  0  0
  184.5440  175.6890  137.0250 C   0  0  0  0  0  2  0  0  0  0  0  0
  183.0790  176.1140  137.0070 C   0  0  2  0  0  3  0  0  0  0  0  0
  181.2690  177.8970  135.0410 C   0  0  0  0  0  1  0  0  0  0  0  0
  183.6650  177.6970  138.6970 O   0  0  0  0  0  0  0  0  0  0  0  0
  179.6840  179.0480  136.5750 C   0  0  0  0  0  2  0  0  0  0  0  0
  181.5410  179.6080  137.9410 C   0  0  0  0  0  0  0  0  0  0  0  0
  180.7460  181.2640  136.2940 C   0  0  0  0  0  1  0  0  0  0  0  0
  180.3240  180.2260  137.3110 C   0  0  1  0  0  3  0  0  0  0  0  0
  181.8020  178.2870  137.3990 N   0  0  0  0  0  0  0  0  0  0  0  0
  180.7350  177.9340  136.4690 C   0  0  2  0  0  3  0  0  0  0  0  0
  182.8810  177.4020  137.7560 C   0  0  0  0  0  0  0  0  0  0  0  0
  182.5790  180.3540  138.7530 C   0  0  0  0  0  2  0  0  0  0  0  0
  181.4480  179.6050  139.4530 C   0  0  0  0  0  2  0  0  0  0  0  0
  182.6220  173.6720  137.0780 C   0  0  0  0  0  2  0  0  0  0  0  0
  181.4000  174.3600  136.5200 C   0  0  0  0  0  2  0  0  0  0  0  0
  182.2140  175.0300  137.6100 C   0  0  0  0  0  3  0  0  0  0  0  0
  1  3  1  0  0  0  0
  1  4  1  0  0  0  0
  4 31  1  0  0  0  0
  4  6  1  0  0  0  0
  5  3  1  6  0  0  0
  5 11  1  0  0  0  0
  5  2  1  0  0  0  0
  6  7  1  6  0  0  0
  6  2  1  0  0  0  0
  8 15  1  0  0  0  0
  8 25  1  0  0  0  0
  9  8  2  0  0  0  0
 10  9  1  0  0  0  0
 10 14  2  0  0  0  0
 11 12  1  1  0  0  0
 11 10  1  0  0  0  0
 12 13  1  0  0  0  0
 13 14  1  0  0  0  0
 15 14  1  6  0  0  0
 15 19  1  0  0  0  0
 16 18  1  1  0  0  0
 17 23  1  0  0  0  0
 19 22  1  6  0  0  0
 19 17  1  0  0  0  0
 19 21  1  0  0  0  0
 21 16  1  0  0  0  0
 23 16  1  0  0  0  0
 23 20  1  1  0  0  0
 25 24  1  6  0  0  0
 26 25  1  0  0  0  0
 26 28  1  0  0  0  0
 27 26  2  0  0  0  0
 30 28  1  0  0  0  0
 30 29  1  0  0  0  0
 31 32  1  6  0  0  0
 31 33  1  0  0  0  0
 34 33  1  1  0  0  0
 34 48  1  0  0  0  0
 34 43  1  0  0  0  0
 37 40  1  0  0  0  0
 38 44  1  0  0  0  0
 38 45  1  0  0  0  0
 40 39  1  6  0  0  0
 40 38  1  0  0  0  0
 41 43  1  0  0  0  0
 41 38  1  0  0  0  0
 42 35  1  6  0  0  0
 42 37  1  0  0  0  0
 42 41  1  0  0  0  0
 43 36  2  0  0  0  0
 44 45  1  0  0  0  0
 46 48  1  0  0  0  0
 47 46  1  0  0  0  0
 47 48  1  0  0  0  0
M  END
>  <MODEL>
1

>  <REMARK>
 VINA RESULT:      -7.2      0.000      0.000
  Name = 
  10 active torsions:
  status: ('A' for Active; 'I' for Inactive)
    1  A    between atoms: C_3  and  C_29
    2  A    between atoms: C_3  and  N_31
    3  A    between atoms: C_5  and  C_25
    4  A    between atoms: C_9  and  C_33
    5  A    between atoms: C_17  and  C_25
    6  A    between atoms: C_18  and  C_29
    7  A    between atoms: C_18  and  C_38
    8  A    between atoms: C_18  and  C_47
    9  A    between atoms: N_21  and  C_30
   10  A    between atoms: C_32  and  C_42
                            x       y       z     vdW  Elec       q    Type
                         _______ _______ _______ _____ _____    ______ ____

>  <TORSDO>
F 10

$$$$
=
 OpenBabel11062415253D

 48 54  0  0  1  0  0  0  0  0999 V2000
  181.4640  177.7130  140.3560 C   0  0  0  0  0  2  0  0  0  0  0  0
  183.6210  178.8860  138.7860 C   0  0  0  0  0  2  0  0  0  0  0  0
  182.8650  177.8880  140.9430 C   0  0  0  0  0  2  0  0  0  0  0  0
  181.4820  177.5870  138.8860 N   0  0  0  0  0  0  0  0  0  0  0  0
  183.5500  179.0870  140.2910 C   0  0  1  0  0  3  0  0  0  0  0  0
  182.2170  178.6680  138.2080 C   0  0  1  0  0  3  0  0  0  0  0  0
  181.4090  179.9570  138.2170 C   0  0  0  0  0  1  0  0  0  0  0  0
  185.3150  178.2070  144.4180 C   0  0  0  0  0  0  0  0  0  0  0  0
  184.3760  178.8910  143.4600 C   0  0  0  0  0  3  0  0  0  0  0  0
  185.1310  178.7220  142.1880 C   0  0  0  0  0  0  0  0  0  0  0  0
  184.9380  179.3710  140.8750 C   0  0  1  0  0  3  0  0  0  0  0  0
  186.3070  178.7520  139.8170 S   0  0  0  0  0  0  0  0  0  0  0  0
  187.2130  178.0680  141.2550 C   0  0  0  0  0  2  0  0  0  0  0  0
  186.2480  178.0890  142.3770 C   0  0  0  0  0  0  0  0  0  0  0  0
  186.3950  177.7320  143.7840 C   0  0  1  0  0  3  0  0  0  0  0  0
  189.5470  176.1720  143.7780 C   0  0  2  0  0  3  0  0  0  0  0  0
  188.6920  178.1780  144.6780 C   0  0  0  0  0  2  0  0  0  0  0  0
  190.2330  175.7040  142.5830 N   0  0  0  0  0  1  0  0  0  0  0  0
  187.6270  177.1240  144.4250 C   0  0  2  0  0  0  0  0  0  0  0  0
  190.9790  177.6300  144.9950 O   0  0  0  0  0  1  0  0  0  0  0  0
  188.1610  176.1440  143.5620 O   0  0  0  0  0  0  0  0  0  0  0  0
  187.2980  176.5330  145.6500 O   0  0  0  0  0  1  0  0  0  0  0  0
  189.9350  177.5970  144.0730 C   0  0  1  0  0  3  0  0  0  0  0  0
  183.8040  178.6290  146.1960 O   0  0  0  0  0  1  0  0  0  0  0  0
  185.0650  178.1090  145.8960 C   0  0  2  0  0  3  0  0  0  0  0  0
  186.1160  178.7940  146.7230 C   0  0  0  0  0  0  0  0  0  0  0  0
  186.3070  180.0380  146.6220 O   0  0  0  0  0  0  0  0  0  0  0  0
  186.8190  178.0440  147.7090 N   0  0  0  0  0  2  0  0  0  0  0  0
  189.1970  178.1160  148.1730 C   0  0  0  0  0  1  0  0  0  0  0  0
  187.8380  178.6530  148.5460 C   0  0  0  0  0  2  0  0  0  0  0  0
  181.8910  176.2830  138.3370 C   0  0  1  0  0  3  0  0  0  0  0  0
  181.0280  175.0950  138.7520 C   0  0  0  0  0  1  0  0  0  0  0  0
  181.9250  176.3720  136.8220 C   0  0  0  0  0  2  0  0  0  0  0  0
  183.0000  175.4550  136.2500 C   0  0  2  0  0  3  0  0  0  0  0  0
  185.3220  173.5620  137.4090 C   0  0  0  0  0  1  0  0  0  0  0  0
  184.2080  177.4520  135.7450 O   0  0  0  0  0  0  0  0  0  0  0  0
  187.1530  173.7760  135.7370 C   0  0  0  0  0  2  0  0  0  0  0  0
  186.8490  176.1280  135.8300 C   0  0  0  0  0  0  0  0  0  0  0  0
  188.6020  175.1090  137.2350 C   0  0  0  0  0  1  0  0  0  0  0  0
  187.9310  175.0850  135.8790 C   0  0  1  0  0  3  0  0  0  0  0  0
  185.5340  175.5290  135.9670 N   0  0  0  0  0  0  0  0  0  0  0  0
  185.6730  174.0780  136.0180 C   0  0  2  0  0  3  0  0  0  0  0  0
  184.2670  176.2150  135.9720 C   0  0  0  0  0  0  0  0  0  0  0  0
  187.0650  177.6190  135.9830 C   0  0  0  0  0  2  0  0  0  0  0  0
  186.9640  176.9950  134.5940 C   0  0  0  0  0  2  0  0  0  0  0  0
  181.0480  174.4100  135.1200 C   0  0  0  0  0  2  0  0  0  0  0  0
  182.1230  173.3600  135.2630 C   0  0  0  0  0  2  0  0  0  0  0  0
  182.5050  174.8000  134.9800 C   0  0  0  0  0  3  0  0  0  0  0  0
  1  3  1  0  0  0  0
  4  1  1  0  0  0  0
  5  2  1  6  0  0  0
  5 11  1  0  0  0  0
  5  3  1  0  0  0  0
  6  7  1  1  0  0  0
  6  2  1  0  0  0  0
  6  4  1  0  0  0  0
  8 25  1  0  0  0  0
  9  8  2  0  0  0  0
 10 14  2  0  0  0  0
 10  9  1  0  0  0  0
 11 12  1  6  0  0  0
 11 10  1  0  0  0  0
 12 13  1  0  0  0  0
 13 14  1  0  0  0  0
 15 14  1  1  0  0  0
 15  8  1  0  0  0  0
 15 19  1  0  0  0  0
 16 18  1  6  0  0  0
 16 23  1  0  0  0  0
 19 17  1  0  0  0  0
 19 22  1  1  0  0  0
 21 16  1  0  0  0  0
 21 19  1  0  0  0  0
 23 17  1  0  0  0  0
 23 20  1  1  0  0  0
 25 24  1  6  0  0  0
 25 26  1  0  0  0  0
 26 28  1  0  0  0  0
 27 26  2  0  0  0  0
 28 30  1  0  0  0  0
 29 30  1  0  0  0  0
 31 32  1  6  0  0  0
 31  4  1  0  0  0  0
 33 31  1  0  0  0  0
 34 33  1  6  0  0  0
 36 43  2  0  0  0  0
 37 40  1  0  0  0  0
 37 42  1  0  0  0  0
 38 40  1  0  0  0  0
 38 41  1  0  0  0  0
 38 44  1  0  0  0  0
 40 39  1  1  0  0  0
 41 43  1  0  0  0  0
 41 42  1  0  0  0  0
 42 35  1  1  0  0  0
 43 34  1  0  0  0  0
 45 38  1  0  0  0  0
 45 44  1  0  0  0  0
 46 47  1  0  0  0  0
 48 46  1  0  0  0  0
 48 47  1  0  0  0  0
 48 34  1  0  0  0  0
M  END
>  <MODEL>
2

>  <REMARK>
 VINA RESULT:      -6.8      2.488      5.724
  Name = 
  10 active torsions:
  status: ('A' for Active; 'I' for Inactive)
    1  A    between atoms: C_3  and  C_29
    2  A    between atoms: C_3  and  N_31
    3  A    between atoms: C_5  and  C_25
    4  A    between atoms: C_9  and  C_33
    5  A    between atoms: C_17  and  C_25
    6  A    between atoms: C_18  and  C_29
    7  A    between atoms: C_18  and  C_38
    8  A    between atoms: C_18  and  C_47
    9  A    between atoms: N_21  and  C_30
   10  A    between atoms: C_32  and  C_42
                            x       y       z     vdW  Elec       q    Type
                         _______ _______ _______ _____ _____    ______ ____

>  <TORSDO>
F 10

$$$$
=
 OpenBabel11062415253D

 48 54  0  0  1  0  0  0  0  0999 V2000
  183.1460  173.7000  135.1920 C   0  0  0  0  0  2  0  0  0  0  0  0
  185.4260  172.8840  136.8140 C   0  0  0  0  0  2  0  0  0  0  0  0
  184.5470  174.2490  134.9210 C   0  0  0  0  0  2  0  0  0  0  0  0
  182.9640  173.2930  136.5990 N   0  0  0  0  0  0  0  0  0  0  0  0
  185.5940  173.2200  135.3410 C   0  0  1  0  0  3  0  0  0  0  0  0
  184.0060  172.3740  137.0890 C   0  0  1  0  0  3  0  0  0  0  0  0
  183.8010  170.9770  136.5230 C   0  0  0  0  0  1  0  0  0  0  0  0
  188.3090  176.2390  137.4470 C   0  0  0  0  0  0  0  0  0  0  0  0
  187.1050  175.8240  136.6430 C   0  0  0  0  0  3  0  0  0  0  0  0
  187.5820  174.5170  136.1120 C   0  0  0  0  0  0  0  0  0  0  0  0
  187.0270  173.6690  135.0380 C   0  0  1  0  0  3  0  0  0  0  0  0
  188.2020  172.2670  134.8670 S   0  0  0  0  0  0  0  0  0  0  0  0
  189.4780  173.1100  135.8740 C   0  0  0  0  0  2  0  0  0  0  0  0
  188.7840  174.2480  136.5180 C   0  0  0  0  0  0  0  0  0  0  0  0
  189.2770  175.3160  137.3830 C   0  0  1  0  0  3  0  0  0  0  0  0
  192.7100  174.5670  137.5400 C   0  0  2  0  0  3  0  0  0  0  0  0
  191.4570  176.5390  137.2110 C   0  0  0  0  0  2  0  0  0  0  0  0
  193.3650  173.5340  136.7530 N   0  0  0  0  0  1  0  0  0  0  0  0
  190.6870  175.4420  137.9270 C   0  0  2  0  0  0  0  0  0  0  0  0
  193.8280  176.6410  137.2130 O   0  0  0  0  0  1  0  0  0  0  0  0
  191.3660  174.2200  137.7400 O   0  0  0  0  0  0  0  0  0  0  0  0
  190.6560  175.7500  139.2920 O   0  0  0  0  0  1  0  0  0  0  0  0
  192.7390  175.8780  136.7980 C   0  0  1  0  0  3  0  0  0  0  0  0
  188.5250  177.2910  139.5600 O   0  0  0  0  0  1  0  0  0  0  0  0
  188.4000  177.5390  138.1920 C   0  0  2  0  0  3  0  0  0  0  0  0
  187.2350  178.4530  137.9380 C   0  0  0  0  0  0  0  0  0  0  0  0
  187.2570  179.2750  136.9800 O   0  0  0  0  0  0  0  0  0  0  0  0
  186.0520  178.3030  138.7180 N   0  0  0  0  0  2  0  0  0  0  0  0
  183.9640  179.0480  139.6970 C   0  0  0  0  0  1  0  0  0  0  0  0
  184.8900  179.1490  138.5120 C   0  0  0  0  0  2  0  0  0  0  0  0
  182.7480  174.3710  137.5790 C   0  0  1  0  0  3  0  0  0  0  0  0
  183.2820  175.7420  137.1750 C   0  0  0  0  0  1  0  0  0  0  0  0
  181.2640  174.4800  137.8750 C   0  0  0  0  0  2  0  0  0  0  0  0
  180.6970  175.7860  137.3280 C   0  0  2  0  0  3  0  0  0  0  0  0
  181.5640  178.6380  136.1300 C   0  0  0  0  0  1  0  0  0  0  0  0
  180.2770  176.3260  139.6160 O   0  0  0  0  0  0  0  0  0  0  0  0
  179.8070  180.1910  136.9640 C   0  0  0  0  0  2  0  0  0  0  0  0
  180.1000  179.2340  139.1160 C   0  0  0  0  0  0  0  0  0  0  0  0
  181.3140  181.3130  138.5730 C   0  0  0  0  0  1  0  0  0  0  0  0
  180.0040  180.5700  138.4320 C   0  0  1  0  0  3  0  0  0  0  0  0
  180.2690  178.1610  138.1530 N   0  0  0  0  0  0  0  0  0  0  0  0
  180.1980  178.7140  136.8050 C   0  0  2  0  0  3  0  0  0  0  0  0
  180.4040  176.7560  138.4380 C   0  0  0  0  0  0  0  0  0  0  0  0
  180.3560  179.0250  140.5940 C   0  0  0  0  0  2  0  0  0  0  0  0
  178.9310  178.9970  140.0480 C   0  0  0  0  0  2  0  0  0  0  0  0
  179.5400  174.1870  135.8170 C   0  0  0  0  0  2  0  0  0  0  0  0
  179.7650  175.4700  135.0550 C   0  0  0  0  0  2  0  0  0  0  0  0
  179.4380  175.5160  136.5350 C   0  0  0  0  0  3  0  0  0  0  0  0
  1  4  1  0  0  0  0
  2  6  1  0  0  0  0
  3  1  1  0  0  0  0
  4  6  1  0  0  0  0
  4 31  1  0  0  0  0
  5  3  1  1  0  0  0
  5  2  1  0  0  0  0
  6  7  1  6  0  0  0
  8 25  1  0  0  0  0
  9  8  2  0  0  0  0
 10 14  2  0  0  0  0
 10  9  1  0  0  0  0
 11 12  1  1  0  0  0
 11  5  1  0  0  0  0
 11 10  1  0  0  0  0
 12 13  1  0  0  0  0
 13 14  1  0  0  0  0
 15 14  1  6  0  0  0
 15  8  1  0  0  0  0
 15 19  1  0  0  0  0
 16 18  1  6  0  0  0
 16 21  1  0  0  0  0
 17 19  1  0  0  0  0
 19 22  1  1  0  0  0
 21 19  1  0  0  0  0
 23 17  1  0  0  0  0
 23 20  1  1  0  0  0
 23 16  1  0  0  0  0
 25 24  1  1  0  0  0
 26 25  1  0  0  0  0
 26 28  1  0  0  0  0
 27 26  2  0  0  0  0
 30 28  1  0  0  0  0
 30 29  1  0  0  0  0
 31 32  1  6  0  0  0
 31 33  1  0  0  0  0
 34 33  1  1  0  0  0
 34 43  1  0  0  0  0
 37 40  1  0  0  0  0
 38 45  1  0  0  0  0
 38 44  1  0  0  0  0
 40 39  1  6  0  0  0
 40 38  1  0  0  0  0
 41 43  1  0  0  0  0
 41 38  1  0  0  0  0
 42 35  1  1  0  0  0
 42 37  1  0  0  0  0
 42 41  1  0  0  0  0
 43 36  2  0  0  0  0
 45 44  1  0  0  0  0
 46 48  1  0  0  0  0
 47 46  1  0  0  0  0
 47 48  1  0  0  0  0
 48 34  1  0  0  0  0
M  END
>  <MODEL>
3

>  <REMARK>
 VINA RESULT:      -6.0      3.262      4.504
  Name = 
  10 active torsions:
  status: ('A' for Active; 'I' for Inactive)
    1  A    between atoms: C_3  and  C_29
    2  A    between atoms: C_3  and  N_31
    3  A    between atoms: C_5  and  C_25
    4  A    between atoms: C_9  and  C_33
    5  A    between atoms: C_17  and  C_25
    6  A    between atoms: C_18  and  C_29
    7  A    between atoms: C_18  and  C_38
    8  A    between atoms: C_18  and  C_47
    9  A    between atoms: N_21  and  C_30
   10  A    between atoms: C_32  and  C_42
                            x       y       z     vdW  Elec       q    Type
                         _______ _______ _______ _____ _____    ______ ____

>  <TORSDO>
F 10

$$$$
=
 OpenBabel11062415253D

 48 54  0  0  1  0  0  0  0  0999 V2000
  183.1700  179.8580  143.4040 C   0  0  0  0  0  2  0  0  0  0  0  0
  184.4990  177.6100  142.1130 C   0  0  0  0  0  2  0  0  0  0  0  0
  184.0200  178.8750  144.2080 C   0  0  0  0  0  2  0  0  0  0  0  0
  182.6070  179.2490  142.1840 N   0  0  0  0  0  0  0  0  0  0  0  0
  185.1190  178.2970  143.3190 C   0  0  1  0  0  3  0  0  0  0  0  0
  183.6130  178.5880  141.3340 C   0  0  1  0  0  3  0  0  0  0  0  0
  184.4490  179.6190  140.5900 C   0  0  0  0  0  1  0  0  0  0  0  0
  189.4920  177.1830  142.5740 C   0  0  0  0  0  0  0  0  0  0  0  0
  188.0240  177.2220  142.2400 C   0  0  0  0  0  3  0  0  0  0  0  0
  187.4540  177.4590  143.5950 C   0  0  0  0  0  0  0  0  0  0  0  0
  186.0590  177.3500  144.0710 C   0  0  1  0  0  3  0  0  0  0  0  0
  186.1310  177.6860  145.8750 S   0  0  0  0  0  0  0  0  0  0  0  0
  187.9550  177.5190  145.9130 C   0  0  0  0  0  2  0  0  0  0  0  0
  188.3830  177.5350  144.4970 C   0  0  0  0  0  0  0  0  0  0  0  0
  189.6980  177.3780  143.8830 C   0  0  1  0  0  3  0  0  0  0  0  0
  191.7320  176.9760  146.7230 C   0  0  2  0  0  3  0  0  0  0  0  0
  191.4760  175.8090  144.6880 C   0  0  0  0  0  2  0  0  0  0  0  0
  191.2390  176.9280  148.0900 N   0  0  0  0  0  1  0  0  0  0  0  0
  191.0170  177.2550  144.6210 C   0  0  2  0  0  0  0  0  0  0  0  0
  193.0540  175.0460  146.2890 O   0  0  0  0  0  1  0  0  0  0  0  0
  190.8570  177.7380  145.9370 O   0  0  0  0  0  0  0  0  0  0  0  0
  192.0090  177.9990  143.9720 O   0  0  0  0  0  1  0  0  0  0  0  0
  191.7790  175.5870  146.1410 C   0  0  1  0  0  3  0  0  0  0  0  0
  191.5350  177.9300  141.6320 O   0  0  0  0  0  1  0  0  0  0  0  0
  190.5670  176.9270  141.5570 C   0  0  2  0  0  3  0  0  0  0  0  0
  190.0430  176.8200  140.1530 C   0  0  0  0  0  0  0  0  0  0  0  0
  190.4120  175.8790  139.3970 O   0  0  0  0  0  0  0  0  0  0  0  0
  189.0330  177.7260  139.7180 N   0  0  0  0  0  2  0  0  0  0  0  0
  189.0260  178.7970  137.5440 C   0  0  0  0  0  1  0  0  0  0  0  0
  188.4810  177.6650  138.3770 C   0  0  0  0  0  2  0  0  0  0  0  0
  181.4430  178.3630  142.3600 C   0  0  1  0  0  3  0  0  0  0  0  0
  180.7590  178.4430  143.7210 C   0  0  0  0  0  1  0  0  0  0  0  0
  180.4280  178.6580  141.2720 C   0  0  0  0  0  2  0  0  0  0  0  0
  180.3740  177.5180  140.2600 C   0  0  2  0  0  3  0  0  0  0  0  0
  182.9270  175.9710  139.0720 C   0  0  0  0  0  1  0  0  0  0  0  0
  179.9350  179.1200  138.5440 O   0  0  0  0  0  0  0  0  0  0  0  0
  182.2690  175.4560  136.7270 C   0  0  0  0  0  2  0  0  0  0  0  0
  181.5600  177.7100  136.5190 C   0  0  0  0  0  0  0  0  0  0  0  0
  183.8240  177.1090  135.7420 C   0  0  0  0  0  1  0  0  0  0  0  0
  182.3770  176.6700  135.8040 C   0  0  1  0  0  3  0  0  0  0  0  0
  181.2520  177.2970  137.8750 N   0  0  0  0  0  0  0  0  0  0  0  0
  181.7590  175.9470  138.0900 C   0  0  2  0  0  3  0  0  0  0  0  0
  180.4970  178.0370  138.8540 C   0  0  0  0  0  0  0  0  0  0  0  0
  181.3750  179.1420  136.0600 C   0  0  0  0  0  2  0  0  0  0  0  0
  180.3210  178.0860  135.7320 C   0  0  0  0  0  2  0  0  0  0  0  0
  179.2450  175.6400  141.4330 C   0  0  0  0  0  2  0  0  0  0  0  0
  179.2870  175.3130  139.9600 C   0  0  0  0  0  2  0  0  0  0  0  0
  179.0820  176.7470  140.4120 C   0  0  0  0  0  3  0  0  0  0  0  0
  1  3  1  0  0  0  0
  4 31  1  0  0  0  0
  4  1  1  0  0  0  0
  5  2  1  6  0  0  0
  5 11  1  0  0  0  0
  5  3  1  0  0  0  0
  6  7  1  1  0  0  0
  6  2  1  0  0  0  0
  6  4  1  0  0  0  0
  9  8  2  0  0  0  0
  9 10  1  0  0  0  0
 10 14  2  0  0  0  0
 11 10  1  6  0  0  0
 11 12  1  0  0  0  0
 12 13  1  0  0  0  0
 14 13  1  0  0  0  0
 15  8  1  1  0  0  0
 15 14  1  0  0  0  0
 15 19  1  0  0  0  0
 16 18  1  1  0  0  0
 17 23  1  0  0  0  0
 19 22  1  6  0  0  0
 19 17  1  0  0  0  0
 19 21  1  0  0  0  0
 21 16  1  0  0  0  0
 23 20  1  6  0  0  0
 23 16  1  0  0  0  0
 25 24  1  6  0  0  0
 25  8  1  0  0  0  0
 26 25  1  0  0  0  0
 27 26  2  0  0  0  0
 28 26  1  0  0  0  0
 29 30  1  0  0  0  0
 30 28  1  0  0  0  0
 31 32  1  1  0  0  0
 33 31  1  0  0  0  0
 34 48  1  0  0  0  0
 34 33  1  1  0  0  0
 36 43  2  0  0  0  0
 37 42  1  0  0  0  0
 38 41  1  0  0  0  0
 40 39  1  1  0  0  0
 40 38  1  0  0  0  0
 40 37  1  0  0  0  0
 41 42  1  0  0  0  0
 41 43  1  0  0  0  0
 42 35  1  1  0  0  0
 43 34  1  0  0  0  0
 44 38  1  0  0  0  0
 45 44  1  0  0  0  0
 45 38  1  0  0  0  0
 47 48  1  0  0  0  0
 47 46  1  0  0  0  0
 48 46  1  0  0  0  0
M  END
>  <MODEL>
4

>  <REMARK>
 VINA RESULT:      -5.9      2.769      5.540
  Name = 
  10 active torsions:
  status: ('A' for Active; 'I' for Inactive)
    1  A    between atoms: C_3  and  C_29
    2  A    between atoms: C_3  and  N_31
    3  A    between atoms: C_5  and  C_25
    4  A    between atoms: C_9  and  C_33
    5  A    between atoms: C_17  and  C_25
    6  A    between atoms: C_18  and  C_29
    7  A    between atoms: C_18  and  C_38
    8  A    between atoms: C_18  and  C_47
    9  A    between atoms: N_21  and  C_30
   10  A    between atoms: C_32  and  C_42
                            x       y       z     vdW  Elec       q    Type
                         _______ _______ _______ _____ _____    ______ ____

>  <TORSDO>
F 10

$$$$
=
 OpenBabel11062415253D

 48 54  0  0  1  0  0  0  0  0999 V2000
  189.5510  175.9640  135.3360 C   0  0  0  0  0  2  0  0  0  0  0  0
  189.2860  175.6290  138.2190 C   0  0  0  0  0  2  0  0  0  0  0  0
  190.0350  177.0430  136.3060 C   0  0  0  0  0  2  0  0  0  0  0  0
  188.4630  175.1450  135.9040 N   0  0  0  0  0  0  0  0  0  0  0  0
  190.4550  176.3990  137.6250 C   0  0  1  0  0  3  0  0  0  0  0  0
  188.7760  174.5780  137.2270 C   0  0  1  0  0  3  0  0  0  0  0  0
  189.7550  173.4200  137.0970 C   0  0  0  0  0  1  0  0  0  0  0  0
  189.1710  177.4310  141.8920 C   0  0  0  0  0  0  0  0  0  0  0  0
  188.9930  177.3650  140.3980 C   0  0  0  0  0  3  0  0  0  0  0  0
  190.4150  177.2550  139.9690 C   0  0  0  0  0  0  0  0  0  0  0  0
  191.0170  177.4090  138.6300 C   0  0  1  0  0  3  0  0  0  0  0  0
  192.8290  177.2400  138.8860 S   0  0  0  0  0  0  0  0  0  0  0  0
  192.6660  177.4060  140.7030 C   0  0  0  0  0  2  0  0  0  0  0  0
  191.2210  177.2600  140.9860 C   0  0  0  0  0  0  0  0  0  0  0  0
  190.4650  177.3570  142.2310 C   0  0  1  0  0  3  0  0  0  0  0  0
  190.3820  177.3920  145.7460 C   0  0  2  0  0  3  0  0  0  0  0  0
  191.6710  176.2550  144.1290 C   0  0  0  0  0  2  0  0  0  0  0  0
  189.1850  177.1840  146.5450 N   0  0  0  0  0  1  0  0  0  0  0  0
  191.0510  177.5440  143.6160 C   0  0  2  0  0  0  0  0  0  0  0  0
  192.0690  175.8630  146.4360 O   0  0  0  0  0  1  0  0  0  0  0  0
  190.0270  177.9350  144.5040 O   0  0  0  0  0  0  0  0  0  0  0  0
  192.0460  178.5280  143.5940 O   0  0  0  0  0  1  0  0  0  0  0  0
  191.0680  176.0740  145.4910 C   0  0  1  0  0  3  0  0  0  0  0  0
  187.6690  176.3430  143.3680 O   0  0  0  0  0  1  0  0  0  0  0  0
  188.0310  177.5900  142.8560 C   0  0  2  0  0  3  0  0  0  0  0  0
  186.8340  178.2690  142.2540 C   0  0  0  0  0  0  0  0  0  0  0  0
  186.9550  179.0090  141.2380 O   0  0  0  0  0  0  0  0  0  0  0  0
  185.5390  177.9780  142.7710 N   0  0  0  0  0  2  0  0  0  0  0  0
  183.3900  178.9460  143.3380 C   0  0  0  0  0  1  0  0  0  0  0  0
  184.3430  178.5950  142.2240 C   0  0  0  0  0  2  0  0  0  0  0  0
  187.1190  175.7490  135.9260 C   0  0  1  0  0  3  0  0  0  0  0  0
  186.3730  175.7390  134.5950 C   0  0  0  0  0  1  0  0  0  0  0  0
  186.2780  175.0480  136.9760 C   0  0  0  0  0  2  0  0  0  0  0  0
  185.0630  175.8910  137.3470 C   0  0  2  0  0  3  0  0  0  0  0  0
  182.8960  176.0440  139.7140 C   0  0  0  0  0  1  0  0  0  0  0  0
  183.8920  174.6220  135.6970 O   0  0  0  0  0  0  0  0  0  0  0  0
  180.8020  176.7320  138.5580 C   0  0  0  0  0  2  0  0  0  0  0  0
  181.2450  175.0570  136.9370 C   0  0  0  0  0  0  0  0  0  0  0  0
  179.7280  174.5180  138.8080 C   0  0  0  0  0  1  0  0  0  0  0  0
  180.1350  175.5780  137.8080 C   0  0  1  0  0  3  0  0  0  0  0  0
  182.5280  175.6070  137.3330 N   0  0  0  0  0  0  0  0  0  0  0  0
  182.3220  176.5750  138.4040 C   0  0  2  0  0  3  0  0  0  0  0  0
  183.8090  175.3310  136.7350 C   0  0  0  0  0  0  0  0  0  0  0  0
  181.1420  173.8600  136.0150 C   0  0  0  0  0  2  0  0  0  0  0  0
  180.9500  175.2720  135.4670 C   0  0  0  0  0  2  0  0  0  0  0  0
  186.4810  177.9210  137.5630 C   0  0  0  0  0  2  0  0  0  0  0  0
  185.1020  178.2580  138.0760 C   0  0  0  0  0  2  0  0  0  0  0  0
  185.2620  177.3200  136.8940 C   0  0  0  0  0  3  0  0  0  0  0  0
  1  4  1  0  0  0  0
  1  3  1  0  0  0  0
  4 31  1  0  0  0  0
  4  6  1  0  0  0  0
  5  3  1  6  0  0  0
  5  2  1  0  0  0  0
  5 11  1  0  0  0  0
  6  7  1  6  0  0  0
  6  2  1  0  0  0  0
  8 15  1  0  0  0  0
  8 25  1  0  0  0  0
  9  8  2  0  0  0  0
 10  9  1  0  0  0  0
 10 14  2  0  0  0  0
 11 12  1  1  0  0  0
 11 10  1  0  0  0  0
 12 13  1  0  0  0  0
 13 14  1  0  0  0  0
 15 14  1  6  0  0  0
 15 19  1  0  0  0  0
 16 18  1  1  0  0  0
 17 23  1  0  0  0  0
 19 22  1  6  0  0  0
 19 17  1  0  0  0  0
 19 21  1  0  0  0  0
 21 16  1  0  0  0  0
 23 16  1  0  0  0  0
 23 20  1  1  0  0  0
 25 24  1  6  0  0  0
 26 28  1  0  0  0  0
 26 25  1  0  0  0  0
 27 26  2  0  0  0  0
 30 28  1  0  0  0  0
 30 29  1  0  0  0  0
 31 32  1  6  0  0  0
 31 33  1  0  0  0  0
 34 33  1  6  0  0  0
 36 43  2  0  0  0  0
 38 41  1  0  0  0  0
 38 40  1  0  0  0  0
 40 37  1  0  0  0  0
 40 39  1  1  0  0  0
 41 42  1  0  0  0  0
 42 37  1  0  0  0  0
 42 35  1  1  0  0  0
 43 41  1  0  0  0  0
 43 34  1  0  0  0  0
 44 38  1  0  0  0  0
 45 44  1  0  0  0  0
 45 38  1  0  0  0  0
 46 47  1  0  0  0  0
 48 34  1  0  0  0  0
 48 46  1  0  0  0  0
 48 47  1  0  0  0  0
M  END
>  <MODEL>
5

>  <REMARK>
 VINA RESULT:      -5.7      1.921      2.952
  Name = 
  10 active torsions:
  status: ('A' for Active; 'I' for Inactive)
    1  A    between atoms: C_3  and  C_29
    2  A    between atoms: C_3  and  N_31
    3  A    between atoms: C_5  and  C_25
    4  A    between atoms: C_9  and  C_33
    5  A    between atoms: C_17  and  C_25
    6  A    between atoms: C_18  and  C_29
    7  A    between atoms: C_18  and  C_38
    8  A    between atoms: C_18  and  C_47
    9  A    between atoms: N_21  and  C_30
   10  A    between atoms: C_32  and  C_42
                            x       y       z     vdW  Elec       q    Type
                         _______ _______ _______ _____ _____    ______ ____

>  <TORSDO>
F 10

$$$$
=
 OpenBabel11062415253D

 48 54  0  0  1  0  0  0  0  0999 V2000
  182.0640  179.6230  141.5010 C   0  0  0  0  0  2  0  0  0  0  0  0
  184.2500  177.7830  140.9280 C   0  0  0  0  0  2  0  0  0  0  0  0
  182.7120  178.7940  142.6110 C   0  0  0  0  0  2  0  0  0  0  0  0
  182.1830  178.9810  140.1780 N   0  0  0  0  0  0  0  0  0  0  0  0
  184.1710  178.5130  142.2590 C   0  0  1  0  0  3  0  0  0  0  0  0
  183.5610  178.5970  139.8270 C   0  0  1  0  0  3  0  0  0  0  0  0
  184.3820  179.8220  139.4510 C   0  0  0  0  0  1  0  0  0  0  0  0
  188.6190  177.6080  142.8200 C   0  0  0  0  0  0  0  0  0  0  0  0
  187.2880  177.5020  142.1230 C   0  0  0  0  0  3  0  0  0  0  0  0
  186.3780  177.8800  143.2390 C   0  0  0  0  0  0  0  0  0  0  0  0
  184.9120  177.7430  143.3560 C   0  0  1  0  0  3  0  0  0  0  0  0
  184.5010  178.3240  145.0500 S   0  0  0  0  0  0  0  0  0  0  0  0
  186.2560  178.2880  145.5730 C   0  0  0  0  0  2  0  0  0  0  0  0
  187.0370  178.1410  144.3250 C   0  0  0  0  0  0  0  0  0  0  0  0
  188.4710  177.9920  144.0940 C   0  0  1  0  0  3  0  0  0  0  0  0
  189.7460  177.7900  147.3650 C   0  0  2  0  0  3  0  0  0  0  0  0
  190.2410  176.7160  145.3230 C   0  0  0  0  0  2  0  0  0  0  0  0
  188.9360  177.5760  148.5540 N   0  0  0  0  0  1  0  0  0  0  0  0
  189.5550  178.0600  145.1520 C   0  0  2  0  0  0  0  0  0  0  0  0
  191.4680  176.1500  147.2750 O   0  0  0  0  0  1  0  0  0  0  0  0
  188.9770  178.4310  146.3840 O   0  0  0  0  0  0  0  0  0  0  0  0
  190.5250  179.0030  144.7940 O   0  0  0  0  0  1  0  0  0  0  0  0
  190.1960  176.4660  146.8020 C   0  0  1  0  0  3  0  0  0  0  0  0
  190.8410  178.3200  142.3990 O   0  0  0  0  0  1  0  0  0  0  0  0
  189.9290  177.2910  142.1570 C   0  0  2  0  0  3  0  0  0  0  0  0
  189.8040  177.0470  140.6800 C   0  0  0  0  0  0  0  0  0  0  0  0
  190.4530  176.1190  140.1230 O   0  0  0  0  0  0  0  0  0  0  0  0
  188.8550  177.8010  139.9310 N   0  0  0  0  0  2  0  0  0  0  0  0
  188.9260  178.8990  137.7710 C   0  0  0  0  0  1  0  0  0  0  0  0
  188.6820  177.6040  138.5030 C   0  0  0  0  0  2  0  0  0  0  0  0
  181.2670  177.8620  139.8980 C   0  0  1  0  0  3  0  0  0  0  0  0
  180.0270  177.7920  140.7840 C   0  0  0  0  0  1  0  0  0  0  0  0
  180.8390  177.9240  138.4430 C   0  0  0  0  0  2  0  0  0  0  0  0
  181.2470  176.6530  137.7050 C   0  0  2  0  0  3  0  0  0  0  0  0
  183.1970  174.2460  138.5570 C   0  0  0  0  0  1  0  0  0  0  0  0
  182.7010  178.0140  136.3880 O   0  0  0  0  0  0  0  0  0  0  0  0
  184.2830  173.5780  136.4200 C   0  0  0  0  0  2  0  0  0  0  0  0
  184.7080  175.8770  136.0140 C   0  0  0  0  0  0  0  0  0  0  0  0
  186.4870  174.5120  137.0450 C   0  0  0  0  0  1  0  0  0  0  0  0
  185.3950  174.5390  135.9980 C   0  0  1  0  0  3  0  0  0  0  0  0
  183.4190  175.7990  136.6770 N   0  0  0  0  0  0  0  0  0  0  0  0
  183.1530  174.4120  137.0420 C   0  0  2  0  0  3  0  0  0  0  0  0
  182.4880  176.8770  136.8870 C   0  0  0  0  0  0  0  0  0  0  0  0
  185.3750  177.2050  135.7230 C   0  0  0  0  0  2  0  0  0  0  0  0
  184.6090  176.4720  134.6240 C   0  0  0  0  0  2  0  0  0  0  0  0
  178.9310  175.7530  137.6450 C   0  0  0  0  0  2  0  0  0  0  0  0
  179.8520  174.7120  137.0580 C   0  0  0  0  0  2  0  0  0  0  0  0
  180.1200  176.1840  136.8120 C   0  0  0  0  0  3  0  0  0  0  0  0
  1  3  1  0  0  0  0
  4  1  1  0  0  0  0
  5  2  1  6  0  0  0
  5  3  1  0  0  0  0
  5 11  1  0  0  0  0
  6  7  1  1  0  0  0
  6  4  1  0  0  0  0
  6  2  1  0  0  0  0
  9  8  2  0  0  0  0
  9 10  1  0  0  0  0
 10 14  2  0  0  0  0
 11 10  1  6  0  0  0
 11 12  1  0  0  0  0
 12 13  1  0  0  0  0
 14 13  1  0  0  0  0
 15  8  1  1  0  0  0
 15 14  1  0  0  0  0
 15 19  1  0  0  0  0
 16 18  1  1  0  0  0
 17 23  1  0  0  0  0
 19 22  1  6  0  0  0
 19 17  1  0  0  0  0
 19 21  1  0  0  0  0
 21 16  1  0  0  0  0
 23 20  1  1  0  0  0
 23 16  1  0  0  0  0
 25 24  1  6  0  0  0
 25  8  1  0  0  0  0
 26 25  1  0  0  0  0
 27 26  2  0  0  0  0
 28 26  1  0  0  0  0
 29 30  1  0  0  0  0
 30 28  1  0  0  0  0
 31  4  1  0  0  0  0
 31 32  1  1  0  0  0
 33 31  1  0  0  0  0
 34 33  1  6  0  0  0
 36 43  2  0  0  0  0
 37 42  1  0  0  0  0
 38 41  1  0  0  0  0
 40 38  1  0  0  0  0
 40 37  1  0  0  0  0
 40 39  1  1  0  0  0
 41 43  1  0  0  0  0
 41 42  1  0  0  0  0
 42 35  1  1  0  0  0
 43 34  1  0  0  0  0
 44 38  1  0  0  0  0
 45 44  1  0  0  0  0
 45 38  1  0  0  0  0
 47 46  1  0  0  0  0
 48 47  1  0  0  0  0
 48 46  1  0  0  0  0
 48 34  1  0  0  0  0
M  END
>  <MODEL>
6

>  <REMARK>
 VINA RESULT:      -5.5      2.561      5.549
  Name = 
  10 active torsions:
  status: ('A' for Active; 'I' for Inactive)
    1  A    between atoms: C_3  and  C_29
    2  A    between atoms: C_3  and  N_31
    3  A    between atoms: C_5  and  C_25
    4  A    between atoms: C_9  and  C_33
    5  A    between atoms: C_17  and  C_25
    6  A    between atoms: C_18  and  C_29
    7  A    between atoms: C_18  and  C_38
    8  A    between atoms: C_18  and  C_47
    9  A    between atoms: N_21  and  C_30
   10  A    between atoms: C_32  and  C_42
                            x       y       z     vdW  Elec       q    Type
                         _______ _______ _______ _____ _____    ______ ____

>  <TORSDO>
F 10

$$$$
=
 OpenBabel11062415253D

 48 54  0  0  1  0  0  0  0  0999 V2000
  188.7130  176.0070  135.3110 C   0  0  0  0  0  2  0  0  0  0  0  0
  189.6010  175.1960  137.9660 C   0  0  0  0  0  2  0  0  0  0  0  0
  189.3150  177.0180  136.2870 C   0  0  0  0  0  2  0  0  0  0  0  0
  188.0820  174.8660  136.0020 N   0  0  0  0  0  0  0  0  0  0  0  0
  190.3040  176.3140  137.2130 C   0  0  1  0  0  3  0  0  0  0  0  0
  188.9610  174.2080  136.9840 C   0  0  1  0  0  3  0  0  0  0  0  0
  190.0150  173.3660  136.2820 C   0  0  0  0  0  1  0  0  0  0  0  0
  189.2900  177.5310  141.5040 C   0  0  0  0  0  0  0  0  0  0  0  0
  189.0510  177.4630  140.0190 C   0  0  0  0  0  3  0  0  0  0  0  0
  190.4380  177.2010  139.5430 C   0  0  0  0  0  0  0  0  0  0  0  0
  191.0040  177.2750  138.1800 C   0  0  1  0  0  3  0  0  0  0  0  0
  192.7960  176.9230  138.3760 S   0  0  0  0  0  0  0  0  0  0  0  0
  192.7180  177.1300  140.1950 C   0  0  0  0  0  2  0  0  0  0  0  0
  191.2760  177.1370  140.5300 C   0  0  0  0  0  0  0  0  0  0  0  0
  190.5800  177.3280  141.7990 C   0  0  1  0  0  3  0  0  0  0  0  0
  190.6160  177.5250  145.3100 C   0  0  2  0  0  3  0  0  0  0  0  0
  191.6450  176.1210  143.7180 C   0  0  0  0  0  2  0  0  0  0  0  0
  189.4260  177.5560  146.1460 N   0  0  0  0  0  1  0  0  0  0  0  0
  191.2330  177.4730  143.1600 C   0  0  2  0  0  0  0  0  0  0  0  0
  192.0450  175.7650  146.0300 O   0  0  0  0  0  1  0  0  0  0  0  0
  190.3170  178.0680  144.0520 O   0  0  0  0  0  0  0  0  0  0  0  0
  192.3770  178.2730  143.0680 O   0  0  0  0  0  1  0  0  0  0  0  0
  191.0630  176.1010  145.1000 C   0  0  1  0  0  3  0  0  0  0  0  0
  187.8240  176.6370  143.1380 O   0  0  0  0  0  1  0  0  0  0  0  0
  188.2080  177.8200  142.5050 C   0  0  2  0  0  3  0  0  0  0  0  0
  187.0090  178.4980  141.9050 C   0  0  0  0  0  0  0  0  0  0  0  0
  187.0920  179.0880  140.7920 O   0  0  0  0  0  0  0  0  0  0  0  0
  185.7460  178.3700  142.5500 N   0  0  0  0  0  2  0  0  0  0  0  0
  183.4620  179.0060  143.0580 C   0  0  0  0  0  1  0  0  0  0  0  0
  184.5490  178.9940  142.0130 C   0  0  0  0  0  2  0  0  0  0  0  0
  186.7560  175.1030  136.5990 C   0  0  1  0  0  3  0  0  0  0  0  0
  186.5410  176.4930  137.1920 C   0  0  0  0  0  1  0  0  0  0  0  0
  185.6880  174.8340  135.5550 C   0  0  0  0  0  2  0  0  0  0  0  0
  184.6140  173.9030  136.1080 C   0  0  2  0  0  3  0  0  0  0  0  0
  181.7710  172.8930  135.0040 C   0  0  0  0  0  1  0  0  0  0  0  0
  183.9690  175.7100  137.5310 O   0  0  0  0  0  0  0  0  0  0  0  0
  180.3700  172.7090  137.0530 C   0  0  0  0  0  2  0  0  0  0  0  0
  181.1400  174.8660  137.6720 C   0  0  0  0  0  0  0  0  0  0  0  0
  178.9810  174.6770  136.4930 C   0  0  0  0  0  1  0  0  0  0  0  0
  179.8720  174.0660  137.5510 C   0  0  1  0  0  3  0  0  0  0  0  0
  182.2500  174.1950  137.0210 N   0  0  0  0  0  0  0  0  0  0  0  0
  181.8020  172.8980  136.5290 C   0  0  2  0  0  3  0  0  0  0  0  0
  183.6090  174.6640  136.9280 C   0  0  0  0  0  0  0  0  0  0  0  0
  181.2180  176.3220  138.0810 C   0  0  0  0  0  2  0  0  0  0  0  0
  181.4420  175.2210  139.1140 C   0  0  0  0  0  2  0  0  0  0  0  0
  186.2290  172.0140  136.1210 C   0  0  0  0  0  2  0  0  0  0  0  0
  184.8550  171.4560  136.4060 C   0  0  0  0  0  2  0  0  0  0  0  0
  185.2470  172.8170  136.9490 C   0  0  0  0  0  3  0  0  0  0  0  0
  1  4  1  0  0  0  0
  1  3  1  0  0  0  0
  4 31  1  0  0  0  0
  4  6  1  0  0  0  0
  5  3  1  1  0  0  0
  5  2  1  0  0  0  0
  5 11  1  0  0  0  0
  6  7  1  6  0  0  0
  6  2  1  0  0  0  0
  8 15  1  0  0  0  0
  8 25  1  0  0  0  0
  9  8  2  0  0  0  0
 10  9  1  0  0  0  0
 10 14  2  0  0  0  0
 11 12  1  1  0  0  0
 11 10  1  0  0  0  0
 12 13  1  0  0  0  0
 13 14  1  0  0  0  0
 15 14  1  6  0  0  0
 15 19  1  0  0  0  0
 16 18  1  1  0  0  0
 17 23  1  0  0  0  0
 19 22  1  6  0  0  0
 19 17  1  0  0  0  0
 19 21  1  0  0  0  0
 21 16  1  0  0  0  0
 23 16  1  0  0  0  0
 23 20  1  1  0  0  0
 25 24  1  6  0  0  0
 26 25  1  0  0  0  0
 26 28  1  0  0  0  0
 27 26  2  0  0  0  0
 30 28  1  0  0  0  0
 30 29  1  0  0  0  0
 31 32  1  6  0  0  0
 33 31  1  0  0  0  0
 34 33  1  1  0  0  0
 34 43  1  0  0  0  0
 34 48  1  0  0  0  0
 37 40  1  0  0  0  0
 38 44  1  0  0  0  0
 38 45  1  0  0  0  0
 40 39  1  6  0  0  0
 40 38  1  0  0  0  0
 41 38  1  0  0  0  0
 42 35  1  6  0  0  0
 42 41  1  0  0  0  0
 42 37  1  0  0  0  0
 43 41  1  0  0  0  0
 43 36  2  0  0  0  0
 44 45  1  0  0  0  0
 46 47  1  0  0  0  0
 46 48  1  0  0  0  0
 47 48  1  0  0  0  0
M  END
>  <MODEL>
7

>  <REMARK>
 VINA RESULT:      -5.4      1.956      2.854
  Name = 
  10 active torsions:
  status: ('A' for Active; 'I' for Inactive)
    1  A    between atoms: C_3  and  C_29
    2  A    between atoms: C_3  and  N_31
    3  A    between atoms: C_5  and  C_25
    4  A    between atoms: C_9  and  C_33
    5  A    between atoms: C_17  and  C_25
    6  A    between atoms: C_18  and  C_29
    7  A    between atoms: C_18  and  C_38
    8  A    between atoms: C_18  and  C_47
    9  A    between atoms: N_21  and  C_30
   10  A    between atoms: C_32  and  C_42
                            x       y       z     vdW  Elec       q    Type
                         _______ _______ _______ _____ _____    ______ ____

>  <TORSDO>
F 10

$$$$
=
 OpenBabel11062415253D

 48 54  0  0  1  0  0  0  0  0999 V2000
  182.7480  175.6250  136.2580 C   0  0  0  0  0  2  0  0  0  0  0  0
  184.9200  173.9610  137.2620 C   0  0  0  0  0  2  0  0  0  0  0  0
  184.2050  175.9280  135.9060 C   0  0  0  0  0  2  0  0  0  0  0  0
  182.6180  174.9070  137.5400 N   0  0  0  0  0  0  0  0  0  0  0  0
  185.0140  174.6330  135.9010 C   0  0  1  0  0  3  0  0  0  0  0  0
  183.4550  173.6990  137.6310 C   0  0  1  0  0  3  0  0  0  0  0  0
  182.8670  172.5730  136.7920 C   0  0  0  0  0  1  0  0  0  0  0  0
  188.4090  176.9320  137.9270 C   0  0  0  0  0  0  0  0  0  0  0  0
  187.0850  176.8080  137.2200 C   0  0  0  0  0  3  0  0  0  0  0  0
  187.2660  175.4860  136.5580 C   0  0  0  0  0  0  0  0  0  0  0  0
  186.4740  174.8430  135.4890 C   0  0  1  0  0  3  0  0  0  0  0  0
  187.3500  173.2730  135.1100 S   0  0  0  0  0  0  0  0  0  0  0  0
  188.8410  173.7880  136.0410 C   0  0  0  0  0  2  0  0  0  0  0  0
  188.4270  174.9740  136.8250 C   0  0  0  0  0  0  0  0  0  0  0  0
  189.1810  175.8610  137.7060 C   0  0  1  0  0  3  0  0  0  0  0  0
  192.4050  174.4700  137.5010 C   0  0  2  0  0  3  0  0  0  0  0  0
  191.5320  176.6590  137.3740 C   0  0  0  0  0  2  0  0  0  0  0  0
  192.7770  173.3800  136.6130 N   0  0  0  0  0  1  0  0  0  0  0  0
  190.6300  175.6870  138.1170 C   0  0  2  0  0  0  0  0  0  0  0  0
  193.8690  176.3120  137.1510 O   0  0  0  0  0  1  0  0  0  0  0  0
  191.0420  174.3720  137.8160 O   0  0  0  0  0  0  0  0  0  0  0  0
  190.7780  175.9160  139.4890 O   0  0  0  0  0  1  0  0  0  0  0  0
  192.6210  175.7930  136.8130 C   0  0  1  0  0  3  0  0  0  0  0  0
  190.1800  178.1170  138.9660 O   0  0  0  0  0  1  0  0  0  0  0  0
  188.8020  178.1290  138.7450 C   0  0  2  0  0  3  0  0  0  0  0  0
  188.0700  178.2200  140.0540 C   0  0  0  0  0  0  0  0  0  0  0  0
  186.9170  178.7310  140.1130 O   0  0  0  0  0  0  0  0  0  0  0  0
  188.6410  177.6190  141.2120 N   0  0  0  0  0  2  0  0  0  0  0  0
  188.1430  176.3470  143.2140 C   0  0  0  0  0  1  0  0  0  0  0  0
  187.9760  177.6650  142.5020 C   0  0  0  0  0  2  0  0  0  0  0  0
  182.7640  175.7090  138.7680 C   0  0  1  0  0  3  0  0  0  0  0  0
  183.7580  176.8640  138.6830 C   0  0  0  0  0  1  0  0  0  0  0  0
  181.4050  176.2470  139.1730 C   0  0  0  0  0  2  0  0  0  0  0  0
  181.4870  177.7350  139.4980 C   0  0  2  0  0  3  0  0  0  0  0  0
  184.0400  177.8650  141.4450 C   0  0  0  0  0  1  0  0  0  0  0  0
  179.6810  177.7980  141.0600 O   0  0  0  0  0  0  0  0  0  0  0  0
  183.5120  179.7430  142.9900 C   0  0  0  0  0  2  0  0  0  0  0  0
  181.3590  178.7880  143.2820 C   0  0  0  0  0  0  0  0  0  0  0  0
  183.1160  178.2640  144.9340 C   0  0  0  0  0  1  0  0  0  0  0  0
  182.5070  179.3500  144.0740 C   0  0  1  0  0  3  0  0  0  0  0  0
  181.7360  178.5590  141.8990 N   0  0  0  0  0  0  0  0  0  0  0  0
  183.0970  179.0390  141.6890 C   0  0  2  0  0  3  0  0  0  0  0  0
  180.9030  178.0250  140.8530 C   0  0  0  0  0  0  0  0  0  0  0  0
  180.0990  178.1910  143.8730 C   0  0  0  0  0  2  0  0  0  0  0  0
  180.1180  179.6460  143.4100 C   0  0  0  0  0  2  0  0  0  0  0  0
  181.7250  178.9730  137.3560 C   0  0  0  0  0  2  0  0  0  0  0  0
  181.3040  179.9570  138.4200 C   0  0  0  0  0  2  0  0  0  0  0  0
  180.7630  178.5400  138.4430 C   0  0  0  0  0  3  0  0  0  0  0  0
  1  4  1  0  0  0  0
  2  6  1  0  0  0  0
  3  1  1  0  0  0  0
  4  6  1  0  0  0  0
  4 31  1  0  0  0  0
  5  3  1  1  0  0  0
  5  2  1  0  0  0  0
  6  7  1  6  0  0  0
  8 25  1  0  0  0  0
  9  8  2  0  0  0  0
 10 14  2  0  0  0  0
 10  9  1  0  0  0  0
 11 12  1  1  0  0  0
 11  5  1  0  0  0  0
 11 10  1  0  0  0  0
 12 13  1  0  0  0  0
 13 14  1  0  0  0  0
 15 14  1  6  0  0  0
 15  8  1  0  0  0  0
 15 19  1  0  0  0  0
 16 18  1  6  0  0  0
 16 21  1  0  0  0  0
 17 19  1  0  0  0  0
 19 22  1  1  0  0  0
 21 19  1  0  0  0  0
 23 20  1  1  0  0  0
 23 17  1  0  0  0  0
 23 16  1  0  0  0  0
 25 24  1  1  0  0  0
 25 26  1  0  0  0  0
 26 27  2  0  0  0  0
 26 28  1  0  0  0  0
 28 30  1  0  0  0  0
 30 29  1  0  0  0  0
 31 32  1  6  0  0  0
 31 33  1  0  0  0  0
 34 33  1  6  0  0  0
 34 43  1  0  0  0  0
 37 40  1  0  0  0  0
 38 45  1  0  0  0  0
 38 44  1  0  0  0  0
 38 40  1  0  0  0  0
 40 39  1  1  0  0  0
 41 38  1  0  0  0  0
 42 35  1  1  0  0  0
 42 41  1  0  0  0  0
 42 37  1  0  0  0  0
 43 36  2  0  0  0  0
 43 41  1  0  0  0  0
 45 44  1  0  0  0  0
 46 47  1  0  0  0  0
 46 48  1  0  0  0  0
 47 48  1  0  0  0  0
 48 34  1  0  0  0  0
M  END
>  <MODEL>
8

>  <REMARK>
 VINA RESULT:      -5.2      2.618      5.335
  Name = 
  10 active torsions:
  status: ('A' for Active; 'I' for Inactive)
    1  A    between atoms: C_3  and  C_29
    2  A    between atoms: C_3  and  N_31
    3  A    between atoms: C_5  and  C_25
    4  A    between atoms: C_9  and  C_33
    5  A    between atoms: C_17  and  C_25
    6  A    between atoms: C_18  and  C_29
    7  A    between atoms: C_18  and  C_38
    8  A    between atoms: C_18  and  C_47
    9  A    between atoms: N_21  and  C_30
   10  A    between atoms: C_32  and  C_42
                            x       y       z     vdW  Elec       q    Type
                         _______ _______ _______ _____ _____    ______ ____

>  <TORSDO>
F 10

$$$$
=
 OpenBabel11062415253D

 48 54  0  0  1  0  0  0  0  0999 V2000
  185.6760  179.6240  142.2530 C   0  0  0  0  0  2  0  0  0  0  0  0
  183.2020  178.1110  141.9640 C   0  0  0  0  0  2  0  0  0  0  0  0
  185.1190  179.2750  140.8720 C   0  0  0  0  0  2  0  0  0  0  0  0
  185.2550  178.6610  143.2890 N   0  0  0  0  0  0  0  0  0  0  0  0
  183.5970  179.1670  140.9440 C   0  0  1  0  0  3  0  0  0  0  0  0
  183.7990  178.4410  143.3370 C   0  0  1  0  0  3  0  0  0  0  0  0
  183.0970  179.6310  143.9730 C   0  0  0  0  0  1  0  0  0  0  0  0
  184.9480  176.5160  137.4700 C   0  0  0  0  0  0  0  0  0  0  0  0
  185.0550  177.6950  138.4010 C   0  0  0  0  0  2  0  0  0  0  0  0
  183.6410  177.7970  138.8580 C   0  0  0  0  0  0  0  0  0  0  0  0
  182.9540  178.8860  139.5820 C   0  0  1  0  0  3  0  0  0  0  0  0
  181.1990  178.3570  139.7080 S   0  0  0  0  0  0  0  0  0  0  0  0
  181.4320  177.0200  138.4770 C   0  0  0  0  0  2  0  0  0  0  0  0
  182.8970  176.8870  138.3110 C   0  0  0  0  0  0  0  0  0  0  0  0
  183.6960  176.0410  137.4290 C   0  0  0  0  0  0  0  0  0  0  0  0
  182.9560  172.7410  136.4640 C   0  0  2  0  0  3  0  0  0  0  0  0
  181.6870  174.7090  136.7500 C   0  0  0  0  0  2  0  0  0  0  0  0
  183.3370  171.5570  137.2180 N   0  0  0  0  0  1  0  0  0  0  0  0
  183.1630  174.9690  136.4990 C   0  0  2  0  0  0  0  0  0  0  0  0
  180.6110  172.7070  136.0660 O   0  0  0  0  0  1  0  0  0  0  0  0
  183.8740  173.7710  136.7170 O   0  0  0  0  0  0  0  0  0  0  0  0
  183.3160  175.3630  135.1650 O   0  0  0  0  0  1  0  0  0  0  0  0
  181.5970  173.2200  136.9060 C   0  0  1  0  0  3  0  0  0  0  0  0
  186.5070  174.7500  137.2050 O   0  0  0  0  0  1  0  0  0  0  0  0
  186.1040  175.9780  136.6770 C   0  0  2  0  0  3  0  0  0  0  0  0
  187.2710  176.9220  136.6140 C   0  0  0  0  0  0  0  0  0  0  0  0
  187.2700  177.8970  135.8120 O   0  0  0  0  0  0  0  0  0  0  0  0
  188.3340  176.7740  137.5510 N   0  0  0  0  0  2  0  0  0  0  0  0
  189.3930  178.6260  138.7010 C   0  0  0  0  0  1  0  0  0  0  0  0
  189.4830  177.6610  137.5460 C   0  0  0  0  0  2  0  0  0  0  0  0
  185.9570  177.3650  143.3150 C   0  0  1  0  0  3  0  0  0  0  0  0
  187.2250  177.2890  142.4720 C   0  0  0  0  0  1  0  0  0  0  0  0
  186.2890  177.0120  144.7530 C   0  0  0  0  0  2  0  0  0  0  0  0
  187.3050  177.9930  145.3290 C   0  0  2  0  0  3  0  0  0  0  0  0
  189.0020  178.8080  142.7260 C   0  0  0  0  0  1  0  0  0  0  0  0
  188.7340  176.3780  146.3550 O   0  0  0  0  0  0  0  0  0  0  0  0
  191.2860  179.2370  143.6170 C   0  0  0  0  0  2  0  0  0  0  0  0
  191.1160  177.1900  144.8050 C   0  0  0  0  0  0  0  0  0  0  0  0
  192.2510  177.1910  142.6140 C   0  0  0  0  0  1  0  0  0  0  0  0
  192.0560  177.9490  143.9100 C   0  0  1  0  0  3  0  0  0  0  0  0
  189.7920  177.7870  144.8060 N   0  0  0  0  0  0  0  0  0  0  0  0
  189.8170  179.0020  144.0000 C   0  0  2  0  0  3  0  0  0  0  0  0
  188.6390  177.3310  145.5370 C   0  0  0  0  0  0  0  0  0  0  0  0
  191.3630  175.8010  145.3550 C   0  0  0  0  0  2  0  0  0  0  0  0
  191.6800  177.0310  146.2020 C   0  0  0  0  0  2  0  0  0  0  0  0
  185.3270  178.2530  146.8120 C   0  0  0  0  0  2  0  0  0  0  0  0
  185.7630  179.6290  146.3700 C   0  0  0  0  0  2  0  0  0  0  0  0
  186.8010  178.5560  146.6390 C   0  0  0  0  0  3  0  0  0  0  0  0
  1  4  1  0  0  0  0
  2  6  1  0  0  0  0
  3  1  1  0  0  0  0
  4 31  1  0  0  0  0
  4  6  1  0  0  0  0
  5  3  1  6  0  0  0
  5  2  1  0  0  0  0
  6  7  1  6  0  0  0
  8  9  1  0  0  0  0
  9 10  1  0  0  0  0
 11 10  1  1  0  0  0
 11 12  1  0  0  0  0
 11  5  1  0  0  0  0
 13 12  1  0  0  0  0
 14 13  1  0  0  0  0
 14 10  2  0  0  0  0
 15  8  2  0  0  0  0
 15 14  1  0  0  0  0
 16 21  1  0  0  0  0
 16 23  1  0  0  0  0
 16 18  1  1  0  0  0
 17 23  1  0  0  0  0
 19 22  1  6  0  0  0
 19 21  1  0  0  0  0
 19 17  1  0  0  0  0
 19 15  1  0  0  0  0
 23 20  1  6  0  0  0
 25 24  1  1  0  0  0
 25  8  1  0  0  0  0
 26 25  1  0  0  0  0
 26 28  1  0  0  0  0
 27 26  2  0  0  0  0
 30 28  1  0  0  0  0
 30 29  1  0  0  0  0
 31 32  1  6  0  0  0
 31 33  1  0  0  0  0
 34 33  1  1  0  0  0
 34 43  1  0  0  0  0
 34 48  1  0  0  0  0
 37 40  1  0  0  0  0
 37 42  1  0  0  0  0
 38 41  1  0  0  0  0
 38 44  1  0  0  0  0
 38 45  1  0  0  0  0
 40 39  1  6  0  0  0
 40 38  1  0  0  0  0
 41 43  1  0  0  0  0
 42 35  1  6  0  0  0
 42 41  1  0  0  0  0
 43 36  2  0  0  0  0
 44 45  1  0  0  0  0
 47 48  1  0  0  0  0
 47 46  1  0  0  0  0
 48 46  1  0  0  0  0
M  END
>  <MODEL>
9

>  <REMARK>
 VINA RESULT:      -5.1      3.049      9.800
  Name = 
  10 active torsions:
  status: ('A' for Active; 'I' for Inactive)
    1  A    between atoms: C_3  and  C_29
    2  A    between atoms: C_3  and  N_31
    3  A    between atoms: C_5  and  C_25
    4  A    between atoms: C_9  and  C_33
    5  A    between atoms: C_17  and  C_25
    6  A    between atoms: C_18  and  C_29
    7  A    between atoms: C_18  and  C_38
    8  A    between atoms: C_18  and  C_47
    9  A    between atoms: N_21  and  C_30
   10  A    between atoms: C_32  and  C_42
                            x       y       z     vdW  Elec       q    Type
                         _______ _______ _______ _____ _____    ______ ____

>  <TORSDO>
F 10

$$$$
