=
 OpenBabel11062413453D

 35 37  0  0  1  0  0  0  0  0999 V2000
  186.1650  178.5640  141.9900 C   0  0  0  0  0  0  0  0  0  0  0  0
  185.5670  178.1410  143.2880 C   0  0  0  0  0  2  0  0  0  0  0  0
  184.0600  178.3350  143.0540 C   0  0  2  0  0  3  0  0  0  0  0  0
  185.2050  178.8710  141.1350 C   0  0  0  0  0  0  0  0  0  0  0  0
  183.9560  178.7730  141.7090 O   0  0  0  0  0  0  0  0  0  0  0  0
  183.4740  179.3820  143.9960 C   0  0  0  0  0  0  0  0  0  0  0  0
  183.3320  178.8650  145.2720 F   0  0  0  0  0  0  0  0  0  0  0  0
  182.2400  179.7950  143.5330 F   0  0  0  0  0  0  0  0  0  0  0  0
  184.3250  180.4740  144.0410 F   0  0  0  0  0  0  0  0  0  0  0  0
  188.4570  177.6040  142.2520 C   0  0  0  0  0  3  0  0  0  0  0  0
  187.6070  178.4800  141.7110 C   0  0  0  0  0  3  0  0  0  0  0  0
  188.0480  176.5090  143.1730 C   0  0  0  0  0  2  0  0  0  0  0  0
  189.0610  176.2870  144.1110 O   0  0  0  0  0  0  0  0  0  0  0  0
  188.7620  177.1080  145.2140 C   0  0  2  0  0  0  0  0  0  0  0  0
  189.5080  176.8020  146.4970 C   0  0  0  0  0  2  0  0  0  0  0  0
  187.4830  177.6270  145.3420 F   0  0  0  0  0  0  0  0  0  0  0  0
  189.8750  178.0370  145.6750 C   0  0  1  0  0  3  0  0  0  0  0  0
  191.1960  177.7770  144.9580 C   0  0  0  0  0  2  0  0  0  0  0  0
  192.5560  179.6470  144.3780 F   0  0  0  0  0  0  0  0  0  0  0  0
  191.4960  178.8710  143.9420 C   0  0  0  0  0  0  0  0  0  0  0  0
  191.8100  178.3030  142.7220 F   0  0  0  0  0  0  0  0  0  0  0  0
  190.3790  179.6720  143.7950 F   0  0  0  0  0  0  0  0  0  0  0  0
  185.4060  179.2230  139.7640 N   0  0  0  0  0  2  0  0  0  0  0  0
  185.0250  178.3310  138.6830 C   0  0  0  0  0  2  0  0  0  0  0  0
  186.1510  178.2200  137.6590 C   0  0  2  0  0  3  0  0  0  0  0  0
  185.2450  177.3390  135.6240 O   0  0  0  0  0  0  0  0  0  0  0  0
  185.8770  177.1160  136.6910 C   0  0  0  0  0  0  0  0  0  0  0  0
  186.3510  175.8400  136.9580 O   0  0  0  0  0  1  0  0  0  0  0  0
  187.4850  178.0010  138.3570 C   0  0  0  0  0  2  0  0  0  0  0  0
  188.8390  179.7710  137.5350 O   0  0  0  0  0  1  0  0  0  0  0  0
  188.6430  178.3900  137.4530 C   0  0  1  0  0  3  0  0  0  0  0  0
  190.1240  176.4900  137.0530 N   0  0  0  0  0  2  0  0  0  0  0  0
  189.9100  177.6750  137.8900 C   0  0  2  0  0  3  0  0  0  0  0  0
  190.5940  175.9260  139.2720 O   0  0  0  0  0  1  0  0  0  0  0  0
  189.5830  176.3520  138.4100 C   0  0  2  0  0  3  0  0  0  0  0  0
  1  2  1  0  0  0  0
  3  2  1  0  0  0  0
  3  6  1  1  0  0  0
  4  5  1  0  0  0  0
  4  1  2  0  0  0  0
  5  3  1  0  0  0  0
  6  9  1  0  0  0  0
  6  7  1  0  0  0  0
  8  6  1  0  0  0  0
 10 12  1  0  0  0  0
 11  1  1  0  0  0  0
 11 10  2  0  0  0  0
 12 13  1  0  0  0  0
 13 14  1  0  0  0  0
 14 16  1  1  0  0  0
 14 17  1  0  0  0  0
 14 15  1  0  0  0  0
 17 18  1  6  0  0  0
 17 15  1  0  0  0  0
 20 19  1  0  0  0  0
 20 18  1  0  0  0  0
 21 20  1  0  0  0  0
 22 20  1  0  0  0  0
 23  4  1  0  0  0  0
 24 23  1  0  0  0  0
 25 29  1  1  0  0  0
 25 24  1  0  0  0  0
 26 27  2  0  0  0  0
 27 28  1  0  0  0  0
 27 25  1  0  0  0  0
 31 30  1  1  0  0  0
 31 29  1  0  0  0  0
 32 33  1  0  0  0  0
 32 35  1  0  0  0  0
 33 31  1  6  0  0  0
 33 35  1  0  0  0  0
 35 34  1  1  0  0  0
M  END
>  <MODEL>
1

>  <REMARK>
 VINA RESULT:      -7.9      0.000      0.000
  Name = 
  14 active torsions:
  status: ('A' for Active; 'I' for Inactive)
    1  A    between atoms: C_1  and  O_3
    2  A    between atoms: O_3  and  C_18
    3  A    between atoms: C_4  and  C_18
    4  A    between atoms: C_5  and  C_11
    5  A    between atoms: C_9  and  C_34
    6  A    between atoms: C_12  and  C_28
    7  A    between atoms: C_12  and  C_34
    8  A    between atoms: C_13  and  C_23
    9  A    between atoms: C_19  and  C_21
   10  A    between atoms: C_19  and  C_31
   11  A    between atoms: C_22  and  N_27
   12  A    between atoms: C_22  and  C_28
   13  A    between atoms: C_25  and  C_28
   14  A    between atoms: C_26  and  N_27
                            x       y       z     vdW  Elec       q    Type
                         _______ _______ _______ _____ _____    ______ ____

>  <TORSDO>
F 14

$$$$
=
 OpenBabel11062413453D

 35 37  0  0  1  0  0  0  0  0999 V2000
  186.5260  177.8070  144.2010 C   0  0  0  0  0  0  0  0  0  0  0  0
  187.2070  177.0010  145.2540 C   0  0  0  0  0  2  0  0  0  0  0  0
  186.5320  177.4830  146.5480 C   0  0  2  0  0  3  0  0  0  0  0  0
  185.5870  178.5560  144.7490 C   0  0  0  0  0  0  0  0  0  0  0  0
  185.5580  178.4210  146.1200 O   0  0  0  0  0  0  0  0  0  0  0  0
  187.5300  178.1530  147.4880 C   0  0  0  0  0  0  0  0  0  0  0  0
  187.9070  177.2840  148.4980 F   0  0  0  0  0  0  0  0  0  0  0  0
  186.9650  179.2820  148.0480 F   0  0  0  0  0  0  0  0  0  0  0  0
  188.6510  178.5230  146.7650 F   0  0  0  0  0  0  0  0  0  0  0  0
  187.9740  177.8270  142.1640 C   0  0  0  0  0  3  0  0  0  0  0  0
  186.7980  177.6330  142.7650 C   0  0  0  0  0  3  0  0  0  0  0  0
  189.2290  178.1750  142.8840 C   0  0  0  0  0  2  0  0  0  0  0  0
  189.9370  177.0060  143.1780 O   0  0  0  0  0  0  0  0  0  0  0  0
  191.2740  177.3950  143.3750 C   0  0  2  0  0  0  0  0  0  0  0  0
  191.4940  178.6240  144.2340 C   0  0  0  0  0  2  0  0  0  0  0  0
  192.2000  177.1600  142.3720 F   0  0  0  0  0  0  0  0  0  0  0  0
  191.8130  177.2370  144.7890 C   0  0  1  0  0  3  0  0  0  0  0  0
  190.7330  176.8460  145.7930 C   0  0  0  0  0  2  0  0  0  0  0  0
  191.3850  177.4070  148.0160 F   0  0  0  0  0  0  0  0  0  0  0  0
  191.3460  176.3690  147.1030 C   0  0  0  0  0  0  0  0  0  0  0  0
  190.5960  175.3280  147.6170 F   0  0  0  0  0  0  0  0  0  0  0  0
  192.6330  175.9250  146.8660 F   0  0  0  0  0  0  0  0  0  0  0  0
  184.6680  179.3820  144.0290 N   0  0  0  0  0  2  0  0  0  0  0  0
  183.2340  179.2920  144.2390 C   0  0  0  0  0  2  0  0  0  0  0  0
  182.4970  179.2910  142.9020 C   0  0  2  0  0  3  0  0  0  0  0  0
  180.4170  178.3000  143.5570 O   0  0  0  0  0  1  0  0  0  0  0  0
  181.0190  179.3150  143.1150 C   0  0  0  0  0  0  0  0  0  0  0  0
  180.3080  180.4770  142.8500 O   0  0  0  0  0  0  0  0  0  0  0  0
  182.8990  178.0810  142.0730 C   0  0  0  0  0  2  0  0  0  0  0  0
  182.0880  179.3760  140.2560 O   0  0  0  0  0  1  0  0  0  0  0  0
  183.0770  178.4560  140.6110 C   0  0  1  0  0  3  0  0  0  0  0  0
  184.4120  179.9440  139.2090 N   0  0  0  0  0  2  0  0  0  0  0  0
  184.4450  179.0780  140.3930 C   0  0  2  0  0  3  0  0  0  0  0  0
  186.4030  178.7180  139.1780 O   0  0  0  0  0  1  0  0  0  0  0  0
  185.0130  178.6070  139.1340 C   0  0  2  0  0  3  0  0  0  0  0  0
  1  4  2  0  0  0  0
  1  2  1  0  0  0  0
  2  3  1  0  0  0  0
  3  6  1  1  0  0  0
  4  5  1  0  0  0  0
  5  3  1  0  0  0  0
  6  8  1  0  0  0  0
  6  7  1  0  0  0  0
  9  6  1  0  0  0  0
 10 11  2  0  0  0  0
 10 12  1  0  0  0  0
 11  1  1  0  0  0  0
 12 13  1  0  0  0  0
 13 14  1  0  0  0  0
 14 16  1  6  0  0  0
 14 15  1  0  0  0  0
 14 17  1  0  0  0  0
 15 17  1  0  0  0  0
 17 18  1  1  0  0  0
 18 20  1  0  0  0  0
 20 21  1  0  0  0  0
 20 19  1  0  0  0  0
 22 20  1  0  0  0  0
 23 24  1  0  0  0  0
 23  4  1  0  0  0  0
 25 29  1  1  0  0  0
 25 27  1  0  0  0  0
 25 24  1  0  0  0  0
 27 26  1  0  0  0  0
 28 27  2  0  0  0  0
 31 30  1  1  0  0  0
 31 29  1  0  0  0  0
 32 33  1  0  0  0  0
 33 31  1  6  0  0  0
 35 34  1  1  0  0  0
 35 32  1  0  0  0  0
 35 33  1  0  0  0  0
M  END
>  <MODEL>
2

>  <REMARK>
 VINA RESULT:      -7.8      3.055      5.309
  Name = 
  14 active torsions:
  status: ('A' for Active; 'I' for Inactive)
    1  A    between atoms: C_1  and  O_3
    2  A    between atoms: O_3  and  C_18
    3  A    between atoms: C_4  and  C_18
    4  A    between atoms: C_5  and  C_11
    5  A    between atoms: C_9  and  C_34
    6  A    between atoms: C_12  and  C_28
    7  A    between atoms: C_12  and  C_34
    8  A    between atoms: C_13  and  C_23
    9  A    between atoms: C_19  and  C_21
   10  A    between atoms: C_19  and  C_31
   11  A    between atoms: C_22  and  N_27
   12  A    between atoms: C_22  and  C_28
   13  A    between atoms: C_25  and  C_28
   14  A    between atoms: C_26  and  N_27
                            x       y       z     vdW  Elec       q    Type
                         _______ _______ _______ _____ _____    ______ ____

>  <TORSDO>
F 14

$$$$
=
 OpenBabel11062413453D

 35 37  0  0  1  0  0  0  0  0999 V2000
  186.3560  178.7240  141.7790 C   0  0  0  0  0  0  0  0  0  0  0  0
  185.8680  178.2680  143.1110 C   0  0  0  0  0  2  0  0  0  0  0  0
  184.3430  178.2190  142.9220 C   0  0  2  0  0  3  0  0  0  0  0  0
  185.3370  178.8460  140.9480 C   0  0  0  0  0  0  0  0  0  0  0  0
  184.1350  178.5820  141.5670 O   0  0  0  0  0  0  0  0  0  0  0  0
  183.6300  179.2030  143.8460 C   0  0  0  0  0  0  0  0  0  0  0  0
  182.3830  179.5300  143.3400 F   0  0  0  0  0  0  0  0  0  0  0  0
  184.3820  180.3540  143.9790 F   0  0  0  0  0  0  0  0  0  0  0  0
  183.4750  178.6200  145.0920 F   0  0  0  0  0  0  0  0  0  0  0  0
  188.7410  177.9790  141.7860 C   0  0  0  0  0  3  0  0  0  0  0  0
  187.7860  178.8500  141.4540 C   0  0  0  0  0  3  0  0  0  0  0  0
  188.4850  176.6860  142.4770 C   0  0  0  0  0  2  0  0  0  0  0  0
  188.3290  176.9120  143.8470 O   0  0  0  0  0  0  0  0  0  0  0  0
  189.6260  176.9310  144.3930 C   0  0  2  0  0  0  0  0  0  0  0  0
  190.1500  178.2850  144.8250 C   0  0  0  0  0  2  0  0  0  0  0  0
  190.5610  176.0130  143.9410 F   0  0  0  0  0  0  0  0  0  0  0  0
  189.7210  177.2600  145.8750 C   0  0  1  0  0  3  0  0  0  0  0  0
  188.3860  177.6940  146.4710 C   0  0  0  0  0  2  0  0  0  0  0  0
  187.6780  178.8510  148.4310 F   0  0  0  0  0  0  0  0  0  0  0  0
  188.4700  177.8080  147.9870 C   0  0  0  0  0  0  0  0  0  0  0  0
  188.0480  176.6270  148.5680 F   0  0  0  0  0  0  0  0  0  0  0  0
  189.7820  178.0470  148.3520 F   0  0  0  0  0  0  0  0  0  0  0  0
  185.4420  179.1690  139.5580 N   0  0  0  0  0  2  0  0  0  0  0  0
  185.0730  178.2190  138.5240 C   0  0  0  0  0  2  0  0  0  0  0  0
  186.1930  178.0860  137.4950 C   0  0  2  0  0  3  0  0  0  0  0  0
  186.3830  175.8730  136.5990 O   0  0  0  0  0  1  0  0  0  0  0  0
  185.8710  177.0190  136.5000 C   0  0  0  0  0  0  0  0  0  0  0  0
  184.9760  177.2890  135.4750 O   0  0  0  0  0  0  0  0  0  0  0  0
  187.5170  177.7930  138.1850 C   0  0  0  0  0  2  0  0  0  0  0  0
  188.8910  179.6630  137.6810 O   0  0  0  0  0  1  0  0  0  0  0  0
  188.6850  178.3180  137.3670 C   0  0  1  0  0  3  0  0  0  0  0  0
  189.9230  176.2530  136.9620 N   0  0  0  0  0  2  0  0  0  0  0  0
  189.9430  177.5280  137.6850 C   0  0  2  0  0  3  0  0  0  0  0  0
  190.6930  175.8630  139.1350 O   0  0  0  0  0  1  0  0  0  0  0  0
  189.5960  176.3000  138.3920 C   0  0  2  0  0  3  0  0  0  0  0  0
  1  2  1  0  0  0  0
  3  2  1  0  0  0  0
  3  6  1  1  0  0  0
  4  5  1  0  0  0  0
  4  1  2  0  0  0  0
  5  3  1  0  0  0  0
  6  8  1  0  0  0  0
  6  9  1  0  0  0  0
  7  6  1  0  0  0  0
 10 12  1  0  0  0  0
 11  1  1  0  0  0  0
 11 10  2  0  0  0  0
 12 13  1  0  0  0  0
 13 14  1  0  0  0  0
 14 16  1  6  0  0  0
 14 15  1  0  0  0  0
 14 17  1  0  0  0  0
 15 17  1  0  0  0  0
 17 18  1  6  0  0  0
 18 20  1  0  0  0  0
 20 22  1  0  0  0  0
 20 19  1  0  0  0  0
 20 21  1  0  0  0  0
 23  4  1  0  0  0  0
 24 23  1  0  0  0  0
 25 29  1  1  0  0  0
 25 24  1  0  0  0  0
 27 26  1  0  0  0  0
 27 25  1  0  0  0  0
 28 27  2  0  0  0  0
 31 30  1  1  0  0  0
 31 29  1  0  0  0  0
 32 33  1  0  0  0  0
 32 35  1  0  0  0  0
 33 31  1  6  0  0  0
 33 35  1  0  0  0  0
 35 34  1  1  0  0  0
M  END
>  <MODEL>
3

>  <REMARK>
 VINA RESULT:      -7.8      1.322      2.412
  Name = 
  14 active torsions:
  status: ('A' for Active; 'I' for Inactive)
    1  A    between atoms: C_1  and  O_3
    2  A    between atoms: O_3  and  C_18
    3  A    between atoms: C_4  and  C_18
    4  A    between atoms: C_5  and  C_11
    5  A    between atoms: C_9  and  C_34
    6  A    between atoms: C_12  and  C_28
    7  A    between atoms: C_12  and  C_34
    8  A    between atoms: C_13  and  C_23
    9  A    between atoms: C_19  and  C_21
   10  A    between atoms: C_19  and  C_31
   11  A    between atoms: C_22  and  N_27
   12  A    between atoms: C_22  and  C_28
   13  A    between atoms: C_25  and  C_28
   14  A    between atoms: C_26  and  N_27
                            x       y       z     vdW  Elec       q    Type
                         _______ _______ _______ _____ _____    ______ ____

>  <TORSDO>
F 14

$$$$
=
 OpenBabel11062413453D

 35 37  0  0  1  0  0  0  0  0999 V2000
  189.5380  177.8530  142.0860 C   0  0  0  0  0  0  0  0  0  0  0  0
  190.0940  178.3900  143.3590 C   0  0  0  0  0  2  0  0  0  0  0  0
  191.3900  177.5830  143.5380 C   0  0  2  0  0  3  0  0  0  0  0  0
  190.3710  176.9640  141.5740 C   0  0  0  0  0  0  0  0  0  0  0  0
  191.4610  176.7530  142.3900 O   0  0  0  0  0  0  0  0  0  0  0  0
  191.3520  176.7300  144.8030 C   0  0  0  0  0  0  0  0  0  0  0  0
  192.0870  175.5690  144.6310 F   0  0  0  0  0  0  0  0  0  0  0  0
  190.0460  176.3990  145.1080 F   0  0  0  0  0  0  0  0  0  0  0  0
  191.8890  177.4560  145.8530 F   0  0  0  0  0  0  0  0  0  0  0  0
  187.0890  178.3390  141.9870 C   0  0  0  0  0  3  0  0  0  0  0  0
  188.3150  178.3850  141.4620 C   0  0  0  0  0  3  0  0  0  0  0  0
  186.7820  177.8050  143.3420 C   0  0  0  0  0  2  0  0  0  0  0  0
  185.3970  177.7850  143.5320 O   0  0  0  0  0  0  0  0  0  0  0  0
  185.0820  178.9520  144.2530 C   0  0  2  0  0  0  0  0  0  0  0  0
  184.1000  178.7880  145.3940 C   0  0  0  0  0  2  0  0  0  0  0  0
  185.0780  180.1710  143.5940 F   0  0  0  0  0  0  0  0  0  0  0  0
  185.5830  179.0050  145.6880 C   0  0  1  0  0  3  0  0  0  0  0  0
  186.1940  177.6860  146.1500 C   0  0  0  0  0  2  0  0  0  0  0  0
  187.1470  178.8950  147.9690 F   0  0  0  0  0  0  0  0  0  0  0  0
  187.4180  177.9220  147.0250 C   0  0  0  0  0  0  0  0  0  0  0  0
  187.7710  176.7460  147.6600 F   0  0  0  0  0  0  0  0  0  0  0  0
  188.4690  178.3410  146.2310 F   0  0  0  0  0  0  0  0  0  0  0  0
  190.2090  176.3170  140.3100 N   0  0  0  0  0  2  0  0  0  0  0  0
  190.7750  176.8690  139.0920 C   0  0  0  0  0  2  0  0  0  0  0  0
  190.2200  176.1440  137.8680 C   0  0  2  0  0  3  0  0  0  0  0  0
  191.8710  174.4080  137.8470 O   0  0  0  0  0  1  0  0  0  0  0  0
  191.2830  175.3240  137.2130 C   0  0  0  0  0  0  0  0  0  0  0  0
  191.6030  175.5560  135.8830 O   0  0  0  0  0  0  0  0  0  0  0  0
  189.6300  177.1410  136.8820 C   0  0  0  0  0  2  0  0  0  0  0  0
  187.7420  175.8330  137.4850 O   0  0  0  0  0  1  0  0  0  0  0  0
  188.1640  176.8420  136.6160 C   0  0  1  0  0  3  0  0  0  0  0  0
  187.9150  178.8880  137.9250 N   0  0  0  0  0  2  0  0  0  0  0  0
  187.3260  178.0880  136.8460 C   0  0  2  0  0  3  0  0  0  0  0  0
  185.5940  178.8540  138.2070 O   0  0  0  0  0  1  0  0  0  0  0  0
  186.7350  178.0530  138.1810 C   0  0  2  0  0  3  0  0  0  0  0  0
  1  2  1  0  0  0  0
  2  3  1  0  0  0  0
  3  6  1  1  0  0  0
  4  1  2  0  0  0  0
  4  5  1  0  0  0  0
  5  3  1  0  0  0  0
  6  8  1  0  0  0  0
  6  9  1  0  0  0  0
  7  6  1  0  0  0  0
 10 12  1  0  0  0  0
 11 10  2  0  0  0  0
 11  1  1  0  0  0  0
 12 13  1  0  0  0  0
 13 14  1  0  0  0  0
 14 16  1  6  0  0  0
 14 15  1  0  0  0  0
 14 17  1  0  0  0  0
 15 17  1  0  0  0  0
 17 18  1  6  0  0  0
 18 20  1  0  0  0  0
 20 21  1  0  0  0  0
 20 19  1  0  0  0  0
 22 20  1  0  0  0  0
 23  4  1  0  0  0  0
 24 23  1  0  0  0  0
 25 29  1  6  0  0  0
 25 24  1  0  0  0  0
 27 26  1  0  0  0  0
 27 25  1  0  0  0  0
 28 27  2  0  0  0  0
 31 29  1  0  0  0  0
 31 30  1  1  0  0  0
 32 35  1  0  0  0  0
 33 31  1  1  0  0  0
 33 32  1  0  0  0  0
 33 35  1  0  0  0  0
 35 34  1  6  0  0  0
M  END
>  <MODEL>
4

>  <REMARK>
 VINA RESULT:      -7.7      2.168      5.452
  Name = 
  14 active torsions:
  status: ('A' for Active; 'I' for Inactive)
    1  A    between atoms: C_1  and  O_3
    2  A    between atoms: O_3  and  C_18
    3  A    between atoms: C_4  and  C_18
    4  A    between atoms: C_5  and  C_11
    5  A    between atoms: C_9  and  C_34
    6  A    between atoms: C_12  and  C_28
    7  A    between atoms: C_12  and  C_34
    8  A    between atoms: C_13  and  C_23
    9  A    between atoms: C_19  and  C_21
   10  A    between atoms: C_19  and  C_31
   11  A    between atoms: C_22  and  N_27
   12  A    between atoms: C_22  and  C_28
   13  A    between atoms: C_25  and  C_28
   14  A    between atoms: C_26  and  N_27
                            x       y       z     vdW  Elec       q    Type
                         _______ _______ _______ _____ _____    ______ ____

>  <TORSDO>
F 14

$$$$
=
 OpenBabel11062413453D

 35 37  0  0  1  0  0  0  0  0999 V2000
  189.3620  177.9990  141.8850 C   0  0  0  0  0  0  0  0  0  0  0  0
  189.9510  178.4280  143.1850 C   0  0  0  0  0  2  0  0  0  0  0  0
  191.2900  177.6720  143.2240 C   0  0  2  0  0  3  0  0  0  0  0  0
  190.2110  177.2120  141.2480 C   0  0  0  0  0  0  0  0  0  0  0  0
  191.3460  176.9730  141.9920 O   0  0  0  0  0  0  0  0  0  0  0  0
  191.3480  176.6900  144.3910 C   0  0  0  0  0  0  0  0  0  0  0  0
  191.9660  177.2700  145.4860 F   0  0  0  0  0  0  0  0  0  0  0  0
  192.0490  175.5590  144.0200 F   0  0  0  0  0  0  0  0  0  0  0  0
  190.0580  176.3250  144.7380 F   0  0  0  0  0  0  0  0  0  0  0  0
  186.9030  178.4330  141.9760 C   0  0  0  0  0  3  0  0  0  0  0  0
  188.0900  178.5310  141.3720 C   0  0  0  0  0  3  0  0  0  0  0  0
  186.7010  177.8310  143.3220 C   0  0  0  0  0  2  0  0  0  0  0  0
  185.3350  177.7920  143.6150 O   0  0  0  0  0  0  0  0  0  0  0  0
  185.0680  178.9290  144.3990 C   0  0  2  0  0  0  0  0  0  0  0  0
  184.1920  178.7110  145.6150 C   0  0  0  0  0  2  0  0  0  0  0  0
  184.9880  180.1680  143.7850 F   0  0  0  0  0  0  0  0  0  0  0  0
  185.6920  178.9440  145.7860 C   0  0  1  0  0  3  0  0  0  0  0  0
  186.3590  177.6210  146.1480 C   0  0  0  0  0  2  0  0  0  0  0  0
  188.6490  178.2680  146.2730 F   0  0  0  0  0  0  0  0  0  0  0  0
  187.5770  177.8430  147.0350 C   0  0  0  0  0  0  0  0  0  0  0  0
  187.2870  178.7920  147.9970 F   0  0  0  0  0  0  0  0  0  0  0  0
  187.9070  176.6540  147.6590 F   0  0  0  0  0  0  0  0  0  0  0  0
  190.0210  176.6940  139.9290 N   0  0  0  0  0  2  0  0  0  0  0  0
  190.4760  177.4150  138.7530 C   0  0  0  0  0  2  0  0  0  0  0  0
  189.4310  177.3410  137.6430 C   0  0  2  0  0  3  0  0  0  0  0  0
  189.0520  179.6930  137.3840 O   0  0  0  0  0  0  0  0  0  0  0  0
  188.5680  178.5610  137.6500 C   0  0  0  0  0  0  0  0  0  0  0  0
  187.2130  178.4370  137.9230 O   0  0  0  0  0  1  0  0  0  0  0  0
  188.5850  176.0860  137.7910 C   0  0  0  0  0  2  0  0  0  0  0  0
  189.8910  174.1240  137.5030 O   0  0  0  0  0  1  0  0  0  0  0  0
  189.0430  175.0040  136.8280 C   0  0  1  0  0  3  0  0  0  0  0  0
  186.8170  175.1800  135.8380 N   0  0  0  0  0  2  0  0  0  0  0  0
  187.8440  174.2380  136.2940 C   0  0  2  0  0  3  0  0  0  0  0  0
  185.7690  173.4420  137.0000 O   0  0  0  0  0  1  0  0  0  0  0  0
  186.6750  174.4950  137.1280 C   0  0  2  0  0  3  0  0  0  0  0  0
  1  2  1  0  0  0  0
  2  3  1  0  0  0  0
  3  6  1  1  0  0  0
  4  1  2  0  0  0  0
  4  5  1  0  0  0  0
  5  3  1  0  0  0  0
  6  9  1  0  0  0  0
  6  7  1  0  0  0  0
  8  6  1  0  0  0  0
 10 12  1  0  0  0  0
 11  1  1  0  0  0  0
 11 10  2  0  0  0  0
 12 13  1  0  0  0  0
 13 14  1  0  0  0  0
 14 16  1  6  0  0  0
 14 15  1  0  0  0  0
 14 17  1  0  0  0  0
 15 17  1  0  0  0  0
 17 18  1  6  0  0  0
 18 20  1  0  0  0  0
 19 20  1  0  0  0  0
 20 22  1  0  0  0  0
 20 21  1  0  0  0  0
 23  4  1  0  0  0  0
 24 23  1  0  0  0  0
 25 27  1  0  0  0  0
 25 29  1  1  0  0  0
 25 24  1  0  0  0  0
 26 27  2  0  0  0  0
 27 28  1  0  0  0  0
 31 30  1  1  0  0  0
 31 29  1  0  0  0  0
 32 33  1  0  0  0  0
 32 35  1  0  0  0  0
 33 31  1  1  0  0  0
 33 35  1  0  0  0  0
 35 34  1  6  0  0  0
M  END
>  <MODEL>
5

>  <REMARK>
 VINA RESULT:      -7.6      2.320      5.292
  Name = 
  14 active torsions:
  status: ('A' for Active; 'I' for Inactive)
    1  A    between atoms: C_1  and  O_3
    2  A    between atoms: O_3  and  C_18
    3  A    between atoms: C_4  and  C_18
    4  A    between atoms: C_5  and  C_11
    5  A    between atoms: C_9  and  C_34
    6  A    between atoms: C_12  and  C_28
    7  A    between atoms: C_12  and  C_34
    8  A    between atoms: C_13  and  C_23
    9  A    between atoms: C_19  and  C_21
   10  A    between atoms: C_19  and  C_31
   11  A    between atoms: C_22  and  N_27
   12  A    between atoms: C_22  and  C_28
   13  A    between atoms: C_25  and  C_28
   14  A    between atoms: C_26  and  N_27
                            x       y       z     vdW  Elec       q    Type
                         _______ _______ _______ _____ _____    ______ ____

>  <TORSDO>
F 14

$$$$
=
 OpenBabel11062413453D

 35 37  0  0  1  0  0  0  0  0999 V2000
  188.4110  177.3180  142.0390 C   0  0  0  0  0  0  0  0  0  0  0  0
  189.6390  177.3080  141.1950 C   0  0  0  0  0  2  0  0  0  0  0  0
  189.3490  178.3970  140.1500 C   0  0  2  0  0  3  0  0  0  0  0  0
  187.5940  178.2700  141.6270 C   0  0  0  0  0  0  0  0  0  0  0  0
  188.0820  178.9210  140.5150 O   0  0  0  0  0  0  0  0  0  0  0  0
  189.2940  177.8220  138.7380 C   0  0  0  0  0  0  0  0  0  0  0  0
  190.5190  177.2830  138.3820 F   0  0  0  0  0  0  0  0  0  0  0  0
  188.9550  178.8140  137.8380 F   0  0  0  0  0  0  0  0  0  0  0  0
  188.3310  176.8280  138.6930 F   0  0  0  0  0  0  0  0  0  0  0  0
  188.8190  176.7010  144.4260 C   0  0  0  0  0  3  0  0  0  0  0  0
  188.2590  176.4740  143.2360 C   0  0  0  0  0  3  0  0  0  0  0  0
  189.6300  177.9060  144.7490 C   0  0  0  0  0  2  0  0  0  0  0  0
  189.0690  178.5650  145.8470 O   0  0  0  0  0  0  0  0  0  0  0  0
  189.1100  177.6520  146.9160 C   0  0  2  0  0  0  0  0  0  0  0  0
  189.1370  178.2530  148.3070 C   0  0  0  0  0  2  0  0  0  0  0  0
  189.7610  176.4410  146.7450 F   0  0  0  0  0  0  0  0  0  0  0  0
  187.8640  177.5880  147.7860 C   0  0  1  0  0  3  0  0  0  0  0  0
  186.8470  178.6710  147.4420 C   0  0  0  0  0  2  0  0  0  0  0  0
  185.8880  178.9430  145.2770 F   0  0  0  0  0  0  0  0  0  0  0  0
  185.8320  178.1700  146.4230 C   0  0  0  0  0  0  0  0  0  0  0  0
  186.1000  176.8520  146.1060 F   0  0  0  0  0  0  0  0  0  0  0  0
  184.5640  178.2560  146.9660 F   0  0  0  0  0  0  0  0  0  0  0  0
  186.3660  178.6330  142.2640 N   0  0  0  0  0  2  0  0  0  0  0  0
  185.2760  179.2480  141.5270 C   0  0  0  0  0  2  0  0  0  0  0  0
  184.7230  178.2800  140.4840 C   0  0  2  0  0  3  0  0  0  0  0  0
  184.4720  180.2170  139.0960 O   0  0  0  0  0  1  0  0  0  0  0  0
  184.5610  178.9620  139.1650 C   0  0  0  0  0  0  0  0  0  0  0  0
  184.5390  178.2050  138.0020 O   0  0  0  0  0  0  0  0  0  0  0  0
  183.3990  177.6950  140.9500 C   0  0  0  0  0  2  0  0  0  0  0  0
  181.3100  178.0810  139.8900 O   0  0  0  0  0  1  0  0  0  0  0  0
  182.2600  178.6750  140.7230 C   0  0  1  0  0  3  0  0  0  0  0  0
  180.3380  178.3240  142.1880 N   0  0  0  0  0  2  0  0  0  0  0  0
  181.6110  179.0390  142.0480 C   0  0  2  0  0  3  0  0  0  0  0  0
  180.0410  180.5230  142.9250 O   0  0  0  0  0  1  0  0  0  0  0  0
  180.3550  179.7430  141.8120 C   0  0  2  0  0  3  0  0  0  0  0  0
  1 11  1  0  0  0  0
  2  1  1  0  0  0  0
  3  6  1  6  0  0  0
  3  5  1  0  0  0  0
  3  2  1  0  0  0  0
  4  1  2  0  0  0  0
  4 23  1  0  0  0  0
  5  4  1  0  0  0  0
  7  6  1  0  0  0  0
  8  6  1  0  0  0  0
  9  6  1  0  0  0  0
 10 12  1  0  0  0  0
 11 10  2  0  0  0  0
 12 13  1  0  0  0  0
 13 14  1  0  0  0  0
 14 16  1  6  0  0  0
 14 17  1  0  0  0  0
 14 15  1  0  0  0  0
 17 18  1  6  0  0  0
 17 15  1  0  0  0  0
 19 20  1  0  0  0  0
 20 22  1  0  0  0  0
 20 18  1  0  0  0  0
 21 20  1  0  0  0  0
 24 23  1  0  0  0  0
 25 29  1  1  0  0  0
 25 24  1  0  0  0  0
 26 27  1  0  0  0  0
 27 25  1  0  0  0  0
 28 27  2  0  0  0  0
 31 30  1  6  0  0  0
 31 29  1  0  0  0  0
 33 31  1  6  0  0  0
 33 32  1  0  0  0  0
 35 33  1  0  0  0  0
 35 32  1  0  0  0  0
 35 34  1  1  0  0  0
M  END
>  <MODEL>
6

>  <REMARK>
 VINA RESULT:      -7.5      2.885      6.150
  Name = 
  14 active torsions:
  status: ('A' for Active; 'I' for Inactive)
    1  A    between atoms: C_1  and  O_3
    2  A    between atoms: O_3  and  C_18
    3  A    between atoms: C_4  and  C_18
    4  A    between atoms: C_5  and  C_11
    5  A    between atoms: C_9  and  C_34
    6  A    between atoms: C_12  and  C_28
    7  A    between atoms: C_12  and  C_34
    8  A    between atoms: C_13  and  C_23
    9  A    between atoms: C_19  and  C_21
   10  A    between atoms: C_19  and  C_31
   11  A    between atoms: C_22  and  N_27
   12  A    between atoms: C_22  and  C_28
   13  A    between atoms: C_25  and  C_28
   14  A    between atoms: C_26  and  N_27
                            x       y       z     vdW  Elec       q    Type
                         _______ _______ _______ _____ _____    ______ ____

>  <TORSDO>
F 14

$$$$
=
 OpenBabel11062413453D

 35 37  0  0  1  0  0  0  0  0999 V2000
  189.4680  177.8600  141.9780 C   0  0  0  0  0  0  0  0  0  0  0  0
  189.9930  178.3500  143.2840 C   0  0  0  0  0  2  0  0  0  0  0  0
  191.3480  177.6340  143.4010 C   0  0  2  0  0  3  0  0  0  0  0  0
  190.3620  177.0760  141.4020 C   0  0  0  0  0  0  0  0  0  0  0  0
  191.4720  176.8940  142.1980 O   0  0  0  0  0  0  0  0  0  0  0  0
  191.3870  176.6950  144.6030 C   0  0  0  0  0  0  0  0  0  0  0  0
  192.0430  175.5190  144.2820 F   0  0  0  0  0  0  0  0  0  0  0  0
  190.1000  176.4000  145.0110 F   0  0  0  0  0  0  0  0  0  0  0  0
  192.0560  177.3190  145.6420 F   0  0  0  0  0  0  0  0  0  0  0  0
  187.0100  178.3130  141.9970 C   0  0  0  0  0  3  0  0  0  0  0  0
  188.2030  178.3390  141.3970 C   0  0  0  0  0  3  0  0  0  0  0  0
  186.7930  177.8640  143.3980 C   0  0  0  0  0  2  0  0  0  0  0  0
  185.4220  177.8100  143.6630 O   0  0  0  0  0  0  0  0  0  0  0  0
  185.1140  178.9780  144.3850 C   0  0  2  0  0  0  0  0  0  0  0  0
  184.1100  178.8240  145.5090 C   0  0  0  0  0  2  0  0  0  0  0  0
  185.1410  180.2000  143.7340 F   0  0  0  0  0  0  0  0  0  0  0  0
  185.5920  179.0150  145.8290 C   0  0  1  0  0  3  0  0  0  0  0  0
  186.1720  177.6820  146.2930 C   0  0  0  0  0  2  0  0  0  0  0  0
  188.0150  176.6590  147.4060 F   0  0  0  0  0  0  0  0  0  0  0  0
  187.5010  177.8810  147.0110 C   0  0  0  0  0  0  0  0  0  0  0  0
  188.3980  178.5090  146.1680 F   0  0  0  0  0  0  0  0  0  0  0  0
  187.3000  178.6700  148.1270 F   0  0  0  0  0  0  0  0  0  0  0  0
  190.2380  176.5070  140.0960 N   0  0  0  0  0  2  0  0  0  0  0  0
  190.7920  177.1610  138.9240 C   0  0  0  0  0  2  0  0  0  0  0  0
  191.7070  176.2060  138.1610 C   0  0  2  0  0  3  0  0  0  0  0  0
  193.6180  177.0190  139.3570 O   0  0  0  0  0  1  0  0  0  0  0  0
  193.1300  176.6510  138.2550 C   0  0  0  0  0  0  0  0  0  0  0  0
  193.9290  176.6300  137.1210 O   0  0  0  0  0  0  0  0  0  0  0  0
  191.2740  176.1020  136.7070 C   0  0  0  0  0  2  0  0  0  0  0  0
  190.6480  173.9900  137.5920 O   0  0  0  0  0  1  0  0  0  0  0  0
  190.6830  174.7340  136.4110 C   0  0  1  0  0  3  0  0  0  0  0  0
  188.3760  175.3390  136.9290 N   0  0  0  0  0  2  0  0  0  0  0  0
  189.2730  174.8790  135.8650 C   0  0  2  0  0  3  0  0  0  0  0  0
  187.2830  173.6760  135.7030 O   0  0  0  0  0  1  0  0  0  0  0  0
  188.3820  173.9290  136.5230 C   0  0  2  0  0  3  0  0  0  0  0  0
  1  2  1  0  0  0  0
  2  3  1  0  0  0  0
  3  6  1  1  0  0  0
  4  1  2  0  0  0  0
  4  5  1  0  0  0  0
  5  3  1  0  0  0  0
  6  8  1  0  0  0  0
  6  9  1  0  0  0  0
  7  6  1  0  0  0  0
 10 12  1  0  0  0  0
 11  1  1  0  0  0  0
 11 10  2  0  0  0  0
 12 13  1  0  0  0  0
 13 14  1  0  0  0  0
 14 16  1  6  0  0  0
 14 15  1  0  0  0  0
 14 17  1  0  0  0  0
 15 17  1  0  0  0  0
 17 18  1  6  0  0  0
 18 20  1  0  0  0  0
 20 19  1  0  0  0  0
 20 22  1  0  0  0  0
 21 20  1  0  0  0  0
 23  4  1  0  0  0  0
 24 23  1  0  0  0  0
 25 29  1  6  0  0  0
 25 27  1  0  0  0  0
 25 24  1  0  0  0  0
 27 26  1  0  0  0  0
 28 27  2  0  0  0  0
 31 29  1  0  0  0  0
 31 30  1  1  0  0  0
 33 31  1  1  0  0  0
 33 35  1  0  0  0  0
 33 32  1  0  0  0  0
 35 34  1  6  0  0  0
 35 32  1  0  0  0  0
M  END
>  <MODEL>
7

>  <REMARK>
 VINA RESULT:      -7.5      2.795      5.768
  Name = 
  14 active torsions:
  status: ('A' for Active; 'I' for Inactive)
    1  A    between atoms: C_1  and  O_3
    2  A    between atoms: O_3  and  C_18
    3  A    between atoms: C_4  and  C_18
    4  A    between atoms: C_5  and  C_11
    5  A    between atoms: C_9  and  C_34
    6  A    between atoms: C_12  and  C_28
    7  A    between atoms: C_12  and  C_34
    8  A    between atoms: C_13  and  C_23
    9  A    between atoms: C_19  and  C_21
   10  A    between atoms: C_19  and  C_31
   11  A    between atoms: C_22  and  N_27
   12  A    between atoms: C_22  and  C_28
   13  A    between atoms: C_25  and  C_28
   14  A    between atoms: C_26  and  N_27
                            x       y       z     vdW  Elec       q    Type
                         _______ _______ _______ _____ _____    ______ ____

>  <TORSDO>
F 14

$$$$
=
 OpenBabel11062413453D

 35 37  0  0  1  0  0  0  0  0999 V2000
  186.1030  178.3800  142.5620 C   0  0  0  0  0  0  0  0  0  0  0  0
  187.5060  178.1150  142.9900 C   0  0  0  0  0  2  0  0  0  0  0  0
  188.3270  178.5240  141.7560 C   0  0  2  0  0  3  0  0  0  0  0  0
  186.0980  178.9100  141.3520 C   0  0  0  0  0  0  0  0  0  0  0  0
  187.3680  179.0000  140.8250 O   0  0  0  0  0  0  0  0  0  0  0  0
  189.0880  177.3400  141.1680 C   0  0  0  0  0  0  0  0  0  0  0  0
  188.9330  176.2170  141.9640 F   0  0  0  0  0  0  0  0  0  0  0  0
  190.4320  177.6450  141.0710 F   0  0  0  0  0  0  0  0  0  0  0  0
  188.5960  177.0710  139.9020 F   0  0  0  0  0  0  0  0  0  0  0  0
  184.9780  178.2730  144.7900 C   0  0  0  0  0  3  0  0  0  0  0  0
  184.9490  178.2030  143.4580 C   0  0  0  0  0  3  0  0  0  0  0  0
  186.1890  178.6290  145.5790 C   0  0  0  0  0  2  0  0  0  0  0  0
  186.6970  177.4820  146.1960 O   0  0  0  0  0  0  0  0  0  0  0  0
  187.5290  177.9310  147.2370 C   0  0  2  0  0  0  0  0  0  0  0  0
  188.3030  176.8630  147.9830 C   0  0  0  0  0  2  0  0  0  0  0  0
  187.1600  179.0550  147.9600 F   0  0  0  0  0  0  0  0  0  0  0  0
  189.0250  177.7880  147.0040 C   0  0  1  0  0  3  0  0  0  0  0  0
  189.3530  177.0050  145.7360 C   0  0  0  0  0  2  0  0  0  0  0  0
  190.9170  176.7860  143.9510 F   0  0  0  0  0  0  0  0  0  0  0  0
  190.6040  177.5510  145.0600 C   0  0  0  0  0  0  0  0  0  0  0  0
  190.3930  178.8610  144.6740 F   0  0  0  0  0  0  0  0  0  0  0  0
  191.6580  177.5070  145.9530 F   0  0  0  0  0  0  0  0  0  0  0  0
  184.9360  179.3820  140.6650 N   0  0  0  0  0  2  0  0  0  0  0  0
  184.5570  178.8660  139.3610 C   0  0  0  0  0  2  0  0  0  0  0  0
  183.0510  178.6290  139.2970 C   0  0  2  0  0  3  0  0  0  0  0  0
  182.5650  180.9030  138.7220 O   0  0  0  0  0  1  0  0  0  0  0  0
  182.3860  179.6820  138.4720 C   0  0  0  0  0  0  0  0  0  0  0  0
  181.5870  179.3080  137.4010 O   0  0  0  0  0  0  0  0  0  0  0  0
  182.4580  178.5920  140.6970 C   0  0  0  0  0  2  0  0  0  0  0  0
  180.6180  177.1930  140.1530 O   0  0  0  0  0  1  0  0  0  0  0  0
  180.9450  178.4580  140.6450 C   0  0  1  0  0  3  0  0  0  0  0  0
  180.4670  180.0270  142.4540 N   0  0  0  0  0  2  0  0  0  0  0  0
  180.3570  178.6260  142.0350 C   0  0  2  0  0  3  0  0  0  0  0  0
  181.0240  178.6630  144.2700 O   0  0  0  0  0  1  0  0  0  0  0  0
  181.4010  179.0220  142.9750 C   0  0  2  0  0  3  0  0  0  0  0  0
  1  2  1  0  0  0  0
  1 11  1  0  0  0  0
  3  6  1  6  0  0  0
  3  2  1  0  0  0  0
  4  1  2  0  0  0  0
  5  4  1  0  0  0  0
  5  3  1  0  0  0  0
  6  7  1  0  0  0  0
  8  6  1  0  0  0  0
  9  6  1  0  0  0  0
 10 12  1  0  0  0  0
 11 10  2  0  0  0  0
 12 13  1  0  0  0  0
 13 14  1  0  0  0  0
 14 16  1  1  0  0  0
 14 15  1  0  0  0  0
 17 18  1  6  0  0  0
 17 14  1  0  0  0  0
 17 15  1  0  0  0  0
 19 20  1  0  0  0  0
 20 18  1  0  0  0  0
 20 22  1  0  0  0  0
 21 20  1  0  0  0  0
 23  4  1  0  0  0  0
 24 23  1  0  0  0  0
 25 24  1  1  0  0  0
 25 29  1  0  0  0  0
 27 26  1  0  0  0  0
 27 25  1  0  0  0  0
 28 27  2  0  0  0  0
 31 30  1  1  0  0  0
 31 29  1  0  0  0  0
 32 35  1  0  0  0  0
 33 31  1  6  0  0  0
 33 32  1  0  0  0  0
 33 35  1  0  0  0  0
 35 34  1  1  0  0  0
M  END
>  <MODEL>
8

>  <REMARK>
 VINA RESULT:      -7.4      3.161      5.640
  Name = 
  14 active torsions:
  status: ('A' for Active; 'I' for Inactive)
    1  A    between atoms: C_1  and  O_3
    2  A    between atoms: O_3  and  C_18
    3  A    between atoms: C_4  and  C_18
    4  A    between atoms: C_5  and  C_11
    5  A    between atoms: C_9  and  C_34
    6  A    between atoms: C_12  and  C_28
    7  A    between atoms: C_12  and  C_34
    8  A    between atoms: C_13  and  C_23
    9  A    between atoms: C_19  and  C_21
   10  A    between atoms: C_19  and  C_31
   11  A    between atoms: C_22  and  N_27
   12  A    between atoms: C_22  and  C_28
   13  A    between atoms: C_25  and  C_28
   14  A    between atoms: C_26  and  N_27
                            x       y       z     vdW  Elec       q    Type
                         _______ _______ _______ _____ _____    ______ ____

>  <TORSDO>
F 14

$$$$
=
 OpenBabel11062413453D

 35 37  0  0  1  0  0  0  0  0999 V2000
  189.5280  177.8440  142.4070 C   0  0  0  0  0  0  0  0  0  0  0  0
  190.0950  178.3530  143.6880 C   0  0  0  0  0  2  0  0  0  0  0  0
  191.4030  177.5590  143.8270 C   0  0  2  0  0  3  0  0  0  0  0  0
  190.3660  176.9810  141.8600 C   0  0  0  0  0  0  0  0  0  0  0  0
  191.4700  176.7630  142.6550 O   0  0  0  0  0  0  0  0  0  0  0  0
  191.3930  176.6700  145.0670 C   0  0  0  0  0  0  0  0  0  0  0  0
  190.0940  176.3820  145.4500 F   0  0  0  0  0  0  0  0  0  0  0  0
  192.0430  177.3050  146.1070 F   0  0  0  0  0  0  0  0  0  0  0  0
  192.0540  175.4870  144.7800 F   0  0  0  0  0  0  0  0  0  0  0  0
  187.0620  178.2350  142.3170 C   0  0  0  0  0  3  0  0  0  0  0  0
  188.2900  178.3770  141.8150 C   0  0  0  0  0  3  0  0  0  0  0  0
  186.7640  177.5740  143.6160 C   0  0  0  0  0  2  0  0  0  0  0  0
  186.9100  178.4990  144.6540 O   0  0  0  0  0  0  0  0  0  0  0  0
  186.1540  178.0040  145.7320 C   0  0  2  0  0  0  0  0  0  0  0  0
  185.6790  179.0290  146.7420 C   0  0  0  0  0  2  0  0  0  0  0  0
  186.4140  176.7290  146.2090 F   0  0  0  0  0  0  0  0  0  0  0  0
  184.6880  178.4080  145.7590 C   0  0  1  0  0  3  0  0  0  0  0  0
  184.3390  179.4400  144.6910 C   0  0  0  0  0  2  0  0  0  0  0  0
  182.3510  180.1080  143.5590 F   0  0  0  0  0  0  0  0  0  0  0  0
  183.1230  179.0070  143.8830 C   0  0  0  0  0  0  0  0  0  0  0  0
  183.5330  178.3730  142.7260 F   0  0  0  0  0  0  0  0  0  0  0  0
  182.3670  178.1290  144.6360 F   0  0  0  0  0  0  0  0  0  0  0  0
  190.1950  176.3680  140.5790 N   0  0  0  0  0  2  0  0  0  0  0  0
  190.9860  176.7690  139.4290 C   0  0  0  0  0  2  0  0  0  0  0  0
  190.8600  175.7400  138.3090 C   0  0  2  0  0  3  0  0  0  0  0  0
  192.2210  174.8990  136.5250 O   0  0  0  0  0  0  0  0  0  0  0  0
  192.0830  175.7420  137.4510 C   0  0  0  0  0  0  0  0  0  0  0  0
  193.0610  176.7040  137.6570 O   0  0  0  0  0  1  0  0  0  0  0  0
  189.6190  176.0120  137.4730 C   0  0  0  0  0  2  0  0  0  0  0  0
  189.9760  177.0360  135.3610 O   0  0  0  0  0  1  0  0  0  0  0  0
  189.7510  177.3190  136.7100 C   0  0  1  0  0  3  0  0  0  0  0  0
  188.7650  179.3810  137.5690 N   0  0  0  0  0  2  0  0  0  0  0  0
  188.4790  178.1370  136.8480 C   0  0  2  0  0  3  0  0  0  0  0  0
  186.7450  178.5100  138.3620 O   0  0  0  0  0  1  0  0  0  0  0  0
  188.1130  178.2600  138.2550 C   0  0  2  0  0  3  0  0  0  0  0  0
  1  2  1  0  0  0  0
  2  3  1  0  0  0  0
  3  6  1  1  0  0  0
  4  1  2  0  0  0  0
  4  5  1  0  0  0  0
  5  3  1  0  0  0  0
  6  7  1  0  0  0  0
  6  8  1  0  0  0  0
  9  6  1  0  0  0  0
 10 12  1  0  0  0  0
 11 10  2  0  0  0  0
 11  1  1  0  0  0  0
 12 13  1  0  0  0  0
 13 14  1  0  0  0  0
 14 17  1  0  0  0  0
 14 16  1  1  0  0  0
 14 15  1  0  0  0  0
 17 18  1  6  0  0  0
 17 15  1  0  0  0  0
 19 20  1  0  0  0  0
 20 22  1  0  0  0  0
 20 18  1  0  0  0  0
 21 20  1  0  0  0  0
 23  4  1  0  0  0  0
 24 23  1  0  0  0  0
 25 29  1  6  0  0  0
 25 24  1  0  0  0  0
 26 27  2  0  0  0  0
 27 28  1  0  0  0  0
 27 25  1  0  0  0  0
 31 30  1  6  0  0  0
 31 29  1  0  0  0  0
 32 35  1  0  0  0  0
 33 31  1  1  0  0  0
 33 32  1  0  0  0  0
 33 35  1  0  0  0  0
 35 34  1  6  0  0  0
M  END
>  <MODEL>
9

>  <REMARK>
 VINA RESULT:      -7.2      2.333      5.953
  Name = 
  14 active torsions:
  status: ('A' for Active; 'I' for Inactive)
    1  A    between atoms: C_1  and  O_3
    2  A    between atoms: O_3  and  C_18
    3  A    between atoms: C_4  and  C_18
    4  A    between atoms: C_5  and  C_11
    5  A    between atoms: C_9  and  C_34
    6  A    between atoms: C_12  and  C_28
    7  A    between atoms: C_12  and  C_34
    8  A    between atoms: C_13  and  C_23
    9  A    between atoms: C_19  and  C_21
   10  A    between atoms: C_19  and  C_31
   11  A    between atoms: C_22  and  N_27
   12  A    between atoms: C_22  and  C_28
   13  A    between atoms: C_25  and  C_28
   14  A    between atoms: C_26  and  N_27
                            x       y       z     vdW  Elec       q    Type
                         _______ _______ _______ _____ _____    ______ ____

>  <TORSDO>
F 14

$$$$
