=
 OpenBabel11062414283D

 50 54  0  0  1  0  0  0  0  0999 V2000
  180.4520  179.7310  142.0930 C   0  0  0  0  0  1  0  0  0  0  0  0
  181.4090  178.9340  141.2160 C   0  0  2  0  0  0  0  0  0  0  0  0
  181.6950  179.7150  140.0220 N   0  0  0  0  0  1  0  0  0  0  0  0
  179.3620  177.6460  141.0030 O   0  0  0  0  0  1  0  0  0  0  0  0
  180.7450  177.6110  140.7880 C   0  0  1  0  0  3  0  0  0  0  0  0
  182.0770  176.2580  139.1300 C   0  0  0  0  0  0  0  0  0  0  0  0
  179.7340  177.8040  135.8810 C   0  0  0  0  0  1  0  0  0  0  0  0
  180.5560  177.2570  136.9960 C   0  0  0  0  0  0  0  0  0  0  0  0
  180.2920  177.6730  138.3030 C   0  0  0  0  0  3  0  0  0  0  0  0
  181.8380  175.9040  135.4490 O   0  0  0  0  0  1  0  0  0  0  0  0
  181.0460  177.1780  139.3760 C   0  0  0  0  0  0  0  0  0  0  0  0
  182.3410  175.8280  137.8190 C   0  0  0  0  0  0  0  0  0  0  0  0
  181.5800  176.3290  136.7500 C   0  0  0  0  0  0  0  0  0  0  0  0
  182.8130  175.7750  140.1640 F   0  0  0  0  0  0  0  0  0  0  0  0
  183.6510  174.6320  137.5150 S   0  0  0  0  0  0  0  0  0  0  0  0
  184.8790  175.9060  137.2280 C   0  0  0  0  0  0  0  0  0  0  0  0
  187.0830  177.6570  137.3180 C   0  0  0  0  0  2  0  0  0  0  0  0
  185.7090  178.2880  137.4300 C   0  0  0  0  0  2  0  0  0  0  0  0
  185.9500  175.6080  136.5670 N   0  0  0  0  0  0  0  0  0  0  0  0
  184.6960  177.2480  137.8980 C   0  0  0  0  0  2  0  0  0  0  0  0
  187.0020  176.5590  136.2640 C   0  0  2  0  0  3  0  0  0  0  0  0
  188.3310  175.8310  136.1390 C   0  0  0  0  0  2  0  0  0  0  0  0
  189.4810  176.7140  136.5950 C   0  0  0  0  0  2  0  0  0  0  0  0
  190.1200  174.4670  137.7660 O   0  0  0  0  0  0  0  0  0  0  0  0
  190.8280  175.7090  137.2450 S   0  0  2  0  0  0  0  0  0  0  0  0
  190.4990  176.1600  139.8020 O   0  0  0  0  0  1  0  0  0  0  0  0
  191.3130  176.5680  138.7490 C   0  0  0  0  0  2  0  0  0  0  0  0
  182.7120  178.6640  141.9810 C   0  0  0  0  0  2  0  0  0  0  0  0
  182.5320  178.7240  143.4960 C   0  0  0  0  0  2  0  0  0  0  0  0
  183.7920  179.2400  144.1730 C   0  0  2  0  0  3  0  0  0  0  0  0
  186.7670  177.8230  144.7580 C   0  0  0  0  0  2  0  0  0  0  0  0
  184.7900  179.7060  143.1060 C   0  0  0  0  0  2  0  0  0  0  0  0
  185.6870  178.5900  142.5820 C   0  0  0  0  0  2  0  0  0  0  0  0
  185.7450  178.5240  145.6420 C   0  0  0  0  0  2  0  0  0  0  0  0
  186.9730  178.5340  143.4100 C   0  0  2  0  0  3  0  0  0  0  0  0
  184.3430  178.1930  145.1550 C   0  0  0  0  0  2  0  0  0  0  0  0
  188.8280  175.8470  143.4910 C   0  0  0  0  0  2  0  0  0  0  0  0
  187.9470  176.4390  142.4460 C   0  0  0  0  0  2  0  0  0  0  0  0
  189.3570  178.1630  143.2990 O   0  0  0  0  0  0  0  0  0  0  0  0
  189.8820  176.9100  143.6710 C   0  0  1  0  0  3  0  0  0  0  0  0
  188.1480  177.9340  142.6050 C   0  0  2  0  0  0  0  0  0  0  0  0
  190.3490  176.9480  145.0520 N   0  0  0  0  0  0  0  0  0  0  0  0
  191.5350  176.2170  145.3970 C   0  0  0  0  0  3  0  0  0  0  0  0
  189.8260  177.1620  147.4450 C   0  0  1  0  0  3  0  0  0  0  0  0
  189.6430  177.7590  146.0530 C   0  0  0  0  0  2  0  0  0  0  0  0
  191.3180  177.0060  147.7320 C   0  0  0  0  0  2  0  0  0  0  0  0
  191.9920  176.2070  146.6510 C   0  0  0  0  0  3  0  0  0  0  0  0
  189.2520  178.0050  148.3940 O   0  0  0  0  0  1  0  0  0  0  0  0
  188.2460  178.5440  141.2680 C   0  0  0  0  0  0  0  0  0  0  0  0
  188.3230  179.0230  140.2170 N   0  0  0  0  0  0  0  0  0  0  0  0
  2 28  1  0  0  0  0
  2  1  1  1  0  0  0
  3  2  1  0  0  0  0
  5  4  1  6  0  0  0
  5  2  1  0  0  0  0
  6 11  1  0  0  0  0
  6 14  1  0  0  0  0
  7  8  1  0  0  0  0
  8  9  1  0  0  0  0
  9 11  2  0  0  0  0
 10 13  1  0  0  0  0
 11  5  1  0  0  0  0
 12  6  2  0  0  0  0
 13  8  2  0  0  0  0
 13 12  1  0  0  0  0
 15 12  1  0  0  0  0
 16 15  1  0  0  0  0
 16 20  1  0  0  0  0
 17 18  1  0  0  0  0
 18 20  1  0  0  0  0
 19 16  2  0  0  0  0
 21 22  1  1  0  0  0
 21 19  1  0  0  0  0
 21 17  1  0  0  0  0
 22 23  1  0  0  0  0
 23 25  1  0  0  0  0
 25 24  2  1  0  0  0
 25 27  1  0  0  0  0
 27 26  1  0  0  0  0
 28 29  1  0  0  0  0
 30 29  1  6  0  0  0
 30 36  1  0  0  0  0
 31 34  1  0  0  0  0
 32 30  1  0  0  0  0
 33 32  1  0  0  0  0
 35 33  1  6  0  0  0
 35 31  1  0  0  0  0
 36 34  1  0  0  0  0
 38 41  1  0  0  0  0
 38 37  1  0  0  0  0
 39 40  1  0  0  0  0
 40 37  1  1  0  0  0
 40 42  1  0  0  0  0
 41 49  1  6  0  0  0
 41 39  1  0  0  0  0
 41 35  1  0  0  0  0
 42 43  1  0  0  0  0
 42 45  1  0  0  0  0
 43 47  2  0  0  0  0
 44 46  1  0  0  0  0
 44 48  1  1  0  0  0
 45 44  1  0  0  0  0
 47 46  1  0  0  0  0
 50 49  3  0  0  0  0
M  END
>  <MODEL>
1

>  <REMARK>
 VINA RESULT:      -7.8      0.000      0.000
  Name = 
  14 active torsions:
  status: ('A' for Active; 'I' for Inactive)
    1  A    between atoms: C_2  and  S_11
    2  A    between atoms: N_6  and  C_21
    3  A    between atoms: S_11  and  C_36
    4  A    between atoms: C_14  and  C_28
    5  A    between atoms: C_14  and  C_34
    6  A    between atoms: C_15  and  C_24
    7  A    between atoms: C_15  and  C_28
    8  A    between atoms: C_16  and  C_22
    9  A    between atoms: C_16  and  C_50
   10  A    between atoms: C_22  and  S_23
   11  A    between atoms: S_23  and  C_42
   12  A    between atoms: C_33  and  C_34
   13  A    between atoms: C_38  and  C_47
   14  A    between atoms: C_43  and  C_47
                            x       y       z     vdW  Elec       q    Type
                         _______ _______ _______ _____ _____    ______ ____

>  <TORSDO>
F 14

$$$$
=
 OpenBabel11062414283D

 50 54  0  0  1  0  0  0  0  0999 V2000
  184.3180  179.9980  144.3300 C   0  0  0  0  0  1  0  0  0  0  0  0
  184.5720  179.0130  143.1960 C   0  0  2  0  0  0  0  0  0  0  0  0
  185.2190  179.7270  142.1050 N   0  0  0  0  0  1  0  0  0  0  0  0
  182.1490  179.1850  143.1850 O   0  0  0  0  0  1  0  0  0  0  0  0
  183.2310  178.4500  142.6840 C   0  0  1  0  0  3  0  0  0  0  0  0
  181.8700  178.1650  140.5810 C   0  0  0  0  0  0  0  0  0  0  0  0
  185.4240  178.3290  138.1770 C   0  0  0  0  0  1  0  0  0  0  0  0
  184.1810  178.2710  138.9960 C   0  0  0  0  0  0  0  0  0  0  0  0
  184.2770  178.3700  140.3860 C   0  0  0  0  0  3  0  0  0  0  0  0
  182.8250  178.0380  137.0030 O   0  0  0  0  0  1  0  0  0  0  0  0
  183.1280  178.3200  141.1860 C   0  0  0  0  0  0  0  0  0  0  0  0
  181.7660  178.0750  139.1840 C   0  0  0  0  0  0  0  0  0  0  0  0
  182.9240  178.1270  138.3900 C   0  0  0  0  0  0  0  0  0  0  0  0
  180.7520  178.1130  141.3500 F   0  0  0  0  0  0  0  0  0  0  0  0
  180.1490  177.8970  138.4160 S   0  0  0  0  0  0  0  0  0  0  0  0
  180.1290  176.1190  138.6410 C   0  0  0  0  0  0  0  0  0  0  0  0
  179.5730  173.3580  138.6060 C   0  0  0  0  0  2  0  0  0  0  0  0
  179.5120  174.0470  139.9560 C   0  0  0  0  0  2  0  0  0  0  0  0
  180.7140  175.3680  137.7660 N   0  0  0  0  0  0  0  0  0  0  0  0
  179.3000  175.5440  139.7660 C   0  0  0  0  0  2  0  0  0  0  0  0
  180.7730  173.9220  137.8540 C   0  0  2  0  0  3  0  0  0  0  0  0
  180.8650  173.3270  136.4580 C   0  0  0  0  0  2  0  0  0  0  0  0
  182.0410  173.9120  135.6920 C   0  0  0  0  0  2  0  0  0  0  0  0
  182.9880  171.6720  136.6460 O   0  0  0  0  0  0  0  0  0  0  0  0
  183.5200  172.9170  135.9510 S   0  0  2  0  0  0  0  0  0  0  0  0
  185.0730  172.8620  138.0580 O   0  0  0  0  0  1  0  0  0  0  0  0
  184.3910  173.7820  137.2660 C   0  0  0  0  0  2  0  0  0  0  0  0
  185.4840  177.8800  143.6850 C   0  0  0  0  0  2  0  0  0  0  0  0
  185.3760  177.6410  145.1890 C   0  0  0  0  0  2  0  0  0  0  0  0
  186.5270  178.3040  145.9290 C   0  0  2  0  0  3  0  0  0  0  0  0
  189.4960  177.1510  146.9580 C   0  0  0  0  0  2  0  0  0  0  0  0
  187.6060  178.7230  144.9230 C   0  0  0  0  0  2  0  0  0  0  0  0
  188.6120  177.6200  144.6150 C   0  0  0  0  0  2  0  0  0  0  0  0
  188.3490  177.8700  147.6550 C   0  0  0  0  0  2  0  0  0  0  0  0
  189.8040  177.7320  145.5680 C   0  0  2  0  0  3  0  0  0  0  0  0
  187.0270  177.4010  147.0680 C   0  0  0  0  0  2  0  0  0  0  0  0
  191.9260  178.4880  143.2040 C   0  0  0  0  0  2  0  0  0  0  0  0
  192.0820  178.2400  144.6630 C   0  0  0  0  0  2  0  0  0  0  0  0
  190.7680  176.4760  143.7440 O   0  0  0  0  0  0  0  0  0  0  0  0
  191.4190  177.1600  142.6990 C   0  0  1  0  0  3  0  0  0  0  0  0
  191.0890  177.1310  144.9540 C   0  0  2  0  0  0  0  0  0  0  0  0
  190.5120  177.3460  141.5730 N   0  0  0  0  0  0  0  0  0  0  0  0
  189.1930  177.8490  141.8300 C   0  0  0  0  0  3  0  0  0  0  0  0
  189.7790  176.6670  139.3250 C   0  0  1  0  0  3  0  0  0  0  0  0
  190.9630  177.0680  140.2020 C   0  0  0  0  0  2  0  0  0  0  0  0
  188.7060  177.7500  139.4050 C   0  0  0  0  0  2  0  0  0  0  0  0
  188.3200  178.0210  140.8330 C   0  0  0  0  0  3  0  0  0  0  0  0
  190.2040  176.5230  138.0060 O   0  0  0  0  0  1  0  0  0  0  0  0
  191.7140  176.1600  145.8670 C   0  0  0  0  0  0  0  0  0  0  0  0
  192.2060  175.3960  146.5850 N   0  0  0  0  0  0  0  0  0  0  0  0
  2 28  1  0  0  0  0
  2  1  1  1  0  0  0
  3  2  1  0  0  0  0
  5  4  1  6  0  0  0
  5  2  1  0  0  0  0
  6 11  1  0  0  0  0
  6 14  1  0  0  0  0
  7  8  1  0  0  0  0
  8  9  1  0  0  0  0
  9 11  2  0  0  0  0
 10 13  1  0  0  0  0
 11  5  1  0  0  0  0
 12  6  2  0  0  0  0
 13  8  2  0  0  0  0
 13 12  1  0  0  0  0
 15 16  1  0  0  0  0
 15 12  1  0  0  0  0
 16 20  1  0  0  0  0
 17 18  1  0  0  0  0
 19 21  1  0  0  0  0
 19 16  2  0  0  0  0
 20 18  1  0  0  0  0
 21 22  1  6  0  0  0
 21 17  1  0  0  0  0
 23 25  1  0  0  0  0
 23 22  1  0  0  0  0
 25 24  2  1  0  0  0
 25 27  1  0  0  0  0
 27 26  1  0  0  0  0
 28 29  1  0  0  0  0
 30 29  1  6  0  0  0
 30 36  1  0  0  0  0
 31 34  1  0  0  0  0
 32 30  1  0  0  0  0
 33 32  1  0  0  0  0
 35 33  1  6  0  0  0
 35 31  1  0  0  0  0
 36 34  1  0  0  0  0
 37 38  1  0  0  0  0
 38 41  1  0  0  0  0
 39 41  1  0  0  0  0
 40 42  1  6  0  0  0
 40 37  1  0  0  0  0
 40 39  1  0  0  0  0
 41 35  1  0  0  0  0
 41 49  1  1  0  0  0
 42 43  1  0  0  0  0
 44 48  1  6  0  0  0
 44 46  1  0  0  0  0
 44 45  1  0  0  0  0
 45 42  1  0  0  0  0
 46 47  1  0  0  0  0
 47 43  2  0  0  0  0
 49 50  3  0  0  0  0
M  END
>  <MODEL>
2

>  <REMARK>
 VINA RESULT:      -7.2      2.536      5.493
  Name = 
  14 active torsions:
  status: ('A' for Active; 'I' for Inactive)
    1  A    between atoms: C_2  and  S_11
    2  A    between atoms: N_6  and  C_21
    3  A    between atoms: S_11  and  C_36
    4  A    between atoms: C_14  and  C_28
    5  A    between atoms: C_14  and  C_34
    6  A    between atoms: C_15  and  C_24
    7  A    between atoms: C_15  and  C_28
    8  A    between atoms: C_16  and  C_22
    9  A    between atoms: C_16  and  C_50
   10  A    between atoms: C_22  and  S_23
   11  A    between atoms: S_23  and  C_42
   12  A    between atoms: C_33  and  C_34
   13  A    between atoms: C_38  and  C_47
   14  A    between atoms: C_43  and  C_47
                            x       y       z     vdW  Elec       q    Type
                         _______ _______ _______ _____ _____    ______ ____

>  <TORSDO>
F 14

$$$$
=
 OpenBabel11062414283D

 50 54  0  0  1  0  0  0  0  0999 V2000
  187.0830  177.9210  139.0970 C   0  0  0  0  0  1  0  0  0  0  0  0
  188.5370  177.8600  138.6480 C   0  0  2  0  0  0  0  0  0  0  0  0
  189.0740  179.2120  138.6480 N   0  0  0  0  0  1  0  0  0  0  0  0
  189.9280  176.9440  136.8810 O   0  0  0  0  0  1  0  0  0  0  0  0
  188.6160  177.3020  137.2130 C   0  0  1  0  0  3  0  0  0  0  0  0
  186.3810  176.4320  136.4380 C   0  0  0  0  0  0  0  0  0  0  0  0
  187.6730  172.3820  137.0340 C   0  0  0  0  0  1  0  0  0  0  0  0
  187.2090  173.7810  136.8210 C   0  0  0  0  0  0  0  0  0  0  0  0
  188.0760  174.8370  137.1110 C   0  0  0  0  0  3  0  0  0  0  0  0
  185.0600  172.9950  136.0270 O   0  0  0  0  0  1  0  0  0  0  0  0
  187.6720  176.1650  136.9210 C   0  0  0  0  0  0  0  0  0  0  0  0
  185.5080  175.3740  136.1350 C   0  0  0  0  0  0  0  0  0  0  0  0
  185.9230  174.0460  136.3270 C   0  0  0  0  0  0  0  0  0  0  0  0
  185.9810  177.7160  136.2530 F   0  0  0  0  0  0  0  0  0  0  0  0
  183.8630  175.7260  135.4960 S   0  0  0  0  0  0  0  0  0  0  0  0
  183.2570  176.2800  137.0890 C   0  0  0  0  0  0  0  0  0  0  0  0
  182.9410  177.2360  139.7200 C   0  0  0  0  0  2  0  0  0  0  0  0
  182.4420  175.8310  139.4420 C   0  0  0  0  0  2  0  0  0  0  0  0
  183.0650  177.5440  137.2830 N   0  0  0  0  0  0  0  0  0  0  0  0
  183.1320  175.2690  138.2050 C   0  0  0  0  0  2  0  0  0  0  0  0
  182.5650  178.1030  138.5240 C   0  0  2  0  0  3  0  0  0  0  0  0
  183.0920  179.5190  138.6970 C   0  0  0  0  0  2  0  0  0  0  0  0
  181.9500  180.5050  138.8880 C   0  0  0  0  0  2  0  0  0  0  0  0
  180.9810  180.6470  136.4650 O   0  0  0  0  0  0  0  0  0  0  0  0
  180.5660  180.0820  137.8150 S   0  0  2  0  0  0  0  0  0  0  0  0
  179.6710  181.8930  139.4800 O   0  0  0  0  0  1  0  0  0  0  0  0
  179.2590  181.2000  138.3450 C   0  0  0  0  0  2  0  0  0  0  0  0
  189.3440  176.9840  139.6150 C   0  0  0  0  0  2  0  0  0  0  0  0
  189.6850  177.7010  140.9190 C   0  0  0  0  0  2  0  0  0  0  0  0
  189.8000  176.7120  142.0680 C   0  0  2  0  0  3  0  0  0  0  0  0
  190.2380  177.1360  145.3600 C   0  0  0  0  0  2  0  0  0  0  0  0
  188.4450  176.5910  142.7760 C   0  0  0  0  0  2  0  0  0  0  0  0
  188.2330  177.6340  143.8680 C   0  0  0  0  0  2  0  0  0  0  0  0
  190.9650  176.3200  144.2990 C   0  0  0  0  0  2  0  0  0  0  0  0
  188.7080  177.0750  145.2110 C   0  0  2  0  0  3  0  0  0  0  0  0
  190.9740  177.0890  142.9870 C   0  0  0  0  0  2  0  0  0  0  0  0
  185.7200  177.0340  146.5280 C   0  0  0  0  0  2  0  0  0  0  0  0
  187.0710  176.7230  147.0710 C   0  0  0  0  0  2  0  0  0  0  0  0
  187.1890  178.8110  145.9260 O   0  0  0  0  0  0  0  0  0  0  0  0
  185.8390  178.4940  146.1700 C   0  0  1  0  0  3  0  0  0  0  0  0
  187.9770  177.7380  146.3990 C   0  0  2  0  0  0  0  0  0  0  0  0
  185.0260  178.8090  145.0010 N   0  0  0  0  0  0  0  0  0  0  0  0
  183.6020  178.6520  145.0930 C   0  0  0  0  0  3  0  0  0  0  0  0
  184.8210  178.9430  142.5540 C   0  0  1  0  0  3  0  0  0  0  0  0
  185.6540  179.3210  143.7760 C   0  0  0  0  0  2  0  0  0  0  0  0
  183.3880  179.4320  142.7540 C   0  0  0  0  0  2  0  0  0  0  0  0
  182.8170  178.9120  144.0440 C   0  0  0  0  0  3  0  0  0  0  0  0
  185.3650  179.5360  141.4170 O   0  0  0  0  0  1  0  0  0  0  0  0
  188.9320  178.2540  147.3940 C   0  0  0  0  0  0  0  0  0  0  0  0
  189.6840  178.6600  148.1760 N   0  0  0  0  0  0  0  0  0  0  0  0
  2  3  1  0  0  0  0
  2  1  1  1  0  0  0
  2 28  1  0  0  0  0
  5  4  1  1  0  0  0
  5  2  1  0  0  0  0
  6 11  1  0  0  0  0
  8  7  1  0  0  0  0
  8  9  1  0  0  0  0
 10 13  1  0  0  0  0
 11  9  2  0  0  0  0
 11  5  1  0  0  0  0
 12 13  1  0  0  0  0
 12  6  2  0  0  0  0
 13  8  2  0  0  0  0
 14  6  1  0  0  0  0
 15 12  1  0  0  0  0
 15 16  1  0  0  0  0
 16 19  2  0  0  0  0
 16 20  1  0  0  0  0
 18 17  1  0  0  0  0
 19 21  1  0  0  0  0
 20 18  1  0  0  0  0
 21 22  1  1  0  0  0
 21 17  1  0  0  0  0
 22 23  1  0  0  0  0
 25 24  2  6  0  0  0
 25 27  1  0  0  0  0
 25 23  1  0  0  0  0
 27 26  1  0  0  0  0
 28 29  1  0  0  0  0
 30 29  1  6  0  0  0
 30 32  1  0  0  0  0
 30 36  1  0  0  0  0
 32 33  1  0  0  0  0
 34 31  1  0  0  0  0
 35 33  1  6  0  0  0
 35 31  1  0  0  0  0
 35 41  1  0  0  0  0
 36 34  1  0  0  0  0
 37 38  1  0  0  0  0
 39 40  1  0  0  0  0
 39 41  1  0  0  0  0
 40 42  1  6  0  0  0
 40 37  1  0  0  0  0
 41 38  1  0  0  0  0
 41 49  1  1  0  0  0
 42 43  1  0  0  0  0
 44 48  1  6  0  0  0
 44 46  1  0  0  0  0
 44 45  1  0  0  0  0
 45 42  1  0  0  0  0
 46 47  1  0  0  0  0
 47 43  2  0  0  0  0
 49 50  3  0  0  0  0
M  END
>  <MODEL>
3

>  <REMARK>
 VINA RESULT:      -7.2      2.660      7.032
  Name = 
  14 active torsions:
  status: ('A' for Active; 'I' for Inactive)
    1  A    between atoms: C_2  and  S_11
    2  A    between atoms: N_6  and  C_21
    3  A    between atoms: S_11  and  C_36
    4  A    between atoms: C_14  and  C_28
    5  A    between atoms: C_14  and  C_34
    6  A    between atoms: C_15  and  C_24
    7  A    between atoms: C_15  and  C_28
    8  A    between atoms: C_16  and  C_22
    9  A    between atoms: C_16  and  C_50
   10  A    between atoms: C_22  and  S_23
   11  A    between atoms: S_23  and  C_42
   12  A    between atoms: C_33  and  C_34
   13  A    between atoms: C_38  and  C_47
   14  A    between atoms: C_43  and  C_47
                            x       y       z     vdW  Elec       q    Type
                         _______ _______ _______ _____ _____    ______ ____

>  <TORSDO>
F 14

$$$$
=
 OpenBabel11062414283D

 50 54  0  0  1  0  0  0  0  0999 V2000
  183.5710  179.4170  139.4710 C   0  0  0  0  0  1  0  0  0  0  0  0
  183.0440  178.0610  139.9180 C   0  0  2  0  0  0  0  0  0  0  0  0
  183.6350  177.0360  139.0700 N   0  0  0  0  0  1  0  0  0  0  0  0
  181.0780  178.9710  138.8220 O   0  0  0  0  0  1  0  0  0  0  0  0
  181.5130  178.0130  139.7470 C   0  0  1  0  0  3  0  0  0  0  0  0
  181.0080  176.1970  138.0740 C   0  0  0  0  0  0  0  0  0  0  0  0
  179.3160  173.7330  141.1560 C   0  0  0  0  0  1  0  0  0  0  0  0
  179.9000  174.5740  140.0750 C   0  0  0  0  0  0  0  0  0  0  0  0
  180.3980  175.8400  140.3920 C   0  0  0  0  0  3  0  0  0  0  0  0
  179.4760  172.8420  138.4360 O   0  0  0  0  0  1  0  0  0  0  0  0
  180.9550  176.6570  139.3990 C   0  0  0  0  0  0  0  0  0  0  0  0
  180.5180  174.9210  137.7500 C   0  0  0  0  0  0  0  0  0  0  0  0
  179.9620  174.1090  138.7520 C   0  0  0  0  0  0  0  0  0  0  0  0
  181.5440  176.9840  137.1060 F   0  0  0  0  0  0  0  0  0  0  0  0
  180.6090  174.3310  136.0530 S   0  0  0  0  0  0  0  0  0  0  0  0
  182.1180  173.4100  136.3510 C   0  0  0  0  0  0  0  0  0  0  0  0
  184.5370  171.9800  136.1660 C   0  0  0  0  0  2  0  0  0  0  0  0
  183.3610  171.2490  136.7840 C   0  0  0  0  0  2  0  0  0  0  0  0
  183.2380  174.0510  136.4350 N   0  0  0  0  0  0  0  0  0  0  0  0
  182.0550  171.9010  136.3440 C   0  0  0  0  0  2  0  0  0  0  0  0
  184.5160  173.4130  136.6870 C   0  0  2  0  0  3  0  0  0  0  0  0
  185.6310  174.2330  136.0590 C   0  0  0  0  0  2  0  0  0  0  0  0
  186.1640  175.2680  137.0370 C   0  0  0  0  0  2  0  0  0  0  0  0
  188.3910  176.4980  136.4410 O   0  0  0  0  0  0  0  0  0  0  0  0
  186.9050  176.6500  136.1510 S   0  0  2  0  0  0  0  0  0  0  0  0
  187.3890  179.0880  136.9700 O   0  0  0  0  0  1  0  0  0  0  0  0
  186.4380  178.0840  137.1310 C   0  0  0  0  0  2  0  0  0  0  0  0
  183.4340  177.8080  141.3810 C   0  0  0  0  0  2  0  0  0  0  0  0
  183.1020  178.9860  142.2940 C   0  0  0  0  0  2  0  0  0  0  0  0
  184.2520  179.2770  143.2440 C   0  0  2  0  0  3  0  0  0  0  0  0
  186.9520  177.5000  144.1150 C   0  0  0  0  0  2  0  0  0  0  0  0
  185.4620  179.7750  142.4440 C   0  0  0  0  0  2  0  0  0  0  0  0
  186.3510  178.6520  141.9230 C   0  0  0  0  0  2  0  0  0  0  0  0
  185.8410  178.1800  144.9050 C   0  0  0  0  0  2  0  0  0  0  0  0
  187.4550  178.3570  142.9410 C   0  0  2  0  0  3  0  0  0  0  0  0
  184.5310  178.0600  144.1410 C   0  0  0  0  0  2  0  0  0  0  0  0
  189.3080  175.6860  143.2590 C   0  0  0  0  0  2  0  0  0  0  0  0
  188.5330  176.2520  142.1210 C   0  0  0  0  0  2  0  0  0  0  0  0
  189.8400  178.0010  143.0770 O   0  0  0  0  0  0  0  0  0  0  0  0
  190.3330  176.7600  143.5240 C   0  0  1  0  0  3  0  0  0  0  0  0
  188.7080  177.7510  142.2700 C   0  0  2  0  0  0  0  0  0  0  0  0
  190.6580  176.8270  144.9440 N   0  0  0  0  0  0  0  0  0  0  0  0
  191.7610  176.0500  145.4330 C   0  0  0  0  0  3  0  0  0  0  0  0
  189.9070  177.1580  147.2620 C   0  0  1  0  0  3  0  0  0  0  0  0
  189.8990  177.7100  145.8390 C   0  0  0  0  0  2  0  0  0  0  0  0
  191.3510  176.9380  147.7060 C   0  0  0  0  0  2  0  0  0  0  0  0
  192.0870  176.0650  146.7280 C   0  0  0  0  0  3  0  0  0  0  0  0
  189.2860  178.0650  148.1180 O   0  0  0  0  0  1  0  0  0  0  0  0
  188.9370  178.3380  140.9380 C   0  0  0  0  0  0  0  0  0  0  0  0
  189.1170  178.7980  139.8910 N   0  0  0  0  0  0  0  0  0  0  0  0
  2  1  1  6  0  0  0
  2 28  1  0  0  0  0
  3  2  1  0  0  0  0
  5  4  1  6  0  0  0
  5  2  1  0  0  0  0
  6 11  1  0  0  0  0
  8  9  1  0  0  0  0
  8  7  1  0  0  0  0
 10 13  1  0  0  0  0
 11  5  1  0  0  0  0
 11  9  2  0  0  0  0
 12  6  2  0  0  0  0
 12 13  1  0  0  0  0
 13  8  2  0  0  0  0
 14  6  1  0  0  0  0
 15 16  1  0  0  0  0
 15 12  1  0  0  0  0
 16 19  2  0  0  0  0
 17 21  1  0  0  0  0
 17 18  1  0  0  0  0
 19 21  1  0  0  0  0
 20 16  1  0  0  0  0
 20 18  1  0  0  0  0
 21 22  1  6  0  0  0
 22 23  1  0  0  0  0
 25 24  2  1  0  0  0
 25 23  1  0  0  0  0
 25 27  1  0  0  0  0
 26 27  1  0  0  0  0
 28 29  1  0  0  0  0
 30 29  1  6  0  0  0
 30 36  1  0  0  0  0
 31 34  1  0  0  0  0
 32 30  1  0  0  0  0
 33 32  1  0  0  0  0
 35 33  1  6  0  0  0
 35 31  1  0  0  0  0
 36 34  1  0  0  0  0
 38 41  1  0  0  0  0
 38 37  1  0  0  0  0
 39 40  1  0  0  0  0
 40 37  1  1  0  0  0
 40 42  1  0  0  0  0
 41 49  1  6  0  0  0
 41 35  1  0  0  0  0
 41 39  1  0  0  0  0
 42 43  1  0  0  0  0
 42 45  1  0  0  0  0
 43 47  2  0  0  0  0
 44 46  1  0  0  0  0
 44 48  1  1  0  0  0
 45 44  1  0  0  0  0
 47 46  1  0  0  0  0
 50 49  3  0  0  0  0
M  END
>  <MODEL>
4

>  <REMARK>
 VINA RESULT:      -7.2      2.361      3.072
  Name = 
  14 active torsions:
  status: ('A' for Active; 'I' for Inactive)
    1  A    between atoms: C_2  and  S_11
    2  A    between atoms: N_6  and  C_21
    3  A    between atoms: S_11  and  C_36
    4  A    between atoms: C_14  and  C_28
    5  A    between atoms: C_14  and  C_34
    6  A    between atoms: C_15  and  C_24
    7  A    between atoms: C_15  and  C_28
    8  A    between atoms: C_16  and  C_22
    9  A    between atoms: C_16  and  C_50
   10  A    between atoms: C_22  and  S_23
   11  A    between atoms: S_23  and  C_42
   12  A    between atoms: C_33  and  C_34
   13  A    between atoms: C_38  and  C_47
   14  A    between atoms: C_43  and  C_47
                            x       y       z     vdW  Elec       q    Type
                         _______ _______ _______ _____ _____    ______ ____

>  <TORSDO>
F 14

$$$$
=
 OpenBabel11062414283D

 50 54  0  0  1  0  0  0  0  0999 V2000
  189.7980  178.5600  142.7520 C   0  0  0  0  0  1  0  0  0  0  0  0
  188.7120  177.6600  142.1780 C   0  0  2  0  0  0  0  0  0  0  0  0
  187.4990  178.4480  142.0210 N   0  0  0  0  0  1  0  0  0  0  0  0
  189.3270  175.4510  142.9790 O   0  0  0  0  0  1  0  0  0  0  0  0
  188.4210  176.5040  143.1560 C   0  0  1  0  0  3  0  0  0  0  0  0
  187.1170  177.1910  145.2010 C   0  0  0  0  0  0  0  0  0  0  0  0
  190.7240  177.3850  147.5210 C   0  0  0  0  0  1  0  0  0  0  0  0
  189.4630  177.3220  146.7310 C   0  0  0  0  0  0  0  0  0  0  0  0
  189.5230  176.9730  145.3790 C   0  0  0  0  0  3  0  0  0  0  0  0
  188.1590  177.9360  148.6770 O   0  0  0  0  0  1  0  0  0  0  0  0
  188.3570  176.9030  144.6080 C   0  0  0  0  0  0  0  0  0  0  0  0
  187.0480  177.5320  146.5610 C   0  0  0  0  0  0  0  0  0  0  0  0
  188.2230  177.5990  147.3280 C   0  0  0  0  0  0  0  0  0  0  0  0
  185.9810  177.1270  144.4590 F   0  0  0  0  0  0  0  0  0  0  0  0
  185.4530  177.8790  147.3180 S   0  0  0  0  0  0  0  0  0  0  0  0
  184.8610  178.7820  145.8880 C   0  0  0  0  0  0  0  0  0  0  0  0
  184.1200  179.6640  143.3170 C   0  0  0  0  0  2  0  0  0  0  0  0
  185.1740  180.4820  144.0400 C   0  0  0  0  0  2  0  0  0  0  0  0
  183.6510  178.5840  145.4760 N   0  0  0  0  0  0  0  0  0  0  0  0
  185.8420  179.6340  145.1170 C   0  0  0  0  0  2  0  0  0  0  0  0
  183.0620  179.2680  144.3410 C   0  0  2  0  0  3  0  0  0  0  0  0
  182.0000  178.3860  143.7060 C   0  0  0  0  0  2  0  0  0  0  0  0
  180.6750  179.1230  143.5930 C   0  0  0  0  0  2  0  0  0  0  0  0
  179.6790  180.9320  141.9920 O   0  0  0  0  0  0  0  0  0  0  0  0
  180.3460  179.5690  141.8800 S   0  0  2  0  0  0  0  0  0  0  0  0
  179.3070  177.1700  141.7410 O   0  0  0  0  0  1  0  0  0  0  0  0
  178.9890  178.4850  141.4100 C   0  0  0  0  0  2  0  0  0  0  0  0
  189.1550  177.1160  140.8130 C   0  0  0  0  0  2  0  0  0  0  0  0
  189.5020  178.2220  139.8200 C   0  0  0  0  0  2  0  0  0  0  0  0
  189.8080  177.6430  138.4470 C   0  0  2  0  0  3  0  0  0  0  0  0
  188.8710  174.8010  136.9480 C   0  0  0  0  0  2  0  0  0  0  0  0
  188.6400  177.9370  137.4980 C   0  0  0  0  0  2  0  0  0  0  0  0
  187.5360  176.8870  137.5480 C   0  0  0  0  0  2  0  0  0  0  0  0
  190.2210  175.4540  137.2130 C   0  0  0  0  0  2  0  0  0  0  0  0
  187.8030  175.8100  136.4940 C   0  0  2  0  0  3  0  0  0  0  0  0
  190.1860  176.1570  138.5610 C   0  0  0  0  0  2  0  0  0  0  0  0
  184.7990  176.6960  135.5690 C   0  0  0  0  0  2  0  0  0  0  0  0
  185.8710  175.9050  134.9050 C   0  0  0  0  0  2  0  0  0  0  0  0
  185.5900  175.0700  137.1200 O   0  0  0  0  0  0  0  0  0  0  0  0
  184.4730  175.8560  136.7780 C   0  0  1  0  0  3  0  0  0  0  0  0
  186.4990  175.1170  136.0390 C   0  0  2  0  0  0  0  0  0  0  0  0
  184.0830  176.6970  137.9040 N   0  0  0  0  0  0  0  0  0  0  0  0
  183.0770  176.2140  138.8060 C   0  0  0  0  0  3  0  0  0  0  0  0
  183.8030  178.9500  138.8490 C   0  0  1  0  0  3  0  0  0  0  0  0
  184.7450  177.9890  138.1290 C   0  0  0  0  0  2  0  0  0  0  0  0
  183.3000  178.2920  140.1320 C   0  0  0  0  0  2  0  0  0  0  0  0
  182.6750  176.9550  139.8420 C   0  0  0  0  0  3  0  0  0  0  0  0
  184.4820  180.1250  139.1600 O   0  0  0  0  0  1  0  0  0  0  0  0
  186.7570  173.7430  135.5770 C   0  0  0  0  0  0  0  0  0  0  0  0
  186.9600  172.6630  135.2120 N   0  0  0  0  0  0  0  0  0  0  0  0
  2  1  1  1  0  0  0
  2  5  1  0  0  0  0
  3  2  1  0  0  0  0
  5  4  1  1  0  0  0
  5 11  1  0  0  0  0
  6 12  1  0  0  0  0
  8 13  1  0  0  0  0
  8  7  1  0  0  0  0
  9  8  2  0  0  0  0
 11  6  2  0  0  0  0
 11  9  1  0  0  0  0
 12 15  1  0  0  0  0
 12 13  2  0  0  0  0
 13 10  1  0  0  0  0
 14  6  1  0  0  0  0
 16 15  1  0  0  0  0
 17 18  1  0  0  0  0
 17 21  1  0  0  0  0
 18 20  1  0  0  0  0
 19 16  2  0  0  0  0
 20 16  1  0  0  0  0
 21 22  1  6  0  0  0
 21 19  1  0  0  0  0
 23 22  1  0  0  0  0
 25 24  2  1  0  0  0
 25 23  1  0  0  0  0
 27 26  1  0  0  0  0
 27 25  1  0  0  0  0
 28  2  1  0  0  0  0
 29 28  1  0  0  0  0
 30 36  1  0  0  0  0
 30 29  1  1  0  0  0
 31 34  1  0  0  0  0
 32 33  1  0  0  0  0
 32 30  1  0  0  0  0
 34 36  1  0  0  0  0
 35 31  1  1  0  0  0
 35 33  1  0  0  0  0
 38 37  1  0  0  0  0
 38 41  1  0  0  0  0
 40 37  1  6  0  0  0
 40 39  1  0  0  0  0
 40 42  1  0  0  0  0
 41 49  1  6  0  0  0
 41 35  1  0  0  0  0
 41 39  1  0  0  0  0
 42 45  1  0  0  0  0
 42 43  1  0  0  0  0
 43 47  2  0  0  0  0
 44 48  1  1  0  0  0
 44 46  1  0  0  0  0
 45 44  1  0  0  0  0
 47 46  1  0  0  0  0
 50 49  3  0  0  0  0
M  END
>  <MODEL>
5

>  <REMARK>
 VINA RESULT:      -7.0      2.960      9.758
  Name = 
  14 active torsions:
  status: ('A' for Active; 'I' for Inactive)
    1  A    between atoms: C_2  and  S_11
    2  A    between atoms: N_6  and  C_21
    3  A    between atoms: S_11  and  C_36
    4  A    between atoms: C_14  and  C_28
    5  A    between atoms: C_14  and  C_34
    6  A    between atoms: C_15  and  C_24
    7  A    between atoms: C_15  and  C_28
    8  A    between atoms: C_16  and  C_22
    9  A    between atoms: C_16  and  C_50
   10  A    between atoms: C_22  and  S_23
   11  A    between atoms: S_23  and  C_42
   12  A    between atoms: C_33  and  C_34
   13  A    between atoms: C_38  and  C_47
   14  A    between atoms: C_43  and  C_47
                            x       y       z     vdW  Elec       q    Type
                         _______ _______ _______ _____ _____    ______ ____

>  <TORSDO>
F 14

$$$$
=
 OpenBabel11062414283D

 50 54  0  0  1  0  0  0  0  0999 V2000
  180.5230  177.6810  142.8420 C   0  0  0  0  0  1  0  0  0  0  0  0
  181.0000  179.0130  142.2790 C   0  0  2  0  0  0  0  0  0  0  0  0
  181.3050  179.8980  143.3930 N   0  0  0  0  0  1  0  0  0  0  0  0
  179.4820  180.8850  141.9780 O   0  0  0  0  0  1  0  0  0  0  0  0
  179.8790  179.6550  141.4380 C   0  0  1  0  0  3  0  0  0  0  0  0
  180.0730  178.6960  139.1150 C   0  0  0  0  0  0  0  0  0  0  0  0
  181.2680  182.5170  137.5630 C   0  0  0  0  0  1  0  0  0  0  0  0
  180.8540  181.1850  138.0850 C   0  0  0  0  0  0  0  0  0  0  0  0
  180.5840  181.0410  139.4480 C   0  0  0  0  0  3  0  0  0  0  0  0
  180.9840  180.2250  135.8650 O   0  0  0  0  0  1  0  0  0  0  0  0
  180.1920  179.8030  139.9710 C   0  0  0  0  0  0  0  0  0  0  0  0
  180.3330  178.8360  137.7420 C   0  0  0  0  0  0  0  0  0  0  0  0
  180.7250  180.0820  137.2260 C   0  0  0  0  0  0  0  0  0  0  0  0
  179.6950  177.4920  139.6150 F   0  0  0  0  0  0  0  0  0  0  0  0
  180.1580  177.4180  136.6490 S   0  0  0  0  0  0  0  0  0  0  0  0
  181.8050  176.8110  137.0130 C   0  0  0  0  0  0  0  0  0  0  0  0
  184.2640  175.4390  137.0980 C   0  0  0  0  0  2  0  0  0  0  0  0
  183.4080  175.3790  138.3490 C   0  0  0  0  0  2  0  0  0  0  0  0
  182.8070  177.2670  136.3340 N   0  0  0  0  0  0  0  0  0  0  0  0
  181.9540  175.6750  137.9980 C   0  0  0  0  0  2  0  0  0  0  0  0
  184.1820  176.8590  136.5510 C   0  0  2  0  0  3  0  0  0  0  0  0
  184.9640  176.9840  135.2530 C   0  0  0  0  0  2  0  0  0  0  0  0
  186.3600  177.5310  135.5090 C   0  0  0  0  0  2  0  0  0  0  0  0
  187.7440  175.4130  136.1600 O   0  0  0  0  0  0  0  0  0  0  0  0
  187.6080  176.3500  134.9690 S   0  0  2  0  0  0  0  0  0  0  0  0
  190.2250  176.4290  134.9470 O   0  0  0  0  0  1  0  0  0  0  0  0
  189.1380  177.2960  135.0130 C   0  0  0  0  0  2  0  0  0  0  0  0
  182.2590  178.7990  141.4300 C   0  0  0  0  0  2  0  0  0  0  0  0
  183.3510  178.0320  142.1740 C   0  0  0  0  0  2  0  0  0  0  0  0
  184.1440  178.9600  143.0810 C   0  0  2  0  0  3  0  0  0  0  0  0
  186.2100  178.3660  145.6460 C   0  0  0  0  0  2  0  0  0  0  0  0
  185.5940  179.0390  142.5880 C   0  0  0  0  0  2  0  0  0  0  0  0
  186.4890  177.9400  143.1500 C   0  0  0  0  0  2  0  0  0  0  0  0
  184.9750  179.2390  145.4730 C   0  0  0  0  0  2  0  0  0  0  0  0
  187.1570  178.4300  144.4360 C   0  0  2  0  0  3  0  0  0  0  0  0
  183.9870  178.5390  144.5520 C   0  0  0  0  0  2  0  0  0  0  0  0
  190.2530  178.6330  143.4150 C   0  0  0  0  0  2  0  0  0  0  0  0
  189.6220  178.7160  144.7610 C   0  0  0  0  0  2  0  0  0  0  0  0
  188.7520  176.7960  143.6480 O   0  0  0  0  0  0  0  0  0  0  0  0
  189.9160  177.2280  142.9820 C   0  0  1  0  0  3  0  0  0  0  0  0
  188.4950  177.7030  144.7000 C   0  0  2  0  0  0  0  0  0  0  0  0
  189.7270  177.1620  141.5380 N   0  0  0  0  0  0  0  0  0  0  0  0
  190.7050  176.4700  140.7480 C   0  0  0  0  0  3  0  0  0  0  0  0
  188.8350  178.1780  139.4840 C   0  0  1  0  0  3  0  0  0  0  0  0
  188.5330  177.7520  140.9180 C   0  0  0  0  0  2  0  0  0  0  0  0
  189.3940  176.9840  138.7130 C   0  0  0  0  0  2  0  0  0  0  0  0
  190.5840  176.3970  139.4200 C   0  0  0  0  0  3  0  0  0  0  0  0
  187.6650  178.6240  138.8730 O   0  0  0  0  0  1  0  0  0  0  0  0
  188.4570  176.9570  145.9690 C   0  0  0  0  0  0  0  0  0  0  0  0
  188.4260  176.3710  146.9680 N   0  0  0  0  0  0  0  0  0  0  0  0
  2  1  1  1  0  0  0
  2  3  1  0  0  0  0
  5  4  1  1  0  0  0
  5  2  1  0  0  0  0
  6 14  1  0  0  0  0
  6 11  1  0  0  0  0
  7  8  1  0  0  0  0
  8  9  1  0  0  0  0
  9 11  2  0  0  0  0
 10 13  1  0  0  0  0
 11  5  1  0  0  0  0
 12  6  2  0  0  0  0
 13 12  1  0  0  0  0
 13  8  2  0  0  0  0
 15 16  1  0  0  0  0
 15 12  1  0  0  0  0
 16 20  1  0  0  0  0
 17 18  1  0  0  0  0
 19 21  1  0  0  0  0
 19 16  2  0  0  0  0
 20 18  1  0  0  0  0
 21 22  1  6  0  0  0
 21 17  1  0  0  0  0
 22 23  1  0  0  0  0
 25 27  1  0  0  0  0
 25 23  1  0  0  0  0
 25 24  2  1  0  0  0
 26 27  1  0  0  0  0
 28 29  1  0  0  0  0
 28  2  1  0  0  0  0
 30 29  1  6  0  0  0
 30 36  1  0  0  0  0
 32 30  1  0  0  0  0
 32 33  1  0  0  0  0
 34 31  1  0  0  0  0
 35 33  1  6  0  0  0
 35 41  1  0  0  0  0
 35 31  1  0  0  0  0
 36 34  1  0  0  0  0
 37 38  1  0  0  0  0
 39 41  1  0  0  0  0
 40 42  1  6  0  0  0
 40 37  1  0  0  0  0
 40 39  1  0  0  0  0
 41 38  1  0  0  0  0
 41 49  1  1  0  0  0
 43 42  1  0  0  0  0
 44 48  1  6  0  0  0
 44 45  1  0  0  0  0
 45 42  1  0  0  0  0
 46 47  1  0  0  0  0
 46 44  1  0  0  0  0
 47 43  2  0  0  0  0
 49 50  3  0  0  0  0
M  END
>  <MODEL>
6

>  <REMARK>
 VINA RESULT:      -7.0      2.329      4.082
  Name = 
  14 active torsions:
  status: ('A' for Active; 'I' for Inactive)
    1  A    between atoms: C_2  and  S_11
    2  A    between atoms: N_6  and  C_21
    3  A    between atoms: S_11  and  C_36
    4  A    between atoms: C_14  and  C_28
    5  A    between atoms: C_14  and  C_34
    6  A    between atoms: C_15  and  C_24
    7  A    between atoms: C_15  and  C_28
    8  A    between atoms: C_16  and  C_22
    9  A    between atoms: C_16  and  C_50
   10  A    between atoms: C_22  and  S_23
   11  A    between atoms: S_23  and  C_42
   12  A    between atoms: C_33  and  C_34
   13  A    between atoms: C_38  and  C_47
   14  A    between atoms: C_43  and  C_47
                            x       y       z     vdW  Elec       q    Type
                         _______ _______ _______ _____ _____    ______ ____

>  <TORSDO>
F 14

$$$$
=
 OpenBabel11062414283D

 50 54  0  0  1  0  0  0  0  0999 V2000
  188.8870  177.8600  145.0580 C   0  0  0  0  0  1  0  0  0  0  0  0
  189.1940  177.8620  143.5660 C   0  0  2  0  0  0  0  0  0  0  0  0
  189.2040  179.2410  143.1020 N   0  0  0  0  0  1  0  0  0  0  0  0
  187.9570  175.7910  143.2880 O   0  0  0  0  0  1  0  0  0  0  0  0
  188.0910  177.0980  142.8060 C   0  0  1  0  0  3  0  0  0  0  0  0
  186.2710  178.3320  141.5730 C   0  0  0  0  0  0  0  0  0  0  0  0
  183.9060  178.5590  145.1490 C   0  0  0  0  0  1  0  0  0  0  0  0
  184.7130  178.4880  143.8990 C   0  0  0  0  0  0  0  0  0  0  0  0
  185.9650  177.8700  143.9320 C   0  0  0  0  0  3  0  0  0  0  0  0
  182.9760  179.6320  142.6580 O   0  0  0  0  0  1  0  0  0  0  0  0
  186.7500  177.7860  142.7750 C   0  0  0  0  0  0  0  0  0  0  0  0
  185.0090  178.9450  141.5310 C   0  0  0  0  0  0  0  0  0  0  0  0
  184.2290  179.0250  142.6960 C   0  0  0  0  0  0  0  0  0  0  0  0
  187.0270  178.2550  140.4470 F   0  0  0  0  0  0  0  0  0  0  0  0
  184.3940  179.6240  139.9820 S   0  0  0  0  0  0  0  0  0  0  0  0
  183.8740  178.0200  139.3730 C   0  0  0  0  0  0  0  0  0  0  0  0
  182.6960  175.8580  138.0040 C   0  0  0  0  0  2  0  0  0  0  0  0
  182.4090  175.9600  139.4900 C   0  0  0  0  0  2  0  0  0  0  0  0
  184.4890  177.5030  138.3600 N   0  0  0  0  0  0  0  0  0  0  0  0
  182.6360  177.3900  139.9660 C   0  0  0  0  0  2  0  0  0  0  0  0
  184.1650  176.2080  137.7930 C   0  0  2  0  0  3  0  0  0  0  0  0
  184.5160  176.1940  136.3140 C   0  0  0  0  0  2  0  0  0  0  0  0
  185.2810  174.9320  135.9470 C   0  0  0  0  0  2  0  0  0  0  0  0
  187.6140  174.8400  137.1210 O   0  0  0  0  0  0  0  0  0  0  0  0
  187.0400  175.2860  135.7840 S   0  0  2  0  0  0  0  0  0  0  0  0
  187.9370  177.4540  136.9450 O   0  0  0  0  0  1  0  0  0  0  0  0
  187.1240  177.0810  135.8790 C   0  0  0  0  0  2  0  0  0  0  0  0
  190.5660  177.2230  143.3170 C   0  0  0  0  0  2  0  0  0  0  0  0
  190.6370  176.4730  141.9880 C   0  0  0  0  0  2  0  0  0  0  0  0
  191.2160  177.3580  140.8960 C   0  0  2  0  0  3  0  0  0  0  0  0
  193.1670  176.6860  138.2600 C   0  0  0  0  0  2  0  0  0  0  0  0
  190.3450  177.2540  139.6390 C   0  0  0  0  0  2  0  0  0  0  0  0
  190.7310  176.0970  138.7240 C   0  0  0  0  0  2  0  0  0  0  0  0
  193.2630  177.6750  139.4130 C   0  0  0  0  0  2  0  0  0  0  0  0
  191.7450  176.5810  137.6840 C   0  0  2  0  0  3  0  0  0  0  0  0
  192.7040  177.0370  140.6760 C   0  0  0  0  0  2  0  0  0  0  0  0
  192.4160  173.5110  136.7970 C   0  0  0  0  0  2  0  0  0  0  0  0
  191.1820  174.3400  136.7210 C   0  0  0  0  0  2  0  0  0  0  0  0
  192.9970  175.6210  135.8550 O   0  0  0  0  0  0  0  0  0  0  0  0
  193.3730  174.2650  135.9080 C   0  0  1  0  0  3  0  0  0  0  0  0
  191.6960  175.7300  136.3950 C   0  0  2  0  0  0  0  0  0  0  0  0
  194.7420  174.1380  136.3940 N   0  0  0  0  0  0  0  0  0  0  0  0
  194.9960  173.2760  137.5120 C   0  0  0  0  0  3  0  0  0  0  0  0
  196.9670  175.1380  136.7010 C   0  0  1  0  0  3  0  0  0  0  0  0
  195.8380  174.8440  135.7170 C   0  0  0  0  0  2  0  0  0  0  0  0
  197.4020  173.8370  137.3700 C   0  0  0  0  0  2  0  0  0  0  0  0
  196.2300  173.1400  138.0040 C   0  0  0  0  0  3  0  0  0  0  0  0
  198.0450  175.6990  136.0200 O   0  0  0  0  0  1  0  0  0  0  0  0
  190.8120  176.3390  135.3870 C   0  0  0  0  0  0  0  0  0  0  0  0
  190.1180  176.8180  134.5940 N   0  0  0  0  0  0  0  0  0  0  0  0
  2  1  1  1  0  0  0
  3  2  1  0  0  0  0
  5  4  1  1  0  0  0
  5  2  1  0  0  0  0
  6 11  1  0  0  0  0
  8  9  1  0  0  0  0
  8  7  1  0  0  0  0
 10 13  1  0  0  0  0
 11  5  1  0  0  0  0
 11  9  2  0  0  0  0
 12  6  2  0  0  0  0
 12 13  1  0  0  0  0
 13  8  2  0  0  0  0
 14  6  1  0  0  0  0
 15 12  1  0  0  0  0
 16 20  1  0  0  0  0
 16 15  1  0  0  0  0
 17 18  1  0  0  0  0
 18 20  1  0  0  0  0
 19 16  2  0  0  0  0
 21 22  1  6  0  0  0
 21 17  1  0  0  0  0
 21 19  1  0  0  0  0
 23 22  1  0  0  0  0
 25 27  1  0  0  0  0
 25 23  1  0  0  0  0
 25 24  2  1  0  0  0
 27 26  1  0  0  0  0
 28  2  1  0  0  0  0
 29 28  1  0  0  0  0
 30 29  1  1  0  0  0
 31 34  1  0  0  0  0
 32 30  1  0  0  0  0
 33 32  1  0  0  0  0
 34 36  1  0  0  0  0
 35 31  1  1  0  0  0
 35 33  1  0  0  0  0
 36 30  1  0  0  0  0
 38 37  1  0  0  0  0
 39 40  1  0  0  0  0
 39 41  1  0  0  0  0
 40 42  1  1  0  0  0
 40 37  1  0  0  0  0
 41 49  1  6  0  0  0
 41 38  1  0  0  0  0
 41 35  1  0  0  0  0
 42 43  1  0  0  0  0
 43 47  2  0  0  0  0
 44 48  1  6  0  0  0
 44 46  1  0  0  0  0
 45 42  1  0  0  0  0
 45 44  1  0  0  0  0
 46 47  1  0  0  0  0
 50 49  3  0  0  0  0
M  END
>  <MODEL>
7

>  <REMARK>
 VINA RESULT:      -7.0      3.468      7.866
  Name = 
  14 active torsions:
  status: ('A' for Active; 'I' for Inactive)
    1  A    between atoms: C_2  and  S_11
    2  A    between atoms: N_6  and  C_21
    3  A    between atoms: S_11  and  C_36
    4  A    between atoms: C_14  and  C_28
    5  A    between atoms: C_14  and  C_34
    6  A    between atoms: C_15  and  C_24
    7  A    between atoms: C_15  and  C_28
    8  A    between atoms: C_16  and  C_22
    9  A    between atoms: C_16  and  C_50
   10  A    between atoms: C_22  and  S_23
   11  A    between atoms: S_23  and  C_42
   12  A    between atoms: C_33  and  C_34
   13  A    between atoms: C_38  and  C_47
   14  A    between atoms: C_43  and  C_47
                            x       y       z     vdW  Elec       q    Type
                         _______ _______ _______ _____ _____    ______ ____

>  <TORSDO>
F 14

$$$$
=
 OpenBabel11062414283D

 50 54  0  0  1  0  0  0  0  0999 V2000
  180.4730  177.8970  143.0460 C   0  0  0  0  0  1  0  0  0  0  0  0
  181.0820  179.1730  142.4790 C   0  0  2  0  0  0  0  0  0  0  0  0
  180.7990  180.2640  143.4000 N   0  0  0  0  0  1  0  0  0  0  0  0
  180.2440  180.8800  140.9690 O   0  0  0  0  0  1  0  0  0  0  0  0
  180.4330  179.5010  141.1200 C   0  0  1  0  0  3  0  0  0  0  0  0
  180.4190  178.3600  138.8720 C   0  0  0  0  0  0  0  0  0  0  0  0
  184.7020  178.5770  138.6570 C   0  0  0  0  0  1  0  0  0  0  0  0
  183.2160  178.4940  138.7150 C   0  0  0  0  0  0  0  0  0  0  0  0
  182.5490  178.9980  139.8350 C   0  0  0  0  0  3  0  0  0  0  0  0
  183.1450  177.4340  136.5390 O   0  0  0  0  0  1  0  0  0  0  0  0
  181.1530  178.9370  139.9220 C   0  0  0  0  0  0  0  0  0  0  0  0
  181.0820  177.8610  137.7390 C   0  0  0  0  0  0  0  0  0  0  0  0
  182.4830  177.9270  137.6610 C   0  0  0  0  0  0  0  0  0  0  0  0
  179.0650  178.2950  138.9500 F   0  0  0  0  0  0  0  0  0  0  0  0
  180.1330  177.1420  136.3900 S   0  0  0  0  0  0  0  0  0  0  0  0
  180.1720  175.5000  137.1080 C   0  0  0  0  0  0  0  0  0  0  0  0
  179.8520  172.7710  137.7250 C   0  0  0  0  0  2  0  0  0  0  0  0
  179.3320  173.7650  138.7460 C   0  0  0  0  0  2  0  0  0  0  0  0
  181.0490  174.6500  136.6840 N   0  0  0  0  0  0  0  0  0  0  0  0
  179.0820  175.1130  138.0800 C   0  0  0  0  0  2  0  0  0  0  0  0
  181.1810  173.3010  137.2010 C   0  0  2  0  0  3  0  0  0  0  0  0
  181.7370  172.3900  136.1180 C   0  0  0  0  0  2  0  0  0  0  0  0
  182.9870  172.9880  135.4920 C   0  0  0  0  0  2  0  0  0  0  0  0
  183.9000  170.7680  136.5260 O   0  0  0  0  0  0  0  0  0  0  0  0
  184.4540  172.1010  136.0440 S   0  0  2  0  0  0  0  0  0  0  0  0
  184.5630  174.2820  137.4880 O   0  0  0  0  0  1  0  0  0  0  0  0
  184.9060  172.9350  137.5730 C   0  0  0  0  0  2  0  0  0  0  0  0
  182.5990  179.0040  142.3300 C   0  0  0  0  0  2  0  0  0  0  0  0
  183.2260  178.2370  143.4910 C   0  0  0  0  0  2  0  0  0  0  0  0
  184.1770  179.1250  144.2780 C   0  0  2  0  0  3  0  0  0  0  0  0
  186.5060  178.4370  146.5810 C   0  0  0  0  0  2  0  0  0  0  0  0
  185.5570  179.1130  143.6100 C   0  0  0  0  0  2  0  0  0  0  0  0
  186.4500  177.9690  144.0770 C   0  0  0  0  0  2  0  0  0  0  0  0
  185.3110  179.3800  146.5450 C   0  0  0  0  0  2  0  0  0  0  0  0
  187.2990  178.4320  145.2640 C   0  0  2  0  0  3  0  0  0  0  0  0
  184.1790  178.7300  145.7640 C   0  0  0  0  0  2  0  0  0  0  0  0
  190.3380  178.6130  144.0820 C   0  0  0  0  0  2  0  0  0  0  0  0
  189.7890  178.5870  145.4660 C   0  0  0  0  0  2  0  0  0  0  0  0
  188.7710  176.8230  144.2260 O   0  0  0  0  0  0  0  0  0  0  0  0
  189.9140  177.2720  143.5370 C   0  0  1  0  0  3  0  0  0  0  0  0
  188.6150  177.6300  145.3750 C   0  0  2  0  0  0  0  0  0  0  0  0
  189.6420  177.3570  142.1060 N   0  0  0  0  0  0  0  0  0  0  0  0
  188.4550  178.0370  141.6730 C   0  0  0  0  0  3  0  0  0  0  0  0
  189.8660  176.3830  139.8600 C   0  0  1  0  0  3  0  0  0  0  0  0
  190.5930  176.8000  141.1350 C   0  0  0  0  0  2  0  0  0  0  0  0
  189.0740  177.5730  139.3220 C   0  0  0  0  0  2  0  0  0  0  0  0
  188.1540  178.1270  140.3750 C   0  0  0  0  0  3  0  0  0  0  0  0
  190.7940  175.9680  138.9070 O   0  0  0  0  0  1  0  0  0  0  0  0
  188.6140  176.7640  146.5660 C   0  0  0  0  0  0  0  0  0  0  0  0
  188.6150  176.0830  147.5020 N   0  0  0  0  0  0  0  0  0  0  0  0
  2  1  1  1  0  0  0
  2  3  1  0  0  0  0
  5  4  1  6  0  0  0
  5  2  1  0  0  0  0
  6 14  1  0  0  0  0
  6 11  1  0  0  0  0
  7  8  1  0  0  0  0
  8  9  1  0  0  0  0
  9 11  2  0  0  0  0
 10 13  1  0  0  0  0
 11  5  1  0  0  0  0
 12  6  2  0  0  0  0
 13 12  1  0  0  0  0
 13  8  2  0  0  0  0
 15 16  1  0  0  0  0
 15 12  1  0  0  0  0
 16 20  1  0  0  0  0
 17 18  1  0  0  0  0
 19 16  2  0  0  0  0
 19 21  1  0  0  0  0
 20 18  1  0  0  0  0
 21 22  1  6  0  0  0
 21 17  1  0  0  0  0
 23 25  1  0  0  0  0
 23 22  1  0  0  0  0
 25 24  2  1  0  0  0
 25 27  1  0  0  0  0
 26 27  1  0  0  0  0
 28  2  1  0  0  0  0
 28 29  1  0  0  0  0
 30 29  1  6  0  0  0
 30 36  1  0  0  0  0
 32 33  1  0  0  0  0
 32 30  1  0  0  0  0
 34 31  1  0  0  0  0
 35 33  1  6  0  0  0
 35 41  1  0  0  0  0
 35 31  1  0  0  0  0
 36 34  1  0  0  0  0
 37 38  1  0  0  0  0
 39 41  1  0  0  0  0
 40 42  1  6  0  0  0
 40 37  1  0  0  0  0
 40 39  1  0  0  0  0
 41 38  1  0  0  0  0
 41 49  1  1  0  0  0
 43 42  1  0  0  0  0
 44 48  1  6  0  0  0
 44 45  1  0  0  0  0
 45 42  1  0  0  0  0
 46 44  1  0  0  0  0
 46 47  1  0  0  0  0
 47 43  2  0  0  0  0
 49 50  3  0  0  0  0
M  END
>  <MODEL>
8

>  <REMARK>
 VINA RESULT:      -6.9      2.529      4.984
  Name = 
  14 active torsions:
  status: ('A' for Active; 'I' for Inactive)
    1  A    between atoms: C_2  and  S_11
    2  A    between atoms: N_6  and  C_21
    3  A    between atoms: S_11  and  C_36
    4  A    between atoms: C_14  and  C_28
    5  A    between atoms: C_14  and  C_34
    6  A    between atoms: C_15  and  C_24
    7  A    between atoms: C_15  and  C_28
    8  A    between atoms: C_16  and  C_22
    9  A    between atoms: C_16  and  C_50
   10  A    between atoms: C_22  and  S_23
   11  A    between atoms: S_23  and  C_42
   12  A    between atoms: C_33  and  C_34
   13  A    between atoms: C_38  and  C_47
   14  A    between atoms: C_43  and  C_47
                            x       y       z     vdW  Elec       q    Type
                         _______ _______ _______ _____ _____    ______ ____

>  <TORSDO>
F 14

$$$$
=
 OpenBabel11062414283D

 50 54  0  0  1  0  0  0  0  0999 V2000
  180.3540  179.9680  141.7710 C   0  0  0  0  0  1  0  0  0  0  0  0
  181.3490  178.8150  141.7400 C   0  0  2  0  0  0  0  0  0  0  0  0
  182.3920  179.1350  140.7760 N   0  0  0  0  0  1  0  0  0  0  0  0
  179.3230  177.4780  141.7560 O   0  0  0  0  0  1  0  0  0  0  0  0
  180.6400  177.5250  141.2830 C   0  0  1  0  0  3  0  0  0  0  0  0
  180.7470  175.9610  139.3090 C   0  0  0  0  0  0  0  0  0  0  0  0
  180.5530  179.2740  136.5850 C   0  0  0  0  0  1  0  0  0  0  0  0
  180.6200  178.1130  137.5160 C   0  0  0  0  0  0  0  0  0  0  0  0
  180.6120  178.3440  138.8940 C   0  0  0  0  0  3  0  0  0  0  0  0
  180.6810  176.5650  135.6540 O   0  0  0  0  0  1  0  0  0  0  0  0
  180.6720  177.2760  139.7970 C   0  0  0  0  0  0  0  0  0  0  0  0
  180.7460  175.7210  137.9260 C   0  0  0  0  0  0  0  0  0  0  0  0
  180.6830  176.7990  137.0270 C   0  0  0  0  0  0  0  0  0  0  0  0
  180.8080  174.9200  140.1790 F   0  0  0  0  0  0  0  0  0  0  0  0
  180.8200  174.0320  137.3090 S   0  0  0  0  0  0  0  0  0  0  0  0
  182.6120  174.0180  137.2820 C   0  0  0  0  0  0  0  0  0  0  0  0
  185.3430  174.0210  136.5910 C   0  0  0  0  0  2  0  0  0  0  0  0
  184.8320  172.8030  137.3370 C   0  0  0  0  0  2  0  0  0  0  0  0
  183.2490  175.1420  137.2290 N   0  0  0  0  0  0  0  0  0  0  0  0
  183.3210  172.6880  137.1700 C   0  0  0  0  0  2  0  0  0  0  0  0
  184.6950  175.2510  137.2170 C   0  0  2  0  0  3  0  0  0  0  0  0
  185.1070  176.5140  136.4780 C   0  0  0  0  0  2  0  0  0  0  0  0
  186.2200  177.2390  137.2180 C   0  0  0  0  0  2  0  0  0  0  0  0
  186.4970  178.0450  134.7480 O   0  0  0  0  0  0  0  0  0  0  0  0
  187.2610  178.1440  136.0600 S   0  0  2  0  0  0  0  0  0  0  0  0
  188.4430  175.8440  136.4630 O   0  0  0  0  0  1  0  0  0  0  0  0
  188.6650  177.0490  135.8030 C   0  0  0  0  0  2  0  0  0  0  0  0
  181.9720  178.6280  143.1300 C   0  0  0  0  0  2  0  0  0  0  0  0
  183.4380  178.2070  143.0690 C   0  0  0  0  0  2  0  0  0  0  0  0
  184.2860  179.0570  144.0030 C   0  0  2  0  0  3  0  0  0  0  0  0
  186.4690  178.2540  146.4100 C   0  0  0  0  0  2  0  0  0  0  0  0
  185.7110  179.1620  143.4450 C   0  0  0  0  0  2  0  0  0  0  0  0
  186.6190  178.0160  143.8770 C   0  0  0  0  0  2  0  0  0  0  0  0
  185.2370  179.1470  146.3640 C   0  0  0  0  0  2  0  0  0  0  0  0
  187.3560  178.4010  145.1620 C   0  0  2  0  0  3  0  0  0  0  0  0
  184.1970  178.5270  145.4440 C   0  0  0  0  0  2  0  0  0  0  0  0
  190.4270  178.7210  144.0970 C   0  0  0  0  0  2  0  0  0  0  0  0
  189.8300  178.6430  145.4580 C   0  0  0  0  0  2  0  0  0  0  0  0
  188.9240  176.8720  144.1430 O   0  0  0  0  0  0  0  0  0  0  0  0
  190.0730  177.3790  143.5060 C   0  0  1  0  0  3  0  0  0  0  0  0
  188.6970  177.6460  145.3030 C   0  0  2  0  0  0  0  0  0  0  0  0
  189.8490  177.4890  142.0690 N   0  0  0  0  0  0  0  0  0  0  0  0
  188.5920  178.0040  141.6070 C   0  0  0  0  0  3  0  0  0  0  0  0
  190.3070  176.6620  139.7990 C   0  0  1  0  0  3  0  0  0  0  0  0
  190.9120  177.1230  141.1220 C   0  0  0  0  0  2  0  0  0  0  0  0
  189.3680  177.7440  139.2720 C   0  0  0  0  0  2  0  0  0  0  0  0
  188.3340  178.1070  140.3010 C   0  0  0  0  0  3  0  0  0  0  0  0
  191.3250  176.4330  138.8760 O   0  0  0  0  0  1  0  0  0  0  0  0
  188.6860  176.7520  146.4740 C   0  0  0  0  0  0  0  0  0  0  0  0
  188.6770  176.0500  147.3940 N   0  0  0  0  0  0  0  0  0  0  0  0
  2  1  1  1  0  0  0
  2 28  1  0  0  0  0
  3  2  1  0  0  0  0
  5  2  1  0  0  0  0
  5  4  1  6  0  0  0
  6 11  1  0  0  0  0
  6 14  1  0  0  0  0
  7  8  1  0  0  0  0
  8  9  1  0  0  0  0
  9 11  2  0  0  0  0
 10 13  1  0  0  0  0
 11  5  1  0  0  0  0
 12  6  2  0  0  0  0
 13  8  2  0  0  0  0
 13 12  1  0  0  0  0
 15 12  1  0  0  0  0
 16 15  1  0  0  0  0
 17 21  1  0  0  0  0
 17 18  1  0  0  0  0
 19 16  2  0  0  0  0
 20 16  1  0  0  0  0
 20 18  1  0  0  0  0
 21 22  1  6  0  0  0
 21 19  1  0  0  0  0
 22 23  1  0  0  0  0
 25 24  2  6  0  0  0
 25 23  1  0  0  0  0
 27 25  1  0  0  0  0
 27 26  1  0  0  0  0
 29 28  1  0  0  0  0
 30 29  1  6  0  0  0
 30 36  1  0  0  0  0
 32 33  1  0  0  0  0
 32 30  1  0  0  0  0
 34 31  1  0  0  0  0
 35 33  1  6  0  0  0
 35 41  1  0  0  0  0
 35 31  1  0  0  0  0
 36 34  1  0  0  0  0
 37 38  1  0  0  0  0
 39 41  1  0  0  0  0
 40 42  1  6  0  0  0
 40 37  1  0  0  0  0
 40 39  1  0  0  0  0
 41 38  1  0  0  0  0
 41 49  1  1  0  0  0
 43 42  1  0  0  0  0
 44 48  1  6  0  0  0
 44 45  1  0  0  0  0
 45 42  1  0  0  0  0
 46 44  1  0  0  0  0
 46 47  1  0  0  0  0
 47 43  2  0  0  0  0
 49 50  3  0  0  0  0
M  END
>  <MODEL>
9

>  <REMARK>
 VINA RESULT:      -6.8      1.864      3.821
  Name = 
  14 active torsions:
  status: ('A' for Active; 'I' for Inactive)
    1  A    between atoms: C_2  and  S_11
    2  A    between atoms: N_6  and  C_21
    3  A    between atoms: S_11  and  C_36
    4  A    between atoms: C_14  and  C_28
    5  A    between atoms: C_14  and  C_34
    6  A    between atoms: C_15  and  C_24
    7  A    between atoms: C_15  and  C_28
    8  A    between atoms: C_16  and  C_22
    9  A    between atoms: C_16  and  C_50
   10  A    between atoms: C_22  and  S_23
   11  A    between atoms: S_23  and  C_42
   12  A    between atoms: C_33  and  C_34
   13  A    between atoms: C_38  and  C_47
   14  A    between atoms: C_43  and  C_47
                            x       y       z     vdW  Elec       q    Type
                         _______ _______ _______ _____ _____    ______ ____

>  <TORSDO>
F 14

$$$$
