=
 OpenBabel11062417593D

 40 43  0  0  1  0  0  0  0  0999 V2000
  186.6250  177.4940  145.2640 C   0  0  0  0  0  0  0  0  0  0  0  0
  186.2020  176.4200  145.6700 O   0  0  0  0  0  0  0  0  0  0  0  0
  186.0880  178.7780  145.8280 C   0  0  2  0  0  3  0  0  0  0  0  0
  186.8110  179.1170  147.1170 C   0  0  0  0  0  1  0  0  0  0  0  0
  184.6120  178.6820  146.0950 C   0  0  0  0  0  3  0  0  0  0  0  0
  183.6770  178.8870  145.1580 C   0  0  0  0  0  3  0  0  0  0  0  0
  183.9990  179.2380  143.7390 C   0  0  0  0  0  2  0  0  0  0  0  0
  182.8600  178.8060  142.8290 C   0  0  0  0  0  2  0  0  0  0  0  0
  181.1590  179.0190  140.5710 O   0  0  0  0  0  1  0  0  0  0  0  0
  184.2880  179.3260  140.8630 N   0  0  0  0  0  2  0  0  0  0  0  0
  182.2440  178.1600  140.3780 C   0  0  1  0  0  3  0  0  0  0  0  0
  184.0430  179.3590  139.4720 C   0  0  0  0  0  0  0  0  0  0  0  0
  182.9110  178.4950  139.0380 C   0  0  1  0  0  3  0  0  0  0  0  0
  183.3360  178.3940  141.4370 C   0  0  2  0  0  3  0  0  0  0  0  0
  184.7170  180.0750  138.6870 O   0  0  0  0  0  0  0  0  0  0  0  0
  183.4520  177.2220  138.3660 C   0  0  2  0  0  3  0  0  0  0  0  0
  183.5260  177.3720  136.8800 C   0  0  0  0  0  0  0  0  0  0  0  0
  182.3290  177.5410  136.1310 N   0  0  0  0  0  1  0  0  0  0  0  0
  184.6370  177.3560  136.2890 O   0  0  0  0  0  0  0  0  0  0  0  0
  182.4520  175.7520  138.7730 S   0  0  0  0  0  0  0  0  0  0  0  0
  184.4500  173.9180  137.5620 C   0  0  0  0  0  3  0  0  0  0  0  0
  183.6410  174.6630  138.0550 C   0  0  0  0  0  0  0  0  0  0  0  0
  187.7590  177.5430  144.2710 C   0  0  2  0  0  3  0  0  0  0  0  0
  191.5590  177.2670  145.0540 C   0  0  0  0  0  2  0  0  0  0  0  0
  190.9460  177.0050  146.4090 C   0  0  0  0  0  0  0  0  0  0  0  0
  190.2700  177.1050  144.3280 C   0  0  2  0  0  0  0  0  0  0  0  0
  189.1060  177.8990  144.9120 C   0  0  2  0  0  3  0  0  0  0  0  0
  189.6720  176.7070  145.6460 C   0  0  2  0  0  3  0  0  0  0  0  0
  191.3710  176.9030  147.6640 C   0  0  0  0  0  2  0  0  0  0  0  0
  190.0950  175.9050  143.4080 C   0  0  0  0  0  2  0  0  0  0  0  0
  190.6570  176.1820  142.1630 O   0  0  0  0  0  1  0  0  0  0  0  0
  187.4430  178.4270  143.1470 N   0  0  0  0  0  2  0  0  0  0  0  0
  187.4420  177.6750  141.9620 N   0  0  0  0  0  2  0  0  0  0  0  0
  188.7120  177.4260  139.9220 C   0  0  1  0  0  3  0  0  0  0  0  0
  188.2830  178.3840  141.0160 C   0  0  1  0  0  3  0  0  0  0  0  0
  187.6010  178.4200  139.6630 C   0  0  0  0  0  2  0  0  0  0  0  0
  189.9950  177.9330  139.2990 C   0  0  0  0  0  2  0  0  0  0  0  0
  190.4080  177.0110  138.1700 C   0  0  0  0  0  2  0  0  0  0  0  0
  189.7280  177.4100  136.9380 C   0  0  0  0  0  0  0  0  0  0  0  0
  189.1890  177.7270  135.9640 N   0  0  0  0  0  0  0  0  0  0  0  0
  1  2  2  0  0  0  0
  1  3  1  0  0  0  0
  3  5  1  0  0  0  0
  3  4  1  1  0  0  0
  6  5  2  0  0  0  0
  7  6  1  0  0  0  0
  8  7  1  0  0  0  0
 10 14  1  0  0  0  0
 11  9  1  1  0  0  0
 11 14  1  0  0  0  0
 12 10  1  0  0  0  0
 13 16  1  1  0  0  0
 13 12  1  0  0  0  0
 13 11  1  0  0  0  0
 14  8  1  1  0  0  0
 15 12  2  0  0  0  0
 16 17  1  6  0  0  0
 16 20  1  0  0  0  0
 18 17  1  0  0  0  0
 19 17  2  0  0  0  0
 21 22  3  0  0  0  0
 22 20  1  0  0  0  0
 23 32  1  6  0  0  0
 23  1  1  0  0  0  0
 24 25  1  0  0  0  0
 25 29  2  0  0  0  0
 26 30  1  6  0  0  0
 26 27  1  0  0  0  0
 26 24  1  0  0  0  0
 26 28  1  0  0  0  0
 27 23  1  6  0  0  0
 27 28  1  0  0  0  0
 28 25  1  1  0  0  0
 31 30  1  0  0  0  0
 33 32  1  0  0  0  0
 34 37  1  6  0  0  0
 34 35  1  0  0  0  0
 35 33  1  1  0  0  0
 36 34  1  0  0  0  0
 36 35  1  0  0  0  0
 38 37  1  0  0  0  0
 39 38  1  0  0  0  0
 40 39  3  0  0  0  0
M  END
>  <MODEL>
1

>  <REMARK>
 VINA RESULT:      -6.4      0.000      0.000
  Name = 
  18 active torsions:
  status: ('A' for Active; 'I' for Inactive)
    1  A    between atoms: C_1  and  C_25
    2  A    between atoms: C_2  and  C_8
    3  A    between atoms: C_4  and  C_32
    4  A    between atoms: C_6  and  C_8
    5  A    between atoms: C_6  and  C_40
    6  A    between atoms: C_10  and  C_38
    7  A    between atoms: C_11  and  C_28
    8  A    between atoms: C_11  and  C_32
    9  A    between atoms: C_12  and  C_24
   10  A    between atoms: C_16  and  S_26
   11  A    between atoms: C_17  and  N_23
   12  A    between atoms: N_21  and  N_23
   13  A    between atoms: N_21  and  C_40
   14  A    between atoms: C_25  and  C_38
   15  A    between atoms: S_26  and  C_36
   16  A    between atoms: C_27  and  C_36
   17  A    between atoms: C_29  and  C_40
   18  A    between atoms: C_30  and  C_36
                            x       y       z     vdW  Elec       q    Type
                         _______ _______ _______ _____ _____    ______ ____

>  <TORSDO>
F 18

$$$$
=
 OpenBabel11062417593D

 40 43  0  0  1  0  0  0  0  0999 V2000
  189.6380  178.0890  142.9600 C   0  0  0  0  0  0  0  0  0  0  0  0
  190.2360  179.1520  143.0610 O   0  0  0  0  0  0  0  0  0  0  0  0
  190.1290  177.0350  142.0090 C   0  0  2  0  0  3  0  0  0  0  0  0
  190.3210  175.7240  142.7460 C   0  0  0  0  0  1  0  0  0  0  0  0
  191.4260  177.4400  141.3680 C   0  0  0  0  0  3  0  0  0  0  0  0
  191.6680  177.3260  140.0550 C   0  0  0  0  0  3  0  0  0  0  0  0
  190.6730  176.7800  139.0800 C   0  0  0  0  0  2  0  0  0  0  0  0
  191.3560  176.4890  137.7530 C   0  0  0  0  0  2  0  0  0  0  0  0
  191.9080  174.0410  136.4340 O   0  0  0  0  0  1  0  0  0  0  0  0
  193.7850  176.4530  137.2230 N   0  0  0  0  0  2  0  0  0  0  0  0
  192.7560  174.3020  137.5130 C   0  0  1  0  0  3  0  0  0  0  0  0
  194.6570  175.4460  136.7560 C   0  0  0  0  0  0  0  0  0  0  0  0
  194.2060  174.0630  137.0720 C   0  0  1  0  0  3  0  0  0  0  0  0
  192.7020  175.7840  137.9200 C   0  0  2  0  0  3  0  0  0  0  0  0
  195.7070  175.7100  136.1140 O   0  0  0  0  0  0  0  0  0  0  0  0
  195.0400  173.4930  138.2320 C   0  0  2  0  0  3  0  0  0  0  0  0
  195.8740  174.5500  138.8830 C   0  0  0  0  0  0  0  0  0  0  0  0
  197.2240  174.7310  138.4750 N   0  0  0  0  0  1  0  0  0  0  0  0
  195.3890  175.2840  139.7840 O   0  0  0  0  0  0  0  0  0  0  0  0
  196.1190  172.1230  137.6950 S   0  0  0  0  0  0  0  0  0  0  0  0
  193.8640  170.7180  136.3660 C   0  0  0  0  0  3  0  0  0  0  0  0
  194.7780  171.2900  136.9040 C   0  0  0  0  0  0  0  0  0  0  0  0
  188.4670  177.7810  143.8590 C   0  0  2  0  0  3  0  0  0  0  0  0
  188.6420  176.6590  147.5780 C   0  0  0  0  0  2  0  0  0  0  0  0
  190.0980  176.9130  147.2660 C   0  0  0  0  0  0  0  0  0  0  0  0
  188.1550  177.3430  146.3510 C   0  0  2  0  0  0  0  0  0  0  0  0
  188.8440  176.9080  145.0620 C   0  0  2  0  0  3  0  0  0  0  0  0
  189.5830  177.7250  146.0950 C   0  0  2  0  0  3  0  0  0  0  0  0
  191.2700  176.6860  147.8480 C   0  0  0  0  0  2  0  0  0  0  0  0
  187.3900  178.6510  146.4990 C   0  0  0  0  0  2  0  0  0  0  0  0
  186.0200  178.4050  146.4330 O   0  0  0  0  0  1  0  0  0  0  0  0
  187.3530  177.2080  143.1020 N   0  0  0  0  0  2  0  0  0  0  0  0
  186.4960  178.2440  142.6960 N   0  0  0  0  0  2  0  0  0  0  0  0
  184.2650  179.0780  143.0910 C   0  0  1  0  0  3  0  0  0  0  0  0
  185.1530  177.8500  143.0780 C   0  0  1  0  0  3  0  0  0  0  0  0
  184.2040  178.1130  141.9260 C   0  0  0  0  0  2  0  0  0  0  0  0
  183.0910  178.8270  144.0140 C   0  0  0  0  0  2  0  0  0  0  0  0
  181.8160  179.3110  143.3540 C   0  0  0  0  0  2  0  0  0  0  0  0
  180.6860  178.5090  143.8250 C   0  0  0  0  0  0  0  0  0  0  0  0
  179.7920  177.8760  144.1990 N   0  0  0  0  0  0  0  0  0  0  0  0
  1  2  2  0  0  0  0
  3  4  1  1  0  0  0
  3  1  1  0  0  0  0
  5  3  1  0  0  0  0
  6  5  2  0  0  0  0
  7  6  1  0  0  0  0
  8  7  1  0  0  0  0
 10 14  1  0  0  0  0
 11  9  1  6  0  0  0
 11 14  1  0  0  0  0
 12 13  1  0  0  0  0
 12 10  1  0  0  0  0
 13 11  1  0  0  0  0
 13 16  1  1  0  0  0
 14  8  1  6  0  0  0
 15 12  2  0  0  0  0
 16 20  1  6  0  0  0
 16 17  1  0  0  0  0
 17 19  2  0  0  0  0
 18 17  1  0  0  0  0
 21 22  3  0  0  0  0
 22 20  1  0  0  0  0
 23  1  1  6  0  0  0
 25 24  1  0  0  0  0
 25 29  2  0  0  0  0
 26 30  1  1  0  0  0
 26 24  1  0  0  0  0
 27 23  1  6  0  0  0
 27 28  1  0  0  0  0
 27 26  1  0  0  0  0
 28 26  1  0  0  0  0
 28 25  1  1  0  0  0
 31 30  1  0  0  0  0
 32 23  1  0  0  0  0
 33 32  1  0  0  0  0
 34 37  1  1  0  0  0
 35 33  1  6  0  0  0
 35 34  1  0  0  0  0
 36 35  1  0  0  0  0
 36 34  1  0  0  0  0
 38 39  1  0  0  0  0
 38 37  1  0  0  0  0
 39 40  3  0  0  0  0
M  END
>  <MODEL>
2

>  <REMARK>
 VINA RESULT:      -6.1      4.411      8.872
  Name = 
  18 active torsions:
  status: ('A' for Active; 'I' for Inactive)
    1  A    between atoms: C_1  and  C_25
    2  A    between atoms: C_2  and  C_8
    3  A    between atoms: C_4  and  C_32
    4  A    between atoms: C_6  and  C_8
    5  A    between atoms: C_6  and  C_40
    6  A    between atoms: C_10  and  C_38
    7  A    between atoms: C_11  and  C_28
    8  A    between atoms: C_11  and  C_32
    9  A    between atoms: C_12  and  C_24
   10  A    between atoms: C_16  and  S_26
   11  A    between atoms: C_17  and  N_23
   12  A    between atoms: N_21  and  N_23
   13  A    between atoms: N_21  and  C_40
   14  A    between atoms: C_25  and  C_38
   15  A    between atoms: S_26  and  C_36
   16  A    between atoms: C_27  and  C_36
   17  A    between atoms: C_29  and  C_40
   18  A    between atoms: C_30  and  C_36
                            x       y       z     vdW  Elec       q    Type
                         _______ _______ _______ _____ _____    ______ ____

>  <TORSDO>
F 18

$$$$
=
 OpenBabel11062417593D

 40 43  0  0  1  0  0  0  0  0999 V2000
  181.6490  177.3060  139.2960 C   0  0  0  0  0  0  0  0  0  0  0  0
  180.8030  176.4370  139.1280 O   0  0  0  0  0  0  0  0  0  0  0  0
  182.3120  177.9520  138.1130 C   0  0  2  0  0  3  0  0  0  0  0  0
  181.2600  178.4980  137.1680 C   0  0  0  0  0  1  0  0  0  0  0  0
  183.1850  176.9760  137.3760 C   0  0  0  0  0  3  0  0  0  0  0  0
  184.4630  177.2220  137.0580 C   0  0  0  0  0  3  0  0  0  0  0  0
  185.1630  178.5000  137.3990 C   0  0  0  0  0  2  0  0  0  0  0  0
  186.6150  178.4280  136.9520 C   0  0  0  0  0  2  0  0  0  0  0  0
  189.1560  179.5760  137.4630 O   0  0  0  0  0  1  0  0  0  0  0  0
  187.0890  178.1500  139.3760 N   0  0  0  0  0  2  0  0  0  0  0  0
  189.0190  178.2740  137.9510 C   0  0  1  0  0  3  0  0  0  0  0  0
  188.2460  178.3430  140.1630 C   0  0  0  0  0  0  0  0  0  0  0  0
  189.5200  178.2330  139.4010 C   0  0  1  0  0  3  0  0  0  0  0  0
  187.5400  177.8590  138.0280 C   0  0  2  0  0  3  0  0  0  0  0  0
  188.1860  178.6060  141.3920 O   0  0  0  0  0  0  0  0  0  0  0  0
  190.1960  176.8850  139.7040 C   0  0  2  0  0  3  0  0  0  0  0  0
  190.7270  176.8370  141.1010 C   0  0  0  0  0  0  0  0  0  0  0  0
  191.5950  177.8670  141.5590 N   0  0  0  0  0  1  0  0  0  0  0  0
  190.4070  175.8990  141.8770 O   0  0  0  0  0  0  0  0  0  0  0  0
  191.5460  176.5150  138.5350 S   0  0  0  0  0  0  0  0  0  0  0  0
  189.9620  174.3830  137.2050 C   0  0  0  0  0  3  0  0  0  0  0  0
  190.6030  175.2490  137.7450 C   0  0  0  0  0  0  0  0  0  0  0  0
  181.9620  177.8100  140.6820 C   0  0  2  0  0  3  0  0  0  0  0  0
  179.6480  180.6150  142.0620 C   0  0  0  0  0  2  0  0  0  0  0  0
  179.4780  180.7830  140.5710 C   0  0  0  0  0  0  0  0  0  0  0  0
  180.3070  179.2870  141.9390 C   0  0  2  0  0  0  0  0  0  0  0  0
  181.4530  179.2350  140.9340 C   0  0  2  0  0  3  0  0  0  0  0  0
  180.0230  179.3730  140.4680 C   0  0  2  0  0  3  0  0  0  0  0  0
  178.9350  181.6750  139.7490 C   0  0  0  0  0  2  0  0  0  0  0  0
  179.5670  178.0550  142.4380 C   0  0  0  0  0  2  0  0  0  0  0  0
  179.8450  177.8540  143.7890 O   0  0  0  0  0  1  0  0  0  0  0  0
  183.3890  177.6840  140.9840 N   0  0  0  0  0  2  0  0  0  0  0  0
  183.7920  178.7860  141.7550 N   0  0  0  0  0  2  0  0  0  0  0  0
  184.7890  179.4080  143.8640 C   0  0  1  0  0  3  0  0  0  0  0  0
  184.3510  178.2550  142.9840 C   0  0  1  0  0  3  0  0  0  0  0  0
  183.4920  178.6860  144.1560 C   0  0  0  0  0  2  0  0  0  0  0  0
  185.8610  178.9210  144.8170 C   0  0  0  0  0  2  0  0  0  0  0  0
  185.2420  178.6310  146.1690 C   0  0  0  0  0  2  0  0  0  0  0  0
  186.3010  178.3760  147.1470 C   0  0  0  0  0  0  0  0  0  0  0  0
  187.1390  178.1750  147.9190 N   0  0  0  0  0  0  0  0  0  0  0  0
  2  1  2  0  0  0  0
  3  4  1  6  0  0  0
  3  1  1  0  0  0  0
  5  3  1  0  0  0  0
  6  5  2  0  0  0  0
  6  7  1  0  0  0  0
  8  7  1  0  0  0  0
 10 12  1  0  0  0  0
 11  9  1  1  0  0  0
 11 14  1  0  0  0  0
 11 13  1  0  0  0  0
 12 15  2  0  0  0  0
 13 16  1  1  0  0  0
 13 12  1  0  0  0  0
 14  8  1  6  0  0  0
 14 10  1  0  0  0  0
 16 20  1  6  0  0  0
 16 17  1  0  0  0  0
 17 18  1  0  0  0  0
 17 19  2  0  0  0  0
 21 22  3  0  0  0  0
 22 20  1  0  0  0  0
 23  1  1  6  0  0  0
 23 32  1  0  0  0  0
 25 24  1  0  0  0  0
 26 24  1  0  0  0  0
 26 30  1  1  0  0  0
 27 23  1  6  0  0  0
 27 26  1  0  0  0  0
 28 25  1  1  0  0  0
 28 27  1  0  0  0  0
 28 26  1  0  0  0  0
 29 25  2  0  0  0  0
 30 31  1  0  0  0  0
 32 33  1  0  0  0  0
 34 36  1  0  0  0  0
 34 37  1  1  0  0  0
 35 33  1  6  0  0  0
 35 34  1  0  0  0  0
 35 36  1  0  0  0  0
 37 38  1  0  0  0  0
 38 39  1  0  0  0  0
 39 40  3  0  0  0  0
M  END
>  <MODEL>
3

>  <REMARK>
 VINA RESULT:      -6.0      3.138      8.668
  Name = 
  18 active torsions:
  status: ('A' for Active; 'I' for Inactive)
    1  A    between atoms: C_1  and  C_25
    2  A    between atoms: C_2  and  C_8
    3  A    between atoms: C_4  and  C_32
    4  A    between atoms: C_6  and  C_8
    5  A    between atoms: C_6  and  C_40
    6  A    between atoms: C_10  and  C_38
    7  A    between atoms: C_11  and  C_28
    8  A    between atoms: C_11  and  C_32
    9  A    between atoms: C_12  and  C_24
   10  A    between atoms: C_16  and  S_26
   11  A    between atoms: C_17  and  N_23
   12  A    between atoms: N_21  and  N_23
   13  A    between atoms: N_21  and  C_40
   14  A    between atoms: C_25  and  C_38
   15  A    between atoms: S_26  and  C_36
   16  A    between atoms: C_27  and  C_36
   17  A    between atoms: C_29  and  C_40
   18  A    between atoms: C_30  and  C_36
                            x       y       z     vdW  Elec       q    Type
                         _______ _______ _______ _____ _____    ______ ____

>  <TORSDO>
F 18

$$$$
=
 OpenBabel11062417593D

 40 43  0  0  1  0  0  0  0  0999 V2000
  189.3740  178.1500  143.0920 C   0  0  0  0  0  0  0  0  0  0  0  0
  190.3230  178.8810  143.3410 O   0  0  0  0  0  0  0  0  0  0  0  0
  189.2610  177.4930  141.7460 C   0  0  2  0  0  3  0  0  0  0  0  0
  190.6380  177.0980  141.2480 C   0  0  0  0  0  1  0  0  0  0  0  0
  188.6130  178.4070  140.7450 C   0  0  0  0  0  3  0  0  0  0  0  0
  188.4680  178.0990  139.4490 C   0  0  0  0  0  3  0  0  0  0  0  0
  188.9380  176.8090  138.8540 C   0  0  0  0  0  2  0  0  0  0  0  0
  188.5730  176.7590  137.3780 C   0  0  0  0  0  2  0  0  0  0  0  0
  187.0410  178.4200  135.6670 O   0  0  0  0  0  1  0  0  0  0  0  0
  186.8360  175.3360  136.3100 N   0  0  0  0  0  2  0  0  0  0  0  0
  186.2700  177.6590  136.5490 C   0  0  1  0  0  3  0  0  0  0  0  0
  185.6940  175.6270  135.5320 C   0  0  0  0  0  0  0  0  0  0  0  0
  185.1360  176.9870  135.7630 C   0  0  1  0  0  3  0  0  0  0  0  0
  187.0850  176.4980  137.1440 C   0  0  2  0  0  3  0  0  0  0  0  0
  185.2160  174.8050  134.7080 O   0  0  0  0  0  0  0  0  0  0  0  0
  183.8630  176.8920  136.6200 C   0  0  2  0  0  3  0  0  0  0  0  0
  182.6440  177.2670  135.8400 C   0  0  0  0  0  0  0  0  0  0  0  0
  182.2080  176.4320  134.7740 N   0  0  0  0  0  1  0  0  0  0  0  0
  181.9970  178.3090  136.1220 O   0  0  0  0  0  0  0  0  0  0  0  0
  183.9620  177.9330  138.1160 S   0  0  0  0  0  0  0  0  0  0  0  0
  182.3360  176.0130  139.6960 C   0  0  0  0  0  3  0  0  0  0  0  0
  182.9950  176.7910  139.0530 C   0  0  0  0  0  0  0  0  0  0  0  0
  188.3630  177.8180  144.1610 C   0  0  2  0  0  3  0  0  0  0  0  0
  189.0930  176.3980  147.7070 C   0  0  0  0  0  2  0  0  0  0  0  0
  190.4870  176.6560  147.1870 C   0  0  0  0  0  0  0  0  0  0  0  0
  188.4360  177.1850  146.6300 C   0  0  2  0  0  0  0  0  0  0  0  0
  188.9020  176.8450  145.2180 C   0  0  2  0  0  3  0  0  0  0  0  0
  189.8160  177.5660  146.1790 C   0  0  2  0  0  3  0  0  0  0  0  0
  191.7310  176.3660  147.5550 C   0  0  0  0  0  2  0  0  0  0  0  0
  187.7400  178.4880  146.9970 C   0  0  0  0  0  2  0  0  0  0  0  0
  186.3700  178.2690  147.1230 O   0  0  0  0  0  1  0  0  0  0  0  0
  187.1090  177.3410  143.5760 N   0  0  0  0  0  2  0  0  0  0  0  0
  186.1170  178.3170  143.7630 N   0  0  0  0  0  2  0  0  0  0  0  0
  184.0100  179.1190  142.9000 C   0  0  1  0  0  3  0  0  0  0  0  0
  185.0710  178.0420  142.7970 C   0  0  1  0  0  3  0  0  0  0  0  0
  185.0210  179.1590  141.7750 C   0  0  0  0  0  2  0  0  0  0  0  0
  182.6980  178.5710  142.3770 C   0  0  0  0  0  2  0  0  0  0  0  0
  181.5980  178.8460  143.3810 C   0  0  0  0  0  2  0  0  0  0  0  0
  180.6400  179.7930  142.8100 C   0  0  0  0  0  0  0  0  0  0  0  0
  179.8820  180.5420  142.3590 N   0  0  0  0  0  0  0  0  0  0  0  0
  1  2  2  0  0  0  0
  3  4  1  6  0  0  0
  3  1  1  0  0  0  0
  5  3  1  0  0  0  0
  6  5  2  0  0  0  0
  7  6  1  0  0  0  0
  8  7  1  0  0  0  0
 10 14  1  0  0  0  0
 11  9  1  6  0  0  0
 11 14  1  0  0  0  0
 12 13  1  0  0  0  0
 12 10  1  0  0  0  0
 13 11  1  0  0  0  0
 13 16  1  1  0  0  0
 14  8  1  6  0  0  0
 15 12  2  0  0  0  0
 16 17  1  6  0  0  0
 16 20  1  0  0  0  0
 17 19  2  0  0  0  0
 18 17  1  0  0  0  0
 20 22  1  0  0  0  0
 22 21  3  0  0  0  0
 23  1  1  6  0  0  0
 25 29  2  0  0  0  0
 25 24  1  0  0  0  0
 26 30  1  1  0  0  0
 26 24  1  0  0  0  0
 27 23  1  6  0  0  0
 27 28  1  0  0  0  0
 27 26  1  0  0  0  0
 28 26  1  0  0  0  0
 28 25  1  1  0  0  0
 30 31  1  0  0  0  0
 32 33  1  0  0  0  0
 32 23  1  0  0  0  0
 34 37  1  6  0  0  0
 35 34  1  0  0  0  0
 35 33  1  1  0  0  0
 36 35  1  0  0  0  0
 36 34  1  0  0  0  0
 37 38  1  0  0  0  0
 39 38  1  0  0  0  0
 40 39  3  0  0  0  0
M  END
>  <MODEL>
4

>  <REMARK>
 VINA RESULT:      -5.8      2.129      5.579
  Name = 
  18 active torsions:
  status: ('A' for Active; 'I' for Inactive)
    1  A    between atoms: C_1  and  C_25
    2  A    between atoms: C_2  and  C_8
    3  A    between atoms: C_4  and  C_32
    4  A    between atoms: C_6  and  C_8
    5  A    between atoms: C_6  and  C_40
    6  A    between atoms: C_10  and  C_38
    7  A    between atoms: C_11  and  C_28
    8  A    between atoms: C_11  and  C_32
    9  A    between atoms: C_12  and  C_24
   10  A    between atoms: C_16  and  S_26
   11  A    between atoms: C_17  and  N_23
   12  A    between atoms: N_21  and  N_23
   13  A    between atoms: N_21  and  C_40
   14  A    between atoms: C_25  and  C_38
   15  A    between atoms: S_26  and  C_36
   16  A    between atoms: C_27  and  C_36
   17  A    between atoms: C_29  and  C_40
   18  A    between atoms: C_30  and  C_36
                            x       y       z     vdW  Elec       q    Type
                         _______ _______ _______ _____ _____    ______ ____

>  <TORSDO>
F 18

$$$$
=
 OpenBabel11062417593D

 40 43  0  0  1  0  0  0  0  0999 V2000
  190.1150  178.0700  143.1250 C   0  0  0  0  0  0  0  0  0  0  0  0
  190.6080  179.0520  143.6630 O   0  0  0  0  0  0  0  0  0  0  0  0
  191.0000  177.0360  142.4890 C   0  0  2  0  0  3  0  0  0  0  0  0
  191.5950  176.1390  143.5580 C   0  0  0  0  0  1  0  0  0  0  0  0
  192.1080  177.6750  141.7020 C   0  0  0  0  0  3  0  0  0  0  0  0
  192.3410  177.4140  140.4080 C   0  0  0  0  0  3  0  0  0  0  0  0
  191.5240  176.4520  139.6050 C   0  0  0  0  0  2  0  0  0  0  0  0
  191.9050  176.5530  138.1360 C   0  0  0  0  0  2  0  0  0  0  0  0
  191.8250  174.2850  136.4370 O   0  0  0  0  0  1  0  0  0  0  0  0
  194.0510  176.4780  136.8830 N   0  0  0  0  0  2  0  0  0  0  0  0
  192.9770  174.3570  137.2250 C   0  0  1  0  0  3  0  0  0  0  0  0
  194.6540  175.5050  136.0560 C   0  0  0  0  0  0  0  0  0  0  0  0
  194.2020  174.1140  136.3340 C   0  0  1  0  0  3  0  0  0  0  0  0
  193.1740  175.7710  137.7970 C   0  0  2  0  0  3  0  0  0  0  0  0
  195.4810  175.8060  135.1570 O   0  0  0  0  0  0  0  0  0  0  0  0
  195.2940  173.3540  137.1060 C   0  0  2  0  0  3  0  0  0  0  0  0
  195.0140  171.8860  137.1540 C   0  0  0  0  0  0  0  0  0  0  0  0
  195.3880  171.1370  138.3040 N   0  0  0  0  0  1  0  0  0  0  0  0
  194.4450  171.3090  136.1900 O   0  0  0  0  0  0  0  0  0  0  0  0
  195.4980  173.9830  138.8060 S   0  0  0  0  0  0  0  0  0  0  0  0
  198.3650  174.6120  138.3440 C   0  0  0  0  0  3  0  0  0  0  0  0
  197.2010  174.3590  138.5320 C   0  0  0  0  0  0  0  0  0  0  0  0
  188.6270  177.8310  143.1820 C   0  0  2  0  0  3  0  0  0  0  0  0
  186.3680  177.1300  146.2690 C   0  0  0  0  0  2  0  0  0  0  0  0
  187.6370  177.6220  146.9230 C   0  0  0  0  0  0  0  0  0  0  0  0
  186.7700  177.5870  144.9120 C   0  0  2  0  0  0  0  0  0  0  0  0
  188.1730  177.1660  144.4880 C   0  0  2  0  0  3  0  0  0  0  0  0
  187.9720  178.2040  145.5650 C   0  0  2  0  0  3  0  0  0  0  0  0
  188.1380  177.6770  148.1530 C   0  0  0  0  0  2  0  0  0  0  0  0
  186.0040  178.7360  144.2710 C   0  0  0  0  0  2  0  0  0  0  0  0
  185.0780  178.2320  143.3590 O   0  0  0  0  0  1  0  0  0  0  0  0
  188.1620  177.0920  142.0070 N   0  0  0  0  0  2  0  0  0  0  0  0
  187.7800  178.0070  141.0140 N   0  0  0  0  0  2  0  0  0  0  0  0
  187.6290  178.1980  138.6110 C   0  0  1  0  0  3  0  0  0  0  0  0
  188.3500  177.5340  139.7670 C   0  0  1  0  0  3  0  0  0  0  0  0
  188.9950  178.6940  139.0350 C   0  0  0  0  0  2  0  0  0  0  0  0
  187.7690  177.3300  137.3780 C   0  0  0  0  0  2  0  0  0  0  0  0
  186.5350  177.4790  136.5120 C   0  0  0  0  0  2  0  0  0  0  0  0
  185.3390  177.4470  137.3540 C   0  0  0  0  0  0  0  0  0  0  0  0
  184.3930  177.4230  138.0200 N   0  0  0  0  0  0  0  0  0  0  0  0
  1 23  1  0  0  0  0
  1  2  2  0  0  0  0
  3  1  1  0  0  0  0
  3  4  1  1  0  0  0
  5  3  1  0  0  0  0
  6  5  2  0  0  0  0
  7  6  1  0  0  0  0
  8  7  1  0  0  0  0
 10 14  1  0  0  0  0
 11  9  1  6  0  0  0
 11 14  1  0  0  0  0
 12 13  1  0  0  0  0
 12 10  1  0  0  0  0
 13 16  1  1  0  0  0
 13 11  1  0  0  0  0
 14  8  1  6  0  0  0
 15 12  2  0  0  0  0
 16 17  1  1  0  0  0
 16 20  1  0  0  0  0
 17 18  1  0  0  0  0
 19 17  2  0  0  0  0
 21 22  3  0  0  0  0
 22 20  1  0  0  0  0
 23 32  1  6  0  0  0
 24 25  1  0  0  0  0
 25 29  2  0  0  0  0
 26 30  1  6  0  0  0
 26 28  1  0  0  0  0
 26 24  1  0  0  0  0
 27 23  1  6  0  0  0
 27 26  1  0  0  0  0
 27 28  1  0  0  0  0
 28 25  1  1  0  0  0
 31 30  1  0  0  0  0
 33 32  1  0  0  0  0
 34 37  1  6  0  0  0
 34 36  1  0  0  0  0
 34 35  1  0  0  0  0
 35 33  1  1  0  0  0
 36 35  1  0  0  0  0
 38 39  1  0  0  0  0
 38 37  1  0  0  0  0
 39 40  3  0  0  0  0
M  END
>  <MODEL>
5

>  <REMARK>
 VINA RESULT:      -5.8      4.614      8.526
  Name = 
  18 active torsions:
  status: ('A' for Active; 'I' for Inactive)
    1  A    between atoms: C_1  and  C_25
    2  A    between atoms: C_2  and  C_8
    3  A    between atoms: C_4  and  C_32
    4  A    between atoms: C_6  and  C_8
    5  A    between atoms: C_6  and  C_40
    6  A    between atoms: C_10  and  C_38
    7  A    between atoms: C_11  and  C_28
    8  A    between atoms: C_11  and  C_32
    9  A    between atoms: C_12  and  C_24
   10  A    between atoms: C_16  and  S_26
   11  A    between atoms: C_17  and  N_23
   12  A    between atoms: N_21  and  N_23
   13  A    between atoms: N_21  and  C_40
   14  A    between atoms: C_25  and  C_38
   15  A    between atoms: S_26  and  C_36
   16  A    between atoms: C_27  and  C_36
   17  A    between atoms: C_29  and  C_40
   18  A    between atoms: C_30  and  C_36
                            x       y       z     vdW  Elec       q    Type
                         _______ _______ _______ _____ _____    ______ ____

>  <TORSDO>
F 18

$$$$
=
 OpenBabel11062417593D

 40 43  0  0  1  0  0  0  0  0999 V2000
  186.6940  177.4900  143.5480 C   0  0  0  0  0  0  0  0  0  0  0  0
  186.4240  176.3740  143.9700 O   0  0  0  0  0  0  0  0  0  0  0  0
  185.7430  178.6310  143.7680 C   0  0  2  0  0  3  0  0  0  0  0  0
  185.7390  179.0240  145.2330 C   0  0  0  0  0  1  0  0  0  0  0  0
  184.3470  178.2680  143.3470 C   0  0  0  0  0  3  0  0  0  0  0  0
  183.8810  178.4430  142.1030 C   0  0  0  0  0  3  0  0  0  0  0  0
  184.7000  179.0250  140.9940 C   0  0  0  0  0  2  0  0  0  0  0  0
  183.8770  179.0740  139.7160 C   0  0  0  0  0  2  0  0  0  0  0  0
  181.5060  179.0660  138.1620 O   0  0  0  0  0  1  0  0  0  0  0  0
  183.7700  176.8960  138.5240 N   0  0  0  0  0  2  0  0  0  0  0  0
  181.6520  177.9360  138.9710 C   0  0  1  0  0  3  0  0  0  0  0  0
  182.7610  176.2530  137.7750 C   0  0  0  0  0  0  0  0  0  0  0  0
  181.3800  176.6840  138.1270 C   0  0  1  0  0  3  0  0  0  0  0  0
  183.1020  177.7820  139.4590 C   0  0  2  0  0  3  0  0  0  0  0  0
  183.0230  175.4080  136.8790 O   0  0  0  0  0  0  0  0  0  0  0  0
  180.6930  175.5980  138.9720 C   0  0  2  0  0  3  0  0  0  0  0  0
  180.0180  174.5770  138.1140 C   0  0  0  0  0  0  0  0  0  0  0  0
  178.9310  174.9650  137.2820 N   0  0  0  0  0  1  0  0  0  0  0  0
  180.4070  173.3800  138.1150 O   0  0  0  0  0  0  0  0  0  0  0  0
  179.4780  176.3010  140.1380 S   0  0  0  0  0  0  0  0  0  0  0  0
  179.3070  173.7580  141.6640 C   0  0  0  0  0  3  0  0  0  0  0  0
  179.3740  174.7890  141.0440 C   0  0  0  0  0  0  0  0  0  0  0  0
  188.0260  177.7580  142.8930 C   0  0  2  0  0  3  0  0  0  0  0  0
  191.2990  177.1090  144.8910 C   0  0  0  0  0  2  0  0  0  0  0  0
  190.2650  177.1210  145.9920 C   0  0  0  0  0  0  0  0  0  0  0  0
  190.2880  177.0140  143.8040 C   0  0  2  0  0  0  0  0  0  0  0  0
  189.1510  178.0250  143.9020 C   0  0  2  0  0  3  0  0  0  0  0  0
  189.2560  176.8850  144.8860 C   0  0  2  0  0  3  0  0  0  0  0  0
  190.2600  177.1430  147.3200 C   0  0  0  0  0  2  0  0  0  0  0  0
  190.2080  175.7300  142.9910 C   0  0  0  0  0  2  0  0  0  0  0  0
  190.7050  175.9530  141.7090 O   0  0  0  0  0  1  0  0  0  0  0  0
  187.9240  178.8290  141.9000 N   0  0  0  0  0  2  0  0  0  0  0  0
  188.8960  178.6250  140.9070 N   0  0  0  0  0  2  0  0  0  0  0  0
  189.0470  178.5100  138.5000 C   0  0  1  0  0  3  0  0  0  0  0  0
  188.1920  178.2010  139.7120 C   0  0  1  0  0  3  0  0  0  0  0  0
  188.9730  177.0950  139.0320 C   0  0  0  0  0  2  0  0  0  0  0  0
  188.1530  178.6380  137.2850 C   0  0  0  0  0  2  0  0  0  0  0  0
  188.7510  177.8600  136.1310 C   0  0  0  0  0  2  0  0  0  0  0  0
  187.6910  177.1440  135.4220 C   0  0  0  0  0  0  0  0  0  0  0  0
  186.8520  176.5760  134.8620 N   0  0  0  0  0  0  0  0  0  0  0  0
  1  3  1  0  0  0  0
  1  2  2  0  0  0  0
  3  4  1  1  0  0  0
  5  3  1  0  0  0  0
  6  5  2  0  0  0  0
  7  6  1  0  0  0  0
  8  7  1  0  0  0  0
 10 14  1  0  0  0  0
 11  9  1  6  0  0  0
 11 14  1  0  0  0  0
 12 13  1  0  0  0  0
 12 10  1  0  0  0  0
 13 11  1  0  0  0  0
 13 16  1  1  0  0  0
 14  8  1  6  0  0  0
 15 12  2  0  0  0  0
 16 17  1  6  0  0  0
 16 20  1  0  0  0  0
 17 19  2  0  0  0  0
 18 17  1  0  0  0  0
 20 22  1  0  0  0  0
 22 21  3  0  0  0  0
 23 32  1  6  0  0  0
 23  1  1  0  0  0  0
 24 25  1  0  0  0  0
 25 29  2  0  0  0  0
 26 30  1  6  0  0  0
 26 27  1  0  0  0  0
 26 28  1  0  0  0  0
 26 24  1  0  0  0  0
 27 23  1  6  0  0  0
 27 28  1  0  0  0  0
 28 25  1  1  0  0  0
 31 30  1  0  0  0  0
 33 32  1  0  0  0  0
 34 37  1  6  0  0  0
 34 36  1  0  0  0  0
 34 35  1  0  0  0  0
 35 33  1  1  0  0  0
 36 35  1  0  0  0  0
 38 37  1  0  0  0  0
 39 38  1  0  0  0  0
 40 39  3  0  0  0  0
M  END
>  <MODEL>
6

>  <REMARK>
 VINA RESULT:      -5.7      2.345      2.943
  Name = 
  18 active torsions:
  status: ('A' for Active; 'I' for Inactive)
    1  A    between atoms: C_1  and  C_25
    2  A    between atoms: C_2  and  C_8
    3  A    between atoms: C_4  and  C_32
    4  A    between atoms: C_6  and  C_8
    5  A    between atoms: C_6  and  C_40
    6  A    between atoms: C_10  and  C_38
    7  A    between atoms: C_11  and  C_28
    8  A    between atoms: C_11  and  C_32
    9  A    between atoms: C_12  and  C_24
   10  A    between atoms: C_16  and  S_26
   11  A    between atoms: C_17  and  N_23
   12  A    between atoms: N_21  and  N_23
   13  A    between atoms: N_21  and  C_40
   14  A    between atoms: C_25  and  C_38
   15  A    between atoms: S_26  and  C_36
   16  A    between atoms: C_27  and  C_36
   17  A    between atoms: C_29  and  C_40
   18  A    between atoms: C_30  and  C_36
                            x       y       z     vdW  Elec       q    Type
                         _______ _______ _______ _____ _____    ______ ____

>  <TORSDO>
F 18

$$$$
=
 OpenBabel11062417593D

 40 43  0  0  1  0  0  0  0  0999 V2000
  185.9430  178.2490  143.0850 C   0  0  0  0  0  0  0  0  0  0  0  0
  185.0420  177.8420  142.3640 O   0  0  0  0  0  0  0  0  0  0  0  0
  185.6200  178.9190  144.3900 C   0  0  2  0  0  3  0  0  0  0  0  0
  185.0140  177.9130  145.3500 C   0  0  0  0  0  1  0  0  0  0  0  0
  184.6640  180.0610  144.1960 C   0  0  0  0  0  3  0  0  0  0  0  0
  183.3320  179.9220  144.2240 C   0  0  0  0  0  3  0  0  0  0  0  0
  182.6480  178.6100  144.4490 C   0  0  0  0  0  2  0  0  0  0  0  0
  181.2250  178.6720  143.9130 C   0  0  0  0  0  2  0  0  0  0  0  0
  179.6250  177.2450  142.0580 O   0  0  0  0  0  1  0  0  0  0  0  0
  180.4080  180.2990  142.2210 N   0  0  0  0  0  2  0  0  0  0  0  0
  180.6140  178.0300  141.4600 C   0  0  1  0  0  3  0  0  0  0  0  0
  179.7470  180.1540  140.9810 C   0  0  0  0  0  0  0  0  0  0  0  0
  179.9830  178.8420  140.3210 C   0  0  1  0  0  3  0  0  0  0  0  0
  181.1630  179.0800  142.4410 C   0  0  2  0  0  3  0  0  0  0  0  0
  179.0110  181.0570  140.5020 O   0  0  0  0  0  0  0  0  0  0  0  0
  180.9750  179.0110  139.1590 C   0  0  2  0  0  3  0  0  0  0  0  0
  180.2690  179.1870  137.8520 C   0  0  0  0  0  0  0  0  0  0  0  0
  178.9440  178.6950  137.6980 N   0  0  0  0  0  1  0  0  0  0  0  0
  180.8340  179.7720  136.8920 O   0  0  0  0  0  0  0  0  0  0  0  0
  182.1320  177.6060  139.0320 S   0  0  0  0  0  0  0  0  0  0  0  0
  184.4990  179.3970  139.1630 C   0  0  0  0  0  3  0  0  0  0  0  0
  183.5380  178.6720  139.1100 C   0  0  0  0  0  0  0  0  0  0  0  0
  187.3850  177.9930  142.7250 C   0  0  2  0  0  3  0  0  0  0  0  0
  190.3270  177.2120  145.1460 C   0  0  0  0  0  2  0  0  0  0  0  0
  189.1400  177.1600  146.0790 C   0  0  0  0  0  0  0  0  0  0  0  0
  189.4900  177.1860  143.9170 C   0  0  2  0  0  0  0  0  0  0  0  0
  188.3450  178.1940  143.9050 C   0  0  2  0  0  3  0  0  0  0  0  0
  188.3090  176.9960  144.8230 C   0  0  2  0  0  3  0  0  0  0  0  0
  188.9370  177.1020  147.3910 C   0  0  0  0  0  2  0  0  0  0  0  0
  189.5380  175.9540  143.0260 C   0  0  0  0  0  2  0  0  0  0  0  0
  190.8010  175.8420  142.4460 O   0  0  0  0  0  1  0  0  0  0  0  0
  187.7890  178.7790  141.5580 N   0  0  0  0  0  2  0  0  0  0  0  0
  187.8460  177.9350  140.4380 N   0  0  0  0  0  2  0  0  0  0  0  0
  189.5110  176.8740  139.0480 C   0  0  1  0  0  3  0  0  0  0  0  0
  189.1580  178.1130  139.8460 C   0  0  1  0  0  3  0  0  0  0  0  0
  189.0340  178.1210  138.3360 C   0  0  0  0  0  2  0  0  0  0  0  0
  191.0180  176.7750  138.9320 C   0  0  0  0  0  2  0  0  0  0  0  0
  191.3890  176.2830  137.5480 C   0  0  0  0  0  2  0  0  0  0  0  0
  192.8380  176.3710  137.3690 C   0  0  0  0  0  0  0  0  0  0  0  0
  193.9840  176.4410  137.2270 N   0  0  0  0  0  0  0  0  0  0  0  0
  1  3  1  0  0  0  0
  2  1  2  0  0  0  0
  3  4  1  1  0  0  0
  5  6  2  0  0  0  0
  5  3  1  0  0  0  0
  6  7  1  0  0  0  0
  8  7  1  0  0  0  0
 10 14  1  0  0  0  0
 11  9  1  1  0  0  0
 11 14  1  0  0  0  0
 12 10  1  0  0  0  0
 13 16  1  6  0  0  0
 13 12  1  0  0  0  0
 13 11  1  0  0  0  0
 14  8  1  1  0  0  0
 15 12  2  0  0  0  0
 16 17  1  6  0  0  0
 18 17  1  0  0  0  0
 19 17  2  0  0  0  0
 20 22  1  0  0  0  0
 20 16  1  0  0  0  0
 22 21  3  0  0  0  0
 23 32  1  6  0  0  0
 23  1  1  0  0  0  0
 24 25  1  0  0  0  0
 25 29  2  0  0  0  0
 26 30  1  6  0  0  0
 26 28  1  0  0  0  0
 26 24  1  0  0  0  0
 27 23  1  6  0  0  0
 27 26  1  0  0  0  0
 27 28  1  0  0  0  0
 28 25  1  1  0  0  0
 31 30  1  0  0  0  0
 33 32  1  0  0  0  0
 34 37  1  6  0  0  0
 34 35  1  0  0  0  0
 35 33  1  1  0  0  0
 36 34  1  0  0  0  0
 36 35  1  0  0  0  0
 38 37  1  0  0  0  0
 39 38  1  0  0  0  0
 40 39  3  0  0  0  0
M  END
>  <MODEL>
7

>  <REMARK>
 VINA RESULT:      -5.6      2.373      2.902
  Name = 
  18 active torsions:
  status: ('A' for Active; 'I' for Inactive)
    1  A    between atoms: C_1  and  C_25
    2  A    between atoms: C_2  and  C_8
    3  A    between atoms: C_4  and  C_32
    4  A    between atoms: C_6  and  C_8
    5  A    between atoms: C_6  and  C_40
    6  A    between atoms: C_10  and  C_38
    7  A    between atoms: C_11  and  C_28
    8  A    between atoms: C_11  and  C_32
    9  A    between atoms: C_12  and  C_24
   10  A    between atoms: C_16  and  S_26
   11  A    between atoms: C_17  and  N_23
   12  A    between atoms: N_21  and  N_23
   13  A    between atoms: N_21  and  C_40
   14  A    between atoms: C_25  and  C_38
   15  A    between atoms: S_26  and  C_36
   16  A    between atoms: C_27  and  C_36
   17  A    between atoms: C_29  and  C_40
   18  A    between atoms: C_30  and  C_36
                            x       y       z     vdW  Elec       q    Type
                         _______ _______ _______ _____ _____    ______ ____

>  <TORSDO>
F 18

$$$$
=
 OpenBabel11062417593D

 40 43  0  0  1  0  0  0  0  0999 V2000
  189.7930  176.3800  142.4310 C   0  0  0  0  0  0  0  0  0  0  0  0
  190.1790  175.2480  142.6880 O   0  0  0  0  0  0  0  0  0  0  0  0
  190.0710  176.9840  141.0840 C   0  0  2  0  0  3  0  0  0  0  0  0
  191.5260  177.4030  140.9980 C   0  0  0  0  0  1  0  0  0  0  0  0
  189.1940  178.1770  140.8290 C   0  0  0  0  0  3  0  0  0  0  0  0
  188.8970  178.6260  139.6020 C   0  0  0  0  0  3  0  0  0  0  0  0
  189.4100  177.9900  138.3480 C   0  0  0  0  0  2  0  0  0  0  0  0
  188.3790  178.1320  137.2390 C   0  0  0  0  0  2  0  0  0  0  0  0
  186.6370  177.5230  135.0870 O   0  0  0  0  0  1  0  0  0  0  0  0
  187.5360  175.8190  137.5870 N   0  0  0  0  0  2  0  0  0  0  0  0
  186.0830  177.2740  136.3450 C   0  0  1  0  0  3  0  0  0  0  0  0
  186.5210  175.0570  136.9690 C   0  0  0  0  0  0  0  0  0  0  0  0
  185.4490  175.8770  136.3400 C   0  0  1  0  0  3  0  0  0  0  0  0
  187.1710  177.2140  137.4320 C   0  0  2  0  0  3  0  0  0  0  0  0
  186.5450  173.7990  136.9430 O   0  0  0  0  0  0  0  0  0  0  0  0
  184.1870  175.8500  137.2180 C   0  0  2  0  0  3  0  0  0  0  0  0
  183.2050  174.8280  136.7400 C   0  0  0  0  0  0  0  0  0  0  0  0
  182.0830  175.2380  135.9680 N   0  0  0  0  0  1  0  0  0  0  0  0
  183.3670  173.6090  137.0100 O   0  0  0  0  0  0  0  0  0  0  0  0
  183.3680  177.4790  137.2950 S   0  0  0  0  0  0  0  0  0  0  0  0
  183.0760  177.3160  140.2470 C   0  0  0  0  0  3  0  0  0  0  0  0
  183.1960  177.3820  139.0500 C   0  0  0  0  0  0  0  0  0  0  0  0
  188.9460  177.1420  143.4190 C   0  0  2  0  0  3  0  0  0  0  0  0
  191.2890  177.8680  146.4370 C   0  0  0  0  0  2  0  0  0  0  0  0
  191.4860  176.3830  146.2470 C   0  0  0  0  0  0  0  0  0  0  0  0
  190.6080  178.0480  145.1280 C   0  0  2  0  0  0  0  0  0  0  0  0
  189.4780  177.0610  144.8560 C   0  0  2  0  0  3  0  0  0  0  0  0
  190.9170  176.6040  144.8600 C   0  0  2  0  0  3  0  0  0  0  0  0
  192.0580  175.3850  146.9120 C   0  0  0  0  0  2  0  0  0  0  0  0
  191.3180  178.8380  144.0370 C   0  0  0  0  0  2  0  0  0  0  0  0
  190.7810  180.1230  143.9620 O   0  0  0  0  0  1  0  0  0  0  0  0
  187.5420  176.7390  143.3380 N   0  0  0  0  0  2  0  0  0  0  0  0
  186.8840  177.1340  144.5130 N   0  0  0  0  0  2  0  0  0  0  0  0
  184.7470  178.2390  144.7290 C   0  0  1  0  0  3  0  0  0  0  0  0
  186.1630  178.3530  144.2000 C   0  0  1  0  0  3  0  0  0  0  0  0
  185.7730  179.0540  145.4850 C   0  0  0  0  0  2  0  0  0  0  0  0
  183.8490  179.1680  143.9400 C   0  0  0  0  0  2  0  0  0  0  0  0
  182.4060  178.9390  144.3410 C   0  0  0  0  0  2  0  0  0  0  0  0
  181.5340  179.1910  143.1940 C   0  0  0  0  0  0  0  0  0  0  0  0
  180.8420  179.3890  142.2870 N   0  0  0  0  0  0  0  0  0  0  0  0
  1  2  2  0  0  0  0
  3  4  1  1  0  0  0
  3  1  1  0  0  0  0
  5  3  1  0  0  0  0
  6  5  2  0  0  0  0
  7  6  1  0  0  0  0
  8  7  1  0  0  0  0
 11  9  1  6  0  0  0
 11 14  1  0  0  0  0
 12 10  1  0  0  0  0
 13 11  1  0  0  0  0
 13 12  1  0  0  0  0
 13 16  1  1  0  0  0
 14  8  1  6  0  0  0
 14 10  1  0  0  0  0
 15 12  2  0  0  0  0
 16 17  1  6  0  0  0
 16 20  1  0  0  0  0
 17 19  2  0  0  0  0
 18 17  1  0  0  0  0
 20 22  1  0  0  0  0
 22 21  3  0  0  0  0
 23  1  1  6  0  0  0
 25 24  1  0  0  0  0
 25 29  2  0  0  0  0
 26 30  1  6  0  0  0
 26 24  1  0  0  0  0
 27 23  1  6  0  0  0
 27 28  1  0  0  0  0
 27 26  1  0  0  0  0
 28 26  1  0  0  0  0
 28 25  1  1  0  0  0
 31 30  1  0  0  0  0
 32 23  1  0  0  0  0
 32 33  1  0  0  0  0
 34 37  1  6  0  0  0
 34 36  1  0  0  0  0
 35 33  1  1  0  0  0
 35 34  1  0  0  0  0
 35 36  1  0  0  0  0
 37 38  1  0  0  0  0
 39 38  1  0  0  0  0
 40 39  3  0  0  0  0
M  END
>  <MODEL>
8

>  <REMARK>
 VINA RESULT:      -5.6      2.197      5.559
  Name = 
  18 active torsions:
  status: ('A' for Active; 'I' for Inactive)
    1  A    between atoms: C_1  and  C_25
    2  A    between atoms: C_2  and  C_8
    3  A    between atoms: C_4  and  C_32
    4  A    between atoms: C_6  and  C_8
    5  A    between atoms: C_6  and  C_40
    6  A    between atoms: C_10  and  C_38
    7  A    between atoms: C_11  and  C_28
    8  A    between atoms: C_11  and  C_32
    9  A    between atoms: C_12  and  C_24
   10  A    between atoms: C_16  and  S_26
   11  A    between atoms: C_17  and  N_23
   12  A    between atoms: N_21  and  N_23
   13  A    between atoms: N_21  and  C_40
   14  A    between atoms: C_25  and  C_38
   15  A    between atoms: S_26  and  C_36
   16  A    between atoms: C_27  and  C_36
   17  A    between atoms: C_29  and  C_40
   18  A    between atoms: C_30  and  C_36
                            x       y       z     vdW  Elec       q    Type
                         _______ _______ _______ _____ _____    ______ ____

>  <TORSDO>
F 18

$$$$
=
 OpenBabel11062417593D

 40 43  0  0  1  0  0  0  0  0999 V2000
  186.1380  177.2820  137.5940 C   0  0  0  0  0  0  0  0  0  0  0  0
  186.3360  176.1000  137.3460 O   0  0  0  0  0  0  0  0  0  0  0  0
  187.2850  178.2510  137.6100 C   0  0  2  0  0  3  0  0  0  0  0  0
  187.2910  179.0650  136.3300 C   0  0  0  0  0  1  0  0  0  0  0  0
  188.6000  177.5390  137.7530 C   0  0  0  0  0  3  0  0  0  0  0  0
  189.3310  177.5550  138.8760 C   0  0  0  0  0  3  0  0  0  0  0  0
  188.9190  178.2880  140.1130 C   0  0  0  0  0  2  0  0  0  0  0  0
  188.3080  177.3150  141.1100 C   0  0  0  0  0  2  0  0  0  0  0  0
  189.5880  175.6170  142.9840 O   0  0  0  0  0  1  0  0  0  0  0  0
  189.5370  178.7620  142.7150 N   0  0  0  0  0  2  0  0  0  0  0  0
  188.8300  176.6320  143.5720 C   0  0  1  0  0  3  0  0  0  0  0  0
  190.1850  178.5080  143.9440 C   0  0  0  0  0  0  0  0  0  0  0  0
  189.6700  177.3110  144.6620 C   0  0  1  0  0  3  0  0  0  0  0  0
  188.5110  177.7480  142.5620 C   0  0  2  0  0  3  0  0  0  0  0  0
  191.1270  179.2270  144.3690 O   0  0  0  0  0  0  0  0  0  0  0  0
  188.7820  177.7480  145.8390 C   0  0  2  0  0  3  0  0  0  0  0  0
  189.4760  177.5650  147.1510 C   0  0  0  0  0  0  0  0  0  0  0  0
  190.6250  176.7300  147.2270 N   0  0  0  0  0  1  0  0  0  0  0  0
  189.0580  178.1490  148.1850 O   0  0  0  0  0  0  0  0  0  0  0  0
  187.1920  176.8540  145.8710 S   0  0  0  0  0  0  0  0  0  0  0  0
  185.6820  179.3360  146.4910 C   0  0  0  0  0  3  0  0  0  0  0  0
  186.2960  178.3290  146.2410 C   0  0  0  0  0  0  0  0  0  0  0  0
  184.7340  177.7980  137.7840 C   0  0  2  0  0  3  0  0  0  0  0  0
  182.9770  178.6810  141.1400 C   0  0  0  0  0  2  0  0  0  0  0  0
  184.3930  178.4150  141.5950 C   0  0  0  0  0  0  0  0  0  0  0  0
  183.3460  178.7480  139.7010 C   0  0  2  0  0  0  0  0  0  0  0  0
  184.2020  177.5860  139.2070 C   0  0  2  0  0  3  0  0  0  0  0  0
  184.7740  178.6220  140.1440 C   0  0  2  0  0  3  0  0  0  0  0  0
  185.0270  178.2560  142.7520 C   0  0  0  0  0  2  0  0  0  0  0  0
  183.2450  180.0860  138.9820 C   0  0  0  0  0  2  0  0  0  0  0  0
  182.1100  180.1000  138.1730 O   0  0  0  0  0  1  0  0  0  0  0  0
  183.8250  177.2470  136.7780 N   0  0  0  0  0  2  0  0  0  0  0  0
  183.3590  175.9980  137.2180 N   0  0  0  0  0  2  0  0  0  0  0  0
  181.1190  175.1560  137.5350 C   0  0  1  0  0  3  0  0  0  0  0  0
  182.0950  175.7630  136.5480 C   0  0  1  0  0  3  0  0  0  0  0  0
  181.0200  176.6230  137.1810 C   0  0  0  0  0  2  0  0  0  0  0  0
  180.0630  174.3820  136.7730 C   0  0  0  0  0  2  0  0  0  0  0  0
  179.9170  172.9990  137.3730 C   0  0  0  0  0  2  0  0  0  0  0  0
  181.1690  172.2600  137.2110 C   0  0  0  0  0  0  0  0  0  0  0  0
  182.1600  171.6770  137.0830 N   0  0  0  0  0  0  0  0  0  0  0  0
  1  3  1  0  0  0  0
  1 23  1  0  0  0  0
  2  1  2  0  0  0  0
  3  4  1  6  0  0  0
  3  5  1  0  0  0  0
  5  6  2  0  0  0  0
  6  7  1  0  0  0  0
  7  8  1  0  0  0  0
 10 12  1  0  0  0  0
 11  9  1  6  0  0  0
 11 13  1  0  0  0  0
 12 15  2  0  0  0  0
 12 13  1  0  0  0  0
 13 16  1  1  0  0  0
 14  8  1  6  0  0  0
 14 10  1  0  0  0  0
 14 11  1  0  0  0  0
 16 20  1  1  0  0  0
 16 17  1  0  0  0  0
 17 18  1  0  0  0  0
 17 19  2  0  0  0  0
 20 22  1  0  0  0  0
 22 21  3  0  0  0  0
 23 32  1  6  0  0  0
 24 25  1  0  0  0  0
 25 29  2  0  0  0  0
 26 30  1  6  0  0  0
 26 28  1  0  0  0  0
 26 24  1  0  0  0  0
 27 23  1  6  0  0  0
 27 26  1  0  0  0  0
 27 28  1  0  0  0  0
 28 25  1  1  0  0  0
 31 30  1  0  0  0  0
 32 33  1  0  0  0  0
 34 37  1  6  0  0  0
 35 36  1  0  0  0  0
 35 33  1  1  0  0  0
 35 34  1  0  0  0  0
 36 34  1  0  0  0  0
 37 38  1  0  0  0  0
 39 38  1  0  0  0  0
 40 39  3  0  0  0  0
M  END
>  <MODEL>
9

>  <REMARK>
 VINA RESULT:      -5.5      2.787      8.918
  Name = 
  18 active torsions:
  status: ('A' for Active; 'I' for Inactive)
    1  A    between atoms: C_1  and  C_25
    2  A    between atoms: C_2  and  C_8
    3  A    between atoms: C_4  and  C_32
    4  A    between atoms: C_6  and  C_8
    5  A    between atoms: C_6  and  C_40
    6  A    between atoms: C_10  and  C_38
    7  A    between atoms: C_11  and  C_28
    8  A    between atoms: C_11  and  C_32
    9  A    between atoms: C_12  and  C_24
   10  A    between atoms: C_16  and  S_26
   11  A    between atoms: C_17  and  N_23
   12  A    between atoms: N_21  and  N_23
   13  A    between atoms: N_21  and  C_40
   14  A    between atoms: C_25  and  C_38
   15  A    between atoms: S_26  and  C_36
   16  A    between atoms: C_27  and  C_36
   17  A    between atoms: C_29  and  C_40
   18  A    between atoms: C_30  and  C_36
                            x       y       z     vdW  Elec       q    Type
                         _______ _______ _______ _____ _____    ______ ____

>  <TORSDO>
F 18

$$$$
