=
 OpenBabel11062415393D

 34 36  0  0  1  0  0  0  0  0999 V2000
  190.1270  176.4050  137.2840 C   0  0  0  0  0  2  0  0  0  0  0  0
  188.6750  176.5390  137.1940 N   0  0  1  0  0  0  0  0  0  0  0  0
  189.7390  177.8950  139.3210 C   0  0  2  0  0  3  0  0  0  0  0  0
  188.3080  177.9650  137.2030 C   0  0  0  0  0  2  0  0  0  0  0  0
  189.0760  178.7790  138.2600 C   0  0  0  0  0  2  0  0  0  0  0  0
  190.6090  176.8040  138.6820 C   0  0  0  0  0  2  0  0  0  0  0  0
  188.2660  173.4670  136.8460 C   0  0  0  0  0  2  0  0  0  0  0  0
  188.2360  175.8600  135.9650 C   0  0  1  0  0  3  0  0  0  0  0  0
  185.7390  175.1730  136.1800 C   0  0  0  0  0  0  0  0  0  0  0  0
  186.0180  174.0480  137.1430 C   0  0  2  0  0  3  0  0  0  0  0  0
  186.9030  173.0770  136.5200 N   0  0  0  0  0  2  0  0  0  0  0  0
  188.7970  174.4440  135.8070 C   0  0  0  0  0  2  0  0  0  0  0  0
  184.5600  175.4070  135.7980 O   0  0  0  0  0  0  0  0  0  0  0  0
  186.8020  175.9930  135.6720 N   0  0  0  0  0  2  0  0  0  0  0  0
  184.7440  173.3600  137.6250 C   0  0  0  0  0  2  0  0  0  0  0  0
  184.5550  172.0100  136.9440 C   0  0  0  0  0  2  0  0  0  0  0  0
  182.1840  172.6330  136.4750 C   0  0  0  0  0  1  0  0  0  0  0  0
  183.1070  171.5480  136.9980 C   0  0  0  0  0  2  0  0  0  0  0  0
  188.7290  177.2840  140.1730 N   0  0  0  0  0  2  0  0  0  0  0  0
  187.1430  177.4800  143.1180 C   0  0  0  0  0  2  0  0  0  0  0  0
  188.3120  178.1990  142.4460 C   0  0  1  0  0  3  0  0  0  0  0  0
  185.8290  178.2690  142.9500 C   0  0  2  0  0  3  0  0  0  0  0  0
  186.6080  178.4270  140.5380 C   0  0  0  0  0  2  0  0  0  0  0  0
  189.5130  177.5440  142.7300 O   0  0  0  0  0  1  0  0  0  0  0  0
  185.7820  179.0840  141.6410 C   0  0  0  0  0  2  0  0  0  0  0  0
  188.0910  178.3580  140.9240 C   0  0  2  0  0  3  0  0  0  0  0  0
  184.6870  180.2030  143.8260 O   0  0  0  0  0  1  0  0  0  0  0  0
  185.5850  179.1830  144.1550 C   0  0  1  0  0  3  0  0  0  0  0  0
  185.0660  178.3920  145.3610 C   0  0  2  0  0  3  0  0  0  0  0  0
  183.7560  178.7610  145.6790 O   0  0  0  0  0  1  0  0  0  0  0  0
  185.8120  179.5550  147.3540 N   0  0  0  0  0  2  0  0  0  0  0  0
  185.9630  178.5540  146.5480 C   0  0  0  0  0  0  0  0  0  0  0  0
  188.2340  177.8910  146.3660 O   0  0  0  0  0  0  0  0  0  0  0  0
  187.0640  177.6080  146.7380 C   0  0  0  0  0  3  0  0  0  0  0  0
  1  6  1  0  0  0  0
  2  4  1  6  0  0  0
  2  1  1  0  0  0  0
  3 19  1  6  0  0  0
  4  5  1  0  0  0  0
  5  3  1  0  0  0  0
  6  3  1  0  0  0  0
  8 12  1  1  0  0  0
  8  2  1  0  0  0  0
  9 10  1  0  0  0  0
 10 15  1  6  0  0  0
 11  7  1  0  0  0  0
 11 10  1  0  0  0  0
 12  7  1  0  0  0  0
 13  9  2  0  0  0  0
 14  8  1  0  0  0  0
 14  9  1  0  0  0  0
 16 18  1  0  0  0  0
 16 15  1  0  0  0  0
 17 18  1  0  0  0  0
 21 24  1  6  0  0  0
 21 20  1  0  0  0  0
 22 20  1  0  0  0  0
 22 28  1  1  0  0  0
 23 26  1  0  0  0  0
 23 25  1  0  0  0  0
 25 22  1  0  0  0  0
 26 19  1  6  0  0  0
 26 21  1  0  0  0  0
 28 27  1  6  0  0  0
 28 29  1  0  0  0  0
 29 30  1  1  0  0  0
 29 32  1  0  0  0  0
 32 34  1  0  0  0  0
 32 31  2  0  0  0  0
 33 34  2  0  0  0  0
M  END
>  <MODEL>
1

>  <REMARK>
 VINA RESULT:      -6.8      0.000      0.000
  Name = 
  10 active torsions:
  status: ('A' for Active; 'I' for Inactive)
    1  A    between atoms: C_7  and  C_33
    2  A    between atoms: CA_8  and  C_12
    3  A    between atoms: CA_8  and  C_23
    4  A    between atoms: C_9  and  N_10
    5  A    between atoms: C_11  and  N_21
    6  A    between atoms: C_12  and  C_33
    7  A    between atoms: C_18  and  C_27
    8  A    between atoms: C_20  and  C_27
    9  A    between atoms: C_20  and  C_32
   10  A    between atoms: N_21  and  C_34
                            x       y       z     vdW  Elec       q    Type
                         _______ _______ _______ _____ _____    ______ ____

>  <TORSDO>
F 10

$$$$
=
 OpenBabel11062415393D

 34 36  0  0  1  0  0  0  0  0999 V2000
  190.0470  176.3880  137.3650 C   0  0  0  0  0  2  0  0  0  0  0  0
  188.6030  176.5910  137.2770 N   0  0  1  0  0  0  0  0  0  0  0  0
  189.7250  177.8460  139.4360 C   0  0  2  0  0  3  0  0  0  0  0  0
  188.3040  178.0330  137.3200 C   0  0  0  0  0  2  0  0  0  0  0  0
  189.1060  178.7850  138.3960 C   0  0  0  0  0  2  0  0  0  0  0  0
  190.5440  176.7310  138.7730 C   0  0  0  0  0  2  0  0  0  0  0  0
  186.7440  174.0960  137.0730 C   0  0  0  0  0  2  0  0  0  0  0  0
  188.1360  175.9630  136.0320 C   0  0  1  0  0  3  0  0  0  0  0  0
  185.6610  176.6180  135.5880 C   0  0  0  0  0  0  0  0  0  0  0  0
  185.1160  175.7290  136.6760 C   0  0  2  0  0  3  0  0  0  0  0  0
  185.4750  174.3470  136.4080 N   0  0  0  0  0  2  0  0  0  0  0  0
  187.9010  174.4540  136.1510 C   0  0  0  0  0  2  0  0  0  0  0  0
  184.8790  177.3010  134.8720 O   0  0  0  0  0  0  0  0  0  0  0  0
  187.0710  176.7000  135.3370 N   0  0  0  0  0  2  0  0  0  0  0  0
  183.6030  175.8550  136.8320 C   0  0  0  0  0  2  0  0  0  0  0  0
  183.2420  176.8880  137.8930 C   0  0  0  0  0  2  0  0  0  0  0  0
  182.7920  177.2660  140.3190 C   0  0  0  0  0  1  0  0  0  0  0  0
  182.8520  176.2330  139.2090 C   0  0  0  0  0  2  0  0  0  0  0  0
  188.6860  177.2640  140.2730 N   0  0  0  0  0  2  0  0  0  0  0  0
  187.0190  177.4790  143.1720 C   0  0  0  0  0  2  0  0  0  0  0  0
  188.2420  178.1520  142.5510 C   0  0  1  0  0  3  0  0  0  0  0  0
  185.7510  178.3350  142.9800 C   0  0  2  0  0  3  0  0  0  0  0  0
  186.6130  178.5020  140.5970 C   0  0  0  0  0  2  0  0  0  0  0  0
  189.4000  177.4330  142.8580 O   0  0  0  0  0  1  0  0  0  0  0  0
  185.7860  179.1770  141.6880 C   0  0  0  0  0  2  0  0  0  0  0  0
  188.0770  178.3530  141.0270 C   0  0  2  0  0  3  0  0  0  0  0  0
  184.5920  180.2420  143.8920 O   0  0  0  0  0  1  0  0  0  0  0  0
  185.5140  179.2360  144.1960 C   0  0  1  0  0  3  0  0  0  0  0  0
  185.0320  178.4270  145.4060 C   0  0  2  0  0  3  0  0  0  0  0  0
  183.7050  178.7330  145.7200 O   0  0  0  0  0  1  0  0  0  0  0  0
  185.7470  179.6620  147.3660 N   0  0  0  0  0  2  0  0  0  0  0  0
  185.9170  178.6380  146.5940 C   0  0  0  0  0  0  0  0  0  0  0  0
  188.1670  177.9340  146.3250 O   0  0  0  0  0  0  0  0  0  0  0  0
  187.0310  177.7150  146.8220 C   0  0  0  0  0  3  0  0  0  0  0  0
  1  6  1  0  0  0  0
  2  4  1  6  0  0  0
  2  1  1  0  0  0  0
  3 19  1  6  0  0  0
  4  5  1  0  0  0  0
  5  3  1  0  0  0  0
  6  3  1  0  0  0  0
  8 12  1  1  0  0  0
  8  2  1  0  0  0  0
  9 10  1  0  0  0  0
 10 15  1  6  0  0  0
 11 10  1  0  0  0  0
 11  7  1  0  0  0  0
 12  7  1  0  0  0  0
 13  9  2  0  0  0  0
 14  9  1  0  0  0  0
 14  8  1  0  0  0  0
 15 16  1  0  0  0  0
 16 18  1  0  0  0  0
 18 17  1  0  0  0  0
 21 24  1  6  0  0  0
 21 20  1  0  0  0  0
 22 20  1  0  0  0  0
 22 28  1  1  0  0  0
 23 26  1  0  0  0  0
 23 25  1  0  0  0  0
 25 22  1  0  0  0  0
 26 19  1  6  0  0  0
 26 21  1  0  0  0  0
 28 27  1  6  0  0  0
 28 29  1  0  0  0  0
 29 30  1  1  0  0  0
 29 32  1  0  0  0  0
 32 34  1  0  0  0  0
 32 31  2  0  0  0  0
 33 34  2  0  0  0  0
M  END
>  <MODEL>
2

>  <REMARK>
 VINA RESULT:      -6.8      1.328      1.857
  Name = 
  10 active torsions:
  status: ('A' for Active; 'I' for Inactive)
    1  A    between atoms: C_7  and  C_33
    2  A    between atoms: CA_8  and  C_12
    3  A    between atoms: CA_8  and  C_23
    4  A    between atoms: C_9  and  N_10
    5  A    between atoms: C_11  and  N_21
    6  A    between atoms: C_12  and  C_33
    7  A    between atoms: C_18  and  C_27
    8  A    between atoms: C_20  and  C_27
    9  A    between atoms: C_20  and  C_32
   10  A    between atoms: N_21  and  C_34
                            x       y       z     vdW  Elec       q    Type
                         _______ _______ _______ _____ _____    ______ ____

>  <TORSDO>
F 10

$$$$
=
 OpenBabel11062415393D

 34 36  0  0  1  0  0  0  0  0999 V2000
  183.3310  178.8000  138.2300 C   0  0  0  0  0  2  0  0  0  0  0  0
  183.5960  177.3690  138.3610 N   0  0  1  0  0  0  0  0  0  0  0  0
  183.6290  178.6820  140.7630 C   0  0  2  0  0  3  0  0  0  0  0  0
  182.6700  176.7830  139.3450 C   0  0  0  0  0  2  0  0  0  0  0  0
  182.5160  177.6400  140.6140 C   0  0  0  0  0  2  0  0  0  0  0  0
  183.7740  179.5370  139.4980 C   0  0  0  0  0  2  0  0  0  0  0  0
  185.9250  176.4250  136.5140 C   0  0  0  0  0  2  0  0  0  0  0  0
  183.4500  176.7620  137.0290 C   0  0  1  0  0  3  0  0  0  0  0  0
  183.8440  174.1980  137.1810 C   0  0  0  0  0  0  0  0  0  0  0  0
  185.3340  174.3270  137.3660 C   0  0  2  0  0  3  0  0  0  0  0  0
  185.9150  175.0020  136.2170 N   0  0  0  0  0  2  0  0  0  0  0  0
  184.6140  177.0640  136.0810 C   0  0  0  0  0  2  0  0  0  0  0  0
  183.3040  173.0590  137.1390 O   0  0  0  0  0  0  0  0  0  0  0  0
  183.0120  175.3590  137.0420 N   0  0  0  0  0  2  0  0  0  0  0  0
  186.0160  172.9790  137.5800 C   0  0  0  0  0  2  0  0  0  0  0  0
  187.3040  172.8780  136.7720 C   0  0  0  0  0  2  0  0  0  0  0  0
  186.1110  171.3780  135.1720 C   0  0  0  0  0  1  0  0  0  0  0  0
  187.3760  171.5790  135.9850 C   0  0  0  0  0  2  0  0  0  0  0  0
  184.8950  178.0290  141.0650 N   0  0  0  0  0  2  0  0  0  0  0  0
  187.1900  177.1830  143.3550 C   0  0  0  0  0  2  0  0  0  0  0  0
  186.9450  178.3710  142.4270 C   0  0  1  0  0  3  0  0  0  0  0  0
  186.6380  177.4540  144.7690 C   0  0  2  0  0  3  0  0  0  0  0  0
  184.6040  178.2500  143.4740 C   0  0  0  0  0  2  0  0  0  0  0  0
  187.5750  178.1640  141.1970 O   0  0  0  0  0  1  0  0  0  0  0  0
  185.4080  178.3850  144.7650 C   0  0  0  0  0  2  0  0  0  0  0  0
  185.4380  178.6680  142.2570 C   0  0  2  0  0  3  0  0  0  0  0  0
  187.1920  178.4270  146.9040 O   0  0  0  0  0  1  0  0  0  0  0  0
  187.7320  178.0220  145.6800 C   0  0  1  0  0  3  0  0  0  0  0  0
  188.8530  177.0030  145.9090 C   0  0  2  0  0  3  0  0  0  0  0  0
  188.9630  176.6710  147.2620 O   0  0  0  0  0  1  0  0  0  0  0  0
  190.2210  178.6020  144.7040 N   0  0  0  0  0  2  0  0  0  0  0  0
  190.1620  177.5010  145.3810 C   0  0  0  0  0  0  0  0  0  0  0  0
  192.0770  176.8080  146.5980 O   0  0  0  0  0  0  0  0  0  0  0  0
  191.3610  176.6810  145.5700 C   0  0  0  0  0  3  0  0  0  0  0  0
  1  6  1  0  0  0  0
  2  1  1  6  0  0  0
  2  4  1  0  0  0  0
  3 19  1  6  0  0  0
  4  5  1  0  0  0  0
  5  3  1  0  0  0  0
  6  3  1  0  0  0  0
  8 12  1  1  0  0  0
  8 14  1  0  0  0  0
  8  2  1  0  0  0  0
  9 10  1  0  0  0  0
 10 15  1  6  0  0  0
 11  7  1  0  0  0  0
 11 10  1  0  0  0  0
 12  7  1  0  0  0  0
 13  9  2  0  0  0  0
 14  9  1  0  0  0  0
 16 15  1  0  0  0  0
 17 18  1  0  0  0  0
 18 16  1  0  0  0  0
 20 22  1  0  0  0  0
 21 24  1  6  0  0  0
 21 20  1  0  0  0  0
 22 28  1  1  0  0  0
 23 25  1  0  0  0  0
 25 22  1  0  0  0  0
 26 19  1  6  0  0  0
 26 21  1  0  0  0  0
 26 23  1  0  0  0  0
 28 29  1  0  0  0  0
 28 27  1  1  0  0  0
 29 30  1  1  0  0  0
 31 32  2  0  0  0  0
 32 34  1  0  0  0  0
 32 29  1  0  0  0  0
 34 33  2  0  0  0  0
M  END
>  <MODEL>
3

>  <REMARK>
 VINA RESULT:      -6.8      2.735      4.320
  Name = 
  10 active torsions:
  status: ('A' for Active; 'I' for Inactive)
    1  A    between atoms: C_7  and  C_33
    2  A    between atoms: CA_8  and  C_12
    3  A    between atoms: CA_8  and  C_23
    4  A    between atoms: C_9  and  N_10
    5  A    between atoms: C_11  and  N_21
    6  A    between atoms: C_12  and  C_33
    7  A    between atoms: C_18  and  C_27
    8  A    between atoms: C_20  and  C_27
    9  A    between atoms: C_20  and  C_32
   10  A    between atoms: N_21  and  C_34
                            x       y       z     vdW  Elec       q    Type
                         _______ _______ _______ _____ _____    ______ ____

>  <TORSDO>
F 10

$$$$
=
 OpenBabel11062415393D

 34 36  0  0  1  0  0  0  0  0999 V2000
  183.5940  178.5180  138.4450 C   0  0  0  0  0  2  0  0  0  0  0  0
  183.4160  177.1430  138.9060 N   0  0  1  0  0  0  0  0  0  0  0  0
  183.8670  178.9030  140.9540 C   0  0  2  0  0  3  0  0  0  0  0  0
  182.3670  177.1000  139.9380 C   0  0  0  0  0  2  0  0  0  0  0  0
  182.4910  178.2320  140.9740 C   0  0  0  0  0  2  0  0  0  0  0  0
  184.2510  179.3620  139.5410 C   0  0  0  0  0  2  0  0  0  0  0  0
  184.9320  177.1270  136.1800 C   0  0  0  0  0  2  0  0  0  0  0  0
  183.0800  176.3170  137.7360 C   0  0  1  0  0  3  0  0  0  0  0  0
  184.7460  174.3300  137.5530 C   0  0  0  0  0  0  0  0  0  0  0  0
  185.8900  175.1900  137.0800 C   0  0  2  0  0  3  0  0  0  0  0  0
  185.5280  175.8470  135.8340 N   0  0  0  0  0  2  0  0  0  0  0  0
  183.4330  176.9690  136.3970 C   0  0  0  0  0  2  0  0  0  0  0  0
  184.8960  173.0850  137.6830 O   0  0  0  0  0  0  0  0  0  0  0  0
  183.4660  174.9040  137.8560 N   0  0  0  0  0  2  0  0  0  0  0  0
  187.1810  174.3980  136.8980 C   0  0  0  0  0  2  0  0  0  0  0  0
  188.3940  175.3200  136.8740 C   0  0  0  0  0  2  0  0  0  0  0  0
  189.6950  176.8300  138.3770 C   0  0  0  0  0  1  0  0  0  0  0  0
  188.3070  176.3970  137.9440 C   0  0  0  0  0  2  0  0  0  0  0  0
  184.8810  177.9930  141.4690 N   0  0  0  0  0  2  0  0  0  0  0  0
  187.1950  177.0920  143.7180 C   0  0  0  0  0  2  0  0  0  0  0  0
  186.9930  178.2570  142.7500 C   0  0  1  0  0  3  0  0  0  0  0  0
  186.7090  177.4530  145.1370 C   0  0  2  0  0  3  0  0  0  0  0  0
  184.6860  178.3260  143.8750 C   0  0  0  0  0  2  0  0  0  0  0  0
  187.5670  177.9630  141.5110 O   0  0  0  0  0  1  0  0  0  0  0  0
  185.5400  178.4590  145.1330 C   0  0  0  0  0  2  0  0  0  0  0  0
  185.5030  178.6430  142.6160 C   0  0  2  0  0  3  0  0  0  0  0  0
  187.4310  178.2740  147.2850 O   0  0  0  0  0  1  0  0  0  0  0  0
  187.8660  177.9840  145.9890 C   0  0  1  0  0  3  0  0  0  0  0  0
  189.0310  176.9900  146.0330 C   0  0  2  0  0  3  0  0  0  0  0  0
  189.3400  176.6350  147.3490 O   0  0  0  0  0  1  0  0  0  0  0  0
  190.1830  178.6550  144.6990 N   0  0  0  0  0  2  0  0  0  0  0  0
  190.2400  177.5300  145.3350 C   0  0  0  0  0  0  0  0  0  0  0  0
  191.6860  175.9070  144.3860 O   0  0  0  0  0  0  0  0  0  0  0  0
  191.4650  176.7280  145.3150 C   0  0  0  0  0  3  0  0  0  0  0  0
  1  6  1  0  0  0  0
  2  1  1  6  0  0  0
  2  4  1  0  0  0  0
  3  5  1  0  0  0  0
  3 19  1  6  0  0  0
  4  5  1  0  0  0  0
  6  3  1  0  0  0  0
  7 12  1  0  0  0  0
  8 12  1  6  0  0  0
  8 14  1  0  0  0  0
  8  2  1  0  0  0  0
  9 13  2  0  0  0  0
  9 14  1  0  0  0  0
 10 15  1  6  0  0  0
 10  9  1  0  0  0  0
 11  7  1  0  0  0  0
 11 10  1  0  0  0  0
 16 15  1  0  0  0  0
 16 18  1  0  0  0  0
 18 17  1  0  0  0  0
 20 22  1  0  0  0  0
 21 24  1  6  0  0  0
 21 20  1  0  0  0  0
 22 28  1  1  0  0  0
 23 25  1  0  0  0  0
 25 22  1  0  0  0  0
 26 19  1  6  0  0  0
 26 21  1  0  0  0  0
 26 23  1  0  0  0  0
 28 29  1  0  0  0  0
 28 27  1  1  0  0  0
 29 30  1  1  0  0  0
 31 32  2  0  0  0  0
 32 29  1  0  0  0  0
 33 34  2  0  0  0  0
 34 32  1  0  0  0  0
M  END
>  <MODEL>
4

>  <REMARK>
 VINA RESULT:      -6.7      2.686      4.855
  Name = 
  10 active torsions:
  status: ('A' for Active; 'I' for Inactive)
    1  A    between atoms: C_7  and  C_33
    2  A    between atoms: CA_8  and  C_12
    3  A    between atoms: CA_8  and  C_23
    4  A    between atoms: C_9  and  N_10
    5  A    between atoms: C_11  and  N_21
    6  A    between atoms: C_12  and  C_33
    7  A    between atoms: C_18  and  C_27
    8  A    between atoms: C_20  and  C_27
    9  A    between atoms: C_20  and  C_32
   10  A    between atoms: N_21  and  C_34
                            x       y       z     vdW  Elec       q    Type
                         _______ _______ _______ _____ _____    ______ ____

>  <TORSDO>
F 10

$$$$
=
 OpenBabel11062415393D

 34 36  0  0  1  0  0  0  0  0999 V2000
  189.9700  176.6470  136.6780 C   0  0  0  0  0  2  0  0  0  0  0  0
  188.5340  176.4790  136.8880 N   0  0  1  0  0  0  0  0  0  0  0  0
  189.7320  177.9640  138.8520 C   0  0  2  0  0  3  0  0  0  0  0  0
  187.9040  177.7970  137.0720 C   0  0  0  0  0  2  0  0  0  0  0  0
  188.7000  178.7220  138.0100 C   0  0  0  0  0  2  0  0  0  0  0  0
  190.6460  177.0960  137.9780 C   0  0  0  0  0  2  0  0  0  0  0  0
  188.0490  173.4040  136.7010 C   0  0  0  0  0  2  0  0  0  0  0  0
  187.9910  175.7600  135.7260 C   0  0  1  0  0  3  0  0  0  0  0  0
  185.5070  175.1310  136.1600 C   0  0  0  0  0  0  0  0  0  0  0  0
  185.8410  174.0400  137.1440 C   0  0  2  0  0  3  0  0  0  0  0  0
  186.6590  173.0280  136.4970 N   0  0  0  0  0  2  0  0  0  0  0  0
  188.5140  174.3280  135.5840 C   0  0  0  0  0  2  0  0  0  0  0  0
  184.3060  175.3730  135.8600 O   0  0  0  0  0  0  0  0  0  0  0  0
  186.5410  175.9080  135.5380 N   0  0  0  0  0  2  0  0  0  0  0  0
  184.5970  173.3980  137.7510 C   0  0  0  0  0  2  0  0  0  0  0  0
  184.2970  172.0540  137.0990 C   0  0  0  0  0  2  0  0  0  0  0  0
  181.8160  171.7860  137.1430 C   0  0  0  0  0  1  0  0  0  0  0  0
  183.0190  172.0980  136.2750 C   0  0  0  0  0  2  0  0  0  0  0  0
  189.0620  177.1330  139.8430 N   0  0  0  0  0  2  0  0  0  0  0  0
  189.5850  176.4720  143.0860 C   0  0  0  0  0  2  0  0  0  0  0  0
  190.0830  177.5060  142.0770 C   0  0  1  0  0  3  0  0  0  0  0  0
  188.4150  177.0250  143.9240 C   0  0  2  0  0  3  0  0  0  0  0  0
  187.5650  177.7790  141.6530 C   0  0  0  0  0  2  0  0  0  0  0  0
  191.2290  177.0400  141.4290 O   0  0  0  0  0  1  0  0  0  0  0  0
  187.5590  178.0520  143.1550 C   0  0  0  0  0  2  0  0  0  0  0  0
  188.9790  177.9090  141.0730 C   0  0  2  0  0  3  0  0  0  0  0  0
  187.8700  178.1890  145.9640 O   0  0  0  0  0  1  0  0  0  0  0  0
  188.9260  177.6330  145.2350 C   0  0  1  0  0  3  0  0  0  0  0  0
  189.6640  176.5930  146.0840 C   0  0  2  0  0  3  0  0  0  0  0  0
  189.1210  176.5150  147.3690 O   0  0  0  0  0  1  0  0  0  0  0  0
  191.6470  177.8290  145.4360 N   0  0  0  0  0  2  0  0  0  0  0  0
  191.1320  176.8800  146.1480 C   0  0  0  0  0  0  0  0  0  0  0  0
  192.4600  176.4250  148.0610 O   0  0  0  0  0  0  0  0  0  0  0  0
  191.9870  176.0180  146.9660 C   0  0  0  0  0  3  0  0  0  0  0  0
  1  6  1  0  0  0  0
  2  1  1  6  0  0  0
  2  4  1  0  0  0  0
  3 19  1  1  0  0  0
  4  5  1  0  0  0  0
  5  3  1  0  0  0  0
  6  3  1  0  0  0  0
  8 12  1  1  0  0  0
  8  2  1  0  0  0  0
  9 10  1  0  0  0  0
 10 15  1  6  0  0  0
 11  7  1  0  0  0  0
 11 10  1  0  0  0  0
 12  7  1  0  0  0  0
 13  9  2  0  0  0  0
 14  8  1  0  0  0  0
 14  9  1  0  0  0  0
 16 15  1  0  0  0  0
 18 16  1  0  0  0  0
 18 17  1  0  0  0  0
 20 22  1  0  0  0  0
 21 24  1  6  0  0  0
 21 20  1  0  0  0  0
 22 28  1  1  0  0  0
 23 25  1  0  0  0  0
 25 22  1  0  0  0  0
 26 19  1  6  0  0  0
 26 23  1  0  0  0  0
 26 21  1  0  0  0  0
 28 27  1  1  0  0  0
 28 29  1  0  0  0  0
 29 32  1  0  0  0  0
 29 30  1  1  0  0  0
 31 32  2  0  0  0  0
 32 34  1  0  0  0  0
 34 33  2  0  0  0  0
M  END
>  <MODEL>
5

>  <REMARK>
 VINA RESULT:      -6.5      2.068      2.739
  Name = 
  10 active torsions:
  status: ('A' for Active; 'I' for Inactive)
    1  A    between atoms: C_7  and  C_33
    2  A    between atoms: CA_8  and  C_12
    3  A    between atoms: CA_8  and  C_23
    4  A    between atoms: C_9  and  N_10
    5  A    between atoms: C_11  and  N_21
    6  A    between atoms: C_12  and  C_33
    7  A    between atoms: C_18  and  C_27
    8  A    between atoms: C_20  and  C_27
    9  A    between atoms: C_20  and  C_32
   10  A    between atoms: N_21  and  C_34
                            x       y       z     vdW  Elec       q    Type
                         _______ _______ _______ _____ _____    ______ ____

>  <TORSDO>
F 10

$$$$
=
 OpenBabel11062415393D

 34 36  0  0  1  0  0  0  0  0999 V2000
  189.2360  176.7050  136.1060 C   0  0  0  0  0  2  0  0  0  0  0  0
  187.8530  176.7300  136.5760 N   0  0  1  0  0  0  0  0  0  0  0  0
  189.5930  177.9190  138.3240 C   0  0  2  0  0  3  0  0  0  0  0  0
  187.4700  178.1120  136.9130 C   0  0  0  0  0  2  0  0  0  0  0  0
  188.5510  178.8610  137.7130 C   0  0  0  0  0  2  0  0  0  0  0  0
  190.1940  176.9810  137.2690 C   0  0  0  0  0  2  0  0  0  0  0  0
  186.0220  174.2200  136.8440 C   0  0  0  0  0  2  0  0  0  0  0  0
  187.0070  176.1610  135.5160 C   0  0  1  0  0  3  0  0  0  0  0  0
  184.5230  176.8000  135.9300 C   0  0  0  0  0  0  0  0  0  0  0  0
  184.3560  175.8460  137.0850 C   0  0  2  0  0  3  0  0  0  0  0  0
  184.6070  174.4850  136.6390 N   0  0  0  0  0  2  0  0  0  0  0  0
  186.8210  174.6450  135.6200 C   0  0  0  0  0  2  0  0  0  0  0  0
  183.5530  177.5070  135.5440 O   0  0  0  0  0  0  0  0  0  0  0  0
  185.7770  176.9170  135.2430 N   0  0  0  0  0  2  0  0  0  0  0  0
  182.9750  175.9390  137.7270 C   0  0  0  0  0  2  0  0  0  0  0  0
  183.0460  176.6150  139.0910 C   0  0  0  0  0  2  0  0  0  0  0  0
  183.9550  178.9400  139.0340 C   0  0  0  0  0  1  0  0  0  0  0  0
  182.6960  178.0930  139.0070 C   0  0  0  0  0  2  0  0  0  0  0  0
  188.9970  177.1360  139.3980 N   0  0  0  0  0  2  0  0  0  0  0  0
  189.8050  176.1930  142.5100 C   0  0  0  0  0  2  0  0  0  0  0  0
  190.3780  177.1480  141.4640 C   0  0  1  0  0  3  0  0  0  0  0  0
  188.9190  176.9410  143.5260 C   0  0  2  0  0  3  0  0  0  0  0  0
  187.9520  177.9910  141.4260 C   0  0  0  0  0  2  0  0  0  0  0  0
  191.2870  176.4790  140.6410 O   0  0  0  0  0  1  0  0  0  0  0  0
  188.2180  178.1730  142.9180 C   0  0  0  0  0  2  0  0  0  0  0  0
  189.2640  177.8410  140.6460 C   0  0  2  0  0  3  0  0  0  0  0  0
  190.0670  178.7030  144.7060 O   0  0  0  0  0  1  0  0  0  0  0  0
  189.7320  177.3460  144.7610 C   0  0  1  0  0  3  0  0  0  0  0  0
  188.9710  177.0420  146.0560 C   0  0  2  0  0  3  0  0  0  0  0  0
  187.8590  177.8770  146.1940 O   0  0  0  0  0  1  0  0  0  0  0  0
  189.5310  177.8970  148.2540 N   0  0  0  0  0  2  0  0  0  0  0  0
  189.8630  177.1480  147.2530 C   0  0  0  0  0  0  0  0  0  0  0  0
  192.0580  176.7550  148.0630 O   0  0  0  0  0  0  0  0  0  0  0  0
  191.1540  176.4570  147.2380 C   0  0  0  0  0  3  0  0  0  0  0  0
  1  6  1  0  0  0  0
  2  1  1  6  0  0  0
  2  4  1  0  0  0  0
  3 19  1  1  0  0  0
  4  5  1  0  0  0  0
  5  3  1  0  0  0  0
  6  3  1  0  0  0  0
  8 12  1  1  0  0  0
  8  2  1  0  0  0  0
  9 10  1  0  0  0  0
 10 15  1  6  0  0  0
 11  7  1  0  0  0  0
 11 10  1  0  0  0  0
 12  7  1  0  0  0  0
 13  9  2  0  0  0  0
 14  8  1  0  0  0  0
 14  9  1  0  0  0  0
 15 16  1  0  0  0  0
 18 17  1  0  0  0  0
 18 16  1  0  0  0  0
 20 22  1  0  0  0  0
 21 24  1  6  0  0  0
 21 20  1  0  0  0  0
 22 28  1  1  0  0  0
 23 25  1  0  0  0  0
 25 22  1  0  0  0  0
 26 19  1  6  0  0  0
 26 23  1  0  0  0  0
 26 21  1  0  0  0  0
 28 27  1  6  0  0  0
 28 29  1  0  0  0  0
 29 30  1  1  0  0  0
 29 32  1  0  0  0  0
 32 31  2  0  0  0  0
 34 32  1  0  0  0  0
 34 33  2  0  0  0  0
M  END
>  <MODEL>
6

>  <REMARK>
 VINA RESULT:      -6.4      2.382      3.381
  Name = 
  10 active torsions:
  status: ('A' for Active; 'I' for Inactive)
    1  A    between atoms: C_7  and  C_33
    2  A    between atoms: CA_8  and  C_12
    3  A    between atoms: CA_8  and  C_23
    4  A    between atoms: C_9  and  N_10
    5  A    between atoms: C_11  and  N_21
    6  A    between atoms: C_12  and  C_33
    7  A    between atoms: C_18  and  C_27
    8  A    between atoms: C_20  and  C_27
    9  A    between atoms: C_20  and  C_32
   10  A    between atoms: N_21  and  C_34
                            x       y       z     vdW  Elec       q    Type
                         _______ _______ _______ _____ _____    ______ ____

>  <TORSDO>
F 10

$$$$
=
 OpenBabel11062415393D

 34 36  0  0  1  0  0  0  0  0999 V2000
  189.7740  177.0450  136.6710 C   0  0  0  0  0  2  0  0  0  0  0  0
  189.7610  176.6280  138.0710 N   0  0  1  0  0  0  0  0  0  0  0  0
  189.2040  174.5780  136.3440 C   0  0  2  0  0  3  0  0  0  0  0  0
  190.6550  175.4710  138.2500 C   0  0  0  0  0  2  0  0  0  0  0  0
  190.4980  174.4090  137.1470 C   0  0  0  0  0  2  0  0  0  0  0  0
  189.0570  176.0060  135.8030 C   0  0  0  0  0  2  0  0  0  0  0  0
  187.9280  178.2520  140.0020 C   0  0  0  0  0  2  0  0  0  0  0  0
  190.1730  177.7800  138.8870 C   0  0  1  0  0  3  0  0  0  0  0  0
  190.4660  177.0480  141.3630 C   0  0  0  0  0  0  0  0  0  0  0  0
  188.9850  176.9280  141.6170 C   0  0  2  0  0  3  0  0  0  0  0  0
  188.3420  178.2130  141.3950 N   0  0  0  0  0  2  0  0  0  0  0  0
  189.0540  178.7950  139.1330 C   0  0  0  0  0  2  0  0  0  0  0  0
  191.2910  176.8160  142.2880 O   0  0  0  0  0  0  0  0  0  0  0  0
  190.9660  177.4350  140.0750 N   0  0  0  0  0  2  0  0  0  0  0  0
  188.6710  176.4210  143.0220 C   0  0  0  0  0  2  0  0  0  0  0  0
  187.5960  177.2720  143.6870 C   0  0  0  0  0  2  0  0  0  0  0  0
  189.3540  177.8770  145.3530 C   0  0  0  0  0  1  0  0  0  0  0  0
  187.8950  177.5090  145.1600 C   0  0  0  0  0  2  0  0  0  0  0  0
  188.0510  174.2410  137.1680 N   0  0  0  0  0  2  0  0  0  0  0  0
  184.7860  173.5820  137.5290 C   0  0  0  0  0  2  0  0  0  0  0  0
  185.6370  174.4790  136.6310 C   0  0  1  0  0  3  0  0  0  0  0  0
  184.4440  172.2510  136.8280 C   0  0  2  0  0  3  0  0  0  0  0  0
  186.9190  172.2850  136.2590 C   0  0  0  0  0  2  0  0  0  0  0  0
  185.8160  175.7300  137.2260 O   0  0  0  0  0  1  0  0  0  0  0  0
  185.5350  171.7980  135.8360 C   0  0  0  0  0  2  0  0  0  0  0  0
  186.9860  173.8170  136.2690 C   0  0  2  0  0  3  0  0  0  0  0  0
  182.6920  171.0870  135.6500 O   0  0  0  0  0  1  0  0  0  0  0  0
  183.0870  172.3420  136.1220 C   0  0  1  0  0  3  0  0  0  0  0  0
  182.0120  172.9210  137.0480 C   0  0  2  0  0  3  0  0  0  0  0  0
  181.2090  171.9080  137.5820 O   0  0  0  0  0  1  0  0  0  0  0  0
  179.9030  173.7570  136.1930 N   0  0  0  0  0  2  0  0  0  0  0  0
  181.1740  173.9420  136.3450 C   0  0  0  0  0  0  0  0  0  0  0  0
  182.4000  175.9690  136.4880 O   0  0  0  0  0  0  0  0  0  0  0  0
  181.8290  175.1140  135.7590 C   0  0  0  0  0  3  0  0  0  0  0  0
  2  1  1  6  0  0  0
  2  4  1  0  0  0  0
  2  8  1  0  0  0  0
  3  5  1  0  0  0  0
  3 19  1  1  0  0  0
  5  4  1  0  0  0  0
  6  3  1  0  0  0  0
  6  1  1  0  0  0  0
  7 11  1  0  0  0  0
  8 12  1  1  0  0  0
  8 14  1  0  0  0  0
  9 10  1  0  0  0  0
  9 13  2  0  0  0  0
 10 15  1  1  0  0  0
 11 10  1  0  0  0  0
 12  7  1  0  0  0  0
 14  9  1  0  0  0  0
 15 16  1  0  0  0  0
 16 18  1  0  0  0  0
 18 17  1  0  0  0  0
 21 24  1  1  0  0  0
 21 20  1  0  0  0  0
 22 28  1  6  0  0  0
 22 20  1  0  0  0  0
 23 26  1  0  0  0  0
 25 23  1  0  0  0  0
 25 22  1  0  0  0  0
 26 21  1  0  0  0  0
 26 19  1  1  0  0  0
 28 27  1  1  0  0  0
 28 29  1  0  0  0  0
 29 30  1  6  0  0  0
 31 32  2  0  0  0  0
 32 29  1  0  0  0  0
 34 32  1  0  0  0  0
 34 33  2  0  0  0  0
M  END
>  <MODEL>
7

>  <REMARK>
 VINA RESULT:      -6.2      2.875      8.406
  Name = 
  10 active torsions:
  status: ('A' for Active; 'I' for Inactive)
    1  A    between atoms: C_7  and  C_33
    2  A    between atoms: CA_8  and  C_12
    3  A    between atoms: CA_8  and  C_23
    4  A    between atoms: C_9  and  N_10
    5  A    between atoms: C_11  and  N_21
    6  A    between atoms: C_12  and  C_33
    7  A    between atoms: C_18  and  C_27
    8  A    between atoms: C_20  and  C_27
    9  A    between atoms: C_20  and  C_32
   10  A    between atoms: N_21  and  C_34
                            x       y       z     vdW  Elec       q    Type
                         _______ _______ _______ _____ _____    ______ ____

>  <TORSDO>
F 10

$$$$
=
 OpenBabel11062415393D

 34 36  0  0  1  0  0  0  0  0999 V2000
  190.4220  177.8220  138.8720 C   0  0  0  0  0  2  0  0  0  0  0  0
  188.9890  177.5390  138.9000 N   0  0  1  0  0  0  0  0  0  0  0  0
  190.1320  177.5040  141.3880 C   0  0  2  0  0  3  0  0  0  0  0  0
  188.3250  178.4510  139.8480 C   0  0  0  0  0  2  0  0  0  0  0  0
  189.0890  178.6050  141.1750 C   0  0  0  0  0  2  0  0  0  0  0  0
  191.0750  177.3780  140.1840 C   0  0  0  0  0  2  0  0  0  0  0  0
  189.2850  175.4580  136.5970 C   0  0  0  0  0  2  0  0  0  0  0  0
  188.4740  177.6880  137.5310 C   0  0  1  0  0  3  0  0  0  0  0  0
  186.3330  176.2460  137.2320 C   0  0  0  0  0  0  0  0  0  0  0  0
  187.0850  174.9400  137.2030 C   0  0  2  0  0  3  0  0  0  0  0  0
  188.0240  174.9380  136.0930 N   0  0  0  0  0  2  0  0  0  0  0  0
  189.3180  176.9750  136.4710 C   0  0  0  0  0  2  0  0  0  0  0  0
  185.0790  176.2620  137.1020 O   0  0  0  0  0  0  0  0  0  0  0  0
  187.0230  177.4930  137.3990 N   0  0  0  0  0  2  0  0  0  0  0  0
  186.1570  173.7320  137.1040 C   0  0  0  0  0  2  0  0  0  0  0  0
  186.1440  173.1610  135.6920 C   0  0  0  0  0  2  0  0  0  0  0  0
  187.8310  171.3370  135.9330 C   0  0  0  0  0  1  0  0  0  0  0  0
  186.3680  171.6570  135.6880 C   0  0  0  0  0  2  0  0  0  0  0  0
  189.4760  176.2280  141.6350 N   0  0  0  0  0  2  0  0  0  0  0  0
  189.2330  177.6030  144.6810 C   0  0  0  0  0  2  0  0  0  0  0  0
  188.8110  176.2870  144.0290 C   0  0  1  0  0  3  0  0  0  0  0  0
  190.5740  177.4520  145.4280 C   0  0  2  0  0  3  0  0  0  0  0  0
  191.2690  176.2810  143.2840 C   0  0  0  0  0  2  0  0  0  0  0  0
  187.5310  176.4060  143.4810 O   0  0  0  0  0  1  0  0  0  0  0  0
  191.5010  176.3990  144.7880 C   0  0  0  0  0  2  0  0  0  0  0  0
  189.8420  175.8070  142.9820 C   0  0  2  0  0  3  0  0  0  0  0  0
  191.5510  177.1050  147.6040 O   0  0  0  0  0  1  0  0  0  0  0  0
  190.3400  177.1280  146.9070 C   0  0  1  0  0  3  0  0  0  0  0  0
  189.3760  178.1290  147.5530 C   0  0  2  0  0  3  0  0  0  0  0  0
  189.8980  178.6280  148.7500 O   0  0  0  0  0  1  0  0  0  0  0  0
  187.9140  176.3430  148.2960 N   0  0  0  0  0  2  0  0  0  0  0  0
  188.0260  177.5240  147.7780 C   0  0  0  0  0  0  0  0  0  0  0  0
  186.1910  177.8750  146.3160 O   0  0  0  0  0  0  0  0  0  0  0  0
  186.8390  178.2530  147.3290 C   0  0  0  0  0  3  0  0  0  0  0  0
  1  6  1  0  0  0  0
  2  1  1  6  0  0  0
  2  4  1  0  0  0  0
  3 19  1  6  0  0  0
  4  5  1  0  0  0  0
  5  3  1  0  0  0  0
  6  3  1  0  0  0  0
  8 12  1  6  0  0  0
  8  2  1  0  0  0  0
  9 14  1  0  0  0  0
 10 15  1  6  0  0  0
 10  9  1  0  0  0  0
 11  7  1  0  0  0  0
 11 10  1  0  0  0  0
 12  7  1  0  0  0  0
 13  9  2  0  0  0  0
 14  8  1  0  0  0  0
 16 15  1  0  0  0  0
 18 16  1  0  0  0  0
 18 17  1  0  0  0  0
 20 22  1  0  0  0  0
 21 24  1  6  0  0  0
 21 20  1  0  0  0  0
 22 28  1  1  0  0  0
 23 25  1  0  0  0  0
 25 22  1  0  0  0  0
 26 19  1  6  0  0  0
 26 23  1  0  0  0  0
 26 21  1  0  0  0  0
 28 29  1  0  0  0  0
 28 27  1  1  0  0  0
 29 32  1  0  0  0  0
 29 30  1  1  0  0  0
 32 31  2  0  0  0  0
 33 34  2  0  0  0  0
 34 32  1  0  0  0  0
M  END
>  <MODEL>
8

>  <REMARK>
 VINA RESULT:      -6.1      2.303      3.735
  Name = 
  10 active torsions:
  status: ('A' for Active; 'I' for Inactive)
    1  A    between atoms: C_7  and  C_33
    2  A    between atoms: CA_8  and  C_12
    3  A    between atoms: CA_8  and  C_23
    4  A    between atoms: C_9  and  N_10
    5  A    between atoms: C_11  and  N_21
    6  A    between atoms: C_12  and  C_33
    7  A    between atoms: C_18  and  C_27
    8  A    between atoms: C_20  and  C_27
    9  A    between atoms: C_20  and  C_32
   10  A    between atoms: N_21  and  C_34
                            x       y       z     vdW  Elec       q    Type
                         _______ _______ _______ _____ _____    ______ ____

>  <TORSDO>
F 10

$$$$
=
 OpenBabel11062415393D

 34 36  0  0  1  0  0  0  0  0999 V2000
  185.3020  175.5210  136.4970 C   0  0  0  0  0  2  0  0  0  0  0  0
  184.8970  176.9240  136.5540 N   0  0  1  0  0  0  0  0  0  0  0  0
  187.5790  176.6080  136.1020 C   0  0  2  0  0  3  0  0  0  0  0  0
  185.3580  177.6210  135.3420 C   0  0  0  0  0  2  0  0  0  0  0  0
  186.8060  177.2710  134.9570 C   0  0  0  0  0  2  0  0  0  0  0  0
  186.8190  175.4020  136.6710 C   0  0  0  0  0  2  0  0  0  0  0  0
  183.2460  175.6350  138.8650 C   0  0  0  0  0  2  0  0  0  0  0  0
  183.4330  176.9630  136.6960 C   0  0  1  0  0  3  0  0  0  0  0  0
  182.7690  178.6990  138.5120 C   0  0  0  0  0  0  0  0  0  0  0  0
  183.2270  177.8360  139.6600 C   0  0  2  0  0  3  0  0  0  0  0  0
  182.4860  176.5860  139.6610 N   0  0  0  0  0  2  0  0  0  0  0  0
  182.8470  175.7360  137.4000 C   0  0  0  0  0  2  0  0  0  0  0  0
  182.2560  179.8300  138.7310 O   0  0  0  0  0  0  0  0  0  0  0  0
  182.8980  178.2530  137.1540 N   0  0  0  0  0  2  0  0  0  0  0  0
  183.0800  178.5320  141.0100 C   0  0  0  0  0  2  0  0  0  0  0  0
  184.1510  178.0670  141.9890 C   0  0  0  0  0  2  0  0  0  0  0  0
  185.1300  178.6090  144.2200 C   0  0  0  0  0  1  0  0  0  0  0  0
  184.5810  179.1840  142.9280 C   0  0  0  0  0  2  0  0  0  0  0  0
  187.8370  177.5720  137.1620 N   0  0  0  0  0  2  0  0  0  0  0  0
  189.1290  178.4210  140.1350 C   0  0  0  0  0  2  0  0  0  0  0  0
  187.9930  177.5250  139.6420 C   0  0  1  0  0  3  0  0  0  0  0  0
  190.4120  177.6060  140.3960 C   0  0  2  0  0  3  0  0  0  0  0  0
  189.8550  176.6070  138.1290 C   0  0  0  0  0  2  0  0  0  0  0  0
  186.8060  178.2550  139.5470 O   0  0  0  0  0  1  0  0  0  0  0  0
  190.5390  176.3770  139.4740 C   0  0  0  0  0  2  0  0  0  0  0  0
  188.3470  176.8290  138.3080 C   0  0  2  0  0  3  0  0  0  0  0  0
  191.8280  177.1120  142.2830 O   0  0  0  0  0  1  0  0  0  0  0  0
  190.4950  177.1810  141.8660 C   0  0  1  0  0  3  0  0  0  0  0  0
  189.7070  178.1340  142.7700 C   0  0  2  0  0  3  0  0  0  0  0  0
  190.5660  178.9530  143.5090 O   0  0  0  0  0  1  0  0  0  0  0  0
  188.0170  176.4520  143.2120 N   0  0  0  0  0  2  0  0  0  0  0  0
  188.7800  177.3870  143.6780 C   0  0  0  0  0  0  0  0  0  0  0  0
  189.2530  177.1080  145.9860 O   0  0  0  0  0  0  0  0  0  0  0  0
  188.6920  177.7850  145.0840 C   0  0  0  0  0  3  0  0  0  0  0  0
  1  2  1  0  0  0  0
  1  6  1  0  0  0  0
  2  4  1  6  0  0  0
  2  8  1  0  0  0  0
  3  6  1  0  0  0  0
  3 19  1  1  0  0  0
  5  4  1  0  0  0  0
  5  3  1  0  0  0  0
  7 11  1  0  0  0  0
  8 14  1  0  0  0  0
  8 12  1  1  0  0  0
  9 13  2  0  0  0  0
  9 10  1  0  0  0  0
 10 11  1  0  0  0  0
 10 15  1  1  0  0  0
 12  7  1  0  0  0  0
 14  9  1  0  0  0  0
 15 16  1  0  0  0  0
 16 18  1  0  0  0  0
 18 17  1  0  0  0  0
 20 22  1  0  0  0  0
 21 24  1  6  0  0  0
 21 20  1  0  0  0  0
 22 28  1  1  0  0  0
 23 26  1  0  0  0  0
 23 25  1  0  0  0  0
 25 22  1  0  0  0  0
 26 19  1  6  0  0  0
 26 21  1  0  0  0  0
 28 27  1  1  0  0  0
 28 29  1  0  0  0  0
 29 30  1  1  0  0  0
 29 32  1  0  0  0  0
 31 32  2  0  0  0  0
 32 34  1  0  0  0  0
 34 33  2  0  0  0  0
M  END
>  <MODEL>
9

>  <REMARK>
 VINA RESULT:      -6.1      2.774      5.519
  Name = 
  10 active torsions:
  status: ('A' for Active; 'I' for Inactive)
    1  A    between atoms: C_7  and  C_33
    2  A    between atoms: CA_8  and  C_12
    3  A    between atoms: CA_8  and  C_23
    4  A    between atoms: C_9  and  N_10
    5  A    between atoms: C_11  and  N_21
    6  A    between atoms: C_12  and  C_33
    7  A    between atoms: C_18  and  C_27
    8  A    between atoms: C_20  and  C_27
    9  A    between atoms: C_20  and  C_32
   10  A    between atoms: N_21  and  C_34
                            x       y       z     vdW  Elec       q    Type
                         _______ _______ _______ _____ _____    ______ ____

>  <TORSDO>
F 10

$$$$
