=
 OpenBabel11062418043D

 63 70  0  0  1  0  0  0  0  0999 V2000
  186.1850  178.3990  141.4600 N   0  0  0  0  0  0  0  0  0  0  0  0
  187.4300  177.7750  137.2360 C   0  0  2  0  0  3  0  0  0  0  0  0
  182.2230  178.2650  138.8010 C   0  0  0  0  0  0  0  0  0  0  0  0
  188.1720  177.2940  138.4500 C   0  0  0  0  0  3  0  0  0  0  0  0
  188.5670  178.5410  141.8740 C   0  0  0  0  0  2  0  0  0  0  0  0
  185.7410  178.8080  138.6840 N   0  0  0  0  0  2  0  0  0  0  0  0
  188.4690  178.1590  139.4110 C   0  0  0  0  0  3  0  0  0  0  0  0
  188.9880  177.7690  140.6940 N   0  0  0  0  0  0  0  0  0  0  0  0
  189.8830  176.6500  140.8500 C   0  0  0  0  0  0  0  0  0  0  0  0
  183.4500  178.4640  139.2160 C   0  0  0  0  0  0  0  0  0  0  0  0
  185.9330  177.9150  137.5480 C   0  0  0  0  0  2  0  0  0  0  0  0
  184.9200  178.9700  141.0750 C   0  0  0  0  0  2  0  0  0  0  0  0
  184.6700  178.6830  139.6250 C   0  0  0  0  0  0  0  0  0  0  0  0
  190.3500  176.0570  139.8400 O   0  0  0  0  0  0  0  0  0  0  0  0
  187.2020  179.1500  141.6790 C   0  0  0  0  0  3  0  0  0  0  0  0
  180.9840  176.0800  138.7170 C   0  0  1  0  0  3  0  0  0  0  0  0
  181.8830  177.0690  137.9610 C   0  0  2  0  0  3  0  0  0  0  0  0
  183.1380  176.3890  137.4020 C   0  0  0  0  0  2  0  0  0  0  0  0
  179.7070  175.9400  138.0000 N   0  0  0  0  0  2  0  0  0  0  0  0
  182.8270  175.0900  136.6480 C   0  0  0  0  0  2  0  0  0  0  0  0
  181.3290  174.8000  136.5630 C   0  0  2  0  0  3  0  0  0  0  0  0
  180.6880  174.8460  137.9540 C   0  0  1  0  0  3  0  0  0  0  0  0
  181.0340  173.2200  135.7910 S   0  0  0  0  0  0  0  0  0  0  0  0
  179.6940  173.2360  135.1100 O   0  0  0  0  0  0  0  0  0  0  0  0
  181.0470  172.1400  136.8320 O   0  0  0  0  0  0  0  0  0  0  0  0
  182.2970  172.8750  134.5940 C   0  0  0  0  0  1  0  0  0  0  0  0
  180.2840  178.7280  140.0560 F   0  0  0  0  0  0  0  0  0  0  0  0
  180.4250  179.5270  137.9540 F   0  0  0  0  0  0  0  0  0  0  0  0
  181.1390  179.2600  139.1080 C   0  0  0  0  0  0  0  0  0  0  0  0
  181.6610  180.4480  139.5920 F   0  0  0  0  0  0  0  0  0  0  0  0
  187.2390  175.4860  136.1300 N   0  0  0  0  0  0  0  0  0  0  0  0
  187.6510  176.8600  136.0640 C   0  0  0  0  0  0  0  0  0  0  0  0
  188.1770  177.3010  135.0080 O   0  0  0  0  0  0  0  0  0  0  0  0
  186.9710  174.9100  137.3310 O   0  0  0  0  0  0  0  0  0  0  0  0
  185.9420  173.9940  137.0890 C   0  0  0  0  0  1  0  0  0  0  0  0
  186.7720  174.8280  134.9150 C   0  0  0  0  0  2  0  0  0  0  0  0
  187.0910  173.3270  134.9120 C   0  0  0  0  0  2  0  0  0  0  0  0
  188.4870  172.9980  134.5940 N   0  0  0  0  0  0  0  0  0  0  0  0
  192.4860  171.9650  134.6290 O   0  0  0  0  0  1  0  0  0  0  0  0
  188.8320  171.7270  135.2270 C   0  0  0  0  0  2  0  0  0  0  0  0
  190.2080  171.2860  134.7490 C   0  0  0  0  0  2  0  0  0  0  0  0
  190.8540  173.7300  134.6930 C   0  0  1  0  0  3  0  0  0  0  0  0
  191.2470  172.3180  135.1630 C   0  0  2  0  0  3  0  0  0  0  0  0
  189.3980  174.0500  135.0600 C   0  0  0  0  0  2  0  0  0  0  0  0
  191.1370  176.0040  135.4200 O   0  0  0  0  0  1  0  0  0  0  0  0
  191.8100  174.7880  135.2640 C   0  0  1  0  0  3  0  0  0  0  0  0
  192.9510  175.5300  137.3810 C   0  0  1  0  0  3  0  0  0  0  0  0
  193.9060  174.6700  136.6050 C   0  0  2  0  0  3  0  0  0  0  0  0
  192.4240  174.3430  136.5950 C   0  0  2  0  0  3  0  0  0  0  0  0
  194.2800  175.1310  138.0010 C   0  0  0  0  0  2  0  0  0  0  0  0
  190.2950  176.1730  142.2060 C   0  0  0  0  0  2  0  0  0  0  0  0
  190.8670  177.2670  142.9730 N   0  0  0  0  0  2  0  0  0  0  0  0
  190.9970  176.8060  144.3470 C   0  0  0  0  0  2  0  0  0  0  0  0
  190.1570  177.6530  145.2420 C   0  0  0  0  0  0  0  0  0  0  0  0
  190.0680  178.8540  145.0330 O   0  0  0  0  0  0  0  0  0  0  0  0
  189.4300  177.0220  146.3960 C   0  0  2  0  0  3  0  0  0  0  0  0
  189.0820  178.4110  148.3710 C   0  0  0  0  0  2  0  0  0  0  0  0
  187.2360  176.9760  147.6290 N   0  0  0  0  0  2  0  0  0  0  0  0
  187.9810  177.4830  146.4690 C   0  0  1  0  0  0  0  0  0  0  0  0
  187.7650  178.3560  147.6070 C   0  0  2  0  0  3  0  0  0  0  0  0
  190.0680  177.4600  147.7040 C   0  0  0  0  0  2  0  0  0  0  0  0
  187.2850  176.6640  144.3410 O   0  0  0  0  0  1  0  0  0  0  0  0
  187.1060  177.7090  145.2480 C   0  0  0  0  0  2  0  0  0  0  0  0
  1 15  2  0  0  0  0
  2 32  1  6  0  0  0
  2 11  1  0  0  0  0
  2  4  1  0  0  0  0
  3 29  1  0  0  0  0
  3 10  2  0  0  0  0
  4  7  2  0  0  0  0
  6 13  1  0  0  0  0
  7  8  1  0  0  0  0
  8  9  1  0  0  0  0
  8  5  1  0  0  0  0
  9 51  1  0  0  0  0
 10 13  2  0  0  0  0
 11  6  1  0  0  0  0
 12  1  1  0  0  0  0
 13 12  1  0  0  0  0
 14  9  2  0  0  0  0
 15  5  1  0  0  0  0
 16 19  1  6  0  0  0
 17 16  1  0  0  0  0
 17  3  1  1  0  0  0
 18 17  1  0  0  0  0
 20 18  1  0  0  0  0
 21 23  1  1  0  0  0
 21 20  1  0  0  0  0
 21 22  1  0  0  0  0
 22 19  1  6  0  0  0
 22 16  1  0  0  0  0
 23 25  2  0  0  0  0
 24 23  2  0  0  0  0
 26 23  1  0  0  0  0
 28 29  1  0  0  0  0
 29 30  1  0  0  0  0
 29 27  1  0  0  0  0
 31 34  1  0  0  0  0
 32 31  1  0  0  0  0
 33 32  2  0  0  0  0
 35 34  1  0  0  0  0
 36 31  1  0  0  0  0
 37 36  1  0  0  0  0
 38 37  1  0  0  0  0
 38 44  1  0  0  0  0
 38 40  1  0  0  0  0
 41 43  1  0  0  0  0
 41 40  1  0  0  0  0
 42 44  1  0  0  0  0
 42 43  1  0  0  0  0
 42 46  1  1  0  0  0
 43 39  1  6  0  0  0
 46 45  1  1  0  0  0
 47 50  1  1  0  0  0
 48 47  1  0  0  0  0
 48 50  1  1  0  0  0
 49 46  1  6  0  0  0
 49 48  1  0  0  0  0
 49 47  1  0  0  0  0
 51 52  1  0  0  0  0
 52 53  1  0  0  0  0
 53 54  1  0  0  0  0
 55 54  2  0  0  0  0
 56 54  1  6  0  0  0
 56 59  1  0  0  0  0
 56 61  1  0  0  0  0
 59 63  1  6  0  0  0
 59 60  1  0  0  0  0
 59 58  1  0  0  0  0
 60 58  1  0  0  0  0
 60 57  1  1  0  0  0
 61 57  1  0  0  0  0
 62 63  1  0  0  0  0
M  END
>  <MODEL>
1

>  <REMARK>
 VINA RESULT:      -7.0      0.000      0.000
  Name = 
  16 active torsions:
  status: ('A' for Active; 'I' for Inactive)
    1  A    between atoms: C_1  and  N_25
    2  A    between atoms: C_1  and  C_41
    3  A    between atoms: S_2  and  C_50
    4  A    between atoms: O_3  and  N_19
    5  A    between atoms: C_6  and  C_11
    6  A    between atoms: C_7  and  C_23
    7  A    between atoms: C_9  and  C_21
    8  A    between atoms: C_9  and  C_24
    9  A    between atoms: C_10  and  C_11
   10  A    between atoms: C_10  and  N_25
   11  A    between atoms: N_13  and  C_47
   12  A    between atoms: N_19  and  C_54
   13  A    between atoms: C_32  and  C_40
   14  A    between atoms: C_32  and  C_45
   15  A    between atoms: C_43  and  C_57
   16  A    between atoms: C_47  and  C_54
                            x       y       z     vdW  Elec       q    Type
                         _______ _______ _______ _____ _____    ______ ____

>  <TORSDO>
F 16

$$$$
=
 OpenBabel11062418043D

 63 70  0  0  1  0  0  0  0  0999 V2000
  190.6720  174.7570  134.6380 N   0  0  0  0  0  0  0  0  0  0  0  0
  190.8550  175.4510  139.0270 C   0  0  2  0  0  3  0  0  0  0  0  0
  186.2030  174.5800  136.3070 C   0  0  0  0  0  0  0  0  0  0  0  0
  191.8210  175.9910  138.0120 C   0  0  0  0  0  3  0  0  0  0  0  0
  193.0880  174.7950  134.7880 C   0  0  0  0  0  2  0  0  0  0  0  0
  189.6290  174.3010  137.2410 N   0  0  0  0  0  2  0  0  0  0  0  0
  192.3950  175.1560  137.1560 C   0  0  0  0  0  3  0  0  0  0  0  0
  193.1670  175.5900  136.0230 N   0  0  0  0  0  0  0  0  0  0  0  0
  193.9880  176.7740  136.0640 C   0  0  0  0  0  0  0  0  0  0  0  0
  187.5040  174.4750  136.1900 C   0  0  0  0  0  0  0  0  0  0  0  0
  189.4860  175.2000  138.3800 C   0  0  0  0  0  2  0  0  0  0  0  0
  189.3980  174.0900  134.7270 C   0  0  0  0  0  2  0  0  0  0  0  0
  188.7980  174.3500  136.0760 C   0  0  0  0  0  0  0  0  0  0  0  0
  194.1640  177.3950  137.1470 O   0  0  0  0  0  0  0  0  0  0  0  0
  191.7650  174.0850  134.6690 C   0  0  0  0  0  3  0  0  0  0  0  0
  184.0580  175.7270  136.9380 C   0  0  1  0  0  3  0  0  0  0  0  0
  185.5900  175.7430  137.0300 C   0  0  2  0  0  3  0  0  0  0  0  0
  186.1790  177.0790  136.5630 C   0  0  0  0  0  2  0  0  0  0  0  0
  183.4920  175.6220  138.2920 N   0  0  0  0  0  2  0  0  0  0  0  0
  185.4790  178.2910  137.1930 C   0  0  0  0  0  2  0  0  0  0  0  0
  184.3980  177.8940  138.1970 C   0  0  2  0  0  3  0  0  0  0  0  0
  183.4140  176.9010  137.5710 C   0  0  1  0  0  3  0  0  0  0  0  0
  183.5360  179.3330  138.8000 S   0  0  0  0  0  0  0  0  0  0  0  0
  184.4440  180.5290  138.7330 O   0  0  0  0  0  0  0  0  0  0  0  0
  183.1170  179.1100  140.2240 O   0  0  0  0  0  0  0  0  0  0  0  0
  182.0880  179.6380  137.8210 C   0  0  0  0  0  1  0  0  0  0  0  0
  186.0010  172.7140  134.8830 F   0  0  0  0  0  0  0  0  0  0  0  0
  184.2360  174.0970  135.1060 F   0  0  0  0  0  0  0  0  0  0  0  0
  185.2960  173.5080  135.7700 C   0  0  0  0  0  0  0  0  0  0  0  0
  184.7960  172.7090  136.7850 F   0  0  0  0  0  0  0  0  0  0  0  0
  189.5370  177.1480  140.3980 N   0  0  0  0  0  0  0  0  0  0  0  0
  190.7310  176.3740  140.2070 C   0  0  0  0  0  0  0  0  0  0  0  0
  191.6640  176.4520  141.0490 O   0  0  0  0  0  0  0  0  0  0  0  0
  188.6670  177.3260  139.3690 O   0  0  0  0  0  0  0  0  0  0  0  0
  188.8780  178.6340  138.9200 C   0  0  0  0  0  1  0  0  0  0  0  0
  189.0890  177.4340  141.7560 C   0  0  0  0  0  2  0  0  0  0  0  0
  189.9410  178.5180  142.4290 C   0  0  0  0  0  2  0  0  0  0  0  0
  190.1060  178.3560  143.8800 N   0  0  0  0  0  0  0  0  0  0  0  0
  190.3670  177.0060  147.7740 O   0  0  0  0  0  1  0  0  0  0  0  0
  191.0370  177.2590  144.1340 C   0  0  0  0  0  2  0  0  0  0  0  0
  191.3590  177.2100  145.6210 C   0  0  0  0  0  2  0  0  0  0  0  0
  188.9800  177.9510  146.0520 C   0  0  1  0  0  3  0  0  0  0  0  0
  190.0850  176.9410  146.4100 C   0  0  2  0  0  3  0  0  0  0  0  0
  188.8200  178.0790  144.5300 C   0  0  0  0  0  2  0  0  0  0  0  0
  187.4060  178.4020  147.8130 O   0  0  0  0  0  1  0  0  0  0  0  0
  187.6480  177.5690  146.7150 C   0  0  1  0  0  3  0  0  0  0  0  0
  185.8180  179.0020  145.7500 C   0  0  1  0  0  3  0  0  0  0  0  0
  185.1850  177.8580  146.4870 C   0  0  2  0  0  3  0  0  0  0  0  0
  186.4800  177.6350  145.7270 C   0  0  2  0  0  3  0  0  0  0  0  0
  184.3140  178.7970  145.6760 C   0  0  0  0  0  2  0  0  0  0  0  0
  194.6660  177.2870  134.8340 C   0  0  0  0  0  2  0  0  0  0  0  0
  196.0960  177.4130  135.0620 N   0  0  0  0  0  2  0  0  0  0  0  0
  196.7140  176.1790  134.6010 C   0  0  0  0  0  2  0  0  0  0  0  0
  197.1610  175.3730  135.7740 C   0  0  0  0  0  0  0  0  0  0  0  0
  197.8320  175.8980  136.6510 O   0  0  0  0  0  0  0  0  0  0  0  0
  196.7860  173.9200  135.8640 C   0  0  2  0  0  3  0  0  0  0  0  0
  198.6180  172.3140  135.9810 C   0  0  0  0  0  2  0  0  0  0  0  0
  196.6710  171.9500  137.4270 N   0  0  0  0  0  2  0  0  0  0  0  0
  196.9330  173.3880  137.2840 C   0  0  1  0  0  0  0  0  0  0  0  0
  198.0530  172.4730  137.3870 C   0  0  2  0  0  3  0  0  0  0  0  0
  197.7350  173.0930  135.0140 C   0  0  0  0  0  2  0  0  0  0  0  0
  195.2050  174.0960  138.7660 O   0  0  0  0  0  1  0  0  0  0  0  0
  196.5760  174.1880  138.5250 C   0  0  0  0  0  2  0  0  0  0  0  0
  1 15  2  0  0  0  0
  1 12  1  0  0  0  0
  2 32  1  1  0  0  0
  4  2  1  0  0  0  0
  5  8  1  0  0  0  0
  6 11  1  0  0  0  0
  7  4  2  0  0  0  0
  8  9  1  0  0  0  0
  8  7  1  0  0  0  0
  9 14  2  0  0  0  0
 10  3  2  0  0  0  0
 11  2  1  0  0  0  0
 12 13  1  0  0  0  0
 13 10  2  0  0  0  0
 13  6  1  0  0  0  0
 15  5  1  0  0  0  0
 16 17  1  0  0  0  0
 16 22  1  0  0  0  0
 16 19  1  1  0  0  0
 17  3  1  6  0  0  0
 18 17  1  0  0  0  0
 18 20  1  0  0  0  0
 20 21  1  0  0  0  0
 21 23  1  6  0  0  0
 22 21  1  0  0  0  0
 22 19  1  1  0  0  0
 23 25  2  0  0  0  0
 24 23  2  0  0  0  0
 26 23  1  0  0  0  0
 27 29  1  0  0  0  0
 28 29  1  0  0  0  0
 29  3  1  0  0  0  0
 29 30  1  0  0  0  0
 31 36  1  0  0  0  0
 32 31  1  0  0  0  0
 32 33  2  0  0  0  0
 34 31  1  0  0  0  0
 35 34  1  0  0  0  0
 36 37  1  0  0  0  0
 37 38  1  0  0  0  0
 38 40  1  0  0  0  0
 38 44  1  0  0  0  0
 40 41  1  0  0  0  0
 41 43  1  0  0  0  0
 42 43  1  0  0  0  0
 42 46  1  1  0  0  0
 43 39  1  1  0  0  0
 44 42  1  0  0  0  0
 46 45  1  1  0  0  0
 47 50  1  6  0  0  0
 47 48  1  0  0  0  0
 48 50  1  6  0  0  0
 49 47  1  0  0  0  0
 49 48  1  0  0  0  0
 49 46  1  1  0  0  0
 51 52  1  0  0  0  0
 51  9  1  0  0  0  0
 53 52  1  0  0  0  0
 53 54  1  0  0  0  0
 54 55  2  0  0  0  0
 56 54  1  1  0  0  0
 56 59  1  0  0  0  0
 59 60  1  0  0  0  0
 59 58  1  0  0  0  0
 59 63  1  1  0  0  0
 60 57  1  6  0  0  0
 60 58  1  0  0  0  0
 61 56  1  0  0  0  0
 61 57  1  0  0  0  0
 63 62  1  0  0  0  0
M  END
>  <MODEL>
2

>  <REMARK>
 VINA RESULT:      -7.0      3.743      9.562
  Name = 
  16 active torsions:
  status: ('A' for Active; 'I' for Inactive)
    1  A    between atoms: C_1  and  N_25
    2  A    between atoms: C_1  and  C_41
    3  A    between atoms: S_2  and  C_50
    4  A    between atoms: O_3  and  N_19
    5  A    between atoms: C_6  and  C_11
    6  A    between atoms: C_7  and  C_23
    7  A    between atoms: C_9  and  C_21
    8  A    between atoms: C_9  and  C_24
    9  A    between atoms: C_10  and  C_11
   10  A    between atoms: C_10  and  N_25
   11  A    between atoms: N_13  and  C_47
   12  A    between atoms: N_19  and  C_54
   13  A    between atoms: C_32  and  C_40
   14  A    between atoms: C_32  and  C_45
   15  A    between atoms: C_43  and  C_57
   16  A    between atoms: C_47  and  C_54
                            x       y       z     vdW  Elec       q    Type
                         _______ _______ _______ _____ _____    ______ ____

>  <TORSDO>
F 16

$$$$
=
 OpenBabel11062418043D

 63 70  0  0  1  0  0  0  0  0999 V2000
  181.8790  177.1800  140.6760 N   0  0  0  0  0  0  0  0  0  0  0  0
  185.3140  178.8360  138.3890 C   0  0  2  0  0  3  0  0  0  0  0  0
  182.1640  174.7650  136.5680 C   0  0  0  0  0  0  0  0  0  0  0  0
  185.1900  178.8030  139.8850 C   0  0  0  0  0  3  0  0  0  0  0  0
  182.3760  178.9710  142.2280 C   0  0  0  0  0  2  0  0  0  0  0  0
  183.1020  177.7960  138.1880 N   0  0  0  0  0  2  0  0  0  0  0  0
  184.0990  179.2990  140.4550 C   0  0  0  0  0  3  0  0  0  0  0  0
  183.7880  179.1330  141.8490 N   0  0  0  0  0  0  0  0  0  0  0  0
  184.8120  179.1070  142.8640 C   0  0  0  0  0  0  0  0  0  0  0  0
  182.2100  175.7120  137.4740 C   0  0  0  0  0  0  0  0  0  0  0  0
  184.4920  177.7010  137.7620 C   0  0  0  0  0  2  0  0  0  0  0  0
  181.2520  176.6570  139.4890 C   0  0  0  0  0  2  0  0  0  0  0  0
  182.2410  176.6660  138.3630 C   0  0  0  0  0  0  0  0  0  0  0  0
  186.0100  179.3670  142.5720 O   0  0  0  0  0  0  0  0  0  0  0  0
  181.5720  178.3450  141.1180 C   0  0  0  0  0  3  0  0  0  0  0  0
  183.9820  173.2320  137.3800 C   0  0  1  0  0  3  0  0  0  0  0  0
  183.4040  174.0090  136.1890 C   0  0  2  0  0  3  0  0  0  0  0  0
  184.4500  174.9190  135.5360 C   0  0  0  0  0  2  0  0  0  0  0  0
  183.9800  171.7940  137.0680 N   0  0  0  0  0  2  0  0  0  0  0  0
  185.7760  174.1980  135.2570 C   0  0  0  0  0  2  0  0  0  0  0  0
  185.7330  172.7160  135.6290 C   0  0  2  0  0  3  0  0  0  0  0  0
  185.2510  172.5330  137.0710 C   0  0  1  0  0  3  0  0  0  0  0  0
  187.3320  171.9610  135.4030 S   0  0  0  0  0  0  0  0  0  0  0  0
  188.2310  172.9020  134.6520 O   0  0  0  0  0  0  0  0  0  0  0  0
  187.1830  170.6890  134.6210 O   0  0  0  0  0  0  0  0  0  0  0  0
  188.0610  171.5820  136.9760 C   0  0  0  0  0  1  0  0  0  0  0  0
  179.8180  174.6280  136.7110 F   0  0  0  0  0  0  0  0  0  0  0  0
  180.9080  173.1420  135.4160 F   0  0  0  0  0  0  0  0  0  0  0  0
  180.8840  174.4560  135.8460 C   0  0  0  0  0  0  0  0  0  0  0  0
  180.7050  175.2800  134.7480 F   0  0  0  0  0  0  0  0  0  0  0  0
  187.6380  177.8040  138.5640 N   0  0  0  0  0  0  0  0  0  0  0  0
  186.7530  178.7590  137.9600 C   0  0  0  0  0  0  0  0  0  0  0  0
  187.1820  179.5160  137.0490 O   0  0  0  0  0  0  0  0  0  0  0  0
  187.3030  177.2090  139.7390 O   0  0  0  0  0  0  0  0  0  0  0  0
  188.0410  177.8760  140.7230 C   0  0  0  0  0  1  0  0  0  0  0  0
  188.7030  177.2170  137.7570 C   0  0  0  0  0  2  0  0  0  0  0  0
  189.0260  175.7800  138.1860 C   0  0  0  0  0  2  0  0  0  0  0  0
  190.4570  175.4450  138.1810 N   0  0  0  0  0  0  0  0  0  0  0  0
  194.5580  175.3200  137.7110 O   0  0  0  0  0  1  0  0  0  0  0  0
  191.2130  176.5800  138.7040 C   0  0  0  0  0  2  0  0  0  0  0  0
  192.6690  176.1730  138.8800 C   0  0  0  0  0  2  0  0  0  0  0  0
  192.4040  174.7300  136.8210 C   0  0  1  0  0  3  0  0  0  0  0  0
  193.2600  175.7950  137.5290 C   0  0  2  0  0  3  0  0  0  0  0  0
  190.9190  175.1210  136.8260 C   0  0  0  0  0  2  0  0  0  0  0  0
  193.4560  175.6570  134.8680 O   0  0  0  0  0  1  0  0  0  0  0  0
  192.9030  174.4830  135.3900 C   0  0  1  0  0  3  0  0  0  0  0  0
  193.2950  172.0730  134.7810 C   0  0  1  0  0  3  0  0  0  0  0  0
  193.4880  172.2250  136.2620 C   0  0  2  0  0  3  0  0  0  0  0  0
  193.9220  173.3410  135.3310 C   0  0  2  0  0  3  0  0  0  0  0  0
  193.8120  170.9000  135.5970 C   0  0  0  0  0  2  0  0  0  0  0  0
  184.4810  178.7890  144.2870 C   0  0  0  0  0  2  0  0  0  0  0  0
  184.6410  179.9690  145.1180 N   0  0  0  0  0  2  0  0  0  0  0  0
  185.8100  179.7490  145.9560 C   0  0  0  0  0  2  0  0  0  0  0  0
  185.6750  178.4480  146.6730 C   0  0  0  0  0  0  0  0  0  0  0  0
  184.7460  178.2760  147.4500 O   0  0  0  0  0  0  0  0  0  0  0  0
  186.6850  177.3610  146.4380 C   0  0  2  0  0  3  0  0  0  0  0  0
  188.4940  177.8560  144.8780 C   0  0  0  0  0  2  0  0  0  0  0  0
  189.0460  176.6450  146.9380 N   0  0  0  0  0  2  0  0  0  0  0  0
  187.9810  177.6220  147.1950 C   0  0  1  0  0  0  0  0  0  0  0  0
  189.0560  177.9730  146.2880 C   0  0  2  0  0  3  0  0  0  0  0  0
  187.0680  177.3270  144.9680 C   0  0  0  0  0  2  0  0  0  0  0  0
  189.3570  178.4920  148.9360 O   0  0  0  0  0  1  0  0  0  0  0  0
  188.0340  178.2110  148.5940 C   0  0  0  0  0  2  0  0  0  0  0  0
  1 15  2  0  0  0  0
  2 32  1  1  0  0  0
  2  4  1  0  0  0  0
  3 10  2  0  0  0  0
  4  7  2  0  0  0  0
  6 13  1  0  0  0  0
  7  8  1  0  0  0  0
  8  5  1  0  0  0  0
  8  9  1  0  0  0  0
  9 51  1  0  0  0  0
 10 13  2  0  0  0  0
 11  6  1  0  0  0  0
 11  2  1  0  0  0  0
 12  1  1  0  0  0  0
 13 12  1  0  0  0  0
 14  9  2  0  0  0  0
 15  5  1  0  0  0  0
 16 19  1  6  0  0  0
 17  3  1  1  0  0  0
 17 16  1  0  0  0  0
 18 17  1  0  0  0  0
 20 18  1  0  0  0  0
 20 21  1  0  0  0  0
 21 23  1  1  0  0  0
 21 22  1  0  0  0  0
 22 19  1  6  0  0  0
 22 16  1  0  0  0  0
 23 26  1  0  0  0  0
 24 23  2  0  0  0  0
 25 23  2  0  0  0  0
 28 29  1  0  0  0  0
 29  3  1  0  0  0  0
 29 27  1  0  0  0  0
 30 29  1  0  0  0  0
 31 34  1  0  0  0  0
 32 31  1  0  0  0  0
 33 32  2  0  0  0  0
 34 35  1  0  0  0  0
 36 37  1  0  0  0  0
 36 31  1  0  0  0  0
 38 37  1  0  0  0  0
 38 40  1  0  0  0  0
 40 41  1  0  0  0  0
 42 46  1  6  0  0  0
 42 44  1  0  0  0  0
 42 43  1  0  0  0  0
 43 39  1  1  0  0  0
 43 41  1  0  0  0  0
 44 38  1  0  0  0  0
 46 45  1  1  0  0  0
 47 49  1  0  0  0  0
 47 50  1  6  0  0  0
 47 48  1  0  0  0  0
 48 50  1  6  0  0  0
 49 46  1  1  0  0  0
 49 48  1  0  0  0  0
 51 52  1  0  0  0  0
 52 53  1  0  0  0  0
 53 54  1  0  0  0  0
 54 55  2  0  0  0  0
 56 54  1  6  0  0  0
 56 59  1  0  0  0  0
 57 61  1  0  0  0  0
 58 59  1  0  0  0  0
 59 63  1  1  0  0  0
 60 57  1  6  0  0  0
 60 58  1  0  0  0  0
 60 59  1  0  0  0  0
 61 56  1  0  0  0  0
 63 62  1  0  0  0  0
M  END
>  <MODEL>
3

>  <REMARK>
 VINA RESULT:      -6.7      2.904      4.768
  Name = 
  16 active torsions:
  status: ('A' for Active; 'I' for Inactive)
    1  A    between atoms: C_1  and  N_25
    2  A    between atoms: C_1  and  C_41
    3  A    between atoms: S_2  and  C_50
    4  A    between atoms: O_3  and  N_19
    5  A    between atoms: C_6  and  C_11
    6  A    between atoms: C_7  and  C_23
    7  A    between atoms: C_9  and  C_21
    8  A    between atoms: C_9  and  C_24
    9  A    between atoms: C_10  and  C_11
   10  A    between atoms: C_10  and  N_25
   11  A    between atoms: N_13  and  C_47
   12  A    between atoms: N_19  and  C_54
   13  A    between atoms: C_32  and  C_40
   14  A    between atoms: C_32  and  C_45
   15  A    between atoms: C_43  and  C_57
   16  A    between atoms: C_47  and  C_54
                            x       y       z     vdW  Elec       q    Type
                         _______ _______ _______ _____ _____    ______ ____

>  <TORSDO>
F 16

$$$$
=
 OpenBabel11062418043D

 63 70  0  0  1  0  0  0  0  0999 V2000
  182.9340  178.4110  143.0850 N   0  0  0  0  0  0  0  0  0  0  0  0
  186.4620  178.6570  140.3890 C   0  0  2  0  0  3  0  0  0  0  0  0
  181.4170  177.5040  138.6510 C   0  0  0  0  0  0  0  0  0  0  0  0
  186.4900  178.2600  141.8370 C   0  0  0  0  0  3  0  0  0  0  0  0
  184.4960  179.1550  144.7790 C   0  0  0  0  0  2  0  0  0  0  0  0
  184.0390  179.0060  140.5370 N   0  0  0  0  0  2  0  0  0  0  0  0
  185.9230  179.0540  142.7360 C   0  0  0  0  0  3  0  0  0  0  0  0
  185.7140  178.6740  144.1070 N   0  0  0  0  0  0  0  0  0  0  0  0
  186.6430  177.8350  144.8200 C   0  0  0  0  0  0  0  0  0  0  0  0
  182.0710  177.9840  139.6800 C   0  0  0  0  0  0  0  0  0  0  0  0
  185.0900  178.3410  139.7760 C   0  0  0  0  0  2  0  0  0  0  0  0
  182.0080  178.6530  142.0080 C   0  0  0  0  0  2  0  0  0  0  0  0
  182.7170  178.4810  140.6990 C   0  0  0  0  0  0  0  0  0  0  0  0
  187.7480  177.5170  144.3010 O   0  0  0  0  0  0  0  0  0  0  0  0
  183.3750  179.3830  143.7990 C   0  0  0  0  0  3  0  0  0  0  0  0
  181.0620  175.1370  137.8840 C   0  0  1  0  0  3  0  0  0  0  0  0
  181.9790  176.3680  137.8480 C   0  0  2  0  0  3  0  0  0  0  0  0
  183.4140  176.0270  138.2690 C   0  0  0  0  0  2  0  0  0  0  0  0
  180.6180  174.8230  136.5170 N   0  0  0  0  0  2  0  0  0  0  0  0
  183.9650  174.7860  137.5540 C   0  0  0  0  0  2  0  0  0  0  0  0
  182.9880  174.2090  136.5310 C   0  0  2  0  0  3  0  0  0  0  0  0
  181.6160  173.9650  137.1690 C   0  0  1  0  0  3  0  0  0  0  0  0
  183.6270  172.7020  135.8250 S   0  0  0  0  0  0  0  0  0  0  0  0
  184.4080  171.9510  136.8660 O   0  0  0  0  0  0  0  0  0  0  0  0
  184.5290  173.0290  134.6710 O   0  0  0  0  0  0  0  0  0  0  0  0
  182.2970  171.6840  135.2400 C   0  0  0  0  0  1  0  0  0  0  0  0
  179.9420  179.3280  138.8630 F   0  0  0  0  0  0  0  0  0  0  0  0
  179.0760  177.2710  138.5520 F   0  0  0  0  0  0  0  0  0  0  0  0
  180.1170  178.1180  138.2160 C   0  0  0  0  0  0  0  0  0  0  0  0
  180.0880  178.3360  136.8480 F   0  0  0  0  0  0  0  0  0  0  0  0
  187.7700  178.2950  138.2310 N   0  0  0  0  0  0  0  0  0  0  0  0
  187.5630  177.9830  139.6170 C   0  0  0  0  0  0  0  0  0  0  0  0
  188.3240  177.1600  140.1910 O   0  0  0  0  0  0  0  0  0  0  0  0
  186.7960  178.9180  137.5170 O   0  0  0  0  0  0  0  0  0  0  0  0
  186.2410  177.9300  136.6960 C   0  0  0  0  0  1  0  0  0  0  0  0
  189.1270  178.2700  137.6960 C   0  0  0  0  0  2  0  0  0  0  0  0
  189.1760  177.6950  136.2740 C   0  0  0  0  0  2  0  0  0  0  0  0
  190.0260  176.5070  136.1210 N   0  0  0  0  0  0  0  0  0  0  0  0
  192.2510  173.0610  136.6070 O   0  0  0  0  0  1  0  0  0  0  0  0
  189.3310  175.3490  136.6800 C   0  0  0  0  0  2  0  0  0  0  0  0
  190.1190  174.0880  136.3550 C   0  0  0  0  0  2  0  0  0  0  0  0
  192.2240  175.4660  136.6050 C   0  0  1  0  0  3  0  0  0  0  0  0
  191.4970  174.1670  136.9970 C   0  0  2  0  0  3  0  0  0  0  0  0
  191.3160  176.6880  136.7980 C   0  0  0  0  0  2  0  0  0  0  0  0
  193.3460  176.5140  138.4550 O   0  0  0  0  0  1  0  0  0  0  0  0
  193.5330  175.6240  137.3920 C   0  0  1  0  0  3  0  0  0  0  0  0
  195.3600  174.4500  138.6650 C   0  0  1  0  0  3  0  0  0  0  0  0
  195.3820  173.9610  137.2460 C   0  0  2  0  0  3  0  0  0  0  0  0
  194.0540  174.2790  137.9090 C   0  0  2  0  0  3  0  0  0  0  0  0
  196.2810  173.3060  138.2760 C   0  0  0  0  0  2  0  0  0  0  0  0
  186.3350  177.3340  146.1950 C   0  0  0  0  0  2  0  0  0  0  0  0
  187.3110  177.8380  147.1460 N   0  0  0  0  0  2  0  0  0  0  0  0
  188.4800  176.9770  147.0580 C   0  0  0  0  0  2  0  0  0  0  0  0
  189.6430  177.6410  147.7130 C   0  0  0  0  0  0  0  0  0  0  0  0
  189.4740  178.2980  148.7310 O   0  0  0  0  0  0  0  0  0  0  0  0
  191.0140  177.5010  147.1130 C   0  0  2  0  0  3  0  0  0  0  0  0
  191.5040  175.4110  145.9570 C   0  0  0  0  0  2  0  0  0  0  0  0
  192.2870  177.5010  144.9410 N   0  0  0  0  0  2  0  0  0  0  0  0
  190.9940  177.7140  145.6060 C   0  0  1  0  0  0  0  0  0  0  0  0
  191.2280  176.4700  144.8980 C   0  0  2  0  0  3  0  0  0  0  0  0
  191.5230  176.0850  147.3230 C   0  0  0  0  0  2  0  0  0  0  0  0
  190.8940  179.4590  143.9840 O   0  0  0  0  0  1  0  0  0  0  0  0
  190.1290  178.7520  144.9130 C   0  0  0  0  0  2  0  0  0  0  0  0
  1 15  2  0  0  0  0
  2 32  1  6  0  0  0
  2  4  1  0  0  0  0
  3 10  2  0  0  0  0
  4  7  2  0  0  0  0
  6 13  1  0  0  0  0
  7  8  1  0  0  0  0
  8  5  1  0  0  0  0
  8  9  1  0  0  0  0
  9 51  1  0  0  0  0
 10 13  2  0  0  0  0
 11  2  1  0  0  0  0
 11  6  1  0  0  0  0
 12  1  1  0  0  0  0
 13 12  1  0  0  0  0
 14  9  2  0  0  0  0
 15  5  1  0  0  0  0
 16 19  1  6  0  0  0
 17 16  1  0  0  0  0
 17 18  1  0  0  0  0
 17  3  1  1  0  0  0
 20 18  1  0  0  0  0
 21 23  1  1  0  0  0
 21 22  1  0  0  0  0
 21 20  1  0  0  0  0
 22 19  1  6  0  0  0
 22 16  1  0  0  0  0
 23 24  2  0  0  0  0
 25 23  2  0  0  0  0
 26 23  1  0  0  0  0
 29 28  1  0  0  0  0
 29  3  1  0  0  0  0
 29 27  1  0  0  0  0
 30 29  1  0  0  0  0
 31 32  1  0  0  0  0
 32 33  2  0  0  0  0
 34 31  1  0  0  0  0
 35 34  1  0  0  0  0
 36 31  1  0  0  0  0
 37 36  1  0  0  0  0
 38 37  1  0  0  0  0
 38 40  1  0  0  0  0
 38 44  1  0  0  0  0
 41 40  1  0  0  0  0
 41 43  1  0  0  0  0
 42 44  1  0  0  0  0
 42 43  1  0  0  0  0
 42 46  1  1  0  0  0
 43 39  1  6  0  0  0
 46 45  1  1  0  0  0
 47 50  1  1  0  0  0
 48 49  1  0  0  0  0
 48 50  1  1  0  0  0
 48 47  1  0  0  0  0
 49 46  1  6  0  0  0
 49 47  1  0  0  0  0
 51 52  1  0  0  0  0
 53 52  1  0  0  0  0
 53 54  1  0  0  0  0
 54 55  2  0  0  0  0
 56 61  1  0  0  0  0
 56 54  1  6  0  0  0
 57 61  1  0  0  0  0
 58 59  1  0  0  0  0
 59 63  1  6  0  0  0
 59 56  1  0  0  0  0
 60 58  1  0  0  0  0
 60 59  1  0  0  0  0
 60 57  1  1  0  0  0
 62 63  1  0  0  0  0
M  END
>  <MODEL>
4

>  <REMARK>
 VINA RESULT:      -6.6      2.086      3.541
  Name = 
  16 active torsions:
  status: ('A' for Active; 'I' for Inactive)
    1  A    between atoms: C_1  and  N_25
    2  A    between atoms: C_1  and  C_41
    3  A    between atoms: S_2  and  C_50
    4  A    between atoms: O_3  and  N_19
    5  A    between atoms: C_6  and  C_11
    6  A    between atoms: C_7  and  C_23
    7  A    between atoms: C_9  and  C_21
    8  A    between atoms: C_9  and  C_24
    9  A    between atoms: C_10  and  C_11
   10  A    between atoms: C_10  and  N_25
   11  A    between atoms: N_13  and  C_47
   12  A    between atoms: N_19  and  C_54
   13  A    between atoms: C_32  and  C_40
   14  A    between atoms: C_32  and  C_45
   15  A    between atoms: C_43  and  C_57
   16  A    between atoms: C_47  and  C_54
                            x       y       z     vdW  Elec       q    Type
                         _______ _______ _______ _____ _____    ______ ____

>  <TORSDO>
F 16

$$$$
=
 OpenBabel11062418043D

 63 70  0  0  1  0  0  0  0  0999 V2000
  190.3370  174.2610  134.9940 N   0  0  0  0  0  0  0  0  0  0  0  0
  190.5460  175.8550  139.1410 C   0  0  2  0  0  3  0  0  0  0  0  0
  185.8630  174.6270  136.6170 C   0  0  0  0  0  0  0  0  0  0  0  0
  191.5350  176.1290  138.0440 C   0  0  0  0  0  3  0  0  0  0  0  0
  192.7530  174.2290  135.1560 C   0  0  0  0  0  2  0  0  0  0  0  0
  189.2730  174.4080  137.6230 N   0  0  0  0  0  2  0  0  0  0  0  0
  192.0730  175.1090  137.3890 C   0  0  0  0  0  3  0  0  0  0  0  0
  192.8640  175.2620  136.1980 N   0  0  0  0  0  0  0  0  0  0  0  0
  193.7360  176.3920  135.9970 C   0  0  0  0  0  0  0  0  0  0  0  0
  187.1590  174.4460  136.5380 C   0  0  0  0  0  0  0  0  0  0  0  0
  189.1680  175.5310  138.5470 C   0  0  0  0  0  2  0  0  0  0  0  0
  189.0360  173.6820  135.2090 C   0  0  0  0  0  2  0  0  0  0  0  0
  188.4460  174.2450  136.4670 C   0  0  0  0  0  0  0  0  0  0  0  0
  193.9370  177.2200  136.9270 O   0  0  0  0  0  0  0  0  0  0  0  0
  191.4000  173.5660  135.1760 C   0  0  0  0  0  3  0  0  0  0  0  0
  186.3600  176.7980  137.7830 C   0  0  1  0  0  3  0  0  0  0  0  0
  185.3010  175.9410  137.0740 C   0  0  2  0  0  3  0  0  0  0  0  0
  184.0450  175.7560  137.9350 C   0  0  0  0  0  2  0  0  0  0  0  0
  186.5460  178.0530  137.0370 N   0  0  0  0  0  2  0  0  0  0  0  0
  183.5250  177.0750  138.5220 C   0  0  0  0  0  2  0  0  0  0  0  0
  184.3340  178.2870  138.0620 C   0  0  2  0  0  3  0  0  0  0  0  0
  185.8290  178.0710  138.3200 C   0  0  1  0  0  3  0  0  0  0  0  0
  183.7670  179.7710  138.8710 S   0  0  0  0  0  0  0  0  0  0  0  0
  184.5190  180.9550  138.3350 O   0  0  0  0  0  0  0  0  0  0  0  0
  184.0050  179.6610  140.3490 O   0  0  0  0  0  0  0  0  0  0  0  0
  182.0300  180.0000  138.5890 C   0  0  0  0  0  1  0  0  0  0  0  0
  185.5460  172.5760  135.5050 F   0  0  0  0  0  0  0  0  0  0  0  0
  183.8130  174.0100  135.6380 F   0  0  0  0  0  0  0  0  0  0  0  0
  184.9120  173.5060  136.3090 C   0  0  0  0  0  0  0  0  0  0  0  0
  184.4770  172.8750  137.4630 F   0  0  0  0  0  0  0  0  0  0  0  0
  190.6570  176.7980  141.5060 N   0  0  0  0  0  0  0  0  0  0  0  0
  190.4610  177.0100  140.0990 C   0  0  0  0  0  0  0  0  0  0  0  0
  190.2410  178.1720  139.6700 O   0  0  0  0  0  0  0  0  0  0  0  0
  190.5790  175.5450  142.0260 O   0  0  0  0  0  0  0  0  0  0  0  0
  191.3040  175.5880  143.2220 C   0  0  0  0  0  1  0  0  0  0  0  0
  191.2820  177.8520  142.2990 C   0  0  0  0  0  2  0  0  0  0  0  0
  190.3430  178.3880  143.3880 C   0  0  0  0  0  2  0  0  0  0  0  0
  188.9320  178.0160  143.2180 N   0  0  0  0  0  0  0  0  0  0  0  0
  184.8290  177.8970  142.7520 O   0  0  0  0  0  1  0  0  0  0  0  0
  188.3770  178.7540  142.0860 C   0  0  0  0  0  2  0  0  0  0  0  0
  186.9780  178.2350  141.7860 C   0  0  0  0  0  2  0  0  0  0  0  0
  186.6910  177.8840  144.2740 C   0  0  1  0  0  3  0  0  0  0  0  0
  186.0770  178.4710  142.9910 C   0  0  2  0  0  3  0  0  0  0  0  0
  188.1580  178.3100  144.4310 C   0  0  0  0  0  2  0  0  0  0  0  0
  184.5070  178.0760  145.2600 O   0  0  0  0  0  1  0  0  0  0  0  0
  185.8690  178.2780  145.5090 C   0  0  1  0  0  3  0  0  0  0  0  0
  186.8350  178.4390  147.8270 C   0  0  1  0  0  3  0  0  0  0  0  0
  187.7970  177.6750  146.9640 C   0  0  2  0  0  3  0  0  0  0  0  0
  186.3040  177.5030  146.7560 C   0  0  2  0  0  3  0  0  0  0  0  0
  188.0580  177.7900  148.4540 C   0  0  0  0  0  2  0  0  0  0  0  0
  194.4370  176.6060  134.6940 C   0  0  0  0  0  2  0  0  0  0  0  0
  195.8740  176.4820  134.8680 N   0  0  0  0  0  2  0  0  0  0  0  0
  196.1620  175.0690  135.0650 C   0  0  0  0  0  2  0  0  0  0  0  0
  197.3660  174.9190  135.9320 C   0  0  0  0  0  0  0  0  0  0  0  0
  198.3520  175.6120  135.7280 O   0  0  0  0  0  0  0  0  0  0  0  0
  197.3580  173.9110  137.0470 C   0  0  2  0  0  3  0  0  0  0  0  0
  195.1760  173.1660  137.8440 C   0  0  0  0  0  2  0  0  0  0  0  0
  196.9460  171.4870  137.5860 N   0  0  0  0  0  2  0  0  0  0  0  0
  197.0590  172.5080  136.5370 C   0  0  1  0  0  0  0  0  0  0  0  0
  195.7420  172.0670  136.9540 C   0  0  2  0  0  3  0  0  0  0  0  0
  196.2430  174.2390  138.0260 C   0  0  0  0  0  2  0  0  0  0  0  0
  197.1300  170.6540  135.0390 O   0  0  0  0  0  1  0  0  0  0  0  0
  197.5890  171.9590  135.2230 C   0  0  0  0  0  2  0  0  0  0  0  0
  1 15  2  0  0  0  0
  1 12  1  0  0  0  0
  2 32  1  1  0  0  0
  4  2  1  0  0  0  0
  5 15  1  0  0  0  0
  5  8  1  0  0  0  0
  6 11  1  0  0  0  0
  7  4  2  0  0  0  0
  8  7  1  0  0  0  0
  9  8  1  0  0  0  0
  9 14  2  0  0  0  0
 10  3  2  0  0  0  0
 11  2  1  0  0  0  0
 12 13  1  0  0  0  0
 13 10  2  0  0  0  0
 13  6  1  0  0  0  0
 16 19  1  6  0  0  0
 16 22  1  0  0  0  0
 17  3  1  1  0  0  0
 17 16  1  0  0  0  0
 17 18  1  0  0  0  0
 18 20  1  0  0  0  0
 21 22  1  0  0  0  0
 21 20  1  0  0  0  0
 21 23  1  1  0  0  0
 22 19  1  6  0  0  0
 23 25  2  0  0  0  0
 24 23  2  0  0  0  0
 26 23  1  0  0  0  0
 27 29  1  0  0  0  0
 28 29  1  0  0  0  0
 29  3  1  0  0  0  0
 29 30  1  0  0  0  0
 31 34  1  0  0  0  0
 31 36  1  0  0  0  0
 32 31  1  0  0  0  0
 33 32  2  0  0  0  0
 34 35  1  0  0  0  0
 36 37  1  0  0  0  0
 38 37  1  0  0  0  0
 38 44  1  0  0  0  0
 40 38  1  0  0  0  0
 41 40  1  0  0  0  0
 41 43  1  0  0  0  0
 42 44  1  0  0  0  0
 42 46  1  1  0  0  0
 43 39  1  6  0  0  0
 43 42  1  0  0  0  0
 46 45  1  6  0  0  0
 47 50  1  1  0  0  0
 48 47  1  0  0  0  0
 48 50  1  1  0  0  0
 49 46  1  6  0  0  0
 49 48  1  0  0  0  0
 49 47  1  0  0  0  0
 51 52  1  0  0  0  0
 51  9  1  0  0  0  0
 52 53  1  0  0  0  0
 53 54  1  0  0  0  0
 55 54  2  0  0  0  0
 56 54  1  6  0  0  0
 56 61  1  0  0  0  0
 57 61  1  0  0  0  0
 59 63  1  6  0  0  0
 59 60  1  0  0  0  0
 59 56  1  0  0  0  0
 59 58  1  0  0  0  0
 60 58  1  0  0  0  0
 60 57  1  1  0  0  0
 62 63  1  0  0  0  0
M  END
>  <MODEL>
5

>  <REMARK>
 VINA RESULT:      -6.2      3.551      9.494
  Name = 
  16 active torsions:
  status: ('A' for Active; 'I' for Inactive)
    1  A    between atoms: C_1  and  N_25
    2  A    between atoms: C_1  and  C_41
    3  A    between atoms: S_2  and  C_50
    4  A    between atoms: O_3  and  N_19
    5  A    between atoms: C_6  and  C_11
    6  A    between atoms: C_7  and  C_23
    7  A    between atoms: C_9  and  C_21
    8  A    between atoms: C_9  and  C_24
    9  A    between atoms: C_10  and  C_11
   10  A    between atoms: C_10  and  N_25
   11  A    between atoms: N_13  and  C_47
   12  A    between atoms: N_19  and  C_54
   13  A    between atoms: C_32  and  C_40
   14  A    between atoms: C_32  and  C_45
   15  A    between atoms: C_43  and  C_57
   16  A    between atoms: C_47  and  C_54
                            x       y       z     vdW  Elec       q    Type
                         _______ _______ _______ _____ _____    ______ ____

>  <TORSDO>
F 16

$$$$
=
 OpenBabel11062418043D

 63 70  0  0  1  0  0  0  0  0999 V2000
  185.3230  176.3540  135.4750 N   0  0  0  0  0  0  0  0  0  0  0  0
  184.8670  177.7340  139.6780 C   0  0  2  0  0  3  0  0  0  0  0  0
  180.8210  177.8490  136.0140 C   0  0  0  0  0  0  0  0  0  0  0  0
  186.1370  177.7640  138.8770 C   0  0  0  0  0  3  0  0  0  0  0  0
  187.5320  175.6800  136.2040 C   0  0  0  0  0  2  0  0  0  0  0  0
  183.6990  176.7130  137.7780 N   0  0  0  0  0  2  0  0  0  0  0  0
  186.5510  176.6540  138.2800 C   0  0  0  0  0  3  0  0  0  0  0  0
  187.6300  176.6220  137.3300 N   0  0  0  0  0  0  0  0  0  0  0  0
  188.7780  177.4860  137.4450 C   0  0  0  0  0  0  0  0  0  0  0  0
  182.0070  177.3340  136.2290 C   0  0  0  0  0  0  0  0  0  0  0  0
  183.6480  177.8010  138.7470 C   0  0  0  0  0  2  0  0  0  0  0  0
  183.9070  176.1340  135.3210 C   0  0  0  0  0  2  0  0  0  0  0  0
  183.1780  176.8020  136.4480 C   0  0  0  0  0  0  0  0  0  0  0  0
  188.9370  178.2080  138.4660 O   0  0  0  0  0  0  0  0  0  0  0  0
  186.0960  175.3980  135.8420 C   0  0  0  0  0  3  0  0  0  0  0  0
  180.5350  180.2270  135.2530 C   0  0  1  0  0  3  0  0  0  0  0  0
  180.5080  179.2540  136.4400 C   0  0  2  0  0  3  0  0  0  0  0  0
  181.4180  179.7190  137.5840 C   0  0  0  0  0  2  0  0  0  0  0  0
  179.2050  180.8360  135.0960 N   0  0  0  0  0  2  0  0  0  0  0  0
  181.2060  181.1940  137.9510 C   0  0  0  0  0  2  0  0  0  0  0  0
  180.0880  181.8500  137.1410 C   0  0  2  0  0  3  0  0  0  0  0  0
  180.3090  181.6390  135.6400 C   0  0  1  0  0  3  0  0  0  0  0  0
  179.9720  183.5890  137.5180 S   0  0  0  0  0  0  0  0  0  0  0  0
  181.3370  184.1250  137.8470 O   0  0  0  0  0  0  0  0  0  0  0  0
  179.0640  183.7900  138.6950 O   0  0  0  0  0  0  0  0  0  0  0  0
  179.3120  184.4760  136.1300 C   0  0  0  0  0  1  0  0  0  0  0  0
  180.2950  176.0460  134.5940 F   0  0  0  0  0  0  0  0  0  0  0  0
  178.9350  177.8430  134.6050 F   0  0  0  0  0  0  0  0  0  0  0  0
  179.7300  177.0270  135.3900 C   0  0  0  0  0  0  0  0  0  0  0  0
  178.9360  176.4210  136.3490 F   0  0  0  0  0  0  0  0  0  0  0  0
  183.9300  178.7850  141.8030 N   0  0  0  0  0  0  0  0  0  0  0  0
  184.8330  178.8470  140.6890 C   0  0  0  0  0  0  0  0  0  0  0  0
  185.6150  179.8280  140.5750 O   0  0  0  0  0  0  0  0  0  0  0  0
  182.8790  177.9240  141.7840 O   0  0  0  0  0  0  0  0  0  0  0  0
  181.7920  178.6680  141.3110 C   0  0  0  0  0  1  0  0  0  0  0  0
  184.3370  179.3690  143.0760 C   0  0  0  0  0  2  0  0  0  0  0  0
  185.8320  179.1620  143.3550 C   0  0  0  0  0  2  0  0  0  0  0  0
  186.1330  178.5260  144.6450 N   0  0  0  0  0  0  0  0  0  0  0  0
  187.2660  177.5960  148.5060 O   0  0  0  0  0  1  0  0  0  0  0  0
  185.5180  179.3070  145.7160 C   0  0  0  0  0  2  0  0  0  0  0  0
  185.6630  178.5540  147.0310 C   0  0  0  0  0  2  0  0  0  0  0  0
  187.9010  177.7310  146.1910 C   0  0  1  0  0  3  0  0  0  0  0  0
  187.1390  178.3800  147.3600 C   0  0  2  0  0  3  0  0  0  0  0  0
  187.5810  178.4330  144.8640 C   0  0  0  0  0  2  0  0  0  0  0  0
  189.7770  176.5320  147.0990 O   0  0  0  0  0  1  0  0  0  0  0  0
  189.4140  177.7200  146.4570 C   0  0  1  0  0  3  0  0  0  0  0  0
  189.9780  176.7480  144.2050 C   0  0  1  0  0  3  0  0  0  0  0  0
  191.2270  176.7690  145.0390 C   0  0  2  0  0  3  0  0  0  0  0  0
  190.2210  177.8980  145.1670 C   0  0  2  0  0  3  0  0  0  0  0  0
  191.3100  176.3730  143.5770 C   0  0  0  0  0  2  0  0  0  0  0  0
  189.8160  177.5390  136.3700 C   0  0  0  0  0  2  0  0  0  0  0  0
  190.3120  176.2050  136.0820 N   0  0  0  0  0  2  0  0  0  0  0  0
  191.7070  176.3400  135.6900 C   0  0  0  0  0  2  0  0  0  0  0  0
  192.5230  175.2950  136.3730 C   0  0  0  0  0  0  0  0  0  0  0  0
  192.1320  174.8090  137.4240 O   0  0  0  0  0  0  0  0  0  0  0  0
  193.8230  174.8520  135.7630 C   0  0  2  0  0  3  0  0  0  0  0  0
  195.6320  174.2990  137.3030 C   0  0  0  0  0  2  0  0  0  0  0  0
  195.2920  172.8480  135.3550 N   0  0  0  0  0  2  0  0  0  0  0  0
  194.0010  173.3420  135.8510 C   0  0  1  0  0  0  0  0  0  0  0  0
  195.0350  172.9900  136.8040 C   0  0  2  0  0  3  0  0  0  0  0  0
  194.9840  175.4480  136.5410 C   0  0  0  0  0  2  0  0  0  0  0  0
  193.3880  171.1020  135.3100 O   0  0  0  0  0  1  0  0  0  0  0  0
  192.8670  172.3480  135.6600 C   0  0  0  0  0  2  0  0  0  0  0  0
  1 15  2  0  0  0  0
  2 32  1  1  0  0  0
  3 10  2  0  0  0  0
  4  2  1  0  0  0  0
  5  8  1  0  0  0  0
  6 11  1  0  0  0  0
  7  4  2  0  0  0  0
  8  9  1  0  0  0  0
  8  7  1  0  0  0  0
  9 14  2  0  0  0  0
 10 13  2  0  0  0  0
 11  2  1  0  0  0  0
 12  1  1  0  0  0  0
 12 13  1  0  0  0  0
 13  6  1  0  0  0  0
 15  5  1  0  0  0  0
 16 19  1  6  0  0  0
 16 22  1  0  0  0  0
 16 17  1  0  0  0  0
 17  3  1  6  0  0  0
 17 18  1  0  0  0  0
 18 20  1  0  0  0  0
 21 23  1  6  0  0  0
 21 20  1  0  0  0  0
 22 19  1  6  0  0  0
 22 21  1  0  0  0  0
 23 24  2  0  0  0  0
 23 25  2  0  0  0  0
 26 23  1  0  0  0  0
 27 29  1  0  0  0  0
 28 29  1  0  0  0  0
 29  3  1  0  0  0  0
 29 30  1  0  0  0  0
 31 36  1  0  0  0  0
 32 31  1  0  0  0  0
 33 32  2  0  0  0  0
 34 31  1  0  0  0  0
 35 34  1  0  0  0  0
 36 37  1  0  0  0  0
 37 38  1  0  0  0  0
 38 44  1  0  0  0  0
 38 40  1  0  0  0  0
 40 41  1  0  0  0  0
 41 43  1  0  0  0  0
 42 46  1  1  0  0  0
 42 43  1  0  0  0  0
 43 39  1  1  0  0  0
 44 42  1  0  0  0  0
 46 45  1  6  0  0  0
 47 50  1  6  0  0  0
 47 48  1  0  0  0  0
 47 49  1  0  0  0  0
 48 50  1  6  0  0  0
 48 49  1  0  0  0  0
 49 46  1  1  0  0  0
 51  9  1  0  0  0  0
 52 51  1  0  0  0  0
 53 52  1  0  0  0  0
 53 54  1  0  0  0  0
 54 55  2  0  0  0  0
 56 59  1  0  0  0  0
 56 54  1  1  0  0  0
 56 61  1  0  0  0  0
 58 59  1  0  0  0  0
 58 60  1  0  0  0  0
 59 63  1  6  0  0  0
 59 60  1  0  0  0  0
 60 57  1  6  0  0  0
 61 57  1  0  0  0  0
 62 63  1  0  0  0  0
M  END
>  <MODEL>
6

>  <REMARK>
 VINA RESULT:      -5.4      3.565      9.007
  Name = 
  16 active torsions:
  status: ('A' for Active; 'I' for Inactive)
    1  A    between atoms: C_1  and  N_25
    2  A    between atoms: C_1  and  C_41
    3  A    between atoms: S_2  and  C_50
    4  A    between atoms: O_3  and  N_19
    5  A    between atoms: C_6  and  C_11
    6  A    between atoms: C_7  and  C_23
    7  A    between atoms: C_9  and  C_21
    8  A    between atoms: C_9  and  C_24
    9  A    between atoms: C_10  and  C_11
   10  A    between atoms: C_10  and  N_25
   11  A    between atoms: N_13  and  C_47
   12  A    between atoms: N_19  and  C_54
   13  A    between atoms: C_32  and  C_40
   14  A    between atoms: C_32  and  C_45
   15  A    between atoms: C_43  and  C_57
   16  A    between atoms: C_47  and  C_54
                            x       y       z     vdW  Elec       q    Type
                         _______ _______ _______ _____ _____    ______ ____

>  <TORSDO>
F 16

$$$$
=
 OpenBabel11062418043D

 63 70  0  0  1  0  0  0  0  0999 V2000
  181.1740  178.0230  141.5840 N   0  0  0  0  0  0  0  0  0  0  0  0
  185.1640  178.8030  139.7800 C   0  0  2  0  0  3  0  0  0  0  0  0
  181.0450  176.4480  137.0790 C   0  0  0  0  0  0  0  0  0  0  0  0
  184.8940  178.5420  141.2340 C   0  0  0  0  0  3  0  0  0  0  0  0
  182.0800  179.2240  143.4810 C   0  0  0  0  0  2  0  0  0  0  0  0
  182.7630  178.6310  139.3090 N   0  0  0  0  0  2  0  0  0  0  0  0
  183.9760  179.2650  141.8610 C   0  0  0  0  0  3  0  0  0  0  0  0
  183.4970  178.9640  143.1830 N   0  0  0  0  0  0  0  0  0  0  0  0
  184.3540  178.4070  144.1990 C   0  0  0  0  0  0  0  0  0  0  0  0
  181.3110  177.1400  138.1600 C   0  0  0  0  0  0  0  0  0  0  0  0
  184.0800  178.1490  138.9110 C   0  0  0  0  0  2  0  0  0  0  0  0
  180.5270  177.9690  140.2980 C   0  0  0  0  0  2  0  0  0  0  0  0
  181.5680  177.8480  139.2260 C   0  0  0  0  0  0  0  0  0  0  0  0
  185.5940  178.2930  144.0010 O   0  0  0  0  0  0  0  0  0  0  0  0
  181.2250  179.1220  142.2450 C   0  0  0  0  0  3  0  0  0  0  0  0
  181.2730  174.0930  136.2320 C   0  0  1  0  0  3  0  0  0  0  0  0
  181.9980  175.3980  136.5890 C   0  0  2  0  0  3  0  0  0  0  0  0
  183.1470  175.1640  137.5780 C   0  0  0  0  0  2  0  0  0  0  0  0
  181.4780  173.7990  134.8050 N   0  0  0  0  0  2  0  0  0  0  0  0
  184.0640  174.0060  137.1620 C   0  0  0  0  0  2  0  0  0  0  0  0
  183.6680  173.3900  135.8210 C   0  0  2  0  0  3  0  0  0  0  0  0
  182.1860  173.0020  135.8180 C   0  0  1  0  0  3  0  0  0  0  0  0
  184.6860  171.9730  135.4510 S   0  0  0  0  0  0  0  0  0  0  0  0
  183.9150  171.0100  134.5940 O   0  0  0  0  0  0  0  0  0  0  0  0
  185.0820  171.2910  136.7270 O   0  0  0  0  0  0  0  0  0  0  0  0
  186.1550  172.4790  134.5940 C   0  0  0  0  0  1  0  0  0  0  0  0
  180.1720  177.1540  135.0090 F   0  0  0  0  0  0  0  0  0  0  0  0
  179.0760  177.7250  136.8930 F   0  0  0  0  0  0  0  0  0  0  0  0
  179.8080  176.7280  136.2740 C   0  0  0  0  0  0  0  0  0  0  0  0
  179.0110  175.6020  136.1540 F   0  0  0  0  0  0  0  0  0  0  0  0
  186.7620  177.7960  138.0680 N   0  0  0  0  0  0  0  0  0  0  0  0
  186.5320  178.3220  139.3840 C   0  0  0  0  0  0  0  0  0  0  0  0
  187.4900  178.4020  140.1980 O   0  0  0  0  0  0  0  0  0  0  0  0
  185.7130  177.4070  137.2950 O   0  0  0  0  0  0  0  0  0  0  0  0
  186.1070  177.6530  135.9760 C   0  0  0  0  0  1  0  0  0  0  0  0
  188.0600  178.0100  137.4380 C   0  0  0  0  0  2  0  0  0  0  0  0
  188.4610  176.8380  136.5310 C   0  0  0  0  0  2  0  0  0  0  0  0
  189.8670  176.4290  136.6430 N   0  0  0  0  0  0  0  0  0  0  0  0
  193.4780  174.6390  137.5470 O   0  0  0  0  0  1  0  0  0  0  0  0
  189.9660  174.9910  136.4030 C   0  0  0  0  0  2  0  0  0  0  0  0
  191.4340  174.5960  136.3280 C   0  0  0  0  0  2  0  0  0  0  0  0
  191.8890  176.3640  138.0780 C   0  0  1  0  0  3  0  0  0  0  0  0
  192.1130  174.9010  137.6570 C   0  0  2  0  0  3  0  0  0  0  0  0
  190.4070  176.7510  137.9700 C   0  0  0  0  0  2  0  0  0  0  0  0
  193.7220  177.1300  139.4320 O   0  0  0  0  0  1  0  0  0  0  0  0
  192.4220  176.6170  139.4960 C   0  0  1  0  0  3  0  0  0  0  0  0
  191.9940  177.7190  141.7180 C   0  0  1  0  0  3  0  0  0  0  0  0
  190.8460  176.8010  141.4150 C   0  0  2  0  0  3  0  0  0  0  0  0
  191.5130  177.5640  140.2860 C   0  0  2  0  0  3  0  0  0  0  0  0
  190.7760  177.7120  142.6260 C   0  0  0  0  0  2  0  0  0  0  0  0
  183.8040  177.9660  145.5180 C   0  0  0  0  0  2  0  0  0  0  0  0
  184.2890  178.8290  146.5810 N   0  0  0  0  0  2  0  0  0  0  0  0
  185.4530  178.1800  147.1640 C   0  0  0  0  0  2  0  0  0  0  0  0
  186.5490  179.1770  147.3400 C   0  0  0  0  0  0  0  0  0  0  0  0
  186.3380  180.3580  147.1040 O   0  0  0  0  0  0  0  0  0  0  0  0
  187.9040  178.7190  147.8010 C   0  0  2  0  0  3  0  0  0  0  0  0
  188.0310  176.5100  148.8270 C   0  0  0  0  0  2  0  0  0  0  0  0
  189.8080  177.1610  147.2670 N   0  0  0  0  0  2  0  0  0  0  0  0
  188.5210  177.7200  146.8310 C   0  0  1  0  0  0  0  0  0  0  0  0
  188.5550  176.3870  147.4030 C   0  0  2  0  0  3  0  0  0  0  0  0
  187.7730  177.9820  149.1230 C   0  0  0  0  0  2  0  0  0  0  0  0
  188.5730  176.5640  144.7470 O   0  0  0  0  0  1  0  0  0  0  0  0
  188.3940  177.8230  145.3210 C   0  0  0  0  0  2  0  0  0  0  0  0
  1 15  2  0  0  0  0
  2 32  1  6  0  0  0
  2  4  1  0  0  0  0
  3 10  2  0  0  0  0
  4  7  2  0  0  0  0
  7  8  1  0  0  0  0
  8  5  1  0  0  0  0
  8  9  1  0  0  0  0
  9 51  1  0  0  0  0
 10 13  2  0  0  0  0
 11  6  1  0  0  0  0
 11  2  1  0  0  0  0
 12  1  1  0  0  0  0
 13  6  1  0  0  0  0
 13 12  1  0  0  0  0
 14  9  2  0  0  0  0
 15  5  1  0  0  0  0
 16 19  1  6  0  0  0
 16 17  1  0  0  0  0
 17  3  1  1  0  0  0
 17 18  1  0  0  0  0
 20 18  1  0  0  0  0
 21 23  1  1  0  0  0
 21 20  1  0  0  0  0
 22 19  1  6  0  0  0
 22 21  1  0  0  0  0
 22 16  1  0  0  0  0
 23 25  2  0  0  0  0
 24 23  2  0  0  0  0
 26 23  1  0  0  0  0
 27 29  1  0  0  0  0
 29 28  1  0  0  0  0
 29  3  1  0  0  0  0
 30 29  1  0  0  0  0
 31 32  1  0  0  0  0
 32 33  2  0  0  0  0
 34 31  1  0  0  0  0
 35 34  1  0  0  0  0
 36 31  1  0  0  0  0
 37 38  1  0  0  0  0
 37 36  1  0  0  0  0
 38 44  1  0  0  0  0
 40 38  1  0  0  0  0
 41 40  1  0  0  0  0
 41 43  1  0  0  0  0
 42 46  1  1  0  0  0
 43 39  1  6  0  0  0
 43 42  1  0  0  0  0
 44 42  1  0  0  0  0
 46 45  1  6  0  0  0
 47 50  1  1  0  0  0
 48 47  1  0  0  0  0
 48 50  1  1  0  0  0
 49 46  1  6  0  0  0
 49 48  1  0  0  0  0
 49 47  1  0  0  0  0
 51 52  1  0  0  0  0
 52 53  1  0  0  0  0
 53 54  1  0  0  0  0
 55 54  2  0  0  0  0
 56 54  1  6  0  0  0
 56 61  1  0  0  0  0
 57 61  1  0  0  0  0
 58 60  1  0  0  0  0
 59 63  1  6  0  0  0
 59 58  1  0  0  0  0
 59 60  1  0  0  0  0
 59 56  1  0  0  0  0
 60 57  1  1  0  0  0
 62 63  1  0  0  0  0
M  END
>  <MODEL>
7

>  <REMARK>
 VINA RESULT:      -5.4      2.458      4.363
  Name = 
  16 active torsions:
  status: ('A' for Active; 'I' for Inactive)
    1  A    between atoms: C_1  and  N_25
    2  A    between atoms: C_1  and  C_41
    3  A    between atoms: S_2  and  C_50
    4  A    between atoms: O_3  and  N_19
    5  A    between atoms: C_6  and  C_11
    6  A    between atoms: C_7  and  C_23
    7  A    between atoms: C_9  and  C_21
    8  A    between atoms: C_9  and  C_24
    9  A    between atoms: C_10  and  C_11
   10  A    between atoms: C_10  and  N_25
   11  A    between atoms: N_13  and  C_47
   12  A    between atoms: N_19  and  C_54
   13  A    between atoms: C_32  and  C_40
   14  A    between atoms: C_32  and  C_45
   15  A    between atoms: C_43  and  C_57
   16  A    between atoms: C_47  and  C_54
                            x       y       z     vdW  Elec       q    Type
                         _______ _______ _______ _____ _____    ______ ____

>  <TORSDO>
F 16

$$$$
=
 OpenBabel11062418043D

 63 70  0  0  1  0  0  0  0  0999 V2000
  189.8380  174.5030  137.6450 N   0  0  0  0  0  0  0  0  0  0  0  0
  186.6430  177.5960  137.7240 C   0  0  2  0  0  3  0  0  0  0  0  0
  190.7460  177.4100  141.3210 C   0  0  0  0  0  0  0  0  0  0  0  0
  186.4940  176.1930  137.2100 C   0  0  0  0  0  3  0  0  0  0  0  0
  188.7530  173.7990  135.5970 C   0  0  0  0  0  2  0  0  0  0  0  0
  189.0040  177.1560  138.2250 N   0  0  0  0  0  2  0  0  0  0  0  0
  187.3560  175.7390  136.3100 C   0  0  0  0  0  3  0  0  0  0  0  0
  187.4290  174.3600  135.9090 N   0  0  0  0  0  0  0  0  0  0  0  0
  186.2580  173.5240  135.8220 C   0  0  0  0  0  0  0  0  0  0  0  0
  190.3670  176.9360  140.1590 C   0  0  0  0  0  0  0  0  0  0  0  0
  187.7550  177.6610  138.7810 C   0  0  0  0  0  2  0  0  0  0  0  0
  190.7550  175.3330  138.3840 C   0  0  0  0  0  2  0  0  0  0  0  0
  190.0040  176.4790  138.9930 C   0  0  0  0  0  0  0  0  0  0  0  0
  185.1060  174.0180  135.9640 O   0  0  0  0  0  0  0  0  0  0  0  0
  189.8460  174.5020  136.3620 C   0  0  0  0  0  3  0  0  0  0  0  0
  190.4230  177.5670  143.8090 C   0  0  1  0  0  3  0  0  0  0  0  0
  189.7520  177.6070  142.4280 C   0  0  2  0  0  3  0  0  0  0  0  0
  188.5850  176.6170  142.3300 C   0  0  0  0  0  2  0  0  0  0  0  0
  190.2190  178.8590  144.4840 N   0  0  0  0  0  2  0  0  0  0  0  0
  187.6220  176.7100  143.5210 C   0  0  0  0  0  2  0  0  0  0  0  0
  188.0040  177.8160  144.5040 C   0  0  2  0  0  3  0  0  0  0  0  0
  189.4680  177.6780  144.9350 C   0  0  1  0  0  3  0  0  0  0  0  0
  186.9290  177.7960  145.9270 S   0  0  0  0  0  0  0  0  0  0  0  0
  187.7550  177.7860  147.1810 O   0  0  0  0  0  0  0  0  0  0  0  0
  186.0690  176.5660  145.8910 O   0  0  0  0  0  0  0  0  0  0  0  0
  185.8790  179.2260  145.9250 C   0  0  0  0  0  1  0  0  0  0  0  0
  192.2010  178.9120  142.4040 F   0  0  0  0  0  0  0  0  0  0  0  0
  192.7470  178.1760  140.3460 F   0  0  0  0  0  0  0  0  0  0  0  0
  192.1720  177.8220  141.5530 C   0  0  0  0  0  0  0  0  0  0  0  0
  192.9140  176.7970  142.1150 F   0  0  0  0  0  0  0  0  0  0  0  0
  185.2880  178.6510  139.6070 N   0  0  0  0  0  0  0  0  0  0  0  0
  185.3450  178.1160  138.2760 C   0  0  0  0  0  0  0  0  0  0  0  0
  184.3070  178.1070  137.5640 O   0  0  0  0  0  0  0  0  0  0  0  0
  186.2850  178.3880  140.4930 O   0  0  0  0  0  0  0  0  0  0  0  0
  185.9540  179.0970  141.6520 C   0  0  0  0  0  1  0  0  0  0  0  0
  184.3650  179.7440  139.8910 C   0  0  0  0  0  2  0  0  0  0  0  0
  183.1320  179.2700  140.6730 C   0  0  0  0  0  2  0  0  0  0  0  0
  181.8830  179.2540  139.8990 N   0  0  0  0  0  0  0  0  0  0  0  0
  178.9340  178.9410  137.0240 O   0  0  0  0  0  1  0  0  0  0  0  0
  181.7580  177.9650  139.2240 C   0  0  0  0  0  2  0  0  0  0  0  0
  180.3830  177.8690  138.5790 C   0  0  0  0  0  2  0  0  0  0  0  0
  180.5390  180.3520  138.1270 C   0  0  1  0  0  3  0  0  0  0  0  0
  180.2320  178.9660  137.5330 C   0  0  2  0  0  3  0  0  0  0  0  0
  181.8600  180.3380  138.9100 C   0  0  0  0  0  2  0  0  0  0  0  0
  179.2550  181.7000  136.6060 O   0  0  0  0  0  1  0  0  0  0  0  0
  180.5590  181.4290  137.0320 C   0  0  1  0  0  3  0  0  0  0  0  0
  180.2520  183.8590  137.6070 C   0  0  1  0  0  3  0  0  0  0  0  0
  181.1630  183.7650  136.4180 C   0  0  2  0  0  3  0  0  0  0  0  0
  181.2440  182.7140  137.5090 C   0  0  2  0  0  3  0  0  0  0  0  0
  180.9270  185.1120  137.0740 C   0  0  0  0  0  2  0  0  0  0  0  0
  186.3720  172.0600  135.5450 C   0  0  0  0  0  2  0  0  0  0  0  0
  185.0640  171.4980  135.2530 N   0  0  0  0  0  2  0  0  0  0  0  0
  184.1710  171.9120  136.3250 C   0  0  0  0  0  2  0  0  0  0  0  0
  183.0570  170.9290  136.4580 C   0  0  0  0  0  0  0  0  0  0  0  0
  183.2370  169.7610  136.1420 O   0  0  0  0  0  0  0  0  0  0  0  0
  181.7220  171.3840  136.9760 C   0  0  2  0  0  3  0  0  0  0  0  0
  180.8680  173.5000  136.1150 C   0  0  0  0  0  2  0  0  0  0  0  0
  179.2920  171.6380  136.3690 N   0  0  0  0  0  2  0  0  0  0  0  0
  180.6110  171.1340  135.9650 C   0  0  1  0  0  0  0  0  0  0  0  0
  180.1270  172.3780  135.4000 C   0  0  2  0  0  3  0  0  0  0  0  0
  181.7440  172.8860  137.2000 C   0  0  0  0  0  2  0  0  0  0  0  0
  179.2050  169.6420  134.7460 O   0  0  0  0  0  1  0  0  0  0  0  0
  180.5350  169.8980  135.0850 C   0  0  0  0  0  2  0  0  0  0  0  0
  1 12  1  0  0  0  0
  2 32  1  1  0  0  0
  2 11  1  0  0  0  0
  3 29  1  0  0  0  0
  4  2  1  0  0  0  0
  5  8  1  0  0  0  0
  5 15  1  0  0  0  0
  6 11  1  0  0  0  0
  6 13  1  0  0  0  0
  7  4  2  0  0  0  0
  8  7  1  0  0  0  0
  9  8  1  0  0  0  0
  9 14  2  0  0  0  0
 10  3  2  0  0  0  0
 12 13  1  0  0  0  0
 13 10  2  0  0  0  0
 15  1  2  0  0  0  0
 16 19  1  6  0  0  0
 16 22  1  0  0  0  0
 17  3  1  6  0  0  0
 17 16  1  0  0  0  0
 18 17  1  0  0  0  0
 18 20  1  0  0  0  0
 20 21  1  0  0  0  0
 21 22  1  0  0  0  0
 21 23  1  1  0  0  0
 22 19  1  6  0  0  0
 23 24  2  0  0  0  0
 25 23  2  0  0  0  0
 26 23  1  0  0  0  0
 28 29  1  0  0  0  0
 29 30  1  0  0  0  0
 29 27  1  0  0  0  0
 31 36  1  0  0  0  0
 31 34  1  0  0  0  0
 32 31  1  0  0  0  0
 33 32  2  0  0  0  0
 34 35  1  0  0  0  0
 36 37  1  0  0  0  0
 38 37  1  0  0  0  0
 40 38  1  0  0  0  0
 41 40  1  0  0  0  0
 42 46  1  6  0  0  0
 42 44  1  0  0  0  0
 43 39  1  1  0  0  0
 43 42  1  0  0  0  0
 43 41  1  0  0  0  0
 44 38  1  0  0  0  0
 46 45  1  1  0  0  0
 47 50  1  1  0  0  0
 48 50  1  1  0  0  0
 48 49  1  0  0  0  0
 48 47  1  0  0  0  0
 49 46  1  6  0  0  0
 49 47  1  0  0  0  0
 51  9  1  0  0  0  0
 52 51  1  0  0  0  0
 52 53  1  0  0  0  0
 53 54  1  0  0  0  0
 55 54  2  0  0  0  0
 56 54  1  6  0  0  0
 56 61  1  0  0  0  0
 57 61  1  0  0  0  0
 59 63  1  6  0  0  0
 59 58  1  0  0  0  0
 59 56  1  0  0  0  0
 60 59  1  0  0  0  0
 60 57  1  1  0  0  0
 60 58  1  0  0  0  0
 62 63  1  0  0  0  0
M  END
>  <MODEL>
8

>  <REMARK>
 VINA RESULT:      -5.2      4.096     10.995
  Name = 
  16 active torsions:
  status: ('A' for Active; 'I' for Inactive)
    1  A    between atoms: C_1  and  N_25
    2  A    between atoms: C_1  and  C_41
    3  A    between atoms: S_2  and  C_50
    4  A    between atoms: O_3  and  N_19
    5  A    between atoms: C_6  and  C_11
    6  A    between atoms: C_7  and  C_23
    7  A    between atoms: C_9  and  C_21
    8  A    between atoms: C_9  and  C_24
    9  A    between atoms: C_10  and  C_11
   10  A    between atoms: C_10  and  N_25
   11  A    between atoms: N_13  and  C_47
   12  A    between atoms: N_19  and  C_54
   13  A    between atoms: C_32  and  C_40
   14  A    between atoms: C_32  and  C_45
   15  A    between atoms: C_43  and  C_57
   16  A    between atoms: C_47  and  C_54
                            x       y       z     vdW  Elec       q    Type
                         _______ _______ _______ _____ _____    ______ ____

>  <TORSDO>
F 16

$$$$
=
 OpenBabel11062418043D

 63 70  0  0  1  0  0  0  0  0999 V2000
  188.5030  172.9050  135.8830 N   0  0  0  0  0  0  0  0  0  0  0  0
  186.1240  176.4910  137.0040 C   0  0  2  0  0  3  0  0  0  0  0  0
  191.4300  175.9150  138.1550 C   0  0  0  0  0  0  0  0  0  0  0  0
  185.5910  175.0950  136.8540 C   0  0  0  0  0  3  0  0  0  0  0  0
  186.4730  172.2250  134.7520 C   0  0  0  0  0  2  0  0  0  0  0  0
  188.3570  175.7000  136.3670 N   0  0  0  0  0  2  0  0  0  0  0  0
  185.8330  174.4270  135.7340 C   0  0  0  0  0  3  0  0  0  0  0  0
  185.5500  173.0270  135.5710 N   0  0  0  0  0  0  0  0  0  0  0  0
  184.4110  172.3980  136.1920 C   0  0  0  0  0  0  0  0  0  0  0  0
  190.4730  175.4160  137.4110 C   0  0  0  0  0  0  0  0  0  0  0  0
  187.6150  176.4550  137.3690 C   0  0  0  0  0  2  0  0  0  0  0  0
  189.7490  173.6260  135.9460 C   0  0  0  0  0  2  0  0  0  0  0  0
  189.5290  174.9300  136.6530 C   0  0  0  0  0  0  0  0  0  0  0  0
  183.5450  173.0900  136.7930 O   0  0  0  0  0  0  0  0  0  0  0  0
  187.8680  172.7930  134.7730 C   0  0  0  0  0  3  0  0  0  0  0  0
  189.8730  177.2180  139.6350 C   0  0  1  0  0  3  0  0  0  0  0  0
  191.1510  176.3710  139.5570 C   0  0  2  0  0  3  0  0  0  0  0  0
  192.3550  177.0920  140.1730 C   0  0  0  0  0  2  0  0  0  0  0  0
  188.9020  176.5510  140.5170 N   0  0  0  0  0  2  0  0  0  0  0  0
  192.0520  177.6810  141.5580 C   0  0  0  0  0  2  0  0  0  0  0  0
  190.6400  177.3580  142.0420 C   0  0  2  0  0  3  0  0  0  0  0  0
  189.6010  177.7550  140.9880 C   0  0  1  0  0  3  0  0  0  0  0  0
  190.3010  178.1710  143.5920 S   0  0  0  0  0  0  0  0  0  0  0  0
  189.7140  177.1840  144.5600 O   0  0  0  0  0  0  0  0  0  0  0  0
  189.3240  179.2890  143.3720 O   0  0  0  0  0  0  0  0  0  0  0  0
  191.7950  178.8450  144.2720 C   0  0  0  0  0  1  0  0  0  0  0  0
  193.6370  175.0960  138.0890 F   0  0  0  0  0  0  0  0  0  0  0  0
  193.3100  177.3240  138.0040 F   0  0  0  0  0  0  0  0  0  0  0  0
  192.8150  176.0970  137.6020 C   0  0  0  0  0  0  0  0  0  0  0  0
  192.8220  176.0470  136.2180 F   0  0  0  0  0  0  0  0  0  0  0  0
  185.3670  178.7040  138.0170 N   0  0  0  0  0  0  0  0  0  0  0  0
  185.3400  177.2680  138.0240 C   0  0  0  0  0  0  0  0  0  0  0  0
  184.6350  176.6630  138.8740 O   0  0  0  0  0  0  0  0  0  0  0  0
  186.3400  179.3660  137.3380 O   0  0  0  0  0  0  0  0  0  0  0  0
  187.5220  179.1280  138.0470 C   0  0  0  0  0  1  0  0  0  0  0  0
  184.1730  179.4350  138.4260 C   0  0  0  0  0  2  0  0  0  0  0  0
  182.8850  178.7540  137.9450 C   0  0  0  0  0  2  0  0  0  0  0  0
  182.0540  178.1880  139.0160 N   0  0  0  0  0  0  0  0  0  0  0  0
  179.2050  177.3680  141.8920 O   0  0  0  0  0  1  0  0  0  0  0  0
  180.6620  178.1550  138.5720 C   0  0  0  0  0  2  0  0  0  0  0  0
  179.8280  177.3980  139.5950 C   0  0  0  0  0  2  0  0  0  0  0  0
  181.3310  178.3670  141.3820 C   0  0  1  0  0  3  0  0  0  0  0  0
  179.8800  178.1230  140.9330 C   0  0  2  0  0  3  0  0  0  0  0  0
  182.1650  178.9790  140.2470 C   0  0  0  0  0  2  0  0  0  0  0  0
  180.0790  179.5550  143.0560 O   0  0  0  0  0  1  0  0  0  0  0  0
  181.3790  179.2510  142.6370 C   0  0  1  0  0  3  0  0  0  0  0  0
  183.1510  179.5550  144.3970 C   0  0  1  0  0  3  0  0  0  0  0  0
  183.6350  178.5330  143.4090 C   0  0  2  0  0  3  0  0  0  0  0  0
  182.1630  178.5860  143.7730 C   0  0  2  0  0  3  0  0  0  0  0  0
  184.4430  178.8000  144.6650 C   0  0  0  0  0  2  0  0  0  0  0  0
  184.2160  170.9170  136.1300 C   0  0  0  0  0  2  0  0  0  0  0  0
  182.8030  170.5910  136.2170 N   0  0  0  0  0  2  0  0  0  0  0  0
  182.1300  171.3040  135.1420 C   0  0  0  0  0  2  0  0  0  0  0  0
  180.7070  170.8650  135.0620 C   0  0  0  0  0  0  0  0  0  0  0  0
  180.4350  169.7670  134.5980 O   0  0  0  0  0  0  0  0  0  0  0  0
  179.6180  171.7800  135.5480 C   0  0  2  0  0  3  0  0  0  0  0  0
  179.6770  172.4100  137.9030 C   0  0  0  0  0  2  0  0  0  0  0  0
  179.1230  174.1440  136.2590 N   0  0  0  0  0  2  0  0  0  0  0  0
  180.1120  173.2130  135.7000 C   0  0  1  0  0  0  0  0  0  0  0  0
  180.2070  173.5890  137.0970 C   0  0  2  0  0  3  0  0  0  0  0  0
  179.1690  171.3500  136.9340 C   0  0  0  0  0  2  0  0  0  0  0  0
  181.3260  175.1880  135.1450 O   0  0  0  0  0  1  0  0  0  0  0  0
  181.0810  173.8770  134.7370 C   0  0  0  0  0  2  0  0  0  0  0  0
  1 12  1  0  0  0  0
  2 11  1  0  0  0  0
  2 32  1  1  0  0  0
  4  2  1  0  0  0  0
  5 15  1  0  0  0  0
  5  8  1  0  0  0  0
  6 13  1  0  0  0  0
  6 11  1  0  0  0  0
  7  4  2  0  0  0  0
  8  7  1  0  0  0  0
  8  9  1  0  0  0  0
  9 14  2  0  0  0  0
 10  3  2  0  0  0  0
 12 13  1  0  0  0  0
 13 10  2  0  0  0  0
 15  1  2  0  0  0  0
 16 19  1  1  0  0  0
 16 22  1  0  0  0  0
 17  3  1  6  0  0  0
 17 16  1  0  0  0  0
 17 18  1  0  0  0  0
 18 20  1  0  0  0  0
 20 21  1  0  0  0  0
 21 23  1  1  0  0  0
 22 19  1  1  0  0  0
 22 21  1  0  0  0  0
 23 26  1  0  0  0  0
 23 24  2  0  0  0  0
 25 23  2  0  0  0  0
 29 28  1  0  0  0  0
 29 27  1  0  0  0  0
 29  3  1  0  0  0  0
 30 29  1  0  0  0  0
 31 32  1  0  0  0  0
 31 36  1  0  0  0  0
 32 33  2  0  0  0  0
 34 31  1  0  0  0  0
 34 35  1  0  0  0  0
 37 36  1  0  0  0  0
 37 38  1  0  0  0  0
 38 44  1  0  0  0  0
 40 38  1  0  0  0  0
 40 41  1  0  0  0  0
 41 43  1  0  0  0  0
 42 46  1  1  0  0  0
 43 42  1  0  0  0  0
 43 39  1  1  0  0  0
 44 42  1  0  0  0  0
 46 45  1  1  0  0  0
 47 50  1  1  0  0  0
 48 49  1  0  0  0  0
 48 47  1  0  0  0  0
 48 50  1  1  0  0  0
 49 46  1  6  0  0  0
 49 47  1  0  0  0  0
 51  9  1  0  0  0  0
 51 52  1  0  0  0  0
 53 52  1  0  0  0  0
 54 53  1  0  0  0  0
 55 54  2  0  0  0  0
 56 54  1  1  0  0  0
 56 59  1  0  0  0  0
 56 61  1  0  0  0  0
 58 60  1  0  0  0  0
 59 63  1  6  0  0  0
 59 58  1  0  0  0  0
 59 60  1  0  0  0  0
 60 57  1  1  0  0  0
 61 57  1  0  0  0  0
 63 62  1  0  0  0  0
M  END
>  <MODEL>
9

>  <REMARK>
 VINA RESULT:      -4.3      4.296     11.156
  Name = 
  16 active torsions:
  status: ('A' for Active; 'I' for Inactive)
    1  A    between atoms: C_1  and  N_25
    2  A    between atoms: C_1  and  C_41
    3  A    between atoms: S_2  and  C_50
    4  A    between atoms: O_3  and  N_19
    5  A    between atoms: C_6  and  C_11
    6  A    between atoms: C_7  and  C_23
    7  A    between atoms: C_9  and  C_21
    8  A    between atoms: C_9  and  C_24
    9  A    between atoms: C_10  and  C_11
   10  A    between atoms: C_10  and  N_25
   11  A    between atoms: N_13  and  C_47
   12  A    between atoms: N_19  and  C_54
   13  A    between atoms: C_32  and  C_40
   14  A    between atoms: C_32  and  C_45
   15  A    between atoms: C_43  and  C_57
   16  A    between atoms: C_47  and  C_54
                            x       y       z     vdW  Elec       q    Type
                         _______ _______ _______ _____ _____    ______ ____

>  <TORSDO>
F 16

$$$$
