=
 OpenBabel11062414463D

 27 30  0  0  1  0  0  0  0  0999 V2000
  186.8280  177.4300  144.5390 C   0  0  1  0  0  3  0  0  0  0  0  0
  183.5280  178.2320  143.0770 C   0  0  2  0  0  3  0  0  0  0  0  0
  189.3080  177.2820  144.9780 C   0  0  0  0  0  0  0  0  0  0  0  0
  183.4790  179.5110  144.3910 S   0  0  0  0  0  0  0  0  0  0  0  0
  189.0610  177.2650  146.3670 C   0  0  0  0  0  0  0  0  0  0  0  0
  188.2320  177.7750  144.0250 C   0  0  1  0  0  3  0  0  0  0  0  0
  186.7110  177.7620  145.9580 N   0  0  0  0  0  0  0  0  0  0  0  0
  185.1450  179.0410  144.7900 C   0  0  1  0  0  3  0  0  0  0  0  0
  185.6760  178.7160  146.0920 C   0  0  0  0  0  0  0  0  0  0  0  0
  191.3460  176.5760  146.7780 C   0  0  0  0  0  3  0  0  0  0  0  0
  185.2900  179.1970  147.1900 O   0  0  0  0  0  0  0  0  0  0  0  0
  184.9850  177.9590  142.6960 C   0  0  0  0  0  2  0  0  0  0  0  0
  190.5930  176.9670  144.5110 C   0  0  0  0  0  3  0  0  0  0  0  0
  185.7760  178.3040  143.9010 C   0  0  2  0  0  3  0  0  0  0  0  0
  190.0770  176.9110  147.2600 C   0  0  0  0  0  3  0  0  0  0  0  0
  187.7720  177.6250  146.8620 N   0  0  0  0  0  2  0  0  0  0  0  0
  191.6030  176.6060  145.4060 C   0  0  0  0  0  3  0  0  0  0  0  0
  183.0920  178.2770  140.6520 C   0  0  0  0  0  3  0  0  0  0  0  0
  181.5200  179.3130  142.1030 O   0  0  0  0  0  1  0  0  0  0  0  0
  182.7070  178.6240  141.8870 C   0  0  0  0  0  0  0  0  0  0  0  0
  182.6760  179.7160  138.6580 C   0  0  0  0  0  0  0  0  0  0  0  0
  183.7140  180.5380  138.9450 F   0  0  0  0  0  0  0  0  0  0  0  0
  182.4040  178.6420  139.3990 C   0  0  0  0  0  3  0  0  0  0  0  0
  181.9510  179.9410  137.5350 F   0  0  0  0  0  0  0  0  0  0  0  0
  188.4100  177.2110  142.6920 N   0  0  0  0  0  2  0  0  0  0  0  0
  187.8720  178.2570  140.6790 O   0  0  0  0  0  1  0  0  0  0  0  0
  188.7150  178.3110  141.7890 C   0  0  0  0  0  2  0  0  0  0  0  0
  1  7  1  1  0  0  0
  2 20  1  6  0  0  0
  2  4  1  0  0  0  0
  3  5  1  0  0  0  0
  5 16  1  0  0  0  0
  5 15  2  0  0  0  0
  6 25  1  6  0  0  0
  6  1  1  0  0  0  0
  6  3  1  0  0  0  0
  7  9  1  0  0  0  0
  7 16  1  0  0  0  0
  8  4  1  1  0  0  0
  8  9  1  0  0  0  0
  9 11  2  0  0  0  0
 10 15  1  0  0  0  0
 12  2  1  0  0  0  0
 13  3  2  0  0  0  0
 13 17  1  0  0  0  0
 14 12  1  1  0  0  0
 14  1  1  0  0  0  0
 14  8  1  0  0  0  0
 17 10  2  0  0  0  0
 18 20  2  0  0  0  0
 20 19  1  0  0  0  0
 21 22  1  0  0  0  0
 21 23  2  0  0  0  0
 23 18  1  0  0  0  0
 24 21  1  0  0  0  0
 26 27  1  0  0  0  0
 27 25  1  0  0  0  0
M  END
>  <MODEL>
1

>  <REMARK>
 VINA RESULT:      -9.1      0.000      0.000
  Name = 
  4 active torsions:
  status: ('A' for Active; 'I' for Inactive)
    1  A    between atoms: C_3  and  C_20
    2  A    between atoms: N_4  and  C_8
    3  A    between atoms: N_4  and  C_11
    4  A    between atoms: C_10  and  C_26
                            x       y       z     vdW  Elec       q    Type
                         _______ _______ _______ _____ _____    ______ ____

>  <TORSDO>
F 4

$$$$
=
 OpenBabel11062414463D

 27 30  0  0  1  0  0  0  0  0999 V2000
  188.5560  177.1960  142.6090 C   0  0  1  0  0  3  0  0  0  0  0  0
  189.6660  176.8220  139.1020 C   0  0  2  0  0  3  0  0  0  0  0  0
  188.4520  177.7560  145.0660 C   0  0  0  0  0  0  0  0  0  0  0  0
  188.6350  178.3140  138.8260 S   0  0  0  0  0  0  0  0  0  0  0  0
  187.0660  177.9940  144.9540 C   0  0  0  0  0  0  0  0  0  0  0  0
  189.3210  177.7450  143.8210 C   0  0  1  0  0  3  0  0  0  0  0  0
  187.2290  177.8020  142.5300 N   0  0  0  0  0  0  0  0  0  0  0  0
  188.3910  178.3640  140.5860 C   0  0  1  0  0  3  0  0  0  0  0  0
  187.1390  178.4820  141.2930 C   0  0  0  0  0  0  0  0  0  0  0  0
  186.8550  177.9910  147.3660 C   0  0  0  0  0  3  0  0  0  0  0  0
  186.1140  179.0900  140.8890 O   0  0  0  0  0  0  0  0  0  0  0  0
  190.1870  176.8310  140.5410 C   0  0  0  0  0  2  0  0  0  0  0  0
  189.0250  177.6640  146.3440 C   0  0  0  0  0  3  0  0  0  0  0  0
  189.1980  177.6210  141.3110 C   0  0  2  0  0  3  0  0  0  0  0  0
  186.2750  178.1090  146.1000 C   0  0  0  0  0  3  0  0  0  0  0  0
  186.4740  178.1340  143.6630 N   0  0  0  0  0  2  0  0  0  0  0  0
  188.2290  177.7710  147.4870 C   0  0  0  0  0  3  0  0  0  0  0  0
  192.0330  176.4800  138.5130 C   0  0  0  0  0  3  0  0  0  0  0  0
  190.4740  176.8460  136.7580 O   0  0  0  0  0  1  0  0  0  0  0  0
  190.7800  176.7240  138.1070 C   0  0  0  0  0  0  0  0  0  0  0  0
  193.9600  175.3200  137.4350 C   0  0  0  0  0  0  0  0  0  0  0  0
  193.6050  174.1110  137.9370 F   0  0  0  0  0  0  0  0  0  0  0  0
  193.2240  176.4110  137.6450 C   0  0  0  0  0  3  0  0  0  0  0  0
  195.0420  175.4010  136.6240 F   0  0  0  0  0  0  0  0  0  0  0  0
  190.5290  176.9540  144.0280 N   0  0  0  0  0  2  0  0  0  0  0  0
  191.2230  179.1680  143.8000 O   0  0  0  0  0  1  0  0  0  0  0  0
  191.6680  177.8490  143.8870 C   0  0  0  0  0  2  0  0  0  0  0  0
  1  7  1  6  0  0  0
  1  6  1  0  0  0  0
  2 20  1  6  0  0  0
  2 12  1  0  0  0  0
  3 13  1  0  0  0  0
  4  2  1  0  0  0  0
  5  3  2  0  0  0  0
  5 15  1  0  0  0  0
  6 25  1  1  0  0  0
  6  3  1  0  0  0  0
  7 16  1  0  0  0  0
  8  4  1  6  0  0  0
  8  9  1  0  0  0  0
  8 14  1  0  0  0  0
  9  7  1  0  0  0  0
 10 17  1  0  0  0  0
 11  9  2  0  0  0  0
 13 17  2  0  0  0  0
 14 12  1  6  0  0  0
 14  1  1  0  0  0  0
 15 10  2  0  0  0  0
 16  5  1  0  0  0  0
 19 20  1  0  0  0  0
 20 18  2  0  0  0  0
 21 23  2  0  0  0  0
 21 22  1  0  0  0  0
 23 18  1  0  0  0  0
 24 21  1  0  0  0  0
 26 27  1  0  0  0  0
 27 25  1  0  0  0  0
M  END
>  <MODEL>
2

>  <REMARK>
 VINA RESULT:      -8.9      4.713      6.930
  Name = 
  4 active torsions:
  status: ('A' for Active; 'I' for Inactive)
    1  A    between atoms: C_3  and  C_20
    2  A    between atoms: N_4  and  C_8
    3  A    between atoms: N_4  and  C_11
    4  A    between atoms: C_10  and  C_26
                            x       y       z     vdW  Elec       q    Type
                         _______ _______ _______ _____ _____    ______ ____

>  <TORSDO>
F 4

$$$$
=
 OpenBabel11062414463D

 27 30  0  0  1  0  0  0  0  0999 V2000
  188.6480  177.1710  143.1360 C   0  0  1  0  0  3  0  0  0  0  0  0
  189.3260  176.8850  139.5130 C   0  0  2  0  0  3  0  0  0  0  0  0
  188.8050  177.7390  145.5900 C   0  0  0  0  0  0  0  0  0  0  0  0
  188.1170  178.2590  139.3820 S   0  0  0  0  0  0  0  0  0  0  0  0
  187.3990  177.8290  145.6600 C   0  0  0  0  0  0  0  0  0  0  0  0
  189.5010  177.8080  144.2420 C   0  0  1  0  0  3  0  0  0  0  0  0
  187.2650  177.6340  143.2340 N   0  0  0  0  0  0  0  0  0  0  0  0
  188.0990  178.2990  141.1580 C   0  0  1  0  0  3  0  0  0  0  0  0
  186.9440  178.2900  142.0230 C   0  0  0  0  0  0  0  0  0  0  0  0
  187.5040  177.8240  148.0780 C   0  0  0  0  0  3  0  0  0  0  0  0
  185.8170  178.7840  141.7580 O   0  0  0  0  0  0  0  0  0  0  0  0
  190.0260  176.9620  140.8720 C   0  0  0  0  0  2  0  0  0  0  0  0
  189.5460  177.7180  146.7810 C   0  0  0  0  0  3  0  0  0  0  0  0
  189.0670  177.6500  141.7690 C   0  0  2  0  0  3  0  0  0  0  0  0
  186.7550  177.8700  146.9000 C   0  0  0  0  0  3  0  0  0  0  0  0
  186.6330  177.8950  144.4570 N   0  0  0  0  0  2  0  0  0  0  0  0
  188.8980  177.7500  148.0190 C   0  0  0  0  0  3  0  0  0  0  0  0
  191.4050  176.1320  138.4280 C   0  0  0  0  0  3  0  0  0  0  0  0
  190.0230  177.6800  137.2700 O   0  0  0  0  0  1  0  0  0  0  0  0
  190.3060  176.8960  138.3810 C   0  0  0  0  0  0  0  0  0  0  0  0
  192.4160  175.4000  136.2690 C   0  0  0  0  0  0  0  0  0  0  0  0
  191.2950  174.7390  135.8860 F   0  0  0  0  0  0  0  0  0  0  0  0
  192.4700  176.0890  137.4080 C   0  0  0  0  0  3  0  0  0  0  0  0
  193.4770  175.4350  135.4270 F   0  0  0  0  0  0  0  0  0  0  0  0
  190.8020  177.1500  144.2860 N   0  0  0  0  0  2  0  0  0  0  0  0
  191.2250  179.4120  143.9130 O   0  0  0  0  0  1  0  0  0  0  0  0
  191.8080  178.1450  143.9470 C   0  0  0  0  0  2  0  0  0  0  0  0
  1  7  1  1  0  0  0
  1  6  1  0  0  0  0
  2 20  1  6  0  0  0
  2 12  1  0  0  0  0
  3  5  2  0  0  0  0
  3 13  1  0  0  0  0
  4  2  1  0  0  0  0
  5 15  1  0  0  0  0
  6 25  1  1  0  0  0
  6  3  1  0  0  0  0
  7 16  1  0  0  0  0
  8  4  1  6  0  0  0
  8 14  1  0  0  0  0
  8  9  1  0  0  0  0
  9  7  1  0  0  0  0
 11  9  2  0  0  0  0
 13 17  2  0  0  0  0
 14 12  1  6  0  0  0
 14  1  1  0  0  0  0
 15 10  2  0  0  0  0
 16  5  1  0  0  0  0
 17 10  1  0  0  0  0
 19 20  1  0  0  0  0
 20 18  2  0  0  0  0
 21 23  2  0  0  0  0
 22 21  1  0  0  0  0
 23 18  1  0  0  0  0
 24 21  1  0  0  0  0
 26 27  1  0  0  0  0
 27 25  1  0  0  0  0
M  END
>  <MODEL>
3

>  <REMARK>
 VINA RESULT:      -8.5      4.330      6.312
  Name = 
  4 active torsions:
  status: ('A' for Active; 'I' for Inactive)
    1  A    between atoms: C_3  and  C_20
    2  A    between atoms: N_4  and  C_8
    3  A    between atoms: N_4  and  C_11
    4  A    between atoms: C_10  and  C_26
                            x       y       z     vdW  Elec       q    Type
                         _______ _______ _______ _____ _____    ______ ____

>  <TORSDO>
F 4

$$$$
=
 OpenBabel11062414463D

 27 30  0  0  1  0  0  0  0  0999 V2000
  188.8690  177.8800  141.2950 C   0  0  1  0  0  3  0  0  0  0  0  0
  188.9760  177.8660  144.9900 C   0  0  2  0  0  3  0  0  0  0  0  0
  188.9940  177.2000  138.8680 C   0  0  0  0  0  0  0  0  0  0  0  0
  187.1580  177.6630  144.8430 S   0  0  0  0  0  0  0  0  0  0  0  0
  187.9240  178.0680  138.5690 C   0  0  0  0  0  0  0  0  0  0  0  0
  189.2390  176.7680  140.3040 C   0  0  1  0  0  3  0  0  0  0  0  0
  187.5700  178.4550  140.9490 N   0  0  0  0  0  0  0  0  0  0  0  0
  187.4020  177.5350  143.0880 C   0  0  1  0  0  3  0  0  0  0  0  0
  186.7060  178.2580  142.0520 C   0  0  0  0  0  0  0  0  0  0  0  0
  188.3880  177.8490  136.2030 C   0  0  0  0  0  3  0  0  0  0  0  0
  185.5150  178.6620  142.1020 O   0  0  0  0  0  0  0  0  0  0  0  0
  189.6490  177.2560  143.7590 C   0  0  0  0  0  2  0  0  0  0  0  0
  189.7360  176.6450  137.8140 C   0  0  0  0  0  3  0  0  0  0  0  0
  188.6360  177.3300  142.6800 C   0  0  2  0  0  3  0  0  0  0  0  0
  187.6260  178.3900  137.2420 C   0  0  0  0  0  3  0  0  0  0  0  0
  187.1320  178.6070  139.6270 N   0  0  0  0  0  2  0  0  0  0  0  0
  189.4410  176.9770  136.4890 C   0  0  0  0  0  3  0  0  0  0  0  0
  190.8160  177.2640  146.5140 C   0  0  0  0  0  3  0  0  0  0  0  0
  188.5880  176.7790  147.1850 O   0  0  0  0  0  1  0  0  0  0  0  0
  189.5000  177.2730  146.2620 C   0  0  0  0  0  0  0  0  0  0  0  0
  192.2950  175.6280  147.6790 C   0  0  0  0  0  0  0  0  0  0  0  0
  192.7160  175.0720  146.5160 F   0  0  0  0  0  0  0  0  0  0  0  0
  191.4630  176.6690  147.6990 C   0  0  0  0  0  3  0  0  0  0  0  0
  192.8060  175.1710  148.8480 F   0  0  0  0  0  0  0  0  0  0  0  0
  190.6310  176.3830  140.5080 N   0  0  0  0  0  2  0  0  0  0  0  0
  192.6970  177.4120  140.1790 O   0  0  0  0  0  1  0  0  0  0  0  0
  191.4040  177.6050  140.6660 C   0  0  0  0  0  2  0  0  0  0  0  0
  1  7  1  6  0  0  0
  1 14  1  0  0  0  0
  2 20  1  1  0  0  0
  3  6  1  0  0  0  0
  4  2  1  0  0  0  0
  5  3  1  0  0  0  0
  5 16  1  0  0  0  0
  6 25  1  6  0  0  0
  6  1  1  0  0  0  0
  7  9  1  0  0  0  0
  8  9  1  6  0  0  0
  8  4  1  0  0  0  0
  9 11  2  0  0  0  0
 10 17  2  0  0  0  0
 10 15  1  0  0  0  0
 12  2  1  0  0  0  0
 13  3  2  0  0  0  0
 14  8  1  0  0  0  0
 14 12  1  1  0  0  0
 15  5  2  0  0  0  0
 16  7  1  0  0  0  0
 17 13  1  0  0  0  0
 18 23  1  0  0  0  0
 20 18  2  0  0  0  0
 20 19  1  0  0  0  0
 21 23  2  0  0  0  0
 21 24  1  0  0  0  0
 22 21  1  0  0  0  0
 25 27  1  0  0  0  0
 26 27  1  0  0  0  0
M  END
>  <MODEL>
4

>  <REMARK>
 VINA RESULT:      -8.4      4.912      8.121
  Name = 
  4 active torsions:
  status: ('A' for Active; 'I' for Inactive)
    1  A    between atoms: C_3  and  C_20
    2  A    between atoms: N_4  and  C_8
    3  A    between atoms: N_4  and  C_11
    4  A    between atoms: C_10  and  C_26
                            x       y       z     vdW  Elec       q    Type
                         _______ _______ _______ _____ _____    ______ ____

>  <TORSDO>
F 4

$$$$
=
 OpenBabel11062414463D

 27 30  0  0  1  0  0  0  0  0999 V2000
  184.3320  177.9680  142.4370 C   0  0  1  0  0  3  0  0  0  0  0  0
  187.9730  177.3330  142.5000 C   0  0  2  0  0  3  0  0  0  0  0  0
  182.0140  178.8140  142.9640 C   0  0  0  0  0  0  0  0  0  0  0  0
  188.0140  178.5900  141.1650 S   0  0  0  0  0  0  0  0  0  0  0  0
  181.6980  178.8070  141.5890 C   0  0  0  0  0  0  0  0  0  0  0  0
  183.4670  178.7850  143.4060 C   0  0  1  0  0  3  0  0  0  0  0  0
  184.0290  178.3350  141.0550 N   0  0  0  0  0  0  0  0  0  0  0  0
  186.2760  178.8250  141.4510 C   0  0  1  0  0  3  0  0  0  0  0  0
  185.2190  178.8270  140.4700 C   0  0  0  0  0  0  0  0  0  0  0  0
  179.3500  179.0790  142.1120 C   0  0  0  0  0  3  0  0  0  0  0  0
  185.3190  179.2040  139.2730 O   0  0  0  0  0  0  0  0  0  0  0  0
  186.7780  177.6110  143.4150 C   0  0  0  0  0  2  0  0  0  0  0  0
  180.9810  178.9810  143.8980 C   0  0  0  0  0  3  0  0  0  0  0  0
  185.7920  178.3210  142.5670 C   0  0  2  0  0  3  0  0  0  0  0  0
  180.3710  178.9380  141.1690 C   0  0  0  0  0  3  0  0  0  0  0  0
  182.7410  178.6830  140.6230 N   0  0  0  0  0  2  0  0  0  0  0  0
  179.6550  179.1020  143.4750 C   0  0  0  0  0  3  0  0  0  0  0  0
  189.2560  177.1140  144.5910 C   0  0  0  0  0  3  0  0  0  0  0  0
  190.4520  177.3930  142.5560 O   0  0  0  0  0  1  0  0  0  0  0  0
  189.2600  177.2910  143.2640 C   0  0  0  0  0  0  0  0  0  0  0  0
  190.4340  176.8760  146.7770 C   0  0  0  0  0  0  0  0  0  0  0  0
  189.3010  176.5160  147.4290 F   0  0  0  0  0  0  0  0  0  0  0  0
  190.4460  177.1040  145.4640 C   0  0  0  0  0  3  0  0  0  0  0  0
  191.6020  176.9150  147.4630 F   0  0  0  0  0  0  0  0  0  0  0  0
  183.5970  178.2340  144.7510 N   0  0  0  0  0  2  0  0  0  0  0  0
  184.5800  178.6680  146.8200 O   0  0  0  0  0  1  0  0  0  0  0  0
  184.3990  179.1650  145.5290 C   0  0  0  0  0  2  0  0  0  0  0  0
  1  7  1  6  0  0  0
  1 14  1  0  0  0  0
  1  6  1  0  0  0  0
  2 20  1  1  0  0  0
  2 12  1  0  0  0  0
  3  6  1  0  0  0  0
  3 13  1  0  0  0  0
  4  8  1  0  0  0  0
  4  2  1  0  0  0  0
  5  3  2  0  0  0  0
  6 25  1  1  0  0  0
  8  9  1  6  0  0  0
  8 14  1  0  0  0  0
  9  7  1  0  0  0  0
 10 17  1  0  0  0  0
 11  9  2  0  0  0  0
 14 12  1  6  0  0  0
 15  5  1  0  0  0  0
 15 10  2  0  0  0  0
 16  7  1  0  0  0  0
 16  5  1  0  0  0  0
 17 13  2  0  0  0  0
 18 23  1  0  0  0  0
 19 20  1  0  0  0  0
 20 18  2  0  0  0  0
 21 22  1  0  0  0  0
 21 24  1  0  0  0  0
 23 21  2  0  0  0  0
 25 27  1  0  0  0  0
 27 26  1  0  0  0  0
M  END
>  <MODEL>
5

>  <REMARK>
 VINA RESULT:      -8.4      4.089      8.271
  Name = 
  4 active torsions:
  status: ('A' for Active; 'I' for Inactive)
    1  A    between atoms: C_3  and  C_20
    2  A    between atoms: N_4  and  C_8
    3  A    between atoms: N_4  and  C_11
    4  A    between atoms: C_10  and  C_26
                            x       y       z     vdW  Elec       q    Type
                         _______ _______ _______ _____ _____    ______ ____

>  <TORSDO>
F 4

$$$$
=
 OpenBabel11062414463D

 27 30  0  0  1  0  0  0  0  0999 V2000
  188.8770  178.1900  143.4030 C   0  0  1  0  0  3  0  0  0  0  0  0
  189.3890  178.2990  139.7430 C   0  0  2  0  0  3  0  0  0  0  0  0
  187.8890  177.8410  145.6980 C   0  0  0  0  0  0  0  0  0  0  0  0
  190.3340  176.7530  140.0300 S   0  0  0  0  0  0  0  0  0  0  0  0
  189.1710  177.5450  146.2050 C   0  0  0  0  0  0  0  0  0  0  0  0
  187.6340  177.7750  144.2020 C   0  0  1  0  0  3  0  0  0  0  0  0
  190.0670  177.5330  143.9390 N   0  0  0  0  0  0  0  0  0  0  0  0
  189.8050  176.8460  141.7240 C   0  0  1  0  0  3  0  0  0  0  0  0
  190.6270  176.7460  142.9050 C   0  0  0  0  0  0  0  0  0  0  0  0
  188.3380  177.7500  148.4690 C   0  0  0  0  0  3  0  0  0  0  0  0
  191.6820  176.0700  143.0190 O   0  0  0  0  0  0  0  0  0  0  0  0
  188.3070  178.4310  140.8170 C   0  0  0  0  0  2  0  0  0  0  0  0
  186.8350  178.0630  146.5970 C   0  0  0  0  0  3  0  0  0  0  0  0
  188.8190  177.6770  141.9850 C   0  0  2  0  0  3  0  0  0  0  0  0
  189.3920  177.5020  147.5850 C   0  0  0  0  0  3  0  0  0  0  0  0
  190.2440  177.2740  145.3050 N   0  0  0  0  0  2  0  0  0  0  0  0
  187.0620  178.0280  147.9760 C   0  0  0  0  0  3  0  0  0  0  0  0
  188.0510  177.3450  137.9080 C   0  0  0  0  0  3  0  0  0  0  0  0
  189.0490  179.4780  137.5880 O   0  0  0  0  0  1  0  0  0  0  0  0
  188.8120  178.3490  138.3620 C   0  0  0  0  0  0  0  0  0  0  0  0
  186.1830  177.4500  136.2570 C   0  0  0  0  0  0  0  0  0  0  0  0
  185.2930  177.8780  137.1850 F   0  0  0  0  0  0  0  0  0  0  0  0
  187.4670  177.2490  136.5560 C   0  0  0  0  0  3  0  0  0  0  0  0
  185.7770  177.3100  134.9720 F   0  0  0  0  0  0  0  0  0  0  0  0
  186.5100  178.6220  143.8210 N   0  0  0  0  0  2  0  0  0  0  0  0
  184.2280  178.2530  143.5170 O   0  0  0  0  0  1  0  0  0  0  0  0
  185.5000  177.7650  143.2180 C   0  0  0  0  0  2  0  0  0  0  0  0
  1  7  1  1  0  0  0
  1  6  1  0  0  0  0
  2 20  1  6  0  0  0
  2  4  1  0  0  0  0
  2 12  1  0  0  0  0
  3  5  2  0  0  0  0
  3 13  1  0  0  0  0
  5 15  1  0  0  0  0
  6 25  1  1  0  0  0
  6  3  1  0  0  0  0
  7 16  1  0  0  0  0
  8  4  1  6  0  0  0
  8 14  1  0  0  0  0
  8  9  1  0  0  0  0
  9 11  2  0  0  0  0
  9  7  1  0  0  0  0
 13 17  2  0  0  0  0
 14 12  1  6  0  0  0
 14  1  1  0  0  0  0
 15 10  2  0  0  0  0
 16  5  1  0  0  0  0
 17 10  1  0  0  0  0
 18 20  2  0  0  0  0
 19 20  1  0  0  0  0
 21 23  2  0  0  0  0
 21 22  1  0  0  0  0
 23 18  1  0  0  0  0
 24 21  1  0  0  0  0
 27 26  1  0  0  0  0
 27 25  1  0  0  0  0
M  END
>  <MODEL>
6

>  <REMARK>
 VINA RESULT:      -8.2      3.291      5.043
  Name = 
  4 active torsions:
  status: ('A' for Active; 'I' for Inactive)
    1  A    between atoms: C_3  and  C_20
    2  A    between atoms: N_4  and  C_8
    3  A    between atoms: N_4  and  C_11
    4  A    between atoms: C_10  and  C_26
                            x       y       z     vdW  Elec       q    Type
                         _______ _______ _______ _____ _____    ______ ____

>  <TORSDO>
F 4

$$$$
=
 OpenBabel11062414463D

 27 30  0  0  1  0  0  0  0  0999 V2000
  185.0260  178.7130  143.4800 C   0  0  1  0  0  3  0  0  0  0  0  0
  188.3800  178.1340  144.9240 C   0  0  2  0  0  3  0  0  0  0  0  0
  182.8750  178.4700  142.1830 C   0  0  0  0  0  0  0  0  0  0  0  0
  187.4320  177.5790  146.3930 S   0  0  0  0  0  0  0  0  0  0  0  0
  182.1770  179.1290  143.2160 C   0  0  0  0  0  0  0  0  0  0  0  0
  184.2460  177.8760  142.4560 C   0  0  1  0  0  3  0  0  0  0  0  0
  184.1710  179.0490  144.6160 N   0  0  0  0  0  0  0  0  0  0  0  0
  185.9630  177.7860  145.4160 C   0  0  1  0  0  3  0  0  0  0  0  0
  184.7640  178.5020  145.7780 C   0  0  0  0  0  0  0  0  0  0  0  0
  180.2550  179.3930  141.7690 C   0  0  0  0  0  3  0  0  0  0  0  0
  184.3010  178.6330  146.9410 O   0  0  0  0  0  0  0  0  0  0  0  0
  187.5450  177.8830  143.6650 C   0  0  0  0  0  2  0  0  0  0  0  0
  182.2320  178.2580  140.9540 C   0  0  0  0  0  3  0  0  0  0  0  0
  186.1340  177.9130  144.1180 C   0  0  2  0  0  3  0  0  0  0  0  0
  180.8740  179.5880  143.0060 C   0  0  0  0  0  3  0  0  0  0  0  0
  182.8000  179.3140  144.4870 N   0  0  0  0  0  2  0  0  0  0  0  0
  180.9330  178.7270  140.7450 C   0  0  0  0  0  3  0  0  0  0  0  0
  190.3350  177.0460  145.9550 C   0  0  0  0  0  3  0  0  0  0  0  0
  190.2830  177.2690  143.5890 O   0  0  0  0  0  1  0  0  0  0  0  0
  189.7200  177.4710  144.8430 C   0  0  0  0  0  0  0  0  0  0  0  0
  192.1470  175.7240  147.0460 C   0  0  0  0  0  0  0  0  0  0  0  0
  191.3760  175.4190  148.1190 F   0  0  0  0  0  0  0  0  0  0  0  0
  191.6730  176.4270  146.0180 C   0  0  0  0  0  3  0  0  0  0  0  0
  193.4050  175.2250  146.9780 F   0  0  0  0  0  0  0  0  0  0  0  0
  185.0270  177.7660  141.2290 N   0  0  0  0  0  2  0  0  0  0  0  0
  185.2970  179.4040  139.5930 O   0  0  0  0  0  1  0  0  0  0  0  0
  185.5550  179.0870  140.9260 C   0  0  0  0  0  2  0  0  0  0  0  0
  1 14  1  0  0  0  0
  1  7  1  1  0  0  0
  2 20  1  6  0  0  0
  2  4  1  0  0  0  0
  3  6  1  0  0  0  0
  3  5  1  0  0  0  0
  5 16  1  0  0  0  0
  6 25  1  6  0  0  0
  6  1  1  0  0  0  0
  7  9  1  0  0  0  0
  8  9  1  1  0  0  0
  8  4  1  0  0  0  0
  9 11  2  0  0  0  0
 10 15  1  0  0  0  0
 12  2  1  0  0  0  0
 13  3  2  0  0  0  0
 14 12  1  1  0  0  0
 14  8  1  0  0  0  0
 15  5  2  0  0  0  0
 16  7  1  0  0  0  0
 17 13  1  0  0  0  0
 17 10  2  0  0  0  0
 18 23  1  0  0  0  0
 19 20  1  0  0  0  0
 20 18  2  0  0  0  0
 21 22  1  0  0  0  0
 23 21  2  0  0  0  0
 24 21  1  0  0  0  0
 26 27  1  0  0  0  0
 27 25  1  0  0  0  0
M  END
>  <MODEL>
7

>  <REMARK>
 VINA RESULT:      -7.6      4.375      7.966
  Name = 
  4 active torsions:
  status: ('A' for Active; 'I' for Inactive)
    1  A    between atoms: C_3  and  C_20
    2  A    between atoms: N_4  and  C_8
    3  A    between atoms: N_4  and  C_11
    4  A    between atoms: C_10  and  C_26
                            x       y       z     vdW  Elec       q    Type
                         _______ _______ _______ _____ _____    ______ ____

>  <TORSDO>
F 4

$$$$
=
 OpenBabel11062414463D

 27 30  0  0  1  0  0  0  0  0999 V2000
  186.2110  177.5730  143.7850 C   0  0  1  0  0  3  0  0  0  0  0  0
  182.9880  178.2610  142.1070 C   0  0  2  0  0  3  0  0  0  0  0  0
  188.6480  177.5770  144.4360 C   0  0  0  0  0  0  0  0  0  0  0  0
  182.7160  179.3850  143.5310 S   0  0  0  0  0  0  0  0  0  0  0  0
  188.2880  177.3920  145.7870 C   0  0  0  0  0  0  0  0  0  0  0  0
  187.6180  178.0810  143.4410 C   0  0  1  0  0  3  0  0  0  0  0  0
  185.9460  177.7420  145.2120 N   0  0  0  0  0  0  0  0  0  0  0  0
  184.3770  179.0090  144.0360 C   0  0  1  0  0  3  0  0  0  0  0  0
  184.8220  178.5910  145.3430 C   0  0  0  0  0  0  0  0  0  0  0  0
  190.5810  176.8470  146.3400 C   0  0  0  0  0  3  0  0  0  0  0  0
  184.3040  178.9200  146.4420 O   0  0  0  0  0  0  0  0  0  0  0  0
  184.4910  178.1470  141.8400 C   0  0  0  0  0  2  0  0  0  0  0  0
  189.9910  177.4160  144.0620 C   0  0  0  0  0  3  0  0  0  0  0  0
  185.1440  178.4230  143.1410 C   0  0  2  0  0  3  0  0  0  0  0  0
  189.2520  177.0280  146.7320 C   0  0  0  0  0  3  0  0  0  0  0  0
  186.9350  177.5940  146.1940 N   0  0  0  0  0  2  0  0  0  0  0  0
  190.9500  177.0430  145.0070 C   0  0  0  0  0  3  0  0  0  0  0  0
  182.7260  178.4700  139.6670 C   0  0  0  0  0  3  0  0  0  0  0  0
  181.0130  179.3390  141.0660 O   0  0  0  0  0  1  0  0  0  0  0  0
  182.2390  178.7100  140.8920 C   0  0  0  0  0  0  0  0  0  0  0  0
  181.6750  178.0870  137.4370 C   0  0  0  0  0  0  0  0  0  0  0  0
  181.6540  176.7410  137.5990 F   0  0  0  0  0  0  0  0  0  0  0  0
  182.1150  178.9020  138.3950 C   0  0  0  0  0  3  0  0  0  0  0  0
  181.1500  178.6210  136.3080 F   0  0  0  0  0  0  0  0  0  0  0  0
  187.9570  177.6780  142.0810 N   0  0  0  0  0  2  0  0  0  0  0  0
  188.5400  178.6980  140.0670 O   0  0  0  0  0  1  0  0  0  0  0  0
  187.7680  178.8360  141.2210 C   0  0  0  0  0  2  0  0  0  0  0  0
  1  7  1  1  0  0  0
  2 20  1  6  0  0  0
  2  4  1  0  0  0  0
  3  5  1  0  0  0  0
  5 16  1  0  0  0  0
  5 15  2  0  0  0  0
  6 25  1  6  0  0  0
  6  1  1  0  0  0  0
  6  3  1  0  0  0  0
  7  9  1  0  0  0  0
  7 16  1  0  0  0  0
  8  4  1  6  0  0  0
  8  9  1  0  0  0  0
  9 11  2  0  0  0  0
 10 15  1  0  0  0  0
 12  2  1  0  0  0  0
 13  3  2  0  0  0  0
 13 17  1  0  0  0  0
 14 12  1  6  0  0  0
 14  1  1  0  0  0  0
 14  8  1  0  0  0  0
 17 10  2  0  0  0  0
 18 20  2  0  0  0  0
 20 19  1  0  0  0  0
 21 22  1  0  0  0  0
 21 23  2  0  0  0  0
 23 18  1  0  0  0  0
 24 21  1  0  0  0  0
 26 27  1  0  0  0  0
 27 25  1  0  0  0  0
M  END
>  <MODEL>
8

>  <REMARK>
 VINA RESULT:      -7.6      1.249      1.434
  Name = 
  4 active torsions:
  status: ('A' for Active; 'I' for Inactive)
    1  A    between atoms: C_3  and  C_20
    2  A    between atoms: N_4  and  C_8
    3  A    between atoms: N_4  and  C_11
    4  A    between atoms: C_10  and  C_26
                            x       y       z     vdW  Elec       q    Type
                         _______ _______ _______ _____ _____    ______ ____

>  <TORSDO>
F 4

$$$$
=
 OpenBabel11062414463D

 27 30  0  0  1  0  0  0  0  0999 V2000
  189.1010  177.1460  140.7630 C   0  0  1  0  0  3  0  0  0  0  0  0
  190.1620  176.8760  144.2950 C   0  0  2  0  0  3  0  0  0  0  0  0
  188.0180  177.9010  138.6140 C   0  0  0  0  0  0  0  0  0  0  0  0
  191.6860  177.7000  143.6920 S   0  0  0  0  0  0  0  0  0  0  0  0
  189.1520  177.4760  137.8920 C   0  0  0  0  0  0  0  0  0  0  0  0
  188.1160  178.1270  140.1130 C   0  0  1  0  0  3  0  0  0  0  0  0
  190.3360  177.0760  139.9840 N   0  0  0  0  0  0  0  0  0  0  0  0
  190.8770  177.8540  142.1170 C   0  0  1  0  0  3  0  0  0  0  0  0
  191.3980  177.4830  140.8240 C   0  0  0  0  0  0  0  0  0  0  0  0
  187.9240  177.6780  135.8150 C   0  0  0  0  0  3  0  0  0  0  0  0
  192.6080  177.5110  140.4780 O   0  0  0  0  0  0  0  0  0  0  0  0
  188.9830  177.2980  143.4150 C   0  0  0  0  0  2  0  0  0  0  0  0
  186.8500  178.2370  137.9120 C   0  0  0  0  0  3  0  0  0  0  0  0
  189.5770  177.6480  142.1040 C   0  0  2  0  0  3  0  0  0  0  0  0
  189.1010  177.3650  136.4990 C   0  0  0  0  0  3  0  0  0  0  0  0
  190.3610  177.1730  138.5860 N   0  0  0  0  0  2  0  0  0  0  0  0
  186.8010  178.1160  136.5210 C   0  0  0  0  0  3  0  0  0  0  0  0
  188.8360  177.8780  146.1130 C   0  0  0  0  0  3  0  0  0  0  0  0
  190.7840  176.6420  146.6840 O   0  0  0  0  0  1  0  0  0  0  0  0
  189.9080  177.1660  145.7420 C   0  0  0  0  0  0  0  0  0  0  0  0
  188.0410  177.4550  148.4390 C   0  0  0  0  0  0  0  0  0  0  0  0
  187.9380  176.1190  148.2370 F   0  0  0  0  0  0  0  0  0  0  0  0
  188.5000  178.2750  147.4940 C   0  0  0  0  0  3  0  0  0  0  0  0
  187.7550  177.9580  149.6650 F   0  0  0  0  0  0  0  0  0  0  0  0
  186.8110  177.9950  140.7520 N   0  0  0  0  0  2  0  0  0  0  0  0
  185.2790  179.7510  140.8170 O   0  0  0  0  0  1  0  0  0  0  0  0
  186.4830  179.2830  141.3440 C   0  0  0  0  0  2  0  0  0  0  0  0
  1  7  1  6  0  0  0
  1 14  1  0  0  0  0
  2 20  1  1  0  0  0
  3  6  1  0  0  0  0
  4  2  1  0  0  0  0
  5 16  1  0  0  0  0
  5  3  2  0  0  0  0
  6 25  1  1  0  0  0
  6  1  1  0  0  0  0
  7  9  1  0  0  0  0
  8  9  1  6  0  0  0
  8  4  1  0  0  0  0
 10 15  2  0  0  0  0
 10 17  1  0  0  0  0
 11  9  2  0  0  0  0
 12  2  1  0  0  0  0
 13  3  1  0  0  0  0
 14  8  1  0  0  0  0
 14 12  1  1  0  0  0
 15  5  1  0  0  0  0
 16  7  1  0  0  0  0
 17 13  2  0  0  0  0
 18 23  1  0  0  0  0
 20 18  2  0  0  0  0
 20 19  1  0  0  0  0
 21 24  1  0  0  0  0
 22 21  1  0  0  0  0
 23 21  2  0  0  0  0
 25 27  1  0  0  0  0
 26 27  1  0  0  0  0
M  END
>  <MODEL>
9

>  <REMARK>
 VINA RESULT:      -7.5      4.842      8.288
  Name = 
  4 active torsions:
  status: ('A' for Active; 'I' for Inactive)
    1  A    between atoms: C_3  and  C_20
    2  A    between atoms: N_4  and  C_8
    3  A    between atoms: N_4  and  C_11
    4  A    between atoms: C_10  and  C_26
                            x       y       z     vdW  Elec       q    Type
                         _______ _______ _______ _____ _____    ______ ____

>  <TORSDO>
F 4

$$$$
