=
 OpenBabel11062413463D

 35 39  0  0  1  0  0  0  0  0999 V2000
  192.2950  177.2250  139.6880 C   0  0  0  0  0  0  0  0  0  0  0  0
  190.9710  175.5510  138.8550 O   0  0  0  0  0  0  0  0  0  0  0  0
  192.2390  175.7230  136.9350 C   0  0  0  0  0  2  0  0  0  0  0  0
  187.5060  177.5000  138.8740 N   0  0  0  0  0  2  0  0  0  0  0  0
  185.7580  179.0360  144.1370 C   0  0  0  0  0  3  0  0  0  0  0  0
  187.0990  179.0200  140.7280 C   0  0  0  0  0  2  0  0  0  0  0  0
  188.7310  176.7100  143.1180 N   0  0  0  0  0  0  0  0  0  0  0  0
  188.1790  178.3240  139.8720 C   0  0  1  0  0  3  0  0  0  0  0  0
  188.3600  177.4200  137.6970 C   0  0  2  0  0  3  0  0  0  0  0  0
  192.2080  173.2980  136.3030 C   0  0  0  0  0  1  0  0  0  0  0  0
  190.1140  176.7610  140.7260 C   0  0  0  0  0  0  0  0  0  0  0  0
  188.2590  177.4200  142.0630 C   0  0  0  0  0  0  0  0  0  0  0  0
  191.5860  174.6560  136.0430 C   0  0  0  0  0  0  0  0  0  0  0  0
  190.0750  174.5640  136.2670 C   0  0  0  0  0  2  0  0  0  0  0  0
  187.1300  175.8410  136.3830 F   0  0  0  0  0  0  0  0  0  0  0  0
  189.8850  176.0000  142.9710 C   0  0  0  0  0  3  0  0  0  0  0  0
  186.4370  178.6670  143.0860 C   0  0  0  0  0  0  0  0  0  0  0  0
  187.9720  178.4960  136.6930 C   0  0  0  0  0  1  0  0  0  0  0  0
  189.4450  175.8790  136.1600 N   0  0  0  0  0  2  0  0  0  0  0  0
  191.8490  175.0200  134.5940 C   0  0  0  0  0  1  0  0  0  0  0  0
  190.5670  176.0320  141.7880 N   0  0  0  0  0  0  0  0  0  0  0  0
  192.6620  178.2290  140.2770 O   0  0  0  0  0  0  0  0  0  0  0  0
  193.1660  176.2720  139.0300 C   0  0  0  0  0  2  0  0  0  0  0  0
  188.9040  177.4520  140.8610 C   0  0  0  0  0  0  0  0  0  0  0  0
  188.3570  175.0780  138.1070 F   0  0  0  0  0  0  0  0  0  0  0  0
  187.1150  178.2950  142.0350 C   0  0  0  0  0  0  0  0  0  0  0  0
  188.3120  176.0180  137.0830 C   0  0  0  0  0  0  0  0  0  0  0  0
  190.9090  176.8280  139.4570 C   0  0  1  0  0  3  0  0  0  0  0  0
  192.2420  175.3630  138.3560 N   0  0  1  0  0  0  0  0  0  0  0  0
  184.8810  178.0670  144.8620 C   0  0  0  0  0  2  0  0  0  0  0  0
  186.9570  178.7380  147.6680 N   0  0  0  0  0  2  0  0  0  0  0  0
  187.5120  177.5140  147.1100 C   0  0  0  0  0  2  0  0  0  0  0  0
  185.6210  178.8060  147.1210 C   0  0  0  0  0  2  0  0  0  0  0  0
  186.7930  177.1500  145.9620 O   0  0  0  0  0  0  0  0  0  0  0  0
  185.5010  177.6330  146.1830 C   0  0  2  0  0  3  0  0  0  0  0  0
  1 22  2  0  0  0  0
  4  8  1  0  0  0  0
  5 30  1  0  0  0  0
  6 26  1  0  0  0  0
  8  6  1  1  0  0  0
  8 24  1  0  0  0  0
  9 18  1  6  0  0  0
  9  4  1  0  0  0  0
 11 24  2  0  0  0  0
 11 21  1  0  0  0  0
 12  7  2  0  0  0  0
 13 14  1  0  0  0  0
 13 10  1  0  0  0  0
 13  3  1  0  0  0  0
 15 27  1  0  0  0  0
 16  7  1  0  0  0  0
 17  5  2  0  0  0  0
 19 14  1  0  0  0  0
 19 27  1  0  0  0  0
 20 13  1  0  0  0  0
 21 16  2  0  0  0  0
 23  1  1  0  0  0  0
 24 12  1  0  0  0  0
 26 12  1  0  0  0  0
 26 17  2  0  0  0  0
 27  9  1  0  0  0  0
 27 25  1  0  0  0  0
 28  2  1  1  0  0  0
 28  1  1  0  0  0  0
 28 11  1  0  0  0  0
 29  3  1  6  0  0  0
 29  2  1  0  0  0  0
 29 23  1  0  0  0  0
 32 31  1  0  0  0  0
 33 31  1  0  0  0  0
 34 35  1  0  0  0  0
 34 32  1  0  0  0  0
 35 30  1  6  0  0  0
 35 33  1  0  0  0  0
M  END
>  <MODEL>
1

>  <REMARK>
 VINA RESULT:      -7.0      0.000      0.000
  Name = 
  2 active torsions:
  status: ('A' for Active; 'I' for Inactive)
    1  A    between atoms: C_6  and  C_26
    2  A    between atoms: C_26  and  C_35
                            x       y       z     vdW  Elec       q    Type
                         _______ _______ _______ _____ _____    ______ ____

>  <TORSDO>
F 2

$$$$
=
 OpenBabel11062413463D

 35 39  0  0  1  0  0  0  0  0999 V2000
  186.4450  173.6930  137.3620 C   0  0  0  0  0  0  0  0  0  0  0  0
  187.6580  175.2250  136.1660 O   0  0  0  0  0  0  0  0  0  0  0  0
  189.5250  174.1870  137.0360 C   0  0  0  0  0  2  0  0  0  0  0  0
  186.4230  178.5120  138.0310 N   0  0  0  0  0  2  0  0  0  0  0  0
  180.7830  179.5010  137.4610 C   0  0  0  0  0  3  0  0  0  0  0  0
  184.0940  178.5820  138.7290 C   0  0  0  0  0  2  0  0  0  0  0  0
  183.0080  176.8480  135.6420 N   0  0  0  0  0  0  0  0  0  0  0  0
  185.2910  177.6660  138.3930 C   0  0  1  0  0  3  0  0  0  0  0  0
  187.6480  177.8130  138.3920 C   0  0  2  0  0  3  0  0  0  0  0  0
  191.0180  174.4710  135.0420 C   0  0  0  0  0  1  0  0  0  0  0  0
  185.3690  175.7620  136.5810 C   0  0  0  0  0  0  0  0  0  0  0  0
  183.6390  177.3910  136.7140 C   0  0  0  0  0  0  0  0  0  0  0  0
  190.6550  175.0190  136.4100 C   0  0  0  0  0  0  0  0  0  0  0  0
  190.2760  176.4940  136.2710 C   0  0  0  0  0  2  0  0  0  0  0  0
  189.2780  179.3040  137.4670 F   0  0  0  0  0  0  0  0  0  0  0  0
  183.5710  175.7760  135.0200 C   0  0  0  0  0  3  0  0  0  0  0  0
  181.9780  178.9810  137.5100 C   0  0  0  0  0  0  0  0  0  0  0  0
  188.1060  178.2390  139.7800 C   0  0  0  0  0  1  0  0  0  0  0  0
  189.7880  177.0350  137.5390 N   0  0  0  0  0  2  0  0  0  0  0  0
  191.8800  174.9050  137.2980 C   0  0  0  0  0  1  0  0  0  0  0  0
  184.7360  175.2400  135.4900 N   0  0  0  0  0  0  0  0  0  0  0  0
  185.5770  173.1860  138.0530 O   0  0  0  0  0  0  0  0  0  0  0  0
  187.5290  172.9780  136.7170 C   0  0  0  0  0  2  0  0  0  0  0  0
  184.8170  176.8930  137.1920 C   0  0  0  0  0  0  0  0  0  0  0  0
  188.1590  177.9380  136.0740 F   0  0  0  0  0  0  0  0  0  0  0  0
  183.1750  178.4630  137.5570 C   0  0  0  0  0  0  0  0  0  0  0  0
  188.7350  178.0360  137.3360 C   0  0  0  0  0  0  0  0  0  0  0  0
  186.6150  175.1220  137.1140 C   0  0  1  0  0  3  0  0  0  0  0  0
  188.3610  174.0400  136.1570 N   0  0  1  0  0  0  0  0  0  0  0  0
  180.3650  180.3530  136.3070 C   0  0  0  0  0  2  0  0  0  0  0  0
  180.9570  183.8440  135.9920 N   0  0  0  0  0  2  0  0  0  0  0  0
  181.2350  183.5690  137.3940 C   0  0  0  0  0  2  0  0  0  0  0  0
  180.1590  182.7190  135.5600 C   0  0  0  0  0  2  0  0  0  0  0  0
  181.0660  182.2010  137.6490 O   0  0  0  0  0  0  0  0  0  0  0  0
  180.0890  181.7870  136.7410 C   0  0  2  0  0  3  0  0  0  0  0  0
  1 22  2  0  0  0  0
  4  9  1  0  0  0  0
  4  8  1  0  0  0  0
  5 17  2  0  0  0  0
  7 12  1  0  0  0  0
  8  6  1  6  0  0  0
  9 18  1  1  0  0  0
 10 13  1  0  0  0  0
 11 28  1  0  0  0  0
 11 24  1  0  0  0  0
 12 24  2  0  0  0  0
 12 26  1  0  0  0  0
 13  3  1  0  0  0  0
 13 20  1  0  0  0  0
 14 13  1  0  0  0  0
 14 19  1  0  0  0  0
 16 21  1  0  0  0  0
 16  7  2  0  0  0  0
 17 26  2  0  0  0  0
 21 11  2  0  0  0  0
 23  1  1  0  0  0  0
 24  8  1  0  0  0  0
 25 27  1  0  0  0  0
 26  6  1  0  0  0  0
 27 15  1  0  0  0  0
 27 19  1  0  0  0  0
 27  9  1  0  0  0  0
 28  2  1  6  0  0  0
 28  1  1  0  0  0  0
 29  2  1  0  0  0  0
 29 23  1  1  0  0  0
 29  3  1  0  0  0  0
 30  5  1  0  0  0  0
 31 32  1  0  0  0  0
 32 34  1  0  0  0  0
 33 31  1  0  0  0  0
 33 35  1  0  0  0  0
 35 30  1  6  0  0  0
 35 34  1  0  0  0  0
M  END
>  <MODEL>
2

>  <REMARK>
 VINA RESULT:      -6.9      5.001      7.176
  Name = 
  2 active torsions:
  status: ('A' for Active; 'I' for Inactive)
    1  A    between atoms: C_6  and  C_26
    2  A    between atoms: C_26  and  C_35
                            x       y       z     vdW  Elec       q    Type
                         _______ _______ _______ _____ _____    ______ ____

>  <TORSDO>
F 2

$$$$
=
 OpenBabel11062413463D

 35 39  0  0  1  0  0  0  0  0999 V2000
  182.7950  180.1270  138.4830 C   0  0  0  0  0  0  0  0  0  0  0  0
  182.4790  177.8590  138.5200 O   0  0  0  0  0  0  0  0  0  0  0  0
  180.8540  178.2210  136.9230 C   0  0  0  0  0  2  0  0  0  0  0  0
  181.2290  177.5170  142.2780 N   0  0  0  0  0  2  0  0  0  0  0  0
  185.1750  179.0750  146.1670 C   0  0  0  0  0  3  0  0  0  0  0  0
  182.2750  178.9620  143.9300 C   0  0  0  0  0  2  0  0  0  0  0  0
  185.5840  178.6000  142.3060 N   0  0  0  0  0  0  0  0  0  0  0  0
  181.9250  178.7890  142.4370 C   0  0  1  0  0  3  0  0  0  0  0  0
  180.3160  177.6330  141.1500 C   0  0  2  0  0  3  0  0  0  0  0  0
  181.2030  176.1110  135.6140 C   0  0  0  0  0  1  0  0  0  0  0  0
  183.5920  178.8130  140.4030 C   0  0  0  0  0  0  0  0  0  0  0  0
  184.2800  178.6490  142.6760 C   0  0  0  0  0  0  0  0  0  0  0  0
  180.3510  176.7910  136.6700 C   0  0  0  0  0  0  0  0  0  0  0  0
  180.3650  175.9430  137.9430 C   0  0  0  0  0  2  0  0  0  0  0  0
  179.5390  175.3730  140.9950 F   0  0  0  0  0  0  0  0  0  0  0  0
  185.8950  178.6300  140.9810 C   0  0  0  0  0  3  0  0  0  0  0  0
  184.4610  178.8960  145.0900 C   0  0  0  0  0  0  0  0  0  0  0  0
  178.9310  178.0330  141.6360 C   0  0  0  0  0  1  0  0  0  0  0  0
  179.6690  176.6210  139.0360 N   0  0  0  0  0  2  0  0  0  0  0  0
  178.9310  176.8710  136.1440 C   0  0  0  0  0  1  0  0  0  0  0  0
  184.9070  178.7400  140.0440 N   0  0  0  0  0  0  0  0  0  0  0  0
  183.0030  181.2750  138.8410 O   0  0  0  0  0  0  0  0  0  0  0  0
  182.6920  179.6830  137.1070 C   0  0  0  0  0  2  0  0  0  0  0  0
  183.2680  178.7330  141.7630 C   0  0  0  0  0  0  0  0  0  0  0  0
  181.5870  175.8610  140.2020 F   0  0  0  0  0  0  0  0  0  0  0  0
  183.7470  178.7130  144.0130 C   0  0  0  0  0  0  0  0  0  0  0  0
  180.2860  176.3360  140.3370 C   0  0  0  0  0  0  0  0  0  0  0  0
  182.5290  178.9920  139.3620 C   0  0  1  0  0  3  0  0  0  0  0  0
  182.2880  178.2840  137.2230 N   0  0  1  0  0  0  0  0  0  0  0  0
  186.0750  177.9970  146.6780 C   0  0  0  0  0  2  0  0  0  0  0  0
  189.0200  176.8380  145.0600 N   0  0  0  0  0  2  0  0  0  0  0  0
  189.4740  177.1880  146.3980 C   0  0  0  0  0  2  0  0  0  0  0  0
  187.7700  177.5460  144.9110 C   0  0  0  0  0  2  0  0  0  0  0  0
  188.3870  177.6380  147.1620 O   0  0  0  0  0  0  0  0  0  0  0  0
  187.5160  178.2170  146.2360 C   0  0  2  0  0  3  0  0  0  0  0  0
  1 22  2  0  0  0  0
  2 28  1  0  0  0  0
  4  8  1  0  0  0  0
  5 30  1  0  0  0  0
  6 26  1  0  0  0  0
  7 12  1  0  0  0  0
  8  6  1  1  0  0  0
  9 18  1  1  0  0  0
  9  4  1  0  0  0  0
 10 13  1  0  0  0  0
 11 24  1  0  0  0  0
 12 26  1  0  0  0  0
 13  3  1  0  0  0  0
 13 14  1  0  0  0  0
 14 19  1  0  0  0  0
 16  7  2  0  0  0  0
 17  5  2  0  0  0  0
 19 27  1  0  0  0  0
 20 13  1  0  0  0  0
 21 11  2  0  0  0  0
 21 16  1  0  0  0  0
 23 29  1  0  0  0  0
 23  1  1  0  0  0  0
 24  8  1  0  0  0  0
 24 12  2  0  0  0  0
 25 27  1  0  0  0  0
 26 17  2  0  0  0  0
 27 15  1  0  0  0  0
 27  9  1  0  0  0  0
 28  1  1  6  0  0  0
 28 11  1  0  0  0  0
 29  3  1  1  0  0  0
 29  2  1  0  0  0  0
 31 32  1  0  0  0  0
 32 34  1  0  0  0  0
 33 31  1  0  0  0  0
 33 35  1  0  0  0  0
 35 30  1  1  0  0  0
 35 34  1  0  0  0  0
M  END
>  <MODEL>
3

>  <REMARK>
 VINA RESULT:      -6.7      5.452      7.812
  Name = 
  2 active torsions:
  status: ('A' for Active; 'I' for Inactive)
    1  A    between atoms: C_6  and  C_26
    2  A    between atoms: C_26  and  C_35
                            x       y       z     vdW  Elec       q    Type
                         _______ _______ _______ _____ _____    ______ ____

>  <TORSDO>
F 2

$$$$
=
 OpenBabel11062413463D

 35 39  0  0  1  0  0  0  0  0999 V2000
  192.7890  177.1330  139.4120 C   0  0  0  0  0  0  0  0  0  0  0  0
  191.6300  175.3220  138.6200 O   0  0  0  0  0  0  0  0  0  0  0  0
  193.1400  175.3230  136.8750 C   0  0  0  0  0  2  0  0  0  0  0  0
  188.1470  177.1190  137.9550 N   0  0  0  0  0  2  0  0  0  0  0  0
  185.6710  179.1780  142.7240 C   0  0  0  0  0  3  0  0  0  0  0  0
  187.4580  178.8250  139.5450 C   0  0  0  0  0  2  0  0  0  0  0  0
  188.8110  176.8720  142.3860 N   0  0  0  0  0  0  0  0  0  0  0  0
  188.6600  178.0790  138.9270 C   0  0  1  0  0  3  0  0  0  0  0  0
  189.1530  176.9390  136.9180 C   0  0  2  0  0  3  0  0  0  0  0  0
  193.2530  172.8420  136.5380 C   0  0  0  0  0  1  0  0  0  0  0  0
  190.5010  176.7040  140.2050 C   0  0  0  0  0  0  0  0  0  0  0  0
  188.4670  177.4370  141.2020 C   0  0  0  0  0  0  0  0  0  0  0  0
  192.6380  174.1360  136.0380 C   0  0  0  0  0  0  0  0  0  0  0  0
  191.1140  174.0090  136.0740 C   0  0  0  0  0  2  0  0  0  0  0  0
  188.1490  175.1710  135.6520 F   0  0  0  0  0  0  0  0  0  0  0  0
  189.9910  176.1970  142.4760 C   0  0  0  0  0  3  0  0  0  0  0  0
  186.4950  178.7190  141.8230 C   0  0  0  0  0  0  0  0  0  0  0  0
  188.8760  177.8760  135.7500 C   0  0  0  0  0  1  0  0  0  0  0  0
  190.4720  175.2770  135.7300 N   0  0  0  0  0  2  0  0  0  0  0  0
  193.0840  174.3410  134.6030 C   0  0  0  0  0  1  0  0  0  0  0  0
  190.8250  176.1200  141.3960 N   0  0  0  0  0  0  0  0  0  0  0  0
  193.0490  178.2120  139.9210 O   0  0  0  0  0  0  0  0  0  0  0  0
  193.7640  176.1460  138.9920 C   0  0  0  0  0  2  0  0  0  0  0  0
  189.2670  177.3560  140.0980 C   0  0  0  0  0  0  0  0  0  0  0  0
  189.1520  174.6620  137.6000 F   0  0  0  0  0  0  0  0  0  0  0  0
  187.3160  178.2560  140.9200 C   0  0  0  0  0  0  0  0  0  0  0  0
  189.2220  175.4750  136.4740 C   0  0  0  0  0  0  0  0  0  0  0  0
  191.4560  176.6560  139.0520 C   0  0  1  0  0  3  0  0  0  0  0  0
  192.9610  175.1290  138.3170 N   0  0  1  0  0  0  0  0  0  0  0  0
  184.7290  178.2650  143.4390 C   0  0  0  0  0  2  0  0  0  0  0  0
  185.5410  179.1270  146.7910 N   0  0  0  0  0  2  0  0  0  0  0  0
  186.7840  178.5870  146.2600 C   0  0  0  0  0  2  0  0  0  0  0  0
  184.5240  178.6270  145.8940 C   0  0  0  0  0  2  0  0  0  0  0  0
  186.6080  178.2310  144.9150 O   0  0  0  0  0  0  0  0  0  0  0  0
  185.2600  177.8790  144.8130 C   0  0  2  0  0  3  0  0  0  0  0  0
  1 22  2  0  0  0  0
  4  8  1  0  0  0  0
  5 30  1  0  0  0  0
  6 26  1  0  0  0  0
  7 16  1  0  0  0  0
  8  6  1  1  0  0  0
  8 24  1  0  0  0  0
  9 18  1  6  0  0  0
  9  4  1  0  0  0  0
 11 21  1  0  0  0  0
 12  7  2  0  0  0  0
 13 14  1  0  0  0  0
 13 10  1  0  0  0  0
 13  3  1  0  0  0  0
 15 27  1  0  0  0  0
 17  5  2  0  0  0  0
 19 14  1  0  0  0  0
 19 27  1  0  0  0  0
 20 13  1  0  0  0  0
 21 16  2  0  0  0  0
 23  1  1  0  0  0  0
 24 11  2  0  0  0  0
 24 12  1  0  0  0  0
 26 12  1  0  0  0  0
 26 17  2  0  0  0  0
 27  9  1  0  0  0  0
 27 25  1  0  0  0  0
 28  2  1  1  0  0  0
 28  1  1  0  0  0  0
 28 11  1  0  0  0  0
 29  3  1  6  0  0  0
 29  2  1  0  0  0  0
 29 23  1  0  0  0  0
 32 31  1  0  0  0  0
 33 31  1  0  0  0  0
 34 32  1  0  0  0  0
 35 30  1  6  0  0  0
 35 34  1  0  0  0  0
 35 33  1  0  0  0  0
M  END
>  <MODEL>
4

>  <REMARK>
 VINA RESULT:      -6.6      1.061      1.146
  Name = 
  2 active torsions:
  status: ('A' for Active; 'I' for Inactive)
    1  A    between atoms: C_6  and  C_26
    2  A    between atoms: C_26  and  C_35
                            x       y       z     vdW  Elec       q    Type
                         _______ _______ _______ _____ _____    ______ ____

>  <TORSDO>
F 2

$$$$
=
 OpenBabel11062413463D

 35 39  0  0  1  0  0  0  0  0999 V2000
  182.7980  175.8660  135.8230 C   0  0  0  0  0  0  0  0  0  0  0  0
  182.6670  175.7570  138.1080 O   0  0  0  0  0  0  0  0  0  0  0  0
  180.5090  176.5360  137.8610 C   0  0  0  0  0  2  0  0  0  0  0  0
  185.4450  178.4680  138.9690 N   0  0  0  0  0  2  0  0  0  0  0  0
  190.7150  177.0160  137.1690 C   0  0  0  0  0  3  0  0  0  0  0  0
  187.4040  178.5440  137.5310 C   0  0  0  0  0  2  0  0  0  0  0  0
  187.4580  174.8520  137.2330 N   0  0  0  0  0  0  0  0  0  0  0  0
  185.9130  178.1550  137.6230 C   0  0  1  0  0  3  0  0  0  0  0  0
  184.0260  178.7870  138.8960 C   0  0  2  0  0  3  0  0  0  0  0  0
  179.4840  175.2720  139.7680 C   0  0  0  0  0  1  0  0  0  0  0  0
  184.8590  175.7900  137.1630 C   0  0  0  0  0  0  0  0  0  0  0  0
  187.1950  176.1700  137.4180 C   0  0  0  0  0  0  0  0  0  0  0  0
  180.0440  176.6100  139.3240 C   0  0  0  0  0  0  0  0  0  0  0  0
  181.1770  177.0150  140.2690 C   0  0  0  0  0  2  0  0  0  0  0  0
  183.5150  178.9980  141.2260 F   0  0  0  0  0  0  0  0  0  0  0  0
  186.4180  173.9940  137.0380 C   0  0  0  0  0  3  0  0  0  0  0  0
  189.4290  177.1310  137.3610 C   0  0  0  0  0  0  0  0  0  0  0  0
  183.8330  180.2910  138.7600 C   0  0  0  0  0  1  0  0  0  0  0  0
  181.8400  178.2330  139.8060 N   0  0  0  0  0  2  0  0  0  0  0  0
  178.9310  177.6360  139.4180 C   0  0  0  0  0  1  0  0  0  0  0  0
  185.1360  174.4630  137.0000 N   0  0  0  0  0  0  0  0  0  0  0  0
  183.2210  176.0480  134.6930 O   0  0  0  0  0  0  0  0  0  0  0  0
  181.5210  175.2650  136.1550 C   0  0  0  0  0  2  0  0  0  0  0  0
  185.9220  176.6660  137.4110 C   0  0  0  0  0  0  0  0  0  0  0  0
  183.7440  176.9350  140.3600 F   0  0  0  0  0  0  0  0  0  0  0  0
  188.1440  177.2450  137.5560 C   0  0  0  0  0  0  0  0  0  0  0  0
  183.2770  178.2200  140.1050 C   0  0  0  0  0  0  0  0  0  0  0  0
  183.4500  176.2900  137.0590 C   0  0  1  0  0  3  0  0  0  0  0  0
  181.4290  175.4230  137.6040 N   0  0  1  0  0  0  0  0  0  0  0  0
  191.5700  176.2620  138.1360 C   0  0  0  0  0  2  0  0  0  0  0  0
  193.9010  173.6290  137.6200 N   0  0  0  0  0  2  0  0  0  0  0  0
  194.7280  174.7460  138.0540 C   0  0  0  0  0  2  0  0  0  0  0  0
  192.6730  174.2470  137.1760 C   0  0  0  0  0  2  0  0  0  0  0  0
  193.9160  175.8570  138.3250 O   0  0  0  0  0  0  0  0  0  0  0  0
  192.8240  175.7180  137.4650 C   0  0  2  0  0  3  0  0  0  0  0  0
  1 23  1  0  0  0  0
  3 13  1  0  0  0  0
  5 17  2  0  0  0  0
  5 30  1  0  0  0  0
  6 26  1  0  0  0  0
  7 12  1  0  0  0  0
  8  6  1  1  0  0  0
  8  4  1  0  0  0  0
  9 18  1  1  0  0  0
  9  4  1  0  0  0  0
  9 27  1  0  0  0  0
 11 24  1  0  0  0  0
 12 26  1  0  0  0  0
 13 20  1  0  0  0  0
 13 10  1  0  0  0  0
 13 14  1  0  0  0  0
 16  7  2  0  0  0  0
 17 26  2  0  0  0  0
 19 27  1  0  0  0  0
 19 14  1  0  0  0  0
 21 16  1  0  0  0  0
 21 11  2  0  0  0  0
 22  1  2  0  0  0  0
 24 12  2  0  0  0  0
 24  8  1  0  0  0  0
 27 25  1  0  0  0  0
 27 15  1  0  0  0  0
 28  1  1  6  0  0  0
 28 11  1  0  0  0  0
 28  2  1  0  0  0  0
 29 23  1  6  0  0  0
 29  3  1  0  0  0  0
 29  2  1  0  0  0  0
 31 32  1  0  0  0  0
 32 34  1  0  0  0  0
 33 35  1  0  0  0  0
 33 31  1  0  0  0  0
 35 30  1  1  0  0  0
 35 34  1  0  0  0  0
M  END
>  <MODEL>
5

>  <REMARK>
 VINA RESULT:      -5.9      4.837      9.029
  Name = 
  2 active torsions:
  status: ('A' for Active; 'I' for Inactive)
    1  A    between atoms: C_6  and  C_26
    2  A    between atoms: C_26  and  C_35
                            x       y       z     vdW  Elec       q    Type
                         _______ _______ _______ _____ _____    ______ ____

>  <TORSDO>
F 2

$$$$
=
 OpenBabel11062413463D

 35 39  0  0  1  0  0  0  0  0999 V2000
  193.0440  176.9840  139.0450 C   0  0  0  0  0  0  0  0  0  0  0  0
  191.9240  175.0940  138.3990 O   0  0  0  0  0  0  0  0  0  0  0  0
  193.5200  174.9070  136.7440 C   0  0  0  0  0  2  0  0  0  0  0  0
  188.4830  176.7940  137.3630 N   0  0  0  0  0  2  0  0  0  0  0  0
  185.7720  179.3590  141.7440 C   0  0  0  0  0  3  0  0  0  0  0  0
  187.7170  178.6630  138.7180 C   0  0  0  0  0  2  0  0  0  0  0  0
  188.9200  177.0390  141.8220 N   0  0  0  0  0  0  0  0  0  0  0  0
  188.9480  177.8570  138.2480 C   0  0  1  0  0  3  0  0  0  0  0  0
  189.5400  176.5040  136.4050 C   0  0  2  0  0  3  0  0  0  0  0  0
  193.6450  172.4040  136.6880 C   0  0  0  0  0  1  0  0  0  0  0  0
  190.7180  176.6370  139.7630 C   0  0  0  0  0  0  0  0  0  0  0  0
  188.6380  177.4690  140.5670 C   0  0  0  0  0  0  0  0  0  0  0  0
  193.0590  173.6330  136.0190 C   0  0  0  0  0  0  0  0  0  0  0  0
  191.5350  173.5060  135.9900 C   0  0  0  0  0  2  0  0  0  0  0  0
  188.5980  174.6040  135.2920 F   0  0  0  0  0  0  0  0  0  0  0  0
  190.0920  176.3830  142.0460 C   0  0  0  0  0  3  0  0  0  0  0  0
  186.6390  178.8060  140.9420 C   0  0  0  0  0  0  0  0  0  0  0  0
  189.3250  177.3060  135.1290 C   0  0  0  0  0  1  0  0  0  0  0  0
  190.9140  174.7260  135.4760 N   0  0  0  0  0  2  0  0  0  0  0  0
  193.5780  173.6800  134.5940 C   0  0  0  0  0  1  0  0  0  0  0  0
  190.9790  176.1900  141.0260 N   0  0  0  0  0  0  0  0  0  0  0  0
  193.2800  178.1130  139.4440 O   0  0  0  0  0  0  0  0  0  0  0  0
  194.0370  175.9600  138.7860 C   0  0  0  0  0  2  0  0  0  0  0  0
  189.4920  177.2700  139.5210 C   0  0  0  0  0  0  0  0  0  0  0  0
  189.4990  174.3160  137.3330 F   0  0  0  0  0  0  0  0  0  0  0  0
  187.5040  178.2490  140.1390 C   0  0  0  0  0  0  0  0  0  0  0  0
  189.6280  175.0000  136.1290 C   0  0  0  0  0  0  0  0  0  0  0  0
  191.7310  176.4660  138.6720 C   0  0  1  0  0  3  0  0  0  0  0  0
  193.2670  174.8730  138.1870 N   0  0  1  0  0  0  0  0  0  0  0  0
  184.7930  178.5270  142.5060 C   0  0  0  0  0  2  0  0  0  0  0  0
  182.3820  179.3680  140.0330 N   0  0  0  0  0  2  0  0  0  0  0  0
  181.5790  178.9600  141.1760 C   0  0  0  0  0  2  0  0  0  0  0  0
  183.6860  178.8020  140.2930 C   0  0  0  0  0  2  0  0  0  0  0  0
  182.4190  178.6260  142.2480 O   0  0  0  0  0  0  0  0  0  0  0  0
  183.5900  178.1540  141.6490 C   0  0  2  0  0  3  0  0  0  0  0  0
  1 22  2  0  0  0  0
  4  8  1  0  0  0  0
  5 30  1  0  0  0  0
  6 26  1  0  0  0  0
  7 16  1  0  0  0  0
  8  6  1  1  0  0  0
  8 24  1  0  0  0  0
  9 18  1  6  0  0  0
  9  4  1  0  0  0  0
 11 21  1  0  0  0  0
 12  7  2  0  0  0  0
 13 10  1  0  0  0  0
 13  3  1  0  0  0  0
 14 13  1  0  0  0  0
 15 27  1  0  0  0  0
 17  5  2  0  0  0  0
 19 14  1  0  0  0  0
 19 27  1  0  0  0  0
 20 13  1  0  0  0  0
 21 16  2  0  0  0  0
 23  1  1  0  0  0  0
 24 11  2  0  0  0  0
 24 12  1  0  0  0  0
 26 12  1  0  0  0  0
 26 17  2  0  0  0  0
 27  9  1  0  0  0  0
 27 25  1  0  0  0  0
 28  2  1  1  0  0  0
 28  1  1  0  0  0  0
 28 11  1  0  0  0  0
 29  3  1  6  0  0  0
 29  2  1  0  0  0  0
 29 23  1  0  0  0  0
 31 33  1  0  0  0  0
 31 32  1  0  0  0  0
 32 34  1  0  0  0  0
 33 35  1  0  0  0  0
 35 34  1  0  0  0  0
 35 30  1  1  0  0  0
M  END
>  <MODEL>
6

>  <REMARK>
 VINA RESULT:      -5.9      2.393      3.170
  Name = 
  2 active torsions:
  status: ('A' for Active; 'I' for Inactive)
    1  A    between atoms: C_6  and  C_26
    2  A    between atoms: C_26  and  C_35
                            x       y       z     vdW  Elec       q    Type
                         _______ _______ _______ _____ _____    ______ ____

>  <TORSDO>
F 2

$$$$
=
 OpenBabel11062413463D

 35 39  0  0  1  0  0  0  0  0999 V2000
  189.4850  176.1150  142.3670 C   0  0  0  0  0  0  0  0  0  0  0  0
  188.7550  177.9610  141.2240 O   0  0  0  0  0  0  0  0  0  0  0  0
  186.7180  177.5870  142.2400 C   0  0  0  0  0  2  0  0  0  0  0  0
  189.1810  176.5510  137.5310 N   0  0  0  0  0  2  0  0  0  0  0  0
  194.6340  175.3350  136.1470 C   0  0  0  0  0  3  0  0  0  0  0  0
  191.1040  175.1240  137.1040 C   0  0  0  0  0  2  0  0  0  0  0  0
  193.2540  177.1840  139.3050 N   0  0  0  0  0  0  0  0  0  0  0  0
  190.1240  175.6440  138.1780 C   0  0  1  0  0  3  0  0  0  0  0  0
  187.9210  176.4940  138.2570 C   0  0  2  0  0  3  0  0  0  0  0  0
  186.0350  179.9850  142.5000 C   0  0  0  0  0  1  0  0  0  0  0  0
  190.7330  176.9080  140.4020 C   0  0  0  0  0  0  0  0  0  0  0  0
  192.2720  176.5440  138.6240 C   0  0  0  0  0  0  0  0  0  0  0  0
  185.8730  178.7320  141.6600 C   0  0  0  0  0  0  0  0  0  0  0  0
  186.2520  179.0500  140.2120 C   0  0  0  0  0  2  0  0  0  0  0  0
  186.7050  178.2280  137.1400 F   0  0  0  0  0  0  0  0  0  0  0  0
  192.9710  177.7120  140.5280 C   0  0  0  0  0  3  0  0  0  0  0  0
  193.5090  175.5900  136.7580 C   0  0  0  0  0  0  0  0  0  0  0  0
  186.9890  175.4800  137.6100 C   0  0  0  0  0  1  0  0  0  0  0  0
  186.2430  177.8430  139.3870 N   0  0  0  0  0  2  0  0  0  0  0  0
  184.4140  178.3210  141.7100 C   0  0  0  0  0  1  0  0  0  0  0  0
  191.7240  177.5700  141.0680 N   0  0  0  0  0  0  0  0  0  0  0  0
  190.0560  175.0730  142.6430 O   0  0  0  0  0  0  0  0  0  0  0  0
  188.7170  176.9230  143.2950 C   0  0  0  0  0  2  0  0  0  0  0  0
  191.0100  176.4070  139.1250 C   0  0  0  0  0  0  0  0  0  0  0  0
  188.2730  178.8130  138.6430 F   0  0  0  0  0  0  0  0  0  0  0  0
  192.3840  175.8490  137.3670 C   0  0  0  0  0  0  0  0  0  0  0  0
  187.2810  177.8820  138.3510 C   0  0  0  0  0  0  0  0  0  0  0  0
  189.3900  176.7130  141.0380 C   0  0  1  0  0  3  0  0  0  0  0  0
  188.1220  177.9540  142.4480 N   0  0  1  0  0  0  0  0  0  0  0  0
  195.4230  176.4300  135.5050 C   0  0  0  0  0  2  0  0  0  0  0  0
  197.8290  173.8320  135.2010 N   0  0  0  0  0  2  0  0  0  0  0  0
  198.5550  174.9000  135.8730 C   0  0  0  0  0  2  0  0  0  0  0  0
  196.6980  174.4950  134.5950 C   0  0  0  0  0  2  0  0  0  0  0  0
  197.6990  175.9910  136.0850 O   0  0  0  0  0  0  0  0  0  0  0  0
  196.7830  175.9350  135.0310 C   0  0  2  0  0  3  0  0  0  0  0  0
  1 22  2  0  0  0  0
  1 23  1  0  0  0  0
  2 29  1  0  0  0  0
  4  8  1  0  0  0  0
  4  9  1  0  0  0  0
  5 17  2  0  0  0  0
  6 26  1  0  0  0  0
  7 16  1  0  0  0  0
  8  6  1  6  0  0  0
  8 24  1  0  0  0  0
  9 18  1  6  0  0  0
  9 27  1  0  0  0  0
 11 21  1  0  0  0  0
 12 24  1  0  0  0  0
 12  7  2  0  0  0  0
 13 20  1  0  0  0  0
 13  3  1  0  0  0  0
 13 10  1  0  0  0  0
 14 13  1  0  0  0  0
 15 27  1  0  0  0  0
 16 21  2  0  0  0  0
 17 26  2  0  0  0  0
 19 14  1  0  0  0  0
 24 11  2  0  0  0  0
 26 12  1  0  0  0  0
 27 25  1  0  0  0  0
 27 19  1  0  0  0  0
 28 11  1  1  0  0  0
 28  2  1  0  0  0  0
 28  1  1  0  0  0  0
 29  3  1  6  0  0  0
 29 23  1  0  0  0  0
 30  5  1  0  0  0  0
 31 32  1  0  0  0  0
 32 34  1  0  0  0  0
 33 35  1  0  0  0  0
 33 31  1  0  0  0  0
 35 30  1  1  0  0  0
 35 34  1  0  0  0  0
M  END
>  <MODEL>
7

>  <REMARK>
 VINA RESULT:      -5.9      2.923      8.667
  Name = 
  2 active torsions:
  status: ('A' for Active; 'I' for Inactive)
    1  A    between atoms: C_6  and  C_26
    2  A    between atoms: C_26  and  C_35
                            x       y       z     vdW  Elec       q    Type
                         _______ _______ _______ _____ _____    ______ ____

>  <TORSDO>
F 2

$$$$
=
 OpenBabel11062413463D

 35 39  0  0  1  0  0  0  0  0999 V2000
  187.6900  178.8830  141.0030 C   0  0  0  0  0  0  0  0  0  0  0  0
  188.0870  177.1530  142.4510 O   0  0  0  0  0  0  0  0  0  0  0  0
  187.1610  178.5090  144.0720 C   0  0  0  0  0  2  0  0  0  0  0  0
  192.0560  177.1150  142.2220 N   0  0  0  0  0  2  0  0  0  0  0  0
  194.0470  175.8590  136.9710 C   0  0  0  0  0  3  0  0  0  0  0  0
  193.0460  177.5750  140.0490 C   0  0  0  0  0  2  0  0  0  0  0  0
  190.3790  175.6770  138.3160 N   0  0  0  0  0  0  0  0  0  0  0  0
  191.8100  177.7870  140.9510 C   0  0  1  0  0  3  0  0  0  0  0  0
  191.3320  177.8300  143.2640 C   0  0  2  0  0  3  0  0  0  0  0  0
  186.0550  176.7060  145.4160 C   0  0  0  0  0  1  0  0  0  0  0  0
  189.3200  177.1410  140.4070 C   0  0  0  0  0  0  0  0  0  0  0  0
  191.1900  176.3770  139.1480 C   0  0  0  0  0  0  0  0  0  0  0  0
  187.2670  177.6120  145.3150 C   0  0  0  0  0  0  0  0  0  0  0  0
  188.5330  176.7530  145.3000 C   0  0  0  0  0  2  0  0  0  0  0  0
  191.7180  176.3770  145.1270 F   0  0  0  0  0  0  0  0  0  0  0  0
  189.0370  175.6850  138.5440 C   0  0  0  0  0  3  0  0  0  0  0  0
  193.3300  176.2140  138.0010 C   0  0  0  0  0  0  0  0  0  0  0  0
  192.2430  178.8540  143.9260 C   0  0  0  0  0  1  0  0  0  0  0  0
  189.7220  177.5700  145.0680 N   0  0  0  0  0  2  0  0  0  0  0  0
  187.2880  178.5020  146.5440 C   0  0  0  0  0  1  0  0  0  0  0  0
  188.5170  176.4130  139.5770 N   0  0  0  0  0  0  0  0  0  0  0  0
  187.8210  179.6910  140.0970 O   0  0  0  0  0  0  0  0  0  0  0  0
  186.5040  178.7220  141.8200 C   0  0  0  0  0  2  0  0  0  0  0  0
  190.7040  177.0940  140.2030 C   0  0  0  0  0  0  0  0  0  0  0  0
  190.1860  175.7730  143.5940 F   0  0  0  0  0  0  0  0  0  0  0  0
  192.6140  176.5660  139.0340 C   0  0  0  0  0  0  0  0  0  0  0  0
  190.7320  176.8540  144.2800 C   0  0  0  0  0  0  0  0  0  0  0  0
  188.7240  177.9780  141.4970 C   0  0  1  0  0  3  0  0  0  0  0  0
  186.9110  177.7570  142.8380 N   0  0  1  0  0  0  0  0  0  0  0  0
  194.3100  174.4160  136.6810 C   0  0  0  0  0  2  0  0  0  0  0  0
  196.4960  174.1280  139.4690 N   0  0  0  0  0  2  0  0  0  0  0  0
  197.2990  174.8130  138.4660 C   0  0  0  0  0  2  0  0  0  0  0  0
  195.4310  173.5120  138.7110 C   0  0  0  0  0  2  0  0  0  0  0  0
  196.5350  175.0200  137.3090 O   0  0  0  0  0  0  0  0  0  0  0  0
  195.6290  173.9560  137.2850 C   0  0  2  0  0  3  0  0  0  0  0  0
  1 28  1  0  0  0  0
  1 23  1  0  0  0  0
  2 29  1  0  0  0  0
  3 13  1  0  0  0  0
  4  9  1  0  0  0  0
  5 17  2  0  0  0  0
  7 16  2  0  0  0  0
  7 12  1  0  0  0  0
  8  6  1  6  0  0  0
  8  4  1  0  0  0  0
  9 18  1  1  0  0  0
  9 27  1  0  0  0  0
 12 24  2  0  0  0  0
 13 10  1  0  0  0  0
 13 20  1  0  0  0  0
 14 13  1  0  0  0  0
 16 21  1  0  0  0  0
 17 26  2  0  0  0  0
 19 14  1  0  0  0  0
 21 11  2  0  0  0  0
 22  1  2  0  0  0  0
 24 11  1  0  0  0  0
 24  8  1  0  0  0  0
 25 27  1  0  0  0  0
 26 12  1  0  0  0  0
 26  6  1  0  0  0  0
 27 19  1  0  0  0  0
 27 15  1  0  0  0  0
 28 11  1  6  0  0  0
 28  2  1  0  0  0  0
 29 23  1  6  0  0  0
 29  3  1  0  0  0  0
 30  5  1  0  0  0  0
 32 31  1  0  0  0  0
 33 31  1  0  0  0  0
 34 32  1  0  0  0  0
 35 30  1  1  0  0  0
 35 34  1  0  0  0  0
 35 33  1  0  0  0  0
M  END
>  <MODEL>
8

>  <REMARK>
 VINA RESULT:      -5.6      2.982      8.755
  Name = 
  2 active torsions:
  status: ('A' for Active; 'I' for Inactive)
    1  A    between atoms: C_6  and  C_26
    2  A    between atoms: C_26  and  C_35
                            x       y       z     vdW  Elec       q    Type
                         _______ _______ _______ _____ _____    ______ ____

>  <TORSDO>
F 2

$$$$
=
 OpenBabel11062413463D

 35 39  0  0  1  0  0  0  0  0999 V2000
  191.3710  177.5030  140.8940 C   0  0  0  0  0  0  0  0  0  0  0  0
  190.1870  176.0320  139.5970 O   0  0  0  0  0  0  0  0  0  0  0  0
  191.8910  176.2650  138.0600 C   0  0  0  0  0  2  0  0  0  0  0  0
  186.9500  178.2630  139.0110 N   0  0  0  0  0  2  0  0  0  0  0  0
  184.0740  179.4640  143.8490 C   0  0  0  0  0  3  0  0  0  0  0  0
  186.2000  179.6400  140.8700 C   0  0  0  0  0  2  0  0  0  0  0  0
  187.0560  176.9910  143.3130 N   0  0  0  0  0  0  0  0  0  0  0  0
  187.4100  178.9320  140.2230 C   0  0  1  0  0  3  0  0  0  0  0  0
  188.0570  178.2160  138.0670 C   0  0  2  0  0  3  0  0  0  0  0  0
  191.8630  173.9180  137.1790 C   0  0  0  0  0  1  0  0  0  0  0  0
  188.9780  177.1380  141.3330 C   0  0  0  0  0  0  0  0  0  0  0  0
  186.8990  177.8320  142.2600 C   0  0  0  0  0  0  0  0  0  0  0  0
  191.4090  175.3440  136.9280 C   0  0  0  0  0  0  0  0  0  0  0  0
  189.8860  175.3620  136.7800 C   0  0  0  0  0  2  0  0  0  0  0  0
  187.0860  176.8730  136.3370 F   0  0  0  0  0  0  0  0  0  0  0  0
  188.1640  176.2000  143.3650 C   0  0  0  0  0  3  0  0  0  0  0  0
  184.9650  179.1340  142.9540 C   0  0  0  0  0  0  0  0  0  0  0  0
  187.9920  179.4070  137.1220 C   0  0  0  0  0  1  0  0  0  0  0  0
  189.3840  176.7310  136.6710 N   0  0  0  0  0  2  0  0  0  0  0  0
  192.0380  175.8120  135.6300 C   0  0  0  0  0  1  0  0  0  0  0  0
  189.1130  176.2790  142.3870 N   0  0  0  0  0  0  0  0  0  0  0  0
  191.6450  178.4140  141.6580 O   0  0  0  0  0  0  0  0  0  0  0  0
  192.3140  176.5410  140.3610 C   0  0  0  0  0  2  0  0  0  0  0  0
  187.8170  177.9150  141.2530 C   0  0  0  0  0  0  0  0  0  0  0  0
  187.8080  175.8560  138.2090 F   0  0  0  0  0  0  0  0  0  0  0  0
  185.8530  178.8010  142.0580 C   0  0  0  0  0  0  0  0  0  0  0  0
  188.0720  176.8840  137.3100 C   0  0  0  0  0  0  0  0  0  0  0  0
  190.0600  177.2500  140.3020 C   0  0  1  0  0  3  0  0  0  0  0  0
  191.5270  175.7800  139.3940 N   0  0  1  0  0  0  0  0  0  0  0  0
  182.9890  178.5140  144.2380 C   0  0  0  0  0  2  0  0  0  0  0  0
  179.6660  177.7350  143.2480 N   0  0  0  0  0  2  0  0  0  0  0  0
  180.2510  178.3350  142.0580 C   0  0  0  0  0  2  0  0  0  0  0  0
  180.5250  178.1680  144.3250 C   0  0  0  0  0  2  0  0  0  0  0  0
  181.5910  178.6660  142.3070 O   0  0  0  0  0  0  0  0  0  0  0  0
  181.6410  178.9440  143.6750 C   0  0  2  0  0  3  0  0  0  0  0  0
  1 22  2  0  0  0  0
  4  8  1  0  0  0  0
  5 30  1  0  0  0  0
  6 26  1  0  0  0  0
  7 16  1  0  0  0  0
  8  6  1  1  0  0  0
  8 24  1  0  0  0  0
  9 18  1  6  0  0  0
  9  4  1  0  0  0  0
 11 21  1  0  0  0  0
 12  7  2  0  0  0  0
 13 10  1  0  0  0  0
 13  3  1  0  0  0  0
 14 13  1  0  0  0  0
 15 27  1  0  0  0  0
 17  5  2  0  0  0  0
 19 14  1  0  0  0  0
 19 27  1  0  0  0  0
 20 13  1  0  0  0  0
 21 16  2  0  0  0  0
 23  1  1  0  0  0  0
 24 11  2  0  0  0  0
 24 12  1  0  0  0  0
 26 12  1  0  0  0  0
 26 17  2  0  0  0  0
 27  9  1  0  0  0  0
 27 25  1  0  0  0  0
 28  2  1  1  0  0  0
 28  1  1  0  0  0  0
 28 11  1  0  0  0  0
 29  3  1  6  0  0  0
 29  2  1  0  0  0  0
 29 23  1  0  0  0  0
 31 33  1  0  0  0  0
 32 34  1  0  0  0  0
 32 31  1  0  0  0  0
 34 35  1  0  0  0  0
 35 30  1  1  0  0  0
 35 33  1  0  0  0  0
M  END
>  <MODEL>
9

>  <REMARK>
 VINA RESULT:      -5.4      2.513      2.959
  Name = 
  2 active torsions:
  status: ('A' for Active; 'I' for Inactive)
    1  A    between atoms: C_6  and  C_26
    2  A    between atoms: C_26  and  C_35
                            x       y       z     vdW  Elec       q    Type
                         _______ _______ _______ _____ _____    ______ ____

>  <TORSDO>
F 2

$$$$
