=
 OpenBabel11062417263D

 45 49  0  0  1  0  0  0  0  0999 V2000
  191.1490  176.0620  139.1370 N   0  0  0  0  0  0  0  0  0  0  0  0
  190.6090  176.8000  140.1070 C   0  0  0  0  0  3  0  0  0  0  0  0
  188.6300  177.1570  138.7140 C   0  0  0  0  0  0  0  0  0  0  0  0
  189.2570  176.3360  137.7380 C   0  0  0  0  0  3  0  0  0  0  0  0
  190.4930  175.7640  137.9800 C   0  0  0  0  0  3  0  0  0  0  0  0
  189.2140  177.1950  140.0260 C   0  0  0  0  0  0  0  0  0  0  0  0
  186.6830  178.5040  138.7360 O   0  0  0  0  0  0  0  0  0  0  0  0
  187.2750  177.5790  138.1700 C   0  0  0  0  0  0  0  0  0  0  0  0
  186.6020  176.8030  137.0160 C   0  0  0  0  0  2  0  0  0  0  0  0
  185.2230  176.4020  137.0990 O   0  0  0  0  0  0  0  0  0  0  0  0
  186.0630  174.2080  137.4530 C   0  0  0  0  0  3  0  0  0  0  0  0
  183.7620  174.5150  137.4670 C   0  0  2  0  0  3  0  0  0  0  0  0
  185.0310  175.0510  136.8210 C   0  0  1  0  0  3  0  0  0  0  0  0
  183.4360  173.1340  136.9070 C   0  0  0  0  0  2  0  0  0  0  0  0
  184.6790  172.2490  136.7830 C   0  0  0  0  0  2  0  0  0  0  0  0
  185.8750  172.8590  137.4700 C   0  0  0  0  0  3  0  0  0  0  0  0
  182.5990  175.4150  137.6810 C   0  0  0  0  0  0  0  0  0  0  0  0
  182.4390  175.9450  138.9720 N   0  0  0  0  0  2  0  0  0  0  0  0
  181.8110  175.6920  136.7560 O   0  0  0  0  0  0  0  0  0  0  0  0
  180.2390  176.7410  139.7610 C   0  0  0  0  0  2  0  0  0  0  0  0
  182.5160  178.0490  140.1850 C   0  0  0  0  0  2  0  0  0  0  0  0
  181.6550  177.1310  139.2770 C   0  0  1  0  0  3  0  0  0  0  0  0
  180.3340  178.5200  141.2800 C   0  0  0  0  0  2  0  0  0  0  0  0
  181.8390  178.5330  141.4550 C   0  0  0  0  0  2  0  0  0  0  0  0
  179.9540  177.1340  141.1280 N   0  0  0  0  0  2  0  0  0  0  0  0
  188.5700  177.0770  141.2640 O   0  0  0  0  0  0  0  0  0  0  0  0
  188.6900  178.0890  142.3400 C   0  0  1  0  0  3  0  0  0  0  0  0
  191.0310  178.0190  143.8560 C   0  0  1  0  0  3  0  0  0  0  0  0
  189.1060  177.3520  145.7140 C   0  0  1  0  0  3  0  0  0  0  0  0
  191.4220  177.0750  146.0190 O   0  0  0  0  0  0  0  0  0  0  0  0
  192.2650  178.7940  144.0190 O   0  0  0  0  0  1  0  0  0  0  0  0
  188.1540  178.1430  144.8750 C   0  0  0  0  0  2  0  0  0  0  0  0
  187.9060  177.4350  143.5980 C   0  0  1  0  0  3  0  0  0  0  0  0
  190.5340  177.4580  145.2850 C   0  0  0  0  0  0  0  0  0  0  0  0
  190.1140  178.6240  142.8380 C   0  0  0  0  0  2  0  0  0  0  0  0
  187.8410  177.8210  148.2780 C   0  0  0  0  0  2  0  0  0  0  0  0
  188.4510  176.5370  147.8630 C   0  0  0  0  0  2  0  0  0  0  0  0
  188.8880  177.8330  147.2220 C   0  0  0  0  0  3  0  0  0  0  0  0
  186.4580  177.3660  143.3080 O   0  0  0  0  0  0  0  0  0  0  0  0
  185.6100  178.9910  141.7460 C   0  0  0  0  0  2  0  0  0  0  0  0
  185.6160  178.4330  142.9840 C   0  0  0  0  0  0  0  0  0  0  0  0
  185.3900  179.4120  144.0820 C   0  0  0  0  0  2  0  0  0  0  0  0
  184.4540  178.5730  145.0140 C   0  0  0  0  0  3  0  0  0  0  0  0
  182.9930  178.8950  144.8320 C   0  0  0  0  0  1  0  0  0  0  0  0
  184.7690  178.3780  146.4920 C   0  0  0  0  0  1  0  0  0  0  0  0
  1  2  1  0  0  0  0
  3  6  1  0  0  0  0
  4  5  1  0  0  0  0
  4  3  2  0  0  0  0
  5  1  2  0  0  0  0
  6  2  2  0  0  0  0
  6 26  1  0  0  0  0
  8  3  1  0  0  0  0
  8  7  2  0  0  0  0
  9 10  1  0  0  0  0
  9  8  1  0  0  0  0
 11 16  2  0  0  0  0
 12 17  1  6  0  0  0
 13 10  1  1  0  0  0
 13 11  1  0  0  0  0
 13 12  1  0  0  0  0
 14 12  1  0  0  0  0
 15 14  1  0  0  0  0
 15 16  1  0  0  0  0
 17 18  1  0  0  0  0
 19 17  2  0  0  0  0
 20 25  1  0  0  0  0
 21 24  1  0  0  0  0
 22 18  1  1  0  0  0
 22 20  1  0  0  0  0
 22 21  1  0  0  0  0
 23 24  1  0  0  0  0
 25 23  1  0  0  0  0
 27 26  1  6  0  0  0
 27 35  1  0  0  0  0
 27 33  1  0  0  0  0
 28 31  1  1  0  0  0
 28 34  1  0  0  0  0
 29 38  1  1  0  0  0
 32 29  1  0  0  0  0
 33 39  1  6  0  0  0
 33 32  1  0  0  0  0
 34 29  1  0  0  0  0
 34 30  2  0  0  0  0
 35 28  1  0  0  0  0
 37 36  1  0  0  0  0
 38 37  1  0  0  0  0
 38 36  1  0  0  0  0
 40 41  2  0  0  0  0
 41 39  1  0  0  0  0
 41 42  1  0  0  0  0
 42 43  1  0  0  0  0
 43 45  1  0  0  0  0
 44 43  1  0  0  0  0
M  END
>  <MODEL>
1

>  <REMARK>
 VINA RESULT:      -8.7      0.000      0.000
  Name = 
  13 active torsions:
  status: ('A' for Active; 'I' for Inactive)
    1  A    between atoms: C_1  and  O_14
    2  A    between atoms: C_1  and  C_39
    3  A    between atoms: C_2  and  O_25
    4  A    between atoms: C_6  and  C_26
    5  A    between atoms: C_7  and  N_27
    6  A    between atoms: C_10  and  C_22
    7  A    between atoms: C_13  and  C_31
    8  A    between atoms: O_14  and  C_36
    9  A    between atoms: C_23  and  C_39
   10  A    between atoms: C_24  and  O_37
   11  A    between atoms: O_25  and  C_40
   12  A    between atoms: C_31  and  C_41
   13  A    between atoms: O_37  and  C_41
                            x       y       z     vdW  Elec       q    Type
                         _______ _______ _______ _____ _____    ______ ____

>  <TORSDO>
F 13

$$$$
=
 OpenBabel11062417263D

 45 49  0  0  1  0  0  0  0  0999 V2000
  190.3390  176.8450  139.4480 N   0  0  0  0  0  0  0  0  0  0  0  0
  189.9470  177.9050  140.1550 C   0  0  0  0  0  3  0  0  0  0  0  0
  187.7990  177.8710  138.9850 C   0  0  0  0  0  0  0  0  0  0  0  0
  188.2760  176.7260  138.2910 C   0  0  0  0  0  3  0  0  0  0  0  0
  189.5280  176.2020  138.5620 C   0  0  0  0  0  3  0  0  0  0  0  0
  188.5580  178.3280  140.1150 C   0  0  0  0  0  0  0  0  0  0  0  0
  185.7140  178.9860  139.1230 O   0  0  0  0  0  0  0  0  0  0  0  0
  186.3860  178.1560  138.5020 C   0  0  0  0  0  0  0  0  0  0  0  0
  185.7640  177.3520  137.3380 C   0  0  0  0  0  2  0  0  0  0  0  0
  184.4000  176.9000  137.3970 O   0  0  0  0  0  0  0  0  0  0  0  0
  185.2570  174.6910  137.5760 C   0  0  0  0  0  3  0  0  0  0  0  0
  182.9530  174.9690  137.5030 C   0  0  2  0  0  3  0  0  0  0  0  0
  184.2440  175.5810  136.9790 C   0  0  1  0  0  3  0  0  0  0  0  0
  182.6780  173.6470  136.7940 C   0  0  0  0  0  2  0  0  0  0  0  0
  183.9400  172.7930  136.6480 C   0  0  0  0  0  2  0  0  0  0  0  0
  185.0900  173.3450  137.4510 C   0  0  0  0  0  3  0  0  0  0  0  0
  181.7660  175.8300  137.7450 C   0  0  0  0  0  0  0  0  0  0  0  0
  181.3360  175.9530  139.0760 N   0  0  0  0  0  2  0  0  0  0  0  0
  181.1890  176.4210  136.8110 O   0  0  0  0  0  0  0  0  0  0  0  0
  179.3260  176.4820  140.4080 C   0  0  0  0  0  2  0  0  0  0  0  0
  181.4270  178.1010  140.2100 C   0  0  0  0  0  2  0  0  0  0  0  0
  180.4980  177.0360  139.5670 C   0  0  1  0  0  3  0  0  0  0  0  0
  179.5590  178.3230  141.8350 C   0  0  0  0  0  2  0  0  0  0  0  0
  181.0410  178.5450  141.6090 C   0  0  0  0  0  2  0  0  0  0  0  0
  179.3520  176.8940  141.7990 N   0  0  0  0  0  2  0  0  0  0  0  0
  188.0890  178.6870  141.3860 O   0  0  0  0  0  0  0  0  0  0  0  0
  187.4040  177.7370  142.2950 C   0  0  1  0  0  3  0  0  0  0  0  0
  185.2160  178.7310  143.7110 C   0  0  1  0  0  3  0  0  0  0  0  0
  187.0270  178.1990  145.7210 C   0  0  1  0  0  3  0  0  0  0  0  0
  185.0820  179.4980  145.9730 O   0  0  0  0  0  0  0  0  0  0  0  0
  183.7540  178.6160  143.7090 O   0  0  0  0  0  1  0  0  0  0  0  0
  187.5880  177.1540  144.8130 C   0  0  0  0  0  2  0  0  0  0  0  0
  188.2660  177.7990  143.6650 C   0  0  1  0  0  3  0  0  0  0  0  0
  185.7640  178.8280  145.2250 C   0  0  0  0  0  0  0  0  0  0  0  0
  185.8520  177.8840  142.6520 C   0  0  0  0  0  2  0  0  0  0  0  0
  187.6550  177.0640  148.3120 C   0  0  0  0  0  2  0  0  0  0  0  0
  187.5350  178.5130  148.0350 C   0  0  0  0  0  2  0  0  0  0  0  0
  186.8410  177.5070  147.1490 C   0  0  0  0  0  3  0  0  0  0  0  0
  189.6050  177.2100  143.4460 O   0  0  0  0  0  0  0  0  0  0  0  0
  191.5040  178.6240  143.8850 C   0  0  0  0  0  2  0  0  0  0  0  0
  190.7770  177.5070  144.1460 C   0  0  0  0  0  0  0  0  0  0  0  0
  191.6060  176.3280  144.5130 C   0  0  0  0  0  2  0  0  0  0  0  0
  191.7190  176.5390  146.0600 C   0  0  0  0  0  3  0  0  0  0  0  0
  192.4610  175.4280  146.7570 C   0  0  0  0  0  1  0  0  0  0  0  0
  190.5210  176.9750  146.8940 C   0  0  0  0  0  1  0  0  0  0  0  0
  1  2  1  0  0  0  0
  3  6  1  0  0  0  0
  4  5  1  0  0  0  0
  4  3  2  0  0  0  0
  5  1  2  0  0  0  0
  6  2  2  0  0  0  0
  6 26  1  0  0  0  0
  8  3  1  0  0  0  0
  8  7  2  0  0  0  0
  9 10  1  0  0  0  0
  9  8  1  0  0  0  0
 12 17  1  6  0  0  0
 13 10  1  1  0  0  0
 13 12  1  0  0  0  0
 13 11  1  0  0  0  0
 14 12  1  0  0  0  0
 15 14  1  0  0  0  0
 15 16  1  0  0  0  0
 16 11  2  0  0  0  0
 17 18  1  0  0  0  0
 19 17  2  0  0  0  0
 20 25  1  0  0  0  0
 21 24  1  0  0  0  0
 22 18  1  1  0  0  0
 22 21  1  0  0  0  0
 22 20  1  0  0  0  0
 24 23  1  0  0  0  0
 25 23  1  0  0  0  0
 27 26  1  6  0  0  0
 27 35  1  0  0  0  0
 27 33  1  0  0  0  0
 28 31  1  1  0  0  0
 28 34  1  0  0  0  0
 29 38  1  1  0  0  0
 32 29  1  0  0  0  0
 33 39  1  6  0  0  0
 33 32  1  0  0  0  0
 34 29  1  0  0  0  0
 34 30  2  0  0  0  0
 35 28  1  0  0  0  0
 37 36  1  0  0  0  0
 38 37  1  0  0  0  0
 38 36  1  0  0  0  0
 39 41  1  0  0  0  0
 40 41  2  0  0  0  0
 41 42  1  0  0  0  0
 42 43  1  0  0  0  0
 43 44  1  0  0  0  0
 43 45  1  0  0  0  0
M  END
>  <MODEL>
2

>  <REMARK>
 VINA RESULT:      -8.5      1.384      3.561
  Name = 
  13 active torsions:
  status: ('A' for Active; 'I' for Inactive)
    1  A    between atoms: C_1  and  O_14
    2  A    between atoms: C_1  and  C_39
    3  A    between atoms: C_2  and  O_25
    4  A    between atoms: C_6  and  C_26
    5  A    between atoms: C_7  and  N_27
    6  A    between atoms: C_10  and  C_22
    7  A    between atoms: C_13  and  C_31
    8  A    between atoms: O_14  and  C_36
    9  A    between atoms: C_23  and  C_39
   10  A    between atoms: C_24  and  O_37
   11  A    between atoms: O_25  and  C_40
   12  A    between atoms: C_31  and  C_41
   13  A    between atoms: O_37  and  C_41
                            x       y       z     vdW  Elec       q    Type
                         _______ _______ _______ _____ _____    ______ ____

>  <TORSDO>
F 13

$$$$
=
 OpenBabel11062417263D

 45 49  0  0  1  0  0  0  0  0999 V2000
  190.3330  176.8120  139.5290 N   0  0  0  0  0  0  0  0  0  0  0  0
  189.9470  177.8740  140.2360 C   0  0  0  0  0  3  0  0  0  0  0  0
  187.8470  177.9280  138.9820 C   0  0  0  0  0  0  0  0  0  0  0  0
  188.3150  176.7780  138.2890 C   0  0  0  0  0  3  0  0  0  0  0  0
  189.5360  176.2090  138.6020 C   0  0  0  0  0  3  0  0  0  0  0  0
  188.5750  178.3440  140.1480 C   0  0  0  0  0  0  0  0  0  0  0  0
  186.3010  178.2750  137.2230 O   0  0  0  0  0  0  0  0  0  0  0  0
  186.4660  178.2670  138.4470 C   0  0  0  0  0  0  0  0  0  0  0  0
  185.3260  178.6990  139.3980 C   0  0  0  0  0  2  0  0  0  0  0  0
  184.0540  179.1250  138.8810 O   0  0  0  0  0  0  0  0  0  0  0  0
  181.8930  179.4220  139.8230 C   0  0  0  0  0  3  0  0  0  0  0  0
  182.2710  177.5360  138.5230 C   0  0  2  0  0  3  0  0  0  0  0  0
  182.9770  178.4810  139.4840 C   0  0  1  0  0  3  0  0  0  0  0  0
  181.2990  176.6440  139.2880 C   0  0  0  0  0  2  0  0  0  0  0  0
  180.5030  177.4210  140.3400 C   0  0  0  0  0  2  0  0  0  0  0  0
  180.6870  178.9110  140.1980 C   0  0  0  0  0  3  0  0  0  0  0  0
  183.0370  176.8700  137.4360 C   0  0  0  0  0  0  0  0  0  0  0  0
  183.8150  175.7600  137.8010 N   0  0  0  0  0  2  0  0  0  0  0  0
  182.9810  177.2750  136.2580 O   0  0  0  0  0  0  0  0  0  0  0  0
  185.7230  174.3070  137.2130 C   0  0  0  0  0  2  0  0  0  0  0  0
  183.1840  173.6540  136.7640 C   0  0  0  0  0  2  0  0  0  0  0  0
  184.2820  174.7470  136.8670 C   0  0  1  0  0  3  0  0  0  0  0  0
  185.1360  172.1220  136.6140 C   0  0  0  0  0  2  0  0  0  0  0  0
  183.6630  172.2270  136.9550 C   0  0  0  0  0  2  0  0  0  0  0  0
  185.8390  172.9140  137.5970 N   0  0  0  0  0  2  0  0  0  0  0  0
  188.0680  178.7000  141.4040 O   0  0  0  0  0  0  0  0  0  0  0  0
  187.4380  177.7280  142.3290 C   0  0  1  0  0  3  0  0  0  0  0  0
  185.2320  178.6370  143.7740 C   0  0  1  0  0  3  0  0  0  0  0  0
  187.0940  178.1950  145.7580 C   0  0  1  0  0  3  0  0  0  0  0  0
  185.0990  179.4120  146.0330 O   0  0  0  0  0  0  0  0  0  0  0  0
  183.7760  178.4590  143.7940 O   0  0  0  0  0  1  0  0  0  0  0  0
  187.6850  177.1690  144.8470 C   0  0  0  0  0  2  0  0  0  0  0  0
  188.3170  177.8350  143.6860 C   0  0  1  0  0  3  0  0  0  0  0  0
  185.7980  178.7660  145.2790 C   0  0  0  0  0  0  0  0  0  0  0  0
  185.8860  177.8110  142.7090 C   0  0  0  0  0  2  0  0  0  0  0  0
  187.8040  177.1320  148.3580 C   0  0  0  0  0  2  0  0  0  0  0  0
  187.5800  178.5670  148.0690 C   0  0  0  0  0  2  0  0  0  0  0  0
  186.9590  177.5050  147.1930 C   0  0  0  0  0  3  0  0  0  0  0  0
  189.6760  177.3020  143.4490 O   0  0  0  0  0  0  0  0  0  0  0  0
  191.5980  178.6120  144.0750 C   0  0  0  0  0  2  0  0  0  0  0  0
  190.8110  177.5170  144.2360 C   0  0  0  0  0  0  0  0  0  0  0  0
  191.5650  176.2870  144.6000 C   0  0  0  0  0  2  0  0  0  0  0  0
  191.7710  176.5320  146.1330 C   0  0  0  0  0  3  0  0  0  0  0  0
  192.4420  175.3780  146.8310 C   0  0  0  0  0  1  0  0  0  0  0  0
  190.6590  177.1000  147.0050 C   0  0  0  0  0  1  0  0  0  0  0  0
  1  2  1  0  0  0  0
  3  6  1  0  0  0  0
  4  5  1  0  0  0  0
  4  3  2  0  0  0  0
  5  1  2  0  0  0  0
  6  2  2  0  0  0  0
  6 26  1  0  0  0  0
  7  8  2  0  0  0  0
  8  3  1  0  0  0  0
  8  9  1  0  0  0  0
 10  9  1  0  0  0  0
 11 16  2  0  0  0  0
 12 17  1  1  0  0  0
 12 14  1  0  0  0  0
 12 13  1  0  0  0  0
 13 10  1  6  0  0  0
 13 11  1  0  0  0  0
 14 15  1  0  0  0  0
 16 15  1  0  0  0  0
 17 18  1  0  0  0  0
 19 17  2  0  0  0  0
 20 25  1  0  0  0  0
 21 22  1  0  0  0  0
 21 24  1  0  0  0  0
 22 20  1  0  0  0  0
 22 18  1  1  0  0  0
 23 24  1  0  0  0  0
 23 25  1  0  0  0  0
 27 26  1  6  0  0  0
 27 35  1  0  0  0  0
 27 33  1  0  0  0  0
 28 31  1  1  0  0  0
 28 34  1  0  0  0  0
 29 38  1  1  0  0  0
 32 29  1  0  0  0  0
 33 39  1  6  0  0  0
 33 32  1  0  0  0  0
 34 29  1  0  0  0  0
 34 30  2  0  0  0  0
 35 28  1  0  0  0  0
 37 36  1  0  0  0  0
 38 37  1  0  0  0  0
 38 36  1  0  0  0  0
 39 41  1  0  0  0  0
 40 41  2  0  0  0  0
 41 42  1  0  0  0  0
 42 43  1  0  0  0  0
 43 44  1  0  0  0  0
 43 45  1  0  0  0  0
M  END
>  <MODEL>
3

>  <REMARK>
 VINA RESULT:      -8.5      1.688      5.017
  Name = 
  13 active torsions:
  status: ('A' for Active; 'I' for Inactive)
    1  A    between atoms: C_1  and  O_14
    2  A    between atoms: C_1  and  C_39
    3  A    between atoms: C_2  and  O_25
    4  A    between atoms: C_6  and  C_26
    5  A    between atoms: C_7  and  N_27
    6  A    between atoms: C_10  and  C_22
    7  A    between atoms: C_13  and  C_31
    8  A    between atoms: O_14  and  C_36
    9  A    between atoms: C_23  and  C_39
   10  A    between atoms: C_24  and  O_37
   11  A    between atoms: O_25  and  C_40
   12  A    between atoms: C_31  and  C_41
   13  A    between atoms: O_37  and  C_41
                            x       y       z     vdW  Elec       q    Type
                         _______ _______ _______ _____ _____    ______ ____

>  <TORSDO>
F 13

$$$$
=
 OpenBabel11062417263D

 45 49  0  0  1  0  0  0  0  0999 V2000
  190.5230  176.8340  139.7660 N   0  0  0  0  0  0  0  0  0  0  0  0
  190.0550  177.9080  140.4030 C   0  0  0  0  0  3  0  0  0  0  0  0
  188.0630  177.8620  138.9830 C   0  0  0  0  0  0  0  0  0  0  0  0
  188.6130  176.7040  138.3710 C   0  0  0  0  0  3  0  0  0  0  0  0
  189.8200  176.1790  138.8000 C   0  0  0  0  0  3  0  0  0  0  0  0
  188.6840  178.3360  140.1890 C   0  0  0  0  0  0  0  0  0  0  0  0
  185.8790  178.7760  138.9760 O   0  0  0  0  0  0  0  0  0  0  0  0
  186.7200  178.1440  138.3290 C   0  0  0  0  0  0  0  0  0  0  0  0
  186.3730  177.5630  136.9400 C   0  0  0  0  0  2  0  0  0  0  0  0
  185.0040  177.4170  136.5210 O   0  0  0  0  0  0  0  0  0  0  0  0
  185.6710  175.1430  136.6920 C   0  0  0  0  0  3  0  0  0  0  0  0
  183.7850  175.8220  137.8630 C   0  0  2  0  0  3  0  0  0  0  0  0
  184.5550  176.1010  136.5800 C   0  0  1  0  0  3  0  0  0  0  0  0
  183.0680  174.4800  137.7600 C   0  0  0  0  0  2  0  0  0  0  0  0
  183.9500  173.3970  137.1320 C   0  0  0  0  0  2  0  0  0  0  0  0
  185.3830  173.8470  136.9980 C   0  0  0  0  0  3  0  0  0  0  0  0
  183.0190  176.9130  138.5230 C   0  0  0  0  0  0  0  0  0  0  0  0
  182.5700  177.9570  137.6980 N   0  0  0  0  0  2  0  0  0  0  0  0
  182.7810  176.8930  139.7470 O   0  0  0  0  0  0  0  0  0  0  0  0
  181.9900  179.9860  138.9810 C   0  0  0  0  0  2  0  0  0  0  0  0
  180.7680  179.2690  136.7300 C   0  0  0  0  0  2  0  0  0  0  0  0
  181.4860  178.8630  138.0450 C   0  0  1  0  0  3  0  0  0  0  0  0
  180.5700  181.4720  137.8630 C   0  0  0  0  0  2  0  0  0  0  0  0
  180.5730  180.7600  136.5250 C   0  0  0  0  0  2  0  0  0  0  0  0
  181.8980  181.3150  138.4100 N   0  0  0  0  0  2  0  0  0  0  0  0
  188.0680  178.7180  141.3870 O   0  0  0  0  0  0  0  0  0  0  0  0
  187.3920  177.7600  142.2940 C   0  0  1  0  0  3  0  0  0  0  0  0
  185.1930  178.7260  143.7110 C   0  0  1  0  0  3  0  0  0  0  0  0
  187.0080  178.2100  145.7210 C   0  0  1  0  0  3  0  0  0  0  0  0
  185.0490  179.4860  145.9750 O   0  0  0  0  0  0  0  0  0  0  0  0
  183.7330  178.5950  143.7080 O   0  0  0  0  0  1  0  0  0  0  0  0
  187.5810  177.1720  144.8100 C   0  0  0  0  0  2  0  0  0  0  0  0
  188.2530  177.8280  143.6650 C   0  0  1  0  0  3  0  0  0  0  0  0
  185.7390  178.8250  145.2260 C   0  0  0  0  0  0  0  0  0  0  0  0
  185.8380  177.8880  142.6500 C   0  0  0  0  0  2  0  0  0  0  0  0
  187.6510  177.0390  148.2920 C   0  0  0  0  0  2  0  0  0  0  0  0
  187.5650  178.4930  148.0280 C   0  0  0  0  0  2  0  0  0  0  0  0
  186.8290  177.5120  147.1470 C   0  0  0  0  0  3  0  0  0  0  0  0
  189.5980  177.2540  143.4450 O   0  0  0  0  0  0  0  0  0  0  0  0
  191.4270  178.7710  143.8350 C   0  0  0  0  0  2  0  0  0  0  0  0
  190.7790  177.6080  144.1020 C   0  0  0  0  0  0  0  0  0  0  0  0
  191.6910  176.4740  144.4110 C   0  0  0  0  0  2  0  0  0  0  0  0
  191.7470  176.5790  145.9710 C   0  0  0  0  0  3  0  0  0  0  0  0
  192.2770  175.3320  146.6300 C   0  0  0  0  0  1  0  0  0  0  0  0
  190.5810  177.1430  146.7740 C   0  0  0  0  0  1  0  0  0  0  0  0
  1  2  1  0  0  0  0
  3  6  1  0  0  0  0
  4  5  1  0  0  0  0
  4  3  2  0  0  0  0
  5  1  2  0  0  0  0
  6  2  2  0  0  0  0
  6 26  1  0  0  0  0
  8  7  2  0  0  0  0
  8  3  1  0  0  0  0
  9  8  1  0  0  0  0
 10  9  1  0  0  0  0
 11 16  2  0  0  0  0
 12 17  1  6  0  0  0
 13 10  1  1  0  0  0
 13 11  1  0  0  0  0
 13 12  1  0  0  0  0
 14 12  1  0  0  0  0
 15 14  1  0  0  0  0
 16 15  1  0  0  0  0
 17 19  2  0  0  0  0
 18 17  1  0  0  0  0
 21 22  1  0  0  0  0
 22 18  1  6  0  0  0
 22 20  1  0  0  0  0
 23 25  1  0  0  0  0
 24 21  1  0  0  0  0
 24 23  1  0  0  0  0
 25 20  1  0  0  0  0
 27 26  1  6  0  0  0
 27 35  1  0  0  0  0
 27 33  1  0  0  0  0
 28 31  1  1  0  0  0
 28 34  1  0  0  0  0
 29 38  1  1  0  0  0
 32 29  1  0  0  0  0
 33 39  1  6  0  0  0
 33 32  1  0  0  0  0
 34 29  1  0  0  0  0
 34 30  2  0  0  0  0
 35 28  1  0  0  0  0
 37 36  1  0  0  0  0
 38 37  1  0  0  0  0
 38 36  1  0  0  0  0
 39 41  1  0  0  0  0
 40 41  2  0  0  0  0
 41 42  1  0  0  0  0
 42 43  1  0  0  0  0
 43 44  1  0  0  0  0
 43 45  1  0  0  0  0
M  END
>  <MODEL>
4

>  <REMARK>
 VINA RESULT:      -8.2      2.054      3.936
  Name = 
  13 active torsions:
  status: ('A' for Active; 'I' for Inactive)
    1  A    between atoms: C_1  and  O_14
    2  A    between atoms: C_1  and  C_39
    3  A    between atoms: C_2  and  O_25
    4  A    between atoms: C_6  and  C_26
    5  A    between atoms: C_7  and  N_27
    6  A    between atoms: C_10  and  C_22
    7  A    between atoms: C_13  and  C_31
    8  A    between atoms: O_14  and  C_36
    9  A    between atoms: C_23  and  C_39
   10  A    between atoms: C_24  and  O_37
   11  A    between atoms: O_25  and  C_40
   12  A    between atoms: C_31  and  C_41
   13  A    between atoms: O_37  and  C_41
                            x       y       z     vdW  Elec       q    Type
                         _______ _______ _______ _____ _____    ______ ____

>  <TORSDO>
F 13

$$$$
=
 OpenBabel11062417263D

 45 49  0  0  1  0  0  0  0  0999 V2000
  188.5290  177.2530  138.2440 N   0  0  0  0  0  0  0  0  0  0  0  0
  188.2970  178.2770  139.0670 C   0  0  0  0  0  3  0  0  0  0  0  0
  185.9150  178.1530  138.5240 C   0  0  0  0  0  0  0  0  0  0  0  0
  186.2350  177.0500  137.6880 C   0  0  0  0  0  3  0  0  0  0  0  0
  187.5360  176.5860  137.5920 C   0  0  0  0  0  3  0  0  0  0  0  0
  186.9330  178.6270  139.4200 C   0  0  0  0  0  0  0  0  0  0  0  0
  183.7350  177.5630  137.8120 O   0  0  0  0  0  0  0  0  0  0  0  0
  184.4120  178.3730  138.4530 C   0  0  0  0  0  0  0  0  0  0  0  0
  183.7610  179.6330  139.0680 C   0  0  0  0  0  2  0  0  0  0  0  0
  182.6840  179.5200  140.0140 O   0  0  0  0  0  0  0  0  0  0  0  0
  181.4540  177.5570  140.5410 C   0  0  0  0  0  3  0  0  0  0  0  0
  180.3120  179.3450  139.5980 C   0  0  2  0  0  3  0  0  0  0  0  0
  181.6720  178.6630  139.5900 C   0  0  1  0  0  3  0  0  0  0  0  0
  179.2920  178.4820  138.8600 C   0  0  0  0  0  2  0  0  0  0  0  0
  179.4210  176.9990  139.2150 C   0  0  0  0  0  2  0  0  0  0  0  0
  180.3480  176.7780  140.3840 C   0  0  0  0  0  3  0  0  0  0  0  0
  180.2110  180.8090  139.3590 C   0  0  0  0  0  0  0  0  0  0  0  0
  180.5480  181.2630  138.0740 N   0  0  0  0  0  2  0  0  0  0  0  0
  179.8360  181.5900  140.2550 O   0  0  0  0  0  0  0  0  0  0  0  0
  181.0980  183.6660  137.9490 C   0  0  0  0  0  2  0  0  0  0  0  0
  179.8530  182.3400  136.0080 C   0  0  0  0  0  2  0  0  0  0  0  0
  180.1270  182.5420  137.5230 C   0  0  1  0  0  3  0  0  0  0  0  0
  180.8290  184.6190  135.8280 C   0  0  0  0  0  2  0  0  0  0  0  0
  180.5340  183.3320  135.0840 C   0  0  0  0  0  2  0  0  0  0  0  0
  181.8020  184.2870  136.8440 N   0  0  0  0  0  2  0  0  0  0  0  0
  186.8130  178.9360  140.7810 O   0  0  0  0  0  0  0  0  0  0  0  0
  186.3210  177.9690  141.7910 C   0  0  1  0  0  3  0  0  0  0  0  0
  184.8130  179.0210  143.8880 C   0  0  1  0  0  3  0  0  0  0  0  0
  187.0640  178.1010  145.1860 C   0  0  1  0  0  3  0  0  0  0  0  0
  185.4710  179.5540  146.1250 O   0  0  0  0  0  0  0  0  0  0  0  0
  183.4170  179.0540  144.3370 O   0  0  0  0  0  1  0  0  0  0  0  0
  187.1840  177.1060  144.0770 C   0  0  0  0  0  2  0  0  0  0  0  0
  187.5590  177.7990  142.8220 C   0  0  1  0  0  3  0  0  0  0  0  0
  185.8020  178.9020  145.1570 C   0  0  0  0  0  0  0  0  0  0  0  0
  184.9820  178.2320  142.6270 C   0  0  0  0  0  2  0  0  0  0  0  0
  188.3070  176.7530  147.4290 C   0  0  0  0  0  2  0  0  0  0  0  0
  188.1320  178.2190  147.3210 C   0  0  0  0  0  2  0  0  0  0  0  0
  187.2330  177.2830  146.5480 C   0  0  0  0  0  3  0  0  0  0  0  0
  188.6800  177.1050  142.1530 O   0  0  0  0  0  0  0  0  0  0  0  0
  190.9720  177.4680  141.5070 C   0  0  0  0  0  2  0  0  0  0  0  0
  190.0380  177.2160  142.4610 C   0  0  0  0  0  0  0  0  0  0  0  0
  190.5160  176.3060  143.5370 C   0  0  0  0  0  2  0  0  0  0  0  0
  191.2090  177.3390  144.4870 C   0  0  0  0  0  3  0  0  0  0  0  0
  191.6770  176.7300  145.7830 C   0  0  0  0  0  1  0  0  0  0  0  0
  190.6080  178.7160  144.7400 C   0  0  0  0  0  1  0  0  0  0  0  0
  1  2  1  0  0  0  0
  2  6  2  0  0  0  0
  3  6  1  0  0  0  0
  4  3  2  0  0  0  0
  5  4  1  0  0  0  0
  5  1  2  0  0  0  0
  6 26  1  0  0  0  0
  7  8  2  0  0  0  0
  8  3  1  0  0  0  0
  8  9  1  0  0  0  0
  9 10  1  0  0  0  0
 12 17  1  6  0  0  0
 13 12  1  0  0  0  0
 13 10  1  1  0  0  0
 13 11  1  0  0  0  0
 14 15  1  0  0  0  0
 14 12  1  0  0  0  0
 15 16  1  0  0  0  0
 16 11  2  0  0  0  0
 17 19  2  0  0  0  0
 18 17  1  0  0  0  0
 21 22  1  0  0  0  0
 22 20  1  0  0  0  0
 22 18  1  6  0  0  0
 23 25  1  0  0  0  0
 24 23  1  0  0  0  0
 24 21  1  0  0  0  0
 25 20  1  0  0  0  0
 27 26  1  6  0  0  0
 27 35  1  0  0  0  0
 27 33  1  0  0  0  0
 28 31  1  1  0  0  0
 28 34  1  0  0  0  0
 29 38  1  1  0  0  0
 32 29  1  0  0  0  0
 33 39  1  6  0  0  0
 33 32  1  0  0  0  0
 34 29  1  0  0  0  0
 34 30  2  0  0  0  0
 35 28  1  0  0  0  0
 37 36  1  0  0  0  0
 38 37  1  0  0  0  0
 38 36  1  0  0  0  0
 39 41  1  0  0  0  0
 40 41  2  0  0  0  0
 41 42  1  0  0  0  0
 42 43  1  0  0  0  0
 43 45  1  0  0  0  0
 43 44  1  0  0  0  0
M  END
>  <MODEL>
5

>  <REMARK>
 VINA RESULT:      -8.1      3.375      5.475
  Name = 
  13 active torsions:
  status: ('A' for Active; 'I' for Inactive)
    1  A    between atoms: C_1  and  O_14
    2  A    between atoms: C_1  and  C_39
    3  A    between atoms: C_2  and  O_25
    4  A    between atoms: C_6  and  C_26
    5  A    between atoms: C_7  and  N_27
    6  A    between atoms: C_10  and  C_22
    7  A    between atoms: C_13  and  C_31
    8  A    between atoms: O_14  and  C_36
    9  A    between atoms: C_23  and  C_39
   10  A    between atoms: C_24  and  O_37
   11  A    between atoms: O_25  and  C_40
   12  A    between atoms: C_31  and  C_41
   13  A    between atoms: O_37  and  C_41
                            x       y       z     vdW  Elec       q    Type
                         _______ _______ _______ _____ _____    ______ ____

>  <TORSDO>
F 13

$$$$
=
 OpenBabel11062417263D

 45 49  0  0  1  0  0  0  0  0999 V2000
  187.3050  178.7520  138.1300 N   0  0  0  0  0  0  0  0  0  0  0  0
  187.1510  178.2400  139.3510 C   0  0  0  0  0  3  0  0  0  0  0  0
  189.5200  177.6310  139.3780 C   0  0  0  0  0  0  0  0  0  0  0  0
  189.6130  178.2210  138.0890 C   0  0  0  0  0  3  0  0  0  0  0  0
  188.5110  178.8140  137.4980 C   0  0  0  0  0  3  0  0  0  0  0  0
  188.3170  177.8570  140.1280 C   0  0  0  0  0  0  0  0  0  0  0  0
  191.3970  177.5320  140.8170 O   0  0  0  0  0  0  0  0  0  0  0  0
  190.9010  177.1250  139.7620 C   0  0  0  0  0  0  0  0  0  0  0  0
  191.7120  176.2180  138.8090 C   0  0  0  0  0  2  0  0  0  0  0  0
  192.3380  176.7550  137.6300 O   0  0  0  0  0  0  0  0  0  0  0  0
  193.9630  175.1050  138.1600 C   0  0  0  0  0  3  0  0  0  0  0  0
  192.7440  174.8520  136.2000 C   0  0  2  0  0  3  0  0  0  0  0  0
  193.3260  175.9230  137.1110 C   0  0  1  0  0  3  0  0  0  0  0  0
  193.8630  174.1580  135.4310 C   0  0  0  0  0  2  0  0  0  0  0  0
  195.0730  173.8510  136.3170 C   0  0  0  0  0  2  0  0  0  0  0  0
  194.7740  174.0800  137.7770 C   0  0  0  0  0  3  0  0  0  0  0  0
  191.5040  175.1260  135.4270 C   0  0  0  0  0  0  0  0  0  0  0  0
  190.4000  174.3000  135.6910 N   0  0  0  0  0  2  0  0  0  0  0  0
  191.4480  176.0520  134.5940 O   0  0  0  0  0  0  0  0  0  0  0  0
  188.3230  173.4920  134.6270 C   0  0  0  0  0  2  0  0  0  0  0  0
  188.3630  175.1950  136.6700 C   0  0  0  0  0  2  0  0  0  0  0  0
  189.0240  174.6500  135.3750 C   0  0  1  0  0  3  0  0  0  0  0  0
  186.3650  173.9960  135.8060 C   0  0  0  0  0  2  0  0  0  0  0  0
  187.0340  174.5640  137.0410 C   0  0  0  0  0  2  0  0  0  0  0  0
  187.2060  172.9140  135.3490 N   0  0  0  0  0  2  0  0  0  0  0  0
  188.1920  178.2380  141.4700 O   0  0  0  0  0  0  0  0  0  0  0  0
  187.5320  177.3950  142.4950 C   0  0  1  0  0  3  0  0  0  0  0  0
  185.3160  178.5030  143.7780 C   0  0  1  0  0  3  0  0  0  0  0  0
  187.1380  178.2810  145.8350 C   0  0  1  0  0  3  0  0  0  0  0  0
  185.1590  179.5490  145.9230 O   0  0  0  0  0  0  0  0  0  0  0  0
  183.8580  178.3490  143.7930 O   0  0  0  0  0  1  0  0  0  0  0  0
  187.7280  177.1430  145.0660 C   0  0  0  0  0  2  0  0  0  0  0  0
  188.3900  177.6550  143.8440 C   0  0  1  0  0  3  0  0  0  0  0  0
  185.8590  178.8070  145.2660 C   0  0  0  0  0  0  0  0  0  0  0  0
  185.9750  177.5440  142.8340 C   0  0  0  0  0  2  0  0  0  0  0  0
  187.7960  177.4800  148.5410 C   0  0  0  0  0  2  0  0  0  0  0  0
  187.6670  178.8840  148.0860 C   0  0  0  0  0  2  0  0  0  0  0  0
  186.9690  177.7720  147.3400 C   0  0  0  0  0  3  0  0  0  0  0  0
  189.7440  177.0780  143.6990 O   0  0  0  0  0  0  0  0  0  0  0  0
  191.6660  178.4260  144.2370 C   0  0  0  0  0  2  0  0  0  0  0  0
  190.8640  177.3590  144.4860 C   0  0  0  0  0  0  0  0  0  0  0  0
  191.5980  176.1640  144.9830 C   0  0  0  0  0  2  0  0  0  0  0  0
  191.6900  176.5090  146.5070 C   0  0  0  0  0  3  0  0  0  0  0  0
  192.6550  175.6270  147.2560 C   0  0  0  0  0  1  0  0  0  0  0  0
  190.4410  176.7530  147.3450 C   0  0  0  0  0  1  0  0  0  0  0  0
  1  2  1  0  0  0  0
  2  6  2  0  0  0  0
  3  8  1  0  0  0  0
  3  6  1  0  0  0  0
  4  3  2  0  0  0  0
  5  4  1  0  0  0  0
  5  1  2  0  0  0  0
  6 26  1  0  0  0  0
  8  7  2  0  0  0  0
  9  8  1  0  0  0  0
 10  9  1  0  0  0  0
 12 17  1  6  0  0  0
 12 13  1  0  0  0  0
 13 10  1  1  0  0  0
 13 11  1  0  0  0  0
 14 12  1  0  0  0  0
 14 15  1  0  0  0  0
 15 16  1  0  0  0  0
 16 11  2  0  0  0  0
 17 18  1  0  0  0  0
 19 17  2  0  0  0  0
 20 25  1  0  0  0  0
 20 22  1  0  0  0  0
 21 24  1  0  0  0  0
 22 18  1  1  0  0  0
 22 21  1  0  0  0  0
 23 24  1  0  0  0  0
 25 23  1  0  0  0  0
 27 26  1  6  0  0  0
 27 35  1  0  0  0  0
 27 33  1  0  0  0  0
 28 31  1  1  0  0  0
 28 34  1  0  0  0  0
 29 38  1  1  0  0  0
 32 29  1  0  0  0  0
 33 39  1  6  0  0  0
 33 32  1  0  0  0  0
 34 29  1  0  0  0  0
 34 30  2  0  0  0  0
 35 28  1  0  0  0  0
 37 36  1  0  0  0  0
 38 37  1  0  0  0  0
 38 36  1  0  0  0  0
 39 41  1  0  0  0  0
 40 41  2  0  0  0  0
 41 42  1  0  0  0  0
 42 43  1  0  0  0  0
 43 44  1  0  0  0  0
 43 45  1  0  0  0  0
M  END
>  <MODEL>
6

>  <REMARK>
 VINA RESULT:      -8.1      3.295      6.659
  Name = 
  13 active torsions:
  status: ('A' for Active; 'I' for Inactive)
    1  A    between atoms: C_1  and  O_14
    2  A    between atoms: C_1  and  C_39
    3  A    between atoms: C_2  and  O_25
    4  A    between atoms: C_6  and  C_26
    5  A    between atoms: C_7  and  N_27
    6  A    between atoms: C_10  and  C_22
    7  A    between atoms: C_13  and  C_31
    8  A    between atoms: O_14  and  C_36
    9  A    between atoms: C_23  and  C_39
   10  A    between atoms: C_24  and  O_37
   11  A    between atoms: O_25  and  C_40
   12  A    between atoms: C_31  and  C_41
   13  A    between atoms: O_37  and  C_41
                            x       y       z     vdW  Elec       q    Type
                         _______ _______ _______ _____ _____    ______ ____

>  <TORSDO>
F 13

$$$$
=
 OpenBabel11062417263D

 45 49  0  0  1  0  0  0  0  0999 V2000
  186.2860  178.4450  145.9360 N   0  0  0  0  0  0  0  0  0  0  0  0
  186.5990  177.4650  145.0870 C   0  0  0  0  0  3  0  0  0  0  0  0
  185.0190  178.3880  143.4640 C   0  0  0  0  0  0  0  0  0  0  0  0
  184.7580  179.4170  144.4090 C   0  0  0  0  0  3  0  0  0  0  0  0
  185.4290  179.4550  145.6190 C   0  0  0  0  0  3  0  0  0  0  0  0
  186.1410  177.5260  143.7100 C   0  0  0  0  0  0  0  0  0  0  0  0
  182.9450  178.5540  142.3320 O   0  0  0  0  0  0  0  0  0  0  0  0
  184.1720  178.6600  142.2310 C   0  0  0  0  0  0  0  0  0  0  0  0
  184.8270  178.9500  140.8610 C   0  0  0  0  0  2  0  0  0  0  0  0
  184.1550  179.7520  139.8750 O   0  0  0  0  0  0  0  0  0  0  0  0
  183.8240  177.5670  139.0030 C   0  0  0  0  0  3  0  0  0  0  0  0
  182.2630  179.2030  138.4790 C   0  0  2  0  0  3  0  0  0  0  0  0
  183.7470  179.0200  138.7640 C   0  0  1  0  0  3  0  0  0  0  0  0
  181.9210  178.6320  137.1060 C   0  0  0  0  0  2  0  0  0  0  0  0
  182.6020  177.2840  136.8520 C   0  0  0  0  0  2  0  0  0  0  0  0
  183.2380  176.7300  138.1020 C   0  0  0  0  0  3  0  0  0  0  0  0
  181.5890  180.4810  138.8310 C   0  0  0  0  0  0  0  0  0  0  0  0
  181.8170  181.5710  137.9760 N   0  0  0  0  0  2  0  0  0  0  0  0
  180.8510  180.5730  139.8310 O   0  0  0  0  0  0  0  0  0  0  0  0
  181.7950  184.0250  137.7070 C   0  0  0  0  0  2  0  0  0  0  0  0
  179.8350  182.4350  136.8660 C   0  0  0  0  0  2  0  0  0  0  0  0
  180.9560  182.7400  137.8960 C   0  0  1  0  0  3  0  0  0  0  0  0
  180.1240  184.8340  136.2810 C   0  0  0  0  0  2  0  0  0  0  0  0
  179.6320  183.4870  135.7910 C   0  0  0  0  0  2  0  0  0  0  0  0
  181.5540  184.7070  136.4500 N   0  0  0  0  0  2  0  0  0  0  0  0
  187.1410  177.1290  142.8140 O   0  0  0  0  0  0  0  0  0  0  0  0
  188.1170  178.0720  142.2190 C   0  0  1  0  0  3  0  0  0  0  0  0
  188.3130  178.0680  139.4360 C   0  0  1  0  0  3  0  0  0  0  0  0
  190.7940  177.1410  140.2020 C   0  0  1  0  0  3  0  0  0  0  0  0
  189.9250  177.0110  138.0200 O   0  0  0  0  0  0  0  0  0  0  0  0
  187.9360  178.9160  138.3010 O   0  0  0  0  0  1  0  0  0  0  0  0
  190.5910  177.9160  141.4640 C   0  0  0  0  0  2  0  0  0  0  0  0
  189.5300  177.2800  142.2770 C   0  0  1  0  0  3  0  0  0  0  0  0
  189.7450  177.3770  139.1630 C   0  0  0  0  0  0  0  0  0  0  0  0
  187.9200  178.6720  140.7490 C   0  0  0  0  0  2  0  0  0  0  0  0
  193.6620  177.0250  139.8100 C   0  0  0  0  0  2  0  0  0  0  0  0
  192.6810  176.1710  139.1030 C   0  0  0  0  0  2  0  0  0  0  0  0
  192.2590  177.5020  139.6790 C   0  0  0  0  0  3  0  0  0  0  0  0
  189.9630  177.1260  143.6820 O   0  0  0  0  0  0  0  0  0  0  0  0
  191.6810  175.4680  143.9980 C   0  0  0  0  0  2  0  0  0  0  0  0
  191.2290  176.7410  144.1320 C   0  0  0  0  0  0  0  0  0  0  0  0
  191.6800  177.4050  145.3850 C   0  0  0  0  0  2  0  0  0  0  0  0
  191.1560  176.3810  146.4460 C   0  0  0  0  0  3  0  0  0  0  0  0
  189.8960  176.8360  147.1370 C   0  0  0  0  0  1  0  0  0  0  0  0
  192.0960  175.7220  147.4480 C   0  0  0  0  0  1  0  0  0  0  0  0
  2  1  2  0  0  0  0
  3  6  2  0  0  0  0
  3  4  1  0  0  0  0
  4  5  2  0  0  0  0
  5  1  1  0  0  0  0
  6  2  1  0  0  0  0
  8  7  2  0  0  0  0
  8  3  1  0  0  0  0
  9  8  1  0  0  0  0
 10  9  1  0  0  0  0
 12 13  1  0  0  0  0
 12 17  1  6  0  0  0
 13 11  1  0  0  0  0
 13 10  1  1  0  0  0
 14 12  1  0  0  0  0
 15 14  1  0  0  0  0
 15 16  1  0  0  0  0
 16 11  2  0  0  0  0
 17 19  2  0  0  0  0
 18 17  1  0  0  0  0
 20 22  1  0  0  0  0
 21 22  1  0  0  0  0
 22 18  1  6  0  0  0
 23 25  1  0  0  0  0
 24 23  1  0  0  0  0
 24 21  1  0  0  0  0
 25 20  1  0  0  0  0
 26  6  1  0  0  0  0
 27 33  1  0  0  0  0
 27 26  1  6  0  0  0
 28 31  1  6  0  0  0
 28 35  1  0  0  0  0
 29 38  1  6  0  0  0
 29 32  1  0  0  0  0
 30 34  2  0  0  0  0
 32 33  1  0  0  0  0
 33 39  1  1  0  0  0
 34 28  1  0  0  0  0
 34 29  1  0  0  0  0
 35 27  1  0  0  0  0
 37 38  1  0  0  0  0
 37 36  1  0  0  0  0
 38 36  1  0  0  0  0
 39 41  1  0  0  0  0
 40 41  2  0  0  0  0
 41 42  1  0  0  0  0
 42 43  1  0  0  0  0
 43 44  1  0  0  0  0
 43 45  1  0  0  0  0
M  END
>  <MODEL>
7

>  <REMARK>
 VINA RESULT:      -7.8      3.614      6.446
  Name = 
  13 active torsions:
  status: ('A' for Active; 'I' for Inactive)
    1  A    between atoms: C_1  and  O_14
    2  A    between atoms: C_1  and  C_39
    3  A    between atoms: C_2  and  O_25
    4  A    between atoms: C_6  and  C_26
    5  A    between atoms: C_7  and  N_27
    6  A    between atoms: C_10  and  C_22
    7  A    between atoms: C_13  and  C_31
    8  A    between atoms: O_14  and  C_36
    9  A    between atoms: C_23  and  C_39
   10  A    between atoms: C_24  and  O_37
   11  A    between atoms: O_25  and  C_40
   12  A    between atoms: C_31  and  C_41
   13  A    between atoms: O_37  and  C_41
                            x       y       z     vdW  Elec       q    Type
                         _______ _______ _______ _____ _____    ______ ____

>  <TORSDO>
F 13

$$$$
=
 OpenBabel11062417263D

 45 49  0  0  1  0  0  0  0  0999 V2000
  187.2160  178.7470  138.2560 N   0  0  0  0  0  0  0  0  0  0  0  0
  187.0980  178.2300  139.4790 C   0  0  0  0  0  3  0  0  0  0  0  0
  189.4930  177.7310  139.4820 C   0  0  0  0  0  0  0  0  0  0  0  0
  189.5450  178.3240  138.1910 C   0  0  0  0  0  3  0  0  0  0  0  0
  188.4100  178.8630  137.6110 C   0  0  0  0  0  3  0  0  0  0  0  0
  188.2880  177.9030  140.2440 C   0  0  0  0  0  0  0  0  0  0  0  0
  191.4710  177.8820  140.7750 O   0  0  0  0  0  0  0  0  0  0  0  0
  190.9000  177.2910  139.8520 C   0  0  0  0  0  0  0  0  0  0  0  0
  191.6420  176.2140  139.0280 C   0  0  0  0  0  2  0  0  0  0  0  0
  192.0670  176.4780  137.6800 O   0  0  0  0  0  0  0  0  0  0  0  0
  190.8920  176.0190  135.6670 C   0  0  0  0  0  3  0  0  0  0  0  0
  192.8880  174.8960  136.0510 C   0  0  2  0  0  3  0  0  0  0  0  0
  191.6900  175.4810  136.7850 C   0  0  1  0  0  3  0  0  0  0  0  0
  192.4760  173.6270  135.3100 C   0  0  0  0  0  2  0  0  0  0  0  0
  191.1280  173.7810  134.6000 C   0  0  0  0  0  2  0  0  0  0  0  0
  190.6550  175.2120  134.5950 C   0  0  0  0  0  3  0  0  0  0  0  0
  194.2180  174.8520  136.7130 C   0  0  0  0  0  0  0  0  0  0  0  0
  194.4170  173.8370  137.6630 N   0  0  0  0  0  2  0  0  0  0  0  0
  195.1130  175.6720  136.4300 O   0  0  0  0  0  0  0  0  0  0  0  0
  196.5470  172.8560  136.8920 C   0  0  0  0  0  2  0  0  0  0  0  0
  196.3480  174.4670  138.9980 C   0  0  0  0  0  2  0  0  0  0  0  0
  195.7250  173.3690  138.0960 C   0  0  1  0  0  3  0  0  0  0  0  0
  198.4590  173.7720  137.8840 C   0  0  0  0  0  2  0  0  0  0  0  0
  197.7600  174.8880  138.6340 C   0  0  0  0  0  2  0  0  0  0  0  0
  197.7530  173.6190  136.6330 N   0  0  0  0  0  2  0  0  0  0  0  0
  188.1600  178.2800  141.5870 O   0  0  0  0  0  0  0  0  0  0  0  0
  187.4880  177.4380  142.6060 C   0  0  1  0  0  3  0  0  0  0  0  0
  185.2850  178.5630  143.8940 C   0  0  1  0  0  3  0  0  0  0  0  0
  187.1020  178.3060  145.9510 C   0  0  1  0  0  3  0  0  0  0  0  0
  185.1380  179.5970  146.0470 O   0  0  0  0  0  0  0  0  0  0  0  0
  183.8250  178.4270  143.9070 O   0  0  0  0  0  1  0  0  0  0  0  0
  187.6800  177.1660  145.1750 C   0  0  0  0  0  2  0  0  0  0  0  0
  188.3480  177.6780  143.9570 C   0  0  1  0  0  3  0  0  0  0  0  0
  185.8310  178.8510  145.3850 C   0  0  0  0  0  0  0  0  0  0  0  0
  185.9340  177.6040  142.9440 C   0  0  0  0  0  2  0  0  0  0  0  0
  187.7520  177.3390  148.6040 C   0  0  0  0  0  2  0  0  0  0  0  0
  187.8240  178.7570  148.1850 C   0  0  0  0  0  2  0  0  0  0  0  0
  186.9260  177.7890  147.4530 C   0  0  0  0  0  3  0  0  0  0  0  0
  189.6960  177.0870  143.8090 O   0  0  0  0  0  0  0  0  0  0  0  0
  191.4670  178.7080  143.9980 C   0  0  0  0  0  2  0  0  0  0  0  0
  190.8820  177.5460  144.3880 C   0  0  0  0  0  0  0  0  0  0  0  0
  191.8540  176.4820  144.7570 C   0  0  0  0  0  2  0  0  0  0  0  0
  191.4140  176.2030  146.2330 C   0  0  0  0  0  3  0  0  0  0  0  0
  190.7710  177.3940  146.8940 C   0  0  0  0  0  1  0  0  0  0  0  0
  192.3330  175.4880  147.2150 C   0  0  0  0  0  1  0  0  0  0  0  0
  1  2  1  0  0  0  0
  2  6  2  0  0  0  0
  3  8  1  0  0  0  0
  3  6  1  0  0  0  0
  4  3  2  0  0  0  0
  5  4  1  0  0  0  0
  5  1  2  0  0  0  0
  6 26  1  0  0  0  0
  8  7  2  0  0  0  0
  9  8  1  0  0  0  0
 10  9  1  0  0  0  0
 11 13  1  0  0  0  0
 12 17  1  1  0  0  0
 12 13  1  0  0  0  0
 13 10  1  1  0  0  0
 14 12  1  0  0  0  0
 15 14  1  0  0  0  0
 16 15  1  0  0  0  0
 16 11  2  0  0  0  0
 17 18  1  0  0  0  0
 19 17  2  0  0  0  0
 20 22  1  0  0  0  0
 22 18  1  6  0  0  0
 22 21  1  0  0  0  0
 23 24  1  0  0  0  0
 24 21  1  0  0  0  0
 25 20  1  0  0  0  0
 25 23  1  0  0  0  0
 27 26  1  6  0  0  0
 27 35  1  0  0  0  0
 27 33  1  0  0  0  0
 28 31  1  1  0  0  0
 28 34  1  0  0  0  0
 29 38  1  1  0  0  0
 32 29  1  0  0  0  0
 33 39  1  6  0  0  0
 33 32  1  0  0  0  0
 34 29  1  0  0  0  0
 34 30  2  0  0  0  0
 35 28  1  0  0  0  0
 37 36  1  0  0  0  0
 38 37  1  0  0  0  0
 38 36  1  0  0  0  0
 39 41  1  0  0  0  0
 40 41  2  0  0  0  0
 41 42  1  0  0  0  0
 42 43  1  0  0  0  0
 43 44  1  0  0  0  0
 43 45  1  0  0  0  0
M  END
>  <MODEL>
8

>  <REMARK>
 VINA RESULT:      -7.7      3.857      8.434
  Name = 
  13 active torsions:
  status: ('A' for Active; 'I' for Inactive)
    1  A    between atoms: C_1  and  O_14
    2  A    between atoms: C_1  and  C_39
    3  A    between atoms: C_2  and  O_25
    4  A    between atoms: C_6  and  C_26
    5  A    between atoms: C_7  and  N_27
    6  A    between atoms: C_10  and  C_22
    7  A    between atoms: C_13  and  C_31
    8  A    between atoms: O_14  and  C_36
    9  A    between atoms: C_23  and  C_39
   10  A    between atoms: C_24  and  O_37
   11  A    between atoms: O_25  and  C_40
   12  A    between atoms: C_31  and  C_41
   13  A    between atoms: O_37  and  C_41
                            x       y       z     vdW  Elec       q    Type
                         _______ _______ _______ _____ _____    ______ ____

>  <TORSDO>
F 13

$$$$
=
 OpenBabel11062417263D

 45 49  0  0  1  0  0  0  0  0999 V2000
  191.5320  177.1180  140.9880 N   0  0  0  0  0  0  0  0  0  0  0  0
  191.0640  177.1080  139.7400 C   0  0  0  0  0  3  0  0  0  0  0  0
  188.8740  177.8120  140.5720 C   0  0  0  0  0  0  0  0  0  0  0  0
  189.4520  177.8270  141.8710 C   0  0  0  0  0  3  0  0  0  0  0  0
  190.7880  177.5190  142.0560 C   0  0  0  0  0  3  0  0  0  0  0  0
  189.7610  177.6820  139.4510 C   0  0  0  0  0  0  0  0  0  0  0  0
  186.9070  178.8420  139.7500 O   0  0  0  0  0  0  0  0  0  0  0  0
  187.4230  178.2460  140.7010 C   0  0  0  0  0  0  0  0  0  0  0  0
  186.6460  178.0500  142.0220 C   0  0  0  0  0  2  0  0  0  0  0  0
  186.3000  179.1740  142.8500 O   0  0  0  0  0  0  0  0  0  0  0  0
  184.1510  178.4480  142.1430 C   0  0  0  0  0  3  0  0  0  0  0  0
  184.5290  178.6960  144.4210 C   0  0  2  0  0  3  0  0  0  0  0  0
  184.9310  179.2840  143.0750 C   0  0  1  0  0  3  0  0  0  0  0  0
  183.0940  179.0930  144.7550 C   0  0  0  0  0  2  0  0  0  0  0  0
  182.1630  178.9770  143.5460 C   0  0  0  0  0  2  0  0  0  0  0  0
  182.8250  178.2670  142.3920 C   0  0  0  0  0  3  0  0  0  0  0  0
  185.4860  178.7190  145.5580 C   0  0  0  0  0  0  0  0  0  0  0  0
  186.6640  177.9700  145.4060 N   0  0  0  0  0  2  0  0  0  0  0  0
  185.2540  179.3780  146.5910 O   0  0  0  0  0  0  0  0  0  0  0  0
  187.7840  177.4730  147.5500 C   0  0  0  0  0  2  0  0  0  0  0  0
  189.0890  177.8730  145.2660 C   0  0  0  0  0  2  0  0  0  0  0  0
  187.8750  178.1880  146.1820 C   0  0  1  0  0  3  0  0  0  0  0  0
  190.0600  176.9570  147.3630 C   0  0  0  0  0  2  0  0  0  0  0  0
  190.1180  176.9210  145.8500 C   0  0  0  0  0  2  0  0  0  0  0  0
  188.7690  176.4240  147.7340 N   0  0  0  0  0  2  0  0  0  0  0  0
  189.7770  178.4310  138.2670 O   0  0  0  0  0  0  0  0  0  0  0  0
  189.1690  177.9590  137.0010 C   0  0  1  0  0  3  0  0  0  0  0  0
  186.6450  176.7880  137.1930 C   0  0  1  0  0  3  0  0  0  0  0  0
  188.2120  174.6750  136.3670 C   0  0  1  0  0  3  0  0  0  0  0  0
  186.0320  174.4760  137.2280 O   0  0  0  0  0  0  0  0  0  0  0  0
  185.2510  177.1080  136.8680 O   0  0  0  0  0  1  0  0  0  0  0  0
  189.0960  175.7000  135.7330 C   0  0  0  0  0  2  0  0  0  0  0  0
  189.7920  176.4790  136.7820 C   0  0  1  0  0  3  0  0  0  0  0  0
  186.9350  175.2250  136.9180 C   0  0  0  0  0  0  0  0  0  0  0  0
  187.5830  177.8880  136.8020 C   0  0  0  0  0  2  0  0  0  0  0  0
  188.6780  172.4260  134.6010 C   0  0  0  0  0  2  0  0  0  0  0  0
  188.3480  172.3120  136.0400 C   0  0  0  0  0  2  0  0  0  0  0  0
  187.9610  173.5480  135.2630 C   0  0  0  0  0  3  0  0  0  0  0  0
  191.2390  176.5800  136.4910 O   0  0  0  0  0  0  0  0  0  0  0  0
  191.8960  174.3860  137.2360 C   0  0  0  0  0  2  0  0  0  0  0  0
  192.2060  175.5930  136.6970 C   0  0  0  0  0  0  0  0  0  0  0  0
  193.5450  176.1010  137.1010 C   0  0  0  0  0  2  0  0  0  0  0  0
  194.3270  175.9250  135.7570 C   0  0  0  0  0  3  0  0  0  0  0  0
  195.2180  174.7100  135.7450 C   0  0  0  0  0  1  0  0  0  0  0  0
  195.0280  177.0980  135.0840 C   0  0  0  0  0  1  0  0  0  0  0  0
  1  5  1  0  0  0  0
  2  1  2  0  0  0  0
  3  8  1  0  0  0  0
  3  4  1  0  0  0  0
  4  5  2  0  0  0  0
  6  2  1  0  0  0  0
  6  3  2  0  0  0  0
  7  8  2  0  0  0  0
  8  9  1  0  0  0  0
  9 10  1  0  0  0  0
 11 16  2  0  0  0  0
 11 13  1  0  0  0  0
 12 14  1  0  0  0  0
 12 17  1  1  0  0  0
 13 10  1  6  0  0  0
 13 12  1  0  0  0  0
 15 14  1  0  0  0  0
 16 15  1  0  0  0  0
 17 19  2  0  0  0  0
 18 17  1  0  0  0  0
 20 25  1  0  0  0  0
 21 24  1  0  0  0  0
 21 22  1  0  0  0  0
 22 18  1  6  0  0  0
 22 20  1  0  0  0  0
 23 25  1  0  0  0  0
 24 23  1  0  0  0  0
 26  6  1  0  0  0  0
 27 26  1  1  0  0  0
 28 31  1  6  0  0  0
 29 38  1  6  0  0  0
 29 34  1  0  0  0  0
 32 29  1  0  0  0  0
 32 33  1  0  0  0  0
 33 39  1  6  0  0  0
 33 27  1  0  0  0  0
 34 28  1  0  0  0  0
 34 30  2  0  0  0  0
 35 27  1  0  0  0  0
 35 28  1  0  0  0  0
 36 38  1  0  0  0  0
 36 37  1  0  0  0  0
 38 37  1  0  0  0  0
 39 41  1  0  0  0  0
 41 42  1  0  0  0  0
 41 40  2  0  0  0  0
 43 42  1  0  0  0  0
 44 43  1  0  0  0  0
 45 43  1  0  0  0  0
M  END
>  <MODEL>
9

>  <REMARK>
 VINA RESULT:      -7.6      2.945      9.080
  Name = 
  13 active torsions:
  status: ('A' for Active; 'I' for Inactive)
    1  A    between atoms: C_1  and  O_14
    2  A    between atoms: C_1  and  C_39
    3  A    between atoms: C_2  and  O_25
    4  A    between atoms: C_6  and  C_26
    5  A    between atoms: C_7  and  N_27
    6  A    between atoms: C_10  and  C_22
    7  A    between atoms: C_13  and  C_31
    8  A    between atoms: O_14  and  C_36
    9  A    between atoms: C_23  and  C_39
   10  A    between atoms: C_24  and  O_37
   11  A    between atoms: O_25  and  C_40
   12  A    between atoms: C_31  and  C_41
   13  A    between atoms: O_37  and  C_41
                            x       y       z     vdW  Elec       q    Type
                         _______ _______ _______ _____ _____    ______ ____

>  <TORSDO>
F 13

$$$$
