=
 OpenBabel11062417143D

 36 39  0  0  1  0  0  0  0  0999 V2000
  186.1640  178.6940  147.3960 C   0  0  0  0  0  3  0  0  0  0  0  0
  187.4840  177.6090  145.6890 C   0  0  0  0  0  0  0  0  0  0  0  0
  186.6430  178.1810  144.7110 C   0  0  0  0  0  0  0  0  0  0  0  0
  185.3680  179.2360  146.4390 N   0  0  0  0  0  0  0  0  0  0  0  0
  187.2330  177.8740  147.0370 C   0  0  0  0  0  3  0  0  0  0  0  0
  186.8350  177.9460  143.3870 F   0  0  0  0  0  0  0  0  0  0  0  0
  185.5820  179.0040  145.1160 C   0  0  0  0  0  0  0  0  0  0  0  0
  188.5710  176.7810  145.3820 O   0  0  0  0  0  0  0  0  0  0  0  0
  189.9330  177.1430  145.5720 C   0  0  0  0  0  2  0  0  0  0  0  0
  190.3150  178.2570  144.6140 C   0  0  0  0  0  2  0  0  0  0  0  0
  189.4290  176.4800  138.2910 C   0  0  0  0  0  0  0  0  0  0  0  0
  188.4430  177.3420  138.7000 C   0  0  0  0  0  0  0  0  0  0  0  0
  188.5750  178.2280  139.8940 C   0  0  0  0  0  2  0  0  0  0  0  0
  187.1830  177.2760  137.6030 S   0  0  0  0  0  0  0  0  0  0  0  0
  190.4960  177.7230  143.2350 C   0  0  0  0  0  0  0  0  0  0  0  0
  187.8850  176.1250  136.5820 C   0  0  0  0  0  3  0  0  0  0  0  0
  189.1370  175.7960  137.1060 C   0  0  0  0  0  3  0  0  0  0  0  0
  190.7180  176.3950  139.0410 C   0  0  0  0  0  2  0  0  0  0  0  0
  189.6260  177.6890  140.8350 C   0  0  0  0  0  0  0  0  0  0  0  0
  191.4730  176.9670  142.9890 O   0  0  0  0  0  0  0  0  0  0  0  0
  190.5520  176.8610  140.4250 N   0  0  0  0  0  0  0  0  0  0  0  0
  189.5750  178.1050  142.2060 N   0  0  0  0  0  2  0  0  0  0  0  0
  184.6600  179.6040  144.1070 C   0  0  0  0  0  2  0  0  0  0  0  0
  183.7700  178.5320  143.4910 C   0  0  1  0  0  3  0  0  0  0  0  0
  181.6660  178.9670  142.9440 C   0  0  0  0  0  0  0  0  0  0  0  0
  182.4030  178.6890  143.9680 N   0  0  0  0  0  0  0  0  0  0  0  0
  182.3770  179.0310  141.7170 N   0  0  0  0  0  0  0  0  0  0  0  0
  183.6040  178.7800  142.0290 C   0  0  0  0  0  0  0  0  0  0  0  0
  180.2220  179.1920  143.0460 C   0  0  0  0  0  0  0  0  0  0  0  0
  179.3480  178.1130  143.0950 O   0  0  0  0  0  1  0  0  0  0  0  0
  179.7670  180.3650  143.0890 O   0  0  0  0  0  0  0  0  0  0  0  0
  185.6880  179.6670  141.3180 O   0  0  0  0  0  1  0  0  0  0  0  0
  184.7110  178.7130  141.0270 C   0  0  2  0  0  3  0  0  0  0  0  0
  184.1900  178.9010  139.6390 C   0  0  0  0  0  0  0  0  0  0  0  0
  184.2090  180.1630  139.0620 O   0  0  0  0  0  1  0  0  0  0  0  0
  183.7720  177.9160  138.9730 O   0  0  0  0  0  0  0  0  0  0  0  0
  2  5  2  0  0  0  0
  3  7  2  0  0  0  0
  3  2  1  0  0  0  0
  4  1  2  0  0  0  0
  5  1  1  0  0  0  0
  6  3  1  0  0  0  0
  7  4  1  0  0  0  0
  8  9  1  0  0  0  0
  8  2  1  0  0  0  0
 10  9  1  0  0  0  0
 11 12  2  0  0  0  0
 11 18  1  0  0  0  0
 12 13  1  0  0  0  0
 13 19  1  0  0  0  0
 14 12  1  0  0  0  0
 15 10  1  0  0  0  0
 16 17  2  0  0  0  0
 16 14  1  0  0  0  0
 17 11  1  0  0  0  0
 18 21  1  0  0  0  0
 19 22  1  0  0  0  0
 20 15  2  0  0  0  0
 21 19  2  0  0  0  0
 22 15  1  0  0  0  0
 23  7  1  0  0  0  0
 24 26  1  0  0  0  0
 24 23  1  1  0  0  0
 25 29  1  0  0  0  0
 25 26  2  0  0  0  0
 27 28  2  0  0  0  0
 27 25  1  0  0  0  0
 28 24  1  0  0  0  0
 29 31  2  0  0  0  0
 29 30  1  0  0  0  0
 33 32  1  1  0  0  0
 33 28  1  0  0  0  0
 34 33  1  0  0  0  0
 35 34  1  0  0  0  0
 36 34  2  0  0  0  0
M  END
>  <MODEL>
1

>  <REMARK>
 VINA RESULT:      -9.0      0.000      0.000
  Name = 
  9 active torsions:
  status: ('A' for Active; 'I' for Inactive)
    1  A    between atoms: C_5  and  C_18
    2  A    between atoms: C_6  and  C_26
    3  A    between atoms: O_7  and  C_14
    4  A    between atoms: O_7  and  C_29
    5  A    between atoms: C_8  and  C_23
    6  A    between atoms: C_9  and  C_31
    7  A    between atoms: C_18  and  C_35
    8  A    between atoms: C_23  and  C_29
    9  A    between atoms: C_31  and  C_32
                            x       y       z     vdW  Elec       q    Type
                         _______ _______ _______ _____ _____    ______ ____

>  <TORSDO>
F 9

$$$$
=
 OpenBabel11062417143D

 36 39  0  0  1  0  0  0  0  0999 V2000
  185.3180  178.6270  146.5170 C   0  0  0  0  0  3  0  0  0  0  0  0
  184.8990  178.6450  144.1370 C   0  0  0  0  0  0  0  0  0  0  0  0
  186.0940  177.9190  143.9470 C   0  0  0  0  0  0  0  0  0  0  0  0
  186.4630  177.9270  146.3110 N   0  0  0  0  0  0  0  0  0  0  0  0
  184.5190  178.9960  145.4350 C   0  0  0  0  0  3  0  0  0  0  0  0
  186.5160  177.5630  142.7060 F   0  0  0  0  0  0  0  0  0  0  0  0
  186.8650  177.5640  145.0640 C   0  0  0  0  0  0  0  0  0  0  0  0
  184.0600  179.0370  143.0870 O   0  0  0  0  0  0  0  0  0  0  0  0
  183.6160  178.1720  142.0490 C   0  0  0  0  0  2  0  0  0  0  0  0
  183.5820  178.9190  140.7270 C   0  0  0  0  0  2  0  0  0  0  0  0
  188.7010  177.4110  136.7980 C   0  0  0  0  0  0  0  0  0  0  0  0
  187.5360  176.8700  136.3130 C   0  0  0  0  0  0  0  0  0  0  0  0
  186.1830  177.3510  136.7160 C   0  0  0  0  0  2  0  0  0  0  0  0
  187.9170  175.7040  135.1780 S   0  0  0  0  0  0  0  0  0  0  0  0
  184.9140  178.8690  140.0620 C   0  0  0  0  0  0  0  0  0  0  0  0
  189.5960  175.8690  135.2960 C   0  0  0  0  0  3  0  0  0  0  0  0
  189.8620  176.8670  136.2360 C   0  0  0  0  0  3  0  0  0  0  0  0
  188.6620  178.5430  137.7710 C   0  0  0  0  0  2  0  0  0  0  0  0
  186.2540  178.0780  138.0390 C   0  0  0  0  0  0  0  0  0  0  0  0
  185.8960  179.4430  140.6030 O   0  0  0  0  0  0  0  0  0  0  0  0
  187.3780  178.5780  138.4850 N   0  0  0  0  0  0  0  0  0  0  0  0
  185.0480  178.1970  138.8040 N   0  0  0  0  0  2  0  0  0  0  0  0
  188.1470  176.8180  144.8930 C   0  0  0  0  0  2  0  0  0  0  0  0
  189.3350  177.7120  145.2210 C   0  0  1  0  0  3  0  0  0  0  0  0
  191.1010  176.9190  146.3030 C   0  0  0  0  0  0  0  0  0  0  0  0
  189.8960  177.3360  146.5120 N   0  0  0  0  0  0  0  0  0  0  0  0
  191.4980  176.9520  144.9400 N   0  0  0  0  0  0  0  0  0  0  0  0
  190.4730  177.4110  144.3050 C   0  0  0  0  0  0  0  0  0  0  0  0
  191.9770  176.4560  147.3820 C   0  0  0  0  0  0  0  0  0  0  0  0
  192.1720  177.2420  148.5100 O   0  0  0  0  0  1  0  0  0  0  0  0
  192.5560  175.3420  147.2910 O   0  0  0  0  0  0  0  0  0  0  0  0
  189.4040  178.4950  142.4840 O   0  0  0  0  0  1  0  0  0  0  0  0
  190.4570  177.6450  142.8280 C   0  0  2  0  0  3  0  0  0  0  0  0
  190.3560  176.3540  142.0820 C   0  0  0  0  0  0  0  0  0  0  0  0
  190.4460  176.3520  140.6970 O   0  0  0  0  0  0  0  0  0  0  0  0
  190.2310  175.2640  142.7020 O   0  0  0  0  0  1  0  0  0  0  0  0
  2  5  1  0  0  0  0
  3  2  2  0  0  0  0
  3  7  1  0  0  0  0
  4  1  1  0  0  0  0
  5  1  2  0  0  0  0
  6  3  1  0  0  0  0
  7  4  2  0  0  0  0
  8  2  1  0  0  0  0
  9  8  1  0  0  0  0
 10  9  1  0  0  0  0
 11 18  1  0  0  0  0
 12 13  1  0  0  0  0
 12 11  2  0  0  0  0
 13 19  1  0  0  0  0
 14 16  1  0  0  0  0
 14 12  1  0  0  0  0
 15 20  2  0  0  0  0
 15 10  1  0  0  0  0
 16 17  2  0  0  0  0
 17 11  1  0  0  0  0
 18 21  1  0  0  0  0
 19 21  2  0  0  0  0
 19 22  1  0  0  0  0
 22 15  1  0  0  0  0
 23  7  1  0  0  0  0
 24 23  1  6  0  0  0
 24 26  1  0  0  0  0
 25 26  2  0  0  0  0
 25 29  1  0  0  0  0
 27 25  1  0  0  0  0
 28 27  2  0  0  0  0
 28 24  1  0  0  0  0
 29 30  1  0  0  0  0
 31 29  2  0  0  0  0
 33 32  1  1  0  0  0
 33 28  1  0  0  0  0
 34 36  1  0  0  0  0
 34 33  1  0  0  0  0
 35 34  2  0  0  0  0
M  END
>  <MODEL>
2

>  <REMARK>
 VINA RESULT:      -8.9      2.451      6.558
  Name = 
  9 active torsions:
  status: ('A' for Active; 'I' for Inactive)
    1  A    between atoms: C_5  and  C_18
    2  A    between atoms: C_6  and  C_26
    3  A    between atoms: O_7  and  C_14
    4  A    between atoms: O_7  and  C_29
    5  A    between atoms: C_8  and  C_23
    6  A    between atoms: C_9  and  C_31
    7  A    between atoms: C_18  and  C_35
    8  A    between atoms: C_23  and  C_29
    9  A    between atoms: C_31  and  C_32
                            x       y       z     vdW  Elec       q    Type
                         _______ _______ _______ _____ _____    ______ ____

>  <TORSDO>
F 9

$$$$
=
 OpenBabel11062417143D

 36 39  0  0  1  0  0  0  0  0999 V2000
  184.6760  178.5710  138.9880 C   0  0  0  0  0  3  0  0  0  0  0  0
  185.3050  178.9880  141.2830 C   0  0  0  0  0  0  0  0  0  0  0  0
  186.6580  178.8230  140.9150 C   0  0  0  0  0  0  0  0  0  0  0  0
  185.9830  178.4180  138.6560 N   0  0  0  0  0  0  0  0  0  0  0  0
  184.3170  178.8580  140.3040 C   0  0  0  0  0  3  0  0  0  0  0  0
  187.6570  178.9270  141.8290 F   0  0  0  0  0  0  0  0  0  0  0  0
  186.9740  178.5400  139.5780 C   0  0  0  0  0  0  0  0  0  0  0  0
  184.8910  179.2800  142.5890 O   0  0  0  0  0  0  0  0  0  0  0  0
  184.3070  178.3340  143.4740 C   0  0  0  0  0  2  0  0  0  0  0  0
  184.1230  178.9520  144.8490 C   0  0  0  0  0  2  0  0  0  0  0  0
  189.9450  176.9830  147.3300 C   0  0  0  0  0  0  0  0  0  0  0  0
  190.0700  177.3420  146.0100 C   0  0  0  0  0  0  0  0  0  0  0  0
  189.0760  178.1950  145.2970 C   0  0  0  0  0  2  0  0  0  0  0  0
  191.5200  176.7470  145.4290 S   0  0  0  0  0  0  0  0  0  0  0  0
  185.2330  178.5500  145.7580 C   0  0  0  0  0  0  0  0  0  0  0  0
  192.0100  176.0080  146.8690 C   0  0  0  0  0  3  0  0  0  0  0  0
  191.0220  176.2430  147.8280 C   0  0  0  0  0  3  0  0  0  0  0  0
  188.7770  177.4550  148.1330 C   0  0  0  0  0  2  0  0  0  0  0  0
  187.7420  178.1540  146.0050 C   0  0  0  0  0  0  0  0  0  0  0  0
  184.9790  178.2830  146.9620 O   0  0  0  0  0  0  0  0  0  0  0  0
  187.6450  177.8020  147.2620 N   0  0  0  0  0  0  0  0  0  0  0  0
  186.5730  178.5060  145.2540 N   0  0  0  0  0  2  0  0  0  0  0  0
  188.3940  178.3370  139.1630 C   0  0  0  0  0  2  0  0  0  0  0  0
  188.7920  176.8750  139.3190 C   0  0  1  0  0  3  0  0  0  0  0  0
  190.5330  176.0410  138.2270 C   0  0  0  0  0  0  0  0  0  0  0  0
  189.2940  176.3610  138.0510 N   0  0  0  0  0  0  0  0  0  0  0  0
  191.0110  176.2740  139.5430 N   0  0  0  0  0  0  0  0  0  0  0  0
  190.0030  176.7620  140.1830 C   0  0  0  0  0  0  0  0  0  0  0  0
  191.3660  175.4830  137.1580 C   0  0  0  0  0  0  0  0  0  0  0  0
  192.5580  174.8400  137.4660 O   0  0  0  0  0  1  0  0  0  0  0  0
  191.0040  175.5850  135.9570 O   0  0  0  0  0  0  0  0  0  0  0  0
  191.3470  177.4780  142.0040 O   0  0  0  0  0  1  0  0  0  0  0  0
  190.0470  177.1290  141.6320 C   0  0  2  0  0  3  0  0  0  0  0  0
  189.5370  176.0130  142.4840 C   0  0  0  0  0  0  0  0  0  0  0  0
  190.3940  174.9880  142.8600 O   0  0  0  0  0  0  0  0  0  0  0  0
  188.3470  176.0160  142.8980 O   0  0  0  0  0  1  0  0  0  0  0  0
  1  5  1  0  0  0  0
  2  8  1  0  0  0  0
  3  2  1  0  0  0  0
  3  6  1  0  0  0  0
  4  1  2  0  0  0  0
  4  7  1  0  0  0  0
  5  2  2  0  0  0  0
  7  3  2  0  0  0  0
  8  9  1  0  0  0  0
  9 10  1  0  0  0  0
 10 15  1  0  0  0  0
 11 17  1  0  0  0  0
 11 18  1  0  0  0  0
 12 11  2  0  0  0  0
 13 19  1  0  0  0  0
 13 12  1  0  0  0  0
 14 12  1  0  0  0  0
 14 16  1  0  0  0  0
 15 20  2  0  0  0  0
 16 17  2  0  0  0  0
 19 21  2  0  0  0  0
 21 18  1  0  0  0  0
 22 15  1  0  0  0  0
 22 19  1  0  0  0  0
 23  7  1  0  0  0  0
 24 23  1  6  0  0  0
 24 28  1  0  0  0  0
 25 27  1  0  0  0  0
 26 25  2  0  0  0  0
 26 24  1  0  0  0  0
 27 28  2  0  0  0  0
 28 33  1  0  0  0  0
 29 30  1  0  0  0  0
 29 25  1  0  0  0  0
 31 29  2  0  0  0  0
 33 32  1  1  0  0  0
 33 34  1  0  0  0  0
 34 35  2  0  0  0  0
 34 36  1  0  0  0  0
M  END
>  <MODEL>
3

>  <REMARK>
 VINA RESULT:      -8.8      2.914      8.145
  Name = 
  9 active torsions:
  status: ('A' for Active; 'I' for Inactive)
    1  A    between atoms: C_5  and  C_18
    2  A    between atoms: C_6  and  C_26
    3  A    between atoms: O_7  and  C_14
    4  A    between atoms: O_7  and  C_29
    5  A    between atoms: C_8  and  C_23
    6  A    between atoms: C_9  and  C_31
    7  A    between atoms: C_18  and  C_35
    8  A    between atoms: C_23  and  C_29
    9  A    between atoms: C_31  and  C_32
                            x       y       z     vdW  Elec       q    Type
                         _______ _______ _______ _____ _____    ______ ____

>  <TORSDO>
F 9

$$$$
=
 OpenBabel11062417143D

 36 39  0  0  1  0  0  0  0  0999 V2000
  191.1720  178.8570  143.9590 C   0  0  0  0  0  3  0  0  0  0  0  0
  189.3080  177.5130  144.7050 C   0  0  0  0  0  0  0  0  0  0  0  0
  189.3930  176.7750  143.5040 C   0  0  0  0  0  0  0  0  0  0  0  0
  191.2380  178.1330  142.8120 N   0  0  0  0  0  0  0  0  0  0  0  0
  190.2090  178.5590  144.9220 C   0  0  0  0  0  3  0  0  0  0  0  0
  188.5350  175.7570  143.2380 F   0  0  0  0  0  0  0  0  0  0  0  0
  190.3810  177.1060  142.5660 C   0  0  0  0  0  0  0  0  0  0  0  0
  188.3620  177.2530  145.7040 O   0  0  0  0  0  0  0  0  0  0  0  0
  186.9560  177.2420  145.4930 C   0  0  0  0  0  2  0  0  0  0  0  0
  186.3690  178.6030  145.8230 C   0  0  0  0  0  2  0  0  0  0  0  0
  181.1610  179.2140  141.7700 C   0  0  0  0  0  0  0  0  0  0  0  0
  182.2930  178.8820  141.0670 C   0  0  0  0  0  0  0  0  0  0  0  0
  183.5030  178.2820  141.7010 C   0  0  0  0  0  2  0  0  0  0  0  0
  182.0220  179.1770  139.4440 S   0  0  0  0  0  0  0  0  0  0  0  0
  184.9950  178.7310  145.2620 C   0  0  0  0  0  0  0  0  0  0  0  0
  180.4390  179.7460  139.6190 C   0  0  0  0  0  3  0  0  0  0  0  0
  180.1130  179.6920  140.9760 C   0  0  0  0  0  3  0  0  0  0  0  0
  181.0890  178.9720  143.2420 C   0  0  0  0  0  2  0  0  0  0  0  0
  183.5230  178.5800  143.1820 C   0  0  0  0  0  0  0  0  0  0  0  0
  184.0370  179.0040  146.0320 O   0  0  0  0  0  0  0  0  0  0  0  0
  182.4330  178.9020  143.8300 N   0  0  0  0  0  0  0  0  0  0  0  0
  184.7830  178.5090  143.8620 N   0  0  0  0  0  2  0  0  0  0  0  0
  190.4810  176.3600  141.2760 C   0  0  0  0  0  2  0  0  0  0  0  0
  190.9370  177.2850  140.1560 C   0  0  1  0  0  3  0  0  0  0  0  0
  192.4080  176.6100  138.6400 C   0  0  0  0  0  0  0  0  0  0  0  0
  192.3420  177.0440  139.8560 N   0  0  0  0  0  0  0  0  0  0  0  0
  191.1490  176.5040  137.9930 N   0  0  0  0  0  0  0  0  0  0  0  0
  190.2880  176.8940  138.8710 C   0  0  0  0  0  0  0  0  0  0  0  0
  193.6750  176.2610  137.9920 C   0  0  0  0  0  0  0  0  0  0  0  0
  194.6550  175.5760  138.6980 O   0  0  0  0  0  1  0  0  0  0  0  0
  193.8780  176.5800  136.7920 O   0  0  0  0  0  0  0  0  0  0  0  0
  188.5410  176.5730  137.2960 O   0  0  0  0  0  1  0  0  0  0  0  0
  188.8190  176.9760  138.6040 C   0  0  2  0  0  3  0  0  0  0  0  0
  188.3060  178.3580  138.8490 C   0  0  0  0  0  0  0  0  0  0  0  0
  187.4270  178.5890  139.8980 O   0  0  0  0  0  1  0  0  0  0  0  0
  188.6950  179.3210  138.1360 O   0  0  0  0  0  0  0  0  0  0  0  0
  1  5  1  0  0  0  0
  2  5  2  0  0  0  0
  2  8  1  0  0  0  0
  3  2  1  0  0  0  0
  4  1  2  0  0  0  0
  6  3  1  0  0  0  0
  7  4  1  0  0  0  0
  7  3  2  0  0  0  0
  9  8  1  0  0  0  0
  9 10  1  0  0  0  0
 11 18  1  0  0  0  0
 12 13  1  0  0  0  0
 12 11  2  0  0  0  0
 13 19  1  0  0  0  0
 14 16  1  0  0  0  0
 14 12  1  0  0  0  0
 15 10  1  0  0  0  0
 15 20  2  0  0  0  0
 16 17  2  0  0  0  0
 17 11  1  0  0  0  0
 18 21  1  0  0  0  0
 19 21  2  0  0  0  0
 19 22  1  0  0  0  0
 22 15  1  0  0  0  0
 23  7  1  0  0  0  0
 24 23  1  1  0  0  0
 25 26  2  0  0  0  0
 26 24  1  0  0  0  0
 27 25  1  0  0  0  0
 27 28  2  0  0  0  0
 28 24  1  0  0  0  0
 29 25  1  0  0  0  0
 29 30  1  0  0  0  0
 31 29  2  0  0  0  0
 33 32  1  6  0  0  0
 33 34  1  0  0  0  0
 33 28  1  0  0  0  0
 34 35  1  0  0  0  0
 36 34  2  0  0  0  0
M  END
>  <MODEL>
4

>  <REMARK>
 VINA RESULT:      -8.4      2.704      8.021
  Name = 
  9 active torsions:
  status: ('A' for Active; 'I' for Inactive)
    1  A    between atoms: C_5  and  C_18
    2  A    between atoms: C_6  and  C_26
    3  A    between atoms: O_7  and  C_14
    4  A    between atoms: O_7  and  C_29
    5  A    between atoms: C_8  and  C_23
    6  A    between atoms: C_9  and  C_31
    7  A    between atoms: C_18  and  C_35
    8  A    between atoms: C_23  and  C_29
    9  A    between atoms: C_31  and  C_32
                            x       y       z     vdW  Elec       q    Type
                         _______ _______ _______ _____ _____    ______ ____

>  <TORSDO>
F 9

$$$$
=
 OpenBabel11062417143D

 36 39  0  0  1  0  0  0  0  0999 V2000
  191.6050  176.1220  144.2770 C   0  0  0  0  0  3  0  0  0  0  0  0
  189.7450  177.6540  144.4420 C   0  0  0  0  0  0  0  0  0  0  0  0
  189.8880  177.9360  143.0670 C   0  0  0  0  0  0  0  0  0  0  0  0
  191.7230  176.4060  142.9550 N   0  0  0  0  0  0  0  0  0  0  0  0
  190.6150  176.7400  145.0400 C   0  0  0  0  0  3  0  0  0  0  0  0
  189.0760  178.8250  142.4390 F   0  0  0  0  0  0  0  0  0  0  0  0
  190.8940  177.2870  142.3360 C   0  0  0  0  0  0  0  0  0  0  0  0
  188.7670  178.2450  145.2520 O   0  0  0  0  0  0  0  0  0  0  0  0
  187.7790  177.5210  145.9740 C   0  0  0  0  0  2  0  0  0  0  0  0
  186.8400  178.4830  146.6810 C   0  0  0  0  0  2  0  0  0  0  0  0
  182.0850  178.9230  142.0860 C   0  0  0  0  0  0  0  0  0  0  0  0
  183.3040  178.6690  141.5070 C   0  0  0  0  0  0  0  0  0  0  0  0
  184.4670  178.1170  142.2600 C   0  0  0  0  0  2  0  0  0  0  0  0
  183.1970  178.9900  139.8700 S   0  0  0  0  0  0  0  0  0  0  0  0
  185.5310  178.5530  145.9730 C   0  0  0  0  0  0  0  0  0  0  0  0
  181.5760  179.4720  139.8790 C   0  0  0  0  0  3  0  0  0  0  0  0
  181.1060  179.3670  141.1900 C   0  0  0  0  0  3  0  0  0  0  0  0
  181.8640  178.6410  143.5360 C   0  0  0  0  0  2  0  0  0  0  0  0
  184.3080  178.3780  143.7400 C   0  0  0  0  0  0  0  0  0  0  0  0
  184.4810  178.7560  146.6370 O   0  0  0  0  0  0  0  0  0  0  0  0
  183.1370  178.6260  144.2690 N   0  0  0  0  0  0  0  0  0  0  0  0
  185.4870  178.3550  144.5550 N   0  0  0  0  0  2  0  0  0  0  0  0
  191.0850  177.5820  140.8850 C   0  0  0  0  0  2  0  0  0  0  0  0
  190.1500  176.7300  140.0370 C   0  0  1  0  0  3  0  0  0  0  0  0
  188.8490  177.6470  138.4930 C   0  0  0  0  0  0  0  0  0  0  0  0
  188.9190  177.4620  139.7700 N   0  0  0  0  0  0  0  0  0  0  0  0
  189.9430  177.1050  137.7670 N   0  0  0  0  0  0  0  0  0  0  0  0
  190.7050  176.5710  138.6620 C   0  0  0  0  0  0  0  0  0  0  0  0
  187.7360  178.3540  137.8540 C   0  0  0  0  0  0  0  0  0  0  0  0
  187.8700  178.8470  136.5630 O   0  0  0  0  0  0  0  0  0  0  0  0
  186.6530  178.5160  138.4750 O   0  0  0  0  0  1  0  0  0  0  0  0
  192.9260  176.7390  137.8440 O   0  0  0  0  0  1  0  0  0  0  0  0
  191.9720  175.8470  138.3380 C   0  0  2  0  0  3  0  0  0  0  0  0
  191.7260  174.7450  137.3590 C   0  0  0  0  0  0  0  0  0  0  0  0
  192.4990  174.6610  136.2100 O   0  0  0  0  0  0  0  0  0  0  0  0
  190.8490  173.8700  137.5880 O   0  0  0  0  0  1  0  0  0  0  0  0
  1  5  1  0  0  0  0
  2  5  2  0  0  0  0
  2  8  1  0  0  0  0
  3  2  1  0  0  0  0
  4  1  2  0  0  0  0
  6  3  1  0  0  0  0
  7  4  1  0  0  0  0
  7  3  2  0  0  0  0
  8  9  1  0  0  0  0
  9 10  1  0  0  0  0
 11 18  1  0  0  0  0
 12 11  2  0  0  0  0
 12 13  1  0  0  0  0
 13 19  1  0  0  0  0
 14 16  1  0  0  0  0
 14 12  1  0  0  0  0
 15 20  2  0  0  0  0
 15 10  1  0  0  0  0
 16 17  2  0  0  0  0
 17 11  1  0  0  0  0
 18 21  1  0  0  0  0
 19 21  2  0  0  0  0
 19 22  1  0  0  0  0
 22 15  1  0  0  0  0
 23  7  1  0  0  0  0
 24 23  1  1  0  0  0
 25 26  2  0  0  0  0
 26 24  1  0  0  0  0
 27 25  1  0  0  0  0
 27 28  2  0  0  0  0
 28 24  1  0  0  0  0
 29 31  1  0  0  0  0
 29 25  1  0  0  0  0
 30 29  2  0  0  0  0
 33 32  1  6  0  0  0
 33 28  1  0  0  0  0
 34 36  1  0  0  0  0
 34 33  1  0  0  0  0
 35 34  2  0  0  0  0
M  END
>  <MODEL>
5

>  <REMARK>
 VINA RESULT:      -8.2      2.732      7.297
  Name = 
  9 active torsions:
  status: ('A' for Active; 'I' for Inactive)
    1  A    between atoms: C_5  and  C_18
    2  A    between atoms: C_6  and  C_26
    3  A    between atoms: O_7  and  C_14
    4  A    between atoms: O_7  and  C_29
    5  A    between atoms: C_8  and  C_23
    6  A    between atoms: C_9  and  C_31
    7  A    between atoms: C_18  and  C_35
    8  A    between atoms: C_23  and  C_29
    9  A    between atoms: C_31  and  C_32
                            x       y       z     vdW  Elec       q    Type
                         _______ _______ _______ _____ _____    ______ ____

>  <TORSDO>
F 9

$$$$
=
 OpenBabel11062417143D

 36 39  0  0  1  0  0  0  0  0999 V2000
  185.8040  178.0630  137.2240 C   0  0  0  0  0  3  0  0  0  0  0  0
  184.9540  178.5120  139.4410 C   0  0  0  0  0  0  0  0  0  0  0  0
  186.2830  178.6220  139.9010 C   0  0  0  0  0  0  0  0  0  0  0  0
  187.0750  178.1760  137.6870 N   0  0  0  0  0  0  0  0  0  0  0  0
  184.7250  178.2290  138.0920 C   0  0  0  0  0  3  0  0  0  0  0  0
  186.5620  178.8820  141.2030 F   0  0  0  0  0  0  0  0  0  0  0  0
  187.3380  178.4520  138.9920 C   0  0  0  0  0  0  0  0  0  0  0  0
  183.8360  178.6720  140.2690 O   0  0  0  0  0  0  0  0  0  0  0  0
  183.5420  177.8450  141.3880 C   0  0  0  0  0  2  0  0  0  0  0  0
  182.7070  178.6130  142.3980 C   0  0  0  0  0  2  0  0  0  0  0  0
  187.1830  178.2070  147.2690 C   0  0  0  0  0  0  0  0  0  0  0  0
  187.7450  177.8840  146.0580 C   0  0  0  0  0  0  0  0  0  0  0  0
  187.1410  178.2670  144.7490 C   0  0  0  0  0  2  0  0  0  0  0  0
  189.2020  177.1120  146.3320 S   0  0  0  0  0  0  0  0  0  0  0  0
  183.4270  178.7230  143.6970 C   0  0  0  0  0  0  0  0  0  0  0  0
  189.1310  177.1720  148.0210 C   0  0  0  0  0  3  0  0  0  0  0  0
  187.9460  177.8210  148.3760 C   0  0  0  0  0  3  0  0  0  0  0  0
  185.9090  178.9840  147.3270 C   0  0  0  0  0  2  0  0  0  0  0  0
  185.6660  178.5470  144.9110 C   0  0  0  0  0  0  0  0  0  0  0  0
  182.7910  179.0670  144.7280 O   0  0  0  0  0  0  0  0  0  0  0  0
  185.1500  178.8440  146.0760 N   0  0  0  0  0  0  0  0  0  0  0  0
  184.8360  178.4670  143.7450 N   0  0  0  0  0  2  0  0  0  0  0  0
  188.7560  178.5390  139.4530 C   0  0  0  0  0  2  0  0  0  0  0  0
  189.3510  177.1470  139.6190 C   0  0  1  0  0  3  0  0  0  0  0  0
  191.3790  176.6710  138.8600 C   0  0  0  0  0  0  0  0  0  0  0  0
  190.1600  176.8120  138.4550 N   0  0  0  0  0  0  0  0  0  0  0  0
  191.5550  176.8730  140.2540 N   0  0  0  0  0  0  0  0  0  0  0  0
  190.3770  177.1530  140.7020 C   0  0  0  0  0  0  0  0  0  0  0  0
  192.4790  176.3280  137.9550 C   0  0  0  0  0  0  0  0  0  0  0  0
  192.3280  175.3060  137.0270 O   0  0  0  0  0  0  0  0  0  0  0  0
  193.5660  176.9600  138.0150 O   0  0  0  0  0  1  0  0  0  0  0  0
  190.8150  178.5150  142.5960 O   0  0  0  0  0  1  0  0  0  0  0  0
  190.0860  177.4120  142.1450 C   0  0  2  0  0  3  0  0  0  0  0  0
  190.3840  176.2080  142.9780 C   0  0  0  0  0  0  0  0  0  0  0  0
  191.5820  176.1320  143.6730 O   0  0  0  0  0  1  0  0  0  0  0  0
  189.5390  175.2790  143.0850 O   0  0  0  0  0  0  0  0  0  0  0  0
  1  4  2  0  0  0  0
  1  5  1  0  0  0  0
  2  3  1  0  0  0  0
  2  8  1  0  0  0  0
  3  6  1  0  0  0  0
  4  7  1  0  0  0  0
  5  2  2  0  0  0  0
  7 23  1  0  0  0  0
  7  3  2  0  0  0  0
  8  9  1  0  0  0  0
  9 10  1  0  0  0  0
 10 15  1  0  0  0  0
 11 18  1  0  0  0  0
 11 17  1  0  0  0  0
 12 14  1  0  0  0  0
 12 11  2  0  0  0  0
 13 19  1  0  0  0  0
 13 12  1  0  0  0  0
 14 16  1  0  0  0  0
 15 22  1  0  0  0  0
 15 20  2  0  0  0  0
 16 17  2  0  0  0  0
 19 21  2  0  0  0  0
 21 18  1  0  0  0  0
 22 19  1  0  0  0  0
 24 23  1  6  0  0  0
 24 28  1  0  0  0  0
 25 27  1  0  0  0  0
 26 25  2  0  0  0  0
 26 24  1  0  0  0  0
 27 28  2  0  0  0  0
 28 33  1  0  0  0  0
 29 31  1  0  0  0  0
 29 25  1  0  0  0  0
 30 29  2  0  0  0  0
 33 32  1  1  0  0  0
 33 34  1  0  0  0  0
 34 36  2  0  0  0  0
 34 35  1  0  0  0  0
M  END
>  <MODEL>
6

>  <REMARK>
 VINA RESULT:      -8.1      2.659      8.762
  Name = 
  9 active torsions:
  status: ('A' for Active; 'I' for Inactive)
    1  A    between atoms: C_5  and  C_18
    2  A    between atoms: C_6  and  C_26
    3  A    between atoms: O_7  and  C_14
    4  A    between atoms: O_7  and  C_29
    5  A    between atoms: C_8  and  C_23
    6  A    between atoms: C_9  and  C_31
    7  A    between atoms: C_18  and  C_35
    8  A    between atoms: C_23  and  C_29
    9  A    between atoms: C_31  and  C_32
                            x       y       z     vdW  Elec       q    Type
                         _______ _______ _______ _____ _____    ______ ____

>  <TORSDO>
F 9

$$$$
=
 OpenBabel11062417143D

 36 39  0  0  1  0  0  0  0  0999 V2000
  184.5690  178.6180  143.9560 C   0  0  0  0  0  3  0  0  0  0  0  0
  185.4460  178.8760  141.7190 C   0  0  0  0  0  0  0  0  0  0  0  0
  186.5800  178.1290  142.1050 C   0  0  0  0  0  0  0  0  0  0  0  0
  185.6670  177.8990  144.3050 N   0  0  0  0  0  0  0  0  0  0  0  0
  184.4410  179.1160  142.6590 C   0  0  0  0  0  3  0  0  0  0  0  0
  187.5910  177.8780  141.2350 F   0  0  0  0  0  0  0  0  0  0  0  0
  186.6650  177.6420  143.4180 C   0  0  0  0  0  0  0  0  0  0  0  0
  185.2680  179.3960  140.4310 O   0  0  0  0  0  0  0  0  0  0  0  0
  184.8450  178.6320  139.3090 C   0  0  0  0  0  2  0  0  0  0  0  0
  185.7140  178.9490  138.1050 C   0  0  0  0  0  2  0  0  0  0  0  0
  191.0650  175.1020  137.4060 C   0  0  0  0  0  0  0  0  0  0  0  0
  191.3520  176.2080  138.1690 C   0  0  0  0  0  0  0  0  0  0  0  0
  190.3060  177.0300  138.8420 C   0  0  0  0  0  2  0  0  0  0  0  0
  193.0130  176.3760  138.2650 S   0  0  0  0  0  0  0  0  0  0  0  0
  186.6400  177.8190  137.8150 C   0  0  0  0  0  0  0  0  0  0  0  0
  193.3930  175.0280  137.3170 C   0  0  0  0  0  3  0  0  0  0  0  0
  192.1930  174.4280  136.9280 C   0  0  0  0  0  3  0  0  0  0  0  0
  189.6510  174.6590  137.2200 C   0  0  0  0  0  2  0  0  0  0  0  0
  188.9670  176.8300  138.1710 C   0  0  0  0  0  0  0  0  0  0  0  0
  186.2310  176.8450  137.1300 O   0  0  0  0  0  0  0  0  0  0  0  0
  188.7180  175.7730  137.4420 N   0  0  0  0  0  0  0  0  0  0  0  0
  187.9700  177.8450  138.3490 N   0  0  0  0  0  2  0  0  0  0  0  0
  187.8620  176.8700  143.8630 C   0  0  0  0  0  2  0  0  0  0  0  0
  188.8600  177.7840  144.5610 C   0  0  1  0  0  3  0  0  0  0  0  0
  189.1640  177.6850  146.7560 C   0  0  0  0  0  0  0  0  0  0  0  0
  188.3510  178.1640  145.8720 N   0  0  0  0  0  0  0  0  0  0  0  0
  190.2590  176.9670  146.2070 N   0  0  0  0  0  0  0  0  0  0  0  0
  190.0870  177.0200  144.9300 C   0  0  0  0  0  0  0  0  0  0  0  0
  188.9680  177.8730  148.1950 C   0  0  0  0  0  0  0  0  0  0  0  0
  187.9280  177.2260  148.8490 O   0  0  0  0  0  1  0  0  0  0  0  0
  189.7440  178.6210  148.8460 O   0  0  0  0  0  0  0  0  0  0  0  0
  192.0010  175.6530  144.6090 O   0  0  0  0  0  1  0  0  0  0  0  0
  191.0350  176.4130  143.9460 C   0  0  2  0  0  3  0  0  0  0  0  0
  191.6810  177.4660  143.1050 C   0  0  0  0  0  0  0  0  0  0  0  0
  192.0390  178.6800  143.6750 O   0  0  0  0  0  1  0  0  0  0  0  0
  191.9410  177.2450  141.8910 O   0  0  0  0  0  0  0  0  0  0  0  0
  1  4  1  0  0  0  0
  2  3  2  0  0  0  0
  2  5  1  0  0  0  0
  3  7  1  0  0  0  0
  5  1  2  0  0  0  0
  6  3  1  0  0  0  0
  7 23  1  0  0  0  0
  7  4  2  0  0  0  0
  8  2  1  0  0  0  0
  9  8  1  0  0  0  0
 10  9  1  0  0  0  0
 11 12  2  0  0  0  0
 12 14  1  0  0  0  0
 12 13  1  0  0  0  0
 15 10  1  0  0  0  0
 15 22  1  0  0  0  0
 16 14  1  0  0  0  0
 17 16  2  0  0  0  0
 17 11  1  0  0  0  0
 18 11  1  0  0  0  0
 18 21  1  0  0  0  0
 19 22  1  0  0  0  0
 19 13  1  0  0  0  0
 20 15  2  0  0  0  0
 21 19  2  0  0  0  0
 24 23  1  1  0  0  0
 24 28  1  0  0  0  0
 24 26  1  0  0  0  0
 25 29  1  0  0  0  0
 26 25  2  0  0  0  0
 27 25  1  0  0  0  0
 28 27  2  0  0  0  0
 29 31  2  0  0  0  0
 29 30  1  0  0  0  0
 33 32  1  1  0  0  0
 33 28  1  0  0  0  0
 34 35  1  0  0  0  0
 34 33  1  0  0  0  0
 36 34  2  0  0  0  0
M  END
>  <MODEL>
7

>  <REMARK>
 VINA RESULT:      -8.1      2.807      6.479
  Name = 
  9 active torsions:
  status: ('A' for Active; 'I' for Inactive)
    1  A    between atoms: C_5  and  C_18
    2  A    between atoms: C_6  and  C_26
    3  A    between atoms: O_7  and  C_14
    4  A    between atoms: O_7  and  C_29
    5  A    between atoms: C_8  and  C_23
    6  A    between atoms: C_9  and  C_31
    7  A    between atoms: C_18  and  C_35
    8  A    between atoms: C_23  and  C_29
    9  A    between atoms: C_31  and  C_32
                            x       y       z     vdW  Elec       q    Type
                         _______ _______ _______ _____ _____    ______ ____

>  <TORSDO>
F 9

$$$$
=
 OpenBabel11062417143D

 36 39  0  0  1  0  0  0  0  0999 V2000
  186.2890  174.7610  136.6020 C   0  0  0  0  0  3  0  0  0  0  0  0
  185.1100  176.8040  137.1240 C   0  0  0  0  0  0  0  0  0  0  0  0
  186.3490  177.4150  137.4150 C   0  0  0  0  0  0  0  0  0  0  0  0
  187.4700  175.3690  136.8850 N   0  0  0  0  0  0  0  0  0  0  0  0
  185.0920  175.4680  136.7170 C   0  0  0  0  0  3  0  0  0  0  0  0
  186.4210  178.7060  137.8260 F   0  0  0  0  0  0  0  0  0  0  0  0
  187.5280  176.6680  137.2810 C   0  0  0  0  0  0  0  0  0  0  0  0
  183.8810  177.4700  137.2200 O   0  0  0  0  0  0  0  0  0  0  0  0
  183.4790  178.2520  138.3360 C   0  0  0  0  0  2  0  0  0  0  0  0
  182.6000  177.4270  139.2610 C   0  0  0  0  0  2  0  0  0  0  0  0
  184.8400  178.6650  145.3740 C   0  0  0  0  0  0  0  0  0  0  0  0
  185.8560  178.2290  144.5590 C   0  0  0  0  0  0  0  0  0  0  0  0
  185.7790  178.2620  143.0700 C   0  0  0  0  0  2  0  0  0  0  0  0
  187.1510  177.7760  145.5130 S   0  0  0  0  0  0  0  0  0  0  0  0
  182.7440  177.8890  140.6700 C   0  0  0  0  0  0  0  0  0  0  0  0
  186.4230  178.1260  146.9980 C   0  0  0  0  0  3  0  0  0  0  0  0
  185.1420  178.6200  146.7390 C   0  0  0  0  0  3  0  0  0  0  0  0
  183.5820  179.2140  144.7860 C   0  0  0  0  0  2  0  0  0  0  0  0
  184.3390  178.3140  142.6170 C   0  0  0  0  0  0  0  0  0  0  0  0
  181.7290  178.3000  141.2910 O   0  0  0  0  0  0  0  0  0  0  0  0
  183.3850  178.7240  143.4140 N   0  0  0  0  0  0  0  0  0  0  0  0
  184.0400  177.8870  141.2820 N   0  0  0  0  0  2  0  0  0  0  0  0
  188.8520  177.2780  137.6040 C   0  0  0  0  0  2  0  0  0  0  0  0
  189.6350  176.3850  138.5570 C   0  0  1  0  0  3  0  0  0  0  0  0
  191.7790  176.7630  138.9790 C   0  0  0  0  0  0  0  0  0  0  0  0
  191.0060  176.2400  138.0850 N   0  0  0  0  0  0  0  0  0  0  0  0
  191.0910  177.2950  140.1020 N   0  0  0  0  0  0  0  0  0  0  0  0
  189.8420  177.0800  139.8600 C   0  0  0  0  0  0  0  0  0  0  0  0
  193.2370  176.7980  138.8430 C   0  0  0  0  0  0  0  0  0  0  0  0
  193.8620  176.0730  137.8360 O   0  0  0  0  0  0  0  0  0  0  0  0
  193.9290  177.4860  139.6370 O   0  0  0  0  0  1  0  0  0  0  0  0
  188.3450  178.7740  140.5840 O   0  0  0  0  0  1  0  0  0  0  0  0
  188.7450  177.4540  140.8040 C   0  0  2  0  0  3  0  0  0  0  0  0
  189.1710  177.2640  142.2240 C   0  0  0  0  0  0  0  0  0  0  0  0
  189.0100  176.0270  142.8310 O   0  0  0  0  0  0  0  0  0  0  0  0
  189.7120  178.2070  142.8620 O   0  0  0  0  0  1  0  0  0  0  0  0
  1  5  2  0  0  0  0
  1  4  1  0  0  0  0
  2  8  1  0  0  0  0
  2  3  2  0  0  0  0
  3  6  1  0  0  0  0
  4  7  2  0  0  0  0
  5  2  1  0  0  0  0
  7  3  1  0  0  0  0
  7 23  1  0  0  0  0
  8  9  1  0  0  0  0
  9 10  1  0  0  0  0
 10 15  1  0  0  0  0
 11 17  1  0  0  0  0
 12 11  2  0  0  0  0
 12 14  1  0  0  0  0
 13 12  1  0  0  0  0
 14 16  1  0  0  0  0
 15 22  1  0  0  0  0
 15 20  2  0  0  0  0
 17 16  2  0  0  0  0
 18 11  1  0  0  0  0
 19 13  1  0  0  0  0
 19 21  2  0  0  0  0
 21 18  1  0  0  0  0
 22 19  1  0  0  0  0
 24 23  1  6  0  0  0
 24 28  1  0  0  0  0
 25 27  1  0  0  0  0
 26 24  1  0  0  0  0
 26 25  2  0  0  0  0
 28 27  2  0  0  0  0
 28 33  1  0  0  0  0
 29 25  1  0  0  0  0
 29 31  1  0  0  0  0
 30 29  2  0  0  0  0
 33 32  1  1  0  0  0
 33 34  1  0  0  0  0
 34 35  2  0  0  0  0
 34 36  1  0  0  0  0
M  END
>  <MODEL>
8

>  <REMARK>
 VINA RESULT:      -8.1      2.764      9.127
  Name = 
  9 active torsions:
  status: ('A' for Active; 'I' for Inactive)
    1  A    between atoms: C_5  and  C_18
    2  A    between atoms: C_6  and  C_26
    3  A    between atoms: O_7  and  C_14
    4  A    between atoms: O_7  and  C_29
    5  A    between atoms: C_8  and  C_23
    6  A    between atoms: C_9  and  C_31
    7  A    between atoms: C_18  and  C_35
    8  A    between atoms: C_23  and  C_29
    9  A    between atoms: C_31  and  C_32
                            x       y       z     vdW  Elec       q    Type
                         _______ _______ _______ _____ _____    ______ ____

>  <TORSDO>
F 9

$$$$
=
 OpenBabel11062417143D

 36 39  0  0  1  0  0  0  0  0999 V2000
  191.5660  176.5430  137.5200 C   0  0  0  0  0  3  0  0  0  0  0  0
  191.1350  176.9820  139.8560 C   0  0  0  0  0  0  0  0  0  0  0  0
  189.9200  177.6000  139.4900 C   0  0  0  0  0  0  0  0  0  0  0  0
  190.3920  177.1390  137.1900 N   0  0  0  0  0  0  0  0  0  0  0  0
  191.9550  176.4550  138.8560 C   0  0  0  0  0  3  0  0  0  0  0  0
  189.0920  178.1400  140.4200 F   0  0  0  0  0  0  0  0  0  0  0  0
  189.5650  177.6620  138.1340 C   0  0  0  0  0  0  0  0  0  0  0  0
  191.5710  176.8650  141.1820 O   0  0  0  0  0  0  0  0  0  0  0  0
  191.6560  177.9510  142.0970 C   0  0  0  0  0  2  0  0  0  0  0  0
  191.7840  177.4270  143.5160 C   0  0  0  0  0  2  0  0  0  0  0  0
  185.4200  178.3650  145.1110 C   0  0  0  0  0  0  0  0  0  0  0  0
  185.5620  178.1540  143.7610 C   0  0  0  0  0  0  0  0  0  0  0  0
  186.7670  177.5190  143.1550 C   0  0  0  0  0  2  0  0  0  0  0  0
  184.1560  178.6340  142.9940 S   0  0  0  0  0  0  0  0  0  0  0  0
  190.4970  177.5810  144.2500 C   0  0  0  0  0  0  0  0  0  0  0  0
  183.3410  179.1300  144.3890 C   0  0  0  0  0  3  0  0  0  0  0  0
  184.1830  178.9040  145.4800 C   0  0  0  0  0  3  0  0  0  0  0  0
  186.4970  177.9460  146.0570 C   0  0  0  0  0  2  0  0  0  0  0  0
  187.9500  177.6370  144.0880 C   0  0  0  0  0  0  0  0  0  0  0  0
  190.5120  177.7300  145.5000 O   0  0  0  0  0  0  0  0  0  0  0  0
  187.7920  177.8460  145.3700 N   0  0  0  0  0  0  0  0  0  0  0  0
  189.2620  177.5220  143.5240 N   0  0  0  0  0  2  0  0  0  0  0  0
  188.2990  178.3300  137.7130 C   0  0  0  0  0  2  0  0  0  0  0  0
  187.0900  177.5630  138.2340 C   0  0  1  0  0  3  0  0  0  0  0  0
  185.1170  178.5500  138.4570 C   0  0  0  0  0  0  0  0  0  0  0  0
  186.2600  178.4410  139.0480 N   0  0  0  0  0  0  0  0  0  0  0  0
  185.0170  177.8140  137.2460 N   0  0  0  0  0  0  0  0  0  0  0  0
  186.1640  177.2390  137.1100 C   0  0  0  0  0  0  0  0  0  0  0  0
  184.0220  179.3620  138.9930 C   0  0  0  0  0  0  0  0  0  0  0  0
  182.8770  178.7510  139.4870 O   0  0  0  0  0  1  0  0  0  0  0  0
  184.1150  180.6170  139.0090 O   0  0  0  0  0  0  0  0  0  0  0  0
  185.4690  176.3330  135.0300 O   0  0  0  0  0  1  0  0  0  0  0  0
  186.4970  176.3260  135.9740 C   0  0  2  0  0  3  0  0  0  0  0  0
  186.7560  174.9370  136.4600 C   0  0  0  0  0  0  0  0  0  0  0  0
  188.0420  174.5650  136.8270 O   0  0  0  0  0  1  0  0  0  0  0  0
  185.8100  174.1130  136.5770 O   0  0  0  0  0  0  0  0  0  0  0  0
  1  5  1  0  0  0  0
  2  8  1  0  0  0  0
  3  2  1  0  0  0  0
  3  6  1  0  0  0  0
  4  1  2  0  0  0  0
  4  7  1  0  0  0  0
  5  2  2  0  0  0  0
  7  3  2  0  0  0  0
  8  9  1  0  0  0  0
  9 10  1  0  0  0  0
 10 15  1  0  0  0  0
 11 17  1  0  0  0  0
 11 18  1  0  0  0  0
 12 11  2  0  0  0  0
 13 12  1  0  0  0  0
 13 19  1  0  0  0  0
 14 12  1  0  0  0  0
 14 16  1  0  0  0  0
 15 20  2  0  0  0  0
 16 17  2  0  0  0  0
 19 21  2  0  0  0  0
 21 18  1  0  0  0  0
 22 19  1  0  0  0  0
 22 15  1  0  0  0  0
 23  7  1  0  0  0  0
 24 23  1  6  0  0  0
 24 26  1  0  0  0  0
 25 29  1  0  0  0  0
 25 26  2  0  0  0  0
 27 25  1  0  0  0  0
 28 27  2  0  0  0  0
 28 24  1  0  0  0  0
 29 31  2  0  0  0  0
 29 30  1  0  0  0  0
 33 32  1  6  0  0  0
 33 34  1  0  0  0  0
 33 28  1  0  0  0  0
 34 36  2  0  0  0  0
 34 35  1  0  0  0  0
M  END
>  <MODEL>
9

>  <REMARK>
 VINA RESULT:      -8.0      2.677      6.543
  Name = 
  9 active torsions:
  status: ('A' for Active; 'I' for Inactive)
    1  A    between atoms: C_5  and  C_18
    2  A    between atoms: C_6  and  C_26
    3  A    between atoms: O_7  and  C_14
    4  A    between atoms: O_7  and  C_29
    5  A    between atoms: C_8  and  C_23
    6  A    between atoms: C_9  and  C_31
    7  A    between atoms: C_18  and  C_35
    8  A    between atoms: C_23  and  C_29
    9  A    between atoms: C_31  and  C_32
                            x       y       z     vdW  Elec       q    Type
                         _______ _______ _______ _____ _____    ______ ____

>  <TORSDO>
F 9

$$$$
