=
 OpenBabel11062417003D

 26 28  0  0  1  0  0  0  0  0999 V2000
  190.6150  177.4570  141.1520 C   0  0  0  0  0  0  0  0  0  0  0  0
  191.6610  177.2650  142.1810 C   0  0  0  0  0  2  0  0  0  0  0  0
  191.0020  177.8190  143.4460 C   0  0  2  0  0  3  0  0  0  0  0  0
  187.4320  178.4430  138.6110 N   0  0  0  0  0  1  0  0  0  0  0  0
  188.3990  178.2570  140.8650 C   0  0  0  0  0  0  0  0  0  0  0  0
  189.5110  178.0030  143.1140 C   0  0  1  0  0  3  0  0  0  0  0  0
  191.6130  179.1650  143.7880 C   0  0  0  0  0  1  0  0  0  0  0  0
  188.5090  178.0960  139.4760 C   0  0  0  0  0  0  0  0  0  0  0  0
  189.4470  177.8910  141.6620 N   0  0  0  0  0  0  0  0  0  0  0  0
  187.3520  178.7500  141.3660 O   0  0  0  0  0  0  0  0  0  0  0  0
  190.7810  177.2840  139.7720 C   0  0  0  0  0  0  0  0  0  0  0  0
  189.7030  177.6040  138.9350 C   0  0  0  0  0  3  0  0  0  0  0  0
  188.7140  176.8750  143.7920 C   0  0  2  0  0  3  0  0  0  0  0  0
  187.4980  176.6520  143.1430 O   0  0  0  0  0  1  0  0  0  0  0  0
  187.7620  178.0690  149.6430 Cl  0  0  0  0  0  0  0  0  0  0  0  0
  188.0300  177.7230  147.9490 C   0  0  0  0  0  0  0  0  0  0  0  0
  187.2240  177.6740  145.6670 C   0  0  0  0  0  3  0  0  0  0  0  0
  189.4780  176.9430  146.1720 C   0  0  0  0  0  3  0  0  0  0  0  0
  188.4600  177.1690  145.2380 C   0  0  0  0  0  0  0  0  0  0  0  0
  187.0100  177.9500  147.0200 C   0  0  0  0  0  3  0  0  0  0  0  0
  189.2630  177.2190  147.5260 C   0  0  0  0  0  3  0  0  0  0  0  0
  192.1790  176.5020  137.9660 N   0  0  0  0  0  0  0  0  0  0  0  0
  192.0540  176.7960  139.2210 C   0  0  0  0  0  3  0  0  0  0  0  0
  193.7950  174.6740  137.6250 N   0  0  0  0  0  1  0  0  0  0  0  0
  194.1540  176.7890  136.7420 O   0  0  0  0  0  0  0  0  0  0  0  0
  193.4090  176.0270  137.4140 C   0  0  0  0  0  0  0  0  0  0  0  0
  1  9  1  0  0  0  0
  1  2  1  0  0  0  0
  2  3  1  0  0  0  0
  3  7  1  6  0  0  0
  4  8  1  0  0  0  0
  5 10  2  0  0  0  0
  5  9  1  0  0  0  0
  6  3  1  0  0  0  0
  6 13  1  1  0  0  0
  8  5  1  0  0  0  0
  9  6  1  0  0  0  0
 11  1  2  0  0  0  0
 12  8  2  0  0  0  0
 12 11  1  0  0  0  0
 13 14  1  6  0  0  0
 13 19  1  0  0  0  0
 16 15  1  0  0  0  0
 17 20  1  0  0  0  0
 18 21  2  0  0  0  0
 19 17  2  0  0  0  0
 19 18  1  0  0  0  0
 20 16  2  0  0  0  0
 21 16  1  0  0  0  0
 22 23  2  0  0  0  0
 23 11  1  0  0  0  0
 25 26  2  0  0  0  0
 26 24  1  0  0  0  0
 26 22  1  0  0  0  0
M  END
>  <MODEL>
1

>  <REMARK>
 VINA RESULT:      -8.9      0.000      0.000
  Name = 
  4 active torsions:
  status: ('A' for Active; 'I' for Inactive)
    1  A    between atoms: C_8  and  C_11
    2  A    between atoms: C_8  and  C_15
    3  A    between atoms: N_22  and  C_25
    4  A    between atoms: C_23  and  C_24
                            x       y       z     vdW  Elec       q    Type
                         _______ _______ _______ _____ _____    ______ ____

>  <TORSDO>
F 4

$$$$
=
 OpenBabel11062417003D

 26 28  0  0  1  0  0  0  0  0999 V2000
  190.7190  177.4170  141.2160 C   0  0  0  0  0  0  0  0  0  0  0  0
  191.7060  177.1670  142.2910 C   0  0  0  0  0  2  0  0  0  0  0  0
  191.0120  177.7360  143.5310 C   0  0  2  0  0  3  0  0  0  0  0  0
  187.7050  178.5710  138.5430 N   0  0  0  0  0  1  0  0  0  0  0  0
  188.5560  178.3170  140.8370 C   0  0  0  0  0  0  0  0  0  0  0  0
  189.5480  177.9880  143.1330 C   0  0  1  0  0  3  0  0  0  0  0  0
  191.6640  179.0490  143.9190 C   0  0  0  0  0  1  0  0  0  0  0  0
  188.7240  178.1670  139.4530 C   0  0  0  0  0  0  0  0  0  0  0  0
  189.5470  177.8960  141.6780 N   0  0  0  0  0  0  0  0  0  0  0  0
  187.5080  178.8490  141.2960 O   0  0  0  0  0  0  0  0  0  0  0  0
  190.9420  177.2520  139.8440 C   0  0  0  0  0  0  0  0  0  0  0  0
  189.9200  177.6290  138.9620 C   0  0  0  0  0  3  0  0  0  0  0  0
  188.6710  176.8880  143.7560 C   0  0  2  0  0  3  0  0  0  0  0  0
  188.4290  175.8560  142.8490 O   0  0  0  0  0  1  0  0  0  0  0  0
  183.3690  179.0640  145.6870 Cl  0  0  0  0  0  0  0  0  0  0  0  0
  184.9060  178.4380  145.1350 C   0  0  0  0  0  0  0  0  0  0  0  0
  187.1950  177.7930  145.5940 C   0  0  0  0  0  3  0  0  0  0  0  0
  186.3030  177.5810  143.3510 C   0  0  0  0  0  3  0  0  0  0  0  0
  187.3670  177.4350  144.2480 C   0  0  0  0  0  0  0  0  0  0  0  0
  185.9670  178.2940  146.0350 C   0  0  0  0  0  3  0  0  0  0  0  0
  185.0740  178.0820  143.7930 C   0  0  0  0  0  3  0  0  0  0  0  0
  192.3710  176.3780  138.1050 N   0  0  0  0  0  0  0  0  0  0  0  0
  192.2170  176.7160  139.3470 C   0  0  0  0  0  3  0  0  0  0  0  0
  193.9970  174.5340  137.9560 N   0  0  0  0  0  1  0  0  0  0  0  0
  194.3450  176.5480  136.8590 O   0  0  0  0  0  0  0  0  0  0  0  0
  193.6030  175.8550  137.6060 C   0  0  0  0  0  0  0  0  0  0  0  0
  1  9  1  0  0  0  0
  1  2  1  0  0  0  0
  2  3  1  0  0  0  0
  3  7  1  6  0  0  0
  4  8  1  0  0  0  0
  5 10  2  0  0  0  0
  5  9  1  0  0  0  0
  6  3  1  0  0  0  0
  6 13  1  1  0  0  0
  8  5  1  0  0  0  0
  9  6  1  0  0  0  0
 11  1  2  0  0  0  0
 12  8  2  0  0  0  0
 12 11  1  0  0  0  0
 13 14  1  6  0  0  0
 13 19  1  0  0  0  0
 16 15  1  0  0  0  0
 16 20  1  0  0  0  0
 17 20  2  0  0  0  0
 18 21  1  0  0  0  0
 18 19  2  0  0  0  0
 19 17  1  0  0  0  0
 21 16  2  0  0  0  0
 22 23  2  0  0  0  0
 23 11  1  0  0  0  0
 25 26  2  0  0  0  0
 26 24  1  0  0  0  0
 26 22  1  0  0  0  0
M  END
>  <MODEL>
2

>  <REMARK>
 VINA RESULT:      -8.7      1.563      2.073
  Name = 
  4 active torsions:
  status: ('A' for Active; 'I' for Inactive)
    1  A    between atoms: C_8  and  C_11
    2  A    between atoms: C_8  and  C_15
    3  A    between atoms: N_22  and  C_25
    4  A    between atoms: C_23  and  C_24
                            x       y       z     vdW  Elec       q    Type
                         _______ _______ _______ _____ _____    ______ ____

>  <TORSDO>
F 4

$$$$
=
 OpenBabel11062417003D

 26 28  0  0  1  0  0  0  0  0999 V2000
  189.7900  177.1180  146.1770 C   0  0  0  0  0  0  0  0  0  0  0  0
  188.9900  176.9910  147.4150 C   0  0  0  0  0  2  0  0  0  0  0  0
  187.7070  177.7520  147.0740 C   0  0  2  0  0  3  0  0  0  0  0  0
  191.7100  177.9810  142.5530 N   0  0  0  0  0  1  0  0  0  0  0  0
  189.7110  178.0270  143.9860 C   0  0  0  0  0  0  0  0  0  0  0  0
  187.7370  177.9950  145.5550 C   0  0  1  0  0  3  0  0  0  0  0  0
  187.7010  179.0850  147.7980 C   0  0  0  0  0  1  0  0  0  0  0  0
  191.0540  177.6770  143.7800 C   0  0  0  0  0  0  0  0  0  0  0  0
  189.1100  177.6970  145.1670 N   0  0  0  0  0  0  0  0  0  0  0  0
  189.0750  178.6540  143.0950 O   0  0  0  0  0  0  0  0  0  0  0  0
  191.1330  176.7530  146.0270 C   0  0  0  0  0  0  0  0  0  0  0  0
  191.7590  177.0350  144.8050 C   0  0  0  0  0  3  0  0  0  0  0  0
  186.7500  177.0250  144.8820 C   0  0  2  0  0  3  0  0  0  0  0  0
  187.3300  176.3930  143.7800 O   0  0  0  0  0  1  0  0  0  0  0  0
  181.6890  179.8060  143.0870 Cl  0  0  0  0  0  0  0  0  0  0  0  0
  183.1530  179.0050  143.6130 C   0  0  0  0  0  0  0  0  0  0  0  0
  184.5990  178.2400  145.3980 C   0  0  0  0  0  3  0  0  0  0  0  0
  185.2150  177.8500  143.0880 C   0  0  0  0  0  3  0  0  0  0  0  0
  185.4960  177.7220  144.4530 C   0  0  0  0  0  0  0  0  0  0  0  0
  183.4290  178.8810  144.9780 C   0  0  0  0  0  3  0  0  0  0  0  0
  184.0450  178.4900  142.6680 C   0  0  0  0  0  3  0  0  0  0  0  0
  192.4220  176.8040  148.0690 N   0  0  0  0  0  0  0  0  0  0  0  0
  191.8660  176.1090  147.1270 C   0  0  0  0  0  3  0  0  0  0  0  0
  194.0130  176.9830  149.9400 N   0  0  0  0  0  1  0  0  0  0  0  0
  193.0010  174.9670  149.3990 O   0  0  0  0  0  0  0  0  0  0  0  0
  193.1370  176.1940  149.1450 C   0  0  0  0  0  0  0  0  0  0  0  0
  1  2  1  0  0  0  0
  3  2  1  0  0  0  0
  3  7  1  1  0  0  0
  4  8  1  0  0  0  0
  5  9  1  0  0  0  0
  6 13  1  6  0  0  0
  6  3  1  0  0  0  0
  8  5  1  0  0  0  0
  8 12  2  0  0  0  0
  9  6  1  0  0  0  0
  9  1  1  0  0  0  0
 10  5  2  0  0  0  0
 11  1  2  0  0  0  0
 11 23  1  0  0  0  0
 12 11  1  0  0  0  0
 13 14  1  6  0  0  0
 15 16  1  0  0  0  0
 16 20  1  0  0  0  0
 18 19  2  0  0  0  0
 19 13  1  0  0  0  0
 19 17  1  0  0  0  0
 20 17  2  0  0  0  0
 21 18  1  0  0  0  0
 21 16  2  0  0  0  0
 22 26  1  0  0  0  0
 23 22  2  0  0  0  0
 26 25  2  0  0  0  0
 26 24  1  0  0  0  0
M  END
>  <MODEL>
3

>  <REMARK>
 VINA RESULT:      -8.0      4.111      6.697
  Name = 
  4 active torsions:
  status: ('A' for Active; 'I' for Inactive)
    1  A    between atoms: C_8  and  C_11
    2  A    between atoms: C_8  and  C_15
    3  A    between atoms: N_22  and  C_25
    4  A    between atoms: C_23  and  C_24
                            x       y       z     vdW  Elec       q    Type
                         _______ _______ _______ _____ _____    ______ ____

>  <TORSDO>
F 4

$$$$
=
 OpenBabel11062417003D

 26 28  0  0  1  0  0  0  0  0999 V2000
  189.1850  177.2650  140.2800 C   0  0  0  0  0  0  0  0  0  0  0  0
  190.5320  176.6920  140.4970 C   0  0  0  0  0  2  0  0  0  0  0  0
  190.8210  177.0420  141.9590 C   0  0  2  0  0  3  0  0  0  0  0  0
  185.5040  179.2630  140.1420 N   0  0  0  0  0  1  0  0  0  0  0  0
  187.4480  178.4340  141.3990 C   0  0  0  0  0  0  0  0  0  0  0  0
  189.4890  177.5180  142.5640 C   0  0  1  0  0  3  0  0  0  0  0  0
  191.8340  178.1690  142.0190 C   0  0  0  0  0  1  0  0  0  0  0  0
  186.7480  178.5730  140.1910 C   0  0  0  0  0  0  0  0  0  0  0  0
  188.6280  177.7450  141.4100 N   0  0  0  0  0  0  0  0  0  0  0  0
  186.9990  178.9530  142.4570 O   0  0  0  0  0  0  0  0  0  0  0  0
  188.5330  177.3820  139.0470 C   0  0  0  0  0  0  0  0  0  0  0  0
  187.2950  178.0410  139.0180 C   0  0  0  0  0  3  0  0  0  0  0  0
  188.9290  176.4000  143.4600 C   0  0  2  0  0  3  0  0  0  0  0  0
  187.7200  175.9080  142.9630 O   0  0  0  0  0  1  0  0  0  0  0  0
  188.2150  178.3060  149.1540 Cl  0  0  0  0  0  0  0  0  0  0  0  0
  188.4140  177.7530  147.5070 C   0  0  0  0  0  0  0  0  0  0  0  0
  187.4670  177.2410  145.3380 C   0  0  0  0  0  3  0  0  0  0  0  0
  189.8390  176.9380  145.7260 C   0  0  0  0  0  3  0  0  0  0  0  0
  188.7350  176.8670  144.8690 C   0  0  0  0  0  0  0  0  0  0  0  0
  187.3070  177.6820  146.6550 C   0  0  0  0  0  3  0  0  0  0  0  0
  189.6790  177.3800  147.0430 C   0  0  0  0  0  3  0  0  0  0  0  0
  188.5650  176.9840  136.6660 N   0  0  0  0  0  0  0  0  0  0  0  0
  189.1380  176.8450  137.8200 C   0  0  0  0  0  3  0  0  0  0  0  0
  189.0760  175.0710  135.2000 N   0  0  0  0  0  1  0  0  0  0  0  0
  189.7020  177.2320  134.6340 O   0  0  0  0  0  0  0  0  0  0  0  0
  189.1400  176.4670  135.4640 C   0  0  0  0  0  0  0  0  0  0  0  0
  1  2  1  0  0  0  0
  1  9  1  0  0  0  0
  2  3  1  0  0  0  0
  3  7  1  6  0  0  0
  3  6  1  0  0  0  0
  4  8  1  0  0  0  0
  5  9  1  0  0  0  0
  5 10  2  0  0  0  0
  6 13  1  1  0  0  0
  8  5  1  0  0  0  0
  9  6  1  0  0  0  0
 11  1  2  0  0  0  0
 12 11  1  0  0  0  0
 12  8  2  0  0  0  0
 13 14  1  6  0  0  0
 13 19  1  0  0  0  0
 16 15  1  0  0  0  0
 17 20  1  0  0  0  0
 18 21  2  0  0  0  0
 19 17  2  0  0  0  0
 19 18  1  0  0  0  0
 20 16  2  0  0  0  0
 21 16  1  0  0  0  0
 22 23  2  0  0  0  0
 23 11  1  0  0  0  0
 24 26  1  0  0  0  0
 25 26  2  0  0  0  0
 26 22  1  0  0  0  0
M  END
>  <MODEL>
4

>  <REMARK>
 VINA RESULT:      -7.7      2.111      2.356
  Name = 
  4 active torsions:
  status: ('A' for Active; 'I' for Inactive)
    1  A    between atoms: C_8  and  C_11
    2  A    between atoms: C_8  and  C_15
    3  A    between atoms: N_22  and  C_25
    4  A    between atoms: C_23  and  C_24
                            x       y       z     vdW  Elec       q    Type
                         _______ _______ _______ _____ _____    ______ ____

>  <TORSDO>
F 4

$$$$
=
 OpenBabel11062417003D

 26 28  0  0  1  0  0  0  0  0999 V2000
  190.6390  177.7200  141.3700 C   0  0  0  0  0  0  0  0  0  0  0  0
  191.8120  177.7540  142.2740 C   0  0  0  0  0  2  0  0  0  0  0  0
  191.2240  178.3000  143.5770 C   0  0  2  0  0  3  0  0  0  0  0  0
  187.0790  178.0560  139.1870 N   0  0  0  0  0  1  0  0  0  0  0  0
  188.3110  178.1750  141.3130 C   0  0  0  0  0  0  0  0  0  0  0  0
  189.6940  178.2460  143.4200 C   0  0  1  0  0  3  0  0  0  0  0  0
  191.6610  179.7400  143.7660 C   0  0  0  0  0  1  0  0  0  0  0  0
  188.2860  177.9300  139.9310 C   0  0  0  0  0  0  0  0  0  0  0  0
  189.4840  178.0200  141.9950 N   0  0  0  0  0  0  0  0  0  0  0  0
  187.2640  178.5490  141.9100 O   0  0  0  0  0  0  0  0  0  0  0  0
  190.6730  177.4720  139.9930 C   0  0  0  0  0  0  0  0  0  0  0  0
  189.4710  177.5740  139.2770 C   0  0  0  0  0  3  0  0  0  0  0  0
  189.1560  177.0680  144.2510 C   0  0  2  0  0  3  0  0  0  0  0  0
  187.8790  177.3370  144.7460 O   0  0  0  0  0  1  0  0  0  0  0  0
  192.9000  175.6950  148.7970 Cl  0  0  0  0  0  0  0  0  0  0  0  0
  191.8120  176.0940  147.4870 C   0  0  0  0  0  0  0  0  0  0  0  0
  189.8350  177.2330  146.6770 C   0  0  0  0  0  3  0  0  0  0  0  0
  191.1800  175.9110  145.1560 C   0  0  0  0  0  3  0  0  0  0  0  0
  190.0700  176.7310  145.3880 C   0  0  0  0  0  0  0  0  0  0  0  0
  190.7040  176.9130  147.7240 C   0  0  0  0  0  3  0  0  0  0  0  0
  192.0490  175.5920  146.2040 C   0  0  0  0  0  3  0  0  0  0  0  0
  191.9480  176.4680  138.2060 N   0  0  0  0  0  0  0  0  0  0  0  0
  191.9340  177.1310  139.3190 C   0  0  0  0  0  3  0  0  0  0  0  0
  194.2560  175.6100  138.2880 N   0  0  0  0  0  1  0  0  0  0  0  0
  193.2840  176.2810  136.2920 O   0  0  0  0  0  0  0  0  0  0  0  0
  193.1650  176.1290  137.5370 C   0  0  0  0  0  0  0  0  0  0  0  0
  1  9  1  0  0  0  0
  1  2  1  0  0  0  0
  2  3  1  0  0  0  0
  3  7  1  6  0  0  0
  4  8  1  0  0  0  0
  5 10  2  0  0  0  0
  5  9  1  0  0  0  0
  6  3  1  0  0  0  0
  6 13  1  1  0  0  0
  8  5  1  0  0  0  0
  9  6  1  0  0  0  0
 11  1  2  0  0  0  0
 12  8  2  0  0  0  0
 12 11  1  0  0  0  0
 13 14  1  1  0  0  0
 13 19  1  0  0  0  0
 16 20  1  0  0  0  0
 16 15  1  0  0  0  0
 17 20  2  0  0  0  0
 18 19  2  0  0  0  0
 18 21  1  0  0  0  0
 19 17  1  0  0  0  0
 21 16  2  0  0  0  0
 22 23  2  0  0  0  0
 23 11  1  0  0  0  0
 25 26  2  0  0  0  0
 26 22  1  0  0  0  0
 26 24  1  0  0  0  0
M  END
>  <MODEL>
5

>  <REMARK>
 VINA RESULT:      -7.6      1.610      1.989
  Name = 
  4 active torsions:
  status: ('A' for Active; 'I' for Inactive)
    1  A    between atoms: C_8  and  C_11
    2  A    between atoms: C_8  and  C_15
    3  A    between atoms: N_22  and  C_25
    4  A    between atoms: C_23  and  C_24
                            x       y       z     vdW  Elec       q    Type
                         _______ _______ _______ _____ _____    ______ ____

>  <TORSDO>
F 4

$$$$
=
 OpenBabel11062417003D

 26 28  0  0  1  0  0  0  0  0999 V2000
  186.6990  178.1610  144.6070 C   0  0  0  0  0  0  0  0  0  0  0  0
  188.1290  177.7800  144.6060 C   0  0  0  0  0  2  0  0  0  0  0  0
  188.3440  177.2620  143.1810 C   0  0  2  0  0  3  0  0  0  0  0  0
  182.5910  178.8420  144.1410 N   0  0  0  0  0  1  0  0  0  0  0  0
  184.7880  178.2520  143.2040 C   0  0  0  0  0  0  0  0  0  0  0  0
  187.0990  177.6750  142.3770 C   0  0  1  0  0  3  0  0  0  0  0  0
  188.4530  175.7500  143.2040 C   0  0  0  0  0  1  0  0  0  0  0  0
  183.9890  178.6230  144.2960 C   0  0  0  0  0  0  0  0  0  0  0  0
  186.1290  178.0730  143.3900 N   0  0  0  0  0  0  0  0  0  0  0  0
  184.2660  178.0700  142.0700 O   0  0  0  0  0  0  0  0  0  0  0  0
  185.9480  178.5220  145.7320 C   0  0  0  0  0  0  0  0  0  0  0  0
  184.5780  178.7610  145.5590 C   0  0  0  0  0  3  0  0  0  0  0  0
  187.4700  178.8620  141.4700 C   0  0  2  0  0  3  0  0  0  0  0  0
  186.4040  179.7520  141.3370 O   0  0  0  0  0  1  0  0  0  0  0  0
  189.1840  177.0420  135.9640 Cl  0  0  0  0  0  0  0  0  0  0  0  0
  188.6950  177.5650  137.5600 C   0  0  0  0  0  0  0  0  0  0  0  0
  189.2590  178.1330  139.8450 C   0  0  0  0  0  3  0  0  0  0  0  0
  186.9570  178.2530  139.1000 C   0  0  0  0  0  3  0  0  0  0  0  0
  187.9090  178.4040  140.1140 C   0  0  0  0  0  0  0  0  0  0  0  0
  189.6500  177.7140  138.5700 C   0  0  0  0  0  3  0  0  0  0  0  0
  187.3490  177.8340  137.8250 C   0  0  0  0  0  3  0  0  0  0  0  0
  187.6010  177.9030  147.3800 N   0  0  0  0  0  0  0  0  0  0  0  0
  186.5780  178.6310  147.0560 C   0  0  0  0  0  3  0  0  0  0  0  0
  189.6220  178.2530  148.7440 N   0  0  0  0  0  1  0  0  0  0  0  0
  187.5560  177.8570  149.7210 O   0  0  0  0  0  0  0  0  0  0  0  0
  188.2250  177.9970  148.6630 C   0  0  0  0  0  0  0  0  0  0  0  0
  1 11  2  0  0  0  0
  2  1  1  0  0  0  0
  3  7  1  1  0  0  0
  3  2  1  0  0  0  0
  4  8  1  0  0  0  0
  5  9  1  0  0  0  0
  5  8  1  0  0  0  0
  6 13  1  6  0  0  0
  6  3  1  0  0  0  0
  6  9  1  0  0  0  0
  8 12  2  0  0  0  0
  9  1  1  0  0  0  0
 10  5  2  0  0  0  0
 11 23  1  0  0  0  0
 12 11  1  0  0  0  0
 13 14  1  6  0  0  0
 15 16  1  0  0  0  0
 16 21  2  0  0  0  0
 16 20  1  0  0  0  0
 17 19  1  0  0  0  0
 18 19  2  0  0  0  0
 19 13  1  0  0  0  0
 20 17  2  0  0  0  0
 21 18  1  0  0  0  0
 22 26  1  0  0  0  0
 23 22  2  0  0  0  0
 26 24  1  0  0  0  0
 26 25  2  0  0  0  0
M  END
>  <MODEL>
6

>  <REMARK>
 VINA RESULT:      -7.1      4.759      8.111
  Name = 
  4 active torsions:
  status: ('A' for Active; 'I' for Inactive)
    1  A    between atoms: C_8  and  C_11
    2  A    between atoms: C_8  and  C_15
    3  A    between atoms: N_22  and  C_25
    4  A    between atoms: C_23  and  C_24
                            x       y       z     vdW  Elec       q    Type
                         _______ _______ _______ _____ _____    ______ ____

>  <TORSDO>
F 4

$$$$
=
 OpenBabel11062417003D

 26 28  0  0  1  0  0  0  0  0999 V2000
  186.5440  177.9450  143.2360 C   0  0  0  0  0  0  0  0  0  0  0  0
  185.7190  177.9460  144.4640 C   0  0  0  0  0  2  0  0  0  0  0  0
  184.4910  178.7600  144.0500 C   0  0  2  0  0  3  0  0  0  0  0  0
  188.5690  178.4520  139.6030 N   0  0  0  0  0  1  0  0  0  0  0  0
  186.5550  178.7120  140.9900 C   0  0  0  0  0  0  0  0  0  0  0  0
  184.5590  178.9010  142.5200 C   0  0  1  0  0  3  0  0  0  0  0  0
  184.5560  180.1350  144.6880 C   0  0  0  0  0  1  0  0  0  0  0  0
  187.8760  178.2690  140.8330 C   0  0  0  0  0  0  0  0  0  0  0  0
  185.9170  178.4960  142.1790 N   0  0  0  0  0  0  0  0  0  0  0  0
  185.9720  179.3170  140.0490 O   0  0  0  0  0  0  0  0  0  0  0  0
  187.8650  177.4900  143.1360 C   0  0  0  0  0  0  0  0  0  0  0  0
  188.5250  177.6530  141.9100 C   0  0  0  0  0  3  0  0  0  0  0  0
  183.5250  177.9510  141.8910 C   0  0  2  0  0  3  0  0  0  0  0  0
  184.1110  177.1270  140.9290 O   0  0  0  0  0  1  0  0  0  0  0  0
  178.9460  180.9690  139.3430 Cl  0  0  0  0  0  0  0  0  0  0  0  0
  180.2680  180.0980  140.0870 C   0  0  0  0  0  0  0  0  0  0  0  0
  181.2280  178.9920  142.0150 C   0  0  0  0  0  3  0  0  0  0  0  0
  182.4770  179.1150  139.9420 C   0  0  0  0  0  3  0  0  0  0  0  0
  182.3850  178.7030  141.2770 C   0  0  0  0  0  0  0  0  0  0  0  0
  180.1720  179.6890  141.4210 C   0  0  0  0  0  3  0  0  0  0  0  0
  181.4200  179.8120  139.3480 C   0  0  0  0  0  3  0  0  0  0  0  0
  189.3330  177.5590  145.0510 N   0  0  0  0  0  0  0  0  0  0  0  0
  188.5390  176.8750  144.2880 C   0  0  0  0  0  3  0  0  0  0  0  0
  191.4000  176.7480  146.1200 N   0  0  0  0  0  1  0  0  0  0  0  0
  189.3560  176.6650  147.2150 O   0  0  0  0  0  0  0  0  0  0  0  0
  189.9970  176.9770  146.1750 C   0  0  0  0  0  0  0  0  0  0  0  0
  1  2  1  0  0  0  0
  3  2  1  0  0  0  0
  3  7  1  1  0  0  0
  4  8  1  0  0  0  0
  5  9  1  0  0  0  0
  6 13  1  6  0  0  0
  6  3  1  0  0  0  0
  8  5  1  0  0  0  0
  8 12  2  0  0  0  0
  9  6  1  0  0  0  0
  9  1  1  0  0  0  0
 10  5  2  0  0  0  0
 11  1  2  0  0  0  0
 11 23  1  0  0  0  0
 12 11  1  0  0  0  0
 13 14  1  6  0  0  0
 15 16  1  0  0  0  0
 16 20  1  0  0  0  0
 18 19  2  0  0  0  0
 19 13  1  0  0  0  0
 19 17  1  0  0  0  0
 20 17  2  0  0  0  0
 21 18  1  0  0  0  0
 21 16  2  0  0  0  0
 22 26  1  0  0  0  0
 23 22  2  0  0  0  0
 24 26  1  0  0  0  0
 26 25  2  0  0  0  0
M  END
>  <MODEL>
7

>  <REMARK>
 VINA RESULT:      -7.1      5.132      7.398
  Name = 
  4 active torsions:
  status: ('A' for Active; 'I' for Inactive)
    1  A    between atoms: C_8  and  C_11
    2  A    between atoms: C_8  and  C_15
    3  A    between atoms: N_22  and  C_25
    4  A    between atoms: C_23  and  C_24
                            x       y       z     vdW  Elec       q    Type
                         _______ _______ _______ _____ _____    ______ ____

>  <TORSDO>
F 4

$$$$
=
 OpenBabel11062417003D

 26 28  0  0  1  0  0  0  0  0999 V2000
  188.5360  177.5670  145.1330 C   0  0  0  0  0  0  0  0  0  0  0  0
  189.7140  177.1180  144.3580 C   0  0  0  0  0  2  0  0  0  0  0  0
  189.1130  176.7640  142.9960 C   0  0  2  0  0  3  0  0  0  0  0  0
  184.8660  178.5040  146.9270 N   0  0  0  0  0  1  0  0  0  0  0  0
  186.1970  177.9200  144.9410 C   0  0  0  0  0  0  0  0  0  0  0  0
  187.6830  177.3310  142.9910 C   0  0  1  0  0  3  0  0  0  0  0  0
  189.0590  175.2560  142.8430 C   0  0  0  0  0  1  0  0  0  0  0  0
  186.1150  178.1980  146.3140 C   0  0  0  0  0  0  0  0  0  0  0  0
  187.4170  177.6540  144.3880 N   0  0  0  0  0  0  0  0  0  0  0  0
  185.1520  177.9010  144.2350 O   0  0  0  0  0  0  0  0  0  0  0  0
  188.5100  177.8290  146.5080 C   0  0  0  0  0  0  0  0  0  0  0  0
  187.2780  178.1550  147.0920 C   0  0  0  0  0  3  0  0  0  0  0  0
  187.6590  178.5970  142.1170 C   0  0  2  0  0  3  0  0  0  0  0  0
  186.3860  179.1690  142.0850 O   0  0  0  0  0  1  0  0  0  0  0  0
  189.4260  177.4720  136.4440 Cl  0  0  0  0  0  0  0  0  0  0  0  0
  188.9210  177.7940  138.0880 C   0  0  0  0  0  0  0  0  0  0  0  0
  189.4680  178.1080  140.4250 C   0  0  0  0  0  3  0  0  0  0  0  0
  187.1640  178.2530  139.6900 C   0  0  0  0  0  3  0  0  0  0  0  0
  188.1110  178.3110  140.7180 C   0  0  0  0  0  0  0  0  0  0  0  0
  189.8710  177.8500  139.1120 C   0  0  0  0  0  3  0  0  0  0  0  0
  187.5680  177.9950  138.3760 C   0  0  0  0  0  3  0  0  0  0  0  0
  190.5810  176.7750  147.1650 N   0  0  0  0  0  0  0  0  0  0  0  0
  189.7370  177.7470  147.3140 C   0  0  0  0  0  3  0  0  0  0  0  0
  192.6730  175.5980  147.7170 N   0  0  0  0  0  1  0  0  0  0  0  0
  192.0520  177.5450  148.8150 O   0  0  0  0  0  0  0  0  0  0  0  0
  191.7780  176.6810  147.9390 C   0  0  0  0  0  0  0  0  0  0  0  0
  1 11  2  0  0  0  0
  2  1  1  0  0  0  0
  3  7  1  1  0  0  0
  3  2  1  0  0  0  0
  5  8  1  0  0  0  0
  6 13  1  6  0  0  0
  6  3  1  0  0  0  0
  6  9  1  0  0  0  0
  8  4  1  0  0  0  0
  8 12  2  0  0  0  0
  9  5  1  0  0  0  0
  9  1  1  0  0  0  0
 10  5  2  0  0  0  0
 11 12  1  0  0  0  0
 11 23  1  0  0  0  0
 13 14  1  6  0  0  0
 15 16  1  0  0  0  0
 16 21  2  0  0  0  0
 16 20  1  0  0  0  0
 17 19  1  0  0  0  0
 18 19  2  0  0  0  0
 19 13  1  0  0  0  0
 20 17  2  0  0  0  0
 21 18  1  0  0  0  0
 22 23  2  0  0  0  0
 22 26  1  0  0  0  0
 24 26  1  0  0  0  0
 26 25  2  0  0  0  0
M  END
>  <MODEL>
8

>  <REMARK>
 VINA RESULT:      -7.0      4.579      7.439
  Name = 
  4 active torsions:
  status: ('A' for Active; 'I' for Inactive)
    1  A    between atoms: C_8  and  C_11
    2  A    between atoms: C_8  and  C_15
    3  A    between atoms: N_22  and  C_25
    4  A    between atoms: C_23  and  C_24
                            x       y       z     vdW  Elec       q    Type
                         _______ _______ _______ _____ _____    ______ ____

>  <TORSDO>
F 4

$$$$
=
 OpenBabel11062417003D

 26 28  0  0  1  0  0  0  0  0999 V2000
  187.7180  178.0730  141.6850 C   0  0  0  0  0  0  0  0  0  0  0  0
  186.7680  178.5500  142.7160 C   0  0  0  0  0  2  0  0  0  0  0  0
  187.2820  177.8790  143.9920 C   0  0  2  0  0  3  0  0  0  0  0  0
  190.5130  176.2480  139.1540 N   0  0  0  0  0  1  0  0  0  0  0  0
  189.6540  176.7290  141.4080 C   0  0  0  0  0  0  0  0  0  0  0  0
  188.6730  177.3140  143.6560 C   0  0  1  0  0  3  0  0  0  0  0  0
  186.3540  176.7420  144.3740 C   0  0  0  0  0  1  0  0  0  0  0  0
  189.5710  176.8780  140.0150 C   0  0  0  0  0  0  0  0  0  0  0  0
  188.7450  177.3690  142.2010 N   0  0  0  0  0  0  0  0  0  0  0  0
  190.5490  176.0000  141.9160 O   0  0  0  0  0  0  0  0  0  0  0  0
  187.5830  178.2480  140.3030 C   0  0  0  0  0  0  0  0  0  0  0  0
  188.5340  177.6430  139.4690 C   0  0  0  0  0  3  0  0  0  0  0  0
  189.7390  178.2200  144.2960 C   0  0  2  0  0  3  0  0  0  0  0  0
  190.6290  178.7120  143.3400 O   0  0  0  0  0  1  0  0  0  0  0  0
  192.7710  175.3290  148.6580 Cl  0  0  0  0  0  0  0  0  0  0  0  0
  191.8990  176.1640  147.3920 C   0  0  0  0  0  0  0  0  0  0  0  0
  191.5390  176.6130  145.0400 C   0  0  0  0  0  3  0  0  0  0  0  0
  190.1710  177.7170  146.7080 C   0  0  0  0  0  3  0  0  0  0  0  0
  190.5040  177.5020  145.3650 C   0  0  0  0  0  0  0  0  0  0  0  0
  192.2360  175.9460  146.0520 C   0  0  0  0  0  3  0  0  0  0  0  0
  190.8680  177.0500  147.7190 C   0  0  0  0  0  3  0  0  0  0  0  0
  185.3010  178.4990  139.5550 N   0  0  0  0  0  0  0  0  0  0  0  0
  186.4690  179.0280  139.7470 C   0  0  0  0  0  3  0  0  0  0  0  0
  183.1350  178.5560  138.3830 N   0  0  0  0  0  1  0  0  0  0  0  0
  184.1790  180.5020  139.0930 O   0  0  0  0  0  0  0  0  0  0  0  0
  184.2070  179.2440  139.0150 C   0  0  0  0  0  0  0  0  0  0  0  0
  1  9  1  0  0  0  0
  1  2  1  0  0  0  0
  2  3  1  0  0  0  0
  3  7  1  6  0  0  0
  4  8  1  0  0  0  0
  5 10  2  0  0  0  0
  5  9  1  0  0  0  0
  6  3  1  0  0  0  0
  6 13  1  1  0  0  0
  8  5  1  0  0  0  0
  9  6  1  0  0  0  0
 11  1  2  0  0  0  0
 12  8  2  0  0  0  0
 12 11  1  0  0  0  0
 13 14  1  6  0  0  0
 13 19  1  0  0  0  0
 16 21  1  0  0  0  0
 16 15  1  0  0  0  0
 17 19  2  0  0  0  0
 17 20  1  0  0  0  0
 18 21  2  0  0  0  0
 19 18  1  0  0  0  0
 20 16  2  0  0  0  0
 22 23  2  0  0  0  0
 23 11  1  0  0  0  0
 24 26  1  0  0  0  0
 26 25  2  0  0  0  0
 26 22  1  0  0  0  0
M  END
>  <MODEL>
9

>  <REMARK>
 VINA RESULT:      -7.0      2.763      5.202
  Name = 
  4 active torsions:
  status: ('A' for Active; 'I' for Inactive)
    1  A    between atoms: C_8  and  C_11
    2  A    between atoms: C_8  and  C_15
    3  A    between atoms: N_22  and  C_25
    4  A    between atoms: C_23  and  C_24
                            x       y       z     vdW  Elec       q    Type
                         _______ _______ _______ _____ _____    ______ ____

>  <TORSDO>
F 4

$$$$
