=
 OpenBabel11062415073D

 55 59  0  0  1  0  0  0  0  0999 V2000
  185.6870  174.7690  135.5670 C   0  0  1  0  0  3  0  0  0  0  0  0
  184.9970  178.3920  138.7660 O   0  0  0  0  0  0  0  0  0  0  0  0
  187.0610  174.8660  135.0490 N   0  0  0  0  0  2  0  0  0  0  0  0
  187.7240  176.1210  135.4370 C   0  0  0  0  0  2  0  0  0  0  0  0
  184.1650  177.2770  139.0190 C   0  0  0  0  0  2  0  0  0  0  0  0
  182.3710  177.4570  136.5880 N   0  0  0  0  0  0  0  0  0  0  0  0
  180.6330  178.0760  138.0040 F   0  0  0  0  0  0  0  0  0  0  0  0
  182.1130  175.2580  137.3700 O   0  0  0  0  0  0  0  0  0  0  0  0
  183.2890  175.4670  135.3590 N   0  0  0  0  0  2  0  0  0  0  0  0
  184.6680  175.7650  134.9130 C   0  0  1  0  0  3  0  0  0  0  0  0
  185.4070  177.2960  136.6450 C   0  0  1  0  0  3  0  0  0  0  0  0
  182.3410  179.5020  137.7310 F   0  0  0  0  0  0  0  0  0  0  0  0
  182.6000  176.0330  136.4970 C   0  0  0  0  0  0  0  0  0  0  0  0
  182.6740  177.6070  139.1120 C   0  0  0  0  0  2  0  0  0  0  0  0
  187.5320  177.4030  137.7050 C   0  0  2  0  0  3  0  0  0  0  0  0
  182.1450  178.1820  135.3360 C   0  0  0  0  0  1  0  0  0  0  0  0
  188.2310  176.2000  136.9150 C   0  0  1  0  0  0  0  0  0  0  0  0
  187.9100  175.0080  137.5840 O   0  0  0  0  0  1  0  0  0  0  0  0
  182.0040  178.1590  137.8370 C   0  0  0  0  0  0  0  0  0  0  0  0
  186.5570  178.2300  136.8420 C   0  0  2  0  0  3  0  0  0  0  0  0
  185.1420  178.5850  137.3670 C   0  0  2  0  0  3  0  0  0  0  0  0
  185.0260  177.2320  135.1910 C   0  0  0  0  0  2  0  0  0  0  0  0
  191.5890  175.1470  135.6390 C   0  0  1  0  0  3  0  0  0  0  0  0
  190.4790  176.1290  135.5800 C   0  0  0  0  0  0  0  0  0  0  0  0
  189.7920  176.3570  136.8910 C   0  0  2  0  0  3  0  0  0  0  0  0
  191.7270  174.8120  137.1160 C   0  0  0  0  0  2  0  0  0  0  0  0
  190.2750  176.8150  134.5950 O   0  0  0  0  0  0  0  0  0  0  0  0
  190.4860  175.3620  137.8330 C   0  0  0  0  0  2  0  0  0  0  0  0
  191.0600  172.7810  135.6110 O   0  0  0  0  0  1  0  0  0  0  0  0
  191.2890  173.9020  134.8000 C   0  0  0  0  0  2  0  0  0  0  0  0
  188.5060  178.3500  138.4310 C   0  0  0  0  0  2  0  0  0  0  0  0
  188.6690  178.0410  139.8830 C   0  0  0  0  0  0  0  0  0  0  0  0
  189.8330  178.0060  140.3690 O   0  0  0  0  0  0  0  0  0  0  0  0
  187.5470  177.7650  140.6780 O   0  0  0  0  0  0  0  0  0  0  0  0
  187.5130  178.0310  142.0860 C   0  0  2  0  0  3  0  0  0  0  0  0
  187.6030  176.1390  143.5490 O   0  0  0  0  0  1  0  0  0  0  0  0
  188.4020  177.0390  142.8400 C   0  0  2  0  0  3  0  0  0  0  0  0
  189.3530  177.7430  143.7990 C   0  0  0  0  0  1  0  0  0  0  0  0
  186.0840  177.9720  142.6360 C   0  0  0  0  0  2  0  0  0  0  0  0
  185.1260  179.7710  141.3900 O   0  0  0  0  0  1  0  0  0  0  0  0
  185.4340  179.3560  142.6930 C   0  0  1  0  0  3  0  0  0  0  0  0
  184.1520  179.3230  143.5210 C   0  0  0  0  0  2  0  0  0  0  0  0
  183.5460  178.9180  145.7910 O   0  0  0  0  0  0  0  0  0  0  0  0
  185.8430  178.9950  145.3740 N   0  0  0  0  0  2  0  0  0  0  0  0
  184.4780  179.0660  144.9550 C   0  0  0  0  0  0  0  0  0  0  0  0
  186.2080  178.8790  146.7670 C   0  0  0  0  0  2  0  0  0  0  0  0
  187.1380  177.7000  146.9570 C   0  0  0  0  0  1  0  0  0  0  0  0
  185.2000  173.3230  135.4980 C   0  0  0  0  0  2  0  0  0  0  0  0
  185.1610  172.6670  136.8690 C   0  0  0  0  0  2  0  0  0  0  0  0
  183.8600  172.7150  137.3700 O   0  0  0  0  0  0  0  0  0  0  0  0
  181.6610  171.6530  137.0400 C   0  0  0  0  0  2  0  0  0  0  0  0
  183.1550  171.6610  136.7620 C   0  0  0  0  0  0  0  0  0  0  0  0
  182.1850  172.0440  135.6580 C   0  0  0  0  0  2  0  0  0  0  0  0
  183.7650  170.3970  136.6430 O   0  0  0  0  0  0  0  0  0  0  0  0
  183.3450  169.8660  135.4230 C   0  0  0  0  0  1  0  0  0  0  0  0
  1 48  1  6  0  0  0
  2  5  1  0  0  0  0
  3  4  1  0  0  0  0
  3  1  1  0  0  0  0
  4 17  1  0  0  0  0
  5 14  1  0  0  0  0
  6 19  1  0  0  0  0
  9 13  1  0  0  0  0
 10 22  1  1  0  0  0
 10  9  1  0  0  0  0
 10  1  1  0  0  0  0
 11 22  1  6  0  0  0
 11 20  1  0  0  0  0
 11 21  1  0  0  0  0
 12 19  1  0  0  0  0
 13  6  1  0  0  0  0
 13  8  2  0  0  0  0
 15 31  1  6  0  0  0
 16  6  1  0  0  0  0
 17 18  1  1  0  0  0
 17 15  1  0  0  0  0
 19  7  1  0  0  0  0
 19 14  1  0  0  0  0
 20 21  1  0  0  0  0
 20 15  1  0  0  0  0
 21  2  1  0  0  0  0
 23 26  1  0  0  0  0
 24 23  1  0  0  0  0
 24 25  1  0  0  0  0
 25 17  1  0  0  0  0
 25 28  1  0  0  0  0
 26 28  1  0  0  0  0
 27 24  2  0  0  0  0
 30 29  1  0  0  0  0
 30 23  1  0  0  0  0
 31 32  1  0  0  0  0
 32 33  2  0  0  0  0
 32 34  1  0  0  0  0
 34 35  1  0  0  0  0
 35 39  1  0  0  0  0
 35 37  1  0  0  0  0
 37 36  1  0  0  0  0
 37 38  1  0  0  0  0
 39 41  1  0  0  0  0
 40 41  1  0  0  0  0
 41 42  1  0  0  0  0
 42 45  1  0  0  0  0
 44 46  1  0  0  0  0
 45 44  1  0  0  0  0
 45 43  2  0  0  0  0
 46 47  1  0  0  0  0
 48 49  1  0  0  0  0
 49 50  1  0  0  0  0
 52 51  1  0  0  0  0
 52 50  1  0  0  0  0
 53 52  1  0  0  0  0
 53 51  1  0  0  0  0
 54 52  1  0  0  0  0
 55 54  1  0  0  0  0
M  END
>  <MODEL>
1

>  <REMARK>
 VINA RESULT:      -6.2      0.000      0.000
  Name = 
  17 active torsions:
  status: ('A' for Active; 'I' for Inactive)
    1  A    between atoms: C_3  and  C_35
    2  A    between atoms: C_3  and  C_54
    3  A    between atoms: C_4  and  C_37
    4  A    between atoms: C_5  and  C_43
    5  A    between atoms: O_7  and  C_33
    6  A    between atoms: C_9  and  C_14
    7  A    between atoms: C_9  and  C_29
    8  A    between atoms: C_14  and  O_28
    9  A    between atoms: C_16  and  C_49
   10  A    between atoms: C_27  and  O_32
   11  A    between atoms: C_27  and  C_37
   12  A    between atoms: O_28  and  C_43
   13  A    between atoms: C_31  and  C_39
   14  A    between atoms: O_32  and  C_33
   15  A    between atoms: C_35  and  C_44
   16  A    between atoms: C_36  and  N_51
   17  A    between atoms: C_43  and  C_44
                            x       y       z     vdW  Elec       q    Type
                         _______ _______ _______ _____ _____    ______ ____

>  <TORSDO>
F 17

$$$$
=
 OpenBabel11062415073D

 55 59  0  0  1  0  0  0  0  0999 V2000
  185.0900  175.1840  135.6890 C   0  0  1  0  0  3  0  0  0  0  0  0
  184.3450  178.1450  139.4980 O   0  0  0  0  0  0  0  0  0  0  0  0
  186.4250  175.4660  135.1390 N   0  0  0  0  0  2  0  0  0  0  0  0
  187.0280  176.6800  135.7120 C   0  0  0  0  0  2  0  0  0  0  0  0
  183.6000  176.9470  139.5870 C   0  0  0  0  0  2  0  0  0  0  0  0
  181.6710  177.4140  137.3010 N   0  0  0  0  0  0  0  0  0  0  0  0
  179.9750  177.6550  138.8750 F   0  0  0  0  0  0  0  0  0  0  0  0
  181.5940  175.1000  137.6960 O   0  0  0  0  0  0  0  0  0  0  0  0
  182.6450  175.7350  135.7060 N   0  0  0  0  0  2  0  0  0  0  0  0
  183.9770  176.2020  135.2620 C   0  0  1  0  0  3  0  0  0  0  0  0
  184.7090  177.4610  137.2030 C   0  0  1  0  0  3  0  0  0  0  0  0
  181.5730  179.2240  138.7850 F   0  0  0  0  0  0  0  0  0  0  0  0
  181.9840  176.0460  136.9530 C   0  0  0  0  0  0  0  0  0  0  0  0
  182.0980  177.1500  139.7970 C   0  0  0  0  0  2  0  0  0  0  0  0
  186.8770  177.5370  138.1750 C   0  0  2  0  0  3  0  0  0  0  0  0
  181.3330  178.3250  136.2060 C   0  0  0  0  0  1  0  0  0  0  0  0
  187.6080  176.5400  137.1590 C   0  0  1  0  0  0  0  0  0  0  0  0
  187.3980  175.2310  137.6210 O   0  0  0  0  0  1  0  0  0  0  0  0
  181.3280  177.8630  138.6680 C   0  0  0  0  0  0  0  0  0  0  0  0
  185.8080  178.4280  137.5120 C   0  0  2  0  0  3  0  0  0  0  0  0
  184.4030  178.5850  138.1500 C   0  0  2  0  0  3  0  0  0  0  0  0
  184.2560  177.6220  135.7770 C   0  0  0  0  0  2  0  0  0  0  0  0
  190.9710  175.8700  135.6590 C   0  0  1  0  0  3  0  0  0  0  0  0
  189.7960  176.7710  135.7460 C   0  0  0  0  0  0  0  0  0  0  0  0
  189.1520  176.8090  137.0970 C   0  0  2  0  0  3  0  0  0  0  0  0
  191.1940  175.3910  137.0850 C   0  0  0  0  0  2  0  0  0  0  0  0
  189.5060  177.5420  134.8490 O   0  0  0  0  0  0  0  0  0  0  0  0
  189.9500  175.7720  137.9000 C   0  0  0  0  0  2  0  0  0  0  0  0
  191.1100  173.4820  135.2680 O   0  0  0  0  0  1  0  0  0  0  0  0
  190.7210  174.7030  134.7010 C   0  0  0  0  0  2  0  0  0  0  0  0
  187.8270  178.4120  139.0150 C   0  0  0  0  0  2  0  0  0  0  0  0
  187.5490  178.3590  140.4810 C   0  0  0  0  0  0  0  0  0  0  0  0
  186.7280  179.1820  140.9730 O   0  0  0  0  0  0  0  0  0  0  0  0
  188.2170  177.4330  141.2950 O   0  0  0  0  0  0  0  0  0  0  0  0
  189.3830  177.7710  142.0560 C   0  0  2  0  0  3  0  0  0  0  0  0
  191.1550  176.4140  142.9200 O   0  0  0  0  0  1  0  0  0  0  0  0
  190.5280  176.8070  141.7350 C   0  0  2  0  0  3  0  0  0  0  0  0
  191.5530  177.4340  140.7990 C   0  0  0  0  0  1  0  0  0  0  0  0
  189.0980  177.7580  143.5610 C   0  0  0  0  0  2  0  0  0  0  0  0
  187.6860  175.8340  143.6590 O   0  0  0  0  0  1  0  0  0  0  0  0
  187.7010  177.2180  143.8740 C   0  0  1  0  0  3  0  0  0  0  0  0
  187.3200  177.5010  145.3260 C   0  0  0  0  0  2  0  0  0  0  0  0
  185.5270  178.5680  146.4800 O   0  0  0  0  0  0  0  0  0  0  0  0
  185.5710  178.9180  144.1710 N   0  0  0  0  0  2  0  0  0  0  0  0
  186.0960  178.3530  145.3760 C   0  0  0  0  0  0  0  0  0  0  0  0
  184.3200  179.6390  144.1490 C   0  0  0  0  0  2  0  0  0  0  0  0
  183.1840  178.6870  143.8410 C   0  0  0  0  0  1  0  0  0  0  0  0
  184.6920  173.7400  135.3880 C   0  0  0  0  0  2  0  0  0  0  0  0
  184.3810  172.9580  136.6530 C   0  0  0  0  0  2  0  0  0  0  0  0
  184.4980  171.5920  136.3960 O   0  0  0  0  0  0  0  0  0  0  0  0
  183.3790  170.3390  134.5940 C   0  0  0  0  0  2  0  0  0  0  0  0
  183.2680  171.1760  135.8570 C   0  0  0  0  0  0  0  0  0  0  0  0
  182.9720  169.6890  135.9150 C   0  0  0  0  0  2  0  0  0  0  0  0
  182.1540  172.0360  135.9280 O   0  0  0  0  0  0  0  0  0  0  0  0
  181.2520  171.4450  136.8140 C   0  0  0  0  0  1  0  0  0  0  0  0
  1 48  1  6  0  0  0
  2  5  1  0  0  0  0
  3  1  1  0  0  0  0
  3  4  1  0  0  0  0
  4 17  1  0  0  0  0
  5 14  1  0  0  0  0
  6 19  1  0  0  0  0
  9 13  1  0  0  0  0
 10  1  1  0  0  0  0
 10  9  1  0  0  0  0
 10 22  1  1  0  0  0
 11 22  1  6  0  0  0
 11 20  1  0  0  0  0
 11 21  1  0  0  0  0
 13  6  1  0  0  0  0
 13  8  2  0  0  0  0
 15 31  1  6  0  0  0
 16  6  1  0  0  0  0
 17 18  1  1  0  0  0
 17 15  1  0  0  0  0
 19 12  1  0  0  0  0
 19  7  1  0  0  0  0
 19 14  1  0  0  0  0
 20 21  1  0  0  0  0
 20 15  1  0  0  0  0
 21  2  1  0  0  0  0
 23 24  1  0  0  0  0
 23 26  1  0  0  0  0
 24 25  1  0  0  0  0
 25 17  1  0  0  0  0
 25 28  1  0  0  0  0
 26 28  1  0  0  0  0
 27 24  2  0  0  0  0
 30 29  1  0  0  0  0
 30 23  1  0  0  0  0
 31 32  1  0  0  0  0
 32 33  2  0  0  0  0
 32 34  1  0  0  0  0
 34 35  1  0  0  0  0
 35 39  1  0  0  0  0
 37 35  1  0  0  0  0
 37 36  1  0  0  0  0
 38 37  1  0  0  0  0
 39 41  1  0  0  0  0
 40 41  1  0  0  0  0
 41 42  1  0  0  0  0
 42 45  1  0  0  0  0
 44 45  1  0  0  0  0
 45 43  2  0  0  0  0
 46 44  1  0  0  0  0
 47 46  1  0  0  0  0
 48 49  1  0  0  0  0
 50 49  1  0  0  0  0
 51 52  1  0  0  0  0
 51 53  1  0  0  0  0
 52 53  1  0  0  0  0
 52 54  1  0  0  0  0
 52 50  1  0  0  0  0
 54 55  1  0  0  0  0
M  END
>  <MODEL>
2

>  <REMARK>
 VINA RESULT:      -6.1      1.247      2.024
  Name = 
  17 active torsions:
  status: ('A' for Active; 'I' for Inactive)
    1  A    between atoms: C_3  and  C_35
    2  A    between atoms: C_3  and  C_54
    3  A    between atoms: C_4  and  C_37
    4  A    between atoms: C_5  and  C_43
    5  A    between atoms: O_7  and  C_33
    6  A    between atoms: C_9  and  C_14
    7  A    between atoms: C_9  and  C_29
    8  A    between atoms: C_14  and  O_28
    9  A    between atoms: C_16  and  C_49
   10  A    between atoms: C_27  and  O_32
   11  A    between atoms: C_27  and  C_37
   12  A    between atoms: O_28  and  C_43
   13  A    between atoms: C_31  and  C_39
   14  A    between atoms: O_32  and  C_33
   15  A    between atoms: C_35  and  C_44
   16  A    between atoms: C_36  and  N_51
   17  A    between atoms: C_43  and  C_44
                            x       y       z     vdW  Elec       q    Type
                         _______ _______ _______ _____ _____    ______ ____

>  <TORSDO>
F 17

$$$$
=
 OpenBabel11062415073D

 55 59  0  0  1  0  0  0  0  0999 V2000
  185.0100  175.8490  135.6640 C   0  0  1  0  0  3  0  0  0  0  0  0
  182.6670  177.3500  139.6760 O   0  0  0  0  0  0  0  0  0  0  0  0
  186.2100  176.6820  135.4910 N   0  0  0  0  0  2  0  0  0  0  0  0
  186.2280  177.8420  136.3950 C   0  0  0  0  0  2  0  0  0  0  0  0
  182.4160  175.9910  139.3760 C   0  0  0  0  0  2  0  0  0  0  0  0
  180.8100  176.3530  136.8350 N   0  0  0  0  0  0  0  0  0  0  0  0
  178.9340  175.6220  138.0010 F   0  0  0  0  0  0  0  0  0  0  0  0
  181.5410  174.1220  136.7780 O   0  0  0  0  0  0  0  0  0  0  0  0
  182.5610  175.5420  135.2260 N   0  0  0  0  0  2  0  0  0  0  0  0
  183.6740  176.5160  135.1870 C   0  0  1  0  0  3  0  0  0  0  0  0
  183.5930  177.4200  137.4380 C   0  0  1  0  0  3  0  0  0  0  0  0
  179.8300  177.5990  138.5600 F   0  0  0  0  0  0  0  0  0  0  0  0
  181.6560  175.2970  136.3260 C   0  0  0  0  0  0  0  0  0  0  0  0
  180.9330  175.6290  139.2730 C   0  0  0  0  0  2  0  0  0  0  0  0
  185.4090  177.9580  138.8740 C   0  0  2  0  0  3  0  0  0  0  0  0
  180.3230  177.3450  135.8750 C   0  0  0  0  0  1  0  0  0  0  0  0
  186.5980  177.5450  137.8870 C   0  0  1  0  0  0  0  0  0  0  0  0
  186.8240  176.1680  138.0460 O   0  0  0  0  0  1  0  0  0  0  0  0
  180.1280  176.3070  138.1470 C   0  0  0  0  0  0  0  0  0  0  0  0
  184.1950  178.5840  138.1570 C   0  0  2  0  0  3  0  0  0  0  0  0
  182.7550  178.1060  138.4780 C   0  0  2  0  0  3  0  0  0  0  0  0
  183.3270  177.7730  136.0000 C   0  0  0  0  0  2  0  0  0  0  0  0
  190.3340  177.6620  138.0820 C   0  0  1  0  0  3  0  0  0  0  0  0
  189.1060  178.0510  137.3470 C   0  0  0  0  0  0  0  0  0  0  0  0
  187.9230  178.3130  138.2260 C   0  0  2  0  0  3  0  0  0  0  0  0
  189.9670  177.8120  139.5500 C   0  0  0  0  0  2  0  0  0  0  0  0
  189.1210  178.3100  136.1570 O   0  0  0  0  0  0  0  0  0  0  0  0
  188.4430  177.9740  139.6300 C   0  0  0  0  0  2  0  0  0  0  0  0
  192.1500  176.0660  137.8960 O   0  0  0  0  0  1  0  0  0  0  0  0
  190.7650  176.2310  137.7480 C   0  0  0  0  0  2  0  0  0  0  0  0
  185.8310  178.8580  140.0510 C   0  0  0  0  0  2  0  0  0  0  0  0
  185.2860  178.4150  141.3680 C   0  0  0  0  0  0  0  0  0  0  0  0
  184.4320  177.4860  141.3900 O   0  0  0  0  0  0  0  0  0  0  0  0
  185.6950  179.0470  142.5510 O   0  0  0  0  0  0  0  0  0  0  0  0
  185.5920  178.4220  143.8370 C   0  0  2  0  0  3  0  0  0  0  0  0
  184.6320  178.7330  146.0080 O   0  0  0  0  0  1  0  0  0  0  0  0
  184.4810  179.0770  144.6620 C   0  0  2  0  0  3  0  0  0  0  0  0
  183.0960  178.6620  144.1810 C   0  0  0  0  0  1  0  0  0  0  0  0
  186.9170  178.4870  144.6040 C   0  0  0  0  0  2  0  0  0  0  0  0
  187.1370  176.3580  143.5440 O   0  0  0  0  0  1  0  0  0  0  0  0
  187.8660  177.3560  144.2030 C   0  0  1  0  0  3  0  0  0  0  0  0
  188.9630  177.8700  143.2730 C   0  0  0  0  0  2  0  0  0  0  0  0
  191.3120  177.5390  143.0390 O   0  0  0  0  0  0  0  0  0  0  0  0
  190.4330  176.9860  145.1320 N   0  0  0  0  0  2  0  0  0  0  0  0
  190.3020  177.4640  143.7900 C   0  0  0  0  0  0  0  0  0  0  0  0
  191.6810  176.4600  145.6360 C   0  0  0  0  0  2  0  0  0  0  0  0
  191.6380  176.3980  147.1470 C   0  0  0  0  0  1  0  0  0  0  0  0
  185.2250  174.4780  135.0260 C   0  0  0  0  0  2  0  0  0  0  0  0
  186.1440  173.5990  135.8570 C   0  0  0  0  0  2  0  0  0  0  0  0
  187.1430  173.0670  135.0410 O   0  0  0  0  0  0  0  0  0  0  0  0
  189.0210  173.0720  136.6360 C   0  0  0  0  0  2  0  0  0  0  0  0
  187.9690  172.2880  135.8700 C   0  0  0  0  0  0  0  0  0  0  0  0
  187.8110  172.4920  137.3660 C   0  0  0  0  0  2  0  0  0  0  0  0
  188.3470  170.9960  135.4550 O   0  0  0  0  0  0  0  0  0  0  0  0
  187.3440  170.5450  134.5960 C   0  0  0  0  0  1  0  0  0  0  0  0
  1 48  1  6  0  0  0
  3  1  1  0  0  0  0
  3  4  1  0  0  0  0
  4 17  1  0  0  0  0
  5  2  1  0  0  0  0
  6 19  1  0  0  0  0
  7 19  1  0  0  0  0
  9 13  1  0  0  0  0
 10  9  1  0  0  0  0
 10  1  1  0  0  0  0
 10 22  1  1  0  0  0
 11 22  1  6  0  0  0
 11 20  1  0  0  0  0
 11 21  1  0  0  0  0
 13  8  2  0  0  0  0
 13  6  1  0  0  0  0
 14  5  1  0  0  0  0
 15 31  1  1  0  0  0
 16  6  1  0  0  0  0
 17 18  1  1  0  0  0
 17 25  1  0  0  0  0
 17 15  1  0  0  0  0
 19 12  1  0  0  0  0
 19 14  1  0  0  0  0
 20 21  1  0  0  0  0
 20 15  1  0  0  0  0
 21  2  1  0  0  0  0
 23 26  1  0  0  0  0
 24 23  1  0  0  0  0
 24 25  1  0  0  0  0
 25 28  1  0  0  0  0
 26 28  1  0  0  0  0
 27 24  2  0  0  0  0
 30 29  1  0  0  0  0
 30 23  1  0  0  0  0
 31 32  1  0  0  0  0
 32 33  2  0  0  0  0
 32 34  1  0  0  0  0
 34 35  1  0  0  0  0
 35 39  1  0  0  0  0
 35 37  1  0  0  0  0
 37 36  1  0  0  0  0
 38 37  1  0  0  0  0
 40 41  1  0  0  0  0
 41 39  1  0  0  0  0
 42 45  1  0  0  0  0
 42 41  1  0  0  0  0
 43 45  2  0  0  0  0
 44 46  1  0  0  0  0
 45 44  1  0  0  0  0
 46 47  1  0  0  0  0
 48 49  1  0  0  0  0
 50 49  1  0  0  0  0
 50 52  1  0  0  0  0
 51 53  1  0  0  0  0
 52 51  1  0  0  0  0
 52 53  1  0  0  0  0
 54 52  1  0  0  0  0
 55 54  1  0  0  0  0
M  END
>  <MODEL>
3

>  <REMARK>
 VINA RESULT:      -5.5      2.158      3.801
  Name = 
  17 active torsions:
  status: ('A' for Active; 'I' for Inactive)
    1  A    between atoms: C_3  and  C_35
    2  A    between atoms: C_3  and  C_54
    3  A    between atoms: C_4  and  C_37
    4  A    between atoms: C_5  and  C_43
    5  A    between atoms: O_7  and  C_33
    6  A    between atoms: C_9  and  C_14
    7  A    between atoms: C_9  and  C_29
    8  A    between atoms: C_14  and  O_28
    9  A    between atoms: C_16  and  C_49
   10  A    between atoms: C_27  and  O_32
   11  A    between atoms: C_27  and  C_37
   12  A    between atoms: O_28  and  C_43
   13  A    between atoms: C_31  and  C_39
   14  A    between atoms: O_32  and  C_33
   15  A    between atoms: C_35  and  C_44
   16  A    between atoms: C_36  and  N_51
   17  A    between atoms: C_43  and  C_44
                            x       y       z     vdW  Elec       q    Type
                         _______ _______ _______ _____ _____    ______ ____

>  <TORSDO>
F 17

$$$$
=
 OpenBabel11062415073D

 55 59  0  0  1  0  0  0  0  0999 V2000
  187.4360  177.8870  140.3230 C   0  0  1  0  0  3  0  0  0  0  0  0
  183.5070  176.4820  137.7900 O   0  0  0  0  0  0  0  0  0  0  0  0
  187.0280  178.9490  141.2570 N   0  0  0  0  0  2  0  0  0  0  0  0
  185.6660  179.4380  140.9960 C   0  0  0  0  0  2  0  0  0  0  0  0
  184.4800  175.4610  137.8950 C   0  0  0  0  0  2  0  0  0  0  0  0
  186.6480  176.6880  136.1760 N   0  0  0  0  0  0  0  0  0  0  0  0
  186.2310  175.0340  134.5940 F   0  0  0  0  0  0  0  0  0  0  0  0
  187.7450  175.0600  137.4650 O   0  0  0  0  0  0  0  0  0  0  0  0
  188.2390  177.2750  138.0290 N   0  0  0  0  0  2  0  0  0  0  0  0
  187.6550  178.3620  138.8450 C   0  0  1  0  0  3  0  0  0  0  0  0
  185.2820  177.9190  138.5970 C   0  0  1  0  0  3  0  0  0  0  0  0
  184.6520  176.5830  134.9550 F   0  0  0  0  0  0  0  0  0  0  0  0
  187.5240  176.2870  137.2540 C   0  0  0  0  0  0  0  0  0  0  0  0
  184.9160  174.8610  136.5570 C   0  0  0  0  0  2  0  0  0  0  0  0
  183.5790  178.0540  140.2500 C   0  0  2  0  0  3  0  0  0  0  0  0
  187.0210  177.8830  135.4170 C   0  0  0  0  0  1  0  0  0  0  0  0
  184.5000  178.5110  141.4760 C   0  0  1  0  0  0  0  0  0  0  0  0
  185.0360  177.3520  142.0600 O   0  0  0  0  0  1  0  0  0  0  0  0
  185.6260  175.8080  135.5690 C   0  0  0  0  0  0  0  0  0  0  0  0
  184.0100  178.6480  138.8930 C   0  0  2  0  0  3  0  0  0  0  0  0
  184.1380  177.7440  137.6400 C   0  0  2  0  0  3  0  0  0  0  0  0
  186.3630  178.8900  138.2050 C   0  0  0  0  0  2  0  0  0  0  0  0
  183.7490  179.2750  145.0620 C   0  0  1  0  0  3  0  0  0  0  0  0
  184.4010  179.7030  143.8010 C   0  0  0  0  0  0  0  0  0  0  0  0
  183.6730  179.2840  142.5620 C   0  0  2  0  0  3  0  0  0  0  0  0
  182.4350  178.6500  144.6230 C   0  0  0  0  0  2  0  0  0  0  0  0
  185.3380  180.4810  143.7900 O   0  0  0  0  0  0  0  0  0  0  0  0
  182.5060  178.4450  143.1030 C   0  0  0  0  0  2  0  0  0  0  0  0
  185.3060  178.9120  146.8850 O   0  0  0  0  0  1  0  0  0  0  0  0
  184.6170  178.2810  145.8400 C   0  0  0  0  0  2  0  0  0  0  0  0
  182.0700  178.2850  140.4560 C   0  0  0  0  0  2  0  0  0  0  0  0
  181.2100  177.4260  139.5890 C   0  0  0  0  0  0  0  0  0  0  0  0
  180.5930  177.9610  138.6260 O   0  0  0  0  0  0  0  0  0  0  0  0
  181.0680  176.0580  139.8660 O   0  0  0  0  0  0  0  0  0  0  0  0
  180.0050  175.2660  139.3230 C   0  0  2  0  0  3  0  0  0  0  0  0
  178.9790  175.7430  141.4330 O   0  0  0  0  0  1  0  0  0  0  0  0
  179.0880  174.7640  140.4420 C   0  0  2  0  0  3  0  0  0  0  0  0
  179.5990  173.4680  141.0580 C   0  0  0  0  0  1  0  0  0  0  0  0
  180.5410  174.0770  138.5180 C   0  0  0  0  0  2  0  0  0  0  0  0
  179.3980  175.3140  136.8240 O   0  0  0  0  0  1  0  0  0  0  0  0
  180.0420  174.0950  137.0720 C   0  0  1  0  0  3  0  0  0  0  0  0
  181.2030  173.9370  136.0930 C   0  0  0  0  0  2  0  0  0  0  0  0
  180.8630  171.6110  135.6930 O   0  0  0  0  0  0  0  0  0  0  0  0
  182.9910  172.1870  136.4660 N   0  0  0  0  0  2  0  0  0  0  0  0
  181.6580  172.5170  136.0650 C   0  0  0  0  0  0  0  0  0  0  0  0
  183.4370  170.8180  136.5810 C   0  0  0  0  0  2  0  0  0  0  0  0
  184.6640  170.6040  135.7220 C   0  0  0  0  0  1  0  0  0  0  0  0
  188.6530  177.1440  140.8730 C   0  0  0  0  0  2  0  0  0  0  0  0
  188.5360  176.8820  142.3650 C   0  0  0  0  0  2  0  0  0  0  0  0
  189.7280  176.3280  142.8340 O   0  0  0  0  0  0  0  0  0  0  0  0
  191.5610  177.4110  144.0740 C   0  0  0  0  0  2  0  0  0  0  0  0
  190.0860  177.0570  143.9820 C   0  0  0  0  0  0  0  0  0  0  0  0
  190.5280  178.4930  143.7600 C   0  0  0  0  0  2  0  0  0  0  0  0
  189.4420  176.7860  145.2050 O   0  0  0  0  0  0  0  0  0  0  0  0
  188.5720  177.8520  145.4400 C   0  0  0  0  0  1  0  0  0  0  0  0
  1 48  1  1  0  0  0
  1  3  1  0  0  0  0
  2  5  1  0  0  0  0
  4  3  1  0  0  0  0
  4 17  1  0  0  0  0
  6 13  1  0  0  0  0
  7 19  1  0  0  0  0
  9 10  1  0  0  0  0
 10 22  1  6  0  0  0
 10  1  1  0  0  0  0
 11 22  1  6  0  0  0
 11 20  1  0  0  0  0
 12 19  1  0  0  0  0
 13  8  2  0  0  0  0
 13  9  1  0  0  0  0
 14  5  1  0  0  0  0
 15 31  1  1  0  0  0
 15 17  1  0  0  0  0
 16  6  1  0  0  0  0
 17 18  1  1  0  0  0
 17 25  1  0  0  0  0
 19  6  1  0  0  0  0
 19 14  1  0  0  0  0
 20 15  1  0  0  0  0
 21  2  1  0  0  0  0
 21 11  1  0  0  0  0
 21 20  1  0  0  0  0
 23 30  1  0  0  0  0
 24 23  1  0  0  0  0
 25 28  1  0  0  0  0
 25 24  1  0  0  0  0
 26 23  1  0  0  0  0
 27 24  2  0  0  0  0
 28 26  1  0  0  0  0
 30 29  1  0  0  0  0
 32 34  1  0  0  0  0
 32 31  1  0  0  0  0
 33 32  2  0  0  0  0
 35 34  1  0  0  0  0
 35 37  1  0  0  0  0
 37 38  1  0  0  0  0
 37 36  1  0  0  0  0
 39 35  1  0  0  0  0
 40 41  1  0  0  0  0
 41 39  1  0  0  0  0
 42 41  1  0  0  0  0
 43 45  2  0  0  0  0
 44 46  1  0  0  0  0
 45 42  1  0  0  0  0
 45 44  1  0  0  0  0
 47 46  1  0  0  0  0
 48 49  1  0  0  0  0
 49 50  1  0  0  0  0
 50 52  1  0  0  0  0
 52 51  1  0  0  0  0
 52 54  1  0  0  0  0
 53 52  1  0  0  0  0
 53 51  1  0  0  0  0
 54 55  1  0  0  0  0
M  END
>  <MODEL>
4

>  <REMARK>
 VINA RESULT:      -5.4      2.622      8.953
  Name = 
  17 active torsions:
  status: ('A' for Active; 'I' for Inactive)
    1  A    between atoms: C_3  and  C_35
    2  A    between atoms: C_3  and  C_54
    3  A    between atoms: C_4  and  C_37
    4  A    between atoms: C_5  and  C_43
    5  A    between atoms: O_7  and  C_33
    6  A    between atoms: C_9  and  C_14
    7  A    between atoms: C_9  and  C_29
    8  A    between atoms: C_14  and  O_28
    9  A    between atoms: C_16  and  C_49
   10  A    between atoms: C_27  and  O_32
   11  A    between atoms: C_27  and  C_37
   12  A    between atoms: O_28  and  C_43
   13  A    between atoms: C_31  and  C_39
   14  A    between atoms: O_32  and  C_33
   15  A    between atoms: C_35  and  C_44
   16  A    between atoms: C_36  and  N_51
   17  A    between atoms: C_43  and  C_44
                            x       y       z     vdW  Elec       q    Type
                         _______ _______ _______ _____ _____    ______ ____

>  <TORSDO>
F 17

$$$$
=
 OpenBabel11062415073D

 55 59  0  0  1  0  0  0  0  0999 V2000
  188.3020  177.6050  140.8050 C   0  0  1  0  0  3  0  0  0  0  0  0
  184.9500  176.6760  137.3790 O   0  0  0  0  0  0  0  0  0  0  0  0
  187.7750  178.6510  141.6950 N   0  0  0  0  0  2  0  0  0  0  0  0
  186.5470  179.2710  141.1730 C   0  0  0  0  0  2  0  0  0  0  0  0
  185.7950  175.5690  137.6270 C   0  0  0  0  0  2  0  0  0  0  0  0
  188.3800  176.6820  136.5140 N   0  0  0  0  0  0  0  0  0  0  0  0
  188.2070  175.1510  134.7720 F   0  0  0  0  0  0  0  0  0  0  0  0
  189.0330  174.9040  137.9010 O   0  0  0  0  0  0  0  0  0  0  0  0
  189.5530  177.0360  138.7080 N   0  0  0  0  0  2  0  0  0  0  0  0
  188.8830  178.1300  139.4460 C   0  0  1  0  0  3  0  0  0  0  0  0
  186.6010  177.9100  138.6520 C   0  0  1  0  0  3  0  0  0  0  0  0
  186.7080  176.8140  134.8800 F   0  0  0  0  0  0  0  0  0  0  0  0
  188.9580  176.1540  137.7300 C   0  0  0  0  0  0  0  0  0  0  0  0
  186.4750  174.9990  136.3810 C   0  0  0  0  0  2  0  0  0  0  0  0
  184.5850  178.1140  139.8950 C   0  0  2  0  0  3  0  0  0  0  0  0
  189.0030  177.8760  135.9380 C   0  0  0  0  0  1  0  0  0  0  0  0
  185.2370  178.4270  141.3220 C   0  0  1  0  0  0  0  0  0  0  0  0
  185.5390  177.1990  141.9300 O   0  0  0  0  0  1  0  0  0  0  0  0
  187.4570  175.9270  135.6400 C   0  0  0  0  0  0  0  0  0  0  0  0
  185.3530  178.7330  138.7090 C   0  0  2  0  0  3  0  0  0  0  0  0
  185.6920  177.8830  137.4570 C   0  0  2  0  0  3  0  0  0  0  0  0
  187.8120  178.8000  138.5740 C   0  0  0  0  0  2  0  0  0  0  0  0
  183.9700  179.3040  144.7320 C   0  0  1  0  0  3  0  0  0  0  0  0
  184.7830  179.7030  143.5580 C   0  0  0  0  0  0  0  0  0  0  0  0
  184.2470  179.2170  142.2480 C   0  0  2  0  0  3  0  0  0  0  0  0
  182.7450  178.6260  144.1380 C   0  0  0  0  0  2  0  0  0  0  0  0
  185.6940  180.5060  143.6480 O   0  0  0  0  0  0  0  0  0  0  0  0
  183.0350  178.3660  142.6540 C   0  0  0  0  0  2  0  0  0  0  0  0
  184.9310  178.9400  146.9290 O   0  0  0  0  0  1  0  0  0  0  0  0
  184.7410  178.3650  145.6640 C   0  0  0  0  0  2  0  0  0  0  0  0
  183.0900  178.4670  139.7780 C   0  0  0  0  0  2  0  0  0  0  0  0
  182.8040  179.5440  138.7850 C   0  0  0  0  0  0  0  0  0  0  0  0
  183.3060  180.6880  138.9690 O   0  0  0  0  0  0  0  0  0  0  0  0
  181.9670  179.2920  137.6880 O   0  0  0  0  0  0  0  0  0  0  0  0
  181.9530  178.0360  136.9990 C   0  0  2  0  0  3  0  0  0  0  0  0
  180.6350  177.9920  135.0010 O   0  0  0  0  0  1  0  0  0  0  0  0
  181.9190  178.2580  135.4840 C   0  0  2  0  0  3  0  0  0  0  0  0
  182.9300  177.3800  134.7580 C   0  0  0  0  0  1  0  0  0  0  0  0
  180.7630  177.1710  137.4260 C   0  0  0  0  0  2  0  0  0  0  0  0
  180.9620  175.7350  139.3240 O   0  0  0  0  0  1  0  0  0  0  0  0
  181.2070  175.8030  137.9460 C   0  0  1  0  0  3  0  0  0  0  0  0
  180.4440  174.6800  137.2490 C   0  0  0  0  0  2  0  0  0  0  0  0
  181.4120  174.2470  135.1130 O   0  0  0  0  0  0  0  0  0  0  0  0
  182.1580  172.8650  136.8430 N   0  0  0  0  0  2  0  0  0  0  0  0
  181.3560  173.9340  136.3340 C   0  0  0  0  0  0  0  0  0  0  0  0
  182.9570  172.0310  135.9760 C   0  0  0  0  0  2  0  0  0  0  0  0
  184.3280  171.8230  136.5830 C   0  0  0  0  0  1  0  0  0  0  0  0
  189.3040  176.7310  141.5570 C   0  0  0  0  0  2  0  0  0  0  0  0
  190.4070  177.5530  142.2040 C   0  0  0  0  0  2  0  0  0  0  0  0
  190.9590  176.8370  143.2660 O   0  0  0  0  0  0  0  0  0  0  0  0
  190.8670  179.1970  143.9680 C   0  0  0  0  0  2  0  0  0  0  0  0
  191.0900  177.7390  144.3360 C   0  0  0  0  0  0  0  0  0  0  0  0
  189.8220  178.4410  144.7870 C   0  0  0  0  0  2  0  0  0  0  0  0
  192.0560  177.4980  145.3320 O   0  0  0  0  0  0  0  0  0  0  0  0
  191.6380  176.3600  146.0240 C   0  0  0  0  0  1  0  0  0  0  0  0
  1 48  1  1  0  0  0
  1  3  1  0  0  0  0
  2 21  1  0  0  0  0
  2  5  1  0  0  0  0
  4 17  1  0  0  0  0
  4  3  1  0  0  0  0
  6 13  1  0  0  0  0
  7 19  1  0  0  0  0
  9 10  1  0  0  0  0
 10 22  1  6  0  0  0
 10  1  1  0  0  0  0
 11 22  1  6  0  0  0
 11 20  1  0  0  0  0
 12 19  1  0  0  0  0
 13  8  2  0  0  0  0
 13  9  1  0  0  0  0
 14  5  1  0  0  0  0
 15 31  1  1  0  0  0
 15 17  1  0  0  0  0
 16  6  1  0  0  0  0
 17 18  1  1  0  0  0
 17 25  1  0  0  0  0
 19 14  1  0  0  0  0
 19  6  1  0  0  0  0
 20 15  1  0  0  0  0
 21 11  1  0  0  0  0
 21 20  1  0  0  0  0
 23 30  1  0  0  0  0
 24 27  2  0  0  0  0
 24 23  1  0  0  0  0
 25 28  1  0  0  0  0
 25 24  1  0  0  0  0
 26 23  1  0  0  0  0
 28 26  1  0  0  0  0
 30 29  1  0  0  0  0
 32 33  2  0  0  0  0
 32 31  1  0  0  0  0
 34 32  1  0  0  0  0
 35 39  1  0  0  0  0
 35 34  1  0  0  0  0
 36 37  1  0  0  0  0
 37 35  1  0  0  0  0
 38 37  1  0  0  0  0
 39 41  1  0  0  0  0
 41 40  1  0  0  0  0
 42 41  1  0  0  0  0
 43 45  2  0  0  0  0
 45 44  1  0  0  0  0
 45 42  1  0  0  0  0
 46 47  1  0  0  0  0
 46 44  1  0  0  0  0
 48 49  1  0  0  0  0
 49 50  1  0  0  0  0
 50 52  1  0  0  0  0
 51 52  1  0  0  0  0
 51 53  1  0  0  0  0
 52 53  1  0  0  0  0
 52 54  1  0  0  0  0
 54 55  1  0  0  0  0
M  END
>  <MODEL>
5

>  <REMARK>
 VINA RESULT:      -5.2      2.582      9.012
  Name = 
  17 active torsions:
  status: ('A' for Active; 'I' for Inactive)
    1  A    between atoms: C_3  and  C_35
    2  A    between atoms: C_3  and  C_54
    3  A    between atoms: C_4  and  C_37
    4  A    between atoms: C_5  and  C_43
    5  A    between atoms: O_7  and  C_33
    6  A    between atoms: C_9  and  C_14
    7  A    between atoms: C_9  and  C_29
    8  A    between atoms: C_14  and  O_28
    9  A    between atoms: C_16  and  C_49
   10  A    between atoms: C_27  and  O_32
   11  A    between atoms: C_27  and  C_37
   12  A    between atoms: O_28  and  C_43
   13  A    between atoms: C_31  and  C_39
   14  A    between atoms: O_32  and  C_33
   15  A    between atoms: C_35  and  C_44
   16  A    between atoms: C_36  and  N_51
   17  A    between atoms: C_43  and  C_44
                            x       y       z     vdW  Elec       q    Type
                         _______ _______ _______ _____ _____    ______ ____

>  <TORSDO>
F 17

$$$$
=
 OpenBabel11062415073D

 55 59  0  0  1  0  0  0  0  0999 V2000
  187.1330  177.9030  139.8670 C   0  0  1  0  0  3  0  0  0  0  0  0
  183.0470  175.9880  138.0050 O   0  0  0  0  0  0  0  0  0  0  0  0
  186.7590  179.0100  140.7600 N   0  0  0  0  0  2  0  0  0  0  0  0
  185.3370  179.3720  140.6480 C   0  0  0  0  0  2  0  0  0  0  0  0
  184.1080  175.0560  138.0580 C   0  0  0  0  0  2  0  0  0  0  0  0
  185.9250  176.2830  135.9710 N   0  0  0  0  0  0  0  0  0  0  0  0
  185.4520  174.4680  134.5940 F   0  0  0  0  0  0  0  0  0  0  0  0
  187.3140  174.8630  137.2240 O   0  0  0  0  0  0  0  0  0  0  0  0
  187.6850  177.1490  137.5410 N   0  0  0  0  0  2  0  0  0  0  0  0
  187.1190  178.2590  138.3400 C   0  0  1  0  0  3  0  0  0  0  0  0
  184.7810  177.6200  138.4490 C   0  0  1  0  0  3  0  0  0  0  0  0
  183.8050  175.9210  135.0420 F   0  0  0  0  0  0  0  0  0  0  0  0
  186.9630  176.0460  136.9490 C   0  0  0  0  0  0  0  0  0  0  0  0
  184.4190  174.3730  136.7250 C   0  0  0  0  0  2  0  0  0  0  0  0
  183.2980  177.7750  140.3010 C   0  0  2  0  0  3  0  0  0  0  0  0
  186.0940  177.4300  135.0770 C   0  0  0  0  0  1  0  0  0  0  0  0
  184.3260  178.4060  141.3520 C   0  0  1  0  0  0  0  0  0  0  0  0
  185.0300  177.3480  141.9480 O   0  0  0  0  0  1  0  0  0  0  0  0
  184.9130  175.2790  135.5790 C   0  0  0  0  0  0  0  0  0  0  0  0
  183.5000  178.2760  138.8570 C   0  0  2  0  0  3  0  0  0  0  0  0
  183.5430  177.2760  137.6720 C   0  0  2  0  0  3  0  0  0  0  0  0
  185.7150  178.6300  137.8410 C   0  0  0  0  0  2  0  0  0  0  0  0
  183.9300  179.3680  144.9480 C   0  0  1  0  0  3  0  0  0  0  0  0
  184.4170  179.7430  143.5980 C   0  0  0  0  0  0  0  0  0  0  0  0
  183.5820  179.2100  142.4760 C   0  0  2  0  0  3  0  0  0  0  0  0
  182.6110  178.6560  144.6960 C   0  0  0  0  0  2  0  0  0  0  0  0
  185.3050  180.5610  143.4360 O   0  0  0  0  0  0  0  0  0  0  0  0
  182.5270  178.3550  143.1930 C   0  0  0  0  0  2  0  0  0  0  0  0
  184.5600  178.2780  147.0200 O   0  0  0  0  0  1  0  0  0  0  0  0
  184.9290  178.4690  145.6810 C   0  0  0  0  0  2  0  0  0  0  0  0
  181.8140  177.9100  140.6900 C   0  0  0  0  0  2  0  0  0  0  0  0
  181.0700  178.9130  139.8720 C   0  0  0  0  0  0  0  0  0  0  0  0
  181.5790  180.0550  139.7000 O   0  0  0  0  0  0  0  0  0  0  0  0
  179.8140  178.5960  139.3350 O   0  0  0  0  0  0  0  0  0  0  0  0
  179.5770  178.5000  137.9250 C   0  0  2  0  0  3  0  0  0  0  0  0
  179.6220  176.2050  138.6030 O   0  0  0  0  0  1  0  0  0  0  0  0
  179.3460  177.0420  137.5190 C   0  0  2  0  0  3  0  0  0  0  0  0
  180.2100  176.6400  136.3310 C   0  0  0  0  0  1  0  0  0  0  0  0
  180.7390  179.0880  137.1170 C   0  0  0  0  0  2  0  0  0  0  0  0
  179.8360  179.9410  135.0770 O   0  0  0  0  0  1  0  0  0  0  0  0
  180.3180  180.3320  136.3330 C   0  0  1  0  0  3  0  0  0  0  0  0
  179.2220  181.0970  137.0710 C   0  0  0  0  0  2  0  0  0  0  0  0
  179.2470  182.9450  138.5780 O   0  0  0  0  0  0  0  0  0  0  0  0
  180.8180  183.0470  136.8510 N   0  0  0  0  0  2  0  0  0  0  0  0
  179.7490  182.4060  137.5540 C   0  0  0  0  0  0  0  0  0  0  0  0
  181.2740  184.3720  137.2010 C   0  0  0  0  0  2  0  0  0  0  0  0
  180.2160  185.3910  136.8370 C   0  0  0  0  0  1  0  0  0  0  0  0
  188.4690  177.3040  140.3040 C   0  0  0  0  0  2  0  0  0  0  0  0
  188.6910  177.4360  141.8010 C   0  0  0  0  0  2  0  0  0  0  0  0
  189.9930  177.8770  142.0410 O   0  0  0  0  0  0  0  0  0  0  0  0
  191.4780  177.4160  143.9520 C   0  0  0  0  0  2  0  0  0  0  0  0
  190.1470  177.9380  143.4370 C   0  0  0  0  0  0  0  0  0  0  0  0
  191.1840  178.9160  143.9610 C   0  0  0  0  0  2  0  0  0  0  0  0
  189.0330  177.7070  144.2680 O   0  0  0  0  0  0  0  0  0  0  0  0
  189.5310  177.1910  145.4640 C   0  0  0  0  0  1  0  0  0  0  0  0
  1 48  1  1  0  0  0
  1  3  1  0  0  0  0
  2  5  1  0  0  0  0
  4  3  1  0  0  0  0
  4 17  1  0  0  0  0
  6 13  1  0  0  0  0
  7 19  1  0  0  0  0
  9 10  1  0  0  0  0
 10 22  1  6  0  0  0
 10  1  1  0  0  0  0
 11 22  1  6  0  0  0
 11 20  1  0  0  0  0
 12 19  1  0  0  0  0
 13  8  2  0  0  0  0
 13  9  1  0  0  0  0
 14  5  1  0  0  0  0
 15 31  1  1  0  0  0
 15 17  1  0  0  0  0
 16  6  1  0  0  0  0
 17 18  1  1  0  0  0
 17 25  1  0  0  0  0
 19  6  1  0  0  0  0
 19 14  1  0  0  0  0
 20 15  1  0  0  0  0
 21  2  1  0  0  0  0
 21 11  1  0  0  0  0
 21 20  1  0  0  0  0
 23 30  1  0  0  0  0
 24 23  1  0  0  0  0
 25 28  1  0  0  0  0
 25 24  1  0  0  0  0
 26 23  1  0  0  0  0
 27 24  2  0  0  0  0
 28 26  1  0  0  0  0
 30 29  1  0  0  0  0
 32 31  1  0  0  0  0
 33 32  2  0  0  0  0
 34 32  1  0  0  0  0
 35 34  1  0  0  0  0
 37 35  1  0  0  0  0
 37 36  1  0  0  0  0
 38 37  1  0  0  0  0
 39 35  1  0  0  0  0
 40 41  1  0  0  0  0
 41 42  1  0  0  0  0
 41 39  1  0  0  0  0
 42 45  1  0  0  0  0
 44 46  1  0  0  0  0
 44 45  1  0  0  0  0
 45 43  2  0  0  0  0
 47 46  1  0  0  0  0
 48 49  1  0  0  0  0
 49 50  1  0  0  0  0
 50 52  1  0  0  0  0
 51 53  1  0  0  0  0
 52 51  1  0  0  0  0
 52 53  1  0  0  0  0
 52 54  1  0  0  0  0
 54 55  1  0  0  0  0
M  END
>  <MODEL>
6

>  <REMARK>
 VINA RESULT:      -5.1      3.092      8.765
  Name = 
  17 active torsions:
  status: ('A' for Active; 'I' for Inactive)
    1  A    between atoms: C_3  and  C_35
    2  A    between atoms: C_3  and  C_54
    3  A    between atoms: C_4  and  C_37
    4  A    between atoms: C_5  and  C_43
    5  A    between atoms: O_7  and  C_33
    6  A    between atoms: C_9  and  C_14
    7  A    between atoms: C_9  and  C_29
    8  A    between atoms: C_14  and  O_28
    9  A    between atoms: C_16  and  C_49
   10  A    between atoms: C_27  and  O_32
   11  A    between atoms: C_27  and  C_37
   12  A    between atoms: O_28  and  C_43
   13  A    between atoms: C_31  and  C_39
   14  A    between atoms: O_32  and  C_33
   15  A    between atoms: C_35  and  C_44
   16  A    between atoms: C_36  and  N_51
   17  A    between atoms: C_43  and  C_44
                            x       y       z     vdW  Elec       q    Type
                         _______ _______ _______ _____ _____    ______ ____

>  <TORSDO>
F 17

$$$$
=
 OpenBabel11062415073D

 55 59  0  0  1  0  0  0  0  0999 V2000
  185.7300  178.4630  139.6360 C   0  0  1  0  0  3  0  0  0  0  0  0
  185.5410  175.1230  136.0810 O   0  0  0  0  0  0  0  0  0  0  0  0
  184.4450  179.1790  139.6660 N   0  0  0  0  0  2  0  0  0  0  0  0
  183.5980  178.8690  138.5040 C   0  0  0  0  0  2  0  0  0  0  0  0
  186.4440  174.7710  137.1100 C   0  0  0  0  0  2  0  0  0  0  0  0
  188.5440  176.9020  136.6510 N   0  0  0  0  0  0  0  0  0  0  0  0
  189.9780  175.2290  135.9040 F   0  0  0  0  0  0  0  0  0  0  0  0
  188.9250  176.1360  138.8380 O   0  0  0  0  0  0  0  0  0  0  0  0
  188.0420  178.2960  138.6810 N   0  0  0  0  0  2  0  0  0  0  0  0
  186.7180  178.9370  138.5150 C   0  0  1  0  0  3  0  0  0  0  0  0
  185.5700  177.3030  137.1350 C   0  0  1  0  0  3  0  0  0  0  0  0
  188.1810  175.7250  134.6590 F   0  0  0  0  0  0  0  0  0  0  0  0
  188.4890  177.0560  138.0880 C   0  0  0  0  0  0  0  0  0  0  0  0
  187.8600  174.4500  136.6280 C   0  0  0  0  0  2  0  0  0  0  0  0
  183.3130  176.5720  137.2930 C   0  0  2  0  0  3  0  0  0  0  0  0
  188.8700  178.0910  135.8610 C   0  0  0  0  0  1  0  0  0  0  0  0
  182.8740  177.4820  138.5330 C   0  0  1  0  0  0  0  0  0  0  0  0
  183.2230  176.7980  139.7080 O   0  0  0  0  0  1  0  0  0  0  0  0
  188.6440  175.5980  135.9610 C   0  0  0  0  0  0  0  0  0  0  0  0
  184.3070  177.2620  136.3360 C   0  0  2  0  0  3  0  0  0  0  0  0
  185.5820  176.5230  135.8530 C   0  0  2  0  0  3  0  0  0  0  0  0
  186.1640  178.6850  137.1050 C   0  0  0  0  0  2  0  0  0  0  0  0
  179.9310  179.6160  139.4260 C   0  0  1  0  0  3  0  0  0  0  0  0
  180.8680  179.1520  138.3740 C   0  0  0  0  0  0  0  0  0  0  0  0
  181.3260  177.7370  138.5420 C   0  0  2  0  0  3  0  0  0  0  0  0
  179.6500  178.3780  140.2620 C   0  0  0  0  0  2  0  0  0  0  0  0
  181.0900  179.8090  137.3720 O   0  0  0  0  0  0  0  0  0  0  0  0
  180.6790  177.3090  139.8670 C   0  0  0  0  0  2  0  0  0  0  0  0
  180.1120  180.6710  141.6010 O   0  0  0  0  0  1  0  0  0  0  0  0
  180.5360  180.7430  140.2670 C   0  0  0  0  0  2  0  0  0  0  0  0
  182.1450  175.9800  136.4820 C   0  0  0  0  0  2  0  0  0  0  0  0
  182.4370  174.6320  135.9090 C   0  0  0  0  0  0  0  0  0  0  0  0
  182.6730  174.5360  134.6730 O   0  0  0  0  0  0  0  0  0  0  0  0
  182.4140  173.4950  136.7300 O   0  0  0  0  0  0  0  0  0  0  0  0
  181.8330  172.2530  136.3140 C   0  0  2  0  0  3  0  0  0  0  0  0
  180.3140  172.2720  138.1640 O   0  0  0  0  0  1  0  0  0  0  0  0
  180.3750  172.1640  136.7720 C   0  0  2  0  0  3  0  0  0  0  0  0
  179.7190  170.8620  136.3320 C   0  0  0  0  0  1  0  0  0  0  0  0
  182.6210  171.0530  136.8510 C   0  0  0  0  0  2  0  0  0  0  0  0
  183.0560  170.4000  134.5960 O   0  0  0  0  0  1  0  0  0  0  0  0
  183.6640  170.5580  135.8480 C   0  0  1  0  0  3  0  0  0  0  0  0
  184.8140  171.5550  135.7200 C   0  0  0  0  0  2  0  0  0  0  0  0
  185.9940  169.6300  134.9530 O   0  0  0  0  0  0  0  0  0  0  0  0
  187.2320  171.6100  134.9810 N   0  0  0  0  0  2  0  0  0  0  0  0
  186.0300  170.8670  135.1980 C   0  0  0  0  0  0  0  0  0  0  0  0
  188.4690  170.9680  134.6010 C   0  0  0  0  0  2  0  0  0  0  0  0
  189.5990  171.9740  134.6260 C   0  0  0  0  0  1  0  0  0  0  0  0
  186.3780  178.4890  141.0190 C   0  0  0  0  0  2  0  0  0  0  0  0
  185.5640  179.2960  142.0160 C   0  0  0  0  0  2  0  0  0  0  0  0
  185.4700  178.5920  143.2170 O   0  0  0  0  0  0  0  0  0  0  0  0
  183.9950  178.3530  145.1770 C   0  0  0  0  0  2  0  0  0  0  0  0
  184.2800  179.0130  143.8380 C   0  0  0  0  0  0  0  0  0  0  0  0
  184.4320  179.8170  145.1170 C   0  0  0  0  0  2  0  0  0  0  0  0
  183.1530  179.3100  143.0470 O   0  0  0  0  0  0  0  0  0  0  0  0
  182.1060  178.5310  143.5390 C   0  0  0  0  0  1  0  0  0  0  0  0
  1  3  1  0  0  0  0
  1 48  1  1  0  0  0
  2  5  1  0  0  0  0
  4 17  1  0  0  0  0
  4  3  1  0  0  0  0
  6 13  1  0  0  0  0
  7 19  1  0  0  0  0
 10 22  1  6  0  0  0
 10  9  1  0  0  0  0
 10  1  1  0  0  0  0
 11 22  1  6  0  0  0
 12 19  1  0  0  0  0
 13  9  1  0  0  0  0
 13  8  2  0  0  0  0
 14  5  1  0  0  0  0
 15 31  1  6  0  0  0
 15 17  1  0  0  0  0
 16  6  1  0  0  0  0
 17 25  1  0  0  0  0
 17 18  1  1  0  0  0
 19 14  1  0  0  0  0
 19  6  1  0  0  0  0
 20 11  1  0  0  0  0
 20 15  1  0  0  0  0
 21  2  1  0  0  0  0
 21 20  1  0  0  0  0
 21 11  1  0  0  0  0
 23 26  1  0  0  0  0
 23 30  1  0  0  0  0
 24 25  1  0  0  0  0
 24 23  1  0  0  0  0
 25 28  1  0  0  0  0
 27 24  2  0  0  0  0
 28 26  1  0  0  0  0
 30 29  1  0  0  0  0
 32 31  1  0  0  0  0
 32 34  1  0  0  0  0
 33 32  2  0  0  0  0
 35 34  1  0  0  0  0
 35 37  1  0  0  0  0
 35 39  1  0  0  0  0
 37 36  1  0  0  0  0
 38 37  1  0  0  0  0
 40 41  1  0  0  0  0
 41 39  1  0  0  0  0
 42 41  1  0  0  0  0
 43 45  2  0  0  0  0
 44 45  1  0  0  0  0
 45 42  1  0  0  0  0
 46 47  1  0  0  0  0
 46 44  1  0  0  0  0
 48 49  1  0  0  0  0
 49 50  1  0  0  0  0
 50 52  1  0  0  0  0
 52 53  1  0  0  0  0
 52 51  1  0  0  0  0
 53 51  1  0  0  0  0
 54 55  1  0  0  0  0
 54 52  1  0  0  0  0
M  END
>  <MODEL>
7

>  <REMARK>
 VINA RESULT:      -4.9      2.890      9.474
  Name = 
  17 active torsions:
  status: ('A' for Active; 'I' for Inactive)
    1  A    between atoms: C_3  and  C_35
    2  A    between atoms: C_3  and  C_54
    3  A    between atoms: C_4  and  C_37
    4  A    between atoms: C_5  and  C_43
    5  A    between atoms: O_7  and  C_33
    6  A    between atoms: C_9  and  C_14
    7  A    between atoms: C_9  and  C_29
    8  A    between atoms: C_14  and  O_28
    9  A    between atoms: C_16  and  C_49
   10  A    between atoms: C_27  and  O_32
   11  A    between atoms: C_27  and  C_37
   12  A    between atoms: O_28  and  C_43
   13  A    between atoms: C_31  and  C_39
   14  A    between atoms: O_32  and  C_33
   15  A    between atoms: C_35  and  C_44
   16  A    between atoms: C_36  and  N_51
   17  A    between atoms: C_43  and  C_44
                            x       y       z     vdW  Elec       q    Type
                         _______ _______ _______ _____ _____    ______ ____

>  <TORSDO>
F 17

$$$$
=
 OpenBabel11062415073D

 55 59  0  0  1  0  0  0  0  0999 V2000
  185.0890  178.2490  140.6000 C   0  0  1  0  0  3  0  0  0  0  0  0
  185.4090  175.8400  136.3660 O   0  0  0  0  0  0  0  0  0  0  0  0
  183.7230  178.7830  140.7260 N   0  0  0  0  0  2  0  0  0  0  0  0
  182.9510  178.6590  139.4800 C   0  0  0  0  0  2  0  0  0  0  0  0
  186.3230  175.3640  137.3330 C   0  0  0  0  0  2  0  0  0  0  0  0
  188.1490  177.7730  137.4910 N   0  0  0  0  0  0  0  0  0  0  0  0
  189.8000  176.5010  136.4560 F   0  0  0  0  0  0  0  0  0  0  0  0
  188.5700  176.5630  139.4590 O   0  0  0  0  0  0  0  0  0  0  0  0
  187.4260  178.5810  139.7570 N   0  0  0  0  0  2  0  0  0  0  0  0
  186.0370  179.0840  139.6730 C   0  0  1  0  0  3  0  0  0  0  0  0
  185.1370  177.6990  137.8950 C   0  0  1  0  0  3  0  0  0  0  0  0
  187.9860  177.0630  135.2640 F   0  0  0  0  0  0  0  0  0  0  0  0
  188.0400  177.5760  138.9190 C   0  0  0  0  0  0  0  0  0  0  0  0
  187.7800  175.3320  136.8660 C   0  0  0  0  0  2  0  0  0  0  0  0
  182.9870  176.6940  137.7590 C   0  0  2  0  0  3  0  0  0  0  0  0
  188.3420  179.1440  137.0140 C   0  0  0  0  0  1  0  0  0  0  0  0
  182.4060  177.2290  139.1500 C   0  0  1  0  0  0  0  0  0  0  0  0
  182.8100  176.3330  140.1520 O   0  0  0  0  0  1  0  0  0  0  0  0
  188.4300  176.6880  136.5250 C   0  0  0  0  0  0  0  0  0  0  0  0
  183.9090  177.7000  137.0410 C   0  0  2  0  0  3  0  0  0  0  0  0
  185.2790  177.2490  136.4700 C   0  0  2  0  0  3  0  0  0  0  0  0
  185.5530  179.1090  138.2150 C   0  0  0  0  0  2  0  0  0  0  0  0
  179.1800  178.3760  140.6610 C   0  0  1  0  0  3  0  0  0  0  0  0
  180.2050  178.5630  139.6050 C   0  0  0  0  0  0  0  0  0  0  0  0
  180.8390  177.2920  139.1350 C   0  0  2  0  0  3  0  0  0  0  0  0
  179.0370  176.8690  140.7940 C   0  0  0  0  0  2  0  0  0  0  0  0
  180.3720  179.6350  139.0510 O   0  0  0  0  0  0  0  0  0  0  0  0
  180.2100  176.2250  140.0420 C   0  0  0  0  0  2  0  0  0  0  0  0
  180.5330  180.0520  141.7750 O   0  0  0  0  0  1  0  0  0  0  0  0
  179.6030  179.0240  141.9820 C   0  0  0  0  0  2  0  0  0  0  0  0
  181.9230  176.1770  136.7720 C   0  0  0  0  0  2  0  0  0  0  0  0
  182.2390  174.8340  136.2000 C   0  0  0  0  0  0  0  0  0  0  0  0
  182.9560  174.7690  135.1640 O   0  0  0  0  0  0  0  0  0  0  0  0
  181.7170  173.6740  136.7900 O   0  0  0  0  0  0  0  0  0  0  0  0
  180.7940  172.8110  136.1150 C   0  0  2  0  0  3  0  0  0  0  0  0
  180.0440  172.5490  138.3730 O   0  0  0  0  0  1  0  0  0  0  0  0
  179.6350  172.4370  137.0420 C   0  0  2  0  0  3  0  0  0  0  0  0
  179.1300  171.0240  136.7800 C   0  0  0  0  0  1  0  0  0  0  0  0
  181.4810  171.5400  135.6030 C   0  0  0  0  0  2  0  0  0  0  0  0
  182.8180  170.5980  137.3440 O   0  0  0  0  0  1  0  0  0  0  0  0
  182.8880  171.3780  136.1820 C   0  0  1  0  0  3  0  0  0  0  0  0
  183.8140  170.6950  135.1790 C   0  0  0  0  0  2  0  0  0  0  0  0
  185.3890  172.3010  135.9700 O   0  0  0  0  0  0  0  0  0  0  0  0
  186.2820  170.6090  134.6300 N   0  0  0  0  0  2  0  0  0  0  0  0
  185.1920  171.2550  135.2930 C   0  0  0  0  0  0  0  0  0  0  0  0
  187.6070  171.1830  134.6020 C   0  0  0  0  0  2  0  0  0  0  0  0
  188.6280  170.1370  134.9950 C   0  0  0  0  0  1  0  0  0  0  0  0
  185.6940  178.0230  141.9850 C   0  0  0  0  0  2  0  0  0  0  0  0
  184.7270  178.3900  143.0980 C   0  0  0  0  0  2  0  0  0  0  0  0
  185.3470  179.2750  143.9800 O   0  0  0  0  0  0  0  0  0  0  0  0
  185.5950  179.2750  146.4310 C   0  0  0  0  0  2  0  0  0  0  0  0
  185.7070  178.5260  145.1140 C   0  0  0  0  0  0  0  0  0  0  0  0
  184.5880  178.1800  146.0800 C   0  0  0  0  0  2  0  0  0  0  0  0
  186.7620  177.5960  145.0240 O   0  0  0  0  0  0  0  0  0  0  0  0
  187.6110  177.8540  146.1010 C   0  0  0  0  0  1  0  0  0  0  0  0
  1  3  1  0  0  0  0
  1 48  1  1  0  0  0
  2 21  1  0  0  0  0
  2  5  1  0  0  0  0
  4  3  1  0  0  0  0
  6 13  1  0  0  0  0
  7 19  1  0  0  0  0
 10 22  1  6  0  0  0
 10  9  1  0  0  0  0
 10  1  1  0  0  0  0
 11 22  1  6  0  0  0
 12 19  1  0  0  0  0
 13  8  2  0  0  0  0
 13  9  1  0  0  0  0
 14  5  1  0  0  0  0
 15 31  1  6  0  0  0
 15 17  1  0  0  0  0
 16  6  1  0  0  0  0
 17  4  1  0  0  0  0
 17 18  1  1  0  0  0
 19 14  1  0  0  0  0
 19  6  1  0  0  0  0
 20 15  1  0  0  0  0
 20 11  1  0  0  0  0
 21 20  1  0  0  0  0
 21 11  1  0  0  0  0
 23 26  1  0  0  0  0
 23 30  1  0  0  0  0
 24 23  1  0  0  0  0
 25 17  1  0  0  0  0
 25 24  1  0  0  0  0
 25 28  1  0  0  0  0
 27 24  2  0  0  0  0
 28 26  1  0  0  0  0
 29 30  1  0  0  0  0
 32 31  1  0  0  0  0
 32 34  1  0  0  0  0
 33 32  2  0  0  0  0
 35 34  1  0  0  0  0
 35 37  1  0  0  0  0
 37 36  1  0  0  0  0
 38 37  1  0  0  0  0
 39 35  1  0  0  0  0
 39 41  1  0  0  0  0
 41 40  1  0  0  0  0
 42 45  1  0  0  0  0
 42 41  1  0  0  0  0
 44 45  1  0  0  0  0
 45 43  2  0  0  0  0
 46 44  1  0  0  0  0
 46 47  1  0  0  0  0
 48 49  1  0  0  0  0
 49 50  1  0  0  0  0
 50 52  1  0  0  0  0
 52 53  1  0  0  0  0
 52 51  1  0  0  0  0
 53 51  1  0  0  0  0
 54 52  1  0  0  0  0
 54 55  1  0  0  0  0
M  END
>  <MODEL>
8

>  <REMARK>
 VINA RESULT:      -4.8      2.911      9.669
  Name = 
  17 active torsions:
  status: ('A' for Active; 'I' for Inactive)
    1  A    between atoms: C_3  and  C_35
    2  A    between atoms: C_3  and  C_54
    3  A    between atoms: C_4  and  C_37
    4  A    between atoms: C_5  and  C_43
    5  A    between atoms: O_7  and  C_33
    6  A    between atoms: C_9  and  C_14
    7  A    between atoms: C_9  and  C_29
    8  A    between atoms: C_14  and  O_28
    9  A    between atoms: C_16  and  C_49
   10  A    between atoms: C_27  and  O_32
   11  A    between atoms: C_27  and  C_37
   12  A    between atoms: O_28  and  C_43
   13  A    between atoms: C_31  and  C_39
   14  A    between atoms: O_32  and  C_33
   15  A    between atoms: C_35  and  C_44
   16  A    between atoms: C_36  and  N_51
   17  A    between atoms: C_43  and  C_44
                            x       y       z     vdW  Elec       q    Type
                         _______ _______ _______ _____ _____    ______ ____

>  <TORSDO>
F 17

$$$$
=
 OpenBabel11062415073D

 55 59  0  0  1  0  0  0  0  0999 V2000
  184.5290  175.9830  136.2970 C   0  0  1  0  0  3  0  0  0  0  0  0
  184.4460  178.5710  140.4360 O   0  0  0  0  0  0  0  0  0  0  0  0
  185.8190  176.2200  135.6300 N   0  0  0  0  0  2  0  0  0  0  0  0
  186.5810  177.3160  136.2470 C   0  0  0  0  0  2  0  0  0  0  0  0
  183.6130  177.4300  140.4910 C   0  0  0  0  0  2  0  0  0  0  0  0
  181.5040  178.2820  138.4940 N   0  0  0  0  0  0  0  0  0  0  0  0
  180.0090  178.4820  140.2660 F   0  0  0  0  0  0  0  0  0  0  0  0
  181.2680  175.9520  138.6690 O   0  0  0  0  0  0  0  0  0  0  0  0
  182.1560  176.7120  136.6440 N   0  0  0  0  0  2  0  0  0  0  0  0
  183.4700  177.1220  136.1000 C   0  0  1  0  0  3  0  0  0  0  0  0
  184.5080  178.1090  138.0590 C   0  0  1  0  0  3  0  0  0  0  0  0
  181.7190  179.9260  140.1490 F   0  0  0  0  0  0  0  0  0  0  0  0
  181.6590  176.9390  137.9820 C   0  0  0  0  0  0  0  0  0  0  0  0
  182.1650  177.7220  140.8890 C   0  0  0  0  0  2  0  0  0  0  0  0
  186.7640  177.9160  138.7830 C   0  0  2  0  0  3  0  0  0  0  0  0
  181.1340  179.3270  137.5380 C   0  0  0  0  0  1  0  0  0  0  0  0
  187.2950  176.9800  137.5990 C   0  0  1  0  0  0  0  0  0  0  0  0
  187.0220  175.6500  137.9520 O   0  0  0  0  0  1  0  0  0  0  0  0
  181.3460  178.6080  139.9280 C   0  0  0  0  0  0  0  0  0  0  0  0
  185.7120  178.9510  138.3340 C   0  0  2  0  0  3  0  0  0  0  0  0
  184.4010  179.1460  139.1390 C   0  0  2  0  0  3  0  0  0  0  0  0
  183.9240  178.4530  136.7150 C   0  0  0  0  0  2  0  0  0  0  0  0
  190.4930  175.8660  136.0060 C   0  0  1  0  0  3  0  0  0  0  0  0
  189.3770  176.8420  136.0230 C   0  0  0  0  0  0  0  0  0  0  0  0
  188.8410  177.1370  137.3890 C   0  0  2  0  0  3  0  0  0  0  0  0
  190.8000  175.6080  137.4720 C   0  0  0  0  0  2  0  0  0  0  0  0
  189.0590  177.4770  135.0330 O   0  0  0  0  0  0  0  0  0  0  0  0
  189.6440  176.1930  138.2960 C   0  0  0  0  0  2  0  0  0  0  0  0
  190.5540  173.4430  135.9610 O   0  0  0  0  0  1  0  0  0  0  0  0
  190.1090  174.5790  135.2710 C   0  0  0  0  0  2  0  0  0  0  0  0
  187.8680  178.6230  139.5910 C   0  0  0  0  0  2  0  0  0  0  0  0
  187.8980  178.2330  141.0320 C   0  0  0  0  0  0  0  0  0  0  0  0
  186.9730  177.5020  141.4820 O   0  0  0  0  0  0  0  0  0  0  0  0
  188.9190  178.7020  141.8710 O   0  0  0  0  0  0  0  0  0  0  0  0
  189.3150  178.0150  143.0650 C   0  0  2  0  0  3  0  0  0  0  0  0
  191.0600  177.4220  141.5370 O   0  0  0  0  0  1  0  0  0  0  0  0
  190.5220  177.1140  142.7880 C   0  0  2  0  0  3  0  0  0  0  0  0
  190.1500  175.6370  142.8350 C   0  0  0  0  0  1  0  0  0  0  0  0
  188.1670  177.1840  143.6450 C   0  0  0  0  0  2  0  0  0  0  0  0
  186.1220  177.8930  144.6570 O   0  0  0  0  0  1  0  0  0  0  0  0
  187.5110  177.8720  144.8430 C   0  0  1  0  0  3  0  0  0  0  0  0
  187.8280  177.1300  146.1400 C   0  0  0  0  0  2  0  0  0  0  0  0
  189.6880  178.6100  146.3320 O   0  0  0  0  0  0  0  0  0  0  0  0
  189.9670  176.5240  147.3460 N   0  0  0  0  0  2  0  0  0  0  0  0
  189.2030  177.4770  146.6030 C   0  0  0  0  0  0  0  0  0  0  0  0
  191.3460  176.7630  147.7040 C   0  0  0  0  0  2  0  0  0  0  0  0
  192.2010  175.5970  147.2550 C   0  0  0  0  0  1  0  0  0  0  0  0
  183.9780  174.6130  135.9050 C   0  0  0  0  0  2  0  0  0  0  0  0
  185.0130  173.7660  135.1840 C   0  0  0  0  0  2  0  0  0  0  0  0
  184.4150  172.5950  134.7190 O   0  0  0  0  0  0  0  0  0  0  0  0
  186.3790  171.1190  134.8890 C   0  0  0  0  0  2  0  0  0  0  0  0
  185.0150  171.5310  135.4150 C   0  0  0  0  0  0  0  0  0  0  0  0
  186.2600  171.8650  136.2170 C   0  0  0  0  0  2  0  0  0  0  0  0
  184.2100  170.4910  135.9200 O   0  0  0  0  0  0  0  0  0  0  0  0
  183.3350  171.0750  136.8360 C   0  0  0  0  0  1  0  0  0  0  0  0
  1 48  1  6  0  0  0
  2  5  1  0  0  0  0
  3  4  1  0  0  0  0
  3  1  1  0  0  0  0
  4 17  1  0  0  0  0
  5 14  1  0  0  0  0
  6 19  1  0  0  0  0
  9 13  1  0  0  0  0
 10  1  1  0  0  0  0
 10  9  1  0  0  0  0
 10 22  1  1  0  0  0
 11 22  1  6  0  0  0
 11 20  1  0  0  0  0
 11 21  1  0  0  0  0
 13  6  1  0  0  0  0
 13  8  2  0  0  0  0
 15 31  1  6  0  0  0
 16  6  1  0  0  0  0
 17 18  1  1  0  0  0
 17 15  1  0  0  0  0
 19 12  1  0  0  0  0
 19  7  1  0  0  0  0
 19 14  1  0  0  0  0
 20 15  1  0  0  0  0
 20 21  1  0  0  0  0
 21  2  1  0  0  0  0
 23 24  1  0  0  0  0
 23 26  1  0  0  0  0
 24 25  1  0  0  0  0
 25 17  1  0  0  0  0
 25 28  1  0  0  0  0
 26 28  1  0  0  0  0
 27 24  2  0  0  0  0
 30 29  1  0  0  0  0
 30 23  1  0  0  0  0
 31 32  1  0  0  0  0
 32 33  2  0  0  0  0
 32 34  1  0  0  0  0
 34 35  1  0  0  0  0
 35 39  1  0  0  0  0
 36 37  1  0  0  0  0
 37 38  1  0  0  0  0
 37 35  1  0  0  0  0
 39 41  1  0  0  0  0
 40 41  1  0  0  0  0
 41 42  1  0  0  0  0
 42 45  1  0  0  0  0
 43 45  2  0  0  0  0
 44 46  1  0  0  0  0
 45 44  1  0  0  0  0
 47 46  1  0  0  0  0
 49 48  1  0  0  0  0
 50 49  1  0  0  0  0
 50 52  1  0  0  0  0
 51 52  1  0  0  0  0
 51 53  1  0  0  0  0
 52 54  1  0  0  0  0
 52 53  1  0  0  0  0
 54 55  1  0  0  0  0
M  END
>  <MODEL>
9

>  <REMARK>
 VINA RESULT:      -4.8      1.982      2.797
  Name = 
  17 active torsions:
  status: ('A' for Active; 'I' for Inactive)
    1  A    between atoms: C_3  and  C_35
    2  A    between atoms: C_3  and  C_54
    3  A    between atoms: C_4  and  C_37
    4  A    between atoms: C_5  and  C_43
    5  A    between atoms: O_7  and  C_33
    6  A    between atoms: C_9  and  C_14
    7  A    between atoms: C_9  and  C_29
    8  A    between atoms: C_14  and  O_28
    9  A    between atoms: C_16  and  C_49
   10  A    between atoms: C_27  and  O_32
   11  A    between atoms: C_27  and  C_37
   12  A    between atoms: O_28  and  C_43
   13  A    between atoms: C_31  and  C_39
   14  A    between atoms: O_32  and  C_33
   15  A    between atoms: C_35  and  C_44
   16  A    between atoms: C_36  and  N_51
   17  A    between atoms: C_43  and  C_44
                            x       y       z     vdW  Elec       q    Type
                         _______ _______ _______ _____ _____    ______ ____

>  <TORSDO>
F 17

$$$$
