=
 OpenBabel11062417133D

 36 40  0  0  1  0  0  0  0  0999 V2000
  186.7240  178.5660  141.4010 C   0  0  0  0  0  0  0  0  0  0  0  0
  185.3680  178.7270  141.0430 C   0  0  0  0  0  0  0  0  0  0  0  0
  182.9830  178.6450  141.6600 N   0  0  0  0  0  2  0  0  0  0  0  0
  187.7960  178.7810  140.3650 C   0  0  0  0  0  2  0  0  0  0  0  0
  190.5330  177.7890  139.3820 O   0  0  0  0  0  0  0  0  0  0  0  0
  190.1560  176.3540  141.2050 C   0  0  0  0  0  2  0  0  0  0  0  0
  184.3640  178.4600  141.9920 C   0  0  0  0  0  0  0  0  0  0  0  0
  187.0670  178.1530  142.7140 C   0  0  0  0  0  0  0  0  0  0  0  0
  184.9710  179.1480  139.6400 C   0  0  2  0  0  3  0  0  0  0  0  0
  184.7070  178.0690  143.2820 C   0  0  0  0  0  3  0  0  0  0  0  0
  183.5810  179.7940  139.5880 C   0  0  0  0  0  2  0  0  0  0  0  0
  182.5530  178.9150  140.2930 C   0  0  0  0  0  2  0  0  0  0  0  0
  189.0660  175.8160  141.9170 O   0  0  0  0  0  0  0  0  0  0  0  0
  186.0390  177.9200  143.6640 C   0  0  0  0  0  0  0  0  0  0  0  0
  188.4820  177.8890  143.0380 C   0  0  0  0  0  0  0  0  0  0  0  0
  189.6990  177.2300  140.0750 C   0  0  0  0  0  0  0  0  0  0  0  0
  189.2990  178.8470  143.1030 O   0  0  0  0  0  0  0  0  0  0  0  0
  190.1400  176.3730  143.9160 O   0  0  0  0  0  1  0  0  0  0  0  0
  188.9600  176.4700  143.1670 C   0  0  2  0  0  3  0  0  0  0  0  0
  188.2450  177.4450  139.7900 C   0  0  0  0  0  2  0  0  0  0  0  0
  184.9200  175.1830  134.5940 O   0  0  0  0  0  1  0  0  0  0  0  0
  185.1070  178.0340  138.6430 C   0  0  0  0  0  0  0  0  0  0  0  0
  185.3030  175.9420  136.7960 C   0  0  0  0  0  0  0  0  0  0  0  0
  186.1220  177.0650  136.6510 C   0  0  0  0  0  3  0  0  0  0  0  0
  186.0210  178.1110  137.5750 C   0  0  0  0  0  3  0  0  0  0  0  0
  184.8000  172.3840  137.0130 O   0  0  0  0  0  0  0  0  0  0  0  0
  184.1450  173.6590  136.5610 S   0  0  0  0  0  0  0  0  0  0  0  0
  183.0140  173.3680  135.6160 O   0  0  0  0  0  0  0  0  0  0  0  0
  184.3020  176.8960  138.7870 C   0  0  0  0  0  3  0  0  0  0  0  0
  184.4040  175.8570  137.8620 C   0  0  0  0  0  0  0  0  0  0  0  0
  185.3350  174.7800  135.8640 C   0  0  1  0  0  3  0  0  0  0  0  0
  183.5910  174.6160  137.9470 C   0  0  0  0  0  2  0  0  0  0  0  0
  186.2860  177.5370  145.0270 N   0  0  0  0  0  2  0  0  0  0  0  0
  187.7130  177.7950  146.9680 C   0  0  0  0  0  1  0  0  0  0  0  0
  186.6370  178.4340  146.1190 C   0  0  0  0  0  3  0  0  0  0  0  0
  185.4160  178.7020  146.9790 C   0  0  0  0  0  1  0  0  0  0  0  0
  1  8  1  0  0  0  0
  2  1  2  0  0  0  0
  2  7  1  0  0  0  0
  3  7  1  0  0  0  0
  4  1  1  0  0  0  0
  5 16  2  0  0  0  0
  6 13  1  0  0  0  0
  7 10  2  0  0  0  0
  8 15  1  0  0  0  0
  8 14  2  0  0  0  0
  9 22  1  6  0  0  0
  9  2  1  0  0  0  0
 10 14  1  0  0  0  0
 11  9  1  0  0  0  0
 11 12  1  0  0  0  0
 12  3  1  0  0  0  0
 13 19  1  0  0  0  0
 14 33  1  0  0  0  0
 15 17  2  0  0  0  0
 15 19  1  0  0  0  0
 16  6  1  0  0  0  0
 19 18  1  6  0  0  0
 20 16  1  0  0  0  0
 20  4  1  0  0  0  0
 22 29  1  0  0  0  0
 23 30  1  0  0  0  0
 24 23  2  0  0  0  0
 24 25  1  0  0  0  0
 25 22  2  0  0  0  0
 27 26  2  0  0  0  0
 27 32  1  0  0  0  0
 28 27  2  0  0  0  0
 30 32  1  0  0  0  0
 30 29  2  0  0  0  0
 31 21  1  6  0  0  0
 31 27  1  0  0  0  0
 31 23  1  0  0  0  0
 33 35  1  0  0  0  0
 35 34  1  0  0  0  0
 35 36  1  0  0  0  0
M  END
>  <MODEL>
1

>  <REMARK>
 VINA RESULT:      -7.5      0.000      0.000
  Name = 
  3 active torsions:
  status: ('A' for Active; 'I' for Inactive)
    1  A    between atoms: C_2  and  C_18
    2  A    between atoms: N_10  and  C_17
    3  A    between atoms: N_10  and  C_24
                            x       y       z     vdW  Elec       q    Type
                         _______ _______ _______ _____ _____    ______ ____

>  <TORSDO>
F 3

$$$$
=
 OpenBabel11062417133D

 36 40  0  0  1  0  0  0  0  0999 V2000
  186.0340  178.6270  139.0270 C   0  0  0  0  0  0  0  0  0  0  0  0
  184.7050  178.6840  139.5000 C   0  0  0  0  0  0  0  0  0  0  0  0
  183.1110  178.5820  141.3760 N   0  0  0  0  0  2  0  0  0  0  0  0
  186.3030  178.7510  137.5500 C   0  0  0  0  0  2  0  0  0  0  0  0
  188.0950  177.7550  135.2610 O   0  0  0  0  0  0  0  0  0  0  0  0
  188.9710  176.5530  137.0810 C   0  0  0  0  0  2  0  0  0  0  0  0
  184.4480  178.5000  140.8710 C   0  0  0  0  0  0  0  0  0  0  0  0
  187.1010  178.4020  139.9350 C   0  0  0  0  0  0  0  0  0  0  0  0
  183.5420  178.9040  138.5490 C   0  0  2  0  0  3  0  0  0  0  0  0
  185.4990  178.2930  141.7580 C   0  0  0  0  0  3  0  0  0  0  0  0
  182.3060  179.4790  139.2500 C   0  0  0  0  0  2  0  0  0  0  0  0
  181.9580  178.6560  140.4860 C   0  0  0  0  0  2  0  0  0  0  0  0
  188.5390  176.0670  138.3300 O   0  0  0  0  0  0  0  0  0  0  0  0
  186.8210  178.2500  141.3180 C   0  0  0  0  0  0  0  0  0  0  0  0
  188.4690  178.2410  139.4100 C   0  0  0  0  0  0  0  0  0  0  0  0
  187.8640  177.2560  136.3500 C   0  0  0  0  0  0  0  0  0  0  0  0
  189.0720  179.2320  138.9150 O   0  0  0  0  0  0  0  0  0  0  0  0
  190.4860  176.9210  139.2990 O   0  0  0  0  0  1  0  0  0  0  0  0
  189.0870  176.8710  139.3570 C   0  0  2  0  0  3  0  0  0  0  0  0
  186.4900  177.3720  136.9340 C   0  0  0  0  0  2  0  0  0  0  0  0
  180.9420  173.8310  135.5980 O   0  0  0  0  0  1  0  0  0  0  0  0
  183.2110  177.6770  137.7490 C   0  0  0  0  0  0  0  0  0  0  0  0
  182.5970  175.3570  136.3100 C   0  0  0  0  0  0  0  0  0  0  0  0
  182.1710  176.5980  135.8270 C   0  0  0  0  0  3  0  0  0  0  0  0
  182.4780  177.7560  136.5490 C   0  0  0  0  0  3  0  0  0  0  0  0
  184.2430  172.1830  135.8960 O   0  0  0  0  0  0  0  0  0  0  0  0
  183.1280  172.8640  136.6380 S   0  0  0  0  0  0  0  0  0  0  0  0
  182.1670  171.8520  137.1970 O   0  0  0  0  0  0  0  0  0  0  0  0
  183.6460  176.4290  138.2150 C   0  0  0  0  0  3  0  0  0  0  0  0
  183.3350  175.2760  137.4930 C   0  0  0  0  0  0  0  0  0  0  0  0
  182.3180  174.0700  135.6150 C   0  0  1  0  0  3  0  0  0  0  0  0
  183.7630  173.9170  137.9160 C   0  0  0  0  0  2  0  0  0  0  0  0
  187.8340  178.0570  142.3190 N   0  0  0  0  0  2  0  0  0  0  0  0
  187.9180  177.5020  144.6760 C   0  0  0  0  0  1  0  0  0  0  0  0
  187.9030  176.9540  143.2670 C   0  0  0  0  0  3  0  0  0  0  0  0
  189.1680  176.1500  143.0300 C   0  0  0  0  0  1  0  0  0  0  0  0
  1  2  2  0  0  0  0
  1  8  1  0  0  0  0
  2  7  1  0  0  0  0
  4  1  1  0  0  0  0
  5 16  2  0  0  0  0
  6 13  1  0  0  0  0
  7  3  1  0  0  0  0
  7 10  2  0  0  0  0
  8 14  2  0  0  0  0
  9 22  1  1  0  0  0
  9 11  1  0  0  0  0
  9  2  1  0  0  0  0
 11 12  1  0  0  0  0
 12  3  1  0  0  0  0
 13 19  1  0  0  0  0
 14 10  1  0  0  0  0
 14 33  1  0  0  0  0
 15  8  1  0  0  0  0
 16 20  1  0  0  0  0
 16  6  1  0  0  0  0
 17 15  2  0  0  0  0
 19 18  1  6  0  0  0
 19 15  1  0  0  0  0
 20  4  1  0  0  0  0
 22 29  1  0  0  0  0
 23 30  1  0  0  0  0
 24 23  2  0  0  0  0
 24 25  1  0  0  0  0
 25 22  2  0  0  0  0
 26 27  2  0  0  0  0
 27 28  2  0  0  0  0
 27 32  1  0  0  0  0
 30 32  1  0  0  0  0
 30 29  2  0  0  0  0
 31 21  1  1  0  0  0
 31 23  1  0  0  0  0
 31 27  1  0  0  0  0
 33 35  1  0  0  0  0
 35 34  1  0  0  0  0
 36 35  1  0  0  0  0
M  END
>  <MODEL>
2

>  <REMARK>
 VINA RESULT:      -7.5      1.958      3.073
  Name = 
  3 active torsions:
  status: ('A' for Active; 'I' for Inactive)
    1  A    between atoms: C_2  and  C_18
    2  A    between atoms: N_10  and  C_17
    3  A    between atoms: N_10  and  C_24
                            x       y       z     vdW  Elec       q    Type
                         _______ _______ _______ _____ _____    ______ ____

>  <TORSDO>
F 3

$$$$
=
 OpenBabel11062417133D

 36 40  0  0  1  0  0  0  0  0999 V2000
  186.0820  178.6260  139.7080 C   0  0  0  0  0  0  0  0  0  0  0  0
  184.9980  178.6740  140.6100 C   0  0  0  0  0  0  0  0  0  0  0  0
  184.1380  178.4890  142.9110 N   0  0  0  0  0  2  0  0  0  0  0  0
  185.8350  178.8290  138.2360 C   0  0  0  0  0  2  0  0  0  0  0  0
  186.7050  177.9390  135.4260 O   0  0  0  0  0  0  0  0  0  0  0  0
  188.1100  176.6230  136.7760 C   0  0  0  0  0  2  0  0  0  0  0  0
  185.2180  178.4170  141.9750 C   0  0  0  0  0  0  0  0  0  0  0  0
  187.3870  178.3340  140.1830 C   0  0  0  0  0  0  0  0  0  0  0  0
  183.5880  178.9640  140.1260 C   0  0  2  0  0  3  0  0  0  0  0  0
  186.5020  178.1450  142.4370 C   0  0  0  0  0  3  0  0  0  0  0  0
  182.6850  179.5160  141.2350 C   0  0  0  0  0  2  0  0  0  0  0  0
  182.7530  178.6300  142.4750 C   0  0  0  0  0  2  0  0  0  0  0  0
  188.1140  176.0730  138.0720 O   0  0  0  0  0  0  0  0  0  0  0  0
  187.5920  178.1080  141.5690 C   0  0  0  0  0  0  0  0  0  0  0  0
  188.4890  178.1840  139.2140 C   0  0  0  0  0  0  0  0  0  0  0  0
  186.8430  177.3820  136.5030 C   0  0  0  0  0  0  0  0  0  0  0  0
  188.9180  179.1930  138.5910 O   0  0  0  0  0  0  0  0  0  0  0  0
  190.3020  176.8440  138.3550 O   0  0  0  0  0  1  0  0  0  0  0  0
  189.0060  176.8100  138.8860 C   0  0  2  0  0  3  0  0  0  0  0  0
  185.7560  177.4840  137.5270 C   0  0  0  0  0  2  0  0  0  0  0  0
  182.1280  173.6510  136.8340 O   0  0  0  0  0  1  0  0  0  0  0  0
  182.9640  177.7890  139.4300 C   0  0  0  0  0  0  0  0  0  0  0  0
  181.8040  175.6290  138.0810 C   0  0  0  0  0  0  0  0  0  0  0  0
  182.4740  175.4060  139.2880 C   0  0  0  0  0  3  0  0  0  0  0  0
  183.0540  176.4880  139.9600 C   0  0  0  0  0  3  0  0  0  0  0  0
  178.9370  175.2960  135.9310 O   0  0  0  0  0  0  0  0  0  0  0  0
  180.4350  175.4090  135.9170 S   0  0  0  0  0  0  0  0  0  0  0  0
  180.9900  174.9470  134.5990 O   0  0  0  0  0  0  0  0  0  0  0  0
  182.2760  178.0030  138.2280 C   0  0  0  0  0  3  0  0  0  0  0  0
  181.7020  176.9220  137.5600 C   0  0  0  0  0  0  0  0  0  0  0  0
  181.1570  174.5450  137.2920 C   0  0  1  0  0  3  0  0  0  0  0  0
  180.9530  177.0650  136.2840 C   0  0  0  0  0  2  0  0  0  0  0  0
  188.8790  177.8450  142.1520 N   0  0  0  0  0  2  0  0  0  0  0  0
  189.6540  177.9860  144.4440 C   0  0  0  0  0  1  0  0  0  0  0  0
  189.1310  177.0700  143.3590 C   0  0  0  0  0  3  0  0  0  0  0  0
  190.1600  175.9940  143.0750 C   0  0  0  0  0  1  0  0  0  0  0  0
  1  8  2  0  0  0  0
  1  2  1  0  0  0  0
  2  7  2  0  0  0  0
  4  1  1  0  0  0  0
  5 16  2  0  0  0  0
  6 13  1  0  0  0  0
  7 10  1  0  0  0  0
  7  3  1  0  0  0  0
  8 14  1  0  0  0  0
  9 22  1  1  0  0  0
  9  2  1  0  0  0  0
  9 11  1  0  0  0  0
 11 12  1  0  0  0  0
 12  3  1  0  0  0  0
 13 19  1  0  0  0  0
 14 33  1  0  0  0  0
 14 10  2  0  0  0  0
 15  8  1  0  0  0  0
 16  6  1  0  0  0  0
 16 20  1  0  0  0  0
 17 15  2  0  0  0  0
 19 18  1  6  0  0  0
 19 15  1  0  0  0  0
 20  4  1  0  0  0  0
 22 25  1  0  0  0  0
 23 24  1  0  0  0  0
 24 25  2  0  0  0  0
 27 26  2  0  0  0  0
 27 32  1  0  0  0  0
 27 31  1  0  0  0  0
 28 27  2  0  0  0  0
 29 22  2  0  0  0  0
 30 23  2  0  0  0  0
 30 29  1  0  0  0  0
 31 21  1  6  0  0  0
 31 23  1  0  0  0  0
 32 30  1  0  0  0  0
 33 35  1  0  0  0  0
 35 34  1  0  0  0  0
 36 35  1  0  0  0  0
M  END
>  <MODEL>
3

>  <REMARK>
 VINA RESULT:      -7.3      2.419      3.763
  Name = 
  3 active torsions:
  status: ('A' for Active; 'I' for Inactive)
    1  A    between atoms: C_2  and  C_18
    2  A    between atoms: N_10  and  C_17
    3  A    between atoms: N_10  and  C_24
                            x       y       z     vdW  Elec       q    Type
                         _______ _______ _______ _____ _____    ______ ____

>  <TORSDO>
F 3

$$$$
=
 OpenBabel11062417133D

 36 40  0  0  1  0  0  0  0  0999 V2000
  187.2800  178.6370  143.0910 C   0  0  0  0  0  0  0  0  0  0  0  0
  185.9500  178.7910  143.5400 C   0  0  0  0  0  0  0  0  0  0  0  0
  184.2330  178.4120  145.2660 N   0  0  0  0  0  2  0  0  0  0  0  0
  187.6710  179.1590  141.7340 C   0  0  0  0  0  2  0  0  0  0  0  0
  189.4240  178.6050  139.2710 O   0  0  0  0  0  0  0  0  0  0  0  0
  189.9480  176.7580  140.6290 C   0  0  0  0  0  2  0  0  0  0  0  0
  185.5680  178.2430  144.7780 C   0  0  0  0  0  0  0  0  0  0  0  0
  188.2240  177.9480  143.8950 C   0  0  0  0  0  0  0  0  0  0  0  0
  184.9140  179.5060  142.6920 C   0  0  2  0  0  3  0  0  0  0  0  0
  186.5020  177.5800  145.5690 C   0  0  0  0  0  3  0  0  0  0  0  0
  183.7480  180.0550  143.5230 C   0  0  0  0  0  2  0  0  0  0  0  0
  183.1760  178.9700  144.4300 C   0  0  0  0  0  2  0  0  0  0  0  0
  189.3500  175.9990  141.6530 O   0  0  0  0  0  0  0  0  0  0  0  0
  187.8240  177.4310  145.1550 C   0  0  0  0  0  0  0  0  0  0  0  0
  189.5790  177.7060  143.3650 C   0  0  0  0  0  0  0  0  0  0  0  0
  189.0340  177.8460  140.1430 C   0  0  0  0  0  0  0  0  0  0  0  0
  190.3770  178.6710  143.2190 O   0  0  0  0  0  0  0  0  0  0  0  0
  191.3410  176.1340  142.8690 O   0  0  0  0  0  1  0  0  0  0  0  0
  189.9540  176.3300  142.8890 C   0  0  2  0  0  3  0  0  0  0  0  0
  187.6620  178.0280  140.7150 C   0  0  0  0  0  2  0  0  0  0  0  0
  183.6000  175.0220  138.2910 O   0  0  0  0  0  1  0  0  0  0  0  0
  184.4340  178.6700  141.5400 C   0  0  0  0  0  0  0  0  0  0  0  0
  183.5920  177.1240  139.3660 C   0  0  0  0  0  0  0  0  0  0  0  0
  183.0560  176.8770  140.6320 C   0  0  0  0  0  3  0  0  0  0  0  0
  183.4790  177.6510  141.7190 C   0  0  0  0  0  3  0  0  0  0  0  0
  183.2490  177.7750  135.8420 O   0  0  0  0  0  0  0  0  0  0  0  0
  184.1490  177.1280  136.8560 S   0  0  0  0  0  0  0  0  0  0  0  0
  185.0960  176.1700  136.1900 O   0  0  0  0  0  0  0  0  0  0  0  0
  184.9540  178.9190  140.2630 C   0  0  0  0  0  3  0  0  0  0  0  0
  184.5310  178.1430  139.1830 C   0  0  0  0  0  0  0  0  0  0  0  0
  183.2080  176.3550  138.1500 C   0  0  1  0  0  3  0  0  0  0  0  0
  185.0290  178.3460  137.7980 C   0  0  0  0  0  2  0  0  0  0  0  0
  188.7150  176.7530  146.0570 N   0  0  0  0  0  2  0  0  0  0  0  0
  190.7560  176.3780  147.3080 C   0  0  0  0  0  1  0  0  0  0  0  0
  189.6900  177.3840  146.9350 C   0  0  0  0  0  3  0  0  0  0  0  0
  189.0060  177.8780  148.1950 C   0  0  0  0  0  1  0  0  0  0  0  0
  1  2  2  0  0  0  0
  1  8  1  0  0  0  0
  2  7  1  0  0  0  0
  4  1  1  0  0  0  0
  5 16  2  0  0  0  0
  6 13  1  0  0  0  0
  7  3  1  0  0  0  0
  7 10  2  0  0  0  0
  8 14  2  0  0  0  0
  9 22  1  6  0  0  0
  9 11  1  0  0  0  0
  9  2  1  0  0  0  0
 11 12  1  0  0  0  0
 12  3  1  0  0  0  0
 13 19  1  0  0  0  0
 14 10  1  0  0  0  0
 14 33  1  0  0  0  0
 15  8  1  0  0  0  0
 16  6  1  0  0  0  0
 16 20  1  0  0  0  0
 17 15  2  0  0  0  0
 19 18  1  6  0  0  0
 19 15  1  0  0  0  0
 20  4  1  0  0  0  0
 22 25  1  0  0  0  0
 23 24  1  0  0  0  0
 24 25  2  0  0  0  0
 26 27  2  0  0  0  0
 27 32  1  0  0  0  0
 27 31  1  0  0  0  0
 28 27  2  0  0  0  0
 29 22  2  0  0  0  0
 30 23  2  0  0  0  0
 30 29  1  0  0  0  0
 31 21  1  1  0  0  0
 31 23  1  0  0  0  0
 32 30  1  0  0  0  0
 33 35  1  0  0  0  0
 35 34  1  0  0  0  0
 35 36  1  0  0  0  0
M  END
>  <MODEL>
4

>  <REMARK>
 VINA RESULT:      -7.1      1.818      3.054
  Name = 
  3 active torsions:
  status: ('A' for Active; 'I' for Inactive)
    1  A    between atoms: C_2  and  C_18
    2  A    between atoms: N_10  and  C_17
    3  A    between atoms: N_10  and  C_24
                            x       y       z     vdW  Elec       q    Type
                         _______ _______ _______ _____ _____    ______ ____

>  <TORSDO>
F 3

$$$$
=
 OpenBabel11062417133D

 36 40  0  0  1  0  0  0  0  0999 V2000
  187.5850  178.3600  140.9140 C   0  0  0  0  0  0  0  0  0  0  0  0
  186.6520  178.4730  141.9670 C   0  0  0  0  0  0  0  0  0  0  0  0
  185.9090  177.8290  144.2270 N   0  0  0  0  0  2  0  0  0  0  0  0
  187.3580  179.1220  139.6350 C   0  0  0  0  0  2  0  0  0  0  0  0
  187.6680  178.9940  136.5800 O   0  0  0  0  0  0  0  0  0  0  0  0
  188.5280  176.8990  137.2140 C   0  0  0  0  0  2  0  0  0  0  0  0
  186.8270  177.7090  143.1360 C   0  0  0  0  0  0  0  0  0  0  0  0
  188.7000  177.4930  141.0450 C   0  0  0  0  0  0  0  0  0  0  0  0
  185.4390  179.3780  141.8470 C   0  0  2  0  0  3  0  0  0  0  0  0
  187.9300  176.8700  143.2640 C   0  0  0  0  0  3  0  0  0  0  0  0
  184.8780  179.7980  143.2100 C   0  0  0  0  0  2  0  0  0  0  0  0
  184.6640  178.5790  144.1020 C   0  0  0  0  0  2  0  0  0  0  0  0
  188.3890  175.9780  138.2700 O   0  0  0  0  0  0  0  0  0  0  0  0
  188.8740  176.7550  142.2450 C   0  0  0  0  0  0  0  0  0  0  0  0
  189.6060  177.3080  139.8960 C   0  0  0  0  0  0  0  0  0  0  0  0
  187.6380  178.0940  137.4040 C   0  0  0  0  0  0  0  0  0  0  0  0
  190.3570  178.2530  139.5320 O   0  0  0  0  0  0  0  0  0  0  0  0
  190.7160  175.7990  138.3760 O   0  0  0  0  0  1  0  0  0  0  0  0
  189.5360  176.0380  139.0940 C   0  0  2  0  0  3  0  0  0  0  0  0
  186.7300  178.2130  138.5880 C   0  0  0  0  0  2  0  0  0  0  0  0
  181.8740  176.3390  137.4590 O   0  0  0  0  0  1  0  0  0  0  0  0
  184.3740  178.8020  140.9580 C   0  0  0  0  0  0  0  0  0  0  0  0
  182.4040  177.7700  139.2610 C   0  0  0  0  0  0  0  0  0  0  0  0
  182.9900  176.9370  140.2180 C   0  0  0  0  0  3  0  0  0  0  0  0
  183.9760  177.4550  141.0660 C   0  0  0  0  0  3  0  0  0  0  0  0
  179.5350  179.2040  137.6260 O   0  0  0  0  0  0  0  0  0  0  0  0
  180.9570  178.7780  137.3910 S   0  0  0  0  0  0  0  0  0  0  0  0
  181.2270  178.6160  135.9210 O   0  0  0  0  0  0  0  0  0  0  0  0
  183.7690  179.6310  140.0040 C   0  0  0  0  0  3  0  0  0  0  0  0
  182.7890  179.1090  139.1600 C   0  0  0  0  0  0  0  0  0  0  0  0
  181.3500  177.3110  138.3130 C   0  0  1  0  0  3  0  0  0  0  0  0
  182.0950  179.9220  138.1270 C   0  0  0  0  0  2  0  0  0  0  0  0
  189.9890  175.8810  142.4880 N   0  0  0  0  0  2  0  0  0  0  0  0
  191.6800  175.5500  144.1920 C   0  0  0  0  0  1  0  0  0  0  0  0
  191.3190  176.2880  142.9220 C   0  0  0  0  0  3  0  0  0  0  0  0
  191.3390  177.7810  143.1900 C   0  0  0  0  0  1  0  0  0  0  0  0
  1  8  2  0  0  0  0
  1  2  1  0  0  0  0
  2  7  2  0  0  0  0
  4  1  1  0  0  0  0
  5 16  2  0  0  0  0
  6 16  1  0  0  0  0
  6 13  1  0  0  0  0
  7 10  1  0  0  0  0
  7  3  1  0  0  0  0
  8 14  1  0  0  0  0
  9 22  1  1  0  0  0
  9  2  1  0  0  0  0
  9 11  1  0  0  0  0
 11 12  1  0  0  0  0
 12  3  1  0  0  0  0
 13 19  1  0  0  0  0
 14 33  1  0  0  0  0
 14 10  2  0  0  0  0
 15  8  1  0  0  0  0
 16 20  1  0  0  0  0
 17 15  2  0  0  0  0
 19 18  1  6  0  0  0
 19 15  1  0  0  0  0
 20  4  1  0  0  0  0
 22 25  1  0  0  0  0
 23 24  1  0  0  0  0
 24 25  2  0  0  0  0
 27 26  2  0  0  0  0
 27 32  1  0  0  0  0
 27 31  1  0  0  0  0
 28 27  2  0  0  0  0
 29 22  2  0  0  0  0
 30 23  2  0  0  0  0
 30 29  1  0  0  0  0
 31 21  1  6  0  0  0
 31 23  1  0  0  0  0
 32 30  1  0  0  0  0
 33 35  1  0  0  0  0
 35 36  1  0  0  0  0
 35 34  1  0  0  0  0
M  END
>  <MODEL>
5

>  <REMARK>
 VINA RESULT:      -7.0      2.723      4.357
  Name = 
  3 active torsions:
  status: ('A' for Active; 'I' for Inactive)
    1  A    between atoms: C_2  and  C_18
    2  A    between atoms: N_10  and  C_17
    3  A    between atoms: N_10  and  C_24
                            x       y       z     vdW  Elec       q    Type
                         _______ _______ _______ _____ _____    ______ ____

>  <TORSDO>
F 3

$$$$
=
 OpenBabel11062417133D

 36 40  0  0  1  0  0  0  0  0999 V2000
  188.1100  178.2570  140.6660 C   0  0  0  0  0  0  0  0  0  0  0  0
  187.3250  178.3690  139.4980 C   0  0  0  0  0  0  0  0  0  0  0  0
  185.1080  178.5140  138.4330 N   0  0  0  0  0  2  0  0  0  0  0  0
  189.6090  178.1790  140.5490 C   0  0  0  0  0  2  0  0  0  0  0  0
  192.1290  176.8910  141.7470 O   0  0  0  0  0  0  0  0  0  0  0  0
  190.4510  175.9560  143.1030 C   0  0  0  0  0  2  0  0  0  0  0  0
  185.9220  178.3730  139.6020 C   0  0  0  0  0  0  0  0  0  0  0  0
  187.4830  178.1660  141.9350 C   0  0  0  0  0  0  0  0  0  0  0  0
  187.9690  178.4480  138.1250 C   0  0  2  0  0  3  0  0  0  0  0  0
  185.3130  178.2970  140.8500 C   0  0  0  0  0  3  0  0  0  0  0  0
  187.0570  179.1050  137.0820 C   0  0  0  0  0  2  0  0  0  0  0  0
  185.6760  178.4570  137.0910 C   0  0  0  0  0  2  0  0  0  0  0  0
  189.0810  175.6430  143.0200 O   0  0  0  0  0  0  0  0  0  0  0  0
  186.0660  178.2040  142.0190 C   0  0  0  0  0  0  0  0  0  0  0  0
  188.3140  177.9440  143.1340 C   0  0  0  0  0  0  0  0  0  0  0  0
  190.9620  176.5450  141.8190 C   0  0  0  0  0  0  0  0  0  0  0  0
  189.0710  178.8620  143.5500 O   0  0  0  0  0  0  0  0  0  0  0  0
  188.7610  176.6360  145.1100 O   0  0  0  0  0  1  0  0  0  0  0  0
  188.3420  176.5840  143.7740 C   0  0  2  0  0  3  0  0  0  0  0  0
  190.0670  176.7290  140.6330 C   0  0  0  0  0  2  0  0  0  0  0  0
  190.3860  173.3880  135.0030 O   0  0  0  0  0  1  0  0  0  0  0  0
  188.4890  177.1200  137.6540 C   0  0  0  0  0  0  0  0  0  0  0  0
  189.4070  174.6370  136.7510 C   0  0  0  0  0  0  0  0  0  0  0  0
  190.3290  175.6500  137.0270 C   0  0  0  0  0  3  0  0  0  0  0  0
  189.8680  176.8920  137.4780 C   0  0  0  0  0  3  0  0  0  0  0  0
  188.1930  171.2650  137.0970 O   0  0  0  0  0  0  0  0  0  0  0  0
  188.2490  172.4240  136.1410 S   0  0  0  0  0  0  0  0  0  0  0  0
  187.9600  171.9700  134.7380 O   0  0  0  0  0  0  0  0  0  0  0  0
  187.5760  176.0920  137.3890 C   0  0  0  0  0  3  0  0  0  0  0  0
  188.0400  174.8560  136.9360 C   0  0  0  0  0  0  0  0  0  0  0  0
  189.7990  173.2840  136.2650 C   0  0  1  0  0  3  0  0  0  0  0  0
  187.1370  173.7140  136.6370 C   0  0  0  0  0  2  0  0  0  0  0  0
  185.3400  178.1570  143.2590 N   0  0  0  0  0  2  0  0  0  0  0  0
  185.4400  179.1560  145.4640 C   0  0  0  0  0  1  0  0  0  0  0  0
  184.9220  179.3050  144.0510 C   0  0  0  0  0  3  0  0  0  0  0  0
  183.4080  179.3860  144.0800 C   0  0  0  0  0  1  0  0  0  0  0  0
  1  8  1  0  0  0  0
  2  7  1  0  0  0  0
  2  1  2  0  0  0  0
  3  7  1  0  0  0  0
  4 20  1  0  0  0  0
  4  1  1  0  0  0  0
  5 16  2  0  0  0  0
  7 10  2  0  0  0  0
  8 14  2  0  0  0  0
  8 15  1  0  0  0  0
  9 22  1  6  0  0  0
  9  2  1  0  0  0  0
 10 14  1  0  0  0  0
 11 12  1  0  0  0  0
 11  9  1  0  0  0  0
 12  3  1  0  0  0  0
 13  6  1  0  0  0  0
 13 19  1  0  0  0  0
 14 33  1  0  0  0  0
 15 17  2  0  0  0  0
 15 19  1  0  0  0  0
 16  6  1  0  0  0  0
 19 18  1  1  0  0  0
 20 16  1  0  0  0  0
 23 30  2  0  0  0  0
 23 24  1  0  0  0  0
 24 25  2  0  0  0  0
 25 22  1  0  0  0  0
 27 31  1  0  0  0  0
 27 32  1  0  0  0  0
 27 26  2  0  0  0  0
 28 27  2  0  0  0  0
 29 22  2  0  0  0  0
 30 29  1  0  0  0  0
 31 21  1  6  0  0  0
 31 23  1  0  0  0  0
 32 30  1  0  0  0  0
 33 35  1  0  0  0  0
 35 36  1  0  0  0  0
 35 34  1  0  0  0  0
M  END
>  <MODEL>
6

>  <REMARK>
 VINA RESULT:      -6.4      2.468      3.269
  Name = 
  3 active torsions:
  status: ('A' for Active; 'I' for Inactive)
    1  A    between atoms: C_2  and  C_18
    2  A    between atoms: N_10  and  C_17
    3  A    between atoms: N_10  and  C_24
                            x       y       z     vdW  Elec       q    Type
                         _______ _______ _______ _____ _____    ______ ____

>  <TORSDO>
F 3

$$$$
=
 OpenBabel11062417133D

 36 40  0  0  1  0  0  0  0  0999 V2000
  187.6130  178.3550  141.0980 C   0  0  0  0  0  0  0  0  0  0  0  0
  186.5280  178.4060  140.1960 C   0  0  0  0  0  0  0  0  0  0  0  0
  184.0980  178.3480  139.7880 N   0  0  0  0  0  2  0  0  0  0  0  0
  189.0210  178.4270  140.5710 C   0  0  0  0  0  2  0  0  0  0  0  0
  191.8810  177.3780  140.9750 O   0  0  0  0  0  0  0  0  0  0  0  0
  190.7380  176.2600  142.6990 C   0  0  0  0  0  2  0  0  0  0  0  0
  185.2140  178.2690  140.6810 C   0  0  0  0  0  0  0  0  0  0  0  0
  187.3730  178.1820  142.4860 C   0  0  0  0  0  0  0  0  0  0  0  0
  186.7550  178.5700  138.7040 C   0  0  2  0  0  3  0  0  0  0  0  0
  184.9850  178.1140  142.0450 C   0  0  0  0  0  3  0  0  0  0  0  0
  185.5340  179.1500  137.9810 C   0  0  0  0  0  2  0  0  0  0  0  0
  184.2750  178.3680  138.3410 C   0  0  0  0  0  2  0  0  0  0  0  0
  189.4320  175.8130  142.9810 O   0  0  0  0  0  0  0  0  0  0  0  0
  186.0380  178.0770  142.9570 C   0  0  0  0  0  0  0  0  0  0  0  0
  188.5210  178.0250  143.3990 C   0  0  0  0  0  0  0  0  0  0  0  0
  190.8160  176.9160  141.3500 C   0  0  0  0  0  0  0  0  0  0  0  0
  189.2760  179.0070  143.6310 O   0  0  0  0  0  0  0  0  0  0  0  0
  189.6160  176.7370  145.1200 O   0  0  0  0  0  1  0  0  0  0  0  0
  188.8500  176.6650  143.9490 C   0  0  2  0  0  3  0  0  0  0  0  0
  189.6150  177.0300  140.4640 C   0  0  0  0  0  2  0  0  0  0  0  0
  188.7010  172.6710  137.0890 O   0  0  0  0  0  1  0  0  0  0  0  0
  187.2440  177.3090  138.0530 C   0  0  0  0  0  0  0  0  0  0  0  0
  188.2090  174.9690  136.8610 C   0  0  0  0  0  0  0  0  0  0  0  0
  186.8480  175.0760  137.1610 C   0  0  0  0  0  3  0  0  0  0  0  0
  186.3680  176.2470  137.7580 C   0  0  0  0  0  3  0  0  0  0  0  0
  190.9170  174.2720  134.5940 O   0  0  0  0  0  0  0  0  0  0  0  0
  190.5250  174.2110  136.0430 S   0  0  0  0  0  0  0  0  0  0  0  0
  191.4400  173.2910  136.8020 O   0  0  0  0  0  0  0  0  0  0  0  0
  188.6040  177.1960  137.7330 C   0  0  0  0  0  3  0  0  0  0  0  0
  189.0790  176.0260  137.1410 C   0  0  0  0  0  0  0  0  0  0  0  0
  188.8150  173.7640  136.2280 C   0  0  1  0  0  3  0  0  0  0  0  0
  190.5040  175.8300  136.7660 C   0  0  0  0  0  2  0  0  0  0  0  0
  185.6920  177.9390  144.3450 N   0  0  0  0  0  2  0  0  0  0  0  0
  185.4130  178.6530  146.6440 C   0  0  0  0  0  1  0  0  0  0  0  0
  185.1260  178.9770  145.1950 C   0  0  0  0  0  3  0  0  0  0  0  0
  183.6260  179.0520  144.9870 C   0  0  0  0  0  1  0  0  0  0  0  0
  1  8  1  0  0  0  0
  2  7  1  0  0  0  0
  2  1  2  0  0  0  0
  3  7  1  0  0  0  0
  4  1  1  0  0  0  0
  5 16  2  0  0  0  0
  6 13  1  0  0  0  0
  7 10  2  0  0  0  0
  8 14  2  0  0  0  0
  8 15  1  0  0  0  0
  9 22  1  6  0  0  0
  9  2  1  0  0  0  0
 10 14  1  0  0  0  0
 11 12  1  0  0  0  0
 11  9  1  0  0  0  0
 12  3  1  0  0  0  0
 13 19  1  0  0  0  0
 14 33  1  0  0  0  0
 15 17  2  0  0  0  0
 15 19  1  0  0  0  0
 16  6  1  0  0  0  0
 19 18  1  1  0  0  0
 20  4  1  0  0  0  0
 20 16  1  0  0  0  0
 23 30  2  0  0  0  0
 23 24  1  0  0  0  0
 24 25  2  0  0  0  0
 25 22  1  0  0  0  0
 26 27  2  0  0  0  0
 27 31  1  0  0  0  0
 27 32  1  0  0  0  0
 27 28  2  0  0  0  0
 29 22  2  0  0  0  0
 30 29  1  0  0  0  0
 31 23  1  0  0  0  0
 31 21  1  1  0  0  0
 32 30  1  0  0  0  0
 33 35  1  0  0  0  0
 35 34  1  0  0  0  0
 36 35  1  0  0  0  0
M  END
>  <MODEL>
7

>  <REMARK>
 VINA RESULT:      -6.4      2.436      3.266
  Name = 
  3 active torsions:
  status: ('A' for Active; 'I' for Inactive)
    1  A    between atoms: C_2  and  C_18
    2  A    between atoms: N_10  and  C_17
    3  A    between atoms: N_10  and  C_24
                            x       y       z     vdW  Elec       q    Type
                         _______ _______ _______ _____ _____    ______ ____

>  <TORSDO>
F 3

$$$$
=
 OpenBabel11062417133D

 36 40  0  0  1  0  0  0  0  0999 V2000
  188.2940  178.3360  140.6440 C   0  0  0  0  0  0  0  0  0  0  0  0
  187.6040  178.4660  139.4200 C   0  0  0  0  0  0  0  0  0  0  0  0
  185.4770  178.5870  138.1810 N   0  0  0  0  0  2  0  0  0  0  0  0
  189.7990  178.3020  140.6490 C   0  0  0  0  0  2  0  0  0  0  0  0
  192.2500  177.0440  142.0100 O   0  0  0  0  0  0  0  0  0  0  0  0
  190.4960  176.0200  143.1940 C   0  0  0  0  0  2  0  0  0  0  0  0
  186.1970  178.4290  139.4080 C   0  0  0  0  0  0  0  0  0  0  0  0
  187.5680  178.1860  141.8540 C   0  0  0  0  0  0  0  0  0  0  0  0
  188.3540  178.6080  138.1080 C   0  0  2  0  0  3  0  0  0  0  0  0
  185.4910  178.2950  140.5990 C   0  0  0  0  0  3  0  0  0  0  0  0
  187.5110  179.2750  137.0140 C   0  0  0  0  0  2  0  0  0  0  0  0
  186.1540  178.5900  136.8900 C   0  0  0  0  0  2  0  0  0  0  0  0
  189.1460  175.6720  142.9880 O   0  0  0  0  0  0  0  0  0  0  0  0
  186.1490  178.1830  141.8230 C   0  0  0  0  0  0  0  0  0  0  0  0
  188.3050  177.9470  143.1100 C   0  0  0  0  0  0  0  0  0  0  0  0
  191.0910  176.6640  141.9750 C   0  0  0  0  0  0  0  0  0  0  0  0
  188.9980  178.8710  143.6150 O   0  0  0  0  0  0  0  0  0  0  0  0
  188.6280  176.5870  145.0750 O   0  0  0  0  0  1  0  0  0  0  0  0
  188.3220  176.5680  143.7080 C   0  0  2  0  0  3  0  0  0  0  0  0
  190.2910  176.8640  140.7260 C   0  0  0  0  0  2  0  0  0  0  0  0
  190.8160  172.7300  137.3470 O   0  0  0  0  0  1  0  0  0  0  0  0
  188.9500  177.3110  137.6410 C   0  0  0  0  0  0  0  0  0  0  0  0
  190.1150  174.9140  136.7900 C   0  0  0  0  0  0  0  0  0  0  0  0
  188.7530  174.9430  137.1000 C   0  0  0  0  0  3  0  0  0  0  0  0
  188.1730  176.1430  137.5270 C   0  0  0  0  0  3  0  0  0  0  0  0
  192.8570  174.1280  134.5940 O   0  0  0  0  0  0  0  0  0  0  0  0
  192.4840  174.2510  136.0440 S   0  0  0  0  0  0  0  0  0  0  0  0
  193.4850  173.5400  136.9120 O   0  0  0  0  0  0  0  0  0  0  0  0
  190.3120  177.2730  137.3120 C   0  0  0  0  0  3  0  0  0  0  0  0
  190.8870  176.0740  136.8900 C   0  0  0  0  0  0  0  0  0  0  0  0
  190.8240  173.6870  136.3310 C   0  0  1  0  0  3  0  0  0  0  0  0
  192.3210  175.9520  136.5190 C   0  0  0  0  0  2  0  0  0  0  0  0
  185.3270  178.0760  142.9960 N   0  0  0  0  0  2  0  0  0  0  0  0
  185.0260  179.0880  145.1770 C   0  0  0  0  0  1  0  0  0  0  0  0
  184.6950  179.1800  143.7050 C   0  0  0  0  0  3  0  0  0  0  0  0
  183.1900  179.1140  143.5260 C   0  0  0  0  0  1  0  0  0  0  0  0
  1  4  1  0  0  0  0
  1  8  1  0  0  0  0
  2  1  2  0  0  0  0
  3  7  1  0  0  0  0
  4 20  1  0  0  0  0
  7  2  1  0  0  0  0
  7 10  2  0  0  0  0
  8 15  1  0  0  0  0
  9 22  1  6  0  0  0
  9  2  1  0  0  0  0
 10 14  1  0  0  0  0
 11  9  1  0  0  0  0
 12 11  1  0  0  0  0
 12  3  1  0  0  0  0
 13  6  1  0  0  0  0
 13 19  1  0  0  0  0
 14  8  2  0  0  0  0
 14 33  1  0  0  0  0
 15 17  2  0  0  0  0
 15 19  1  0  0  0  0
 16  5  2  0  0  0  0
 16  6  1  0  0  0  0
 19 18  1  1  0  0  0
 20 16  1  0  0  0  0
 23 30  2  0  0  0  0
 23 24  1  0  0  0  0
 24 25  2  0  0  0  0
 25 22  1  0  0  0  0
 26 27  2  0  0  0  0
 27 31  1  0  0  0  0
 27 32  1  0  0  0  0
 27 28  2  0  0  0  0
 29 22  2  0  0  0  0
 30 29  1  0  0  0  0
 31 23  1  0  0  0  0
 31 21  1  1  0  0  0
 32 30  1  0  0  0  0
 33 35  1  0  0  0  0
 35 34  1  0  0  0  0
 36 35  1  0  0  0  0
M  END
>  <MODEL>
8

>  <REMARK>
 VINA RESULT:      -6.2      3.184      4.567
  Name = 
  3 active torsions:
  status: ('A' for Active; 'I' for Inactive)
    1  A    between atoms: C_2  and  C_18
    2  A    between atoms: N_10  and  C_17
    3  A    between atoms: N_10  and  C_24
                            x       y       z     vdW  Elec       q    Type
                         _______ _______ _______ _____ _____    ______ ____

>  <TORSDO>
F 3

$$$$
=
 OpenBabel11062417133D

 36 40  0  0  1  0  0  0  0  0999 V2000
  186.3150  176.8930  137.4420 C   0  0  0  0  0  0  0  0  0  0  0  0
  187.6300  176.3790  137.4480 C   0  0  0  0  0  0  0  0  0  0  0  0
  189.1650  174.4650  137.2170 N   0  0  0  0  0  2  0  0  0  0  0  0
  186.0860  178.3530  137.7350 C   0  0  0  0  0  2  0  0  0  0  0  0
  184.1800  180.3440  139.0930 O   0  0  0  0  0  0  0  0  0  0  0  0
  183.0980  178.3030  139.5350 C   0  0  0  0  0  2  0  0  0  0  0  0
  187.8380  175.0030  137.2430 C   0  0  0  0  0  0  0  0  0  0  0  0
  185.2160  176.0250  137.2140 C   0  0  0  0  0  0  0  0  0  0  0  0
  188.8230  177.2810  137.7100 C   0  0  2  0  0  3  0  0  0  0  0  0
  186.7580  174.1590  137.0060 C   0  0  0  0  0  3  0  0  0  0  0  0
  190.1290  176.7100  137.1450 C   0  0  0  0  0  2  0  0  0  0  0  0
  190.3240  175.2660  137.5950 C   0  0  0  0  0  2  0  0  0  0  0  0
  183.4310  176.9430  139.6780 O   0  0  0  0  0  0  0  0  0  0  0  0
  185.4520  174.6460  136.9790 C   0  0  0  0  0  0  0  0  0  0  0  0
  183.8450  176.5600  137.3160 C   0  0  0  0  0  0  0  0  0  0  0  0
  184.3140  179.1430  139.2660 C   0  0  0  0  0  0  0  0  0  0  0  0
  183.4190  177.3630  136.4420 O   0  0  0  0  0  0  0  0  0  0  0  0
  181.6410  176.3930  138.2810 O   0  0  0  0  0  1  0  0  0  0  0  0
  183.0120  176.2380  138.5250 C   0  0  2  0  0  3  0  0  0  0  0  0
  185.6810  178.5390  139.1900 C   0  0  0  0  0  2  0  0  0  0  0  0
  190.5990  179.1960  143.5720 O   0  0  0  0  0  1  0  0  0  0  0  0
  188.9570  177.6560  139.1570 C   0  0  0  0  0  0  0  0  0  0  0  0
  189.2350  178.3020  141.8650 C   0  0  0  0  0  0  0  0  0  0  0  0
  189.1220  179.3270  140.9230 C   0  0  0  0  0  3  0  0  0  0  0  0
  188.9850  179.0020  139.5690 C   0  0  0  0  0  3  0  0  0  0  0  0
  188.2500  176.6730  144.9200 O   0  0  0  0  0  0  0  0  0  0  0  0
  189.4280  176.9100  144.0180 S   0  0  0  0  0  0  0  0  0  0  0  0
  190.7150  176.6280  144.7400 O   0  0  0  0  0  0  0  0  0  0  0  0
  189.0560  176.6360  140.1130 C   0  0  0  0  0  3  0  0  0  0  0  0
  189.1960  176.9650  141.4620 C   0  0  0  0  0  0  0  0  0  0  0  0
  189.3870  178.5470  143.3270 C   0  0  1  0  0  3  0  0  0  0  0  0
  189.3010  175.9440  142.5360 C   0  0  0  0  0  2  0  0  0  0  0  0
  184.4100  173.6960  136.7000 N   0  0  0  0  0  2  0  0  0  0  0  0
  184.6730  171.8610  135.1390 C   0  0  0  0  0  1  0  0  0  0  0  0
  184.5710  172.2520  136.5960 C   0  0  0  0  0  3  0  0  0  0  0  0
  183.3770  171.5550  137.2180 C   0  0  0  0  0  1  0  0  0  0  0  0
  1  2  1  0  0  0  0
  1  4  1  0  0  0  0
  2  9  1  0  0  0  0
  3  7  1  0  0  0  0
  3 12  1  0  0  0  0
  4 20  1  0  0  0  0
  5 16  2  0  0  0  0
  6 13  1  0  0  0  0
  7  2  2  0  0  0  0
  8 15  1  0  0  0  0
  8  1  2  0  0  0  0
  9 22  1  1  0  0  0
 10  7  1  0  0  0  0
 11 12  1  0  0  0  0
 11  9  1  0  0  0  0
 14 10  2  0  0  0  0
 14  8  1  0  0  0  0
 15 19  1  0  0  0  0
 16  6  1  0  0  0  0
 17 15  2  0  0  0  0
 19 18  1  6  0  0  0
 19 13  1  0  0  0  0
 20 16  1  0  0  0  0
 22 25  2  0  0  0  0
 22 29  1  0  0  0  0
 23 31  1  0  0  0  0
 24 23  2  0  0  0  0
 25 24  1  0  0  0  0
 27 28  2  0  0  0  0
 27 26  2  0  0  0  0
 29 30  2  0  0  0  0
 30 23  1  0  0  0  0
 30 32  1  0  0  0  0
 31 21  1  6  0  0  0
 31 27  1  0  0  0  0
 32 27  1  0  0  0  0
 33 14  1  0  0  0  0
 34 35  1  0  0  0  0
 35 33  1  0  0  0  0
 35 36  1  0  0  0  0
M  END
>  <MODEL>
9

>  <REMARK>
 VINA RESULT:      -6.0      3.509      8.002
  Name = 
  3 active torsions:
  status: ('A' for Active; 'I' for Inactive)
    1  A    between atoms: C_2  and  C_18
    2  A    between atoms: N_10  and  C_17
    3  A    between atoms: N_10  and  C_24
                            x       y       z     vdW  Elec       q    Type
                         _______ _______ _______ _____ _____    ______ ____

>  <TORSDO>
F 3

$$$$
