=
 OpenBabel11062413323D

 28 30  0  0  0  0  0  0  0  0999 V2000
  184.9370  178.7120  145.7230 C   0  0  0  0  0  0  0  0  0  0  0  0
  183.5440  178.8190  143.7210 C   0  0  0  0  0  3  0  0  0  0  0  0
  187.2550  178.1340  145.3000 O   0  0  0  0  0  0  0  0  0  0  0  0
  187.1380  177.9210  143.1060 C   0  0  0  0  0  0  0  0  0  0  0  0
  184.6290  178.4640  142.8920 C   0  0  0  0  0  0  0  0  0  0  0  0
  186.0120  178.3680  144.9100 C   0  0  0  0  0  0  0  0  0  0  0  0
  187.9270  177.8670  144.2020 C   0  0  0  0  0  0  0  0  0  0  0  0
  185.8670  178.2450  143.5300 C   0  0  0  0  0  0  0  0  0  0  0  0
  183.6930  178.9410  145.1170 C   0  0  0  0  0  3  0  0  0  0  0  0
  189.4840  177.3770  142.5930 C   0  0  0  0  0  0  0  0  0  0  0  0
  189.2680  177.5590  143.9750 C   0  0  0  0  0  0  0  0  0  0  0  0
  185.0890  178.8320  147.0980 O   0  0  0  0  0  1  0  0  0  0  0  0
  190.7810  177.0430  141.9420 C   0  0  0  0  0  1  0  0  0  0  0  0
  188.0310  177.6030  141.7240 S   0  0  0  0  0  0  0  0  0  0  0  0
  191.4290  177.9680  144.8770 O   0  0  0  0  0  0  0  0  0  0  0  0
  189.9860  176.7630  146.2520 N   0  0  0  0  0  2  0  0  0  0  0  0
  190.2890  177.4530  145.0370 C   0  0  0  0  0  0  0  0  0  0  0  0
  190.9540  176.6300  147.3270 C   0  0  0  0  0  1  0  0  0  0  0  0
  185.0380  179.2570  140.5400 N   0  0  0  0  0  2  0  0  0  0  0  0
  183.6520  177.4400  140.9750 O   0  0  0  0  0  0  0  0  0  0  0  0
  184.4070  178.3360  141.4360 C   0  0  0  0  0  0  0  0  0  0  0  0
  184.8860  179.1810  139.0950 C   0  0  0  0  0  2  0  0  0  0  0  0
  185.8770  178.1860  138.5220 C   0  0  0  0  0  2  0  0  0  0  0  0
  186.6630  178.8290  137.4840 N   0  0  0  0  0  2  0  0  0  0  0  0
  189.0680  178.2480  136.1320 O   0  0  0  0  0  0  0  0  0  0  0  0
  189.0760  179.1510  138.5900 O   0  0  0  0  0  1  0  0  0  0  0  0
  188.3110  178.2520  137.6450 P   0  0  0  0  0  0  0  0  0  0  0  0
  188.2940  176.6800  138.2640 O   0  0  0  0  0  1  0  0  0  0  0  0
  1 12  1  0  0  0  0
  2  9  2  0  0  0  0
  4  8  1  0  0  0  0
  4  7  2  0  0  0  0
  5  8  2  0  0  0  0
  5  2  1  0  0  0  0
  6  3  1  0  0  0  0
  6  1  2  0  0  0  0
  7  3  1  0  0  0  0
  8  6  1  0  0  0  0
  9  1  1  0  0  0  0
 10 11  2  0  0  0  0
 11  7  1  0  0  0  0
 11 17  1  0  0  0  0
 13 10  1  0  0  0  0
 14 10  1  0  0  0  0
 14  4  1  0  0  0  0
 15 17  2  0  0  0  0
 16 18  1  0  0  0  0
 17 16  1  0  0  0  0
 19 21  1  0  0  0  0
 20 21  2  0  0  0  0
 21  5  1  0  0  0  0
 22 19  1  0  0  0  0
 23 22  1  0  0  0  0
 24 27  1  0  0  0  0
 24 23  1  0  0  0  0
 25 27  2  0  0  0  0
 27 28  1  0  0  0  0
 27 26  1  0  0  0  0
M  END
>  <MODEL>
1

>  <REMARK>
 VINA RESULT:      -8.7      0.000      0.000
  Name = 
  6 active torsions:
  status: ('A' for Active; 'I' for Inactive)
    1  A    between atoms: C_2  and  C_16
    2  A    between atoms: C_2  and  N_25
    3  A    between atoms: N_3  and  C_16
    4  A    between atoms: C_9  and  C_14
    5  A    between atoms: P_18  and  N_25
    6  A    between atoms: C_20  and  C_23
                            x       y       z     vdW  Elec       q    Type
                         _______ _______ _______ _____ _____    ______ ____

>  <TORSDO>
F 6

$$$$
=
 OpenBabel11062413323D

 28 30  0  0  0  0  0  0  0  0999 V2000
  184.0330  178.6590  142.3300 C   0  0  0  0  0  0  0  0  0  0  0  0
  184.0080  178.7630  144.7690 C   0  0  0  0  0  3  0  0  0  0  0  0
  186.2280  178.2800  141.3680 O   0  0  0  0  0  0  0  0  0  0  0  0
  187.3890  178.1840  143.2430 C   0  0  0  0  0  0  0  0  0  0  0  0
  185.4030  178.5670  144.8380 C   0  0  0  0  0  0  0  0  0  0  0  0
  185.4090  178.4590  142.3910 C   0  0  0  0  0  0  0  0  0  0  0  0
  187.4210  178.1130  141.8940 C   0  0  0  0  0  0  0  0  0  0  0  0
  186.0810  178.4140  143.6110 C   0  0  0  0  0  0  0  0  0  0  0  0
  183.3300  178.8100  143.5340 C   0  0  0  0  0  3  0  0  0  0  0  0
  189.6390  177.7500  142.3430 C   0  0  0  0  0  0  0  0  0  0  0  0
  188.6720  177.8720  141.3250 C   0  0  0  0  0  0  0  0  0  0  0  0
  183.3700  178.7030  141.1110 O   0  0  0  0  0  1  0  0  0  0  0  0
  191.0920  177.4850  142.1500 C   0  0  0  0  0  1  0  0  0  0  0  0
  188.9200  177.9400  143.8810 S   0  0  0  0  0  0  0  0  0  0  0  0
  189.2900  176.6630  139.3740 O   0  0  0  0  0  0  0  0  0  0  0  0
  188.7330  178.8980  139.0270 N   0  0  0  0  0  2  0  0  0  0  0  0
  188.9170  177.7590  139.8720 C   0  0  0  0  0  0  0  0  0  0  0  0
  188.9610  178.8400  137.5940 C   0  0  0  0  0  1  0  0  0  0  0  0
  187.0620  177.5600  146.4380 N   0  0  0  0  0  2  0  0  0  0  0  0
  185.7320  179.3640  147.0590 O   0  0  0  0  0  0  0  0  0  0  0  0
  186.0590  178.5440  146.1630 C   0  0  0  0  0  0  0  0  0  0  0  0
  187.7680  177.4890  147.7080 C   0  0  0  0  0  2  0  0  0  0  0  0
  189.2610  177.6150  147.4790 C   0  0  0  0  0  2  0  0  0  0  0  0
  189.8350  176.2960  147.2790 N   0  0  0  0  0  2  0  0  0  0  0  0
  192.2510  175.0280  146.5730 O   0  0  0  0  0  1  0  0  0  0  0  0
  191.7500  177.4940  145.8490 O   0  0  0  0  0  0  0  0  0  0  0  0
  191.5490  176.5120  146.9810 P   0  0  0  0  0  0  0  0  0  0  0  0
  192.2870  177.1130  148.3770 O   0  0  0  0  0  1  0  0  0  0  0  0
  1  6  2  0  0  0  0
  1  9  1  0  0  0  0
  2  5  1  0  0  0  0
  3  7  1  0  0  0  0
  3  6  1  0  0  0  0
  4  8  1  0  0  0  0
  4 14  1  0  0  0  0
  5 21  1  0  0  0  0
  6  8  1  0  0  0  0
  7  4  2  0  0  0  0
  8  5  2  0  0  0  0
  9  2  2  0  0  0  0
 10 14  1  0  0  0  0
 11  7  1  0  0  0  0
 11 10  2  0  0  0  0
 12  1  1  0  0  0  0
 13 10  1  0  0  0  0
 15 17  2  0  0  0  0
 16 17  1  0  0  0  0
 17 11  1  0  0  0  0
 18 16  1  0  0  0  0
 19 22  1  0  0  0  0
 21 19  1  0  0  0  0
 21 20  2  0  0  0  0
 23 22  1  0  0  0  0
 24 23  1  0  0  0  0
 25 27  1  0  0  0  0
 26 27  2  0  0  0  0
 27 24  1  0  0  0  0
 27 28  1  0  0  0  0
M  END
>  <MODEL>
2

>  <REMARK>
 VINA RESULT:      -8.5      2.706      6.387
  Name = 
  6 active torsions:
  status: ('A' for Active; 'I' for Inactive)
    1  A    between atoms: C_2  and  C_16
    2  A    between atoms: C_2  and  N_25
    3  A    between atoms: N_3  and  C_16
    4  A    between atoms: C_9  and  C_14
    5  A    between atoms: P_18  and  N_25
    6  A    between atoms: C_20  and  C_23
                            x       y       z     vdW  Elec       q    Type
                         _______ _______ _______ _____ _____    ______ ____

>  <TORSDO>
F 6

$$$$
=
 OpenBabel11062413323D

 28 30  0  0  0  0  0  0  0  0999 V2000
  188.9850  177.4800  147.5950 C   0  0  0  0  0  0  0  0  0  0  0  0
  190.9770  176.7920  146.3620 C   0  0  0  0  0  3  0  0  0  0  0  0
  187.0720  177.9980  146.1950 O   0  0  0  0  0  0  0  0  0  0  0  0
  187.9960  177.6080  144.2290 C   0  0  0  0  0  0  0  0  0  0  0  0
  190.3200  176.9450  145.1230 C   0  0  0  0  0  0  0  0  0  0  0  0
  188.3290  177.6270  146.3760 C   0  0  0  0  0  0  0  0  0  0  0  0
  186.8810  177.9810  144.8940 C   0  0  0  0  0  0  0  0  0  0  0  0
  188.9760  177.3690  145.1690 C   0  0  0  0  0  0  0  0  0  0  0  0
  190.3220  177.0560  147.5810 C   0  0  0  0  0  3  0  0  0  0  0  0
  186.0860  178.0690  142.7470 C   0  0  0  0  0  0  0  0  0  0  0  0
  185.7650  178.2600  144.1060 C   0  0  0  0  0  0  0  0  0  0  0  0
  188.3350  177.7410  148.7930 O   0  0  0  0  0  1  0  0  0  0  0  0
  185.1660  178.2580  141.5910 C   0  0  0  0  0  1  0  0  0  0  0  0
  187.7100  177.5700  142.5770 S   0  0  0  0  0  0  0  0  0  0  0  0
  184.3630  179.1490  145.8080 O   0  0  0  0  0  0  0  0  0  0  0  0
  183.2810  178.5580  143.8320 N   0  0  0  0  0  2  0  0  0  0  0  0
  184.4530  178.6820  144.6410 C   0  0  0  0  0  0  0  0  0  0  0  0
  181.9680  178.9580  144.3090 C   0  0  0  0  0  1  0  0  0  0  0  0
  191.2210  177.7040  142.9000 N   0  0  0  0  0  2  0  0  0  0  0  0
  191.5470  175.5270  143.6530 O   0  0  0  0  0  0  0  0  0  0  0  0
  191.0650  176.6690  143.8770 C   0  0  0  0  0  0  0  0  0  0  0  0
  191.9610  177.5150  141.6620 C   0  0  0  0  0  2  0  0  0  0  0  0
  191.0250  177.6280  140.4760 C   0  0  0  0  0  2  0  0  0  0  0  0
  190.5630  176.3050  140.0940 N   0  0  0  0  0  2  0  0  0  0  0  0
  192.5320  176.6070  138.0990 O   0  0  0  0  0  1  0  0  0  0  0  0
  190.8220  174.6240  138.0300 O   0  0  0  0  0  1  0  0  0  0  0  0
  190.9500  176.0860  138.3980 P   0  0  0  0  0  0  0  0  0  0  0  0
  189.8770  176.9930  137.4600 O   0  0  0  0  0  0  0  0  0  0  0  0
  1 12  1  0  0  0  0
  2  9  2  0  0  0  0
  3  6  1  0  0  0  0
  4  7  2  0  0  0  0
  4  8  1  0  0  0  0
  5  8  2  0  0  0  0
  5  2  1  0  0  0  0
  6  1  2  0  0  0  0
  7  3  1  0  0  0  0
  8  6  1  0  0  0  0
  9  1  1  0  0  0  0
 10 11  2  0  0  0  0
 11 17  1  0  0  0  0
 11  7  1  0  0  0  0
 13 10  1  0  0  0  0
 14 10  1  0  0  0  0
 14  4  1  0  0  0  0
 16 18  1  0  0  0  0
 16 17  1  0  0  0  0
 17 15  2  0  0  0  0
 19 21  1  0  0  0  0
 20 21  2  0  0  0  0
 21  5  1  0  0  0  0
 22 19  1  0  0  0  0
 23 22  1  0  0  0  0
 24 23  1  0  0  0  0
 25 27  1  0  0  0  0
 26 27  1  0  0  0  0
 27 24  1  0  0  0  0
 28 27  2  0  0  0  0
M  END
>  <MODEL>
3

>  <REMARK>
 VINA RESULT:      -8.4      2.358      5.562
  Name = 
  6 active torsions:
  status: ('A' for Active; 'I' for Inactive)
    1  A    between atoms: C_2  and  C_16
    2  A    between atoms: C_2  and  N_25
    3  A    between atoms: N_3  and  C_16
    4  A    between atoms: C_9  and  C_14
    5  A    between atoms: P_18  and  N_25
    6  A    between atoms: C_20  and  C_23
                            x       y       z     vdW  Elec       q    Type
                         _______ _______ _______ _____ _____    ______ ____

>  <TORSDO>
F 6

$$$$
=
 OpenBabel11062413323D

 28 30  0  0  0  0  0  0  0  0999 V2000
  188.5340  177.5350  147.6390 C   0  0  0  0  0  0  0  0  0  0  0  0
  190.5350  176.8780  146.4040 C   0  0  0  0  0  3  0  0  0  0  0  0
  186.6160  178.0380  146.2410 O   0  0  0  0  0  0  0  0  0  0  0  0
  187.5460  177.6700  144.2740 C   0  0  0  0  0  0  0  0  0  0  0  0
  189.8770  177.0300  145.1650 C   0  0  0  0  0  0  0  0  0  0  0  0
  187.8770  177.6810  146.4210 C   0  0  0  0  0  0  0  0  0  0  0  0
  186.4260  178.0260  144.9410 C   0  0  0  0  0  0  0  0  0  0  0  0
  188.5280  177.4370  145.2130 C   0  0  0  0  0  0  0  0  0  0  0  0
  189.8770  177.1260  147.6240 C   0  0  0  0  0  3  0  0  0  0  0  0
  185.6310  178.1170  142.7930 C   0  0  0  0  0  0  0  0  0  0  0  0
  185.3070  178.2960  144.1540 C   0  0  0  0  0  0  0  0  0  0  0  0
  187.8810  177.7800  148.8390 O   0  0  0  0  0  1  0  0  0  0  0  0
  184.7100  178.3010  141.6370 C   0  0  0  0  0  1  0  0  0  0  0  0
  187.2610  177.6380  142.6220 S   0  0  0  0  0  0  0  0  0  0  0  0
  183.8740  179.0470  145.8950 O   0  0  0  0  0  0  0  0  0  0  0  0
  182.8420  178.6920  143.8380 N   0  0  0  0  0  2  0  0  0  0  0  0
  183.9900  178.6990  144.6890 C   0  0  0  0  0  0  0  0  0  0  0  0
  181.5250  179.0790  144.3150 C   0  0  0  0  0  1  0  0  0  0  0  0
  190.6060  177.7390  142.8650 N   0  0  0  0  0  2  0  0  0  0  0  0
  191.2650  175.6960  143.7610 O   0  0  0  0  0  0  0  0  0  0  0  0
  190.6260  176.7700  143.9180 C   0  0  0  0  0  0  0  0  0  0  0  0
  191.3380  177.5650  141.6190 C   0  0  0  0  0  2  0  0  0  0  0  0
  190.4330  176.9550  140.5670 C   0  0  0  0  0  2  0  0  0  0  0  0
  190.7550  177.5150  139.2660 N   0  0  0  0  0  2  0  0  0  0  0  0
  188.2130  178.7120  139.4920 O   0  0  0  0  0  1  0  0  0  0  0  0
  189.4990  178.6760  137.2110 O   0  0  0  0  0  0  0  0  0  0  0  0
  189.2390  177.8560  138.4550 P   0  0  0  0  0  0  0  0  0  0  0  0
  188.5010  176.4000  138.0180 O   0  0  0  0  0  1  0  0  0  0  0  0
  1 12  1  0  0  0  0
  2  9  2  0  0  0  0
  3  6  1  0  0  0  0
  4  7  2  0  0  0  0
  4  8  1  0  0  0  0
  5  8  2  0  0  0  0
  5  2  1  0  0  0  0
  6  1  2  0  0  0  0
  7  3  1  0  0  0  0
  8  6  1  0  0  0  0
  9  1  1  0  0  0  0
 10 11  2  0  0  0  0
 11 17  1  0  0  0  0
 11  7  1  0  0  0  0
 13 10  1  0  0  0  0
 14 10  1  0  0  0  0
 14  4  1  0  0  0  0
 16 18  1  0  0  0  0
 16 17  1  0  0  0  0
 17 15  2  0  0  0  0
 19 21  1  0  0  0  0
 20 21  2  0  0  0  0
 21  5  1  0  0  0  0
 22 19  1  0  0  0  0
 23 22  1  0  0  0  0
 24 23  1  0  0  0  0
 26 27  2  0  0  0  0
 27 24  1  0  0  0  0
 27 25  1  0  0  0  0
 28 27  1  0  0  0  0
M  END
>  <MODEL>
4

>  <REMARK>
 VINA RESULT:      -8.2      2.119      5.350
  Name = 
  6 active torsions:
  status: ('A' for Active; 'I' for Inactive)
    1  A    between atoms: C_2  and  C_16
    2  A    between atoms: C_2  and  N_25
    3  A    between atoms: N_3  and  C_16
    4  A    between atoms: C_9  and  C_14
    5  A    between atoms: P_18  and  N_25
    6  A    between atoms: C_20  and  C_23
                            x       y       z     vdW  Elec       q    Type
                         _______ _______ _______ _____ _____    ______ ____

>  <TORSDO>
F 6

$$$$
=
 OpenBabel11062413323D

 28 30  0  0  0  0  0  0  0  0999 V2000
  184.9290  178.6670  145.8010 C   0  0  0  0  0  0  0  0  0  0  0  0
  183.5000  178.7920  143.8260 C   0  0  0  0  0  3  0  0  0  0  0  0
  187.2410  178.1010  145.3280 O   0  0  0  0  0  0  0  0  0  0  0  0
  187.0840  177.9120  143.1350 C   0  0  0  0  0  0  0  0  0  0  0  0
  184.5700  178.4500  142.9730 C   0  0  0  0  0  0  0  0  0  0  0  0
  185.9900  178.3360  144.9640 C   0  0  0  0  0  0  0  0  0  0  0  0
  187.8930  177.8480  144.2150 C   0  0  0  0  0  0  0  0  0  0  0  0
  185.8200  178.2280  143.5850 C   0  0  0  0  0  0  0  0  0  0  0  0
  183.6740  178.8990  145.2200 C   0  0  0  0  0  3  0  0  0  0  0  0
  189.4210  177.3810  142.5720 C   0  0  0  0  0  0  0  0  0  0  0  0
  189.2300  177.5460  143.9590 C   0  0  0  0  0  0  0  0  0  0  0  0
  185.1060  178.7720  147.1740 O   0  0  0  0  0  1  0  0  0  0  0  0
  190.7060  177.0570  141.8930 C   0  0  0  0  0  1  0  0  0  0  0  0
  187.9520  177.6120  141.7320 S   0  0  0  0  0  0  0  0  0  0  0  0
  191.4210  177.9090  144.8060 O   0  0  0  0  0  0  0  0  0  0  0  0
  189.9750  176.7750  146.2360 N   0  0  0  0  0  2  0  0  0  0  0  0
  190.2710  177.4320  145.0010 C   0  0  0  0  0  0  0  0  0  0  0  0
  190.9620  176.6350  147.2930 C   0  0  0  0  0  1  0  0  0  0  0  0
  184.7730  179.3740  140.6420 N   0  0  0  0  0  2  0  0  0  0  0  0
  183.6970  177.3520  141.0460 O   0  0  0  0  0  0  0  0  0  0  0  0
  184.3210  178.3380  141.5190 C   0  0  0  0  0  0  0  0  0  0  0  0
  184.5870  179.3230  139.2000 C   0  0  0  0  0  2  0  0  0  0  0  0
  183.3810  180.1510  138.8030 C   0  0  0  0  0  2  0  0  0  0  0  0
  182.3000  179.2700  138.3980 N   0  0  0  0  0  2  0  0  0  0  0  0
  180.6000  181.4010  139.1130 O   0  0  0  0  0  1  0  0  0  0  0  0
  179.6730  178.9720  138.8010 O   0  0  0  0  0  0  0  0  0  0  0  0
  180.8740  179.7430  139.3010 P   0  0  0  0  0  0  0  0  0  0  0  0
  181.1130  179.4000  140.9390 O   0  0  0  0  0  1  0  0  0  0  0  0
  1 12  1  0  0  0  0
  2  9  2  0  0  0  0
  4  8  1  0  0  0  0
  4  7  2  0  0  0  0
  5  8  2  0  0  0  0
  5  2  1  0  0  0  0
  6  3  1  0  0  0  0
  6  1  2  0  0  0  0
  7  3  1  0  0  0  0
  8  6  1  0  0  0  0
  9  1  1  0  0  0  0
 10 11  2  0  0  0  0
 11  7  1  0  0  0  0
 11 17  1  0  0  0  0
 13 10  1  0  0  0  0
 14 10  1  0  0  0  0
 14  4  1  0  0  0  0
 15 17  2  0  0  0  0
 16 18  1  0  0  0  0
 17 16  1  0  0  0  0
 19 21  1  0  0  0  0
 20 21  2  0  0  0  0
 21  5  1  0  0  0  0
 22 19  1  0  0  0  0
 23 22  1  0  0  0  0
 24 23  1  0  0  0  0
 24 27  1  0  0  0  0
 25 27  1  0  0  0  0
 26 27  2  0  0  0  0
 27 28  1  0  0  0  0
M  END
>  <MODEL>
5

>  <REMARK>
 VINA RESULT:      -8.0      2.667      3.464
  Name = 
  6 active torsions:
  status: ('A' for Active; 'I' for Inactive)
    1  A    between atoms: C_2  and  C_16
    2  A    between atoms: C_2  and  N_25
    3  A    between atoms: N_3  and  C_16
    4  A    between atoms: C_9  and  C_14
    5  A    between atoms: P_18  and  N_25
    6  A    between atoms: C_20  and  C_23
                            x       y       z     vdW  Elec       q    Type
                         _______ _______ _______ _____ _____    ______ ____

>  <TORSDO>
F 6

$$$$
=
 OpenBabel11062413323D

 28 30  0  0  0  0  0  0  0  0999 V2000
  190.5130  176.7630  145.6620 C   0  0  0  0  0  0  0  0  0  0  0  0
  188.3870  177.5000  146.6090 C   0  0  0  0  0  3  0  0  0  0  0  0
  190.6380  176.9170  143.2440 O   0  0  0  0  0  0  0  0  0  0  0  0
  188.6160  177.7180  142.8680 C   0  0  0  0  0  0  0  0  0  0  0  0
  187.8650  177.7890  145.3310 C   0  0  0  0  0  0  0  0  0  0  0  0
  190.0070  177.0520  144.3990 C   0  0  0  0  0  0  0  0  0  0  0  0
  189.7890  177.3240  142.3260 C   0  0  0  0  0  0  0  0  0  0  0  0
  188.7160  177.5520  144.2330 C   0  0  0  0  0  0  0  0  0  0  0  0
  189.6920  176.9940  146.7750 C   0  0  0  0  0  3  0  0  0  0  0  0
  188.6840  177.9490  140.4180 C   0  0  0  0  0  0  0  0  0  0  0  0
  189.8860  177.4280  140.9390 C   0  0  0  0  0  0  0  0  0  0  0  0
  191.8000  176.2650  145.8200 O   0  0  0  0  0  1  0  0  0  0  0  0
  188.3890  178.2160  138.9830 C   0  0  0  0  0  1  0  0  0  0  0  0
  187.5680  178.2550  141.6740 S   0  0  0  0  0  0  0  0  0  0  0  0
  192.2060  177.5500  140.4340 O   0  0  0  0  0  0  0  0  0  0  0  0
  190.9650  176.1160  139.0820 N   0  0  0  0  0  2  0  0  0  0  0  0
  191.0820  177.0500  140.1570 C   0  0  0  0  0  0  0  0  0  0  0  0
  192.1090  175.7120  138.2830 C   0  0  0  0  0  1  0  0  0  0  0  0
  185.6590  177.8890  144.1250 N   0  0  0  0  0  2  0  0  0  0  0  0
  186.0290  179.1180  146.0660 O   0  0  0  0  0  0  0  0  0  0  0  0
  186.4840  178.3040  145.2210 C   0  0  0  0  0  0  0  0  0  0  0  0
  184.2830  178.3330  143.9630 C   0  0  0  0  0  2  0  0  0  0  0  0
  184.0950  178.9470  142.5900 C   0  0  0  0  0  2  0  0  0  0  0  0
  183.6920  177.9160  141.6490 N   0  0  0  0  0  2  0  0  0  0  0  0
  183.8150  177.4550  138.8710 O   0  0  0  0  0  0  0  0  0  0  0  0
  182.3380  179.3760  139.8640 O   0  0  0  0  0  1  0  0  0  0  0  0
  183.6500  178.6500  140.0570 P   0  0  0  0  0  0  0  0  0  0  0  0
  184.9230  179.7530  139.9180 O   0  0  0  0  0  1  0  0  0  0  0  0
  1 12  1  0  0  0  0
  1  9  1  0  0  0  0
  2  9  2  0  0  0  0
  3  6  1  0  0  0  0
  4  8  1  0  0  0  0
  5  2  1  0  0  0  0
  6  1  2  0  0  0  0
  7  4  2  0  0  0  0
  7  3  1  0  0  0  0
  8  6  1  0  0  0  0
  8  5  2  0  0  0  0
 10 11  2  0  0  0  0
 10 14  1  0  0  0  0
 11  7  1  0  0  0  0
 13 10  1  0  0  0  0
 14  4  1  0  0  0  0
 16 17  1  0  0  0  0
 17 15  2  0  0  0  0
 17 11  1  0  0  0  0
 18 16  1  0  0  0  0
 19 21  1  0  0  0  0
 21  5  1  0  0  0  0
 21 20  2  0  0  0  0
 22 19  1  0  0  0  0
 23 22  1  0  0  0  0
 24 23  1  0  0  0  0
 25 27  2  0  0  0  0
 26 27  1  0  0  0  0
 27 24  1  0  0  0  0
 28 27  1  0  0  0  0
M  END
>  <MODEL>
6

>  <REMARK>
 VINA RESULT:      -8.0      2.683      5.081
  Name = 
  6 active torsions:
  status: ('A' for Active; 'I' for Inactive)
    1  A    between atoms: C_2  and  C_16
    2  A    between atoms: C_2  and  N_25
    3  A    between atoms: N_3  and  C_16
    4  A    between atoms: C_9  and  C_14
    5  A    between atoms: P_18  and  N_25
    6  A    between atoms: C_20  and  C_23
                            x       y       z     vdW  Elec       q    Type
                         _______ _______ _______ _____ _____    ______ ____

>  <TORSDO>
F 6

$$$$
=
 OpenBabel11062413323D

 28 30  0  0  0  0  0  0  0  0999 V2000
  185.6200  178.4540  146.2970 C   0  0  0  0  0  0  0  0  0  0  0  0
  187.6640  177.6880  145.2030 C   0  0  0  0  0  3  0  0  0  0  0  0
  183.7610  178.8420  144.7860 O   0  0  0  0  0  0  0  0  0  0  0  0
  184.7660  178.3060  142.8960 C   0  0  0  0  0  0  0  0  0  0  0  0
  187.0550  177.7370  143.9310 C   0  0  0  0  0  0  0  0  0  0  0  0
  185.0130  178.4980  145.0460 C   0  0  0  0  0  0  0  0  0  0  0  0
  183.6230  178.7210  143.4850 C   0  0  0  0  0  0  0  0  0  0  0  0
  185.7080  178.1500  143.8900 C   0  0  0  0  0  0  0  0  0  0  0  0
  186.9590  178.0410  146.3710 C   0  0  0  0  0  3  0  0  0  0  0  0
  182.9140  178.6310  141.3070 C   0  0  0  0  0  0  0  0  0  0  0  0
  182.5380  178.9260  142.6340 C   0  0  0  0  0  0  0  0  0  0  0  0
  184.9210  178.8020  147.4450 O   0  0  0  0  0  1  0  0  0  0  0  0
  182.0400  178.7200  140.1040 C   0  0  0  0  0  1  0  0  0  0  0  0
  184.5470  178.1350  141.2420 S   0  0  0  0  0  0  0  0  0  0  0  0
  180.7430  180.4840  142.6900 O   0  0  0  0  0  0  0  0  0  0  0  0
  180.4310  178.5570  143.9600 N   0  0  0  0  0  2  0  0  0  0  0  0
  181.2030  179.3780  143.0800 C   0  0  0  0  0  0  0  0  0  0  0  0
  179.1150  178.9540  144.4290 C   0  0  0  0  0  1  0  0  0  0  0  0
  188.0900  178.3430  141.7190 N   0  0  0  0  0  2  0  0  0  0  0  0
  188.3060  176.2030  142.6040 O   0  0  0  0  0  0  0  0  0  0  0  0
  187.8520  177.3690  142.7410 C   0  0  0  0  0  0  0  0  0  0  0  0
  188.8830  178.0630  140.5320 C   0  0  0  0  0  2  0  0  0  0  0  0
  187.9840  177.5980  139.4050 C   0  0  0  0  0  2  0  0  0  0  0  0
  188.7980  177.1290  138.2970 N   0  0  0  0  0  2  0  0  0  0  0  0
  189.0550  179.7540  137.3050 O   0  0  0  0  0  1  0  0  0  0  0  0
  189.2180  177.6800  135.7140 O   0  0  0  0  0  0  0  0  0  0  0  0
  188.5000  178.1980  136.9410 P   0  0  0  0  0  0  0  0  0  0  0  0
  186.8400  178.2570  136.6310 O   0  0  0  0  0  1  0  0  0  0  0  0
  1  9  1  0  0  0  0
  1 12  1  0  0  0  0
  2  9  2  0  0  0  0
  3  6  1  0  0  0  0
  4  7  2  0  0  0  0
  4  8  1  0  0  0  0
  5  2  1  0  0  0  0
  6  1  2  0  0  0  0
  7  3  1  0  0  0  0
  8  5  2  0  0  0  0
  8  6  1  0  0  0  0
 10 11  2  0  0  0  0
 11 17  1  0  0  0  0
 11  7  1  0  0  0  0
 13 10  1  0  0  0  0
 14 10  1  0  0  0  0
 14  4  1  0  0  0  0
 15 17  2  0  0  0  0
 16 18  1  0  0  0  0
 17 16  1  0  0  0  0
 19 21  1  0  0  0  0
 20 21  2  0  0  0  0
 21  5  1  0  0  0  0
 22 19  1  0  0  0  0
 23 22  1  0  0  0  0
 24 23  1  0  0  0  0
 26 27  2  0  0  0  0
 27 25  1  0  0  0  0
 27 24  1  0  0  0  0
 28 27  1  0  0  0  0
M  END
>  <MODEL>
7

>  <REMARK>
 VINA RESULT:      -7.9      2.486      5.504
  Name = 
  6 active torsions:
  status: ('A' for Active; 'I' for Inactive)
    1  A    between atoms: C_2  and  C_16
    2  A    between atoms: C_2  and  N_25
    3  A    between atoms: N_3  and  C_16
    4  A    between atoms: C_9  and  C_14
    5  A    between atoms: P_18  and  N_25
    6  A    between atoms: C_20  and  C_23
                            x       y       z     vdW  Elec       q    Type
                         _______ _______ _______ _____ _____    ______ ____

>  <TORSDO>
F 6

$$$$
=
 OpenBabel11062413323D

 28 30  0  0  0  0  0  0  0  0999 V2000
  189.3220  177.7780  137.9540 C   0  0  0  0  0  0  0  0  0  0  0  0
  190.9550  177.0250  139.6050 C   0  0  0  0  0  3  0  0  0  0  0  0
  187.1700  178.4000  138.8870 O   0  0  0  0  0  0  0  0  0  0  0  0
  187.6100  177.9920  141.0110 C   0  0  0  0  0  0  0  0  0  0  0  0
  190.0350  177.1960  140.6610 C   0  0  0  0  0  0  0  0  0  0  0  0
  188.4120  177.9540  138.9910 C   0  0  0  0  0  0  0  0  0  0  0  0
  186.6970  178.4200  140.1130 C   0  0  0  0  0  0  0  0  0  0  0  0
  188.7550  177.6710  140.3120 C   0  0  0  0  0  0  0  0  0  0  0  0
  190.6060  177.3100  138.2700 C   0  0  0  0  0  3  0  0  0  0  0  0
  185.4720  178.6510  142.0360 C   0  0  0  0  0  0  0  0  0  0  0  0
  185.4620  178.8050  140.6350 C   0  0  0  0  0  0  0  0  0  0  0  0
  188.9740  178.0610  136.6400 O   0  0  0  0  0  1  0  0  0  0  0  0
  184.3470  178.9580  142.9630 C   0  0  0  0  0  1  0  0  0  0  0  0
  186.9830  178.0570  142.5640 S   0  0  0  0  0  0  0  0  0  0  0  0
  184.4520  180.3610  139.1490 O   0  0  0  0  0  0  0  0  0  0  0  0
  183.0990  178.5800  139.7970 N   0  0  0  0  0  2  0  0  0  0  0  0
  184.3330  179.3020  139.8210 C   0  0  0  0  0  0  0  0  0  0  0  0
  181.9590  179.0250  139.0140 C   0  0  0  0  0  1  0  0  0  0  0  0
  191.0190  177.8840  142.8720 N   0  0  0  0  0  2  0  0  0  0  0  0
  190.3450  175.6920  142.4830 O   0  0  0  0  0  0  0  0  0  0  0  0
  190.4560  176.8650  142.0390 C   0  0  0  0  0  0  0  0  0  0  0  0
  191.4330  177.6410  144.2450 C   0  0  0  0  0  2  0  0  0  0  0  0
  190.3200  178.0270  145.1980 C   0  0  0  0  0  2  0  0  0  0  0  0
  190.2230  177.0370  146.2570 N   0  0  0  0  0  2  0  0  0  0  0  0
  187.5790  178.0110  146.1920 O   0  0  0  0  0  0  0  0  0  0  0  0
  188.3100  176.1850  147.9200 O   0  0  0  0  0  1  0  0  0  0  0  0
  188.8000  177.4240  147.2050 P   0  0  0  0  0  0  0  0  0  0  0  0
  189.1940  178.6070  148.3460 O   0  0  0  0  0  1  0  0  0  0  0  0
  1  9  2  0  0  0  0
  1  6  1  0  0  0  0
  2  5  2  0  0  0  0
  3  6  1  0  0  0  0
  3  7  1  0  0  0  0
  4 14  1  0  0  0  0
  5 21  1  0  0  0  0
  6  8  2  0  0  0  0
  7 11  1  0  0  0  0
  7  4  2  0  0  0  0
  8  5  1  0  0  0  0
  8  4  1  0  0  0  0
  9  2  1  0  0  0  0
 10 14  1  0  0  0  0
 10 13  1  0  0  0  0
 11 10  2  0  0  0  0
 12  1  1  0  0  0  0
 15 17  2  0  0  0  0
 16 17  1  0  0  0  0
 17 11  1  0  0  0  0
 18 16  1  0  0  0  0
 19 22  1  0  0  0  0
 21 20  2  0  0  0  0
 21 19  1  0  0  0  0
 22 23  1  0  0  0  0
 23 24  1  0  0  0  0
 24 27  1  0  0  0  0
 25 27  2  0  0  0  0
 27 26  1  0  0  0  0
 27 28  1  0  0  0  0
M  END
>  <MODEL>
8

>  <REMARK>
 VINA RESULT:      -7.8      2.915      8.001
  Name = 
  6 active torsions:
  status: ('A' for Active; 'I' for Inactive)
    1  A    between atoms: C_2  and  C_16
    2  A    between atoms: C_2  and  N_25
    3  A    between atoms: N_3  and  C_16
    4  A    between atoms: C_9  and  C_14
    5  A    between atoms: P_18  and  N_25
    6  A    between atoms: C_20  and  C_23
                            x       y       z     vdW  Elec       q    Type
                         _______ _______ _______ _____ _____    ______ ____

>  <TORSDO>
F 6

$$$$
=
 OpenBabel11062413323D

 28 30  0  0  0  0  0  0  0  0999 V2000
  184.8070  178.6260  145.6890 C   0  0  0  0  0  0  0  0  0  0  0  0
  183.5190  179.0020  143.6500 C   0  0  0  0  0  3  0  0  0  0  0  0
  187.0920  177.9010  145.3090 O   0  0  0  0  0  0  0  0  0  0  0  0
  187.0580  177.8750  143.1020 C   0  0  0  0  0  0  0  0  0  0  0  0
  184.6100  178.6300  142.8360 C   0  0  0  0  0  0  0  0  0  0  0  0
  185.8890  178.2640  144.8920 C   0  0  0  0  0  0  0  0  0  0  0  0
  187.7900  177.6700  144.2190 C   0  0  0  0  0  0  0  0  0  0  0  0
  185.7970  178.2630  143.5010 C   0  0  0  0  0  0  0  0  0  0  0  0
  183.6130  179.0000  145.0560 C   0  0  0  0  0  3  0  0  0  0  0  0
  189.3760  177.1890  142.6360 C   0  0  0  0  0  0  0  0  0  0  0  0
  189.1120  177.2760  144.0180 C   0  0  0  0  0  0  0  0  0  0  0  0
  184.9060  178.6230  147.0740 O   0  0  0  0  0  1  0  0  0  0  0  0
  190.6720  176.8060  142.0100 C   0  0  0  0  0  1  0  0  0  0  0  0
  187.9850  177.5980  141.7330 S   0  0  0  0  0  0  0  0  0  0  0  0
  191.1780  176.4500  144.8560 O   0  0  0  0  0  0  0  0  0  0  0  0
  189.7520  177.3710  146.4510 N   0  0  0  0  0  2  0  0  0  0  0  0
  190.0740  177.0050  145.1070 C   0  0  0  0  0  0  0  0  0  0  0  0
  190.6610  177.1260  147.5570 C   0  0  0  0  0  1  0  0  0  0  0  0
  183.5760  177.6820  140.7480 N   0  0  0  0  0  2  0  0  0  0  0  0
  185.0730  179.4600  140.6510 O   0  0  0  0  0  0  0  0  0  0  0  0
  184.4440  178.6380  141.3670 C   0  0  0  0  0  0  0  0  0  0  0  0
  183.3430  177.6420  139.3130 C   0  0  0  0  0  2  0  0  0  0  0  0
  181.9290  178.0930  139.0040 C   0  0  0  0  0  2  0  0  0  0  0  0
  181.1260  178.0300  140.2120 N   0  0  0  0  0  2  0  0  0  0  0  0
  178.9330  176.6630  141.3380 O   0  0  0  0  0  1  0  0  0  0  0  0
  179.1500  176.9800  138.7480 O   0  0  0  0  0  0  0  0  0  0  0  0
  179.9640  176.7350  139.9990 P   0  0  0  0  0  0  0  0  0  0  0  0
  180.7860  175.2660  139.8490 O   0  0  0  0  0  1  0  0  0  0  0  0
  1 12  1  0  0  0  0
  2  9  2  0  0  0  0
  4  8  1  0  0  0  0
  4  7  2  0  0  0  0
  5  8  2  0  0  0  0
  5  2  1  0  0  0  0
  6  3  1  0  0  0  0
  6  1  2  0  0  0  0
  7  3  1  0  0  0  0
  8  6  1  0  0  0  0
  9  1  1  0  0  0  0
 10 11  2  0  0  0  0
 11  7  1  0  0  0  0
 11 17  1  0  0  0  0
 13 10  1  0  0  0  0
 14 10  1  0  0  0  0
 14  4  1  0  0  0  0
 15 17  2  0  0  0  0
 16 18  1  0  0  0  0
 17 16  1  0  0  0  0
 19 21  1  0  0  0  0
 20 21  2  0  0  0  0
 21  5  1  0  0  0  0
 22 19  1  0  0  0  0
 23 22  1  0  0  0  0
 23 24  1  0  0  0  0
 26 27  2  0  0  0  0
 27 24  1  0  0  0  0
 27 25  1  0  0  0  0
 28 27  1  0  0  0  0
M  END
>  <MODEL>
9

>  <REMARK>
 VINA RESULT:      -7.7      2.727      4.002
  Name = 
  6 active torsions:
  status: ('A' for Active; 'I' for Inactive)
    1  A    between atoms: C_2  and  C_16
    2  A    between atoms: C_2  and  N_25
    3  A    between atoms: N_3  and  C_16
    4  A    between atoms: C_9  and  C_14
    5  A    between atoms: P_18  and  N_25
    6  A    between atoms: C_20  and  C_23
                            x       y       z     vdW  Elec       q    Type
                         _______ _______ _______ _____ _____    ______ ____

>  <TORSDO>
F 6

$$$$
